=
 OpenBabel11062412083D

 54 63  0  0  1  0  0  0  0  0999 V2000
  186.7320  172.5810  134.9780 C   0  0  2  0  0  0  0  0  0  0  0  0
  187.1660  176.0360  137.5900 C   0  0  0  0  0  2  0  0  0  0  0  0
  184.8520  179.0820  137.7430 C   0  0  1  0  0  3  0  0  0  0  0  0
  184.5120  173.0240  136.3420 C   0  0  2  0  0  3  0  0  0  0  0  0
  185.2490  172.9600  134.9750 C   0  0  1  0  0  0  0  0  0  0  0  0
  183.5140  174.1940  136.3980 C   0  0  2  0  0  3  0  0  0  0  0  0
  181.2420  178.7480  137.1100 C   0  0  1  0  0  3  0  0  0  0  0  0
  180.7070  177.9470  138.1390 O   0  0  0  0  0  0  0  0  0  0  0  0
  186.2780  173.9090  134.8880 O   0  0  0  0  0  0  0  0  0  0  0  0
  188.5510  176.4150  137.0760 C   0  0  0  0  0  2  0  0  0  0  0  0
  183.5600  176.7780  136.6470 C   0  0  2  0  0  3  0  0  0  0  0  0
  182.4620  173.9620  135.5110 O   0  0  0  0  0  1  0  0  0  0  0  0
  185.9060  178.0960  138.2290 C   0  0  1  0  0  3  0  0  0  0  0  0
  186.4330  171.9450  137.4870 C   0  0  0  0  0  2  0  0  0  0  0  0
  182.0990  177.8680  137.9530 C   0  0  2  0  0  0  0  0  0  0  0  0
  188.7410  173.3850  136.9300 S   0  0  0  0  0  0  0  0  0  0  0  0
  182.8260  178.4680  139.1800 C   0  0  2  0  0  3  0  0  0  0  0  0
  182.4460  176.5830  137.4730 O   0  0  0  0  0  0  0  0  0  0  0  0
  185.6820  171.5640  134.5950 C   0  0  0  0  0  2  0  0  0  0  0  0
  184.1940  175.5180  136.0530 C   0  0  1  0  0  3  0  0  0  0  0  0
  183.9880  179.4600  138.9360 C   0  0  0  0  0  2  0  0  0  0  0  0
  186.0230  176.9660  137.1870 C   0  0  1  0  0  0  0  0  0  0  0  0
  190.1860  175.3510  135.3850 C   0  0  1  0  0  3  0  0  0  0  0  0
  186.2040  177.4480  135.8790 O   0  0  0  0  0  1  0  0  0  0  0  0
  188.9750  174.4100  135.4150 C   0  0  2  0  0  3  0  0  0  0  0  0
  186.3060  179.5050  137.8200 C   0  0  0  0  0  2  0  0  0  0  0  0
  184.7480  176.1220  137.3270 C   0  0  1  0  0  3  0  0  0  0  0  0
  188.7810  175.9190  135.6380 C   0  0  1  0  0  3  0  0  0  0  0  0
  185.3990  173.0390  137.5840 C   0  0  0  0  0  2  0  0  0  0  0  0
  187.3890  172.2710  136.3490 C   0  0  2  0  0  3  0  0  0  0  0  0
  183.0790  177.4860  140.2790 C   0  0  0  0  0  0  0  0  0  0  0  0
  182.2800  176.3610  140.4290 O   0  0  0  0  0  0  0  0  0  0  0  0
  184.0150  177.6950  141.0930 O   0  0  0  0  0  1  0  0  0  0  0  0
  180.1170  179.0550  135.2350 C   0  0  0  0  0  1  0  0  0  0  0  0
  180.9680  178.1550  135.8750 O   0  0  0  0  0  0  0  0  0  0  0  0
  191.1390  175.2100  136.5960 C   0  0  2  0  0  3  0  0  0  0  0  0
  191.1600  176.4350  137.4070 N   0  0  0  0  0  2  0  0  0  0  0  0
  190.7750  176.1510  138.7850 C   0  0  0  0  0  2  0  0  0  0  0  0
  191.5480  177.0560  139.7240 C   0  0  0  0  0  2  0  0  0  0  0  0
  190.6660  177.4980  140.8780 C   0  0  0  0  0  2  0  0  0  0  0  0
  189.2090  177.2060  140.5710 C   0  0  0  0  0  1  0  0  0  0  0  0
  192.5640  174.8030  136.1580 C   0  0  2  0  0  3  0  0  0  0  0  0
  192.8310  170.6450  135.0720 C   0  0  0  0  0  3  0  0  0  0  0  0
  193.8330  171.2150  135.8610 C   0  0  0  0  0  3  0  0  0  0  0  0
  191.7590  171.4260  134.6320 C   0  0  0  0  0  3  0  0  0  0  0  0
  191.6870  172.7780  134.9830 C   0  0  0  0  0  3  0  0  0  0  0  0
  193.7620  172.5670  136.2130 C   0  0  0  0  0  3  0  0  0  0  0  0
  192.6870  173.3550  135.7720 C   0  0  0  0  0  0  0  0  0  0  0  0
  193.6180  175.2100  137.1550 C   0  0  0  0  0  0  0  0  0  0  0  0
  194.6680  176.9880  135.6470 C   0  0  0  0  0  0  0  0  0  0  0  0
  195.5680  177.8600  135.5300 O   0  0  0  0  0  1  0  0  0  0  0  0
  194.5790  176.2290  136.8580 N   0  0  0  0  0  2  0  0  0  0  0  0
  193.7790  176.7850  134.5990 O   0  0  0  0  0  0  0  0  0  0  0  0
  193.6670  174.6330  138.2740 O   0  0  0  0  0  0  0  0  0  0  0  0
  1 19  1  6  0  0  0
  1 30  1  0  0  0  0
  3 26  1  1  0  0  0
  3 13  1  0  0  0  0
  3 21  1  0  0  0  0
  4  6  1  0  0  0  0
  4 29  1  1  0  0  0
  5 19  1  6  0  0  0
  5  1  1  0  0  0  0
  5  4  1  0  0  0  0
  6 12  1  6  0  0  0
  7 35  1  6  0  0  0
  7 15  1  0  0  0  0
  7  8  1  0  0  0  0
  9  5  1  0  0  0  0
  9  1  1  0  0  0  0
 10  2  1  0  0  0  0
 11 27  1  0  0  0  0
 11 18  1  1  0  0  0
 13 26  1  6  0  0  0
 14 29  1  0  0  0  0
 15 18  1  6  0  0  0
 15  8  1  0  0  0  0
 15 17  1  0  0  0  0
 17 31  1  6  0  0  0
 20  6  1  0  0  0  0
 20 11  1  0  0  0  0
 20 27  1  0  0  0  0
 21 17  1  0  0  0  0
 22 27  1  0  0  0  0
 22  2  1  0  0  0  0
 22 13  1  0  0  0  0
 23 25  1  0  0  0  0
 23 28  1  0  0  0  0
 23 36  1  0  0  0  0
 24 22  1  0  0  0  0
 25 28  1  0  0  0  0
 25 16  1  0  0  0  0
 28 10  1  0  0  0  0
 30 16  1  0  0  0  0
 30 14  1  0  0  0  0
 31 32  2  0  0  0  0
 31 33  1  0  0  0  0
 34 35  1  0  0  0  0
 36 37  1  0  0  0  0
 37 38  1  0  0  0  0
 38 39  1  0  0  0  0
 39 40  1  0  0  0  0
 41 40  1  0  0  0  0
 42 36  1  0  0  0  0
 42 49  1  0  0  0  0
 43 44  1  0  0  0  0
 44 47  2  0  0  0  0
 45 46  1  0  0  0  0
 45 43  2  0  0  0  0
 46 48  2  0  0  0  0
 48 42  1  0  0  0  0
 48 47  1  0  0  0  0
 49 54  2  0  0  0  0
 50 52  1  0  0  0  0
 51 50  1  0  0  0  0
 52 49  1  0  0  0  0
 53 50  2  0  0  0  0
M  END
>  <MODEL>
1

>  <REMARK>
 VINA RESULT:      -4.3      0.000      0.000
  Name = 
  10 active torsions:
  status: ('A' for Active; 'I' for Inactive)
    1  A    between atoms: N_1  and  C_13
    2  A    between atoms: N_1  and  C_23
    3  A    between atoms: C_9  and  C_26
    4  A    between atoms: C_10  and  O_42
    5  A    between atoms: C_11  and  C_23
    6  A    between atoms: C_11  and  C_44
    7  A    between atoms: C_13  and  C_26
    8  A    between atoms: C_13  and  C_40
    9  A    between atoms: C_22  and  C_32
   10  A    between atoms: C_26  and  C_53
                            x       y       z     vdW  Elec       q    Type
                         _______ _______ _______ _____ _____    ______ ____

>  <TORSDO>
F 10

$$$$
=
 OpenBabel11062412083D

 54 63  0  0  1  0  0  0  0  0999 V2000
  190.4140  178.3660  143.3500 C   0  0  2  0  0  0  0  0  0  0  0  0
  188.5370  176.7010  139.7930 C   0  0  0  0  0  2  0  0  0  0  0  0
  189.9400  176.7710  136.2310 C   0  0  1  0  0  3  0  0  0  0  0  0
  192.0600  176.7300  142.0860 C   0  0  2  0  0  3  0  0  0  0  0  0
  191.7170  178.1650  142.5700 C   0  0  1  0  0  0  0  0  0  0  0  0
  192.7020  176.7370  140.6870 C   0  0  2  0  0  3  0  0  0  0  0  0
  193.5660  176.6090  135.6230 C   0  0  1  0  0  3  0  0  0  0  0  0
  194.0100  175.3470  136.0660 O   0  0  0  0  0  0  0  0  0  0  0  0
  190.5430  178.6540  141.9790 O   0  0  0  0  0  0  0  0  0  0  0  0
  187.2700  177.5420  139.9070 C   0  0  0  0  0  2  0  0  0  0  0  0
  191.9760  177.0700  138.2170 C   0  0  2  0  0  3  0  0  0  0  0  0
  193.9630  177.3330  140.7480 O   0  0  0  0  0  1  0  0  0  0  0  0
  189.0690  176.2950  137.3850 C   0  0  1  0  0  3  0  0  0  0  0  0
  190.2370  175.7700  143.4700 C   0  0  0  0  0  2  0  0  0  0  0  0
  192.7670  175.7760  136.5650 C   0  0  2  0  0  0  0  0  0  0  0  0
  187.8570  177.0590  142.8500 S   0  0  0  0  0  0  0  0  0  0  0  0
  191.6400  174.8720  136.0100 C   0  0  2  0  0  3  0  0  0  0  0  0
  192.8680  176.0230  137.9550 O   0  0  0  0  0  0  0  0  0  0  0  0
  191.7380  178.3090  144.0740 C   0  0  0  0  0  2  0  0  0  0  0  0
  191.8290  177.4870  139.6820 C   0  0  1  0  0  3  0  0  0  0  0  0
  190.3700  175.5450  135.4390 C   0  0  0  0  0  2  0  0  0  0  0  0
  189.4850  177.0680  138.6520 C   0  0  1  0  0  0  0  0  0  0  0  0
  186.4020  179.2440  141.6440 C   0  0  1  0  0  3  0  0  0  0  0  0
  189.5180  178.4590  138.4530 O   0  0  0  0  0  1  0  0  0  0  0  0
  187.7590  178.7770  142.1870 C   0  0  2  0  0  3  0  0  0  0  0  0
  188.4530  177.0690  136.2310 C   0  0  0  0  0  2  0  0  0  0  0  0
  190.8520  176.5060  139.0670 C   0  0  1  0  0  3  0  0  0  0  0  0
  187.5240  178.8550  140.6680 C   0  0  1  0  0  3  0  0  0  0  0  0
  190.9210  175.7150  142.1270 C   0  0  0  0  0  2  0  0  0  0  0  0
  189.5380  177.1130  143.6120 C   0  0  2  0  0  3  0  0  0  0  0  0
  191.3710  173.6560  136.8370 C   0  0  0  0  0  0  0  0  0  0  0  0
  190.1060  173.4090  137.3540 O   0  0  0  0  0  1  0  0  0  0  0  0
  192.3100  172.8580  137.0880 O   0  0  0  0  0  0  0  0  0  0  0  0
  195.3860  177.8530  135.5060 C   0  0  0  0  0  1  0  0  0  0  0  0
  194.2670  177.6080  136.3010 O   0  0  0  0  0  0  0  0  0  0  0  0
  185.2460  178.2380  141.8570 C   0  0  2  0  0  3  0  0  0  0  0  0
  184.3030  178.2600  140.7300 N   0  0  0  0  0  2  0  0  0  0  0  0
  184.4870  179.4610  139.9230 C   0  0  0  0  0  2  0  0  0  0  0  0
  184.0760  179.1780  138.4920 C   0  0  0  0  0  2  0  0  0  0  0  0
  183.8930  177.6860  138.2800 C   0  0  0  0  0  2  0  0  0  0  0  0
  184.7930  177.1970  137.1610 C   0  0  0  0  0  1  0  0  0  0  0  0
  184.5200  178.4770  143.2000 C   0  0  2  0  0  3  0  0  0  0  0  0
  180.2260  178.5830  142.9080 C   0  0  0  0  0  3  0  0  0  0  0  0
  180.9930  178.5210  141.7420 C   0  0  0  0  0  3  0  0  0  0  0  0
  180.8540  178.6220  144.1560 C   0  0  0  0  0  3  0  0  0  0  0  0
  182.2490  178.5960  144.2390 C   0  0  0  0  0  3  0  0  0  0  0  0
  182.3880  178.4950  141.8230 C   0  0  0  0  0  3  0  0  0  0  0  0
  183.0230  178.5350  143.0750 C   0  0  0  0  0  0  0  0  0  0  0  0
  185.0660  179.6610  143.9550 C   0  0  0  0  0  0  0  0  0  0  0  0
  186.0220  178.2700  145.8770 C   0  0  0  0  0  0  0  0  0  0  0  0
  186.6410  178.2880  146.9720 O   0  0  0  0  0  1  0  0  0  0  0  0
  185.7510  179.5050  145.2040 N   0  0  0  0  0  2  0  0  0  0  0  0
  185.6190  177.0520  145.3430 O   0  0  0  0  0  0  0  0  0  0  0  0
  184.9100  180.8200  143.4880 O   0  0  0  0  0  0  0  0  0  0  0  0
  1 30  1  0  0  0  0
  1 19  1  1  0  0  0
  2 10  1  0  0  0  0
  3 21  1  6  0  0  0
  3 13  1  0  0  0  0
  4 29  1  6  0  0  0
  4  5  1  0  0  0  0
  5  1  1  0  0  0  0
  5 19  1  1  0  0  0
  6 12  1  1  0  0  0
  6  4  1  0  0  0  0
  7  8  1  0  0  0  0
  7 35  1  1  0  0  0
  7 15  1  0  0  0  0
  9  5  1  0  0  0  0
  9  1  1  0  0  0  0
 10 28  1  0  0  0  0
 11 18  1  1  0  0  0
 11 27  1  0  0  0  0
 11 20  1  0  0  0  0
 13 26  1  6  0  0  0
 13 22  1  0  0  0  0
 14 30  1  0  0  0  0
 15  8  1  1  0  0  0
 15 18  1  0  0  0  0
 16 30  1  0  0  0  0
 17 15  1  0  0  0  0
 17 31  1  1  0  0  0
 20  6  1  0  0  0  0
 21 17  1  0  0  0  0
 22 27  1  0  0  0  0
 22  2  1  0  0  0  0
 23 36  1  0  0  0  0
 23 25  1  0  0  0  0
 24 22  1  0  0  0  0
 25 16  1  0  0  0  0
 26  3  1  0  0  0  0
 27 20  1  0  0  0  0
 28 23  1  0  0  0  0
 28 25  1  0  0  0  0
 29 14  1  0  0  0  0
 31 33  2  0  0  0  0
 31 32  1  0  0  0  0
 34 35  1  0  0  0  0
 36 42  1  0  0  0  0
 37 36  1  0  0  0  0
 38 37  1  0  0  0  0
 39 38  1  0  0  0  0
 40 39  1  0  0  0  0
 41 40  1  0  0  0  0
 42 49  1  0  0  0  0
 43 45  1  0  0  0  0
 44 47  1  0  0  0  0
 44 43  2  0  0  0  0
 45 46  2  0  0  0  0
 47 48  2  0  0  0  0
 48 42  1  0  0  0  0
 48 46  1  0  0  0  0
 49 52  1  0  0  0  0
 50 51  1  0  0  0  0
 52 50  1  0  0  0  0
 53 50  2  0  0  0  0
 54 49  2  0  0  0  0
M  END
>  <MODEL>
2

>  <REMARK>
 VINA RESULT:      -3.8      4.073     10.455
  Name = 
  10 active torsions:
  status: ('A' for Active; 'I' for Inactive)
    1  A    between atoms: N_1  and  C_13
    2  A    between atoms: N_1  and  C_23
    3  A    between atoms: C_9  and  C_26
    4  A    between atoms: C_10  and  O_42
    5  A    between atoms: C_11  and  C_23
    6  A    between atoms: C_11  and  C_44
    7  A    between atoms: C_13  and  C_26
    8  A    between atoms: C_13  and  C_40
    9  A    between atoms: C_22  and  C_32
   10  A    between atoms: C_26  and  C_53
                            x       y       z     vdW  Elec       q    Type
                         _______ _______ _______ _____ _____    ______ ____

>  <TORSDO>
F 10

$$$$
=
 OpenBabel11062412083D

 54 63  0  0  1  0  0  0  0  0999 V2000
  189.9200  178.5060  142.4270 C   0  0  2  0  0  0  0  0  0  0  0  0
  188.6870  176.4490  138.7940 C   0  0  0  0  0  2  0  0  0  0  0  0
  190.6130  176.3110  135.4880 C   0  0  1  0  0  3  0  0  0  0  0  0
  191.8130  176.8730  141.5730 C   0  0  2  0  0  3  0  0  0  0  0  0
  191.3340  178.3200  141.8710 C   0  0  1  0  0  0  0  0  0  0  0  0
  192.6600  176.8050  140.2900 C   0  0  2  0  0  3  0  0  0  0  0  0
  194.2930  176.3150  135.4420 C   0  0  1  0  0  3  0  0  0  0  0  0
  194.7220  175.1220  136.0570 O   0  0  0  0  0  0  0  0  0  0  0  0
  190.2430  178.6890  141.0700 O   0  0  0  0  0  0  0  0  0  0  0  0
  187.3810  177.2210  138.6440 C   0  0  0  0  0  2  0  0  0  0  0  0
  192.3060  176.8910  137.7190 C   0  0  2  0  0  3  0  0  0  0  0  0
  193.8690  177.4770  140.4840 O   0  0  0  0  0  1  0  0  0  0  0  0
  189.5990  175.8800  136.5390 C   0  0  1  0  0  3  0  0  0  0  0  0
  189.8460  175.9230  142.7510 C   0  0  0  0  0  2  0  0  0  0  0  0
  193.3990  175.5160  136.3250 C   0  0  2  0  0  0  0  0  0  0  0  0
  187.5330  177.0150  141.6730 S   0  0  0  0  0  0  0  0  0  0  0  0
  192.4130  174.5050  135.6930 C   0  0  2  0  0  3  0  0  0  0  0  0
  193.2750  175.8810  137.6870 O   0  0  0  0  0  0  0  0  0  0  0  0
  191.1190  178.5870  143.3410 C   0  0  0  0  0  2  0  0  0  0  0  0
  191.9180  177.4160  139.1030 C   0  0  1  0  0  3  0  0  0  0  0  0
  191.2150  175.0530  134.8820 C   0  0  0  0  0  2  0  0  0  0  0  0
  189.7800  176.7780  137.7790 C   0  0  1  0  0  0  0  0  0  0  0  0
  186.1800  179.0040  140.0730 C   0  0  1  0  0  3  0  0  0  0  0  0
  189.7790  178.1480  137.4630 O   0  0  0  0  0  1  0  0  0  0  0  0
  187.4580  178.6640  140.8510 C   0  0  2  0  0  3  0  0  0  0  0  0
  189.1320  176.5210  135.2410 C   0  0  0  0  0  2  0  0  0  0  0  0
  191.0930  176.3330  138.4400 C   0  0  1  0  0  3  0  0  0  0  0  0
  187.4550  178.6040  139.3140 C   0  0  1  0  0  3  0  0  0  0  0  0
  190.7290  175.7990  141.5350 C   0  0  0  0  0  2  0  0  0  0  0  0
  189.0720  177.2300  142.6680 C   0  0  2  0  0  3  0  0  0  0  0  0
  192.0770  173.3470  136.5760 C   0  0  0  0  0  0  0  0  0  0  0  0
  192.9890  172.3200  136.7860 O   0  0  0  0  0  0  0  0  0  0  0  0
  190.9440  173.2900  137.1190 O   0  0  0  0  0  1  0  0  0  0  0  0
  195.7380  177.9700  135.2220 C   0  0  0  0  0  1  0  0  0  0  0  0
  194.8360  177.4060  136.1240 O   0  0  0  0  0  0  0  0  0  0  0  0
  185.0530  177.9530  140.2020 C   0  0  2  0  0  3  0  0  0  0  0  0
  184.8390  177.2380  138.9350 N   0  0  0  0  0  2  0  0  0  0  0  0
  184.6850  178.1780  137.8290 C   0  0  0  0  0  2  0  0  0  0  0  0
  184.1440  177.4480  136.6160 C   0  0  0  0  0  2  0  0  0  0  0  0
  185.2770  177.0680  135.6800 C   0  0  0  0  0  2  0  0  0  0  0  0
  185.5650  175.5810  135.7770 C   0  0  0  0  0  1  0  0  0  0  0  0
  183.7390  178.5820  140.7180 C   0  0  2  0  0  3  0  0  0  0  0  0
  183.4360  178.8580  145.0040 C   0  0  0  0  0  3  0  0  0  0  0  0
  184.6750  178.5800  144.4180 C   0  0  0  0  0  3  0  0  0  0  0  0
  182.3070  179.0320  144.2000 C   0  0  0  0  0  3  0  0  0  0  0  0
  182.4150  178.9310  142.8090 C   0  0  0  0  0  3  0  0  0  0  0  0
  184.7840  178.4790  143.0280 C   0  0  0  0  0  3  0  0  0  0  0  0
  183.6510  178.6520  142.2170 C   0  0  0  0  0  0  0  0  0  0  0  0
  182.5130  177.9490  140.1130 C   0  0  0  0  0  0  0  0  0  0  0  0
  181.8350  180.0210  138.7770 C   0  0  0  0  0  0  0  0  0  0  0  0
  180.9980  180.5250  137.9840 O   0  0  0  0  0  0  0  0  0  0  0  0
  181.6560  178.6710  139.2210 N   0  0  0  0  0  2  0  0  0  0  0  0
  182.9150  180.7850  139.2020 O   0  0  0  0  0  1  0  0  0  0  0  0
  182.2220  176.7580  140.4050 O   0  0  0  0  0  0  0  0  0  0  0  0
  1 30  1  0  0  0  0
  1 19  1  1  0  0  0
  3 21  1  6  0  0  0
  3 13  1  0  0  0  0
  4 29  1  6  0  0  0
  4  5  1  0  0  0  0
  5  1  1  0  0  0  0
  5 19  1  1  0  0  0
  6 12  1  1  0  0  0
  6  4  1  0  0  0  0
  7  8  1  0  0  0  0
  7 35  1  1  0  0  0
  7 15  1  0  0  0  0
  9  5  1  0  0  0  0
  9  1  1  0  0  0  0
 10  2  1  0  0  0  0
 10 28  1  0  0  0  0
 11 18  1  1  0  0  0
 11 27  1  0  0  0  0
 11 20  1  0  0  0  0
 13 26  1  6  0  0  0
 13 22  1  0  0  0  0
 15  8  1  1  0  0  0
 15 18  1  0  0  0  0
 16 30  1  0  0  0  0
 17 15  1  0  0  0  0
 17 31  1  1  0  0  0
 20  6  1  0  0  0  0
 21 17  1  0  0  0  0
 22 27  1  0  0  0  0
 22  2  1  0  0  0  0
 23 36  1  0  0  0  0
 23 25  1  0  0  0  0
 24 22  1  0  0  0  0
 25 16  1  0  0  0  0
 26  3  1  0  0  0  0
 27 20  1  0  0  0  0
 28 23  1  0  0  0  0
 28 25  1  0  0  0  0
 29 14  1  0  0  0  0
 30 14  1  0  0  0  0
 31 32  2  0  0  0  0
 31 33  1  0  0  0  0
 34 35  1  0  0  0  0
 36 42  1  0  0  0  0
 37 36  1  0  0  0  0
 38 37  1  0  0  0  0
 39 38  1  0  0  0  0
 40 41  1  0  0  0  0
 40 39  1  0  0  0  0
 42 48  1  0  0  0  0
 44 43  1  0  0  0  0
 45 43  2  0  0  0  0
 46 45  1  0  0  0  0
 47 44  2  0  0  0  0
 48 46  2  0  0  0  0
 48 47  1  0  0  0  0
 49 54  2  0  0  0  0
 49 42  1  0  0  0  0
 50 53  1  0  0  0  0
 50 52  1  0  0  0  0
 51 50  2  0  0  0  0
 52 49  1  0  0  0  0
M  END
>  <MODEL>
3

>  <REMARK>
 VINA RESULT:      -3.1      2.997     10.309
  Name = 
  10 active torsions:
  status: ('A' for Active; 'I' for Inactive)
    1  A    between atoms: N_1  and  C_13
    2  A    between atoms: N_1  and  C_23
    3  A    between atoms: C_9  and  C_26
    4  A    between atoms: C_10  and  O_42
    5  A    between atoms: C_11  and  C_23
    6  A    between atoms: C_11  and  C_44
    7  A    between atoms: C_13  and  C_26
    8  A    between atoms: C_13  and  C_40
    9  A    between atoms: C_22  and  C_32
   10  A    between atoms: C_26  and  C_53
                            x       y       z     vdW  Elec       q    Type
                         _______ _______ _______ _____ _____    ______ ____

>  <TORSDO>
F 10

$$$$
=
 OpenBabel11062412083D

 54 63  0  0  1  0  0  0  0  0999 V2000
  187.2230  176.9540  137.1920 C   0  0  2  0  0  0  0  0  0  0  0  0
  186.5490  178.7820  141.0840 C   0  0  0  0  0  2  0  0  0  0  0  0
  187.9590  177.5870  144.4370 C   0  0  1  0  0  3  0  0  0  0  0  0
  189.5120  177.4660  138.4080 C   0  0  2  0  0  3  0  0  0  0  0  0
  188.5100  176.4280  137.8310 C   0  0  1  0  0  0  0  0  0  0  0  0
  190.1550  176.9720  139.7160 C   0  0  2  0  0  3  0  0  0  0  0  0
  191.2680  175.9900  144.6360 C   0  0  1  0  0  3  0  0  0  0  0  0
  192.2250  176.9580  144.2680 O   0  0  0  0  0  0  0  0  0  0  0  0
  187.2810  176.4520  138.5040 O   0  0  0  0  0  0  0  0  0  0  0  0
  185.0320  178.6360  141.0360 C   0  0  0  0  0  2  0  0  0  0  0  0
  189.5010  176.6700  142.2110 C   0  0  2  0  0  3  0  0  0  0  0  0
  190.9860  175.8810  139.4530 O   0  0  0  0  0  1  0  0  0  0  0  0
  187.3460  178.5630  143.4420 C   0  0  1  0  0  3  0  0  0  0  0  0
  188.2720  179.3330  137.3420 C   0  0  0  0  0  2  0  0  0  0  0  0
  190.8980  177.2170  143.8770 C   0  0  2  0  0  0  0  0  0  0  0  0
  185.6060  179.2000  138.1050 S   0  0  0  0  0  0  0  0  0  0  0  0
  190.3590  178.4490  144.6420 C   0  0  2  0  0  3  0  0  0  0  0  0
  190.7930  177.1460  142.4670 O   0  0  0  0  0  0  0  0  0  0  0  0
  188.3760  176.5000  136.3290 C   0  0  0  0  0  2  0  0  0  0  0  0
  189.0920  176.5730  140.7390 C   0  0  1  0  0  3  0  0  0  0  0  0
  188.9560  178.3590  145.2880 C   0  0  0  0  0  2  0  0  0  0  0  0
  187.2790  177.8680  142.0670 C   0  0  1  0  0  0  0  0  0  0  0  0
  183.3710  177.7770  139.2560 C   0  0  1  0  0  3  0  0  0  0  0  0
  186.6700  176.6030  142.1270 O   0  0  0  0  0  1  0  0  0  0  0  0
  184.7550  177.6430  138.6080 C   0  0  2  0  0  3  0  0  0  0  0  0
  186.5080  178.0030  144.5800 C   0  0  0  0  0  2  0  0  0  0  0  0
  188.7240  177.7960  141.5540 C   0  0  1  0  0  3  0  0  0  0  0  0
  184.5990  177.4720  140.1290 C   0  0  1  0  0  3  0  0  0  0  0  0
  188.9790  178.8830  138.5960 C   0  0  0  0  0  2  0  0  0  0  0  0
  187.0190  178.4910  137.1530 C   0  0  2  0  0  3  0  0  0  0  0  0
  190.6420  179.7550  143.9710 C   0  0  0  0  0  0  0  0  0  0  0  0
  189.9350  180.1470  142.8420 O   0  0  0  0  0  0  0  0  0  0  0  0
  191.5500  180.4990  144.4240 O   0  0  0  0  0  1  0  0  0  0  0  0
  192.0570  173.9300  144.5470 C   0  0  0  0  0  1  0  0  0  0  0  0
  191.3810  174.8850  143.7890 O   0  0  0  0  0  0  0  0  0  0  0  0
  182.8090  179.2180  139.2750 C   0  0  2  0  0  3  0  0  0  0  0  0
  182.0800  179.4930  140.5210 N   0  0  0  0  0  2  0  0  0  0  0  0
  181.6100  178.2530  141.1310 C   0  0  0  0  0  2  0  0  0  0  0  0
  181.1110  178.5360  142.5340 C   0  0  0  0  0  2  0  0  0  0  0  0
  182.0880  179.4330  143.2720 C   0  0  0  0  0  2  0  0  0  0  0  0
  182.8820  178.6280  144.2850 C   0  0  0  0  0  1  0  0  0  0  0  0
  181.9300  179.5060  138.0370 C   0  0  2  0  0  3  0  0  0  0  0  0
  180.9800  183.6610  137.4230 C   0  0  0  0  0  3  0  0  0  0  0  0
  182.1100  183.3170  138.1680 C   0  0  0  0  0  3  0  0  0  0  0  0
  180.1610  182.6590  136.8930 C   0  0  0  0  0  3  0  0  0  0  0  0
  180.4740  181.3130  137.1060 C   0  0  0  0  0  3  0  0  0  0  0  0
  182.4240  181.9710  138.3820 C   0  0  0  0  0  3  0  0  0  0  0  0
  181.6040  180.9620  137.8530 C   0  0  0  0  0  0  0  0  0  0  0  0
  180.6950  178.6450  137.9870 C   0  0  0  0  0  0  0  0  0  0  0  0
  181.4970  177.2300  136.0130 C   0  0  0  0  0  0  0  0  0  0  0  0
  181.2270  176.2860  135.2260 O   0  0  0  0  0  0  0  0  0  0  0  0
  180.5440  177.6030  137.0150 N   0  0  0  0  0  2  0  0  0  0  0  0
  182.7160  177.8870  135.8940 O   0  0  0  0  0  1  0  0  0  0  0  0
  179.7630  178.8480  138.8090 O   0  0  0  0  0  0  0  0  0  0  0  0
  1 19  1  6  0  0  0
  1  5  1  0  0  0  0
  1  9  1  0  0  0  0
  2 22  1  0  0  0  0
  3 26  1  1  0  0  0
  3 21  1  0  0  0  0
  4 29  1  1  0  0  0
  4  6  1  0  0  0  0
  5 19  1  6  0  0  0
  5  4  1  0  0  0  0
  5  9  1  0  0  0  0
  6 12  1  6  0  0  0
  6 20  1  0  0  0  0
  7 35  1  6  0  0  0
  8  7  1  0  0  0  0
 10  2  1  0  0  0  0
 11 18  1  6  0  0  0
 13  3  1  0  0  0  0
 13 26  1  1  0  0  0
 14 29  1  0  0  0  0
 15 18  1  6  0  0  0
 15  8  1  0  0  0  0
 15  7  1  0  0  0  0
 15 17  1  0  0  0  0
 16 25  1  0  0  0  0
 17 31  1  6  0  0  0
 17 21  1  0  0  0  0
 20 27  1  0  0  0  0
 20 11  1  0  0  0  0
 22 24  1  0  0  0  0
 22 13  1  0  0  0  0
 23 36  1  0  0  0  0
 23 28  1  0  0  0  0
 25 23  1  0  0  0  0
 25 28  1  0  0  0  0
 27 22  1  0  0  0  0
 27 11  1  0  0  0  0
 28 10  1  0  0  0  0
 30  1  1  0  0  0  0
 30 14  1  0  0  0  0
 30 16  1  0  0  0  0
 31 33  1  0  0  0  0
 32 31  2  0  0  0  0
 35 34  1  0  0  0  0
 36 37  1  0  0  0  0
 37 38  1  0  0  0  0
 38 39  1  0  0  0  0
 39 40  1  0  0  0  0
 40 41  1  0  0  0  0
 42 36  1  0  0  0  0
 43 44  1  0  0  0  0
 44 47  2  0  0  0  0
 45 46  1  0  0  0  0
 45 43  2  0  0  0  0
 46 48  2  0  0  0  0
 48 42  1  0  0  0  0
 48 47  1  0  0  0  0
 49 42  1  0  0  0  0
 49 54  2  0  0  0  0
 50 52  1  0  0  0  0
 51 50  2  0  0  0  0
 52 49  1  0  0  0  0
 53 50  1  0  0  0  0
M  END
>  <MODEL>
4

>  <REMARK>
 VINA RESULT:      -2.9      4.424     10.256
  Name = 
  10 active torsions:
  status: ('A' for Active; 'I' for Inactive)
    1  A    between atoms: N_1  and  C_13
    2  A    between atoms: N_1  and  C_23
    3  A    between atoms: C_9  and  C_26
    4  A    between atoms: C_10  and  O_42
    5  A    between atoms: C_11  and  C_23
    6  A    between atoms: C_11  and  C_44
    7  A    between atoms: C_13  and  C_26
    8  A    between atoms: C_13  and  C_40
    9  A    between atoms: C_22  and  C_32
   10  A    between atoms: C_26  and  C_53
                            x       y       z     vdW  Elec       q    Type
                         _______ _______ _______ _____ _____    ______ ____

>  <TORSDO>
F 10

$$$$
=
 OpenBabel11062412083D

 54 63  0  0  1  0  0  0  0  0999 V2000
  187.1080  176.9060  137.4140 C   0  0  2  0  0  0  0  0  0  0  0  0
  186.5650  178.6630  141.3600 C   0  0  0  0  0  2  0  0  0  0  0  0
  188.1610  177.4640  144.6270 C   0  0  1  0  0  3  0  0  0  0  0  0
  189.4360  177.4660  138.5320 C   0  0  2  0  0  3  0  0  0  0  0  0
  188.4380  176.4080  137.9860 C   0  0  1  0  0  0  0  0  0  0  0  0
  190.1520  176.9740  139.8010 C   0  0  2  0  0  3  0  0  0  0  0  0
  191.5200  175.9590  144.6500 C   0  0  1  0  0  3  0  0  0  0  0  0
  192.4310  176.9590  144.2520 O   0  0  0  0  0  0  0  0  0  0  0  0
  187.2400  176.3890  138.7160 O   0  0  0  0  0  0  0  0  0  0  0  0
  185.0520  178.4750  141.3790 C   0  0  0  0  0  2  0  0  0  0  0  0
  189.6240  176.6210  142.3180 C   0  0  2  0  0  3  0  0  0  0  0  0
  191.0000  175.9110  139.4850 O   0  0  0  0  0  1  0  0  0  0  0  0
  187.4760  178.4350  143.6750 C   0  0  1  0  0  3  0  0  0  0  0  0
  188.0970  179.3120  137.5510 C   0  0  0  0  0  2  0  0  0  0  0  0
  191.0810  177.1860  143.9260 C   0  0  2  0  0  0  0  0  0  0  0  0
  185.4740  179.0930  138.4330 S   0  0  0  0  0  0  0  0  0  0  0  0
  190.5430  178.3910  144.7330 C   0  0  2  0  0  3  0  0  0  0  0  0
  190.9120  177.1300  142.5220 O   0  0  0  0  0  0  0  0  0  0  0  0
  188.2320  176.4960  136.4930 C   0  0  0  0  0  2  0  0  0  0  0  0
  189.1500  176.5320  140.8660 C   0  0  1  0  0  3  0  0  0  0  0  0
  189.1750  178.2520  145.4420 C   0  0  0  0  0  2  0  0  0  0  0  0
  187.3650  177.7570  142.2950 C   0  0  1  0  0  0  0  0  0  0  0  0
  183.3350  177.5920  139.6650 C   0  0  1  0  0  3  0  0  0  0  0  0
  186.7940  176.4740  142.3640 O   0  0  0  0  0  1  0  0  0  0  0  0
  184.6900  177.5060  138.9520 C   0  0  2  0  0  3  0  0  0  0  0  0
  186.7080  177.8370  144.8420 C   0  0  0  0  0  2  0  0  0  0  0  0
  188.7860  177.7330  141.7150 C   0  0  1  0  0  3  0  0  0  0  0  0
  184.6100  177.3100  140.4760 C   0  0  1  0  0  3  0  0  0  0  0  0
  188.8730  178.8660  138.7640 C   0  0  0  0  0  2  0  0  0  0  0  0
  186.8600  178.4370  137.4070 C   0  0  2  0  0  3  0  0  0  0  0  0
  190.7590  179.7140  144.0690 C   0  0  0  0  0  0  0  0  0  0  0  0
  190.1710  180.0030  142.8450 O   0  0  0  0  0  0  0  0  0  0  0  0
  191.5020  180.5680  144.6180 O   0  0  0  0  0  1  0  0  0  0  0  0
  192.1140  173.8340  144.5780 C   0  0  0  0  0  1  0  0  0  0  0  0
  191.6240  174.8700  143.7830 O   0  0  0  0  0  0  0  0  0  0  0  0
  182.7340  179.0160  139.7310 C   0  0  2  0  0  3  0  0  0  0  0  0
  182.6490  179.4990  141.1170 N   0  0  0  0  0  2  0  0  0  0  0  0
  181.6200  178.7740  141.8550 C   0  0  0  0  0  2  0  0  0  0  0  0
  181.4510  179.3930  143.2280 C   0  0  0  0  0  2  0  0  0  0  0  0
  182.2620  178.6260  144.2570 C   0  0  0  0  0  2  0  0  0  0  0  0
  183.5360  179.3790  144.5940 C   0  0  0  0  0  1  0  0  0  0  0  0
  181.3610  179.0910  139.0260 C   0  0  2  0  0  3  0  0  0  0  0  0
  179.6600  175.2110  138.2580 C   0  0  0  0  0  3  0  0  0  0  0  0
  180.4900  175.8000  137.3000 C   0  0  0  0  0  3  0  0  0  0  0  0
  179.3790  175.8860  139.4490 C   0  0  0  0  0  3  0  0  0  0  0  0
  179.9290  177.1500  139.6840 C   0  0  0  0  0  3  0  0  0  0  0  0
  181.0410  177.0640  137.5340 C   0  0  0  0  0  3  0  0  0  0  0  0
  180.7600  177.7460  138.7290 C   0  0  0  0  0  0  0  0  0  0  0  0
  181.3780  179.9790  137.8090 C   0  0  0  0  0  0  0  0  0  0  0  0
  179.9790  181.8360  138.8750 C   0  0  0  0  0  0  0  0  0  0  0  0
  179.4430  182.9630  138.7150 O   0  0  0  0  0  0  0  0  0  0  0  0
  180.7080  181.2460  137.7930 N   0  0  0  0  0  2  0  0  0  0  0  0
  179.8520  181.1900  140.0990 O   0  0  0  0  0  1  0  0  0  0  0  0
  181.9850  179.5990  136.7730 O   0  0  0  0  0  0  0  0  0  0  0  0
  1 19  1  6  0  0  0
  1  5  1  0  0  0  0
  1  9  1  0  0  0  0
  2 10  1  0  0  0  0
  2 22  1  0  0  0  0
  3 26  1  1  0  0  0
  3 21  1  0  0  0  0
  4 29  1  1  0  0  0
  4  6  1  0  0  0  0
  5 19  1  6  0  0  0
  5  4  1  0  0  0  0
  5  9  1  0  0  0  0
  6 12  1  6  0  0  0
  6 20  1  0  0  0  0
  7 35  1  6  0  0  0
  8  7  1  0  0  0  0
 11 18  1  6  0  0  0
 13  3  1  0  0  0  0
 13 26  1  1  0  0  0
 14 29  1  0  0  0  0
 15 18  1  6  0  0  0
 15  8  1  0  0  0  0
 15  7  1  0  0  0  0
 15 17  1  0  0  0  0
 16 25  1  0  0  0  0
 17 31  1  6  0  0  0
 17 21  1  0  0  0  0
 20 27  1  0  0  0  0
 20 11  1  0  0  0  0
 22 24  1  0  0  0  0
 22 13  1  0  0  0  0
 23 36  1  0  0  0  0
 23 28  1  0  0  0  0
 25 23  1  0  0  0  0
 25 28  1  0  0  0  0
 27 22  1  0  0  0  0
 27 11  1  0  0  0  0
 28 10  1  0  0  0  0
 30  1  1  0  0  0  0
 30 14  1  0  0  0  0
 30 16  1  0  0  0  0
 31 33  1  0  0  0  0
 32 31  2  0  0  0  0
 35 34  1  0  0  0  0
 36 37  1  0  0  0  0
 37 38  1  0  0  0  0
 38 39  1  0  0  0  0
 39 40  1  0  0  0  0
 40 41  1  0  0  0  0
 42 36  1  0  0  0  0
 43 45  1  0  0  0  0
 44 47  1  0  0  0  0
 44 43  2  0  0  0  0
 45 46  2  0  0  0  0
 47 48  2  0  0  0  0
 48 42  1  0  0  0  0
 48 46  1  0  0  0  0
 49 42  1  0  0  0  0
 50 53  1  0  0  0  0
 51 50  2  0  0  0  0
 52 49  1  0  0  0  0
 52 50  1  0  0  0  0
 54 49  2  0  0  0  0
M  END
>  <MODEL>
5

>  <REMARK>
 VINA RESULT:      -2.5      4.538     10.248
  Name = 
  10 active torsions:
  status: ('A' for Active; 'I' for Inactive)
    1  A    between atoms: N_1  and  C_13
    2  A    between atoms: N_1  and  C_23
    3  A    between atoms: C_9  and  C_26
    4  A    between atoms: C_10  and  O_42
    5  A    between atoms: C_11  and  C_23
    6  A    between atoms: C_11  and  C_44
    7  A    between atoms: C_13  and  C_26
    8  A    between atoms: C_13  and  C_40
    9  A    between atoms: C_22  and  C_32
   10  A    between atoms: C_26  and  C_53
                            x       y       z     vdW  Elec       q    Type
                         _______ _______ _______ _____ _____    ______ ____

>  <TORSDO>
F 10

$$$$
=
 OpenBabel11062412083D

 54 63  0  0  1  0  0  0  0  0999 V2000
  187.7220  179.2530  141.5540 C   0  0  2  0  0  0  0  0  0  0  0  0
  185.9650  176.7300  138.4720 C   0  0  0  0  0  2  0  0  0  0  0  0
  187.5160  175.8600  135.0820 C   0  0  1  0  0  3  0  0  0  0  0  0
  189.3900  177.3330  140.8350 C   0  0  2  0  0  3  0  0  0  0  0  0
  189.0530  178.8470  140.9130 C   0  0  1  0  0  0  0  0  0  0  0  0
  190.0900  176.9720  139.5120 C   0  0  2  0  0  3  0  0  0  0  0  0
  191.1610  175.5220  134.7010 C   0  0  1  0  0  3  0  0  0  0  0  0
  191.5640  174.4160  135.4760 O   0  0  0  0  0  0  0  0  0  0  0  0
  187.9130  179.1720  140.1630 O   0  0  0  0  0  0  0  0  0  0  0  0
  184.7110  177.5800  138.3070 C   0  0  0  0  0  2  0  0  0  0  0  0
  189.4730  176.6530  137.0110 C   0  0  2  0  0  3  0  0  0  0  0  0
  191.3580  177.5550  139.4730 O   0  0  0  0  0  1  0  0  0  0  0  0
  186.5900  175.7070  136.2800 C   0  0  1  0  0  3  0  0  0  0  0  0
  187.4940  176.7790  142.3370 C   0  0  0  0  0  2  0  0  0  0  0  0
  190.3090  174.9690  135.7900 C   0  0  2  0  0  0  0  0  0  0  0  0
  185.1660  177.8780  141.2980 S   0  0  0  0  0  0  0  0  0  0  0  0
  189.1900  173.9590  135.4390 C   0  0  2  0  0  3  0  0  0  0  0  0
  190.3570  175.5690  137.0700 O   0  0  0  0  0  0  0  0  0  0  0  0
  189.0140  179.3780  142.3270 C   0  0  0  0  0  2  0  0  0  0  0  0
  189.2730  177.4390  138.3080 C   0  0  1  0  0  3  0  0  0  0  0  0
  187.9570  174.4680  134.6560 C   0  0  0  0  0  2  0  0  0  0  0  0
  186.9660  176.7820  137.3190 C   0  0  1  0  0  0  0  0  0  0  0  0
  183.8010  179.6810  139.5000 C   0  0  1  0  0  3  0  0  0  0  0  0
  187.0330  178.0720  136.7670 O   0  0  0  0  0  1  0  0  0  0  0  0
  185.1260  179.3640  140.2060 C   0  0  2  0  0  3  0  0  0  0  0  0
  186.0370  176.1580  134.9370 C   0  0  0  0  0  2  0  0  0  0  0  0
  188.3050  176.3380  137.9270 C   0  0  1  0  0  3  0  0  0  0  0  0
  184.9560  179.0440  138.7110 C   0  0  1  0  0  3  0  0  0  0  0  0
  188.2320  176.3720  141.0870 C   0  0  0  0  0  2  0  0  0  0  0  0
  186.8130  178.1180  142.0940 C   0  0  2  0  0  3  0  0  0  0  0  0
  188.8650  173.0020  136.5410 C   0  0  0  0  0  0  0  0  0  0  0  0
  187.7990  172.1200  136.4300 O   0  0  0  0  0  0  0  0  0  0  0  0
  189.5540  173.0130  137.5930 O   0  0  0  0  0  1  0  0  0  0  0  0
  193.1970  176.3470  134.9300 C   0  0  0  0  0  1  0  0  0  0  0  0
  191.8510  176.6590  135.1250 O   0  0  0  0  0  0  0  0  0  0  0  0
  182.6200  178.7740  139.9160 C   0  0  2  0  0  3  0  0  0  0  0  0
  182.3740  177.7240  138.9160 N   0  0  0  0  0  2  0  0  0  0  0  0
  182.1240  176.4400  139.5630 C   0  0  0  0  0  2  0  0  0  0  0  0
  181.4700  175.4940  138.5760 C   0  0  0  0  0  2  0  0  0  0  0  0
  182.3080  175.3840  137.3150 C   0  0  0  0  0  2  0  0  0  0  0  0
  183.0040  174.0370  137.2590 C   0  0  0  0  0  1  0  0  0  0  0  0
  181.3400  179.5920  140.1950 C   0  0  2  0  0  3  0  0  0  0  0  0
  179.6860  179.0610  144.1350 C   0  0  0  0  0  3  0  0  0  0  0  0
  180.9850  178.6190  143.8690 C   0  0  0  0  0  3  0  0  0  0  0  0
  178.9310  179.6590  143.1230 C   0  0  0  0  0  3  0  0  0  0  0  0
  179.4740  179.8180  141.8440 C   0  0  0  0  0  3  0  0  0  0  0  0
  181.5300  178.7780  142.5910 C   0  0  0  0  0  3  0  0  0  0  0  0
  180.7740  179.3780  141.5710 C   0  0  0  0  0  0  0  0  0  0  0  0
  180.2930  179.4210  139.1250 C   0  0  0  0  0  0  0  0  0  0  0  0
  180.9360  181.5410  137.8490 C   0  0  0  0  0  0  0  0  0  0  0  0
  180.6920  182.2800  136.8610 O   0  0  0  0  0  0  0  0  0  0  0  0
  180.1450  180.3660  138.0590 N   0  0  0  0  0  2  0  0  0  0  0  0
  181.9710  181.8810  138.7120 O   0  0  0  0  0  1  0  0  0  0  0  0
  179.5180  178.4280  139.1710 O   0  0  0  0  0  0  0  0  0  0  0  0
  1 30  1  0  0  0  0
  1 19  1  1  0  0  0
  3 21  1  6  0  0  0
  3 13  1  0  0  0  0
  4  5  1  0  0  0  0
  4 29  1  6  0  0  0
  5  1  1  0  0  0  0
  5 19  1  1  0  0  0
  6 12  1  1  0  0  0
  6  4  1  0  0  0  0
  7 35  1  1  0  0  0
  7  8  1  0  0  0  0
  7 15  1  0  0  0  0
  9  5  1  0  0  0  0
  9  1  1  0  0  0  0
 10  2  1  0  0  0  0
 10 28  1  0  0  0  0
 11 18  1  1  0  0  0
 11 27  1  0  0  0  0
 11 20  1  0  0  0  0
 13 26  1  6  0  0  0
 13 22  1  0  0  0  0
 15  8  1  1  0  0  0
 15 18  1  0  0  0  0
 16 30  1  0  0  0  0
 17 15  1  0  0  0  0
 17 31  1  1  0  0  0
 20  6  1  0  0  0  0
 21 17  1  0  0  0  0
 22 27  1  0  0  0  0
 22  2  1  0  0  0  0
 23 36  1  0  0  0  0
 23 25  1  0  0  0  0
 24 22  1  0  0  0  0
 25 16  1  0  0  0  0
 26  3  1  0  0  0  0
 27 20  1  0  0  0  0
 28 23  1  0  0  0  0
 28 25  1  0  0  0  0
 29 14  1  0  0  0  0
 30 14  1  0  0  0  0
 31 33  1  0  0  0  0
 32 31  2  0  0  0  0
 34 35  1  0  0  0  0
 36 42  1  0  0  0  0
 37 38  1  0  0  0  0
 37 36  1  0  0  0  0
 39 38  1  0  0  0  0
 40 39  1  0  0  0  0
 41 40  1  0  0  0  0
 42 48  1  0  0  0  0
 44 43  1  0  0  0  0
 45 43  2  0  0  0  0
 46 45  1  0  0  0  0
 47 44  2  0  0  0  0
 48 46  2  0  0  0  0
 48 47  1  0  0  0  0
 49 54  2  0  0  0  0
 49 42  1  0  0  0  0
 50 52  1  0  0  0  0
 50 53  1  0  0  0  0
 51 50  2  0  0  0  0
 52 49  1  0  0  0  0
M  END
>  <MODEL>
6

>  <REMARK>
 VINA RESULT:      -2.1      3.448     10.277
  Name = 
  10 active torsions:
  status: ('A' for Active; 'I' for Inactive)
    1  A    between atoms: N_1  and  C_13
    2  A    between atoms: N_1  and  C_23
    3  A    between atoms: C_9  and  C_26
    4  A    between atoms: C_10  and  O_42
    5  A    between atoms: C_11  and  C_23
    6  A    between atoms: C_11  and  C_44
    7  A    between atoms: C_13  and  C_26
    8  A    between atoms: C_13  and  C_40
    9  A    between atoms: C_22  and  C_32
   10  A    between atoms: C_26  and  C_53
                            x       y       z     vdW  Elec       q    Type
                         _______ _______ _______ _____ _____    ______ ____

>  <TORSDO>
F 10

$$$$
=
 OpenBabel11062412083D

 54 63  0  0  1  0  0  0  0  0999 V2000
  187.9300  177.4190  142.4650 C   0  0  2  0  0  0  0  0  0  0  0  0
  186.2130  178.4920  138.6110 C   0  0  0  0  0  2  0  0  0  0  0  0
  182.5830  177.9700  137.5090 C   0  0  1  0  0  3  0  0  0  0  0  0
  185.7760  178.9190  142.7710 C   0  0  2  0  0  3  0  0  0  0  0  0
  186.4920  177.5550  142.9720 C   0  0  1  0  0  0  0  0  0  0  0  0
  184.2920  178.7370  142.4070 C   0  0  2  0  0  3  0  0  0  0  0  0
  179.8220  178.1790  139.9340 C   0  0  1  0  0  3  0  0  0  0  0  0
  179.7760  179.5070  140.4040 O   0  0  0  0  0  0  0  0  0  0  0  0
  186.8140  176.9440  141.7520 O   0  0  0  0  0  0  0  0  0  0  0  0
  187.1700  177.6290  137.7970 C   0  0  0  0  0  2  0  0  0  0  0  0
  182.8670  178.0320  140.3550 C   0  0  2  0  0  3  0  0  0  0  0  0
  183.6000  178.2030  143.4950 O   0  0  0  0  0  1  0  0  0  0  0  0
  183.9820  178.5730  137.4900 C   0  0  1  0  0  3  0  0  0  0  0  0
  187.9080  179.9970  142.0950 C   0  0  0  0  0  2  0  0  0  0  0  0
  180.9800  179.1070  139.7960 C   0  0  2  0  0  0  0  0  0  0  0  0
  189.0350  178.5450  140.0150 S   0  0  0  0  0  0  0  0  0  0  0  0
  181.1790  179.8800  138.4710 C   0  0  2  0  0  3  0  0  0  0  0  0
  182.0120  179.0630  140.7630 O   0  0  0  0  0  0  0  0  0  0  0  0
  187.6530  177.6260  143.9350 C   0  0  0  0  0  2  0  0  0  0  0  0
  184.1280  177.8210  141.1940 C   0  0  1  0  0  3  0  0  0  0  0  0
  181.5940  179.0870  137.2100 C   0  0  0  0  0  2  0  0  0  0  0  0
  184.7680  178.0020  138.6870 C   0  0  1  0  0  0  0  0  0  0  0  0
  189.2060  176.1590  138.3950 C   0  0  1  0  0  3  0  0  0  0  0  0
  184.7140  176.5990  138.7540 O   0  0  0  0  0  1  0  0  0  0  0  0
  188.7330  176.7480  139.7310 C   0  0  2  0  0  3  0  0  0  0  0  0
  183.5420  177.6200  136.3890 C   0  0  0  0  0  2  0  0  0  0  0  0
  184.1800  178.6680  139.9400 C   0  0  1  0  0  3  0  0  0  0  0  0
  187.7130  176.4480  138.6190 C   0  0  1  0  0  3  0  0  0  0  0  0
  186.4350  179.8860  141.7910 C   0  0  0  0  0  2  0  0  0  0  0  0
  188.5740  178.6620  141.7980 C   0  0  2  0  0  3  0  0  0  0  0  0
  181.8820  181.1900  138.6300 C   0  0  0  0  0  0  0  0  0  0  0  0
  181.1730  182.3840  138.6460 O   0  0  0  0  0  0  0  0  0  0  0  0
  183.1360  181.2130  138.7280 O   0  0  0  0  0  1  0  0  0  0  0  0
  179.1510  176.2360  140.7390 C   0  0  0  0  0  1  0  0  0  0  0  0
  179.9930  177.3130  141.0150 O   0  0  0  0  0  0  0  0  0  0  0  0
  190.0090  177.1410  137.5100 C   0  0  2  0  0  3  0  0  0  0  0  0
  189.1620  177.7380  136.4670 N   0  0  0  0  0  2  0  0  0  0  0  0
  189.3820  177.0820  135.1830 C   0  0  0  0  0  2  0  0  0  0  0  0
  188.0510  176.6580  134.5960 C   0  0  0  0  0  2  0  0  0  0  0  0
  187.6880  175.2600  135.0650 C   0  0  0  0  0  2  0  0  0  0  0  0
  186.1800  175.0970  135.1230 C   0  0  0  0  0  1  0  0  0  0  0  0
  191.2590  176.4700  136.8990 C   0  0  2  0  0  3  0  0  0  0  0  0
  190.5430  172.4930  135.4120 C   0  0  0  0  0  3  0  0  0  0  0  0
  191.1870  173.4270  134.5960 C   0  0  0  0  0  3  0  0  0  0  0  0
  190.1270  172.8570  136.6960 C   0  0  0  0  0  3  0  0  0  0  0  0
  190.3570  174.1540  137.1650 C   0  0  0  0  0  3  0  0  0  0  0  0
  191.4170  174.7240  135.0650 C   0  0  0  0  0  3  0  0  0  0  0  0
  191.0000  175.0940  136.3530 C   0  0  0  0  0  0  0  0  0  0  0  0
  192.4450  176.4900  137.8290 C   0  0  0  0  0  0  0  0  0  0  0  0
  194.1750  176.7800  135.9690 C   0  0  0  0  0  0  0  0  0  0  0  0
  195.3960  176.8960  135.6860 O   0  0  0  0  0  1  0  0  0  0  0  0
  193.7840  176.6280  137.3370 N   0  0  0  0  0  2  0  0  0  0  0  0
  193.2350  176.8050  134.9450 O   0  0  0  0  0  0  0  0  0  0  0  0
  192.2610  176.3700  139.0690 O   0  0  0  0  0  0  0  0  0  0  0  0
  1  5  1  0  0  0  0
  1 19  1  1  0  0  0
  2 22  1  0  0  0  0
  3 26  1  6  0  0  0
  4 29  1  6  0  0  0
  4  5  1  0  0  0  0
  5 19  1  1  0  0  0
  6  4  1  0  0  0  0
  6 12  1  1  0  0  0
  7  8  1  0  0  0  0
  7 35  1  1  0  0  0
  9  1  1  0  0  0  0
  9  5  1  0  0  0  0
 10  2  1  0  0  0  0
 10 28  1  0  0  0  0
 11 18  1  1  0  0  0
 11 20  1  0  0  0  0
 13 26  1  6  0  0  0
 13  3  1  0  0  0  0
 13 22  1  0  0  0  0
 15  7  1  0  0  0  0
 15  8  1  1  0  0  0
 15 18  1  0  0  0  0
 16 30  1  0  0  0  0
 17 31  1  1  0  0  0
 17 15  1  0  0  0  0
 20  6  1  0  0  0  0
 21  3  1  0  0  0  0
 21 17  1  0  0  0  0
 22 24  1  0  0  0  0
 22 27  1  0  0  0  0
 23 28  1  0  0  0  0
 23 25  1  0  0  0  0
 25 16  1  0  0  0  0
 27 11  1  0  0  0  0
 27 20  1  0  0  0  0
 28 25  1  0  0  0  0
 29 14  1  0  0  0  0
 30 14  1  0  0  0  0
 30  1  1  0  0  0  0
 31 32  2  0  0  0  0
 31 33  1  0  0  0  0
 34 35  1  0  0  0  0
 36 23  1  0  0  0  0
 37 36  1  0  0  0  0
 38 37  1  0  0  0  0
 39 40  1  0  0  0  0
 39 38  1  0  0  0  0
 40 41  1  0  0  0  0
 42 36  1  0  0  0  0
 42 49  1  0  0  0  0
 43 45  1  0  0  0  0
 44 47  1  0  0  0  0
 44 43  2  0  0  0  0
 45 46  2  0  0  0  0
 47 48  2  0  0  0  0
 48 42  1  0  0  0  0
 48 46  1  0  0  0  0
 49 54  2  0  0  0  0
 50 52  1  0  0  0  0
 51 50  1  0  0  0  0
 52 49  1  0  0  0  0
 53 50  2  0  0  0  0
M  END
>  <MODEL>
7

>  <REMARK>
 VINA RESULT:      -1.5      2.479      5.134
  Name = 
  10 active torsions:
  status: ('A' for Active; 'I' for Inactive)
    1  A    between atoms: N_1  and  C_13
    2  A    between atoms: N_1  and  C_23
    3  A    between atoms: C_9  and  C_26
    4  A    between atoms: C_10  and  O_42
    5  A    between atoms: C_11  and  C_23
    6  A    between atoms: C_11  and  C_44
    7  A    between atoms: C_13  and  C_26
    8  A    between atoms: C_13  and  C_40
    9  A    between atoms: C_22  and  C_32
   10  A    between atoms: C_26  and  C_53
                            x       y       z     vdW  Elec       q    Type
                         _______ _______ _______ _____ _____    ______ ____

>  <TORSDO>
F 10

$$$$
