=
 OpenBabel11062417593D

 40 46  0  0  1  0  0  0  0  0999 V2000
  191.8920  174.3580  136.9820 N   0  0  0  0  0  2  0  0  0  0  0  0
  192.7170  176.8020  137.1180 F   0  0  0  0  0  0  0  0  0  0  0  0
  190.4630  174.4180  136.8430 C   0  0  0  0  0  2  0  0  0  0  0  0
  190.6080  177.2230  140.0590 C   0  0  1  0  0  3  0  0  0  0  0  0
  191.0900  175.0610  138.0210 C   0  0  2  0  0  0  0  0  0  0  0  0
  192.0050  177.0380  139.4970 C   0  0  0  0  0  2  0  0  0  0  0  0
  190.4580  176.4420  137.7110 C   0  0  1  0  0  3  0  0  0  0  0  0
  189.6430  176.9240  138.9050 C   0  0  2  0  0  3  0  0  0  0  0  0
  191.8570  176.4020  138.1290 C   0  0  1  0  0  0  0  0  0  0  0  0
  187.3980  177.5740  137.9040 C   0  0  2  0  0  3  0  0  0  0  0  0
  188.7210  178.0760  138.4590 C   0  0  2  0  0  3  0  0  0  0  0  0
  188.4620  178.1120  136.9640 C   0  0  0  0  0  2  0  0  0  0  0  0
  186.3250  178.6290  138.1120 C   0  0  0  0  0  2  0  0  0  0  0  0
  184.9390  177.9970  138.1580 C   0  0  0  0  0  2  0  0  0  0  0  0
  184.7340  179.6210  139.8900 O   0  0  0  0  0  1  0  0  0  0  0  0
  183.9850  178.8060  139.0370 C   0  0  2  0  0  3  0  0  0  0  0  0
  183.0380  177.8920  139.8390 C   0  0  2  0  0  0  0  0  0  0  0  0
  183.7370  177.2730  140.8630 F   0  0  0  0  0  0  0  0  0  0  0  0
  182.4740  176.8190  138.9130 C   0  0  0  0  0  1  0  0  0  0  0  0
  180.6980  178.9490  142.2830 C   0  0  0  0  0  2  0  0  0  0  0  0
  180.6390  178.0680  140.1340 O   0  0  0  0  0  0  0  0  0  0  0  0
  179.8230  178.3420  141.2280 C   0  0  0  0  0  2  0  0  0  0  0  0
  182.0040  178.8460  141.8170 O   0  0  0  0  0  0  0  0  0  0  0  0
  181.8630  178.6930  140.4290 C   0  0  0  0  0  3  0  0  0  0  0  0
  190.4050  176.2960  141.0860 O   0  0  0  0  0  0  0  0  0  0  0  0
  191.3030  175.9800  143.6650 O   0  0  0  0  0  1  0  0  0  0  0  0
  190.7610  177.1140  142.5310 P   0  0  1  0  0  0  0  0  0  0  0  0
  191.8580  178.1260  142.2790 O   0  0  0  0  0  0  0  0  0  0  0  0
  189.3460  177.9110  143.0800 O   0  0  0  0  0  0  0  0  0  0  0  0
  189.2740  176.7430  145.0940 O   0  0  0  0  0  1  0  0  0  0  0  0
  188.5680  177.0800  143.9260 C   0  0  0  0  0  0  0  0  0  0  0  0
  188.2190  175.9100  143.2400 O   0  0  0  0  0  1  0  0  0  0  0  0
  185.5550  179.4260  145.8370 C   0  0  0  0  0  2  0  0  0  0  0  0
  186.6990  177.1820  145.4440 C   0  0  0  0  0  2  0  0  0  0  0  0
  184.7100  178.6860  144.8160 C   0  0  1  0  0  0  0  0  0  0  0  0
  185.4260  177.9110  145.9190 C   0  0  2  0  0  3  0  0  0  0  0  0
  183.2300  178.9360  145.0150 C   0  0  0  0  0  1  0  0  0  0  0  0
  186.3790  177.7470  143.1720 C   0  0  0  0  0  2  0  0  0  0  0  0
  185.2880  178.7820  143.4030 C   0  0  0  0  0  2  0  0  0  0  0  0
  187.3340  177.8050  144.2760 N   0  0  0  0  0  0  0  0  0  0  0  0
  1  5  1  0  0  0  0
  2  9  1  0  0  0  0
  3  1  1  0  0  0  0
  4 25  1  1  0  0  0
  5  3  1  1  0  0  0
  5  9  1  0  0  0  0
  6  4  1  0  0  0  0
  7  5  1  0  0  0  0
  7  9  1  0  0  0  0
  7  8  1  0  0  0  0
  8  4  1  0  0  0  0
  9  6  1  0  0  0  0
 10 13  1  0  0  0  0
 10 11  1  0  0  0  0
 11  8  1  0  0  0  0
 12 10  1  0  0  0  0
 12 11  1  0  0  0  0
 13 14  1  0  0  0  0
 14 16  1  0  0  0  0
 16 17  1  0  0  0  0
 16 15  1  0  0  0  0
 17 24  1  0  0  0  0
 17 18  1  0  0  0  0
 19 17  1  0  0  0  0
 21 24  1  0  0  0  0
 21 22  1  0  0  0  0
 22 20  1  0  0  0  0
 23 20  1  0  0  0  0
 24 23  1  0  0  0  0
 25 27  1  0  0  0  0
 27 29  1  0  0  0  0
 27 26  1  0  0  0  0
 28 27  2  0  0  0  0
 29 31  1  0  0  0  0
 31 40  1  0  0  0  0
 31 30  1  0  0  0  0
 32 31  1  0  0  0  0
 33 36  1  0  0  0  0
 34 36  1  0  0  0  0
 35 37  1  0  0  0  0
 35 33  1  0  0  0  0
 35 36  1  0  0  0  0
 38 39  1  0  0  0  0
 38 40  1  0  0  0  0
 39 35  1  0  0  0  0
 40 34  1  0  0  0  0
M  END
>  <MODEL>
1

>  <REMARK>
 VINA RESULT:      -8.3      0.000      0.000
  Name = 
  11 active torsions:
  status: ('A' for Active; 'I' for Inactive)
    1  A    between atoms: C_2  and  C_33
    2  A    between atoms: C_2  and  C_35
    3  A    between atoms: C_7  and  C_13
    4  A    between atoms: C_7  and  C_33
    5  A    between atoms: O_11  and  P_14
    6  A    between atoms: O_11  and  C_18
    7  A    between atoms: C_13  and  C_19
    8  A    between atoms: P_14  and  O_27
    9  A    between atoms: C_17  and  O_27
   10  A    between atoms: C_18  and  N_39
   11  A    between atoms: C_23  and  C_37
                            x       y       z     vdW  Elec       q    Type
                         _______ _______ _______ _____ _____    ______ ____

>  <TORSDO>
F 11

$$$$
=
 OpenBabel11062417593D

 40 46  0  0  1  0  0  0  0  0999 V2000
  188.1690  178.0730  149.4160 N   0  0  0  0  0  2  0  0  0  0  0  0
  188.2490  175.7530  148.2820 F   0  0  0  0  0  0  0  0  0  0  0  0
  187.1780  178.8370  148.7090 C   0  0  0  0  0  2  0  0  0  0  0  0
  189.1160  177.4400  145.1710 C   0  0  1  0  0  3  0  0  0  0  0  0
  188.3210  178.2790  147.9490 C   0  0  2  0  0  0  0  0  0  0  0  0
  189.5790  176.6090  146.3520 C   0  0  0  0  0  2  0  0  0  0  0  0
  187.4020  177.5190  146.9590 C   0  0  1  0  0  3  0  0  0  0  0  0
  187.7120  177.9420  145.5280 C   0  0  2  0  0  3  0  0  0  0  0  0
  188.5820  176.8290  147.4730 C   0  0  1  0  0  0  0  0  0  0  0  0
  186.1260  178.5920  143.6500 C   0  0  2  0  0  3  0  0  0  0  0  0
  186.5620  177.4930  144.6050 C   0  0  2  0  0  3  0  0  0  0  0  0
  185.2580  178.2340  144.8420 C   0  0  0  0  0  2  0  0  0  0  0  0
  185.5420  177.9720  142.3920 C   0  0  0  0  0  2  0  0  0  0  0  0
  184.3860  178.8080  141.8560 C   0  0  0  0  0  2  0  0  0  0  0  0
  184.6290  179.8780  139.7420 O   0  0  0  0  0  1  0  0  0  0  0  0
  184.2540  178.6720  140.3400 C   0  0  2  0  0  3  0  0  0  0  0  0
  182.8240  178.2740  139.9270 C   0  0  2  0  0  0  0  0  0  0  0  0
  182.4610  178.9530  138.7750 F   0  0  0  0  0  0  0  0  0  0  0  0
  181.8560  178.6520  141.0430 C   0  0  0  0  0  1  0  0  0  0  0  0
  182.4750  175.2720  138.0740 C   0  0  0  0  0  2  0  0  0  0  0  0
  181.3920  176.3200  139.8420 O   0  0  0  0  0  0  0  0  0  0  0  0
  181.2500  175.2720  138.9370 C   0  0  0  0  0  2  0  0  0  0  0  0
  183.1910  176.4160  138.4070 O   0  0  0  0  0  0  0  0  0  0  0  0
  182.7190  176.7570  139.6850 C   0  0  0  0  0  3  0  0  0  0  0  0
  189.9750  178.5330  145.0190 O   0  0  0  0  0  0  0  0  0  0  0  0
  192.1650  179.3600  143.5780 O   0  0  0  0  0  0  0  0  0  0  0  0
  190.9770  178.1610  143.7000 P   0  0  1  0  0  0  0  0  0  0  0  0
  191.6450  176.8240  143.9360 O   0  0  0  0  0  1  0  0  0  0  0  0
  190.0190  178.0920  142.2800 O   0  0  0  0  0  0  0  0  0  0  0  0
  190.3680  175.8090  141.9800 O   0  0  0  0  0  1  0  0  0  0  0  0
  190.4660  177.0810  141.3910 C   0  0  0  0  0  0  0  0  0  0  0  0
  191.7980  177.3260  141.0350 O   0  0  0  0  0  1  0  0  0  0  0  0
  188.5930  176.3230  137.6290 C   0  0  0  0  0  2  0  0  0  0  0  0
  190.4880  177.3440  138.9960 C   0  0  0  0  0  2  0  0  0  0  0  0
  188.2530  177.7920  137.8070 C   0  0  1  0  0  0  0  0  0  0  0  0
  189.7090  177.3590  137.6650 C   0  0  2  0  0  3  0  0  0  0  0  0
  187.5970  178.3760  136.5730 C   0  0  0  0  0  1  0  0  0  0  0  0
  188.7030  178.2580  140.2450 C   0  0  0  0  0  2  0  0  0  0  0  0
  187.6350  178.0850  139.1750 C   0  0  0  0  0  2  0  0  0  0  0  0
  189.6370  177.1370  140.1740 N   0  0  0  0  0  0  0  0  0  0  0  0
  3  1  1  0  0  0  0
  4 25  1  1  0  0  0
  4  8  1  0  0  0  0
  4  6  1  0  0  0  0
  5  3  1  6  0  0  0
  5  1  1  0  0  0  0
  6  9  1  0  0  0  0
  7  9  1  0  0  0  0
  7  5  1  0  0  0  0
  8  7  1  0  0  0  0
  9  5  1  0  0  0  0
  9  2  1  0  0  0  0
 10 11  1  0  0  0  0
 10 12  1  0  0  0  0
 11 12  1  0  0  0  0
 11  8  1  0  0  0  0
 13 10  1  0  0  0  0
 14 13  1  0  0  0  0
 15 16  1  0  0  0  0
 16 14  1  0  0  0  0
 17 16  1  0  0  0  0
 17 19  1  0  0  0  0
 18 17  1  0  0  0  0
 20 23  1  0  0  0  0
 20 22  1  0  0  0  0
 22 21  1  0  0  0  0
 23 24  1  0  0  0  0
 24 21  1  0  0  0  0
 24 17  1  0  0  0  0
 26 27  2  0  0  0  0
 27 28  1  0  0  0  0
 27 25  1  0  0  0  0
 29 27  1  0  0  0  0
 31 30  1  0  0  0  0
 31 29  1  0  0  0  0
 32 31  1  0  0  0  0
 33 36  1  0  0  0  0
 33 35  1  0  0  0  0
 34 40  1  0  0  0  0
 35 39  1  0  0  0  0
 36 35  1  0  0  0  0
 36 34  1  0  0  0  0
 37 35  1  0  0  0  0
 39 38  1  0  0  0  0
 40 38  1  0  0  0  0
 40 31  1  0  0  0  0
M  END
>  <MODEL>
2

>  <REMARK>
 VINA RESULT:      -8.1      2.539      6.611
  Name = 
  11 active torsions:
  status: ('A' for Active; 'I' for Inactive)
    1  A    between atoms: C_2  and  C_33
    2  A    between atoms: C_2  and  C_35
    3  A    between atoms: C_7  and  C_13
    4  A    between atoms: C_7  and  C_33
    5  A    between atoms: O_11  and  P_14
    6  A    between atoms: O_11  and  C_18
    7  A    between atoms: C_13  and  C_19
    8  A    between atoms: P_14  and  O_27
    9  A    between atoms: C_17  and  O_27
   10  A    between atoms: C_18  and  N_39
   11  A    between atoms: C_23  and  C_37
                            x       y       z     vdW  Elec       q    Type
                         _______ _______ _______ _____ _____    ______ ____

>  <TORSDO>
F 11

$$$$
=
 OpenBabel11062417593D

 40 46  0  0  1  0  0  0  0  0999 V2000
  191.8290  178.0240  144.0780 N   0  0  0  0  0  2  0  0  0  0  0  0
  191.0010  175.7020  143.3050 F   0  0  0  0  0  0  0  0  0  0  0  0
  190.6700  178.7350  144.5430 C   0  0  0  0  0  2  0  0  0  0  0  0
  188.8260  177.4040  140.9290 C   0  0  1  0  0  3  0  0  0  0  0  0
  190.6810  178.2260  143.1520 C   0  0  2  0  0  0  0  0  0  0  0  0
  190.0930  176.6050  141.1640 C   0  0  0  0  0  2  0  0  0  0  0  0
  189.3740  177.4160  143.3460 C   0  0  1  0  0  3  0  0  0  0  0  0
  188.3370  177.8420  142.3150 C   0  0  2  0  0  3  0  0  0  0  0  0
  190.4740  176.7860  142.6200 C   0  0  1  0  0  0  0  0  0  0  0  0
  186.0840  178.4390  143.3320 C   0  0  2  0  0  3  0  0  0  0  0  0
  186.9490  177.3320  142.7510 C   0  0  2  0  0  3  0  0  0  0  0  0
  186.7090  177.4030  144.2480 C   0  0  0  0  0  2  0  0  0  0  0  0
  184.6170  178.1060  143.1170 C   0  0  0  0  0  2  0  0  0  0  0  0
  183.9430  179.1490  142.2340 C   0  0  0  0  0  2  0  0  0  0  0  0
  184.9860  179.5130  140.1230 O   0  0  0  0  0  1  0  0  0  0  0  0
  184.0000  178.7540  140.7590 C   0  0  2  0  0  3  0  0  0  0  0  0
  182.6330  178.9370  140.0690 C   0  0  2  0  0  0  0  0  0  0  0  0
  182.6300  180.1130  139.3370 F   0  0  0  0  0  0  0  0  0  0  0  0
  181.5420  179.0180  141.1320 C   0  0  0  0  0  1  0  0  0  0  0  0
  183.2100  175.9090  138.3190 C   0  0  0  0  0  2  0  0  0  0  0  0
  182.5880  178.0870  137.8000 O   0  0  0  0  0  0  0  0  0  0  0  0
  183.0120  176.8990  137.2110 C   0  0  0  0  0  2  0  0  0  0  0  0
  183.0530  176.6130  139.5070 O   0  0  0  0  0  0  0  0  0  0  0  0
  182.3200  177.7510  139.1390 C   0  0  0  0  0  3  0  0  0  0  0  0
  189.1360  178.5360  140.1680 O   0  0  0  0  0  0  0  0  0  0  0  0
  188.6860  179.4100  137.6010 O   0  0  0  0  0  0  0  0  0  0  0  0
  189.0330  178.0490  138.5450 P   0  0  1  0  0  0  0  0  0  0  0  0
  190.3610  177.4680  138.1070 O   0  0  0  0  0  1  0  0  0  0  0  0
  187.8020  176.8650  138.3980 O   0  0  0  0  0  0  0  0  0  0  0  0
  188.3890  176.8020  136.1450 O   0  0  0  0  0  1  0  0  0  0  0  0
  187.3270  176.7600  137.0650 C   0  0  0  0  0  0  0  0  0  0  0  0
  186.4410  177.8110  136.8000 O   0  0  0  0  0  1  0  0  0  0  0  0
  185.4190  173.0020  137.7510 C   0  0  0  0  0  2  0  0  0  0  0  0
  187.5040  174.3600  137.1950 C   0  0  0  0  0  2  0  0  0  0  0  0
  185.5750  172.9520  136.2420 C   0  0  1  0  0  0  0  0  0  0  0  0
  186.8120  172.9830  137.1360 C   0  0  2  0  0  3  0  0  0  0  0  0
  185.1830  171.6030  135.6760 C   0  0  0  0  0  1  0  0  0  0  0  0
  186.0830  175.3320  135.5760 C   0  0  0  0  0  2  0  0  0  0  0  0
  185.0490  174.2150  135.5600 C   0  0  0  0  0  2  0  0  0  0  0  0
  186.5980  175.4860  136.9340 N   0  0  0  0  0  0  0  0  0  0  0  0
  1  3  1  0  0  0  0
  4 25  1  6  0  0  0
  4  6  1  0  0  0  0
  4  8  1  0  0  0  0
  5  7  1  0  0  0  0
  5  1  1  0  0  0  0
  5  3  1  6  0  0  0
  6  9  1  0  0  0  0
  8 11  1  0  0  0  0
  8  7  1  0  0  0  0
  9  5  1  0  0  0  0
  9  2  1  0  0  0  0
  9  7  1  0  0  0  0
 10 12  1  0  0  0  0
 11 10  1  0  0  0  0
 11 12  1  0  0  0  0
 13 10  1  0  0  0  0
 14 13  1  0  0  0  0
 15 16  1  0  0  0  0
 16 14  1  0  0  0  0
 17 16  1  0  0  0  0
 17 19  1  0  0  0  0
 18 17  1  0  0  0  0
 20 23  1  0  0  0  0
 21 24  1  0  0  0  0
 22 21  1  0  0  0  0
 22 20  1  0  0  0  0
 24 23  1  0  0  0  0
 24 17  1  0  0  0  0
 26 27  2  0  0  0  0
 27 25  1  0  0  0  0
 28 27  1  0  0  0  0
 29 27  1  0  0  0  0
 30 31  1  0  0  0  0
 31 29  1  0  0  0  0
 32 31  1  0  0  0  0
 35 36  1  0  0  0  0
 35 33  1  0  0  0  0
 36 34  1  0  0  0  0
 36 33  1  0  0  0  0
 37 35  1  0  0  0  0
 38 40  1  0  0  0  0
 39 38  1  0  0  0  0
 39 35  1  0  0  0  0
 40 31  1  0  0  0  0
 40 34  1  0  0  0  0
M  END
>  <MODEL>
3

>  <REMARK>
 VINA RESULT:      -8.0      3.286      6.363
  Name = 
  11 active torsions:
  status: ('A' for Active; 'I' for Inactive)
    1  A    between atoms: C_2  and  C_33
    2  A    between atoms: C_2  and  C_35
    3  A    between atoms: C_7  and  C_13
    4  A    between atoms: C_7  and  C_33
    5  A    between atoms: O_11  and  P_14
    6  A    between atoms: O_11  and  C_18
    7  A    between atoms: C_13  and  C_19
    8  A    between atoms: P_14  and  O_27
    9  A    between atoms: C_17  and  O_27
   10  A    between atoms: C_18  and  N_39
   11  A    between atoms: C_23  and  C_37
                            x       y       z     vdW  Elec       q    Type
                         _______ _______ _______ _____ _____    ______ ____

>  <TORSDO>
F 11

$$$$
=
 OpenBabel11062417593D

 40 46  0  0  1  0  0  0  0  0999 V2000
  191.7760  178.0400  144.2380 N   0  0  0  0  0  2  0  0  0  0  0  0
  190.9240  175.7170  143.4970 F   0  0  0  0  0  0  0  0  0  0  0  0
  190.6240  178.7720  144.6880 C   0  0  0  0  0  2  0  0  0  0  0  0
  188.7780  177.4080  141.0870 C   0  0  1  0  0  3  0  0  0  0  0  0
  190.6350  178.2420  143.3040 C   0  0  2  0  0  0  0  0  0  0  0  0
  190.0350  176.5980  141.3390 C   0  0  0  0  0  2  0  0  0  0  0  0
  189.3180  177.4500  143.5050 C   0  0  1  0  0  3  0  0  0  0  0  0
  188.2890  177.8720  142.4640 C   0  0  2  0  0  3  0  0  0  0  0  0
  190.4130  176.7960  142.7930 C   0  0  1  0  0  0  0  0  0  0  0  0
  186.0080  178.5250  143.3780 C   0  0  2  0  0  3  0  0  0  0  0  0
  186.8930  177.3850  142.9020 C   0  0  2  0  0  3  0  0  0  0  0  0
  186.6160  177.5650  144.3830 C   0  0  0  0  0  2  0  0  0  0  0  0
  184.5490  178.1660  143.1520 C   0  0  0  0  0  2  0  0  0  0  0  0
  183.9330  179.0370  142.0630 C   0  0  0  0  0  2  0  0  0  0  0  0
  184.8500  179.6170  139.9430 O   0  0  0  0  0  1  0  0  0  0  0  0
  184.3210  178.5470  140.6690 C   0  0  2  0  0  3  0  0  0  0  0  0
  183.1210  177.9200  139.9320 C   0  0  2  0  0  0  0  0  0  0  0  0
  183.1380  176.5440  140.0930 F   0  0  0  0  0  0  0  0  0  0  0  0
  183.2250  178.2400  138.4440 C   0  0  0  0  0  1  0  0  0  0  0  0
  179.6100  178.1870  140.3300 C   0  0  0  0  0  2  0  0  0  0  0  0
  181.3600  179.5640  139.6680 O   0  0  0  0  0  0  0  0  0  0  0  0
  179.9700  179.4930  139.6910 C   0  0  0  0  0  2  0  0  0  0  0  0
  180.8010  177.4890  140.4980 O   0  0  0  0  0  0  0  0  0  0  0  0
  181.7900  178.4840  140.4590 C   0  0  0  0  0  3  0  0  0  0  0  0
  189.1040  178.5250  140.3100 O   0  0  0  0  0  0  0  0  0  0  0  0
  188.7200  179.3160  137.7060 O   0  0  0  0  0  0  0  0  0  0  0  0
  189.0830  177.9940  138.6970 P   0  0  1  0  0  0  0  0  0  0  0  0
  190.4490  177.4560  138.3260 O   0  0  0  0  0  1  0  0  0  0  0  0
  187.9060  176.7580  138.5360 O   0  0  0  0  0  0  0  0  0  0  0  0
  188.1910  176.8060  136.2250 O   0  0  0  0  0  1  0  0  0  0  0  0
  187.2570  176.8090  137.2750 C   0  0  0  0  0  0  0  0  0  0  0  0
  186.4760  177.9680  137.1980 O   0  0  0  0  0  1  0  0  0  0  0  0
  185.2100  173.1080  137.8590 C   0  0  0  0  0  2  0  0  0  0  0  0
  187.1660  174.4310  136.8980 C   0  0  0  0  0  2  0  0  0  0  0  0
  184.8750  173.3720  136.4020 C   0  0  1  0  0  0  0  0  0  0  0  0
  186.3250  173.1410  136.8220 C   0  0  2  0  0  3  0  0  0  0  0  0
  184.1610  172.2000  135.7620 C   0  0  0  0  0  1  0  0  0  0  0  0
  185.4400  175.8060  136.0520 C   0  0  0  0  0  2  0  0  0  0  0  0
  184.3230  174.7800  136.1780 C   0  0  0  0  0  2  0  0  0  0  0  0
  186.3720  175.6370  137.1650 N   0  0  0  0  0  0  0  0  0  0  0  0
  1  3  1  0  0  0  0
  4 25  1  6  0  0  0
  4  6  1  0  0  0  0
  4  8  1  0  0  0  0
  5  7  1  0  0  0  0
  5  1  1  0  0  0  0
  5  3  1  6  0  0  0
  6  9  1  0  0  0  0
  8 11  1  0  0  0  0
  8  7  1  0  0  0  0
  9  5  1  0  0  0  0
  9  2  1  0  0  0  0
  9  7  1  0  0  0  0
 10 12  1  0  0  0  0
 11 10  1  0  0  0  0
 11 12  1  0  0  0  0
 13 10  1  0  0  0  0
 14 13  1  0  0  0  0
 15 16  1  0  0  0  0
 16 14  1  0  0  0  0
 17 18  1  0  0  0  0
 17 24  1  0  0  0  0
 17 16  1  0  0  0  0
 19 17  1  0  0  0  0
 20 23  1  0  0  0  0
 21 22  1  0  0  0  0
 21 24  1  0  0  0  0
 22 20  1  0  0  0  0
 24 23  1  0  0  0  0
 26 27  2  0  0  0  0
 27 25  1  0  0  0  0
 28 27  1  0  0  0  0
 29 27  1  0  0  0  0
 30 31  1  0  0  0  0
 31 29  1  0  0  0  0
 32 31  1  0  0  0  0
 34 40  1  0  0  0  0
 35 36  1  0  0  0  0
 35 33  1  0  0  0  0
 36 34  1  0  0  0  0
 36 33  1  0  0  0  0
 37 35  1  0  0  0  0
 38 39  1  0  0  0  0
 38 40  1  0  0  0  0
 39 35  1  0  0  0  0
 40 31  1  0  0  0  0
M  END
>  <MODEL>
4

>  <REMARK>
 VINA RESULT:      -7.9      3.130      6.116
  Name = 
  11 active torsions:
  status: ('A' for Active; 'I' for Inactive)
    1  A    between atoms: C_2  and  C_33
    2  A    between atoms: C_2  and  C_35
    3  A    between atoms: C_7  and  C_13
    4  A    between atoms: C_7  and  C_33
    5  A    between atoms: O_11  and  P_14
    6  A    between atoms: O_11  and  C_18
    7  A    between atoms: C_13  and  C_19
    8  A    between atoms: P_14  and  O_27
    9  A    between atoms: C_17  and  O_27
   10  A    between atoms: C_18  and  N_39
   11  A    between atoms: C_23  and  C_37
                            x       y       z     vdW  Elec       q    Type
                         _______ _______ _______ _____ _____    ______ ____

>  <TORSDO>
F 11

$$$$
=
 OpenBabel11062417593D

 40 46  0  0  1  0  0  0  0  0999 V2000
  179.2370  178.7060  142.7300 N   0  0  0  0  0  2  0  0  0  0  0  0
  180.2920  180.5790  141.2980 F   0  0  0  0  0  0  0  0  0  0  0  0
  180.2720  178.2320  143.6070 C   0  0  0  0  0  2  0  0  0  0  0  0
  182.7200  178.1360  140.1110 C   0  0  1  0  0  3  0  0  0  0  0  0
  180.5030  178.1840  142.1450 C   0  0  2  0  0  0  0  0  0  0  0  0
  181.4740  178.9510  139.8230 C   0  0  0  0  0  2  0  0  0  0  0  0
  181.8030  179.0220  142.2360 C   0  0  1  0  0  3  0  0  0  0  0  0
  182.9650  178.2530  141.6200 C   0  0  2  0  0  3  0  0  0  0  0  0
  180.8630  179.3230  141.1590 C   0  0  1  0  0  0  0  0  0  0  0  0
  185.1980  177.9310  142.7940 C   0  0  2  0  0  3  0  0  0  0  0  0
  184.2930  178.9040  142.0560 C   0  0  2  0  0  3  0  0  0  0  0  0
  184.4600  179.0140  143.5610 C   0  0  0  0  0  2  0  0  0  0  0  0
  186.6480  178.3410  142.6080 C   0  0  0  0  0  2  0  0  0  0  0  0
  187.5160  177.8200  143.7470 C   0  0  0  0  0  2  0  0  0  0  0  0
  188.8090  175.9010  143.1790 O   0  0  0  0  0  1  0  0  0  0  0  0
  188.8570  177.2970  143.2340 C   0  0  2  0  0  3  0  0  0  0  0  0
  190.0280  177.7730  144.1160 C   0  0  2  0  0  0  0  0  0  0  0  0
  189.7190  178.9970  144.6870 F   0  0  0  0  0  0  0  0  0  0  0  0
  191.2720  177.9380  143.2490 C   0  0  0  0  0  1  0  0  0  0  0  0
  190.9370  176.6210  147.3420 C   0  0  0  0  0  2  0  0  0  0  0  0
  191.6820  176.3410  145.1590 O   0  0  0  0  0  0  0  0  0  0  0  0
  192.0480  176.1020  146.4810 C   0  0  0  0  0  2  0  0  0  0  0  0
  190.0570  177.2830  146.4930 O   0  0  0  0  0  0  0  0  0  0  0  0
  190.3390  176.7520  145.2250 C   0  0  0  0  0  3  0  0  0  0  0  0
  182.4750  176.7980  139.7830 O   0  0  0  0  0  0  0  0  0  0  0  0
  183.6150  174.8620  138.2000 O   0  0  0  0  0  1  0  0  0  0  0  0
  183.2910  176.5180  138.3210 P   0  0  1  0  0  0  0  0  0  0  0  0
  182.4090  176.9360  137.1640 O   0  0  0  0  0  0  0  0  0  0  0  0
  184.7400  177.4340  138.3100 O   0  0  0  0  0  0  0  0  0  0  0  0
  185.2530  177.8650  136.0800 O   0  0  0  0  0  1  0  0  0  0  0  0
  185.5710  177.0950  137.2110 C   0  0  0  0  0  0  0  0  0  0  0  0
  185.4120  175.7370  136.9080 O   0  0  0  0  0  1  0  0  0  0  0  0
  189.8230  177.4630  137.3210 C   0  0  0  0  0  2  0  0  0  0  0  0
  187.7120  176.0610  137.6020 C   0  0  0  0  0  2  0  0  0  0  0  0
  189.5180  177.4370  138.8080 C   0  0  1  0  0  0  0  0  0  0  0  0
  189.2070  176.2170  137.9450 C   0  0  2  0  0  3  0  0  0  0  0  0
  190.7780  177.3710  139.6460 C   0  0  0  0  0  1  0  0  0  0  0  0
  187.0380  177.8770  138.9550 C   0  0  0  0  0  2  0  0  0  0  0  0
  188.4310  178.4410  139.1960 C   0  0  0  0  0  2  0  0  0  0  0  0
  186.9710  177.3290  137.6020 N   0  0  0  0  0  0  0  0  0  0  0  0
  1  3  1  0  0  0  0
  4 25  1  1  0  0  0
  4  8  1  0  0  0  0
  5  7  1  0  0  0  0
  5  1  1  0  0  0  0
  5  3  1  6  0  0  0
  6  4  1  0  0  0  0
  6  9  1  0  0  0  0
  8 11  1  0  0  0  0
  8  7  1  0  0  0  0
  9  2  1  0  0  0  0
  9  5  1  0  0  0  0
  9  7  1  0  0  0  0
 10 12  1  0  0  0  0
 11 10  1  0  0  0  0
 11 12  1  0  0  0  0
 13 10  1  0  0  0  0
 13 14  1  0  0  0  0
 15 16  1  0  0  0  0
 16 14  1  0  0  0  0
 16 17  1  0  0  0  0
 17 18  1  0  0  0  0
 17 24  1  0  0  0  0
 19 17  1  0  0  0  0
 21 24  1  0  0  0  0
 21 22  1  0  0  0  0
 22 20  1  0  0  0  0
 23 20  1  0  0  0  0
 24 23  1  0  0  0  0
 26 27  1  0  0  0  0
 27 25  1  0  0  0  0
 28 27  2  0  0  0  0
 29 27  1  0  0  0  0
 30 31  1  0  0  0  0
 31 40  1  0  0  0  0
 31 29  1  0  0  0  0
 32 31  1  0  0  0  0
 33 36  1  0  0  0  0
 33 35  1  0  0  0  0
 34 36  1  0  0  0  0
 35 39  1  0  0  0  0
 35 37  1  0  0  0  0
 36 35  1  0  0  0  0
 38 39  1  0  0  0  0
 40 34  1  0  0  0  0
 40 38  1  0  0  0  0
M  END
>  <MODEL>
5

>  <REMARK>
 VINA RESULT:      -7.6      3.277      9.196
  Name = 
  11 active torsions:
  status: ('A' for Active; 'I' for Inactive)
    1  A    between atoms: C_2  and  C_33
    2  A    between atoms: C_2  and  C_35
    3  A    between atoms: C_7  and  C_13
    4  A    between atoms: C_7  and  C_33
    5  A    between atoms: O_11  and  P_14
    6  A    between atoms: O_11  and  C_18
    7  A    between atoms: C_13  and  C_19
    8  A    between atoms: P_14  and  O_27
    9  A    between atoms: C_17  and  O_27
   10  A    between atoms: C_18  and  N_39
   11  A    between atoms: C_23  and  C_37
                            x       y       z     vdW  Elec       q    Type
                         _______ _______ _______ _____ _____    ______ ____

>  <TORSDO>
F 11

$$$$
=
 OpenBabel11062417593D

 40 46  0  0  1  0  0  0  0  0999 V2000
  192.5650  174.6800  137.0590 N   0  0  0  0  0  2  0  0  0  0  0  0
  193.0060  177.1890  137.4880 F   0  0  0  0  0  0  0  0  0  0  0  0
  191.1910  174.5730  136.6500 C   0  0  0  0  0  2  0  0  0  0  0  0
  190.3560  177.1030  139.9860 C   0  0  1  0  0  3  0  0  0  0  0  0
  191.4960  175.1910  137.9620 C   0  0  2  0  0  0  0  0  0  0  0  0
  191.8440  177.1400  139.6950 C   0  0  0  0  0  2  0  0  0  0  0  0
  190.7480  176.5030  137.6140 C   0  0  1  0  0  3  0  0  0  0  0  0
  189.6700  176.7810  138.6540 C   0  0  2  0  0  3  0  0  0  0  0  0
  192.0390  176.6040  138.2910 C   0  0  1  0  0  0  0  0  0  0  0  0
  187.2870  177.2980  137.9310 C   0  0  2  0  0  3  0  0  0  0  0  0
  188.6960  177.8420  138.1040 C   0  0  2  0  0  3  0  0  0  0  0  0
  188.1660  177.5300  136.7160 C   0  0  0  0  0  2  0  0  0  0  0  0
  186.2830  178.4310  138.0550 C   0  0  0  0  0  2  0  0  0  0  0  0
  184.8810  177.8950  138.3170 C   0  0  0  0  0  2  0  0  0  0  0  0
  185.0760  179.5000  140.0670 O   0  0  0  0  0  1  0  0  0  0  0  0
  184.1440  178.7400  139.3550 C   0  0  2  0  0  3  0  0  0  0  0  0
  183.3040  177.8650  140.3070 C   0  0  2  0  0  0  0  0  0  0  0  0
  184.0740  177.4760  141.3910 F   0  0  0  0  0  0  0  0  0  0  0  0
  182.8400  176.6170  139.5620 C   0  0  0  0  0  1  0  0  0  0  0  0
  180.8960  179.0320  142.6310 C   0  0  0  0  0  2  0  0  0  0  0  0
  180.9020  177.8470  140.6330 O   0  0  0  0  0  0  0  0  0  0  0  0
  180.0750  178.1970  141.6960 C   0  0  0  0  0  2  0  0  0  0  0  0
  182.2000  178.9910  142.1530 O   0  0  0  0  0  0  0  0  0  0  0  0
  182.0610  178.6250  140.8050 C   0  0  0  0  0  3  0  0  0  0  0  0
  190.0970  176.0770  140.9020 O   0  0  0  0  0  0  0  0  0  0  0  0
  187.8800  177.4720  141.7360 O   0  0  0  0  0  0  0  0  0  0  0  0
  189.3580  176.8190  142.2380 P   0  0  1  0  0  0  0  0  0  0  0  0
  189.1030  175.7840  143.3120 O   0  0  0  0  0  1  0  0  0  0  0  0
  190.4000  178.0400  142.8400 O   0  0  0  0  0  0  0  0  0  0  0  0
  192.0640  178.5610  144.3850 O   0  0  0  0  0  1  0  0  0  0  0  0
  191.1110  177.6070  143.9890 C   0  0  0  0  0  0  0  0  0  0  0  0
  191.7550  176.3950  143.7110 O   0  0  0  0  0  1  0  0  0  0  0  0
  187.5790  177.1160  146.3380 C   0  0  0  0  0  2  0  0  0  0  0  0
  189.3780  178.6140  145.3260 C   0  0  0  0  0  2  0  0  0  0  0  0
  188.5980  177.3670  147.4360 C   0  0  1  0  0  0  0  0  0  0  0  0
  188.2940  178.4590  146.4130 C   0  0  2  0  0  3  0  0  0  0  0  0
  187.9450  177.5110  148.7940 C   0  0  0  0  0  1  0  0  0  0  0  0
  190.8340  177.0370  146.3140 C   0  0  0  0  0  2  0  0  0  0  0  0
  189.8280  176.4680  147.3040 C   0  0  0  0  0  2  0  0  0  0  0  0
  190.1410  177.3850  145.0750 N   0  0  0  0  0  0  0  0  0  0  0  0
  1  5  1  0  0  0  0
  2  9  1  0  0  0  0
  3  1  1  0  0  0  0
  4 25  1  1  0  0  0
  5  3  1  1  0  0  0
  5  9  1  0  0  0  0
  6  4  1  0  0  0  0
  7  5  1  0  0  0  0
  7  9  1  0  0  0  0
  7  8  1  0  0  0  0
  8  4  1  0  0  0  0
  9  6  1  0  0  0  0
 10 13  1  0  0  0  0
 10 11  1  0  0  0  0
 11  8  1  0  0  0  0
 12 10  1  0  0  0  0
 12 11  1  0  0  0  0
 13 14  1  0  0  0  0
 14 16  1  0  0  0  0
 16 15  1  0  0  0  0
 16 17  1  0  0  0  0
 17 24  1  0  0  0  0
 17 18  1  0  0  0  0
 19 17  1  0  0  0  0
 21 24  1  0  0  0  0
 21 22  1  0  0  0  0
 22 20  1  0  0  0  0
 23 20  1  0  0  0  0
 24 23  1  0  0  0  0
 25 27  1  0  0  0  0
 26 27  2  0  0  0  0
 27 29  1  0  0  0  0
 27 28  1  0  0  0  0
 29 31  1  0  0  0  0
 31 30  1  0  0  0  0
 31 40  1  0  0  0  0
 32 31  1  0  0  0  0
 33 36  1  0  0  0  0
 33 35  1  0  0  0  0
 34 36  1  0  0  0  0
 35 37  1  0  0  0  0
 36 35  1  0  0  0  0
 38 39  1  0  0  0  0
 39 35  1  0  0  0  0
 40 34  1  0  0  0  0
 40 38  1  0  0  0  0
M  END
>  <MODEL>
6

>  <REMARK>
 VINA RESULT:      -7.6      1.556      2.462
  Name = 
  11 active torsions:
  status: ('A' for Active; 'I' for Inactive)
    1  A    between atoms: C_2  and  C_33
    2  A    between atoms: C_2  and  C_35
    3  A    between atoms: C_7  and  C_13
    4  A    between atoms: C_7  and  C_33
    5  A    between atoms: O_11  and  P_14
    6  A    between atoms: O_11  and  C_18
    7  A    between atoms: C_13  and  C_19
    8  A    between atoms: P_14  and  O_27
    9  A    between atoms: C_17  and  O_27
   10  A    between atoms: C_18  and  N_39
   11  A    between atoms: C_23  and  C_37
                            x       y       z     vdW  Elec       q    Type
                         _______ _______ _______ _____ _____    ______ ____

>  <TORSDO>
F 11

$$$$
=
 OpenBabel11062417593D

 40 46  0  0  1  0  0  0  0  0999 V2000
  191.6800  177.9070  144.1440 N   0  0  0  0  0  2  0  0  0  0  0  0
  190.6740  175.6640  143.3510 F   0  0  0  0  0  0  0  0  0  0  0  0
  190.6030  178.6470  144.7420 C   0  0  0  0  0  2  0  0  0  0  0  0
  188.3830  177.5710  141.2580 C   0  0  1  0  0  3  0  0  0  0  0  0
  190.4660  178.2040  143.3350 C   0  0  2  0  0  0  0  0  0  0  0  0
  189.6250  176.7060  141.3420 C   0  0  0  0  0  2  0  0  0  0  0  0
  189.1430  177.4450  143.6130 C   0  0  1  0  0  3  0  0  0  0  0  0
  188.0410  177.9650  142.6990 C   0  0  2  0  0  3  0  0  0  0  0  0
  190.1420  176.8010  142.7640 C   0  0  1  0  0  0  0  0  0  0  0  0
  185.7770  178.6640  143.6230 C   0  0  2  0  0  3  0  0  0  0  0  0
  186.6730  177.4990  143.2370 C   0  0  2  0  0  3  0  0  0  0  0  0
  186.4430  177.8290  144.7010 C   0  0  0  0  0  2  0  0  0  0  0  0
  184.3200  178.2530  143.4900 C   0  0  0  0  0  2  0  0  0  0  0  0
  183.6310  179.0300  142.3740 C   0  0  0  0  0  2  0  0  0  0  0  0
  184.9490  179.5160  140.4500 O   0  0  0  0  0  1  0  0  0  0  0  0
  184.0920  178.5570  140.9960 C   0  0  2  0  0  3  0  0  0  0  0  0
  182.8980  178.2870  140.0590 C   0  0  2  0  0  0  0  0  0  0  0  0
  183.1060  178.9120  138.8410 F   0  0  0  0  0  0  0  0  0  0  0  0
  181.6290  178.8520  140.6890 C   0  0  0  0  0  1  0  0  0  0  0  0
  182.5240  175.2700  138.2370 C   0  0  0  0  0  2  0  0  0  0  0  0
  181.3320  176.4490  139.8450 O   0  0  0  0  0  0  0  0  0  0  0  0
  181.2110  175.3900  138.9500 C   0  0  0  0  0  2  0  0  0  0  0  0
  183.2870  176.3640  138.6300 O   0  0  0  0  0  0  0  0  0  0  0  0
  182.6990  176.7770  139.8360 C   0  0  0  0  0  3  0  0  0  0  0  0
  188.6790  178.7220  140.5200 O   0  0  0  0  0  0  0  0  0  0  0  0
  187.0780  177.7800  138.4940 O   0  0  0  0  0  1  0  0  0  0  0  0
  188.6550  178.2510  138.8890 P   0  0  1  0  0  0  0  0  0  0  0  0
  189.0530  179.4240  138.0200 O   0  0  0  0  0  0  0  0  0  0  0  0
  189.7600  176.9590  138.6690 O   0  0  0  0  0  0  0  0  0  0  0  0
  189.4700  177.5070  136.4240 O   0  0  0  0  0  1  0  0  0  0  0  0
  189.7450  176.4740  137.3360 C   0  0  0  0  0  0  0  0  0  0  0  0
  188.7730  175.4750  137.2130 O   0  0  0  0  0  1  0  0  0  0  0  0
  193.0350  174.3390  135.6470 C   0  0  0  0  0  2  0  0  0  0  0  0
  191.0040  174.4250  137.1860 C   0  0  0  0  0  2  0  0  0  0  0  0
  193.5660  174.5860  137.0480 C   0  0  1  0  0  0  0  0  0  0  0  0
  192.3290  173.7150  136.8440 C   0  0  2  0  0  3  0  0  0  0  0  0
  194.8720  173.8600  137.2950 C   0  0  0  0  0  1  0  0  0  0  0  0
  192.0620  176.3780  137.9920 C   0  0  0  0  0  2  0  0  0  0  0  0
  193.4510  176.0530  137.4640 C   0  0  0  0  0  2  0  0  0  0  0  0
  191.0640  175.8850  137.0450 N   0  0  0  0  0  0  0  0  0  0  0  0
  1  3  1  0  0  0  0
  4 25  1  6  0  0  0
  4  6  1  0  0  0  0
  4  8  1  0  0  0  0
  5  7  1  0  0  0  0
  5  1  1  0  0  0  0
  5  3  1  6  0  0  0
  6  9  1  0  0  0  0
  8 11  1  0  0  0  0
  8  7  1  0  0  0  0
  9  5  1  0  0  0  0
  9  2  1  0  0  0  0
  9  7  1  0  0  0  0
 10 12  1  0  0  0  0
 11 10  1  0  0  0  0
 11 12  1  0  0  0  0
 13 10  1  0  0  0  0
 14 13  1  0  0  0  0
 15 16  1  0  0  0  0
 16 14  1  0  0  0  0
 17 19  1  0  0  0  0
 17 16  1  0  0  0  0
 18 17  1  0  0  0  0
 20 23  1  0  0  0  0
 20 22  1  0  0  0  0
 22 21  1  0  0  0  0
 23 24  1  0  0  0  0
 24 21  1  0  0  0  0
 24 17  1  0  0  0  0
 26 27  1  0  0  0  0
 27 25  1  0  0  0  0
 28 27  2  0  0  0  0
 29 27  1  0  0  0  0
 30 31  1  0  0  0  0
 31 29  1  0  0  0  0
 32 31  1  0  0  0  0
 33 36  1  0  0  0  0
 33 35  1  0  0  0  0
 35 37  1  0  0  0  0
 35 39  1  0  0  0  0
 36 35  1  0  0  0  0
 36 34  1  0  0  0  0
 39 38  1  0  0  0  0
 40 34  1  0  0  0  0
 40 31  1  0  0  0  0
 40 38  1  0  0  0  0
M  END
>  <MODEL>
7

>  <REMARK>
 VINA RESULT:      -7.5      2.659      6.938
  Name = 
  11 active torsions:
  status: ('A' for Active; 'I' for Inactive)
    1  A    between atoms: C_2  and  C_33
    2  A    between atoms: C_2  and  C_35
    3  A    between atoms: C_7  and  C_13
    4  A    between atoms: C_7  and  C_33
    5  A    between atoms: O_11  and  P_14
    6  A    between atoms: O_11  and  C_18
    7  A    between atoms: C_13  and  C_19
    8  A    between atoms: P_14  and  O_27
    9  A    between atoms: C_17  and  O_27
   10  A    between atoms: C_18  and  N_39
   11  A    between atoms: C_23  and  C_37
                            x       y       z     vdW  Elec       q    Type
                         _______ _______ _______ _____ _____    ______ ____

>  <TORSDO>
F 11

$$$$
=
 OpenBabel11062417593D

 40 46  0  0  1  0  0  0  0  0999 V2000
  190.6690  174.3050  136.3380 N   0  0  0  0  0  2  0  0  0  0  0  0
  191.6290  176.7020  136.3930 F   0  0  0  0  0  0  0  0  0  0  0  0
  189.2580  174.4260  136.5870 C   0  0  0  0  0  2  0  0  0  0  0  0
  190.3930  176.9890  139.8080 C   0  0  1  0  0  3  0  0  0  0  0  0
  190.2060  174.9610  137.5920 C   0  0  2  0  0  0  0  0  0  0  0  0
  191.5800  176.7940  138.8850 C   0  0  0  0  0  2  0  0  0  0  0  0
  189.5900  176.3820  137.5430 C   0  0  1  0  0  3  0  0  0  0  0  0
  189.1440  176.8070  138.9370 C   0  0  2  0  0  3  0  0  0  0  0  0
  191.0450  176.2620  137.5710 C   0  0  1  0  0  0  0  0  0  0  0  0
  186.9020  177.6750  138.1080 C   0  0  2  0  0  3  0  0  0  0  0  0
  188.2000  178.0210  138.8200 C   0  0  2  0  0  3  0  0  0  0  0  0
  187.9690  178.4850  137.3930 C   0  0  0  0  0  2  0  0  0  0  0  0
  185.7970  178.6020  138.5850 C   0  0  0  0  0  2  0  0  0  0  0  0
  184.4240  178.0390  138.2380 C   0  0  0  0  0  2  0  0  0  0  0  0
  184.5290  177.4280  135.9380 O   0  0  0  0  0  1  0  0  0  0  0  0
  184.5250  176.8960  137.2300 C   0  0  2  0  0  3  0  0  0  0  0  0
  183.3790  175.8800  137.4040 C   0  0  2  0  0  0  0  0  0  0  0  0
  182.2420  176.3380  136.7580 F   0  0  0  0  0  0  0  0  0  0  0  0
  183.0680  175.7260  138.8900 C   0  0  0  0  0  1  0  0  0  0  0  0
  183.5210  172.3440  137.2190 C   0  0  0  0  0  2  0  0  0  0  0  0
  185.0300  174.1070  137.3270 O   0  0  0  0  0  0  0  0  0  0  0  0
  184.9560  172.7210  137.4320 C   0  0  0  0  0  2  0  0  0  0  0  0
  182.8050  173.5340  137.1650 O   0  0  0  0  0  0  0  0  0  0  0  0
  183.7700  174.5010  136.8430 C   0  0  0  0  0  3  0  0  0  0  0  0
  190.4170  175.9990  140.7960 O   0  0  0  0  0  0  0  0  0  0  0  0
  191.4520  175.9710  143.3420 O   0  0  0  0  0  1  0  0  0  0  0  0
  190.4450  176.8220  142.2810 P   0  0  1  0  0  0  0  0  0  0  0  0
  191.0060  178.2130  142.0750 O   0  0  0  0  0  0  0  0  0  0  0  0
  188.8460  176.9220  142.8900 O   0  0  0  0  0  0  0  0  0  0  0  0
  189.7470  178.6230  144.2010 O   0  0  0  0  0  1  0  0  0  0  0  0
  188.8000  177.5870  144.1420 C   0  0  0  0  0  0  0  0  0  0  0  0
  189.0510  176.6690  145.1690 O   0  0  0  0  0  1  0  0  0  0  0  0
  185.3040  179.5730  145.5800 C   0  0  0  0  0  2  0  0  0  0  0  0
  186.8030  177.5130  145.4890 C   0  0  0  0  0  2  0  0  0  0  0  0
  184.6790  178.6320  144.5660 C   0  0  1  0  0  0  0  0  0  0  0  0
  185.3960  178.0680  145.7900 C   0  0  2  0  0  3  0  0  0  0  0  0
  183.1660  178.6610  144.6210 C   0  0  0  0  0  1  0  0  0  0  0  0
  186.6160  177.8410  143.1560 C   0  0  0  0  0  2  0  0  0  0  0  0
  185.3660  178.7070  143.2020 C   0  0  0  0  0  2  0  0  0  0  0  0
  187.4440  178.1350  144.3230 N   0  0  0  0  0  0  0  0  0  0  0  0
  1  3  1  0  0  0  0
  1  5  1  0  0  0  0
  2  9  1  0  0  0  0
  4 25  1  1  0  0  0
  5  3  1  1  0  0  0
  6  4  1  0  0  0  0
  7  9  1  0  0  0  0
  7  5  1  0  0  0  0
  7  8  1  0  0  0  0
  8  4  1  0  0  0  0
  9  5  1  0  0  0  0
  9  6  1  0  0  0  0
 10 13  1  0  0  0  0
 10 11  1  0  0  0  0
 11  8  1  0  0  0  0
 12 10  1  0  0  0  0
 12 11  1  0  0  0  0
 14 13  1  0  0  0  0
 15 16  1  0  0  0  0
 16 17  1  0  0  0  0
 16 14  1  0  0  0  0
 17 19  1  0  0  0  0
 18 17  1  0  0  0  0
 20 22  1  0  0  0  0
 21 22  1  0  0  0  0
 23 20  1  0  0  0  0
 24 23  1  0  0  0  0
 24 21  1  0  0  0  0
 24 17  1  0  0  0  0
 25 27  1  0  0  0  0
 27 29  1  0  0  0  0
 27 26  1  0  0  0  0
 28 27  2  0  0  0  0
 29 31  1  0  0  0  0
 31 30  1  0  0  0  0
 31 40  1  0  0  0  0
 31 32  1  0  0  0  0
 33 36  1  0  0  0  0
 34 36  1  0  0  0  0
 35 37  1  0  0  0  0
 35 33  1  0  0  0  0
 35 36  1  0  0  0  0
 38 39  1  0  0  0  0
 38 40  1  0  0  0  0
 39 35  1  0  0  0  0
 40 34  1  0  0  0  0
M  END
>  <MODEL>
8

>  <REMARK>
 VINA RESULT:      -7.1      2.213      3.002
  Name = 
  11 active torsions:
  status: ('A' for Active; 'I' for Inactive)
    1  A    between atoms: C_2  and  C_33
    2  A    between atoms: C_2  and  C_35
    3  A    between atoms: C_7  and  C_13
    4  A    between atoms: C_7  and  C_33
    5  A    between atoms: O_11  and  P_14
    6  A    between atoms: O_11  and  C_18
    7  A    between atoms: C_13  and  C_19
    8  A    between atoms: P_14  and  O_27
    9  A    between atoms: C_17  and  O_27
   10  A    between atoms: C_18  and  N_39
   11  A    between atoms: C_23  and  C_37
                            x       y       z     vdW  Elec       q    Type
                         _______ _______ _______ _____ _____    ______ ____

>  <TORSDO>
F 11

$$$$
=
 OpenBabel11062417593D

 40 46  0  0  1  0  0  0  0  0999 V2000
  189.2820  174.8040  135.3330 N   0  0  0  0  0  2  0  0  0  0  0  0
  190.1720  177.2270  135.4040 F   0  0  0  0  0  0  0  0  0  0  0  0
  187.9450  174.8450  135.8590 C   0  0  0  0  0  2  0  0  0  0  0  0
  189.6230  177.1940  139.0050 C   0  0  1  0  0  3  0  0  0  0  0  0
  189.0580  175.3390  136.7040 C   0  0  2  0  0  0  0  0  0  0  0  0
  190.6120  177.1220  137.8580 C   0  0  0  0  0  2  0  0  0  0  0  0
  188.4070  176.7320  136.8960 C   0  0  1  0  0  3  0  0  0  0  0  0
  188.2330  177.0280  138.3800 C   0  0  2  0  0  3  0  0  0  0  0  0
  189.8420  176.6730  136.6310 C   0  0  1  0  0  0  0  0  0  0  0  0
  185.8130  177.8020  138.2860 C   0  0  2  0  0  3  0  0  0  0  0  0
  187.2540  178.2070  138.5520 C   0  0  2  0  0  3  0  0  0  0  0  0
  186.5700  178.6310  137.2650 C   0  0  0  0  0  2  0  0  0  0  0  0
  184.8770  178.7010  139.0750 C   0  0  0  0  0  2  0  0  0  0  0  0
  183.6430  177.9360  139.5380 C   0  0  0  0  0  2  0  0  0  0  0  0
  182.6870  179.5860  138.1090 O   0  0  0  0  0  1  0  0  0  0  0  0
  182.3820  178.4280  138.8290 C   0  0  2  0  0  3  0  0  0  0  0  0
  181.2330  178.6850  139.8250 C   0  0  2  0  0  0  0  0  0  0  0  0
  180.6730  179.9290  139.5860 F   0  0  0  0  0  0  0  0  0  0  0  0
  181.7880  178.6630  141.2460 C   0  0  0  0  0  1  0  0  0  0  0  0
  179.5100  175.6850  140.5960 C   0  0  0  0  0  2  0  0  0  0  0  0
  180.4900  176.6560  138.7270 O   0  0  0  0  0  0  0  0  0  0  0  0
  179.9650  175.4520  139.1870 C   0  0  0  0  0  2  0  0  0  0  0  0
  179.9410  176.9600  140.9430 O   0  0  0  0  0  0  0  0  0  0  0  0
  180.1470  177.6010  139.7100 C   0  0  0  0  0  3  0  0  0  0  0  0
  189.8670  176.1310  139.8830 O   0  0  0  0  0  0  0  0  0  0  0  0
  190.7340  175.6250  142.4410 O   0  0  0  0  0  1  0  0  0  0  0  0
  190.1940  176.8380  141.3920 P   0  0  1  0  0  0  0  0  0  0  0  0
  191.2820  177.8790  141.2350 O   0  0  0  0  0  0  0  0  0  0  0  0
  188.7620  177.5730  141.9810 O   0  0  0  0  0  0  0  0  0  0  0  0
  189.7330  178.2540  143.9860 O   0  0  0  0  0  1  0  0  0  0  0  0
  188.6880  177.5220  143.3970 C   0  0  0  0  0  0  0  0  0  0  0  0
  188.7580  176.1900  143.8210 O   0  0  0  0  0  1  0  0  0  0  0  0
  185.4790  179.4080  145.4900 C   0  0  0  0  0  2  0  0  0  0  0  0
  186.8670  177.3350  144.9640 C   0  0  0  0  0  2  0  0  0  0  0  0
  184.6970  178.6170  144.4560 C   0  0  1  0  0  0  0  0  0  0  0  0
  185.5320  177.8860  145.5040 C   0  0  2  0  0  3  0  0  0  0  0  0
  183.2040  178.6810  144.7030 C   0  0  0  0  0  1  0  0  0  0  0  0
  186.4140  177.9560  142.7300 C   0  0  0  0  0  2  0  0  0  0  0  0
  185.2160  178.8440  143.0360 C   0  0  0  0  0  2  0  0  0  0  0  0
  187.3890  178.0790  143.8110 N   0  0  0  0  0  0  0  0  0  0  0  0
  1  3  1  0  0  0  0
  1  5  1  0  0  0  0
  2  9  1  0  0  0  0
  4 25  1  1  0  0  0
  5  3  1  1  0  0  0
  5  7  1  0  0  0  0
  6  4  1  0  0  0  0
  7  8  1  0  0  0  0
  8 11  1  0  0  0  0
  8  4  1  0  0  0  0
  9  5  1  0  0  0  0
  9  7  1  0  0  0  0
  9  6  1  0  0  0  0
 10 11  1  0  0  0  0
 10 13  1  0  0  0  0
 12 10  1  0  0  0  0
 12 11  1  0  0  0  0
 13 14  1  0  0  0  0
 15 16  1  0  0  0  0
 16 14  1  0  0  0  0
 16 17  1  0  0  0  0
 17 19  1  0  0  0  0
 18 17  1  0  0  0  0
 20 23  1  0  0  0  0
 21 22  1  0  0  0  0
 21 24  1  0  0  0  0
 22 20  1  0  0  0  0
 24 17  1  0  0  0  0
 24 23  1  0  0  0  0
 25 27  1  0  0  0  0
 27 29  1  0  0  0  0
 27 26  1  0  0  0  0
 28 27  2  0  0  0  0
 29 31  1  0  0  0  0
 31 40  1  0  0  0  0
 31 32  1  0  0  0  0
 31 30  1  0  0  0  0
 33 36  1  0  0  0  0
 34 36  1  0  0  0  0
 35 37  1  0  0  0  0
 35 33  1  0  0  0  0
 35 36  1  0  0  0  0
 38 39  1  0  0  0  0
 38 40  1  0  0  0  0
 39 35  1  0  0  0  0
 40 34  1  0  0  0  0
M  END
>  <MODEL>
9

>  <REMARK>
 VINA RESULT:      -7.0      1.619      2.059
  Name = 
  11 active torsions:
  status: ('A' for Active; 'I' for Inactive)
    1  A    between atoms: C_2  and  C_33
    2  A    between atoms: C_2  and  C_35
    3  A    between atoms: C_7  and  C_13
    4  A    between atoms: C_7  and  C_33
    5  A    between atoms: O_11  and  P_14
    6  A    between atoms: O_11  and  C_18
    7  A    between atoms: C_13  and  C_19
    8  A    between atoms: P_14  and  O_27
    9  A    between atoms: C_17  and  O_27
   10  A    between atoms: C_18  and  N_39
   11  A    between atoms: C_23  and  C_37
                            x       y       z     vdW  Elec       q    Type
                         _______ _______ _______ _____ _____    ______ ____

>  <TORSDO>
F 11

$$$$
