=
 OpenBabel11062413323D

 28 30  0  0  1  0  0  0  0  0999 V2000
  191.1770  176.5880  142.2810 N   0  0  0  0  0  2  0  0  0  0  0  0
  190.3240  177.1130  141.2630 C   0  0  0  0  0  0  0  0  0  0  0  0
  189.8480  177.5780  138.9300 C   0  0  0  0  0  3  0  0  0  0  0  0
  188.6230  178.1600  139.2920 C   0  0  0  0  0  0  0  0  0  0  0  0
  188.2570  178.2160  140.6400 C   0  0  0  0  0  3  0  0  0  0  0  0
  190.6940  177.0570  139.9130 C   0  0  0  0  0  3  0  0  0  0  0  0
  189.1030  177.6930  141.6220 C   0  0  0  0  0  3  0  0  0  0  0  0
  187.7610  178.6880  138.3300 O   0  0  0  0  0  0  0  0  0  0  0  0
  186.3920  178.6220  138.4770 N   0  0  0  0  0  0  0  0  0  0  0  0
  184.9800  176.5380  135.8870 C   0  0  0  0  0  2  0  0  0  0  0  0
  185.6650  177.8920  137.6940 C   0  0  0  0  0  0  0  0  0  0  0  0
  184.1980  177.8080  137.8310 C   0  0  0  0  0  2  0  0  0  0  0  0
  183.7980  176.7370  136.8330 C   0  0  0  0  0  2  0  0  0  0  0  0
  186.2150  177.0700  136.5940 C   0  0  0  0  0  2  0  0  0  0  0  0
  190.7120  176.3800  143.5870 N   0  0  0  0  0  2  0  0  0  0  0  0
  191.0230  177.2900  144.6450 C   0  0  0  0  0  0  0  0  0  0  0  0
  191.7440  178.3340  144.3970 N   0  0  0  0  0  2  0  0  0  0  0  0
  188.1660  177.8850  145.5880 C   0  0  0  0  0  3  0  0  0  0  0  0
  191.3890  176.5500  146.9690 O   0  0  0  0  0  1  0  0  0  0  0  0
  188.7730  177.1470  147.7190 N   0  0  0  0  0  0  0  0  0  0  0  0
  187.1680  177.9680  146.4620 C   0  0  2  0  0  3  0  0  0  0  0  0
  190.5140  177.0740  146.0200 C   0  0  1  0  0  3  0  0  0  0  0  0
  189.2590  177.3550  146.4000 C   0  0  0  0  0  0  0  0  0  0  0  0
  187.5550  177.5000  147.7520 N   0  0  0  0  0  0  0  0  0  0  0  0
  185.3840  177.8070  144.9290 F   0  0  0  0  0  0  0  0  0  0  0  0
  184.9000  178.0090  147.1190 F   0  0  0  0  0  0  0  0  0  0  0  0
  185.7360  179.7690  145.9830 F   0  0  0  0  0  0  0  0  0  0  0  0
  185.7760  178.3930  146.1200 C   0  0  0  0  0  0  0  0  0  0  0  0
  1 15  1  0  0  0  0
  2  7  1  0  0  0  0
  2  1  1  0  0  0  0
  3  4  2  0  0  0  0
  3  6  1  0  0  0  0
  4  5  1  0  0  0  0
  5  7  2  0  0  0  0
  6  2  2  0  0  0  0
  8  9  1  0  0  0  0
  8  4  1  0  0  0  0
 10 14  1  0  0  0  0
 10 13  1  0  0  0  0
 11 12  1  0  0  0  0
 11  9  2  0  0  0  0
 13 12  1  0  0  0  0
 14 11  1  0  0  0  0
 15 16  1  0  0  0  0
 16 22  1  0  0  0  0
 17 16  2  0  0  0  0
 18 23  2  0  0  0  0
 18 21  1  0  0  0  0
 20 24  2  0  0  0  0
 21 28  1  6  0  0  0
 21 24  1  0  0  0  0
 22 23  1  0  0  0  0
 22 19  1  1  0  0  0
 23 20  1  0  0  0  0
 25 28  1  0  0  0  0
 27 28  1  0  0  0  0
 28 26  1  0  0  0  0
M  END
>  <MODEL>
1

>  <REMARK>
 VINA RESULT:      -8.6      0.000      0.000
  Name = 
  6 active torsions:
  status: ('A' for Active; 'I' for Inactive)
    1  A    between atoms: C_1  and  N_5
    2  A    between atoms: N_2  and  O_21
    3  A    between atoms: N_5  and  N_10
    4  A    between atoms: C_12  and  C_19
    5  A    between atoms: C_15  and  O_21
    6  A    between atoms: C_18  and  C_28
                            x       y       z     vdW  Elec       q    Type
                         _______ _______ _______ _____ _____    ______ ____

>  <TORSDO>
F 6

$$$$
=
 OpenBabel11062413323D

 28 30  0  0  0  0  0  0  0  0999 V2000
  190.4770  177.7470  144.6550 N   0  0  0  0  0  2  0  0  0  0  0  0
  190.4780  177.5430  143.2420 C   0  0  0  0  0  0  0  0  0  0  0  0
  189.3030  177.1110  141.1640 C   0  0  0  0  0  3  0  0  0  0  0  0
  190.5200  177.1400  140.4660 C   0  0  0  0  0  0  0  0  0  0  0  0
  191.7100  177.3700  141.1620 C   0  0  0  0  0  3  0  0  0  0  0  0
  189.2830  177.3110  142.5470 C   0  0  0  0  0  3  0  0  0  0  0  0
  191.6890  177.5710  142.5450 C   0  0  0  0  0  3  0  0  0  0  0  0
  190.5670  176.9430  139.0850 O   0  0  0  0  0  0  0  0  0  0  0  0
  190.8180  175.7000  138.5430 N   0  0  0  0  0  0  0  0  0  0  0  0
  193.9450  175.7600  136.7380 C   0  0  0  0  0  2  0  0  0  0  0  0
  191.9080  175.4580  137.8900 C   0  0  0  0  0  0  0  0  0  0  0  0
  192.1970  174.1370  137.2990 C   0  0  0  0  0  2  0  0  0  0  0  0
  193.6200  174.2690  136.7870 C   0  0  0  0  0  2  0  0  0  0  0  0
  192.9720  176.4630  137.6670 C   0  0  0  0  0  2  0  0  0  0  0  0
  189.3110  178.1220  145.3380 N   0  0  0  0  0  2  0  0  0  0  0  0
  188.9310  177.5000  146.5680 C   0  0  0  0  0  0  0  0  0  0  0  0
  189.6800  176.5730  147.0710 N   0  0  0  0  0  2  0  0  0  0  0  0
  186.2570  178.2320  145.2560 C   0  0  0  0  0  3  0  0  0  0  0  0
  187.7570  177.9680  148.6840 O   0  0  0  0  0  1  0  0  0  0  0  0
  185.3840  178.6300  147.3850 N   0  0  0  0  0  0  0  0  0  0  0  0
  184.9910  178.6320  145.2220 C   0  0  0  0  0  0  0  0  0  0  0  0
  187.7080  177.9130  147.2940 C   0  0  0  0  0  0  0  0  0  0  0  0
  186.5560  178.2350  146.6860 C   0  0  0  0  0  0  0  0  0  0  0  0
  184.4720  178.8570  146.5320 N   0  0  0  0  0  0  0  0  0  0  0  0
  184.2440  180.0150  143.4650 F   0  0  0  0  0  0  0  0  0  0  0  0
  184.6270  177.8390  143.0280 F   0  0  0  0  0  0  0  0  0  0  0  0
  182.8480  178.4410  144.2760 F   0  0  0  0  0  0  0  0  0  0  0  0
  184.1670  178.7320  143.9780 C   0  0  0  0  0  0  0  0  0  0  0  0
  1 15  1  0  0  0  0
  2  1  1  0  0  0  0
  3  6  2  0  0  0  0
  4  5  2  0  0  0  0
  4  3  1  0  0  0  0
  5  7  1  0  0  0  0
  6  2  1  0  0  0  0
  7  2  2  0  0  0  0
  8  4  1  0  0  0  0
  9  8  1  0  0  0  0
 10 13  1  0  0  0  0
 10 14  1  0  0  0  0
 11  9  2  0  0  0  0
 12 11  1  0  0  0  0
 13 12  1  0  0  0  0
 14 11  1  0  0  0  0
 15 16  1  0  0  0  0
 16 17  2  0  0  0  0
 16 22  1  0  0  0  0
 18 23  1  0  0  0  0
 21 18  2  0  0  0  0
 21 24  1  0  0  0  0
 22 19  1  0  0  0  0
 23 22  2  0  0  0  0
 23 20  1  0  0  0  0
 24 20  2  0  0  0  0
 25 28  1  0  0  0  0
 26 28  1  0  0  0  0
 28 27  1  0  0  0  0
 28 21  1  0  0  0  0
M  END
>  <MODEL>
2

>  <REMARK>
 VINA RESULT:      -8.5      3.348      4.614
  Name = 
  6 active torsions:
  status: ('A' for Active; 'I' for Inactive)
    1  A    between atoms: C_1  and  N_5
    2  A    between atoms: N_2  and  O_21
    3  A    between atoms: N_5  and  N_10
    4  A    between atoms: C_12  and  C_19
    5  A    between atoms: C_15  and  O_21
    6  A    between atoms: C_18  and  C_28
                            x       y       z     vdW  Elec       q    Type
                         _______ _______ _______ _____ _____    ______ ____

>  <TORSDO>
F 6

$$$$
=
 OpenBabel11062413323D

 28 30  0  0  1  0  0  0  0  0999 V2000
  185.9400  179.2430  140.5250 N   0  0  0  0  0  2  0  0  0  0  0  0
  187.1650  178.5460  140.2930 C   0  0  0  0  0  0  0  0  0  0  0  0
  188.7380  177.4680  138.7930 C   0  0  0  0  0  3  0  0  0  0  0  0
  189.5770  177.1740  139.8780 C   0  0  0  0  0  0  0  0  0  0  0  0
  189.2030  177.5670  141.1660 C   0  0  0  0  0  3  0  0  0  0  0  0
  187.5360  178.1510  139.0000 C   0  0  0  0  0  3  0  0  0  0  0  0
  188.0030  178.2510  141.3730 C   0  0  0  0  0  3  0  0  0  0  0  0
  190.7810  176.4930  139.6970 O   0  0  0  0  0  0  0  0  0  0  0  0
  190.9020  175.4750  138.7740 N   0  0  0  0  0  0  0  0  0  0  0  0
  193.6920  176.1360  136.5790 C   0  0  0  0  0  2  0  0  0  0  0  0
  191.8630  175.4620  137.9080 C   0  0  0  0  0  0  0  0  0  0  0  0
  192.0110  174.3840  136.9110 C   0  0  0  0  0  2  0  0  0  0  0  0
  193.3340  174.6930  136.2330 C   0  0  0  0  0  2  0  0  0  0  0  0
  192.9060  176.5080  137.8240 C   0  0  0  0  0  2  0  0  0  0  0  0
  185.4560  179.4560  141.8230 N   0  0  0  0  0  2  0  0  0  0  0  0
  184.3770  178.6840  142.3550 C   0  0  0  0  0  0  0  0  0  0  0  0
  183.8350  177.7610  141.6290 N   0  0  0  0  0  2  0  0  0  0  0  0
  186.0230  178.2790  144.9110 C   0  0  0  0  0  3  0  0  0  0  0  0
  182.5680  179.3350  143.8990 O   0  0  0  0  0  1  0  0  0  0  0  0
  184.1500  178.9160  146.1530 N   0  0  0  0  0  0  0  0  0  0  0  0
  186.2430  178.2480  146.2210 C   0  0  2  0  0  3  0  0  0  0  0  0
  183.8810  178.9010  143.7340 C   0  0  2  0  0  3  0  0  0  0  0  0
  184.6280  178.7060  144.8310 C   0  0  0  0  0  0  0  0  0  0  0  0
  185.0920  178.6530  146.9600 N   0  0  0  0  0  0  0  0  0  0  0  0
  187.6110  176.6000  147.2070 F   0  0  0  0  0  0  0  0  0  0  0  0
  188.5900  178.2010  145.9630 F   0  0  0  0  0  0  0  0  0  0  0  0
  187.7270  178.7130  147.9830 F   0  0  0  0  0  0  0  0  0  0  0  0
  187.5630  177.9360  146.8510 C   0  0  0  0  0  0  0  0  0  0  0  0
  1 15  1  0  0  0  0
  2  1  1  0  0  0  0
  2  7  1  0  0  0  0
  3  6  1  0  0  0  0
  3  4  2  0  0  0  0
  4  5  1  0  0  0  0
  5  7  2  0  0  0  0
  6  2  2  0  0  0  0
  8  4  1  0  0  0  0
  9  8  1  0  0  0  0
 10 14  1  0  0  0  0
 11  9  2  0  0  0  0
 12 11  1  0  0  0  0
 13 10  1  0  0  0  0
 13 12  1  0  0  0  0
 14 11  1  0  0  0  0
 15 16  1  0  0  0  0
 16 22  1  0  0  0  0
 17 16  2  0  0  0  0
 18 21  1  0  0  0  0
 20 24  2  0  0  0  0
 21 28  1  6  0  0  0
 21 24  1  0  0  0  0
 22 19  1  6  0  0  0
 22 23  1  0  0  0  0
 23 18  2  0  0  0  0
 23 20  1  0  0  0  0
 26 28  1  0  0  0  0
 28 25  1  0  0  0  0
 28 27  1  0  0  0  0
M  END
>  <MODEL>
3

>  <REMARK>
 VINA RESULT:      -8.4      3.324      5.568
  Name = 
  6 active torsions:
  status: ('A' for Active; 'I' for Inactive)
    1  A    between atoms: C_1  and  N_5
    2  A    between atoms: N_2  and  O_21
    3  A    between atoms: N_5  and  N_10
    4  A    between atoms: C_12  and  C_19
    5  A    between atoms: C_15  and  O_21
    6  A    between atoms: C_18  and  C_28
                            x       y       z     vdW  Elec       q    Type
                         _______ _______ _______ _____ _____    ______ ____

>  <TORSDO>
F 6

$$$$
=
 OpenBabel11062413323D

 28 30  0  0  0  0  0  0  0  0999 V2000
  190.4150  177.9310  144.4830 N   0  0  0  0  0  2  0  0  0  0  0  0
  190.3950  177.7620  143.0660 C   0  0  0  0  0  0  0  0  0  0  0  0
  191.5390  177.3540  140.9650 C   0  0  0  0  0  3  0  0  0  0  0  0
  190.3180  177.4390  140.2790 C   0  0  0  0  0  0  0  0  0  0  0  0
  189.1410  177.6860  140.9920 C   0  0  0  0  0  3  0  0  0  0  0  0
  191.5770  177.5160  142.3530 C   0  0  0  0  0  3  0  0  0  0  0  0
  189.1790  177.8460  142.3800 C   0  0  0  0  0  3  0  0  0  0  0  0
  190.2540  177.2830  138.8940 O   0  0  0  0  0  0  0  0  0  0  0  0
  189.4850  178.1150  138.1100 N   0  0  0  0  0  0  0  0  0  0  0  0
  186.8080  176.2310  136.5820 C   0  0  0  0  0  2  0  0  0  0  0  0
  188.4320  177.6800  137.4960 C   0  0  0  0  0  0  0  0  0  0  0  0
  187.5950  178.5520  136.6500 C   0  0  0  0  0  2  0  0  0  0  0  0
  186.4130  177.6750  136.2780 C   0  0  0  0  0  2  0  0  0  0  0  0
  187.9560  176.2810  137.5750 C   0  0  0  0  0  2  0  0  0  0  0  0
  189.2500  178.2480  145.1970 N   0  0  0  0  0  2  0  0  0  0  0  0
  188.9020  177.5640  146.4030 C   0  0  0  0  0  0  0  0  0  0  0  0
  189.6780  176.6330  146.8550 N   0  0  0  0  0  2  0  0  0  0  0  0
  186.1860  178.2590  145.1590 C   0  0  0  0  0  3  0  0  0  0  0  0
  187.7500  177.9250  148.5520 O   0  0  0  0  0  1  0  0  0  0  0  0
  185.3370  178.5610  147.3140 N   0  0  0  0  0  0  0  0  0  0  0  0
  184.9080  178.6230  145.1590 C   0  0  0  0  0  0  0  0  0  0  0  0
  187.6790  177.9160  147.1620 C   0  0  0  0  0  0  0  0  0  0  0  0
  186.5080  178.2230  146.5830 C   0  0  0  0  0  0  0  0  0  0  0  0
  184.4050  178.7880  146.4840 N   0  0  0  0  0  0  0  0  0  0  0  0
  184.1710  180.0140  143.4040 F   0  0  0  0  0  0  0  0  0  0  0  0
  184.4680  177.8230  142.9810 F   0  0  0  0  0  0  0  0  0  0  0  0
  182.7390  178.4990  144.2620 F   0  0  0  0  0  0  0  0  0  0  0  0
  184.0600  178.7400  143.9330 C   0  0  0  0  0  0  0  0  0  0  0  0
  1 15  1  0  0  0  0
  2  1  1  0  0  0  0
  3  6  1  0  0  0  0
  4  3  2  0  0  0  0
  4  5  1  0  0  0  0
  5  7  2  0  0  0  0
  6  2  2  0  0  0  0
  7  2  1  0  0  0  0
  8  4  1  0  0  0  0
  9  8  1  0  0  0  0
 10 14  1  0  0  0  0
 11 14  1  0  0  0  0
 11  9  2  0  0  0  0
 12 11  1  0  0  0  0
 13 10  1  0  0  0  0
 13 12  1  0  0  0  0
 15 16  1  0  0  0  0
 16 17  2  0  0  0  0
 16 22  1  0  0  0  0
 18 21  2  0  0  0  0
 18 23  1  0  0  0  0
 21 24  1  0  0  0  0
 22 19  1  0  0  0  0
 23 22  2  0  0  0  0
 23 20  1  0  0  0  0
 24 20  2  0  0  0  0
 25 28  1  0  0  0  0
 26 28  1  0  0  0  0
 28 27  1  0  0  0  0
 28 21  1  0  0  0  0
M  END
>  <MODEL>
4

>  <REMARK>
 VINA RESULT:      -8.3      2.093      2.919
  Name = 
  6 active torsions:
  status: ('A' for Active; 'I' for Inactive)
    1  A    between atoms: C_1  and  N_5
    2  A    between atoms: N_2  and  O_21
    3  A    between atoms: N_5  and  N_10
    4  A    between atoms: C_12  and  C_19
    5  A    between atoms: C_15  and  O_21
    6  A    between atoms: C_18  and  C_28
                            x       y       z     vdW  Elec       q    Type
                         _______ _______ _______ _____ _____    ______ ____

>  <TORSDO>
F 6

$$$$
=
 OpenBabel11062413323D

 28 30  0  0  0  0  0  0  0  0999 V2000
  184.9600  177.9420  145.1730 N   0  0  0  0  0  2  0  0  0  0  0  0
  184.9380  178.3210  143.7960 C   0  0  0  0  0  0  0  0  0  0  0  0
  183.7330  179.0340  141.8150 C   0  0  0  0  0  3  0  0  0  0  0  0
  184.9330  179.0550  141.0880 C   0  0  0  0  0  0  0  0  0  0  0  0
  186.1300  178.7090  141.7210 C   0  0  0  0  0  3  0  0  0  0  0  0
  183.7360  178.6670  143.1630 C   0  0  0  0  0  3  0  0  0  0  0  0
  186.1330  178.3440  143.0700 C   0  0  0  0  0  3  0  0  0  0  0  0
  184.9560  179.4170  139.7410 O   0  0  0  0  0  0  0  0  0  0  0  0
  185.8350  178.8340  138.8530 N   0  0  0  0  0  0  0  0  0  0  0  0
  184.0630  176.5250  136.7130 C   0  0  0  0  0  2  0  0  0  0  0  0
  185.4260  178.0040  137.9480 C   0  0  0  0  0  0  0  0  0  0  0  0
  186.3490  177.3660  136.9880 C   0  0  0  0  0  2  0  0  0  0  0  0
  185.4290  176.6210  136.0380 C   0  0  0  0  0  2  0  0  0  0  0  0
  184.0110  177.6100  137.7740 C   0  0  0  0  0  2  0  0  0  0  0  0
  186.1500  177.5540  145.8040 N   0  0  0  0  0  2  0  0  0  0  0  0
  186.7080  178.3130  146.8790 C   0  0  0  0  0  0  0  0  0  0  0  0
  186.1030  179.3800  147.2880 N   0  0  0  0  0  2  0  0  0  0  0  0
  189.2670  177.3990  145.4560 C   0  0  0  0  0  3  0  0  0  0  0  0
  187.9900  177.9090  148.9460 O   0  0  0  0  0  1  0  0  0  0  0  0
  190.2520  177.0780  147.5490 N   0  0  0  0  0  0  0  0  0  0  0  0
  190.5130  176.9440  145.3700 C   0  0  0  0  0  0  0  0  0  0  0  0
  187.9570  177.8880  147.5540 C   0  0  0  0  0  0  0  0  0  0  0  0
  189.0560  177.4850  146.8990 C   0  0  0  0  0  0  0  0  0  0  0  0
  191.1000  176.7680  146.6580 N   0  0  0  0  0  0  0  0  0  0  0  0
  192.0200  175.5930  144.1630 F   0  0  0  0  0  0  0  0  0  0  0  0
  190.3650  176.6230  143.0360 F   0  0  0  0  0  0  0  0  0  0  0  0
  192.0840  177.8260  143.8620 F   0  0  0  0  0  0  0  0  0  0  0  0
  191.2550  176.7430  144.0880 C   0  0  0  0  0  0  0  0  0  0  0  0
  1 15  1  0  0  0  0
  2  1  1  0  0  0  0
  3  6  2  0  0  0  0
  4  5  2  0  0  0  0
  4  3  1  0  0  0  0
  5  7  1  0  0  0  0
  6  2  1  0  0  0  0
  7  2  2  0  0  0  0
  8  4  1  0  0  0  0
  9  8  1  0  0  0  0
 10 14  1  0  0  0  0
 11  9  2  0  0  0  0
 12 11  1  0  0  0  0
 13 10  1  0  0  0  0
 13 12  1  0  0  0  0
 14 11  1  0  0  0  0
 15 16  1  0  0  0  0
 16 17  2  0  0  0  0
 16 22  1  0  0  0  0
 18 23  1  0  0  0  0
 21 18  2  0  0  0  0
 21 24  1  0  0  0  0
 22 19  1  0  0  0  0
 23 20  1  0  0  0  0
 23 22  2  0  0  0  0
 24 20  2  0  0  0  0
 26 28  1  0  0  0  0
 27 28  1  0  0  0  0
 28 25  1  0  0  0  0
 28 21  1  0  0  0  0
M  END
>  <MODEL>
5

>  <REMARK>
 VINA RESULT:      -8.3      3.087      4.602
  Name = 
  6 active torsions:
  status: ('A' for Active; 'I' for Inactive)
    1  A    between atoms: C_1  and  N_5
    2  A    between atoms: N_2  and  O_21
    3  A    between atoms: N_5  and  N_10
    4  A    between atoms: C_12  and  C_19
    5  A    between atoms: C_15  and  O_21
    6  A    between atoms: C_18  and  C_28
                            x       y       z     vdW  Elec       q    Type
                         _______ _______ _______ _____ _____    ______ ____

>  <TORSDO>
F 6

$$$$
=
 OpenBabel11062413323D

 28 30  0  0  0  0  0  0  0  0999 V2000
  184.8510  179.5570  139.7010 N   0  0  0  0  0  2  0  0  0  0  0  0
  185.4320  178.9520  140.8560 C   0  0  0  0  0  0  0  0  0  0  0  0
  187.3430  178.0210  142.0260 C   0  0  0  0  0  3  0  0  0  0  0  0
  186.5360  177.7580  143.1430 C   0  0  0  0  0  0  0  0  0  0  0  0
  185.1790  178.0940  143.1100 C   0  0  0  0  0  3  0  0  0  0  0  0
  186.7920  178.6140  140.8870 C   0  0  0  0  0  3  0  0  0  0  0  0
  184.6290  178.6890  141.9710 C   0  0  0  0  0  3  0  0  0  0  0  0
  187.0620  177.1660  144.2920 O   0  0  0  0  0  0  0  0  0  0  0  0
  186.7700  177.6480  145.5500 N   0  0  0  0  0  0  0  0  0  0  0  0
  189.6800  177.3780  147.6720 C   0  0  0  0  0  2  0  0  0  0  0  0
  187.6720  177.7030  146.4760 C   0  0  0  0  0  0  0  0  0  0  0  0
  187.3820  178.2130  147.8300 C   0  0  0  0  0  2  0  0  0  0  0  0
  188.7390  178.2410  148.5090 C   0  0  0  0  0  2  0  0  0  0  0  0
  189.0730  177.2680  146.2840 C   0  0  0  0  0  2  0  0  0  0  0  0
  183.5320  180.0320  139.7100 N   0  0  0  0  0  2  0  0  0  0  0  0
  182.5470  179.5240  138.8070 C   0  0  0  0  0  0  0  0  0  0  0  0
  182.8730  178.6000  137.9620 N   0  0  0  0  0  2  0  0  0  0  0  0
  181.6370  182.3120  137.9090 C   0  0  0  0  0  3  0  0  0  0  0  0
  180.1590  179.1540  139.2910 O   0  0  0  0  0  1  0  0  0  0  0  0
  179.4490  181.7180  138.4680 N   0  0  0  0  0  0  0  0  0  0  0  0
  180.7700  183.2960  137.6940 C   0  0  0  0  0  0  0  0  0  0  0  0
  181.1510  180.0170  138.8340 C   0  0  0  0  0  0  0  0  0  0  0  0
  180.7890  181.2480  138.4410 C   0  0  0  0  0  0  0  0  0  0  0  0
  179.4380  182.9090  138.0290 N   0  0  0  0  0  0  0  0  0  0  0  0
  182.2420  185.1370  137.6880 F   0  0  0  0  0  0  0  0  0  0  0  0
  181.3750  184.4510  135.7260 F   0  0  0  0  0  0  0  0  0  0  0  0
  180.0610  185.4890  137.2370 F   0  0  0  0  0  0  0  0  0  0  0  0
  181.1180  184.6120  137.0760 C   0  0  0  0  0  0  0  0  0  0  0  0
  1 15  1  0  0  0  0
  1  2  1  0  0  0  0
  2  6  2  0  0  0  0
  2  7  1  0  0  0  0
  3  4  2  0  0  0  0
  4  8  1  0  0  0  0
  5  4  1  0  0  0  0
  6  3  1  0  0  0  0
  7  5  2  0  0  0  0
  8  9  1  0  0  0  0
  9 11  2  0  0  0  0
 10 13  1  0  0  0  0
 11 12  1  0  0  0  0
 12 13  1  0  0  0  0
 14 11  1  0  0  0  0
 14 10  1  0  0  0  0
 16 22  1  0  0  0  0
 16 15  1  0  0  0  0
 17 16  2  0  0  0  0
 18 23  1  0  0  0  0
 21 18  2  0  0  0  0
 21 24  1  0  0  0  0
 22 19  1  0  0  0  0
 23 20  1  0  0  0  0
 23 22  2  0  0  0  0
 24 20  2  0  0  0  0
 26 28  1  0  0  0  0
 28 27  1  0  0  0  0
 28 25  1  0  0  0  0
 28 21  1  0  0  0  0
M  END
>  <MODEL>
6

>  <REMARK>
 VINA RESULT:      -8.1      5.568     10.206
  Name = 
  6 active torsions:
  status: ('A' for Active; 'I' for Inactive)
    1  A    between atoms: C_1  and  N_5
    2  A    between atoms: N_2  and  O_21
    3  A    between atoms: N_5  and  N_10
    4  A    between atoms: C_12  and  C_19
    5  A    between atoms: C_15  and  O_21
    6  A    between atoms: C_18  and  C_28
                            x       y       z     vdW  Elec       q    Type
                         _______ _______ _______ _____ _____    ______ ____

>  <TORSDO>
F 6

$$$$
=
 OpenBabel11062413323D

 28 30  0  0  0  0  0  0  0  0999 V2000
  182.4710  179.0030  142.9820 N   0  0  0  0  0  0  0  0  0  0  0  0
  183.6730  178.7510  143.7110 C   0  0  0  0  0  0  0  0  0  0  0  0
  184.9310  178.7470  145.7860 C   0  0  0  0  0  3  0  0  0  0  0  0
  186.0540  178.2470  145.1090 C   0  0  0  0  0  0  0  0  0  0  0  0
  185.9790  178.0030  143.7340 C   0  0  0  0  0  3  0  0  0  0  0  0
  183.7460  178.9980  145.0890 C   0  0  0  0  0  3  0  0  0  0  0  0
  184.7930  178.2530  143.0380 C   0  0  0  0  0  3  0  0  0  0  0  0
  187.2490  177.9890  145.7820 O   0  0  0  0  0  0  0  0  0  0  0  0
  188.4460  177.8770  145.1070 N   0  0  0  0  0  0  0  0  0  0  0  0
  191.0010  176.6450  147.3440 C   0  0  0  0  0  2  0  0  0  0  0  0
  189.5030  177.4070  145.6860 C   0  0  0  0  0  0  0  0  0  0  0  0
  190.7960  177.2790  144.9850 C   0  0  0  0  0  2  0  0  0  0  0  0
  191.6810  176.5500  145.9790 C   0  0  0  0  0  2  0  0  0  0  0  0
  189.5340  176.9510  147.0940 C   0  0  0  0  0  2  0  0  0  0  0  0
  182.4100  178.8270  141.5930 N   0  0  0  0  0  0  0  0  0  0  0  0
  181.2370  179.1620  140.8480 C   0  0  0  0  0  0  0  0  0  0  0  0
  180.2070  179.6440  141.4640 N   0  0  0  0  0  2  0  0  0  0  0  0
  181.1440  181.4460  138.8030 C   0  0  0  0  0  3  0  0  0  0  0  0
  181.1870  177.6960  138.8670 O   0  0  0  0  0  1  0  0  0  0  0  0
  181.0850  179.8480  137.1010 N   0  0  0  0  0  0  0  0  0  0  0  0
  181.0760  181.9910  137.5930 C   0  0  0  0  0  0  0  0  0  0  0  0
  181.1840  178.9910  139.3770 C   0  0  0  0  0  0  0  0  0  0  0  0
  181.1350  180.0150  138.5120 C   0  0  0  0  0  0  0  0  0  0  0  0
  181.0550  180.9990  136.5680 N   0  0  0  0  0  0  0  0  0  0  0  0
  182.3050  183.9900  137.8170 F   0  0  0  0  0  0  0  0  0  0  0  0
  181.0670  183.6950  135.9590 F   0  0  0  0  0  0  0  0  0  0  0  0
  180.0560  184.0790  137.9380 F   0  0  0  0  0  0  0  0  0  0  0  0
  181.1270  183.4600  137.3210 C   0  0  0  0  0  0  0  0  0  0  0  0
  1  2  1  0  0  0  0
  2  6  1  0  0  0  0
  4  8  1  0  0  0  0
  4  3  1  0  0  0  0
  5  4  2  0  0  0  0
  6  3  2  0  0  0  0
  7  2  2  0  0  0  0
  7  5  1  0  0  0  0
  9 11  2  0  0  0  0
  9  8  1  0  0  0  0
 11 14  1  0  0  0  0
 12 11  1  0  0  0  0
 12 13  1  0  0  0  0
 13 10  1  0  0  0  0
 14 10  1  0  0  0  0
 15  1  2  0  0  0  0
 16 17  2  0  0  0  0
 16 15  1  0  0  0  0
 19 22  1  0  0  0  0
 20 23  1  0  0  0  0
 21 18  2  0  0  0  0
 22 16  1  0  0  0  0
 23 18  1  0  0  0  0
 23 22  2  0  0  0  0
 24 20  2  0  0  0  0
 24 21  1  0  0  0  0
 26 28  1  0  0  0  0
 28 21  1  0  0  0  0
 28 25  1  0  0  0  0
 28 27  1  0  0  0  0
M  END
>  <MODEL>
7

>  <REMARK>
 VINA RESULT:      -8.0      5.266     10.285
  Name = 
  6 active torsions:
  status: ('A' for Active; 'I' for Inactive)
    1  A    between atoms: C_1  and  N_5
    2  A    between atoms: N_2  and  O_21
    3  A    between atoms: N_5  and  N_10
    4  A    between atoms: C_12  and  C_19
    5  A    between atoms: C_15  and  O_21
    6  A    between atoms: C_18  and  C_28
                            x       y       z     vdW  Elec       q    Type
                         _______ _______ _______ _____ _____    ______ ____

>  <TORSDO>
F 6

$$$$
=
 OpenBabel11062413323D

 28 30  0  0  0  0  0  0  0  0999 V2000
  185.1680  177.9510  145.2240 N   0  0  0  0  0  2  0  0  0  0  0  0
  185.0870  178.3070  143.8440 C   0  0  0  0  0  0  0  0  0  0  0  0
  183.8000  178.9890  141.9040 C   0  0  0  0  0  3  0  0  0  0  0  0
  184.9680  178.9960  141.1260 C   0  0  0  0  0  0  0  0  0  0  0  0
  186.1910  178.6580  141.7140 C   0  0  0  0  0  3  0  0  0  0  0  0
  183.8600  178.6450  143.2570 C   0  0  0  0  0  3  0  0  0  0  0  0
  186.2500  178.3150  143.0670 C   0  0  0  0  0  3  0  0  0  0  0  0
  184.9340  179.3360  139.7730 O   0  0  0  0  0  0  0  0  0  0  0  0
  183.9340  180.1300  139.2550 N   0  0  0  0  0  0  0  0  0  0  0  0
  181.6900  178.1260  137.2560 C   0  0  0  0  0  2  0  0  0  0  0  0
  182.9770  179.6290  138.5420 C   0  0  0  0  0  0  0  0  0  0  0  0
  181.8970  180.4590  137.9750 C   0  0  0  0  0  2  0  0  0  0  0  0
  180.9380  179.4500  137.3700 C   0  0  0  0  0  2  0  0  0  0  0  0
  182.8590  178.1880  138.2230 C   0  0  0  0  0  2  0  0  0  0  0  0
  186.3830  177.5700  145.8100 N   0  0  0  0  0  2  0  0  0  0  0  0
  186.9080  178.2500  146.9530 C   0  0  0  0  0  0  0  0  0  0  0  0
  186.2480  179.2370  147.4670 N   0  0  0  0  0  2  0  0  0  0  0  0
  189.3760  177.2410  145.4360 C   0  0  0  0  0  3  0  0  0  0  0  0
  188.2910  177.9060  148.9650 O   0  0  0  0  0  1  0  0  0  0  0  0
  190.4650  176.9850  147.4870 N   0  0  0  0  0  0  0  0  0  0  0  0
  190.6090  176.7630  145.3040 C   0  0  0  0  0  0  0  0  0  0  0  0
  188.1840  177.8310  147.5790 C   0  0  0  0  0  0  0  0  0  0  0  0
  189.2420  177.3860  146.8840 C   0  0  0  0  0  0  0  0  0  0  0  0
  191.2610  176.6270  146.5660 N   0  0  0  0  0  0  0  0  0  0  0  0
  192.0550  177.5890  143.6360 F   0  0  0  0  0  0  0  0  0  0  0  0
  192.0900  175.3830  144.0890 F   0  0  0  0  0  0  0  0  0  0  0  0
  190.3210  176.2860  143.0210 F   0  0  0  0  0  0  0  0  0  0  0  0
  191.2800  176.5000  143.9940 C   0  0  0  0  0  0  0  0  0  0  0  0
  1 15  1  0  0  0  0
  2  1  1  0  0  0  0
  3  6  2  0  0  0  0
  4  5  2  0  0  0  0
  4  3  1  0  0  0  0
  5  7  1  0  0  0  0
  6  2  1  0  0  0  0
  7  2  2  0  0  0  0
  8  4  1  0  0  0  0
  9  8  1  0  0  0  0
 10 13  1  0  0  0  0
 10 14  1  0  0  0  0
 11  9  2  0  0  0  0
 12 11  1  0  0  0  0
 13 12  1  0  0  0  0
 14 11  1  0  0  0  0
 15 16  1  0  0  0  0
 16 17  2  0  0  0  0
 16 22  1  0  0  0  0
 18 23  1  0  0  0  0
 21 18  2  0  0  0  0
 21 24  1  0  0  0  0
 22 19  1  0  0  0  0
 23 20  1  0  0  0  0
 23 22  2  0  0  0  0
 24 20  2  0  0  0  0
 25 28  1  0  0  0  0
 27 28  1  0  0  0  0
 28 26  1  0  0  0  0
 28 21  1  0  0  0  0
M  END
>  <MODEL>
8

>  <REMARK>
 VINA RESULT:      -8.0      3.402      4.837
  Name = 
  6 active torsions:
  status: ('A' for Active; 'I' for Inactive)
    1  A    between atoms: C_1  and  N_5
    2  A    between atoms: N_2  and  O_21
    3  A    between atoms: N_5  and  N_10
    4  A    between atoms: C_12  and  C_19
    5  A    between atoms: C_15  and  O_21
    6  A    between atoms: C_18  and  C_28
                            x       y       z     vdW  Elec       q    Type
                         _______ _______ _______ _____ _____    ______ ____

>  <TORSDO>
F 6

$$$$
=
 OpenBabel11062413323D

 28 30  0  0  1  0  0  0  0  0999 V2000
  190.6520  177.6120  141.0080 N   0  0  0  0  0  2  0  0  0  0  0  0
  190.9450  177.2970  142.3690 C   0  0  0  0  0  0  0  0  0  0  0  0
  191.1260  175.6930  144.1810 C   0  0  0  0  0  3  0  0  0  0  0  0
  191.5250  176.7170  145.0530 C   0  0  0  0  0  0  0  0  0  0  0  0
  191.6310  178.0270  144.5770 C   0  0  0  0  0  3  0  0  0  0  0  0
  190.8370  175.9830  142.8450 C   0  0  0  0  0  3  0  0  0  0  0  0
  191.3430  178.3160  143.2410 C   0  0  0  0  0  3  0  0  0  0  0  0
  191.8190  176.4530  146.3910 O   0  0  0  0  0  0  0  0  0  0  0  0
  191.2940  177.2220  147.4090 N   0  0  0  0  0  0  0  0  0  0  0  0
  187.7210  177.5360  146.9910 C   0  0  0  0  0  2  0  0  0  0  0  0
  190.0220  177.4360  147.5040 C   0  0  0  0  0  0  0  0  0  0  0  0
  189.4390  178.2560  148.5830 C   0  0  0  0  0  2  0  0  0  0  0  0
  187.9410  178.1000  148.3930 C   0  0  0  0  0  2  0  0  0  0  0  0
  189.0250  176.8890  146.5580 C   0  0  0  0  0  2  0  0  0  0  0  0
  189.4410  178.2160  140.6430 N   0  0  0  0  0  2  0  0  0  0  0  0
  188.6310  177.6910  139.5890 C   0  0  0  0  0  0  0  0  0  0  0  0
  189.0160  176.6300  138.9580 N   0  0  0  0  0  2  0  0  0  0  0  0
  186.3910  178.4220  141.5530 C   0  0  0  0  0  3  0  0  0  0  0  0
  187.1210  178.6260  137.8790 O   0  0  0  0  0  1  0  0  0  0  0  0
  185.1470  179.2290  139.7490 N   0  0  0  0  0  0  0  0  0  0  0  0
  185.2010  178.8860  141.9200 C   0  0  2  0  0  3  0  0  0  0  0  0
  187.3430  178.3230  139.2200 C   0  0  2  0  0  3  0  0  0  0  0  0
  186.3810  178.6220  140.1060 C   0  0  0  0  0  0  0  0  0  0  0  0
  184.4630  179.3860  140.8060 N   0  0  0  0  0  0  0  0  0  0  0  0
  184.9130  180.2660  143.8090 F   0  0  0  0  0  0  0  0  0  0  0  0
  183.3830  178.6620  143.4100 F   0  0  0  0  0  0  0  0  0  0  0  0
  185.4480  178.0980  144.1200 F   0  0  0  0  0  0  0  0  0  0  0  0
  184.7280  178.9790  143.3350 C   0  0  0  0  0  0  0  0  0  0  0  0
  1  2  1  0  0  0  0
  2  6  2  0  0  0  0
  2  7  1  0  0  0  0
  3  4  2  0  0  0  0
  4  8  1  0  0  0  0
  5  4  1  0  0  0  0
  6  3  1  0  0  0  0
  7  5  2  0  0  0  0
  8  9  1  0  0  0  0
  9 11  2  0  0  0  0
 10 13  1  0  0  0  0
 11 12  1  0  0  0  0
 13 12  1  0  0  0  0
 14 10  1  0  0  0  0
 14 11  1  0  0  0  0
 15  1  1  0  0  0  0
 16 15  1  0  0  0  0
 17 16  2  0  0  0  0
 18 21  1  0  0  0  0
 20 23  1  0  0  0  0
 20 24  2  0  0  0  0
 21 28  1  1  0  0  0
 22 19  1  1  0  0  0
 22 16  1  0  0  0  0
 22 23  1  0  0  0  0
 23 18  2  0  0  0  0
 24 21  1  0  0  0  0
 28 26  1  0  0  0  0
 28 25  1  0  0  0  0
 28 27  1  0  0  0  0
M  END
>  <MODEL>
9

>  <REMARK>
 VINA RESULT:      -8.0      2.351      7.302
  Name = 
  6 active torsions:
  status: ('A' for Active; 'I' for Inactive)
    1  A    between atoms: C_1  and  N_5
    2  A    between atoms: N_2  and  O_21
    3  A    between atoms: N_5  and  N_10
    4  A    between atoms: C_12  and  C_19
    5  A    between atoms: C_15  and  O_21
    6  A    between atoms: C_18  and  C_28
                            x       y       z     vdW  Elec       q    Type
                         _______ _______ _______ _____ _____    ______ ____

>  <TORSDO>
F 6

$$$$
