=
 OpenBabel11062414183D

 45 49  0  0  1  0  0  0  0  0999 V2000
  184.1290  173.4090  135.4060 C   0  0  2  0  0  3  0  0  0  0  0  0
  187.8260  179.5390  136.1670 C   0  0  0  0  0  1  0  0  0  0  0  0
  183.1000  175.9170  136.5660 C   0  0  0  0  0  2  0  0  0  0  0  0
  184.4480  176.4050  134.6360 O   0  0  0  0  0  1  0  0  0  0  0  0
  187.2840  175.8870  135.4060 N   0  0  0  0  0  0  0  0  0  0  0  0
  184.1330  177.3990  138.0880 C   0  0  1  0  0  3  0  0  0  0  0  0
  186.2530  171.5610  135.9450 C   0  0  0  0  0  0  0  0  0  0  0  0
  184.8500  171.0530  135.7580 C   0  0  2  0  0  3  0  0  0  0  0  0
  187.1660  170.7670  136.3000 O   0  0  0  0  0  0  0  0  0  0  0  0
  188.0890  177.6510  137.5560 O   0  0  0  0  0  1  0  0  0  0  0  0
  186.5340  173.0050  135.7740 C   0  0  0  0  0  0  0  0  0  0  0  0
  181.9240  177.5820  137.4750 O   0  0  0  0  0  1  0  0  0  0  0  0
  187.7720  173.4700  135.9700 C   0  0  0  0  0  3  0  0  0  0  0  0
  188.2020  174.8690  135.8210 C   0  0  0  0  0  0  0  0  0  0  0  0
  185.4870  173.8530  135.3910 O   0  0  0  0  0  0  0  0  0  0  0  0
  184.8670  169.7870  135.2020 F   0  0  0  0  0  0  0  0  0  0  0  0
  185.9600  178.1930  136.7130 O   0  0  0  0  0  0  0  0  0  0  0  0
  183.1600  177.3110  136.9870 N   0  0  0  0  0  0  0  0  0  0  0  0
  187.3540  178.1290  136.4590 C   0  0  1  0  0  0  0  0  0  0  0  0
  187.6420  177.2880  135.2130 C   0  0  0  0  0  2  0  0  0  0  0  0
  184.0300  171.9870  134.8710 C   0  0  0  0  0  2  0  0  0  0  0  0
  185.5500  177.1370  137.5510 C   0  0  0  0  0  2  0  0  0  0  0  0
  189.4750  175.1580  136.0560 C   0  0  0  0  0  1  0  0  0  0  0  0
  183.2630  175.8000  135.0540 C   0  0  1  0  0  3  0  0  0  0  0  0
  183.2280  174.3410  134.5940 C   0  0  0  0  0  2  0  0  0  0  0  0
  179.6690  179.2660  142.1460 C   0  0  0  0  0  3  0  0  0  0  0  0
  179.9770  178.6930  143.3720 C   0  0  0  0  0  0  0  0  0  0  0  0
  180.2100  180.1950  139.8820 C   0  0  1  0  0  3  0  0  0  0  0  0
  184.1210  178.7840  138.7790 C   0  0  2  0  0  3  0  0  0  0  0  0
  184.3890  178.7350  140.2920 C   0  0  0  0  0  0  0  0  0  0  0  0
  178.9440  178.4190  144.3110 N   0  0  0  0  0  1  0  0  0  0  0  0
  182.7290  179.3040  139.1010 C   0  0  2  0  0  3  0  0  0  0  0  0
  182.3340  178.7060  142.7900 C   0  0  0  0  0  0  0  0  0  0  0  0
  178.9470  180.7790  140.0080 O   0  0  0  0  0  1  0  0  0  0  0  0
  181.3010  178.4350  143.7020 C   0  0  0  0  0  3  0  0  0  0  0  0
  182.0220  179.1890  141.4980 C   0  0  0  0  0  0  0  0  0  0  0  0
  184.3330  177.4460  140.8350 O   0  0  0  0  0  1  0  0  0  0  0  0
  181.1780  181.2420  139.3020 C   0  0  0  0  0  2  0  0  0  0  0  0
  182.3040  180.6120  138.4640 C   0  0  0  0  0  2  0  0  0  0  0  0
  183.1330  179.5680  140.5370 C   0  0  1  0  0  3  0  0  0  0  0  0
  185.5550  179.4090  140.6510 O   0  0  0  0  0  1  0  0  0  0  0  0
  180.6670  179.5660  141.2070 C   0  0  0  0  0  0  0  0  0  0  0  0
  183.6700  178.5190  143.1700 O   0  0  0  0  0  0  0  0  0  0  0  0
  184.6720  178.8130  145.2790 C   0  0  0  0  0  2  0  0  0  0  0  0
  184.3120  179.3230  144.1130 C   0  0  0  0  0  3  0  0  0  0  0  0
  1 25  1  6  0  0  0
  3 18  1  0  0  0  0
  5 14  2  0  0  0  0
  6 22  1  6  0  0  0
  6 29  1  0  0  0  0
  7  9  2  0  0  0  0
  8 16  1  6  0  0  0
  8  7  1  0  0  0  0
 11  7  1  0  0  0  0
 11 13  2  0  0  0  0
 14 13  1  0  0  0  0
 14 23  1  0  0  0  0
 15  1  1  0  0  0  0
 15 11  1  0  0  0  0
 17 22  1  0  0  0  0
 18 12  1  0  0  0  0
 18  6  1  0  0  0  0
 19  2  1  6  0  0  0
 19 17  1  0  0  0  0
 19 10  1  0  0  0  0
 20  5  1  0  0  0  0
 20 19  1  0  0  0  0
 21  1  1  0  0  0  0
 21  8  1  0  0  0  0
 24  4  1  1  0  0  0
 24  3  1  0  0  0  0
 25 24  1  0  0  0  0
 26 27  1  0  0  0  0
 27 35  2  0  0  0  0
 27 31  1  0  0  0  0
 28 34  1  1  0  0  0
 28 42  1  0  0  0  0
 29 32  1  0  0  0  0
 29 30  1  1  0  0  0
 30 40  1  0  0  0  0
 30 41  1  0  0  0  0
 30 37  1  0  0  0  0
 32 39  1  6  0  0  0
 32 40  1  0  0  0  0
 33 43  1  0  0  0  0
 33 35  1  0  0  0  0
 36 33  2  0  0  0  0
 38 28  1  0  0  0  0
 39 38  1  0  0  0  0
 40 36  1  1  0  0  0
 42 36  1  0  0  0  0
 42 26  2  0  0  0  0
 43 45  1  0  0  0  0
 45 44  2  0  0  0  0
M  END
>  <MODEL>
1

>  <REMARK>
 VINA RESULT:      -6.3      0.000      0.000
  Name = 
  3 active torsions:
  status: ('A' for Active; 'I' for Inactive)
    1  A    between atoms: C_9  and  C_12
    2  A    between atoms: C_16  and  O_21
    3  A    between atoms: O_21  and  C_40
                            x       y       z     vdW  Elec       q    Type
                         _______ _______ _______ _____ _____    ______ ____

>  <TORSDO>
F 3

$$$$
=
 OpenBabel11062414183D

 45 49  0  0  1  0  0  0  0  0999 V2000
  179.8610  181.6800  135.4200 C   0  0  2  0  0  3  0  0  0  0  0  0
  180.1280  177.4980  141.2720 C   0  0  0  0  0  1  0  0  0  0  0  0
  181.6010  179.3280  135.7870 C   0  0  0  0  0  2  0  0  0  0  0  0
  179.4130  178.8690  136.6700 O   0  0  0  0  0  1  0  0  0  0  0  0
  179.1350  180.4670  139.1740 N   0  0  0  0  0  0  0  0  0  0  0  0
  182.8720  178.6840  137.6700 C   0  0  1  0  0  3  0  0  0  0  0  0
  179.4350  184.2010  136.7170 C   0  0  0  0  0  0  0  0  0  0  0  0
  179.6570  184.1540  135.2310 C   0  0  2  0  0  3  0  0  0  0  0  0
  179.3670  185.3140  137.3070 O   0  0  0  0  0  0  0  0  0  0  0  0
  181.1040  179.6390  141.1280 O   0  0  0  0  0  1  0  0  0  0  0  0
  179.3640  182.9360  137.4840 C   0  0  0  0  0  0  0  0  0  0  0  0
  183.0480  177.6360  135.6310 O   0  0  0  0  0  1  0  0  0  0  0  0
  179.1980  182.9690  138.8100 C   0  0  0  0  0  3  0  0  0  0  0  0
  179.0930  181.8000  139.6960 C   0  0  0  0  0  0  0  0  0  0  0  0
  179.4570  181.7230  136.7890 O   0  0  0  0  0  0  0  0  0  0  0  0
  178.9720  185.1820  134.6090 F   0  0  0  0  0  0  0  0  0  0  0  0
  181.0840  178.2370  139.2390 O   0  0  0  0  0  0  0  0  0  0  0  0
  182.1510  178.1770  136.4910 N   0  0  0  0  0  0  0  0  0  0  0  0
  180.3800  178.6970  140.3810 C   0  0  1  0  0  0  0  0  0  0  0  0
  179.0130  179.2620  139.9860 C   0  0  0  0  0  2  0  0  0  0  0  0
  179.2140  182.8170  134.6410 C   0  0  0  0  0  2  0  0  0  0  0  0
  181.8700  179.2640  138.6820 C   0  0  0  0  0  2  0  0  0  0  0  0
  178.9310  182.0150  140.9950 C   0  0  0  0  0  1  0  0  0  0  0  0
  180.1180  179.1280  135.4940 C   0  0  1  0  0  3  0  0  0  0  0  0
  179.5150  180.3370  134.7760 C   0  0  0  0  0  2  0  0  0  0  0  0
  188.0770  176.0730  135.2270 C   0  0  0  0  0  3  0  0  0  0  0  0
  189.1200  176.9600  135.4650 C   0  0  0  0  0  0  0  0  0  0  0  0
  185.8700  174.9930  135.7170 C   0  0  1  0  0  3  0  0  0  0  0  0
  183.6970  177.5810  138.3780 C   0  0  2  0  0  3  0  0  0  0  0  0
  185.0840  178.0410  138.8560 C   0  0  0  0  0  0  0  0  0  0  0  0
  190.2450  176.9870  134.5940 N   0  0  0  0  0  1  0  0  0  0  0  0
  184.4050  176.6300  137.4260 C   0  0  2  0  0  3  0  0  0  0  0  0
  187.9870  177.7640  137.4560 C   0  0  0  0  0  0  0  0  0  0  0  0
  186.3650  173.9950  134.8720 O   0  0  0  0  0  1  0  0  0  0  0  0
  189.0860  177.7840  136.5820 C   0  0  0  0  0  3  0  0  0  0  0  0
  186.8720  176.9430  137.1640 C   0  0  0  0  0  0  0  0  0  0  0  0
  185.4750  179.2840  138.3420 O   0  0  0  0  0  1  0  0  0  0  0  0
  185.1940  174.3210  136.9260 C   0  0  0  0  0  2  0  0  0  0  0  0
  184.0420  175.1600  137.5050 C   0  0  0  0  0  2  0  0  0  0  0  0
  185.7190  176.8480  138.1460 C   0  0  1  0  0  3  0  0  0  0  0  0
  185.2220  177.9750  140.2400 O   0  0  0  0  0  1  0  0  0  0  0  0
  186.9640  176.0090  136.0780 C   0  0  0  0  0  0  0  0  0  0  0  0
  188.0070  178.5390  138.6230 O   0  0  0  0  0  0  0  0  0  0  0  0
  188.6290  177.6610  140.7160 C   0  0  0  0  0  2  0  0  0  0  0  0
  188.9470  178.3600  139.6380 C   0  0  0  0  0  3  0  0  0  0  0  0
  1 21  1  6  0  0  0
  1 15  1  0  0  0  0
  3 18  1  0  0  0  0
  5 14  2  0  0  0  0
  5 20  1  0  0  0  0
  6 29  1  0  0  0  0
  6 22  1  1  0  0  0
  7  9  2  0  0  0  0
  7 11  1  0  0  0  0
  8 16  1  6  0  0  0
  8  7  1  0  0  0  0
 11 13  2  0  0  0  0
 12 18  1  0  0  0  0
 13 14  1  0  0  0  0
 14 23  1  0  0  0  0
 15 11  1  0  0  0  0
 17 19  1  0  0  0  0
 18  6  1  0  0  0  0
 19 10  1  0  0  0  0
 19  2  1  1  0  0  0
 20 19  1  0  0  0  0
 21  8  1  0  0  0  0
 22 17  1  0  0  0  0
 24  3  1  0  0  0  0
 24  4  1  1  0  0  0
 25  1  1  0  0  0  0
 25 24  1  0  0  0  0
 26 27  2  0  0  0  0
 26 42  1  0  0  0  0
 27 35  1  0  0  0  0
 28 34  1  6  0  0  0
 28 42  1  0  0  0  0
 28 38  1  0  0  0  0
 29 30  1  6  0  0  0
 30 41  1  0  0  0  0
 31 27  1  0  0  0  0
 32 39  1  1  0  0  0
 32 40  1  0  0  0  0
 32 29  1  0  0  0  0
 33 43  1  0  0  0  0
 35 33  2  0  0  0  0
 36 33  1  0  0  0  0
 37 30  1  0  0  0  0
 38 39  1  0  0  0  0
 40 36  1  6  0  0  0
 40 30  1  0  0  0  0
 42 36  2  0  0  0  0
 43 45  1  0  0  0  0
 45 44  2  0  0  0  0
M  END
>  <MODEL>
2

>  <REMARK>
 VINA RESULT:      -6.3      3.720      9.206
  Name = 
  3 active torsions:
  status: ('A' for Active; 'I' for Inactive)
    1  A    between atoms: C_9  and  C_12
    2  A    between atoms: C_16  and  O_21
    3  A    between atoms: O_21  and  C_40
                            x       y       z     vdW  Elec       q    Type
                         _______ _______ _______ _____ _____    ______ ____

>  <TORSDO>
F 3

$$$$
=
 OpenBabel11062414183D

 45 49  0  0  1  0  0  0  0  0999 V2000
  179.5640  174.0690  138.6360 C   0  0  2  0  0  3  0  0  0  0  0  0
  180.3620  181.1940  137.9850 C   0  0  0  0  0  1  0  0  0  0  0  0
  181.0450  175.8200  140.4890 C   0  0  0  0  0  2  0  0  0  0  0  0
  179.0100  176.8980  139.8000 O   0  0  0  0  0  1  0  0  0  0  0  0
  179.3770  177.7050  136.9520 N   0  0  0  0  0  2  0  0  0  0  0  0
  182.5440  177.5820  140.0110 C   0  0  1  0  0  3  0  0  0  0  0  0
  179.6830  173.3720  135.8570 C   0  0  0  0  0  0  0  0  0  0  0  0
  179.6300  172.2880  136.8980 C   0  0  2  0  0  3  0  0  0  0  0  0
  179.8550  173.0710  134.6440 O   0  0  0  0  0  0  0  0  0  0  0  0
  181.5480  179.6050  136.7090 O   0  0  0  0  0  1  0  0  0  0  0  0
  179.5970  174.7900  136.2770 C   0  0  0  0  0  0  0  0  0  0  0  0
  182.2260  176.7570  142.1340 O   0  0  0  0  0  1  0  0  0  0  0  0
  179.6750  175.7620  135.3610 C   0  0  0  0  0  3  0  0  0  0  0  0
  179.5890  177.2060  135.6270 C   0  0  0  0  0  0  0  0  0  0  0  0
  179.4180  175.0790  137.6350 O   0  0  0  0  0  0  0  0  0  0  0  0
  178.9740  171.1760  136.4010 F   0  0  0  0  0  0  0  0  0  0  0  0
  181.0230  179.1400  138.9540 O   0  0  0  0  0  0  0  0  0  0  0  0
  181.5680  177.0820  140.9940 N   0  0  0  0  0  0  0  0  0  0  0  0
  180.5940  179.7180  137.7320 C   0  0  1  0  0  0  0  0  0  0  0  0
  179.2560  179.1200  137.2870 C   0  0  0  0  0  2  0  0  0  0  0  0
  178.9310  172.7660  138.1680 C   0  0  0  0  0  2  0  0  0  0  0  0
  181.8150  177.9990  138.7230 C   0  0  0  0  0  2  0  0  0  0  0  0
  179.6880  178.0350  134.5960 C   0  0  0  0  0  2  0  0  0  0  0  0
  179.5210  175.8150  140.5160 C   0  0  1  0  0  3  0  0  0  0  0  0
  178.9490  174.5060  139.9660 C   0  0  0  0  0  2  0  0  0  0  0  0
  187.8740  177.1110  143.3650 C   0  0  0  0  0  3  0  0  0  0  0  0
  188.8980  176.8710  142.4580 C   0  0  0  0  0  0  0  0  0  0  0  0
  185.6540  178.0260  144.0810 C   0  0  1  0  0  3  0  0  0  0  0  0
  183.3420  178.8000  140.5360 C   0  0  2  0  0  3  0  0  0  0  0  0
  184.7030  179.0040  139.8500 C   0  0  0  0  0  0  0  0  0  0  0  0
  190.0620  176.1630  142.8680 N   0  0  0  0  0  1  0  0  0  0  0  0
  184.1000  178.5340  141.8280 C   0  0  2  0  0  3  0  0  0  0  0  0
  187.6690  178.0770  140.7460 C   0  0  0  0  0  0  0  0  0  0  0  0
  186.1930  177.8680  145.3600 O   0  0  0  0  0  1  0  0  0  0  0  0
  188.8070  177.3690  141.1650 C   0  0  0  0  0  3  0  0  0  0  0  0
  186.5750  178.2330  141.6290 C   0  0  0  0  0  0  0  0  0  0  0  0
  185.1090  177.9180  139.0650 O   0  0  0  0  0  1  0  0  0  0  0  0
  184.9270  179.3810  144.0190 C   0  0  0  0  0  2  0  0  0  0  0  0
  183.7440  179.3780  143.0360 C   0  0  0  0  0  2  0  0  0  0  0  0
  185.3780  179.0700  141.2180 C   0  0  1  0  0  3  0  0  0  0  0  0
  184.7770  180.2120  139.1580 O   0  0  0  0  0  1  0  0  0  0  0  0
  186.7230  177.8230  142.9970 C   0  0  0  0  0  0  0  0  0  0  0  0
  187.6300  178.6440  139.4660 O   0  0  0  0  0  0  0  0  0  0  0  0
  188.4280  178.6280  137.2520 C   0  0  0  0  0  2  0  0  0  0  0  0
  188.6730  178.5220  138.5480 C   0  0  0  0  0  3  0  0  0  0  0  0
  1 21  1  6  0  0  0
  1 25  1  0  0  0  0
  3 24  1  0  0  0  0
  3 18  1  0  0  0  0
  5 20  1  0  0  0  0
  6 22  1  6  0  0  0
  6 29  1  0  0  0  0
  6 18  1  0  0  0  0
  7 11  1  0  0  0  0
  7  8  1  0  0  0  0
  8 16  1  6  0  0  0
  8 21  1  0  0  0  0
  9  7  2  0  0  0  0
 10 19  1  0  0  0  0
 11 15  1  0  0  0  0
 13 14  1  0  0  0  0
 13 11  2  0  0  0  0
 14  5  1  0  0  0  0
 15  1  1  0  0  0  0
 18 12  1  0  0  0  0
 19  2  1  1  0  0  0
 19 17  1  0  0  0  0
 20 19  1  0  0  0  0
 22 17  1  0  0  0  0
 23 14  2  0  0  0  0
 24  4  1  6  0  0  0
 25 24  1  0  0  0  0
 27 31  1  0  0  0  0
 27 26  2  0  0  0  0
 28 34  1  1  0  0  0
 29 30  1  6  0  0  0
 29 32  1  0  0  0  0
 30 40  1  0  0  0  0
 32 39  1  1  0  0  0
 33 35  2  0  0  0  0
 33 36  1  0  0  0  0
 35 27  1  0  0  0  0
 36 42  2  0  0  0  0
 37 30  1  0  0  0  0
 38 28  1  0  0  0  0
 39 38  1  0  0  0  0
 40 36  1  6  0  0  0
 40 32  1  0  0  0  0
 41 30  1  0  0  0  0
 42 26  1  0  0  0  0
 42 28  1  0  0  0  0
 43 33  1  0  0  0  0
 44 45  2  0  0  0  0
 45 43  1  0  0  0  0
M  END
>  <MODEL>
3

>  <REMARK>
 VINA RESULT:      -5.8      3.759      6.674
  Name = 
  3 active torsions:
  status: ('A' for Active; 'I' for Inactive)
    1  A    between atoms: C_9  and  C_12
    2  A    between atoms: C_16  and  O_21
    3  A    between atoms: O_21  and  C_40
                            x       y       z     vdW  Elec       q    Type
                         _______ _______ _______ _____ _____    ______ ____

>  <TORSDO>
F 3

$$$$
=
 OpenBabel11062414183D

 45 49  0  0  1  0  0  0  0  0999 V2000
  184.7440  173.2820  135.7410 C   0  0  2  0  0  3  0  0  0  0  0  0
  189.4250  178.7470  135.5400 C   0  0  0  0  0  1  0  0  0  0  0  0
  184.5480  175.7850  137.2860 C   0  0  0  0  0  2  0  0  0  0  0  0
  185.2810  176.2650  135.0480 O   0  0  0  0  0  1  0  0  0  0  0  0
  188.0940  175.2930  134.8300 N   0  0  0  0  0  2  0  0  0  0  0  0
  186.2300  176.9600  138.4570 C   0  0  1  0  0  3  0  0  0  0  0  0
  186.6060  171.1170  135.4760 C   0  0  0  0  0  0  0  0  0  0  0  0
  185.1530  170.8260  135.7320 C   0  0  2  0  0  3  0  0  0  0  0  0
  187.4450  170.1760  135.4780 O   0  0  0  0  0  0  0  0  0  0  0  0
  189.8040  176.7180  136.6800 O   0  0  0  0  0  1  0  0  0  0  0  0
  187.0460  172.5190  135.2890 C   0  0  0  0  0  0  0  0  0  0  0  0
  184.0000  177.5020  138.6030 O   0  0  0  0  0  1  0  0  0  0  0  0
  188.3410  172.7900  135.0930 C   0  0  0  0  0  3  0  0  0  0  0  0
  188.9200  174.1250  134.8770 C   0  0  0  0  0  0  0  0  0  0  0  0
  186.0820  173.5340  135.3070 O   0  0  0  0  0  0  0  0  0  0  0  0
  184.7920  169.6280  135.1430 F   0  0  0  0  0  0  0  0  0  0  0  0
  187.6340  177.6240  136.6000 O   0  0  0  0  0  0  0  0  0  0  0  0
  184.9590  177.1110  137.7290 N   0  0  0  0  0  0  0  0  0  0  0  0
  188.8490  177.3950  135.9050 C   0  0  1  0  0  0  0  0  0  0  0  0
  188.5930  176.6440  134.5950 C   0  0  0  0  0  2  0  0  0  0  0  0
  184.2570  171.9440  135.2030 C   0  0  0  0  0  2  0  0  0  0  0  0
  187.3450  176.5590  137.4770 C   0  0  0  0  0  2  0  0  0  0  0  0
  190.2320  174.2130  134.6980 C   0  0  0  0  0  2  0  0  0  0  0  0
  184.2060  175.7900  135.8000 C   0  0  1  0  0  3  0  0  0  0  0  0
  183.7960  174.4010  135.3090 C   0  0  0  0  0  2  0  0  0  0  0  0
  187.2720  177.3610  144.6720 C   0  0  0  0  0  3  0  0  0  0  0  0
  188.5450  176.8560  144.8980 C   0  0  0  0  0  0  0  0  0  0  0  0
  185.4910  178.4810  143.3120 C   0  0  1  0  0  3  0  0  0  0  0  0
  186.6580  178.2620  139.1770 C   0  0  2  0  0  3  0  0  0  0  0  0
  188.0960  178.2390  139.7180 C   0  0  0  0  0  0  0  0  0  0  0  0
  188.8680  176.2710  146.1550 N   0  0  0  0  0  1  0  0  0  0  0  0
  186.1800  178.3600  140.6170 C   0  0  2  0  0  3  0  0  0  0  0  0
  189.2200  177.5490  142.6720 C   0  0  0  0  0  0  0  0  0  0  0  0
  184.9010  178.6830  144.5620 O   0  0  0  0  0  1  0  0  0  0  0  0
  189.5190  176.9680  143.9140 C   0  0  0  0  0  3  0  0  0  0  0  0
  187.8980  177.9690  142.3920 C   0  0  0  0  0  0  0  0  0  0  0  0
  188.6830  176.9680  139.7090 O   0  0  0  0  0  1  0  0  0  0  0  0
  185.3550  179.7770  142.4910 C   0  0  0  0  0  2  0  0  0  0  0  0
  185.2700  179.5170  140.9780 C   0  0  0  0  0  2  0  0  0  0  0  0
  187.5840  178.6770  141.0880 C   0  0  1  0  0  3  0  0  0  0  0  0
  188.9090  179.2000  139.1190 O   0  0  0  0  0  1  0  0  0  0  0  0
  186.9290  177.9610  143.4510 C   0  0  0  0  0  0  0  0  0  0  0  0
  190.2340  177.7320  141.7230 O   0  0  0  0  0  0  0  0  0  0  0  0
  192.4370  177.1930  141.0920 C   0  0  0  0  0  2  0  0  0  0  0  0
  191.5900  177.6010  142.0240 C   0  0  0  0  0  3  0  0  0  0  0  0
  1 21  1  6  0  0  0
  3 18  1  0  0  0  0
  5 14  1  0  0  0  0
  6 22  1  6  0  0  0
  6 29  1  0  0  0  0
  7  9  2  0  0  0  0
  7  8  1  0  0  0  0
  8 16  1  6  0  0  0
 11 15  1  0  0  0  0
 11  7  1  0  0  0  0
 13 11  2  0  0  0  0
 14 13  1  0  0  0  0
 15  1  1  0  0  0  0
 17 22  1  0  0  0  0
 18  6  1  0  0  0  0
 18 12  1  0  0  0  0
 19  2  1  6  0  0  0
 19 17  1  0  0  0  0
 19 10  1  0  0  0  0
 20  5  1  0  0  0  0
 20 19  1  0  0  0  0
 21  8  1  0  0  0  0
 23 14  2  0  0  0  0
 24  4  1  6  0  0  0
 24  3  1  0  0  0  0
 25  1  1  0  0  0  0
 25 24  1  0  0  0  0
 26 27  1  0  0  0  0
 27 31  1  0  0  0  0
 28 42  1  0  0  0  0
 28 34  1  1  0  0  0
 29 30  1  1  0  0  0
 29 32  1  0  0  0  0
 30 40  1  0  0  0  0
 32 39  1  6  0  0  0
 32 40  1  0  0  0  0
 33 35  1  0  0  0  0
 35 27  2  0  0  0  0
 36 33  2  0  0  0  0
 36 42  1  0  0  0  0
 37 30  1  0  0  0  0
 38 28  1  0  0  0  0
 39 38  1  0  0  0  0
 40 36  1  1  0  0  0
 41 30  1  0  0  0  0
 42 26  2  0  0  0  0
 43 45  1  0  0  0  0
 43 33  1  0  0  0  0
 44 45  2  0  0  0  0
M  END
>  <MODEL>
4

>  <REMARK>
 VINA RESULT:      -5.7      3.067      4.556
  Name = 
  3 active torsions:
  status: ('A' for Active; 'I' for Inactive)
    1  A    between atoms: C_9  and  C_12
    2  A    between atoms: C_16  and  O_21
    3  A    between atoms: O_21  and  C_40
                            x       y       z     vdW  Elec       q    Type
                         _______ _______ _______ _____ _____    ______ ____

>  <TORSDO>
F 3

$$$$
=
 OpenBabel11062414183D

 45 49  0  0  1  0  0  0  0  0999 V2000
  183.3330  174.1360  137.2420 C   0  0  2  0  0  3  0  0  0  0  0  0
  187.6370  179.8920  136.8430 C   0  0  0  0  0  1  0  0  0  0  0  0
  183.3300  176.4300  139.0940 C   0  0  0  0  0  2  0  0  0  0  0  0
  183.5910  177.2080  136.8350 O   0  0  0  0  0  1  0  0  0  0  0  0
  186.3480  176.4580  135.9740 N   0  0  0  0  0  2  0  0  0  0  0  0
  185.1530  177.5750  140.0640 C   0  0  1  0  0  3  0  0  0  0  0  0
  185.2010  172.1460  136.3660 C   0  0  0  0  0  0  0  0  0  0  0  0
  183.8400  171.7300  136.8520 C   0  0  2  0  0  3  0  0  0  0  0  0
  186.0650  171.2680  136.0940 O   0  0  0  0  0  0  0  0  0  0  0  0
  188.3210  177.7770  137.6320 O   0  0  0  0  0  1  0  0  0  0  0  0
  185.5340  173.5860  136.2750 C   0  0  0  0  0  0  0  0  0  0  0  0
  182.9720  177.9450  140.6930 O   0  0  0  0  0  1  0  0  0  0  0  0
  186.7520  173.9640  135.8740 C   0  0  0  0  0  3  0  0  0  0  0  0
  187.2180  175.3500  135.7200 C   0  0  0  0  0  0  0  0  0  0  0  0
  184.5470  174.5260  136.5990 O   0  0  0  0  0  0  0  0  0  0  0  0
  183.4250  170.5850  136.1980 F   0  0  0  0  0  0  0  0  0  0  0  0
  186.1390  178.5380  138.0740 O   0  0  0  0  0  0  0  0  0  0  0  0
  183.7600  177.7220  139.6120 N   0  0  0  0  0  0  0  0  0  0  0  0
  187.2040  178.4710  137.1390 C   0  0  1  0  0  0  0  0  0  0  0  0
  186.7310  177.8570  135.8190 C   0  0  0  0  0  2  0  0  0  0  0  0
  182.8090  172.8380  136.6430 C   0  0  0  0  0  2  0  0  0  0  0  0
  186.0730  177.3640  138.8500 C   0  0  0  0  0  2  0  0  0  0  0  0
  188.4650  175.5460  135.3100 C   0  0  0  0  0  2  0  0  0  0  0  0
  182.7060  176.5800  137.7110 C   0  0  1  0  0  3  0  0  0  0  0  0
  182.2690  175.2300  137.1380 C   0  0  0  0  0  2  0  0  0  0  0  0
  186.6310  177.4940  146.2030 C   0  0  0  0  0  3  0  0  0  0  0  0
  187.9070  176.9550  146.3010 C   0  0  0  0  0  0  0  0  0  0  0  0
  184.7810  178.7380  145.0580 C   0  0  1  0  0  3  0  0  0  0  0  0
  185.6550  178.8140  140.8470 C   0  0  2  0  0  3  0  0  0  0  0  0
  187.1270  178.7300  141.2820 C   0  0  0  0  0  0  0  0  0  0  0  0
  188.3040  176.2730  147.4850 N   0  0  0  0  0  1  0  0  0  0  0  0
  185.2800  178.8090  142.3200 C   0  0  2  0  0  3  0  0  0  0  0  0
  188.4390  177.8050  144.0900 C   0  0  0  0  0  0  0  0  0  0  0  0
  184.2840  178.8530  146.3590 O   0  0  0  0  0  1  0  0  0  0  0  0
  188.8120  177.1280  145.2620 C   0  0  0  0  0  3  0  0  0  0  0  0
  187.1090  178.2630  143.9360 C   0  0  0  0  0  0  0  0  0  0  0  0
  187.6870  177.4550  141.1370 O   0  0  0  0  0  1  0  0  0  0  0  0
  184.6140  180.0930  144.3480 C   0  0  0  0  0  2  0  0  0  0  0  0
  184.4190  179.9490  142.8290 C   0  0  0  0  0  2  0  0  0  0  0  0
  186.7190  179.0710  142.7130 C   0  0  1  0  0  3  0  0  0  0  0  0
  187.9140  179.7210  140.7000 O   0  0  0  0  0  1  0  0  0  0  0  0
  186.2150  178.1880  145.0570 C   0  0  0  0  0  0  0  0  0  0  0  0
  189.3880  178.0440  143.0880 O   0  0  0  0  0  0  0  0  0  0  0  0
  191.1190  179.3740  143.9670 C   0  0  0  0  0  2  0  0  0  0  0  0
  190.7390  178.2630  143.3570 C   0  0  0  0  0  3  0  0  0  0  0  0
  1 21  1  6  0  0  0
  3 18  1  0  0  0  0
  6 22  1  6  0  0  0
  6 29  1  0  0  0  0
  7  8  1  0  0  0  0
  8 16  1  6  0  0  0
  9  7  2  0  0  0  0
 11  7  1  0  0  0  0
 11 15  1  0  0  0  0
 13 11  2  0  0  0  0
 14 13  1  0  0  0  0
 14  5  1  0  0  0  0
 15  1  1  0  0  0  0
 17 22  1  0  0  0  0
 18  6  1  0  0  0  0
 18 12  1  0  0  0  0
 19  2  1  6  0  0  0
 19 10  1  0  0  0  0
 19 17  1  0  0  0  0
 20  5  1  0  0  0  0
 20 19  1  0  0  0  0
 21  8  1  0  0  0  0
 23 14  2  0  0  0  0
 24  4  1  6  0  0  0
 24  3  1  0  0  0  0
 25  1  1  0  0  0  0
 25 24  1  0  0  0  0
 26 27  1  0  0  0  0
 27 31  1  0  0  0  0
 28 34  1  1  0  0  0
 29 30  1  1  0  0  0
 29 32  1  0  0  0  0
 30 40  1  0  0  0  0
 32 40  1  0  0  0  0
 32 39  1  6  0  0  0
 33 35  1  0  0  0  0
 35 27  2  0  0  0  0
 36 33  2  0  0  0  0
 36 42  1  0  0  0  0
 37 30  1  0  0  0  0
 38 28  1  0  0  0  0
 39 38  1  0  0  0  0
 40 36  1  1  0  0  0
 41 30  1  0  0  0  0
 42 28  1  0  0  0  0
 42 26  2  0  0  0  0
 43 45  1  0  0  0  0
 43 33  1  0  0  0  0
 45 44  2  0  0  0  0
M  END
>  <MODEL>
5

>  <REMARK>
 VINA RESULT:      -5.7      2.910      4.438
  Name = 
  3 active torsions:
  status: ('A' for Active; 'I' for Inactive)
    1  A    between atoms: C_9  and  C_12
    2  A    between atoms: C_16  and  O_21
    3  A    between atoms: O_21  and  C_40
                            x       y       z     vdW  Elec       q    Type
                         _______ _______ _______ _____ _____    ______ ____

>  <TORSDO>
F 3

$$$$
=
 OpenBabel11062414183D

 45 49  0  0  1  0  0  0  0  0999 V2000
  180.8140  173.7350  137.5800 C   0  0  2  0  0  3  0  0  0  0  0  0
  185.5190  179.0790  136.5210 C   0  0  0  0  0  1  0  0  0  0  0  0
  180.9510  176.2480  139.1150 C   0  0  0  0  0  2  0  0  0  0  0  0
  181.2940  176.7010  136.7800 O   0  0  0  0  0  1  0  0  0  0  0  0
  184.0000  175.6570  136.0820 N   0  0  0  0  0  2  0  0  0  0  0  0
  182.8400  177.3840  139.9650 C   0  0  1  0  0  3  0  0  0  0  0  0
  182.5470  171.5230  137.0110 C   0  0  0  0  0  0  0  0  0  0  0  0
  181.1540  171.2690  137.5190 C   0  0  2  0  0  3  0  0  0  0  0  0
  183.3500  170.5600  136.8740 O   0  0  0  0  0  0  0  0  0  0  0  0
  186.0420  177.0450  137.5940 O   0  0  0  0  0  1  0  0  0  0  0  0
  182.9820  172.9120  136.7390 C   0  0  0  0  0  0  0  0  0  0  0  0
  180.6840  177.9820  140.4940 O   0  0  0  0  0  1  0  0  0  0  0  0
  184.2290  173.1500  136.3180 C   0  0  0  0  0  3  0  0  0  0  0  0
  184.7930  174.4680  135.9930 C   0  0  0  0  0  0  0  0  0  0  0  0
  182.0610  173.9520  136.9160 O   0  0  0  0  0  0  0  0  0  0  0  0
  180.6670  170.0790  137.0120 F   0  0  0  0  0  0  0  0  0  0  0  0
  183.9140  178.0050  137.8870 O   0  0  0  0  0  0  0  0  0  0  0  0
  181.4660  177.5650  139.4690 N   0  0  0  0  0  0  0  0  0  0  0  0
  184.9830  177.7430  136.9920 C   0  0  1  0  0  0  0  0  0  0  0  0
  184.4840  176.9940  135.7530 C   0  0  0  0  0  2  0  0  0  0  0  0
  180.2070  172.4080  137.1450 C   0  0  0  0  0  2  0  0  0  0  0  0
  183.7570  176.9510  138.8080 C   0  0  0  0  0  2  0  0  0  0  0  0
  186.0560  174.5220  135.5870 C   0  0  0  0  0  2  0  0  0  0  0  0
  180.3560  176.2560  137.7120 C   0  0  1  0  0  3  0  0  0  0  0  0
  179.8320  174.8760  137.3110 C   0  0  0  0  0  2  0  0  0  0  0  0
  186.4690  177.4760  145.1320 C   0  0  0  0  0  3  0  0  0  0  0  0
  187.7530  177.1360  144.7260 C   0  0  0  0  0  0  0  0  0  0  0  0
  184.1760  178.4360  144.8170 C   0  0  1  0  0  3  0  0  0  0  0  0
  183.4190  178.6770  140.5890 C   0  0  2  0  0  3  0  0  0  0  0  0
  184.9440  178.8140  140.4540 C   0  0  0  0  0  0  0  0  0  0  0  0
  188.6480  176.5120  145.6400 N   0  0  0  0  0  1  0  0  0  0  0  0
  183.6170  178.6040  142.0950 C   0  0  2  0  0  3  0  0  0  0  0  0
  187.3110  178.0740  142.5310 C   0  0  0  0  0  0  0  0  0  0  0  0
  184.1810  178.4640  146.2140 O   0  0  0  0  0  1  0  0  0  0  0  0
  188.1780  177.4520  143.4430 C   0  0  0  0  0  3  0  0  0  0  0  0
  185.9690  178.3270  142.8990 C   0  0  0  0  0  0  0  0  0  0  0  0
  185.5810  177.6390  140.0360 O   0  0  0  0  0  1  0  0  0  0  0  0
  183.5740  179.7560  144.3020 C   0  0  0  0  0  2  0  0  0  0  0  0
  182.8550  179.5960  142.9520 C   0  0  0  0  0  2  0  0  0  0  0  0
  185.0480  179.0770  141.9550 C   0  0  1  0  0  3  0  0  0  0  0  0
  185.3170  179.9170  139.6900 O   0  0  0  0  0  1  0  0  0  0  0  0
  185.5700  178.1090  144.2610 C   0  0  0  0  0  0  0  0  0  0  0  0
  187.7830  178.4620  141.2700 O   0  0  0  0  0  0  0  0  0  0  0  0
  189.0950  178.0120  139.3700 C   0  0  0  0  0  2  0  0  0  0  0  0
  188.9140  177.9020  140.6760 C   0  0  0  0  0  3  0  0  0  0  0  0
  1 21  1  6  0  0  0
  3 18  1  0  0  0  0
  6 22  1  6  0  0  0
  6 29  1  0  0  0  0
  7  8  1  0  0  0  0
  8 16  1  6  0  0  0
  9  7  2  0  0  0  0
 11 15  1  0  0  0  0
 11  7  1  0  0  0  0
 13 11  2  0  0  0  0
 14  5  1  0  0  0  0
 14 13  1  0  0  0  0
 15  1  1  0  0  0  0
 17 22  1  0  0  0  0
 18  6  1  0  0  0  0
 18 12  1  0  0  0  0
 19  2  1  6  0  0  0
 19 10  1  0  0  0  0
 19 17  1  0  0  0  0
 20  5  1  0  0  0  0
 20 19  1  0  0  0  0
 21  8  1  0  0  0  0
 23 14  2  0  0  0  0
 24  4  1  6  0  0  0
 24  3  1  0  0  0  0
 25  1  1  0  0  0  0
 25 24  1  0  0  0  0
 27 26  1  0  0  0  0
 27 31  1  0  0  0  0
 28 34  1  1  0  0  0
 29 30  1  6  0  0  0
 29 32  1  0  0  0  0
 30 40  1  0  0  0  0
 32 39  1  1  0  0  0
 33 36  2  0  0  0  0
 33 35  1  0  0  0  0
 35 27  2  0  0  0  0
 36 42  1  0  0  0  0
 37 30  1  0  0  0  0
 38 28  1  0  0  0  0
 39 38  1  0  0  0  0
 40 32  1  0  0  0  0
 40 36  1  1  0  0  0
 41 30  1  0  0  0  0
 42 28  1  0  0  0  0
 42 26  2  0  0  0  0
 43 33  1  0  0  0  0
 44 45  2  0  0  0  0
 45 43  1  0  0  0  0
M  END
>  <MODEL>
6

>  <REMARK>
 VINA RESULT:      -4.2      3.002      4.608
  Name = 
  3 active torsions:
  status: ('A' for Active; 'I' for Inactive)
    1  A    between atoms: C_9  and  C_12
    2  A    between atoms: C_16  and  O_21
    3  A    between atoms: O_21  and  C_40
                            x       y       z     vdW  Elec       q    Type
                         _______ _______ _______ _____ _____    ______ ____

>  <TORSDO>
F 3

$$$$
=
 OpenBabel11062414183D

 45 49  0  0  1  0  0  0  0  0999 V2000
  182.3090  173.7400  136.9810 C   0  0  2  0  0  3  0  0  0  0  0  0
  187.3290  178.6870  135.5170 C   0  0  0  0  0  1  0  0  0  0  0  0
  182.7600  176.2420  138.4750 C   0  0  0  0  0  2  0  0  0  0  0  0
  182.9600  176.6550  136.1160 O   0  0  0  0  0  1  0  0  0  0  0  0
  185.5150  175.3950  135.2290 N   0  0  0  0  0  2  0  0  0  0  0  0
  184.7910  177.2270  139.1690 C   0  0  1  0  0  3  0  0  0  0  0  0
  183.8140  171.3940  136.3080 C   0  0  0  0  0  0  0  0  0  0  0  0
  182.4470  171.2550  136.9210 C   0  0  2  0  0  3  0  0  0  0  0  0
  184.5250  170.3700  136.1220 O   0  0  0  0  0  0  0  0  0  0  0  0
  187.7690  176.6230  136.5690 O   0  0  0  0  0  1  0  0  0  0  0  0
  184.3350  172.7430  135.9900 C   0  0  0  0  0  0  0  0  0  0  0  0
  182.7350  177.9980  139.8510 O   0  0  0  0  0  1  0  0  0  0  0  0
  185.5620  172.8780  135.4740 C   0  0  0  0  0  3  0  0  0  0  0  0
  186.2030  174.1460  135.0940 C   0  0  0  0  0  0  0  0  0  0  0  0
  183.5150  173.8540  136.2240 O   0  0  0  0  0  0  0  0  0  0  0  0
  181.8300  170.1050  136.4650 F   0  0  0  0  0  0  0  0  0  0  0  0
  185.7520  177.7510  137.0100 O   0  0  0  0  0  0  0  0  0  0  0  0
  183.4020  177.5150  138.7750 N   0  0  0  0  0  0  0  0  0  0  0  0
  186.7260  177.4000  136.0400 C   0  0  1  0  0  0  0  0  0  0  0  0
  186.0770  176.6870  134.8500 C   0  0  0  0  0  2  0  0  0  0  0  0
  181.5680  172.4640  136.6070 C   0  0  0  0  0  2  0  0  0  0  0  0
  185.5810  176.7180  137.9520 C   0  0  0  0  0  2  0  0  0  0  0  0
  187.4310  174.0980  134.5940 C   0  0  0  0  0  2  0  0  0  0  0  0
  182.0630  176.2910  137.1200 C   0  0  1  0  0  3  0  0  0  0  0  0
  181.4020  174.9540  136.7750 C   0  0  0  0  0  2  0  0  0  0  0  0
  187.7380  177.3500  144.7520 C   0  0  0  0  0  3  0  0  0  0  0  0
  188.9790  176.7540  144.5640 C   0  0  0  0  0  0  0  0  0  0  0  0
  185.7100  178.6310  144.0280 C   0  0  1  0  0  3  0  0  0  0  0  0
  185.5150  178.4740  139.7340 C   0  0  2  0  0  3  0  0  0  0  0  0
  187.0450  178.3370  139.7980 C   0  0  0  0  0  0  0  0  0  0  0  0
  189.6320  176.1080  145.6500 N   0  0  0  0  0  1  0  0  0  0  0  0
  185.5170  178.5540  141.2520 C   0  0  2  0  0  3  0  0  0  0  0  0
  188.9770  177.4760  142.2460 C   0  0  0  0  0  0  0  0  0  0  0  0
  185.5550  178.8290  145.4030 O   0  0  0  0  0  1  0  0  0  0  0  0
  189.6030  176.8350  143.3270 C   0  0  0  0  0  3  0  0  0  0  0  0
  187.6680  177.9910  142.3970 C   0  0  0  0  0  0  0  0  0  0  0  0
  187.5050  177.0310  139.5920 O   0  0  0  0  0  1  0  0  0  0  0  0
  185.4210  179.9590  143.3060 C   0  0  0  0  0  2  0  0  0  0  0  0
  184.8510  179.7560  141.8920 C   0  0  0  0  0  2  0  0  0  0  0  0
  187.0170  178.7620  141.2650 C   0  0  1  0  0  3  0  0  0  0  0  0
  187.7000  179.2610  138.9860 O   0  0  0  0  0  1  0  0  0  0  0  0
  187.0780  178.0120  143.7060 C   0  0  0  0  0  0  0  0  0  0  0  0
  189.6570  177.6220  141.0300 O   0  0  0  0  0  0  0  0  0  0  0  0
  191.8300  177.0180  140.3590 C   0  0  0  0  0  2  0  0  0  0  0  0
  190.5650  176.6800  140.5480 C   0  0  0  0  0  3  0  0  0  0  0  0
  1 21  1  6  0  0  0
  3 18  1  0  0  0  0
  6 22  1  6  0  0  0
  6 29  1  0  0  0  0
  7  8  1  0  0  0  0
  8 16  1  6  0  0  0
  9  7  2  0  0  0  0
 11 15  1  0  0  0  0
 11  7  1  0  0  0  0
 13 11  2  0  0  0  0
 14  5  1  0  0  0  0
 14 13  1  0  0  0  0
 15  1  1  0  0  0  0
 17 22  1  0  0  0  0
 18  6  1  0  0  0  0
 18 12  1  0  0  0  0
 19  2  1  6  0  0  0
 19 10  1  0  0  0  0
 19 17  1  0  0  0  0
 20  5  1  0  0  0  0
 20 19  1  0  0  0  0
 21  8  1  0  0  0  0
 23 14  2  0  0  0  0
 24  4  1  6  0  0  0
 24  3  1  0  0  0  0
 25  1  1  0  0  0  0
 25 24  1  0  0  0  0
 27 26  1  0  0  0  0
 27 31  1  0  0  0  0
 28 34  1  1  0  0  0
 29 30  1  1  0  0  0
 29 32  1  0  0  0  0
 30 40  1  0  0  0  0
 32 40  1  0  0  0  0
 32 39  1  6  0  0  0
 33 36  2  0  0  0  0
 33 35  1  0  0  0  0
 35 27  2  0  0  0  0
 36 42  1  0  0  0  0
 37 30  1  0  0  0  0
 38 28  1  0  0  0  0
 39 38  1  0  0  0  0
 40 36  1  1  0  0  0
 41 30  1  0  0  0  0
 42 28  1  0  0  0  0
 42 26  2  0  0  0  0
 43 33  1  0  0  0  0
 44 45  2  0  0  0  0
 45 43  1  0  0  0  0
M  END
>  <MODEL>
7

>  <REMARK>
 VINA RESULT:      -3.5      3.074      4.768
  Name = 
  3 active torsions:
  status: ('A' for Active; 'I' for Inactive)
    1  A    between atoms: C_9  and  C_12
    2  A    between atoms: C_16  and  O_21
    3  A    between atoms: O_21  and  C_40
                            x       y       z     vdW  Elec       q    Type
                         _______ _______ _______ _____ _____    ______ ____

>  <TORSDO>
F 3

$$$$
