=
 OpenBabel11062415233D

 48 52  0  0  1  0  0  0  0  0999 V2000
  180.4770  178.8300  139.1230 O   0  0  0  0  0  1  0  0  0  0  0  0
  185.5130  178.4090  138.8740 C   0  0  0  0  0  2  0  0  0  0  0  0
  182.9540  180.3590  138.8110 C   0  0  0  0  0  1  0  0  0  0  0  0
  182.2840  175.9500  139.9320 C   0  0  0  0  0  1  0  0  0  0  0  0
  186.6750  177.7980  138.0440 C   0  0  2  0  0  3  0  0  0  0  0  0
  179.4770  176.0900  138.8850 O   0  0  0  0  0  1  0  0  0  0  0  0
  184.7450  177.0220  136.2460 C   0  0  0  0  0  2  0  0  0  0  0  0
  181.7410  178.2060  138.9070 C   0  0  1  0  0  3  0  0  0  0  0  0
  183.3930  174.1230  136.2470 C   0  0  0  0  0  1  0  0  0  0  0  0
  184.1970  178.2840  138.0680 C   0  0  2  0  0  3  0  0  0  0  0  0
  181.7830  176.7120  138.6100 C   0  0  1  0  0  0  0  0  0  0  0  0
  182.8130  179.0650  138.1700 C   0  0  2  0  0  3  0  0  0  0  0  0
  186.2250  177.2820  136.5430 C   0  0  0  0  0  2  0  0  0  0  0  0
  184.0290  176.9340  137.5050 N   0  0  1  0  0  0  0  0  0  0  0  0
  180.8700  174.9570  137.2920 C   0  0  1  0  0  3  0  0  0  0  0  0
  182.6650  176.6310  137.2530 C   0  0  1  0  0  3  0  0  0  0  0  0
  182.3840  175.1610  136.9130 C   0  0  2  0  0  3  0  0  0  0  0  0
  180.4700  176.2940  137.9550 C   0  0  1  0  0  3  0  0  0  0  0  0
  180.0760  174.7660  136.1040 N   0  0  0  0  0  0  0  0  0  0  0  0
  179.6200  173.3820  135.9500 C   0  0  0  0  0  3  0  0  0  0  0  0
  180.2760  172.6540  134.7420 C   0  0  0  0  0  1  0  0  0  0  0  0
  179.8370  172.6130  137.2540 C   0  0  0  0  0  1  0  0  0  0  0  0
  180.2680  176.7060  134.6010 O   0  0  0  0  0  1  0  0  0  0  0  0
  180.5570  175.3520  134.7750 C   0  0  0  0  0  2  0  0  0  0  0  0
  187.7470  177.1680  138.7160 O   0  0  0  0  0  0  0  0  0  0  0  0
  189.4020  176.6950  136.7240 C   0  0  0  0  0  1  0  0  0  0  0  0
  189.1120  178.9430  137.9960 C   0  0  0  0  0  1  0  0  0  0  0  0
  189.0830  177.4480  138.1520 C   0  0  0  0  0  0  0  0  0  0  0  0
  190.2230  176.8870  139.1460 C   0  0  1  0  0  3  0  0  0  0  0  0
  192.7740  176.9670  138.9320 C   0  0  0  0  0  2  0  0  0  0  0  0
  191.5530  176.6320  138.5770 N   0  0  0  0  0  0  0  0  0  0  0  0
  190.1580  177.4810  140.5540 C   0  0  0  0  0  2  0  0  0  0  0  0
  190.0930  176.3450  141.3010 C   0  0  0  0  0  2  0  0  0  0  0  0
  189.1220  177.3230  147.4860 C   0  0  2  0  0  3  0  0  0  0  0  0
  190.7060  179.1490  143.9720 C   0  0  1  0  0  3  0  0  0  0  0  0
  190.9120  174.9670  143.4810 C   0  0  0  0  0  2  0  0  0  0  0  0
  188.1460  178.0610  148.4110 C   0  0  0  0  0  1  0  0  0  0  0  0
  190.5360  176.7710  145.8770 C   0  0  2  0  0  3  0  0  0  0  0  0
  190.7620  176.2540  143.5880 C   0  0  0  0  0  0  0  0  0  0  0  0
  189.8790  178.6190  142.7750 C   0  0  0  0  0  2  0  0  0  0  0  0
  190.1880  176.7500  147.9520 C   0  0  0  0  0  2  0  0  0  0  0  0
  191.3880  176.9210  144.7220 N   0  0  0  0  0  0  0  0  0  0  0  0
  191.8810  178.2350  144.4110 C   0  0  0  0  0  2  0  0  0  0  0  0
  187.9520  177.4180  145.2020 C   0  0  0  0  0  1  0  0  0  0  0  0
  189.2750  177.6540  146.0410 C   0  0  1  0  0  3  0  0  0  0  0  0
  191.1130  176.3620  146.9490 N   0  0  0  0  0  2  0  0  0  0  0  0
  189.8370  177.0570  142.6280 C   0  0  1  0  0  3  0  0  0  0  0  0
  191.1190  180.4460  143.7830 O   0  0  0  0  0  1  0  0  0  0  0  0
  5 25  1  1  0  0  0
  5  2  1  0  0  0  0
  7 13  1  0  0  0  0
  8  1  1  6  0  0  0
  9 17  1  0  0  0  0
 10 12  1  0  0  0  0
 10  2  1  1  0  0  0
 11  8  1  0  0  0  0
 11  4  1  1  0  0  0
 12  3  1  1  0  0  0
 12  8  1  0  0  0  0
 13  5  1  0  0  0  0
 14  7  1  6  0  0  0
 14 10  1  0  0  0  0
 15 19  1  6  0  0  0
 15 18  1  0  0  0  0
 16 14  1  0  0  0  0
 16 11  1  0  0  0  0
 17 16  1  0  0  0  0
 17 15  1  0  0  0  0
 18 11  1  0  0  0  0
 18  6  1  0  0  0  0
 20 19  1  0  0  0  0
 20 22  1  0  0  0  0
 21 20  1  0  0  0  0
 23 24  1  0  0  0  0
 24 19  1  0  0  0  0
 26 28  1  0  0  0  0
 27 28  1  0  0  0  0
 28 25  1  0  0  0  0
 28 29  1  0  0  0  0
 29 32  1  0  0  0  0
 31 30  2  0  0  0  0
 31 29  1  0  0  0  0
 32 33  1  0  0  0  0
 33 47  1  0  0  0  0
 34 41  1  0  0  0  0
 34 37  1  0  0  0  0
 35 43  1  0  0  0  0
 36 39  2  0  0  0  0
 38 45  1  0  0  0  0
 38 46  1  0  0  0  0
 39 42  1  0  0  0  0
 40 35  1  0  0  0  0
 42 38  1  0  0  0  0
 43 42  1  0  0  0  0
 44 45  1  0  0  0  0
 45 34  1  0  0  0  0
 46 41  1  0  0  0  0
 47 40  1  0  0  0  0
 47 39  1  0  0  0  0
 48 35  1  0  0  0  0
M  END
>  <MODEL>
1

>  <REMARK>
 VINA RESULT:      -7.0      0.000      0.000
  Name = 
  10 active torsions:
  status: ('A' for Active; 'I' for Inactive)
    1  A    between atoms: N_2  and  C_22
    2  A    between atoms: N_2  and  C_37
    3  A    between atoms: N_2  and  C_39
    4  A    between atoms: C_10  and  O_25
    5  A    between atoms: N_11  and  C_46
    6  A    between atoms: C_13  and  C_15
    7  A    between atoms: C_13  and  C_47
    8  A    between atoms: C_15  and  C_46
    9  A    between atoms: O_25  and  C_28
   10  A    between atoms: C_28  and  C_46
                            x       y       z     vdW  Elec       q    Type
                         _______ _______ _______ _____ _____    ______ ____

>  <TORSDO>
F 10

$$$$
=
 OpenBabel11062415233D

 48 52  0  0  1  0  0  0  0  0999 V2000
  192.4490  177.0910  143.6310 O   0  0  0  0  0  1  0  0  0  0  0  0
  189.9730  176.6000  139.2460 C   0  0  0  0  0  2  0  0  0  0  0  0
  192.5560  177.7520  140.7810 C   0  0  0  0  0  1  0  0  0  0  0  0
  189.7360  174.9550  143.0980 C   0  0  0  0  0  1  0  0  0  0  0  0
  188.6560  176.9640  138.5100 C   0  0  2  0  0  3  0  0  0  0  0  0
  190.5330  176.2570  145.6800 O   0  0  0  0  0  1  0  0  0  0  0  0
  188.0380  178.4620  140.7300 C   0  0  0  0  0  2  0  0  0  0  0  0
  191.3430  176.8870  142.7550 C   0  0  1  0  0  3  0  0  0  0  0  0
  186.2360  177.3830  143.1430 C   0  0  0  0  0  1  0  0  0  0  0  0
  190.0590  177.4130  140.5610 C   0  0  2  0  0  3  0  0  0  0  0  0
  189.9900  176.5200  143.3520 C   0  0  1  0  0  0  0  0  0  0  0  0
  191.2920  177.7990  141.4920 C   0  0  2  0  0  3  0  0  0  0  0  0
  187.7780  178.1460  139.2540 C   0  0  0  0  0  2  0  0  0  0  0  0
  188.7930  177.3680  141.3120 N   0  0  1  0  0  0  0  0  0  0  0  0
  188.3740  177.0640  145.0090 C   0  0  1  0  0  3  0  0  0  0  0  0
  188.9890  177.6130  142.6960 C   0  0  1  0  0  3  0  0  0  0  0  0
  187.7670  177.3300  143.5810 C   0  0  2  0  0  3  0  0  0  0  0  0
  189.9010  177.0740  144.7710 C   0  0  1  0  0  3  0  0  0  0  0  0
  188.0320  178.1380  145.9070 N   0  0  0  0  0  0  0  0  0  0  0  0
  188.5520  177.9250  147.2610 C   0  0  0  0  0  3  0  0  0  0  0  0
  188.0080  178.9510  148.2930 C   0  0  0  0  0  1  0  0  0  0  0  0
  188.2810  176.4860  147.7030 C   0  0  0  0  0  1  0  0  0  0  0  0
  185.6450  177.7490  146.3680 O   0  0  0  0  0  1  0  0  0  0  0  0
  186.5980  178.6710  145.9330 C   0  0  0  0  0  2  0  0  0  0  0  0
  188.0010  175.9790  137.7360 O   0  0  0  0  0  0  0  0  0  0  0  0
  187.7530  178.0190  136.0900 C   0  0  0  0  0  1  0  0  0  0  0  0
  188.5990  175.6360  135.4870 C   0  0  0  0  0  1  0  0  0  0  0  0
  187.6480  176.4000  136.3650 C   0  0  0  0  0  0  0  0  0  0  0  0
  186.0970  176.0610  136.0730 C   0  0  1  0  0  3  0  0  0  0  0  0
  185.5500  173.6490  135.4130 C   0  0  0  0  0  2  0  0  0  0  0  0
  185.6650  174.6670  136.2360 N   0  0  0  0  0  0  0  0  0  0  0  0
  185.1320  177.1580  136.5270 C   0  0  0  0  0  2  0  0  0  0  0  0
  184.1700  176.4090  137.1310 C   0  0  0  0  0  2  0  0  0  0  0  0
  179.8690  180.0060  140.0850 C   0  0  2  0  0  3  0  0  0  0  0  0
  184.0310  179.0760  140.0020 C   0  0  1  0  0  3  0  0  0  0  0  0
  181.9180  175.7590  138.4830 C   0  0  0  0  0  2  0  0  0  0  0  0
  179.3640  181.4540  140.0870 C   0  0  0  0  0  1  0  0  0  0  0  0
  181.1160  178.1790  140.1070 C   0  0  2  0  0  3  0  0  0  0  0  0
  182.5780  176.8140  138.8600 C   0  0  0  0  0  0  0  0  0  0  0  0
  184.3870  178.7260  138.5350 C   0  0  0  0  0  2  0  0  0  0  0  0
  179.4550  179.1470  140.9630 C   0  0  0  0  0  2  0  0  0  0  0  0
  182.2990  177.3560  140.1830 N   0  0  0  0  0  0  0  0  0  0  0  0
  183.4600  177.8980  140.8350 C   0  0  0  0  0  2  0  0  0  0  0  0
  181.3270  179.8970  137.9730 C   0  0  0  0  0  1  0  0  0  0  0  0
  181.1930  179.6110  139.5260 C   0  0  1  0  0  3  0  0  0  0  0  0
  180.2180  177.9510  140.9970 N   0  0  0  0  0  2  0  0  0  0  0  0
  183.5390  177.5710  137.8970 C   0  0  1  0  0  3  0  0  0  0  0  0
  185.0680  179.6990  140.6520 O   0  0  0  0  0  1  0  0  0  0  0  0
  5 25  1  1  0  0  0
  5  2  1  0  0  0  0
  5 13  1  0  0  0  0
  8 11  1  0  0  0  0
  8  1  1  1  0  0  0
  9 17  1  0  0  0  0
 10  2  1  1  0  0  0
 10 14  1  0  0  0  0
 10 12  1  0  0  0  0
 11  4  1  6  0  0  0
 11 18  1  0  0  0  0
 12  3  1  6  0  0  0
 12  8  1  0  0  0  0
 13  7  1  0  0  0  0
 14  7  1  6  0  0  0
 14 16  1  0  0  0  0
 15 19  1  1  0  0  0
 16 11  1  0  0  0  0
 16 17  1  0  0  0  0
 17 15  1  0  0  0  0
 18 15  1  0  0  0  0
 18  6  1  0  0  0  0
 19 24  1  0  0  0  0
 19 20  1  0  0  0  0
 20 22  1  0  0  0  0
 20 21  1  0  0  0  0
 24 23  1  0  0  0  0
 26 28  1  0  0  0  0
 27 28  1  0  0  0  0
 28 25  1  0  0  0  0
 29 31  1  0  0  0  0
 29 28  1  0  0  0  0
 29 32  1  0  0  0  0
 30 31  2  0  0  0  0
 32 33  1  0  0  0  0
 33 47  1  0  0  0  0
 34 37  1  0  0  0  0
 34 41  1  0  0  0  0
 35 48  1  0  0  0  0
 35 43  1  0  0  0  0
 36 39  2  0  0  0  0
 38 42  1  0  0  0  0
 38 46  1  0  0  0  0
 39 42  1  0  0  0  0
 40 35  1  0  0  0  0
 41 46  1  0  0  0  0
 42 43  1  0  0  0  0
 44 45  1  0  0  0  0
 45 34  1  0  0  0  0
 45 38  1  0  0  0  0
 47 40  1  0  0  0  0
 47 39  1  0  0  0  0
M  END
>  <MODEL>
2

>  <REMARK>
 VINA RESULT:      -6.6      2.829      9.651
  Name = 
  10 active torsions:
  status: ('A' for Active; 'I' for Inactive)
    1  A    between atoms: N_2  and  C_22
    2  A    between atoms: N_2  and  C_37
    3  A    between atoms: N_2  and  C_39
    4  A    between atoms: C_10  and  O_25
    5  A    between atoms: N_11  and  C_46
    6  A    between atoms: C_13  and  C_15
    7  A    between atoms: C_13  and  C_47
    8  A    between atoms: C_15  and  C_46
    9  A    between atoms: O_25  and  C_28
   10  A    between atoms: C_28  and  C_46
                            x       y       z     vdW  Elec       q    Type
                         _______ _______ _______ _____ _____    ______ ____

>  <TORSDO>
F 10

$$$$
=
 OpenBabel11062415233D

 48 52  0  0  1  0  0  0  0  0999 V2000
  192.0540  177.2120  143.7030 O   0  0  0  0  0  1  0  0  0  0  0  0
  189.4340  176.8170  139.3930 C   0  0  0  0  0  2  0  0  0  0  0  0
  192.0720  177.9250  140.8630 C   0  0  0  0  0  1  0  0  0  0  0  0
  189.3100  175.1020  143.2190 C   0  0  0  0  0  1  0  0  0  0  0  0
  188.0950  177.2030  138.7060 C   0  0  2  0  0  3  0  0  0  0  0  0
  190.1990  176.3510  145.7970 O   0  0  0  0  0  1  0  0  0  0  0  0
  187.5600  178.6630  140.9730 C   0  0  0  0  0  2  0  0  0  0  0  0
  190.9180  177.0310  142.8600 C   0  0  1  0  0  3  0  0  0  0  0  0
  185.8300  177.5500  143.4230 C   0  0  0  0  0  1  0  0  0  0  0  0
  189.5670  177.6050  140.7180 C   0  0  2  0  0  3  0  0  0  0  0  0
  189.5830  176.6610  143.4940 C   0  0  1  0  0  0  0  0  0  0  0  0
  190.8320  177.9660  141.6160 C   0  0  2  0  0  3  0  0  0  0  0  0
  187.2500  178.3770  139.5000 C   0  0  0  0  0  2  0  0  0  0  0  0
  188.3260  177.5540  141.5100 N   0  0  1  0  0  0  0  0  0  0  0  0
  188.0250  177.1840  145.2110 C   0  0  1  0  0  3  0  0  0  0  0  0
  188.5680  177.7720  142.8910 C   0  0  1  0  0  3  0  0  0  0  0  0
  187.3740  177.4800  143.8100 C   0  0  2  0  0  3  0  0  0  0  0  0
  189.5430  177.1890  144.9240 C   0  0  1  0  0  3  0  0  0  0  0  0
  187.7200  178.2430  146.1400 N   0  0  0  0  0  0  0  0  0  0  0  0
  187.8420  177.8170  147.5370 C   0  0  0  0  0  3  0  0  0  0  0  0
  187.9480  176.2750  147.6980 C   0  0  0  0  0  1  0  0  0  0  0  0
  189.0190  178.5330  148.2000 C   0  0  0  0  0  1  0  0  0  0  0  0
  185.6440  179.2170  147.0380 O   0  0  0  0  0  1  0  0  0  0  0  0
  186.4720  179.1010  145.9200 C   0  0  0  0  0  2  0  0  0  0  0  0
  187.4100  176.2360  137.9360 O   0  0  0  0  0  0  0  0  0  0  0  0
  187.5210  178.1930  136.1770 C   0  0  0  0  0  1  0  0  0  0  0  0
  187.9410  175.6690  135.7160 C   0  0  0  0  0  1  0  0  0  0  0  0
  187.1360  176.6350  136.5400 C   0  0  0  0  0  0  0  0  0  0  0  0
  185.5510  176.5540  136.2510 C   0  0  1  0  0  3  0  0  0  0  0  0
  184.4390  174.5730  135.0690 C   0  0  0  0  0  2  0  0  0  0  0  0
  185.1060  175.7040  135.1390 N   0  0  0  0  0  0  0  0  0  0  0  0
  184.6930  176.5670  137.5180 C   0  0  0  0  0  2  0  0  0  0  0  0
  183.7190  177.4440  137.1500 C   0  0  0  0  0  2  0  0  0  0  0  0
  180.4800  179.2320  142.2960 C   0  0  2  0  0  3  0  0  0  0  0  0
  181.0340  175.9730  139.6000 C   0  0  1  0  0  3  0  0  0  0  0  0
  182.0510  179.5310  137.5790 C   0  0  0  0  0  2  0  0  0  0  0  0
  180.5070  179.0370  143.8170 C   0  0  0  0  0  1  0  0  0  0  0  0
  180.4980  178.9350  140.1030 C   0  0  2  0  0  3  0  0  0  0  0  0
  181.8310  178.4250  138.2280 C   0  0  0  0  0  0  0  0  0  0  0  0
  182.5080  176.0240  139.1260 C   0  0  0  0  0  2  0  0  0  0  0  0
  179.5020  179.8530  141.7140 C   0  0  0  0  0  2  0  0  0  0  0  0
  180.5210  178.2420  138.8380 N   0  0  0  0  0  0  0  0  0  0  0  0
  180.0600  176.8810  138.8030 C   0  0  0  0  0  2  0  0  0  0  0  0
  182.7490  178.2930  141.5430 C   0  0  0  0  0  1  0  0  0  0  0  0
  181.1770  178.3150  141.3490 C   0  0  1  0  0  3  0  0  0  0  0  0
  179.4880  179.7030  140.3030 N   0  0  0  0  0  2  0  0  0  0  0  0
  182.9560  177.3780  138.4730 C   0  0  1  0  0  3  0  0  0  0  0  0
  180.5630  174.6860  139.6930 O   0  0  0  0  0  1  0  0  0  0  0  0
  5 25  1  1  0  0  0
  5  2  1  0  0  0  0
  5 13  1  0  0  0  0
  8 11  1  0  0  0  0
  8  1  1  1  0  0  0
  9 17  1  0  0  0  0
 10  2  1  1  0  0  0
 10 14  1  0  0  0  0
 10 12  1  0  0  0  0
 11  4  1  6  0  0  0
 11 18  1  0  0  0  0
 12  3  1  6  0  0  0
 12  8  1  0  0  0  0
 13  7  1  0  0  0  0
 14  7  1  6  0  0  0
 14 16  1  0  0  0  0
 15 19  1  1  0  0  0
 16 11  1  0  0  0  0
 16 17  1  0  0  0  0
 17 15  1  0  0  0  0
 18 15  1  0  0  0  0
 18  6  1  0  0  0  0
 19 20  1  0  0  0  0
 20 21  1  0  0  0  0
 20 22  1  0  0  0  0
 24 19  1  0  0  0  0
 24 23  1  0  0  0  0
 26 28  1  0  0  0  0
 27 28  1  0  0  0  0
 28 25  1  0  0  0  0
 29 28  1  0  0  0  0
 29 32  1  0  0  0  0
 30 31  2  0  0  0  0
 31 29  1  0  0  0  0
 33 32  1  0  0  0  0
 33 47  1  0  0  0  0
 34 37  1  0  0  0  0
 35 48  1  0  0  0  0
 36 39  2  0  0  0  0
 38 46  1  0  0  0  0
 38 45  1  0  0  0  0
 39 47  1  0  0  0  0
 39 42  1  0  0  0  0
 40 35  1  0  0  0  0
 41 34  1  0  0  0  0
 42 38  1  0  0  0  0
 43 42  1  0  0  0  0
 43 35  1  0  0  0  0
 45 44  1  0  0  0  0
 45 34  1  0  0  0  0
 46 41  1  0  0  0  0
 47 40  1  0  0  0  0
M  END
>  <MODEL>
3

>  <REMARK>
 VINA RESULT:      -6.2      2.583      9.880
  Name = 
  10 active torsions:
  status: ('A' for Active; 'I' for Inactive)
    1  A    between atoms: N_2  and  C_22
    2  A    between atoms: N_2  and  C_37
    3  A    between atoms: N_2  and  C_39
    4  A    between atoms: C_10  and  O_25
    5  A    between atoms: N_11  and  C_46
    6  A    between atoms: C_13  and  C_15
    7  A    between atoms: C_13  and  C_47
    8  A    between atoms: C_15  and  C_46
    9  A    between atoms: O_25  and  C_28
   10  A    between atoms: C_28  and  C_46
                            x       y       z     vdW  Elec       q    Type
                         _______ _______ _______ _____ _____    ______ ____

>  <TORSDO>
F 10

$$$$
=
 OpenBabel11062415233D

 48 52  0  0  1  0  0  0  0  0999 V2000
  190.9840  177.3910  144.8060 O   0  0  0  0  0  1  0  0  0  0  0  0
  190.1160  176.6360  139.8790 C   0  0  0  0  0  2  0  0  0  0  0  0
  192.0840  177.8270  142.1290 C   0  0  0  0  0  1  0  0  0  0  0  0
  188.5000  175.3010  143.5130 C   0  0  0  0  0  1  0  0  0  0  0  0
  189.1470  176.9810  138.7160 C   0  0  2  0  0  3  0  0  0  0  0  0
  188.4450  176.7740  146.1250 O   0  0  0  0  0  1  0  0  0  0  0  0
  187.8960  178.6640  140.4940 C   0  0  0  0  0  2  0  0  0  0  0  0
  190.2300  177.1530  143.6200 C   0  0  1  0  0  3  0  0  0  0  0  0
  185.3280  177.8270  142.2090 C   0  0  0  0  0  1  0  0  0  0  0  0
  189.7950  177.5450  141.0900 C   0  0  2  0  0  3  0  0  0  0  0  0
  188.7370  176.8730  143.7410 C   0  0  1  0  0  0  0  0  0  0  0  0
  190.6580  177.9650  142.3610 C   0  0  2  0  0  3  0  0  0  0  0  0
  188.1350  178.2430  139.0400 C   0  0  0  0  0  2  0  0  0  0  0  0
  188.3490  177.5960  141.3660 N   0  0  1  0  0  0  0  0  0  0  0  0
  186.6870  177.5910  144.7080 C   0  0  1  0  0  3  0  0  0  0  0  0
  188.0780  177.9410  142.7150 C   0  0  1  0  0  3  0  0  0  0  0  0
  186.6150  177.7630  143.1450 C   0  0  2  0  0  3  0  0  0  0  0  0
  188.2030  177.5370  145.0050 C   0  0  1  0  0  3  0  0  0  0  0  0
  186.1200  178.7400  145.3670 N   0  0  0  0  0  0  0  0  0  0  0  0
  186.1450  178.6190  146.8270 C   0  0  0  0  0  3  0  0  0  0  0  0
  186.3230  179.9840  147.5490 C   0  0  0  0  0  1  0  0  0  0  0  0
  184.8930  177.8870  147.3110 C   0  0  0  0  0  1  0  0  0  0  0  0
  184.9030  180.5020  144.1510 O   0  0  0  0  0  1  0  0  0  0  0  0
  184.7900  179.3120  144.8720 C   0  0  0  0  0  2  0  0  0  0  0  0
  188.7410  175.9590  137.8280 O   0  0  0  0  0  0  0  0  0  0  0  0
  188.9090  177.9680  136.1350 C   0  0  0  0  0  1  0  0  0  0  0  0
  189.6830  175.5220  135.7170 C   0  0  0  0  0  1  0  0  0  0  0  0
  188.6510  176.3670  136.4120 C   0  0  0  0  0  0  0  0  0  0  0  0
  187.1520  176.1200  135.8670 C   0  0  1  0  0  3  0  0  0  0  0  0
  186.4830  174.0020  134.5940 C   0  0  0  0  0  2  0  0  0  0  0  0
  186.9860  175.2090  134.7280 N   0  0  0  0  0  0  0  0  0  0  0  0
  186.0970  176.0670  136.9740 C   0  0  0  0  0  2  0  0  0  0  0  0
  185.6470  177.3520  136.9500 C   0  0  0  0  0  2  0  0  0  0  0  0
  180.2900  177.0620  140.3230 C   0  0  2  0  0  3  0  0  0  0  0  0
  181.7910  177.0130  136.3300 C   0  0  1  0  0  3  0  0  0  0  0  0
  184.5700  179.0630  138.7490 C   0  0  0  0  0  2  0  0  0  0  0  0
  179.2810  176.0200  140.8210 C   0  0  0  0  0  1  0  0  0  0  0  0
  181.6700  178.2860  139.1020 C   0  0  2  0  0  3  0  0  0  0  0  0
  183.7630  178.3490  138.0200 C   0  0  0  0  0  0  0  0  0  0  0  0
  183.1880  176.3450  136.3810 C   0  0  0  0  0  2  0  0  0  0  0  0
  180.0790  178.3320  140.4780 C   0  0  0  0  0  2  0  0  0  0  0  0
  182.3710  178.7670  137.9350 N   0  0  0  0  0  0  0  0  0  0  0  0
  181.7800  178.5320  136.6460 C   0  0  0  0  0  2  0  0  0  0  0  0
  182.2500  175.6280  139.4880 C   0  0  0  0  0  1  0  0  0  0  0  0
  181.2300  176.8050  139.1960 C   0  0  1  0  0  3  0  0  0  0  0  0
  180.9570  179.1540  139.7240 N   0  0  0  0  0  2  0  0  0  0  0  0
  184.2150  177.0130  137.3610 C   0  0  1  0  0  3  0  0  0  0  0  0
  181.1250  176.7350  135.1610 O   0  0  0  0  0  1  0  0  0  0  0  0
  5 25  1  1  0  0  0
  5 13  1  0  0  0  0
  5  2  1  0  0  0  0
  8 11  1  0  0  0  0
  8  1  1  1  0  0  0
  9 17  1  0  0  0  0
 10  2  1  1  0  0  0
 10 14  1  0  0  0  0
 10 12  1  0  0  0  0
 11  4  1  6  0  0  0
 11 18  1  0  0  0  0
 12  3  1  6  0  0  0
 12  8  1  0  0  0  0
 13  7  1  0  0  0  0
 14  7  1  6  0  0  0
 14 16  1  0  0  0  0
 15 18  1  0  0  0  0
 15 19  1  1  0  0  0
 16 17  1  0  0  0  0
 16 11  1  0  0  0  0
 17 15  1  0  0  0  0
 18  6  1  0  0  0  0
 19 20  1  0  0  0  0
 20 22  1  0  0  0  0
 20 21  1  0  0  0  0
 23 24  1  0  0  0  0
 24 19  1  0  0  0  0
 26 28  1  0  0  0  0
 27 28  1  0  0  0  0
 28 25  1  0  0  0  0
 29 28  1  0  0  0  0
 29 32  1  0  0  0  0
 30 31  2  0  0  0  0
 31 29  1  0  0  0  0
 33 32  1  0  0  0  0
 33 47  1  0  0  0  0
 34 41  1  0  0  0  0
 34 37  1  0  0  0  0
 35 40  1  0  0  0  0
 35 43  1  0  0  0  0
 38 45  1  0  0  0  0
 38 46  1  0  0  0  0
 39 36  2  0  0  0  0
 40 47  1  0  0  0  0
 42 39  1  0  0  0  0
 42 38  1  0  0  0  0
 43 42  1  0  0  0  0
 45 44  1  0  0  0  0
 45 34  1  0  0  0  0
 46 41  1  0  0  0  0
 47 39  1  0  0  0  0
 48 35  1  0  0  0  0
M  END
>  <MODEL>
4

>  <REMARK>
 VINA RESULT:      -6.2      2.584      9.437
  Name = 
  10 active torsions:
  status: ('A' for Active; 'I' for Inactive)
    1  A    between atoms: N_2  and  C_22
    2  A    between atoms: N_2  and  C_37
    3  A    between atoms: N_2  and  C_39
    4  A    between atoms: C_10  and  O_25
    5  A    between atoms: N_11  and  C_46
    6  A    between atoms: C_13  and  C_15
    7  A    between atoms: C_13  and  C_47
    8  A    between atoms: C_15  and  C_46
    9  A    between atoms: O_25  and  C_28
   10  A    between atoms: C_28  and  C_46
                            x       y       z     vdW  Elec       q    Type
                         _______ _______ _______ _____ _____    ______ ____

>  <TORSDO>
F 10

$$$$
=
 OpenBabel11062415233D

 48 52  0  0  1  0  0  0  0  0999 V2000
  192.0560  177.2360  144.1200 O   0  0  0  0  0  1  0  0  0  0  0  0
  189.9470  176.7370  139.5480 C   0  0  0  0  0  2  0  0  0  0  0  0
  192.3980  177.8870  141.2860 C   0  0  0  0  0  1  0  0  0  0  0  0
  189.3890  175.1060  143.3720 C   0  0  0  0  0  1  0  0  0  0  0  0
  188.6960  177.1020  138.7040 C   0  0  2  0  0  3  0  0  0  0  0  0
  189.9750  176.4150  146.0060 O   0  0  0  0  0  1  0  0  0  0  0  0
  187.9020  178.6100  140.8620 C   0  0  0  0  0  2  0  0  0  0  0  0
  191.0250  177.0330  143.1570 C   0  0  1  0  0  3  0  0  0  0  0  0
  185.9050  177.5440  143.1220 C   0  0  0  0  0  1  0  0  0  0  0  0
  189.9270  177.5540  140.8620 C   0  0  2  0  0  3  0  0  0  0  0  0
  189.6260  176.6710  143.6420 C   0  0  1  0  0  0  0  0  0  0  0  0
  191.0800  177.9400  141.8900 C   0  0  2  0  0  3  0  0  0  0  0  0
  187.7640  178.2900  139.3700 C   0  0  0  0  0  2  0  0  0  0  0  0
  188.6040  177.5160  141.5070 N   0  0  1  0  0  0  0  0  0  0  0  0
  187.8810  177.2260  145.1580 C   0  0  1  0  0  3  0  0  0  0  0  0
  188.6860  177.7650  142.9020 C   0  0  1  0  0  3  0  0  0  0  0  0
  187.3940  177.4880  143.6840 C   0  0  2  0  0  3  0  0  0  0  0  0
  189.4220  177.2300  145.0460 C   0  0  1  0  0  3  0  0  0  0  0  0
  187.4700  178.3040  146.0220 N   0  0  0  0  0  0  0  0  0  0  0  0
  187.5100  177.9340  147.4390 C   0  0  0  0  0  3  0  0  0  0  0  0
  187.5830  176.3980  147.6670 C   0  0  0  0  0  1  0  0  0  0  0  0
  188.6620  178.6600  148.1350 C   0  0  0  0  0  1  0  0  0  0  0  0
  185.2110  179.0490  146.6600 O   0  0  0  0  0  1  0  0  0  0  0  0
  186.2080  179.1000  145.6840 C   0  0  0  0  0  2  0  0  0  0  0  0
  188.1040  176.1160  137.8830 O   0  0  0  0  0  0  0  0  0  0  0  0
  187.2850  175.9930  135.3830 C   0  0  0  0  0  1  0  0  0  0  0  0
  189.1860  177.5000  136.3180 C   0  0  0  0  0  1  0  0  0  0  0  0
  188.5140  176.1630  136.4640 C   0  0  0  0  0  0  0  0  0  0  0  0
  189.4880  174.9190  136.1370 C   0  0  1  0  0  3  0  0  0  0  0  0
  189.3240  172.7850  134.7310 C   0  0  0  0  0  2  0  0  0  0  0  0
  189.1290  174.0560  135.0040 N   0  0  0  0  0  0  0  0  0  0  0  0
  190.9720  175.2280  136.3490 C   0  0  0  0  0  2  0  0  0  0  0  0
  191.3140  174.2260  137.2040 C   0  0  0  0  0  2  0  0  0  0  0  0
  197.6080  173.4870  137.1550 C   0  0  2  0  0  3  0  0  0  0  0  0
  194.5030  176.1980  136.0590 C   0  0  1  0  0  3  0  0  0  0  0  0
  192.8820  172.3060  136.1180 C   0  0  0  0  0  2  0  0  0  0  0  0
  198.8420  173.9450  137.9420 C   0  0  0  0  0  1  0  0  0  0  0  0
  195.7020  173.3920  136.0360 C   0  0  2  0  0  3  0  0  0  0  0  0
  193.3540  173.5160  136.1920 C   0  0  0  0  0  0  0  0  0  0  0  0
  193.3580  176.0130  137.0850 C   0  0  0  0  0  2  0  0  0  0  0  0
  197.7240  172.8070  136.0570 C   0  0  0  0  0  2  0  0  0  0  0  0
  194.5070  173.8500  135.3680 N   0  0  0  0  0  0  0  0  0  0  0  0
  194.4840  175.1980  134.8710 C   0  0  0  0  0  2  0  0  0  0  0  0
  195.6540  174.1980  138.6620 C   0  0  0  0  0  1  0  0  0  0  0  0
  196.2990  174.1970  137.2150 C   0  0  1  0  0  3  0  0  0  0  0  0
  196.5170  172.7060  135.3170 N   0  0  0  0  0  2  0  0  0  0  0  0
  192.8080  174.5500  137.2190 C   0  0  1  0  0  3  0  0  0  0  0  0
  194.6050  177.4970  135.6230 O   0  0  0  0  0  1  0  0  0  0  0  0
  5 25  1  1  0  0  0
  5 13  1  0  0  0  0
  5  2  1  0  0  0  0
  8 11  1  0  0  0  0
  8  1  1  1  0  0  0
  9 17  1  0  0  0  0
 10  2  1  1  0  0  0
 10 14  1  0  0  0  0
 10 12  1  0  0  0  0
 11  4  1  6  0  0  0
 11 18  1  0  0  0  0
 12  3  1  6  0  0  0
 12  8  1  0  0  0  0
 13  7  1  0  0  0  0
 14  7  1  6  0  0  0
 14 16  1  0  0  0  0
 15 19  1  1  0  0  0
 16 11  1  0  0  0  0
 16 17  1  0  0  0  0
 17 15  1  0  0  0  0
 18 15  1  0  0  0  0
 18  6  1  0  0  0  0
 19 20  1  0  0  0  0
 20 21  1  0  0  0  0
 20 22  1  0  0  0  0
 24 19  1  0  0  0  0
 24 23  1  0  0  0  0
 26 28  1  0  0  0  0
 27 28  1  0  0  0  0
 28 25  1  0  0  0  0
 29 32  1  0  0  0  0
 29 28  1  0  0  0  0
 30 31  2  0  0  0  0
 31 29  1  0  0  0  0
 32 33  1  0  0  0  0
 33 47  1  0  0  0  0
 34 45  1  0  0  0  0
 34 37  1  0  0  0  0
 35 40  1  0  0  0  0
 36 39  2  0  0  0  0
 38 45  1  0  0  0  0
 39 47  1  0  0  0  0
 40 47  1  0  0  0  0
 41 34  1  0  0  0  0
 42 38  1  0  0  0  0
 42 39  1  0  0  0  0
 43 42  1  0  0  0  0
 43 35  1  0  0  0  0
 45 44  1  0  0  0  0
 46 38  1  0  0  0  0
 46 41  1  0  0  0  0
 48 35  1  0  0  0  0
M  END
>  <MODEL>
5

>  <REMARK>
 VINA RESULT:      -6.1      4.670      9.726
  Name = 
  10 active torsions:
  status: ('A' for Active; 'I' for Inactive)
    1  A    between atoms: N_2  and  C_22
    2  A    between atoms: N_2  and  C_37
    3  A    between atoms: N_2  and  C_39
    4  A    between atoms: C_10  and  O_25
    5  A    between atoms: N_11  and  C_46
    6  A    between atoms: C_13  and  C_15
    7  A    between atoms: C_13  and  C_47
    8  A    between atoms: C_15  and  C_46
    9  A    between atoms: O_25  and  C_28
   10  A    between atoms: C_28  and  C_46
                            x       y       z     vdW  Elec       q    Type
                         _______ _______ _______ _____ _____    ______ ____

>  <TORSDO>
F 10

$$$$
=
 OpenBabel11062415233D

 48 52  0  0  1  0  0  0  0  0999 V2000
  190.9890  177.3790  144.5110 O   0  0  0  0  0  1  0  0  0  0  0  0
  189.9340  176.5960  139.6250 C   0  0  0  0  0  2  0  0  0  0  0  0
  191.9910  177.7910  141.7910 C   0  0  0  0  0  1  0  0  0  0  0  0
  188.4480  175.2940  143.3250 C   0  0  0  0  0  1  0  0  0  0  0  0
  188.9250  176.9390  138.4960 C   0  0  2  0  0  3  0  0  0  0  0  0
  188.4980  176.7850  145.9270 O   0  0  0  0  0  1  0  0  0  0  0  0
  187.7490  178.6400  140.3070 C   0  0  0  0  0  2  0  0  0  0  0  0
  190.1900  177.1370  143.3550 C   0  0  1  0  0  3  0  0  0  0  0  0
  185.2430  177.8290  142.1220 C   0  0  0  0  0  1  0  0  0  0  0  0
  189.6630  177.5150  140.8410 C   0  0  2  0  0  3  0  0  0  0  0  0
  188.7020  176.8660  143.5330 C   0  0  1  0  0  0  0  0  0  0  0  0
  190.5760  177.9390  142.0750 C   0  0  2  0  0  3  0  0  0  0  0  0
  187.9310  178.2080  138.8490 C   0  0  0  0  0  2  0  0  0  0  0  0
  188.2290  177.5760  141.1690 N   0  0  1  0  0  0  0  0  0  0  0  0
  186.6930  177.6020  144.5710 C   0  0  1  0  0  3  0  0  0  0  0  0
  188.0100  177.9310  142.5260 C   0  0  1  0  0  3  0  0  0  0  0  0
  186.5630  177.7640  143.0110 C   0  0  2  0  0  3  0  0  0  0  0  0
  188.2180  177.5420  144.8120 C   0  0  1  0  0  3  0  0  0  0  0  0
  186.1560  178.7580  145.2420 N   0  0  0  0  0  0  0  0  0  0  0  0
  186.0070  178.5510  146.6860 C   0  0  0  0  0  3  0  0  0  0  0  0
  186.4900  179.7630  147.5300 C   0  0  0  0  0  1  0  0  0  0  0  0
  184.5600  178.1800  147.0120 C   0  0  0  0  0  1  0  0  0  0  0  0
  185.2600  180.5010  143.7510 O   0  0  0  0  0  1  0  0  0  0  0  0
  184.9440  179.4800  144.6490 C   0  0  0  0  0  2  0  0  0  0  0  0
  188.4800  175.9130  137.6310 O   0  0  0  0  0  0  0  0  0  0  0  0
  187.8880  176.2230  135.0840 C   0  0  0  0  0  1  0  0  0  0  0  0
  190.0020  177.1200  136.3030 C   0  0  0  0  0  1  0  0  0  0  0  0
  189.0170  175.9840  136.2570 C   0  0  0  0  0  0  0  0  0  0  0  0
  189.6900  174.5720  135.8610 C   0  0  1  0  0  3  0  0  0  0  0  0
  188.4640  172.4620  135.0850 C   0  0  0  0  0  2  0  0  0  0  0  0
  188.9300  173.6850  134.9690 N   0  0  0  0  0  0  0  0  0  0  0  0
  191.2050  174.6470  135.6600 C   0  0  0  0  0  2  0  0  0  0  0  0
  191.6370  174.3350  136.9130 C   0  0  0  0  0  2  0  0  0  0  0  0
  197.8700  174.5970  135.8010 C   0  0  2  0  0  3  0  0  0  0  0  0
  194.7040  171.8980  136.7420 C   0  0  1  0  0  3  0  0  0  0  0  0
  193.6140  175.7290  138.1260 C   0  0  0  0  0  2  0  0  0  0  0  0
  198.8660  174.3130  134.6700 C   0  0  0  0  0  1  0  0  0  0  0  0
  196.2360  174.4810  137.2880 C   0  0  2  0  0  3  0  0  0  0  0  0
  193.9040  174.5680  137.6160 C   0  0  0  0  0  0  0  0  0  0  0  0
  193.4200  172.4600  136.0820 C   0  0  0  0  0  2  0  0  0  0  0  0
  198.2760  174.9060  136.9930 C   0  0  0  0  0  2  0  0  0  0  0  0
  195.1390  173.9250  138.0440 N   0  0  0  0  0  0  0  0  0  0  0  0
  195.0360  172.4950  138.1360 C   0  0  0  0  0  2  0  0  0  0  0  0
  195.5930  174.5040  134.6170 C   0  0  0  0  0  1  0  0  0  0  0  0
  196.4930  174.0280  135.8310 C   0  0  1  0  0  3  0  0  0  0  0  0
  197.2520  174.8620  137.9750 N   0  0  0  0  0  2  0  0  0  0  0  0
  193.0470  173.9290  136.4850 C   0  0  1  0  0  3  0  0  0  0  0  0
  194.7170  170.5250  136.7640 O   0  0  0  0  0  1  0  0  0  0  0  0
  5 25  1  1  0  0  0
  5 13  1  0  0  0  0
  5  2  1  0  0  0  0
  8 11  1  0  0  0  0
  8  1  1  1  0  0  0
  9 17  1  0  0  0  0
 10  2  1  1  0  0  0
 10 14  1  0  0  0  0
 10 12  1  0  0  0  0
 11  4  1  6  0  0  0
 11 18  1  0  0  0  0
 12  3  1  6  0  0  0
 12  8  1  0  0  0  0
 13  7  1  0  0  0  0
 14  7  1  6  0  0  0
 14 16  1  0  0  0  0
 15 18  1  0  0  0  0
 15 19  1  1  0  0  0
 16 17  1  0  0  0  0
 16 11  1  0  0  0  0
 17 15  1  0  0  0  0
 18  6  1  0  0  0  0
 19 20  1  0  0  0  0
 20 22  1  0  0  0  0
 20 21  1  0  0  0  0
 23 24  1  0  0  0  0
 24 19  1  0  0  0  0
 26 28  1  0  0  0  0
 28 27  1  0  0  0  0
 28 25  1  0  0  0  0
 29 28  1  0  0  0  0
 31 30  2  0  0  0  0
 31 29  1  0  0  0  0
 32 29  1  0  0  0  0
 32 33  1  0  0  0  0
 34 45  1  0  0  0  0
 34 41  1  0  0  0  0
 35 48  1  0  0  0  0
 35 43  1  0  0  0  0
 37 34  1  0  0  0  0
 38 46  1  0  0  0  0
 38 42  1  0  0  0  0
 39 42  1  0  0  0  0
 39 36  2  0  0  0  0
 40 47  1  0  0  0  0
 40 35  1  0  0  0  0
 41 46  1  0  0  0  0
 42 43  1  0  0  0  0
 44 45  1  0  0  0  0
 45 38  1  0  0  0  0
 47 33  1  0  0  0  0
 47 39  1  0  0  0  0
M  END
>  <MODEL>
6

>  <REMARK>
 VINA RESULT:      -5.8      4.750      9.469
  Name = 
  10 active torsions:
  status: ('A' for Active; 'I' for Inactive)
    1  A    between atoms: N_2  and  C_22
    2  A    between atoms: N_2  and  C_37
    3  A    between atoms: N_2  and  C_39
    4  A    between atoms: C_10  and  O_25
    5  A    between atoms: N_11  and  C_46
    6  A    between atoms: C_13  and  C_15
    7  A    between atoms: C_13  and  C_47
    8  A    between atoms: C_15  and  C_46
    9  A    between atoms: O_25  and  C_28
   10  A    between atoms: C_28  and  C_46
                            x       y       z     vdW  Elec       q    Type
                         _______ _______ _______ _____ _____    ______ ____

>  <TORSDO>
F 10

$$$$
=
 OpenBabel11062415233D

 48 52  0  0  1  0  0  0  0  0999 V2000
  182.1720  178.6970  141.9130 O   0  0  0  0  0  1  0  0  0  0  0  0
  186.6390  177.6760  139.7670 C   0  0  0  0  0  2  0  0  0  0  0  0
  185.0160  179.3930  141.9500 C   0  0  0  0  0  1  0  0  0  0  0  0
  182.8010  175.9820  139.8050 C   0  0  0  0  0  1  0  0  0  0  0  0
  187.4180  177.7240  138.4250 C   0  0  2  0  0  3  0  0  0  0  0  0
  180.1910  177.4100  140.1860 O   0  0  0  0  0  1  0  0  0  0  0  0
  185.2160  179.0090  137.3970 C   0  0  0  0  0  2  0  0  0  0  0  0
  183.0850  178.2450  140.9150 C   0  0  1  0  0  3  0  0  0  0  0  0
  182.8670  177.5080  135.8280 C   0  0  0  0  0  1  0  0  0  0  0  0
  185.3200  178.4720  139.6140 C   0  0  2  0  0  3  0  0  0  0  0  0
  182.5350  177.5600  139.6710 C   0  0  1  0  0  0  0  0  0  0  0  0
  184.3480  179.1310  140.6890 C   0  0  2  0  0  3  0  0  0  0  0  0
  186.7010  178.6560  137.2670 C   0  0  0  0  0  2  0  0  0  0  0  0
  184.6120  178.1200  138.3720 N   0  0  1  0  0  0  0  0  0  0  0  0
  180.9320  177.6880  137.9190 C   0  0  1  0  0  3  0  0  0  0  0  0
  183.2210  178.3910  138.4600 C   0  0  1  0  0  3  0  0  0  0  0  0
  182.3790  177.8160  137.3130 C   0  0  2  0  0  3  0  0  0  0  0  0
  181.1190  178.0630  139.4060 C   0  0  1  0  0  3  0  0  0  0  0  0
  180.0430  178.6400  137.3030 N   0  0  0  0  0  0  0  0  0  0  0  0
  179.0400  178.0010  136.4470 C   0  0  0  0  0  3  0  0  0  0  0  0
  179.2680  178.2700  134.9330 C   0  0  0  0  0  1  0  0  0  0  0  0
  178.9770  176.5030  136.7480 C   0  0  0  0  0  1  0  0  0  0  0  0
  180.8220  180.9660  137.5250 O   0  0  0  0  0  1  0  0  0  0  0  0
  180.6220  179.8970  136.6490 C   0  0  0  0  0  2  0  0  0  0  0  0
  188.2150  176.6190  138.0480 O   0  0  0  0  0  0  0  0  0  0  0  0
  190.2530  176.1860  136.4370 C   0  0  0  0  0  1  0  0  0  0  0  0
  189.6350  178.4360  137.5830 C   0  0  0  0  0  1  0  0  0  0  0  0
  189.6270  176.9430  137.7580 C   0  0  0  0  0  0  0  0  0  0  0  0
  190.5630  176.4360  138.9700 C   0  0  1  0  0  3  0  0  0  0  0  0
  193.0150  176.5620  138.2410 C   0  0  0  0  0  2  0  0  0  0  0  0
  191.9130  175.9640  138.6340 N   0  0  0  0  0  0  0  0  0  0  0  0
  190.4000  177.2510  140.2550 C   0  0  0  0  0  2  0  0  0  0  0  0
  190.6660  176.2980  141.1900 C   0  0  0  0  0  2  0  0  0  0  0  0
  187.9010  177.5070  146.7620 C   0  0  2  0  0  3  0  0  0  0  0  0
  190.5280  179.1780  143.8460 C   0  0  1  0  0  3  0  0  0  0  0  0
  190.7450  174.9780  143.5510 C   0  0  0  0  0  2  0  0  0  0  0  0
  186.7130  178.2960  147.3280 C   0  0  0  0  0  1  0  0  0  0  0  0
  189.7180  176.8700  145.6720 C   0  0  2  0  0  3  0  0  0  0  0  0
  190.6090  176.2710  143.5740 C   0  0  0  0  0  0  0  0  0  0  0  0
  190.0850  178.6240  142.4690 C   0  0  0  0  0  2  0  0  0  0  0  0
  188.7580  176.9270  147.5440 C   0  0  0  0  0  2  0  0  0  0  0  0
  190.8830  176.9630  144.8260 N   0  0  0  0  0  0  0  0  0  0  0  0
  191.4870  178.2550  144.6440 C   0  0  0  0  0  2  0  0  0  0  0  0
  187.4790  177.5480  144.2290 C   0  0  0  0  0  1  0  0  0  0  0  0
  188.4930  177.7850  145.4230 C   0  0  1  0  0  3  0  0  0  0  0  0
  189.9310  176.4860  146.8780 N   0  0  0  0  0  2  0  0  0  0  0  0
  190.0420  177.0600  142.3580 C   0  0  1  0  0  3  0  0  0  0  0  0
  191.0170  180.4590  143.7580 O   0  0  0  0  0  1  0  0  0  0  0  0
  5 25  1  6  0  0  0
  5  2  1  0  0  0  0
  8  1  1  6  0  0  0
  9 17  1  0  0  0  0
 10  2  1  1  0  0  0
 10 12  1  0  0  0  0
 11  4  1  6  0  0  0
 11  8  1  0  0  0  0
 12  8  1  0  0  0  0
 12  3  1  1  0  0  0
 13  7  1  0  0  0  0
 13  5  1  0  0  0  0
 14  7  1  6  0  0  0
 14 16  1  0  0  0  0
 14 10  1  0  0  0  0
 15 19  1  6  0  0  0
 15 18  1  0  0  0  0
 16 11  1  0  0  0  0
 17 15  1  0  0  0  0
 17 16  1  0  0  0  0
 18 11  1  0  0  0  0
 18  6  1  0  0  0  0
 20 22  1  0  0  0  0
 20 19  1  0  0  0  0
 21 20  1  0  0  0  0
 24 19  1  0  0  0  0
 24 23  1  0  0  0  0
 26 28  1  0  0  0  0
 27 28  1  0  0  0  0
 28 25  1  0  0  0  0
 28 29  1  0  0  0  0
 29 32  1  0  0  0  0
 30 31  2  0  0  0  0
 31 29  1  0  0  0  0
 32 33  1  0  0  0  0
 33 47  1  0  0  0  0
 34 37  1  0  0  0  0
 34 41  1  0  0  0  0
 35 43  1  0  0  0  0
 36 39  2  0  0  0  0
 38 46  1  0  0  0  0
 39 42  1  0  0  0  0
 40 35  1  0  0  0  0
 42 38  1  0  0  0  0
 43 42  1  0  0  0  0
 44 45  1  0  0  0  0
 45 38  1  0  0  0  0
 45 34  1  0  0  0  0
 46 41  1  0  0  0  0
 47 40  1  0  0  0  0
 47 39  1  0  0  0  0
 48 35  1  0  0  0  0
M  END
>  <MODEL>
7

>  <REMARK>
 VINA RESULT:      -5.8      1.876      2.321
  Name = 
  10 active torsions:
  status: ('A' for Active; 'I' for Inactive)
    1  A    between atoms: N_2  and  C_22
    2  A    between atoms: N_2  and  C_37
    3  A    between atoms: N_2  and  C_39
    4  A    between atoms: C_10  and  O_25
    5  A    between atoms: N_11  and  C_46
    6  A    between atoms: C_13  and  C_15
    7  A    between atoms: C_13  and  C_47
    8  A    between atoms: C_15  and  C_46
    9  A    between atoms: O_25  and  C_28
   10  A    between atoms: C_28  and  C_46
                            x       y       z     vdW  Elec       q    Type
                         _______ _______ _______ _____ _____    ______ ____

>  <TORSDO>
F 10

$$$$
=
 OpenBabel11062415233D

 48 52  0  0  1  0  0  0  0  0999 V2000
  190.7880  177.6220  144.6250 O   0  0  0  0  0  1  0  0  0  0  0  0
  189.7310  176.5350  139.7980 C   0  0  0  0  0  2  0  0  0  0  0  0
  191.7930  177.8560  141.8850 C   0  0  0  0  0  1  0  0  0  0  0  0
  188.2380  175.4770  143.5730 C   0  0  0  0  0  1  0  0  0  0  0  0
  188.7240  176.8100  138.6480 C   0  0  2  0  0  3  0  0  0  0  0  0
  188.2940  177.1300  146.0740 O   0  0  0  0  0  1  0  0  0  0  0  0
  187.5550  178.6280  140.3480 C   0  0  0  0  0  2  0  0  0  0  0  0
  189.9890  177.3110  143.4860 C   0  0  1  0  0  3  0  0  0  0  0  0
  185.0450  177.9450  142.2090 C   0  0  0  0  0  1  0  0  0  0  0  0
  189.4640  177.5300  140.9520 C   0  0  2  0  0  3  0  0  0  0  0  0
  188.4990  177.0580  143.6800 C   0  0  1  0  0  0  0  0  0  0  0  0
  190.3780  178.0280  142.1580 C   0  0  2  0  0  3  0  0  0  0  0  0
  187.7360  178.1030  138.9200 C   0  0  0  0  0  2  0  0  0  0  0  0
  188.0300  177.6180  141.2760 N   0  0  1  0  0  0  0  0  0  0  0  0
  186.4930  177.8670  144.6680 C   0  0  1  0  0  3  0  0  0  0  0  0
  187.8120  178.0600  142.6070 C   0  0  1  0  0  3  0  0  0  0  0  0
  186.3650  177.9310  143.1010 C   0  0  2  0  0  3  0  0  0  0  0  0
  188.0180  177.8160  144.9140 C   0  0  1  0  0  3  0  0  0  0  0  0
  185.9620  179.0670  145.2640 N   0  0  0  0  0  0  0  0  0  0  0  0
  185.4060  178.8310  146.6000 C   0  0  0  0  0  3  0  0  0  0  0  0
  184.9720  177.3560  146.8290 C   0  0  0  0  0  1  0  0  0  0  0  0
  186.3970  179.2970  147.6670 C   0  0  0  0  0  1  0  0  0  0  0  0
  183.6950  179.7600  144.5970 O   0  0  0  0  0  1  0  0  0  0  0  0
  185.0630  179.9860  144.4350 C   0  0  0  0  0  2  0  0  0  0  0  0
  188.2750  175.7330  137.8510 O   0  0  0  0  0  0  0  0  0  0  0  0
  188.7670  177.5030  135.9640 C   0  0  0  0  0  1  0  0  0  0  0  0
  189.2800  174.9570  135.8700 C   0  0  0  0  0  1  0  0  0  0  0  0
  188.3130  175.9810  136.3950 C   0  0  0  0  0  0  0  0  0  0  0  0
  186.8290  175.8340  135.7780 C   0  0  1  0  0  3  0  0  0  0  0  0
  186.1140  173.4490  135.1820 C   0  0  0  0  0  2  0  0  0  0  0  0
  186.5570  174.6620  134.9360 N   0  0  0  0  0  0  0  0  0  0  0  0
  185.7200  176.2960  136.7260 C   0  0  0  0  0  2  0  0  0  0  0  0
  184.8480  176.8480  135.8390 C   0  0  0  0  0  2  0  0  0  0  0  0
  180.2770  180.2910  138.5620 C   0  0  2  0  0  3  0  0  0  0  0  0
  182.3430  176.5700  138.8420 C   0  0  1  0  0  3  0  0  0  0  0  0
  182.5570  177.8880  134.8430 C   0  0  0  0  0  2  0  0  0  0  0  0
  180.0690  181.1950  139.7830 C   0  0  0  0  0  1  0  0  0  0  0  0
  180.8130  178.6350  137.1960 C   0  0  2  0  0  3  0  0  0  0  0  0
  182.5750  177.5260  136.0920 C   0  0  0  0  0  0  0  0  0  0  0  0
  183.7880  176.8160  138.3410 C   0  0  0  0  0  2  0  0  0  0  0  0
  179.2850  179.9510  137.7990 C   0  0  0  0  0  2  0  0  0  0  0  0
  181.2990  177.3450  136.7690 N   0  0  0  0  0  0  0  0  0  0  0  0
  181.3060  176.2730  137.7260 C   0  0  0  0  0  2  0  0  0  0  0  0
  182.8270  179.9950  138.4790 C   0  0  0  0  0  1  0  0  0  0  0  0
  181.3970  179.3130  138.4590 C   0  0  1  0  0  3  0  0  0  0  0  0
  179.5940  178.9020  136.8930 N   0  0  0  0  0  2  0  0  0  0  0  0
  183.9030  177.4170  136.8970 C   0  0  1  0  0  3  0  0  0  0  0  0
  182.2940  175.6280  139.8410 O   0  0  0  0  0  1  0  0  0  0  0  0
  5 25  1  1  0  0  0
  5 13  1  0  0  0  0
  5  2  1  0  0  0  0
  8 11  1  0  0  0  0
  8  1  1  1  0  0  0
  9 17  1  0  0  0  0
 10  2  1  1  0  0  0
 10 14  1  0  0  0  0
 10 12  1  0  0  0  0
 11  4  1  6  0  0  0
 11 18  1  0  0  0  0
 12  3  1  6  0  0  0
 12  8  1  0  0  0  0
 13  7  1  0  0  0  0
 14  7  1  6  0  0  0
 14 16  1  0  0  0  0
 15 18  1  0  0  0  0
 15 19  1  1  0  0  0
 16 17  1  0  0  0  0
 16 11  1  0  0  0  0
 17 15  1  0  0  0  0
 18  6  1  0  0  0  0
 19 20  1  0  0  0  0
 20 21  1  0  0  0  0
 20 22  1  0  0  0  0
 24 23  1  0  0  0  0
 24 19  1  0  0  0  0
 26 28  1  0  0  0  0
 27 28  1  0  0  0  0
 28 25  1  0  0  0  0
 29 28  1  0  0  0  0
 29 32  1  0  0  0  0
 31 30  2  0  0  0  0
 31 29  1  0  0  0  0
 33 32  1  0  0  0  0
 33 47  1  0  0  0  0
 34 37  1  0  0  0  0
 35 48  1  0  0  0  0
 36 39  2  0  0  0  0
 38 45  1  0  0  0  0
 39 42  1  0  0  0  0
 39 47  1  0  0  0  0
 40 35  1  0  0  0  0
 41 34  1  0  0  0  0
 42 38  1  0  0  0  0
 42 43  1  0  0  0  0
 43 35  1  0  0  0  0
 45 44  1  0  0  0  0
 45 34  1  0  0  0  0
 46 38  1  0  0  0  0
 46 41  1  0  0  0  0
 47 40  1  0  0  0  0
M  END
>  <MODEL>
8

>  <REMARK>
 VINA RESULT:      -5.6      2.692      9.663
  Name = 
  10 active torsions:
  status: ('A' for Active; 'I' for Inactive)
    1  A    between atoms: N_2  and  C_22
    2  A    between atoms: N_2  and  C_37
    3  A    between atoms: N_2  and  C_39
    4  A    between atoms: C_10  and  O_25
    5  A    between atoms: N_11  and  C_46
    6  A    between atoms: C_13  and  C_15
    7  A    between atoms: C_13  and  C_47
    8  A    between atoms: C_15  and  C_46
    9  A    between atoms: O_25  and  C_28
   10  A    between atoms: C_28  and  C_46
                            x       y       z     vdW  Elec       q    Type
                         _______ _______ _______ _____ _____    ______ ____

>  <TORSDO>
F 10

$$$$
=
 OpenBabel11062415233D

 48 52  0  0  1  0  0  0  0  0999 V2000
  193.9300  176.7340  138.8550 O   0  0  0  0  0  1  0  0  0  0  0  0
  189.1880  176.5650  137.1000 C   0  0  0  0  0  2  0  0  0  0  0  0
  191.1320  177.1820  139.5880 C   0  0  0  0  0  1  0  0  0  0  0  0
  193.0570  176.3860  135.4890 C   0  0  0  0  0  1  0  0  0  0  0  0
  188.1000  175.6130  136.5320 C   0  0  2  0  0  3  0  0  0  0  0  0
  195.5350  175.3590  136.8300 O   0  0  0  0  0  1  0  0  0  0  0  0
  189.8510  173.5690  137.0940 C   0  0  0  0  0  2  0  0  0  0  0  0
  192.8460  176.3410  138.0160 C   0  0  1  0  0  3  0  0  0  0  0  0
  191.8700  172.3310  134.9430 C   0  0  0  0  0  1  0  0  0  0  0  0
  190.3480  175.7190  137.6790 C   0  0  2  0  0  3  0  0  0  0  0  0
  193.1340  175.4660  136.8030 C   0  0  1  0  0  0  0  0  0  0  0  0
  191.4900  176.0660  138.7340 C   0  0  2  0  0  3  0  0  0  0  0  0
  188.4200  174.0120  136.7760 C   0  0  0  0  0  2  0  0  0  0  0  0
  190.7580  174.6500  136.7540 N   0  0  1  0  0  0  0  0  0  0  0  0
  194.2360  173.5080  136.0240 C   0  0  1  0  0  3  0  0  0  0  0  0
  192.0950  174.2340  136.9830 C   0  0  1  0  0  3  0  0  0  0  0  0
  192.6790  173.3140  135.9020 C   0  0  2  0  0  3  0  0  0  0  0  0
  194.3870  174.6380  137.0680 C   0  0  1  0  0  3  0  0  0  0  0  0
  194.8520  172.3110  136.5370 N   0  0  0  0  0  0  0  0  0  0  0  0
  196.0680  171.9470  135.8030 C   0  0  0  0  0  3  0  0  0  0  0  0
  196.3540  172.8810  134.5940 C   0  0  0  0  0  1  0  0  0  0  0  0
  197.2580  171.8890  136.7620 C   0  0  0  0  0  1  0  0  0  0  0  0
  194.2810  169.9650  136.0550 O   0  0  0  0  0  1  0  0  0  0  0  0
  193.9860  171.0850  136.8330 C   0  0  0  0  0  2  0  0  0  0  0  0
  187.3420  176.0190  135.4110 O   0  0  0  0  0  0  0  0  0  0  0  0
  186.2200  177.6150  137.1800 C   0  0  0  0  0  1  0  0  0  0  0  0
  186.0720  177.8230  134.5940 C   0  0  0  0  0  1  0  0  0  0  0  0
  186.1570  176.8410  135.7300 C   0  0  0  0  0  0  0  0  0  0  0  0
  184.8550  175.8960  135.8550 C   0  0  1  0  0  3  0  0  0  0  0  0
  184.3610  173.4100  135.4950 C   0  0  0  0  0  2  0  0  0  0  0  0
  184.9160  174.5710  135.2260 N   0  0  0  0  0  0  0  0  0  0  0  0
  184.1440  176.0060  137.2050 C   0  0  0  0  0  2  0  0  0  0  0  0
  182.9750  176.5910  136.8240 C   0  0  0  0  0  2  0  0  0  0  0  0
  180.7630  179.3740  142.0690 C   0  0  2  0  0  3  0  0  0  0  0  0
  180.6330  175.7340  139.8500 C   0  0  1  0  0  3  0  0  0  0  0  0
  181.5520  178.8650  137.1790 C   0  0  0  0  0  2  0  0  0  0  0  0
  181.0260  179.3920  143.5800 C   0  0  0  0  0  1  0  0  0  0  0  0
  180.3980  178.7750  139.9710 C   0  0  2  0  0  3  0  0  0  0  0  0
  181.3640  177.8850  138.0140 C   0  0  0  0  0  0  0  0  0  0  0  0
  182.0090  175.5800  139.1550 C   0  0  0  0  0  2  0  0  0  0  0  0
  179.7480  179.9980  141.5560 C   0  0  0  0  0  2  0  0  0  0  0  0
  180.1630  177.9130  138.8380 N   0  0  0  0  0  0  0  0  0  0  0  0
  179.6070  176.6100  139.0810 C   0  0  0  0  0  2  0  0  0  0  0  0
  182.8040  178.1310  141.1320 C   0  0  0  0  0  1  0  0  0  0  0  0
  181.2270  178.2740  141.1790 C   0  0  1  0  0  3  0  0  0  0  0  0
  179.4920  179.6550  140.2030 N   0  0  0  0  0  2  0  0  0  0  0  0
  182.4370  176.7820  138.2420 C   0  0  1  0  0  3  0  0  0  0  0  0
  180.0940  174.5230  140.2080 O   0  0  0  0  0  1  0  0  0  0  0  0
  5 25  1  6  0  0  0
  5 13  1  0  0  0  0
  5  2  1  0  0  0  0
  6 18  1  0  0  0  0
  8 12  1  0  0  0  0
  8  1  1  1  0  0  0
  9 17  1  0  0  0  0
 10  2  1  6  0  0  0
 10 12  1  0  0  0  0
 11  4  1  6  0  0  0
 11 16  1  0  0  0  0
 11 18  1  0  0  0  0
 11  8  1  0  0  0  0
 12  3  1  6  0  0  0
 13  7  1  0  0  0  0
 14 16  1  0  0  0  0
 14  7  1  1  0  0  0
 14 10  1  0  0  0  0
 15 19  1  1  0  0  0
 15 18  1  0  0  0  0
 17 15  1  0  0  0  0
 17 16  1  0  0  0  0
 19 24  1  0  0  0  0
 20 19  1  0  0  0  0
 20 22  1  0  0  0  0
 21 20  1  0  0  0  0
 23 24  1  0  0  0  0
 25 28  1  0  0  0  0
 27 28  1  0  0  0  0
 28 29  1  0  0  0  0
 28 26  1  0  0  0  0
 29 32  1  0  0  0  0
 31 30  2  0  0  0  0
 31 29  1  0  0  0  0
 33 32  1  0  0  0  0
 33 47  1  0  0  0  0
 34 37  1  0  0  0  0
 35 48  1  0  0  0  0
 36 39  2  0  0  0  0
 38 46  1  0  0  0  0
 38 45  1  0  0  0  0
 39 47  1  0  0  0  0
 39 42  1  0  0  0  0
 40 35  1  0  0  0  0
 41 34  1  0  0  0  0
 42 43  1  0  0  0  0
 42 38  1  0  0  0  0
 43 35  1  0  0  0  0
 44 45  1  0  0  0  0
 45 34  1  0  0  0  0
 46 41  1  0  0  0  0
 47 40  1  0  0  0  0
M  END
>  <MODEL>
9

>  <REMARK>
 VINA RESULT:      -5.5      4.337     10.803
  Name = 
  10 active torsions:
  status: ('A' for Active; 'I' for Inactive)
    1  A    between atoms: N_2  and  C_22
    2  A    between atoms: N_2  and  C_37
    3  A    between atoms: N_2  and  C_39
    4  A    between atoms: C_10  and  O_25
    5  A    between atoms: N_11  and  C_46
    6  A    between atoms: C_13  and  C_15
    7  A    between atoms: C_13  and  C_47
    8  A    between atoms: C_15  and  C_46
    9  A    between atoms: O_25  and  C_28
   10  A    between atoms: C_28  and  C_46
                            x       y       z     vdW  Elec       q    Type
                         _______ _______ _______ _____ _____    ______ ____

>  <TORSDO>
F 10

$$$$
