=
 OpenBabel11062413593D

 53 56  0  0  1  0  0  0  0  0999 V2000
  186.2210  179.2400  137.5170 O   0  0  0  0  0  0  0  0  0  0  0  0
  185.1890  175.8090  135.7580 O   0  0  0  0  0  0  0  0  0  0  0  0
  184.1620  176.6300  136.2290 C   0  0  0  0  0  0  0  0  0  0  0  0
  187.2920  177.2060  138.1560 C   0  0  2  0  0  3  0  0  0  0  0  0
  187.9530  177.4890  139.3550 O   0  0  0  0  0  1  0  0  0  0  0  0
  187.4140  174.9440  135.9070 C   0  0  2  0  0  3  0  0  0  0  0  0
  183.3800  177.1560  135.3960 O   0  0  0  0  0  0  0  0  0  0  0  0
  188.2190  177.1840  136.9280 C   0  0  2  0  0  3  0  0  0  0  0  0
  183.9120  176.8570  137.6620 C   0  0  0  0  0  0  0  0  0  0  0  0
  188.5690  175.7130  136.5830 C   0  0  2  0  0  3  0  0  0  0  0  0
  183.1790  177.4020  140.3040 C   0  0  0  0  0  3  0  0  0  0  0  0
  182.6970  176.3960  138.1770 C   0  0  0  0  0  3  0  0  0  0  0  0
  186.0870  178.0680  137.9710 C   0  0  0  0  0  0  0  0  0  0  0  0
  186.0720  175.1160  136.6130 C   0  0  0  0  0  2  0  0  0  0  0  0
  184.4290  177.8500  139.8350 C   0  0  0  0  0  0  0  0  0  0  0  0
  182.3270  176.6700  139.4890 C   0  0  0  0  0  3  0  0  0  0  0  0
  184.7900  177.6000  138.4900 C   0  0  0  0  0  0  0  0  0  0  0  0
  190.9640  175.0190  136.2880 O   0  0  0  0  0  1  0  0  0  0  0  0
  189.8560  176.0970  134.5940 O   0  0  0  0  0  0  0  0  0  0  0  0
  189.8210  175.5960  135.7540 C   0  0  0  0  0  0  0  0  0  0  0  0
  189.0980  179.4140  136.9020 O   0  0  0  0  0  1  0  0  0  0  0  0
  189.4410  178.0810  137.1160 C   0  0  0  0  0  2  0  0  0  0  0  0
  187.7490  173.4580  135.7130 C   0  0  1  0  0  3  0  0  0  0  0  0
  187.9280  172.7220  137.0440 C   0  0  0  0  0  1  0  0  0  0  0  0
  186.7260  172.7750  134.8180 C   0  0  0  0  0  2  0  0  0  0  0  0
  186.3490  171.4890  135.3840 N   0  0  0  0  0  2  0  0  0  0  0  0
  184.9370  171.2810  135.1000 C   0  0  0  0  0  3  0  0  0  0  0  0
  184.5960  169.8070  135.2550 C   0  0  0  0  0  1  0  0  0  0  0  0
  184.1030  172.0900  136.0680 C   0  0  0  0  0  1  0  0  0  0  0  0
  185.2940  178.6990  140.7560 C   0  0  1  0  0  3  0  0  0  0  0  0
  184.5840  179.2820  141.9830 C   0  0  2  0  0  3  0  0  0  0  0  0
  185.1550  178.6530  144.4540 C   0  0  1  0  0  3  0  0  0  0  0  0
  182.6720  179.3090  143.0320 O   0  0  0  0  0  0  0  0  0  0  0  0
  183.8280  179.0550  145.0950 C   0  0  0  0  0  2  0  0  0  0  0  0
  185.4720  179.5290  143.2300 C   0  0  0  0  0  2  0  0  0  0  0  0
  182.6430  178.6270  144.2470 C   0  0  0  0  0  2  0  0  0  0  0  0
  183.4160  178.5490  142.2500 O   0  0  0  0  0  0  0  0  0  0  0  0
  186.2160  178.6550  145.5700 C   0  0  1  0  0  3  0  0  0  0  0  0
  185.9860  180.2790  147.4610 O   0  0  0  0  0  1  0  0  0  0  0  0
  185.5960  179.0890  146.8590 C   0  0  0  0  0  0  0  0  0  0  0  0
  184.6880  178.3880  147.3850 O   0  0  0  0  0  0  0  0  0  0  0  0
  187.0670  177.3940  145.7970 C   0  0  1  0  0  3  0  0  0  0  0  0
  186.3020  176.2290  145.7470 O   0  0  0  0  0  1  0  0  0  0  0  0
  191.3520  177.2830  142.1480 O   0  0  0  0  0  1  0  0  0  0  0  0
  190.1670  177.5090  142.8530 C   0  0  2  0  0  3  0  0  0  0  0  0
  191.0930  179.4350  144.1660 C   0  0  0  0  0  1  0  0  0  0  0  0
  188.2550  177.3060  144.8970 C   0  0  0  0  0  0  0  0  0  0  0  0
  190.4690  178.0510  144.2540 C   0  0  1  0  0  3  0  0  0  0  0  0
  189.4290  176.1910  143.0070 C   0  0  0  0  0  2  0  0  0  0  0  0
  188.2800  176.3760  143.8430 O   0  0  0  0  0  0  0  0  0  0  0  0
  189.2590  178.1120  145.0810 N   0  0  0  0  0  0  0  0  0  0  0  0
  187.6840  179.0070  141.4400 C   0  0  0  0  0  1  0  0  0  0  0  0
  186.5690  178.0000  141.2130 C   0  0  0  0  0  2  0  0  0  0  0  0
  1 13  2  0  0  0  0
  2  3  1  0  0  0  0
  2 14  1  0  0  0  0
  3  9  1  0  0  0  0
  4  5  1  1  0  0  0
  6 23  1  1  0  0  0
  6 10  1  0  0  0  0
  6 14  1  0  0  0  0
  7  3  2  0  0  0  0
  8 22  1  1  0  0  0
  8  4  1  0  0  0  0
  9 12  2  0  0  0  0
  9 17  1  0  0  0  0
 10 20  1  6  0  0  0
 10  8  1  0  0  0  0
 12 16  1  0  0  0  0
 13  4  1  0  0  0  0
 13 17  1  0  0  0  0
 15 11  1  0  0  0  0
 15 30  1  0  0  0  0
 16 11  2  0  0  0  0
 17 15  2  0  0  0  0
 19 20  2  0  0  0  0
 20 18  1  0  0  0  0
 21 22  1  0  0  0  0
 23 24  1  1  0  0  0
 25 26  1  0  0  0  0
 25 23  1  0  0  0  0
 27 28  1  0  0  0  0
 27 26  1  0  0  0  0
 27 29  1  0  0  0  0
 30 53  1  1  0  0  0
 31 30  1  6  0  0  0
 31 37  1  0  0  0  0
 31 35  1  0  0  0  0
 32 34  1  0  0  0  0
 32 38  1  1  0  0  0
 33 36  1  0  0  0  0
 35 32  1  0  0  0  0
 36 34  1  0  0  0  0
 37 33  1  0  0  0  0
 38 42  1  0  0  0  0
 38 40  1  1  0  0  0
 40 41  2  0  0  0  0
 40 39  1  0  0  0  0
 42 43  1  6  0  0  0
 45 44  1  1  0  0  0
 45 49  1  0  0  0  0
 45 48  1  0  0  0  0
 47 51  2  0  0  0  0
 47 42  1  0  0  0  0
 48 46  1  6  0  0  0
 48 51  1  0  0  0  0
 49 50  1  0  0  0  0
 50 47  1  0  0  0  0
 53 52  1  0  0  0  0
M  END
>  <MODEL>
1

>  <REMARK>
 VINA RESULT:      -7.4      0.000      0.000
  Name = 
  13 active torsions:
  status: ('A' for Active; 'I' for Inactive)
    1  A    between atoms: C_4  and  C_29
    2  A    between atoms: C_4  and  C_31
    3  A    between atoms: C_9  and  C_26
    4  A    between atoms: N_10  and  C_14
    5  A    between atoms: N_10  and  C_45
    6  A    between atoms: C_12  and  C_31
    7  A    between atoms: C_16  and  C_26
    8  A    between atoms: C_17  and  C_19
    9  A    between atoms: C_19  and  C_45
   10  A    between atoms: C_26  and  C_46
   11  A    between atoms: C_28  and  C_31
   12  A    between atoms: C_32  and  C_40
   13  A    between atoms: C_37  and  C_52
                            x       y       z     vdW  Elec       q    Type
                         _______ _______ _______ _____ _____    ______ ____

>  <TORSDO>
F 13

$$$$
=
 OpenBabel11062413593D

 53 56  0  0  1  0  0  0  0  0999 V2000
  184.8640  176.7820  139.1120 O   0  0  0  0  0  0  0  0  0  0  0  0
  182.3050  176.1230  136.1200 O   0  0  0  0  0  0  0  0  0  0  0  0
  183.3950  175.2580  136.2430 C   0  0  0  0  0  0  0  0  0  0  0  0
  184.1900  178.5870  137.7030 C   0  0  2  0  0  3  0  0  0  0  0  0
  185.0930  179.6230  137.9600 O   0  0  0  0  0  1  0  0  0  0  0  0
  181.3120  178.2860  136.3580 C   0  0  2  0  0  3  0  0  0  0  0  0
  183.1780  174.0540  136.5370 O   0  0  0  0  0  0  0  0  0  0  0  0
  182.8300  178.7620  138.4010 C   0  0  2  0  0  3  0  0  0  0  0  0
  184.7820  175.6760  135.9810 C   0  0  0  0  0  0  0  0  0  0  0  0
  181.8070  179.3290  137.3820 C   0  0  2  0  0  3  0  0  0  0  0  0
  187.4850  176.1830  135.4820 C   0  0  0  0  0  3  0  0  0  0  0  0
  185.4380  175.0650  134.9090 C   0  0  0  0  0  3  0  0  0  0  0  0
  184.8050  177.2460  137.9370 C   0  0  0  0  0  0  0  0  0  0  0  0
  182.4360  177.4710  135.7240 C   0  0  0  0  0  2  0  0  0  0  0  0
  186.8500  176.8480  136.5490 C   0  0  0  0  0  0  0  0  0  0  0  0
  186.7840  175.3100  134.6600 C   0  0  0  0  0  3  0  0  0  0  0  0
  185.4900  176.5710  136.8200 C   0  0  0  0  0  0  0  0  0  0  0  0
  179.6260  179.2280  138.6230 O   0  0  0  0  0  1  0  0  0  0  0  0
  180.5220  181.2510  138.0230 O   0  0  0  0  0  0  0  0  0  0  0  0
  180.6320  179.9930  138.0510 C   0  0  0  0  0  0  0  0  0  0  0  0
  182.5920  178.8140  140.7860 O   0  0  0  0  0  1  0  0  0  0  0  0
  182.9450  179.5860  139.6820 C   0  0  0  0  0  2  0  0  0  0  0  0
  180.4140  178.9170  135.2830 C   0  0  1  0  0  3  0  0  0  0  0  0
  178.9310  178.6060  135.5070 C   0  0  0  0  0  1  0  0  0  0  0  0
  180.6690  180.4110  135.1600 C   0  0  0  0  0  2  0  0  0  0  0  0
  179.4410  181.0980  134.7930 N   0  0  0  0  0  2  0  0  0  0  0  0
  179.7570  182.5100  134.6350 C   0  0  0  0  0  3  0  0  0  0  0  0
  178.9350  183.3310  135.6160 C   0  0  0  0  0  1  0  0  0  0  0  0
  181.2280  182.7320  134.9090 C   0  0  0  0  0  1  0  0  0  0  0  0
  187.6850  177.7470  137.4500 C   0  0  1  0  0  3  0  0  0  0  0  0
  188.5070  177.0280  138.5260 C   0  0  2  0  0  3  0  0  0  0  0  0
  188.6070  177.7540  141.0340 C   0  0  1  0  0  3  0  0  0  0  0  0
  190.5530  176.6120  139.1560 O   0  0  0  0  0  0  0  0  0  0  0  0
  189.9320  177.0900  141.4020 C   0  0  0  0  0  2  0  0  0  0  0  0
  187.8710  176.9640  139.9390 C   0  0  0  0  0  2  0  0  0  0  0  0
  190.9730  177.2710  140.3110 C   0  0  0  0  0  2  0  0  0  0  0  0
  189.8270  177.5090  138.5160 O   0  0  0  0  0  0  0  0  0  0  0  0
  187.8270  177.9640  142.3450 C   0  0  1  0  0  3  0  0  0  0  0  0
  186.3430  179.6380  141.2200 O   0  0  0  0  0  0  0  0  0  0  0  0
  186.4750  178.5280  142.0450 C   0  0  0  0  0  0  0  0  0  0  0  0
  185.4450  177.9720  142.5160 O   0  0  0  0  0  1  0  0  0  0  0  0
  187.6970  176.7950  143.3360 C   0  0  1  0  0  3  0  0  0  0  0  0
  188.4920  175.7090  142.9730 O   0  0  0  0  0  1  0  0  0  0  0  0
  188.4610  177.9270  148.7980 O   0  0  0  0  0  1  0  0  0  0  0  0
  188.2210  177.3610  147.5440 C   0  0  2  0  0  3  0  0  0  0  0  0
  190.6270  176.7760  147.1380 C   0  0  0  0  0  1  0  0  0  0  0  0
  187.9290  177.1910  144.7580 C   0  0  0  0  0  0  0  0  0  0  0  0
  189.4300  177.5600  146.6230 C   0  0  1  0  0  3  0  0  0  0  0  0
  187.0280  178.0540  146.9110 C   0  0  0  0  0  2  0  0  0  0  0  0
  186.8500  177.5820  145.5700 O   0  0  0  0  0  0  0  0  0  0  0  0
  189.1320  177.1490  145.2460 N   0  0  0  0  0  0  0  0  0  0  0  0
  188.8140  179.9830  137.4700 C   0  0  0  0  0  1  0  0  0  0  0  0
  188.6000  178.6980  136.6870 C   0  0  0  0  0  2  0  0  0  0  0  0
  2  3  1  0  0  0  0
  3  7  2  0  0  0  0
  4 13  1  0  0  0  0
  4  5  1  1  0  0  0
  4  8  1  0  0  0  0
  6 23  1  6  0  0  0
  6 10  1  0  0  0  0
  8 22  1  1  0  0  0
  9  3  1  0  0  0  0
  9 17  1  0  0  0  0
 10 20  1  1  0  0  0
 10  8  1  0  0  0  0
 11 15  1  0  0  0  0
 12  9  2  0  0  0  0
 13  1  2  0  0  0  0
 14  2  1  0  0  0  0
 14  6  1  0  0  0  0
 15 17  2  0  0  0  0
 15 30  1  0  0  0  0
 16 12  1  0  0  0  0
 16 11  2  0  0  0  0
 17 13  1  0  0  0  0
 19 20  2  0  0  0  0
 20 18  1  0  0  0  0
 22 21  1  0  0  0  0
 23 24  1  1  0  0  0
 25 23  1  0  0  0  0
 26 25  1  0  0  0  0
 27 26  1  0  0  0  0
 27 29  1  0  0  0  0
 27 28  1  0  0  0  0
 30 53  1  6  0  0  0
 31 30  1  6  0  0  0
 31 35  1  0  0  0  0
 32 34  1  0  0  0  0
 32 38  1  1  0  0  0
 33 36  1  0  0  0  0
 35 32  1  0  0  0  0
 36 34  1  0  0  0  0
 37 31  1  0  0  0  0
 37 33  1  0  0  0  0
 38 40  1  6  0  0  0
 38 42  1  0  0  0  0
 39 40  2  0  0  0  0
 40 41  1  0  0  0  0
 42 43  1  6  0  0  0
 42 47  1  0  0  0  0
 45 44  1  1  0  0  0
 47 51  2  0  0  0  0
 47 50  1  0  0  0  0
 48 46  1  1  0  0  0
 48 45  1  0  0  0  0
 49 45  1  0  0  0  0
 50 49  1  0  0  0  0
 51 48  1  0  0  0  0
 53 52  1  0  0  0  0
M  END
>  <MODEL>
2

>  <REMARK>
 VINA RESULT:      -7.3      3.458      6.811
  Name = 
  13 active torsions:
  status: ('A' for Active; 'I' for Inactive)
    1  A    between atoms: C_4  and  C_29
    2  A    between atoms: C_4  and  C_31
    3  A    between atoms: C_9  and  C_26
    4  A    between atoms: N_10  and  C_14
    5  A    between atoms: N_10  and  C_45
    6  A    between atoms: C_12  and  C_31
    7  A    between atoms: C_16  and  C_26
    8  A    between atoms: C_17  and  C_19
    9  A    between atoms: C_19  and  C_45
   10  A    between atoms: C_26  and  C_46
   11  A    between atoms: C_28  and  C_31
   12  A    between atoms: C_32  and  C_40
   13  A    between atoms: C_37  and  C_52
                            x       y       z     vdW  Elec       q    Type
                         _______ _______ _______ _____ _____    ______ ____

>  <TORSDO>
F 13

$$$$
=
 OpenBabel11062413593D

 53 56  0  0  1  0  0  0  0  0999 V2000
  186.9760  176.2760  139.0390 O   0  0  0  0  0  0  0  0  0  0  0  0
  183.7550  174.6850  137.2970 O   0  0  0  0  0  0  0  0  0  0  0  0
  184.9020  173.8920  137.3860 C   0  0  0  0  0  0  0  0  0  0  0  0
  185.8010  177.5030  137.3640 C   0  0  2  0  0  3  0  0  0  0  0  0
  186.6540  178.5460  136.9930 O   0  0  0  0  0  1  0  0  0  0  0  0
  182.6970  176.8180  137.0720 C   0  0  2  0  0  3  0  0  0  0  0  0
  184.8710  172.8660  138.1130 O   0  0  0  0  0  0  0  0  0  0  0  0
  184.6740  177.9330  138.3190 C   0  0  2  0  0  3  0  0  0  0  0  0
  186.1270  174.1670  136.6170 C   0  0  0  0  0  0  0  0  0  0  0  0
  183.3700  178.1380  137.5050 C   0  0  2  0  0  3  0  0  0  0  0  0
  188.5420  174.4190  135.2310 C   0  0  0  0  0  3  0  0  0  0  0  0
  186.5110  173.2130  135.6700 C   0  0  0  0  0  3  0  0  0  0  0  0
  186.5600  176.3110  137.8460 C   0  0  0  0  0  0  0  0  0  0  0  0
  183.6660  175.8130  136.4550 C   0  0  0  0  0  2  0  0  0  0  0  0
  188.1730  175.4210  136.1490 C   0  0  0  0  0  0  0  0  0  0  0  0
  187.7140  173.3320  134.9830 C   0  0  0  0  0  3  0  0  0  0  0  0
  186.9650  175.2810  136.8720 C   0  0  0  0  0  0  0  0  0  0  0  0
  181.6650  178.5270  139.3070 O   0  0  0  0  0  1  0  0  0  0  0  0
  182.1260  180.1720  137.7780 O   0  0  0  0  0  0  0  0  0  0  0  0
  182.3750  179.0140  138.2190 C   0  0  0  0  0  0  0  0  0  0  0  0
  184.9300  178.8520  140.5180 O   0  0  0  0  0  1  0  0  0  0  0  0
  185.0700  179.1430  139.1630 C   0  0  0  0  0  2  0  0  0  0  0  0
  181.4930  177.0610  136.1510 C   0  0  1  0  0  3  0  0  0  0  0  0
  181.8260  176.8080  134.6780 C   0  0  0  0  0  1  0  0  0  0  0  0
  180.2810  176.2630  136.6050 C   0  0  0  0  0  2  0  0  0  0  0  0
  180.3650  174.9000  136.1040 N   0  0  0  0  0  2  0  0  0  0  0  0
  179.7450  174.0290  137.0920 C   0  0  0  0  0  3  0  0  0  0  0  0
  180.4940  172.7070  137.1500 C   0  0  0  0  0  1  0  0  0  0  0  0
  179.7960  174.6910  138.4510 C   0  0  0  0  0  1  0  0  0  0  0  0
  189.1480  176.5570  136.4230 C   0  0  1  0  0  3  0  0  0  0  0  0
  190.2850  176.2350  137.4000 C   0  0  2  0  0  3  0  0  0  0  0  0
  190.3610  177.0320  139.8870 C   0  0  1  0  0  3  0  0  0  0  0  0
  192.3900  176.6330  137.8040 O   0  0  0  0  0  0  0  0  0  0  0  0
  191.8680  176.9230  140.1060 C   0  0  0  0  0  2  0  0  0  0  0  0
  189.8670  175.9870  138.8720 C   0  0  0  0  0  2  0  0  0  0  0  0
  192.6490  177.4410  138.9100 C   0  0  0  0  0  2  0  0  0  0  0  0
  191.3200  177.1720  137.2500 O   0  0  0  0  0  0  0  0  0  0  0  0
  189.6970  176.9810  141.2750 C   0  0  1  0  0  3  0  0  0  0  0  0
  190.4120  175.1530  142.8280 O   0  0  0  0  0  1  0  0  0  0  0  0
  190.6490  176.4040  142.2730 C   0  0  0  0  0  0  0  0  0  0  0  0
  191.6910  177.0430  142.5860 O   0  0  0  0  0  0  0  0  0  0  0  0
  189.0520  178.2570  141.8440 C   0  0  1  0  0  3  0  0  0  0  0  0
  188.2800  178.9230  140.8940 O   0  0  0  0  0  1  0  0  0  0  0  0
  186.1840  177.7690  146.6640 O   0  0  0  0  0  1  0  0  0  0  0  0
  186.8700  178.1910  145.5230 C   0  0  2  0  0  3  0  0  0  0  0  0
  184.8110  178.2920  144.0930 C   0  0  0  0  0  1  0  0  0  0  0  0
  188.2860  178.0250  143.1050 C   0  0  0  0  0  0  0  0  0  0  0  0
  186.1860  177.6620  144.2570 C   0  0  1  0  0  3  0  0  0  0  0  0
  188.2820  177.6340  145.5630 C   0  0  0  0  0  2  0  0  0  0  0  0
  188.9580  177.9410  144.3380 O   0  0  0  0  0  0  0  0  0  0  0  0
  186.9910  177.9250  143.0600 N   0  0  0  0  0  0  0  0  0  0  0  0
  190.8480  176.2850  134.6040 C   0  0  0  0  0  1  0  0  0  0  0  0
  189.7450  177.1690  135.1600 C   0  0  0  0  0  2  0  0  0  0  0  0
  2  3  1  0  0  0  0
  3  7  2  0  0  0  0
  4  5  1  1  0  0  0
  4 13  1  0  0  0  0
  4  8  1  0  0  0  0
  6 23  1  6  0  0  0
  6 10  1  0  0  0  0
  8 22  1  6  0  0  0
  9 17  1  0  0  0  0
  9  3  1  0  0  0  0
 10 20  1  1  0  0  0
 10  8  1  0  0  0  0
 11 15  1  0  0  0  0
 12  9  2  0  0  0  0
 13  1  2  0  0  0  0
 14  6  1  0  0  0  0
 14  2  1  0  0  0  0
 15 30  1  0  0  0  0
 15 17  2  0  0  0  0
 16 11  2  0  0  0  0
 16 12  1  0  0  0  0
 17 13  1  0  0  0  0
 19 20  2  0  0  0  0
 20 18  1  0  0  0  0
 22 21  1  0  0  0  0
 23 24  1  6  0  0  0
 23 25  1  0  0  0  0
 26 25  1  0  0  0  0
 26 27  1  0  0  0  0
 27 28  1  0  0  0  0
 27 29  1  0  0  0  0
 30 53  1  6  0  0  0
 31 30  1  6  0  0  0
 31 35  1  0  0  0  0
 32 34  1  0  0  0  0
 32 38  1  1  0  0  0
 33 36  1  0  0  0  0
 35 32  1  0  0  0  0
 36 34  1  0  0  0  0
 37 31  1  0  0  0  0
 37 33  1  0  0  0  0
 38 42  1  0  0  0  0
 38 40  1  1  0  0  0
 40 41  2  0  0  0  0
 40 39  1  0  0  0  0
 42 43  1  6  0  0  0
 42 47  1  0  0  0  0
 45 49  1  0  0  0  0
 45 44  1  1  0  0  0
 47 50  1  0  0  0  0
 48 46  1  6  0  0  0
 48 45  1  0  0  0  0
 50 49  1  0  0  0  0
 51 47  2  0  0  0  0
 51 48  1  0  0  0  0
 52 53  1  0  0  0  0
M  END
>  <MODEL>
3

>  <REMARK>
 VINA RESULT:      -7.1      2.372      6.435
  Name = 
  13 active torsions:
  status: ('A' for Active; 'I' for Inactive)
    1  A    between atoms: C_4  and  C_29
    2  A    between atoms: C_4  and  C_31
    3  A    between atoms: C_9  and  C_26
    4  A    between atoms: N_10  and  C_14
    5  A    between atoms: N_10  and  C_45
    6  A    between atoms: C_12  and  C_31
    7  A    between atoms: C_16  and  C_26
    8  A    between atoms: C_17  and  C_19
    9  A    between atoms: C_19  and  C_45
   10  A    between atoms: C_26  and  C_46
   11  A    between atoms: C_28  and  C_31
   12  A    between atoms: C_32  and  C_40
   13  A    between atoms: C_37  and  C_52
                            x       y       z     vdW  Elec       q    Type
                         _______ _______ _______ _____ _____    ______ ____

>  <TORSDO>
F 13

$$$$
=
 OpenBabel11062413593D

 53 56  0  0  1  0  0  0  0  0999 V2000
  190.2750  178.4560  138.2390 O   0  0  0  0  0  0  0  0  0  0  0  0
  187.6560  176.6010  135.8650 O   0  0  0  0  0  0  0  0  0  0  0  0
  187.2580  177.8020  136.4560 C   0  0  0  0  0  0  0  0  0  0  0  0
  189.8580  176.1230  138.5200 C   0  0  2  0  0  3  0  0  0  0  0  0
  190.4020  175.7910  139.7640 O   0  0  0  0  0  1  0  0  0  0  0  0
  188.9100  174.5650  135.9020 C   0  0  2  0  0  3  0  0  0  0  0  0
  187.0450  178.7970  135.7150 O   0  0  0  0  0  0  0  0  0  0  0  0
  190.7400  175.7140  137.3280 C   0  0  2  0  0  3  0  0  0  0  0  0
  187.0110  177.9410  137.9000 C   0  0  0  0  0  0  0  0  0  0  0  0
  190.2010  174.3890  136.7290 C   0  0  2  0  0  3  0  0  0  0  0  0
  186.4130  178.4590  140.5820 C   0  0  0  0  0  3  0  0  0  0  0  0
  185.7040  178.2370  138.2970 C   0  0  0  0  0  3  0  0  0  0  0  0
  189.4230  177.5510  138.4700 C   0  0  0  0  0  0  0  0  0  0  0  0
  187.8490  175.4110  136.5980 C   0  0  0  0  0  2  0  0  0  0  0  0
  187.7350  178.1260  140.2280 C   0  0  0  0  0  0  0  0  0  0  0  0
  185.4040  178.5010  139.6290 C   0  0  0  0  0  3  0  0  0  0  0  0
  188.0450  177.8910  138.8680 C   0  0  0  0  0  0  0  0  0  0  0  0
  191.8870  172.5500  136.4480 O   0  0  0  0  0  1  0  0  0  0  0  0
  191.5750  174.0960  134.7840 O   0  0  0  0  0  0  0  0  0  0  0  0
  191.2370  173.6560  135.9190 C   0  0  0  0  0  0  0  0  0  0  0  0
  192.9140  176.6910  137.0660 O   0  0  0  0  0  1  0  0  0  0  0  0
  192.2210  175.6630  137.7020 C   0  0  0  0  0  2  0  0  0  0  0  0
  188.3310  173.2170  135.4470 C   0  0  1  0  0  3  0  0  0  0  0  0
  188.0810  172.2650  136.6210 C   0  0  0  0  0  1  0  0  0  0  0  0
  187.0840  173.4110  134.5980 C   0  0  0  0  0  2  0  0  0  0  0  0
  186.1170  172.3630  134.8840 N   0  0  0  0  0  2  0  0  0  0  0  0
  184.7900  172.9540  134.7990 C   0  0  0  0  0  3  0  0  0  0  0  0
  183.7370  171.8590  134.8700 C   0  0  0  0  0  1  0  0  0  0  0  0
  184.5890  173.9130  135.9500 C   0  0  0  0  0  1  0  0  0  0  0  0
  188.8100  178.1550  141.3060 C   0  0  1  0  0  3  0  0  0  0  0  0
  188.4970  177.3570  142.5760 C   0  0  2  0  0  3  0  0  0  0  0  0
  186.7850  178.1050  144.4040 C   0  0  1  0  0  3  0  0  0  0  0  0
  189.3600  176.6960  144.4670 O   0  0  0  0  0  0  0  0  0  0  0  0
  187.3360  177.2860  145.5690 C   0  0  0  0  0  2  0  0  0  0  0  0
  187.0240  177.3960  143.0590 C   0  0  0  0  0  2  0  0  0  0  0  0
  188.8540  177.3170  145.6090 C   0  0  0  0  0  2  0  0  0  0  0  0
  189.4340  177.6670  143.5760 O   0  0  0  0  0  0  0  0  0  0  0  0
  185.3180  178.4340  144.7340 C   0  0  1  0  0  3  0  0  0  0  0  0
  184.4230  177.8890  147.0080 O   0  0  0  0  0  1  0  0  0  0  0  0
  185.1790  178.7240  146.1940 C   0  0  0  0  0  0  0  0  0  0  0  0
  185.7810  179.7120  146.6970 O   0  0  0  0  0  0  0  0  0  0  0  0
  184.5890  179.5130  143.9150 C   0  0  1  0  0  3  0  0  0  0  0  0
  185.3770  180.0060  142.8770 O   0  0  0  0  0  1  0  0  0  0  0  0
  179.4210  178.2680  142.0610 O   0  0  0  0  0  1  0  0  0  0  0  0
  180.6130  178.8670  142.4770 C   0  0  2  0  0  3  0  0  0  0  0  0
  181.6380  178.8560  140.1870 C   0  0  0  0  0  1  0  0  0  0  0  0
  183.2450  179.0830  143.4250 C   0  0  0  0  0  0  0  0  0  0  0  0
  181.7880  178.3780  141.6230 C   0  0  1  0  0  3  0  0  0  0  0  0
  180.8830  178.4750  143.9190 C   0  0  0  0  0  2  0  0  0  0  0  0
  182.1670  178.9670  144.3210 O   0  0  0  0  0  0  0  0  0  0  0  0
  183.0730  178.8380  142.1610 N   0  0  0  0  0  0  0  0  0  0  0  0
  191.2640  178.1440  141.8040 C   0  0  0  0  0  1  0  0  0  0  0  0
  190.1920  177.7530  140.8020 C   0  0  0  0  0  2  0  0  0  0  0  0
  1 13  2  0  0  0  0
  2  3  1  0  0  0  0
  2 14  1  0  0  0  0
  3  9  1  0  0  0  0
  4  5  1  1  0  0  0
  6 23  1  1  0  0  0
  6 14  1  0  0  0  0
  6 10  1  0  0  0  0
  7  3  2  0  0  0  0
  8 22  1  1  0  0  0
  8  4  1  0  0  0  0
  9 12  2  0  0  0  0
  9 17  1  0  0  0  0
 10 20  1  6  0  0  0
 10  8  1  0  0  0  0
 12 16  1  0  0  0  0
 13  4  1  0  0  0  0
 13 17  1  0  0  0  0
 15 11  1  0  0  0  0
 15 30  1  0  0  0  0
 16 11  2  0  0  0  0
 17 15  2  0  0  0  0
 19 20  2  0  0  0  0
 20 18  1  0  0  0  0
 21 22  1  0  0  0  0
 23 24  1  1  0  0  0
 25 26  1  0  0  0  0
 25 23  1  0  0  0  0
 27 28  1  0  0  0  0
 27 26  1  0  0  0  0
 27 29  1  0  0  0  0
 30 53  1  6  0  0  0
 31 30  1  6  0  0  0
 31 35  1  0  0  0  0
 31 37  1  0  0  0  0
 32 38  1  1  0  0  0
 32 34  1  0  0  0  0
 33 36  1  0  0  0  0
 34 36  1  0  0  0  0
 35 32  1  0  0  0  0
 37 33  1  0  0  0  0
 38 40  1  1  0  0  0
 40 41  2  0  0  0  0
 40 39  1  0  0  0  0
 42 43  1  6  0  0  0
 42 38  1  0  0  0  0
 45 44  1  6  0  0  0
 45 49  1  0  0  0  0
 47 42  1  0  0  0  0
 47 50  1  0  0  0  0
 48 46  1  6  0  0  0
 48 51  1  0  0  0  0
 48 45  1  0  0  0  0
 49 50  1  0  0  0  0
 51 47  2  0  0  0  0
 53 52  1  0  0  0  0
M  END
>  <MODEL>
4

>  <REMARK>
 VINA RESULT:      -6.8      2.009      4.628
  Name = 
  13 active torsions:
  status: ('A' for Active; 'I' for Inactive)
    1  A    between atoms: C_4  and  C_29
    2  A    between atoms: C_4  and  C_31
    3  A    between atoms: C_9  and  C_26
    4  A    between atoms: N_10  and  C_14
    5  A    between atoms: N_10  and  C_45
    6  A    between atoms: C_12  and  C_31
    7  A    between atoms: C_16  and  C_26
    8  A    between atoms: C_17  and  C_19
    9  A    between atoms: C_19  and  C_45
   10  A    between atoms: C_26  and  C_46
   11  A    between atoms: C_28  and  C_31
   12  A    between atoms: C_32  and  C_40
   13  A    between atoms: C_37  and  C_52
                            x       y       z     vdW  Elec       q    Type
                         _______ _______ _______ _____ _____    ______ ____

>  <TORSDO>
F 13

$$$$
=
 OpenBabel11062413593D

 53 56  0  0  1  0  0  0  0  0999 V2000
  183.0260  179.8990  139.6870 O   0  0  0  0  0  0  0  0  0  0  0  0
  179.7510  177.6480  139.3070 O   0  0  0  0  0  0  0  0  0  0  0  0
  179.7120  178.6990  140.2260 C   0  0  0  0  0  0  0  0  0  0  0  0
  183.2050  177.5200  139.7300 C   0  0  2  0  0  3  0  0  0  0  0  0
  184.4840  177.2480  140.2260 O   0  0  0  0  0  1  0  0  0  0  0  0
  180.9400  175.9350  138.1350 C   0  0  2  0  0  3  0  0  0  0  0  0
  178.9320  179.6620  140.0070 O   0  0  0  0  0  0  0  0  0  0  0  0
  183.0900  177.3780  138.2020 C   0  0  2  0  0  3  0  0  0  0  0  0
  180.4930  178.7020  141.4730 C   0  0  0  0  0  0  0  0  0  0  0  0
  182.4590  176.0020  137.8670 C   0  0  2  0  0  3  0  0  0  0  0  0
  181.8100  178.9320  143.9290 C   0  0  0  0  0  3  0  0  0  0  0  0
  179.7770  178.6840  142.6730 C   0  0  0  0  0  3  0  0  0  0  0  0
  182.6770  178.8190  140.2440 C   0  0  0  0  0  0  0  0  0  0  0  0
  180.5360  176.4910  139.4970 C   0  0  0  0  0  2  0  0  0  0  0  0
  182.5710  178.9150  142.7440 C   0  0  0  0  0  0  0  0  0  0  0  0
  180.4280  178.8040  143.8970 C   0  0  0  0  0  3  0  0  0  0  0  0
  181.9050  178.8280  141.4990 C   0  0  0  0  0  0  0  0  0  0  0  0
  181.9860  176.0230  135.4010 O   0  0  0  0  0  0  0  0  0  0  0  0
  183.6540  174.6970  136.2470 O   0  0  0  0  0  1  0  0  0  0  0  0
  182.7540  175.5580  136.4590 C   0  0  0  0  0  0  0  0  0  0  0  0
  184.7790  178.9740  137.6130 O   0  0  0  0  0  1  0  0  0  0  0  0
  184.4230  177.6320  137.5010 C   0  0  0  0  0  2  0  0  0  0  0  0
  180.3810  174.5200  137.9280 C   0  0  1  0  0  3  0  0  0  0  0  0
  179.9530  173.8650  139.2440 C   0  0  0  0  0  1  0  0  0  0  0  0
  179.2600  174.5150  136.8990 C   0  0  0  0  0  2  0  0  0  0  0  0
  179.5480  173.5470  135.8530 N   0  0  0  0  0  2  0  0  0  0  0  0
  180.3030  172.4580  136.4570 C   0  0  0  0  0  3  0  0  0  0  0  0
  179.4240  171.2210  136.5560 C   0  0  0  0  0  1  0  0  0  0  0  0
  181.5100  172.1460  135.6020 C   0  0  0  0  0  1  0  0  0  0  0  0
  184.0760  179.1200  142.8390 C   0  0  1  0  0  3  0  0  0  0  0  0
  184.6310  179.3220  144.2530 C   0  0  2  0  0  3  0  0  0  0  0  0
  186.7040  178.0580  145.2190 C   0  0  1  0  0  3  0  0  0  0  0  0
  184.1700  179.0020  146.3610 O   0  0  0  0  0  0  0  0  0  0  0  0
  186.3920  178.2280  146.7040 C   0  0  0  0  0  2  0  0  0  0  0  0
  186.1730  179.2460  144.3970 C   0  0  0  0  0  2  0  0  0  0  0  0
  184.9180  178.0120  146.9970 C   0  0  0  0  0  2  0  0  0  0  0  0
  183.9320  178.5080  145.1600 O   0  0  0  0  0  0  0  0  0  0  0  0
  188.2150  177.7880  145.1010 C   0  0  1  0  0  3  0  0  0  0  0  0
  189.3680  176.4650  146.8870 O   0  0  0  0  0  0  0  0  0  0  0  0
  188.8170  177.6690  146.4640 C   0  0  0  0  0  0  0  0  0  0  0  0
  188.8570  178.6770  147.2220 O   0  0  0  0  0  1  0  0  0  0  0  0
  188.7030  176.6310  144.2120 C   0  0  1  0  0  3  0  0  0  0  0  0
  187.6460  175.9610  143.5970 O   0  0  0  0  0  1  0  0  0  0  0  0
  192.7580  177.8030  140.4870 O   0  0  0  0  0  1  0  0  0  0  0  0
  191.8550  177.2250  141.3820 C   0  0  2  0  0  3  0  0  0  0  0  0
  190.1210  176.7630  139.6280 C   0  0  0  0  0  1  0  0  0  0  0  0
  189.7420  177.0390  143.2200 C   0  0  0  0  0  0  0  0  0  0  0  0
  190.4120  177.4850  140.9350 C   0  0  1  0  0  3  0  0  0  0  0  0
  192.0450  177.8560  142.7490 C   0  0  0  0  0  2  0  0  0  0  0  0
  191.0390  177.3750  143.6480 O   0  0  0  0  0  0  0  0  0  0  0  0
  189.4470  177.0590  141.9540 N   0  0  0  0  0  0  0  0  0  0  0  0
  186.1910  178.5900  141.6050 C   0  0  0  0  0  1  0  0  0  0  0  0
  184.8860  178.0300  142.1460 C   0  0  0  0  0  2  0  0  0  0  0  0
  1 13  2  0  0  0  0
  2 14  1  0  0  0  0
  2  3  1  0  0  0  0
  3  9  1  0  0  0  0
  4  5  1  6  0  0  0
  4 13  1  0  0  0  0
  6 23  1  1  0  0  0
  6 14  1  0  0  0  0
  7  3  2  0  0  0  0
  8 22  1  6  0  0  0
  8  4  1  0  0  0  0
  9 17  2  0  0  0  0
  9 12  1  0  0  0  0
 10 20  1  6  0  0  0
 10  6  1  0  0  0  0
 10  8  1  0  0  0  0
 12 16  2  0  0  0  0
 13 17  1  0  0  0  0
 15 30  1  0  0  0  0
 15 11  2  0  0  0  0
 16 11  1  0  0  0  0
 17 15  1  0  0  0  0
 18 20  2  0  0  0  0
 19 20  1  0  0  0  0
 22 21  1  0  0  0  0
 23 24  1  1  0  0  0
 25 23  1  0  0  0  0
 26 27  1  0  0  0  0
 26 25  1  0  0  0  0
 27 28  1  0  0  0  0
 29 27  1  0  0  0  0
 30 53  1  1  0  0  0
 31 30  1  6  0  0  0
 31 35  1  0  0  0  0
 31 37  1  0  0  0  0
 32 38  1  1  0  0  0
 32 34  1  0  0  0  0
 33 36  1  0  0  0  0
 34 36  1  0  0  0  0
 35 32  1  0  0  0  0
 37 33  1  0  0  0  0
 38 40  1  1  0  0  0
 40 39  2  0  0  0  0
 40 41  1  0  0  0  0
 42 43  1  6  0  0  0
 42 38  1  0  0  0  0
 45 44  1  6  0  0  0
 45 49  1  0  0  0  0
 47 50  1  0  0  0  0
 47 42  1  0  0  0  0
 48 46  1  6  0  0  0
 48 45  1  0  0  0  0
 48 51  1  0  0  0  0
 49 50  1  0  0  0  0
 51 47  2  0  0  0  0
 52 53  1  0  0  0  0
M  END
>  <MODEL>
5

>  <REMARK>
 VINA RESULT:      -6.2      2.900      4.850
  Name = 
  13 active torsions:
  status: ('A' for Active; 'I' for Inactive)
    1  A    between atoms: C_4  and  C_29
    2  A    between atoms: C_4  and  C_31
    3  A    between atoms: C_9  and  C_26
    4  A    between atoms: N_10  and  C_14
    5  A    between atoms: N_10  and  C_45
    6  A    between atoms: C_12  and  C_31
    7  A    between atoms: C_16  and  C_26
    8  A    between atoms: C_17  and  C_19
    9  A    between atoms: C_19  and  C_45
   10  A    between atoms: C_26  and  C_46
   11  A    between atoms: C_28  and  C_31
   12  A    between atoms: C_32  and  C_40
   13  A    between atoms: C_37  and  C_52
                            x       y       z     vdW  Elec       q    Type
                         _______ _______ _______ _____ _____    ______ ____

>  <TORSDO>
F 13

$$$$
=
 OpenBabel11062413593D

 53 56  0  0  1  0  0  0  0  0999 V2000
  185.8150  176.4440  139.2570 O   0  0  0  0  0  0  0  0  0  0  0  0
  182.4210  175.7050  137.2900 O   0  0  0  0  0  0  0  0  0  0  0  0
  183.4590  174.7790  137.1620 C   0  0  0  0  0  0  0  0  0  0  0  0
  184.8040  178.1590  137.9410 C   0  0  2  0  0  3  0  0  0  0  0  0
  185.7820  179.1480  137.7950 O   0  0  0  0  0  1  0  0  0  0  0  0
  181.6390  177.9450  137.5900 C   0  0  2  0  0  3  0  0  0  0  0  0
  183.2990  173.6240  137.6340 O   0  0  0  0  0  0  0  0  0  0  0  0
  183.7400  178.4930  139.0020 C   0  0  2  0  0  3  0  0  0  0  0  0
  184.7090  175.0720  136.4410 C   0  0  0  0  0  0  0  0  0  0  0  0
  182.4720  179.0370  138.2940 C   0  0  2  0  0  3  0  0  0  0  0  0
  187.1370  175.3400  135.0810 C   0  0  0  0  0  3  0  0  0  0  0  0
  184.9700  174.3230  135.2910 C   0  0  0  0  0  3  0  0  0  0  0  0
  185.4080  176.8050  138.1160 C   0  0  0  0  0  0  0  0  0  0  0  0
  182.4740  177.0000  136.7310 C   0  0  0  0  0  2  0  0  0  0  0  0
  186.8960  176.1410  136.2140 C   0  0  0  0  0  0  0  0  0  0  0  0
  186.1790  174.4490  134.6140 C   0  0  0  0  0  3  0  0  0  0  0  0
  185.6800  175.9860  136.9200 C   0  0  0  0  0  0  0  0  0  0  0  0
  180.9240  179.2210  140.2620 O   0  0  0  0  0  1  0  0  0  0  0  0
  181.4060  181.0690  138.9950 O   0  0  0  0  0  0  0  0  0  0  0  0
  181.5950  179.8400  139.2180 C   0  0  0  0  0  0  0  0  0  0  0  0
  184.3260  178.7510  141.3120 O   0  0  0  0  0  1  0  0  0  0  0  0
  184.2850  179.4170  140.0890 C   0  0  0  0  0  2  0  0  0  0  0  0
  180.4750  178.5400  136.7840 C   0  0  1  0  0  3  0  0  0  0  0  0
  179.1570  178.5200  137.5640 C   0  0  0  0  0  1  0  0  0  0  0  0
  180.8130  179.9330  136.2750 C   0  0  0  0  0  2  0  0  0  0  0  0
  179.6840  180.8270  136.4820 N   0  0  0  0  0  2  0  0  0  0  0  0
  179.8550  181.9650  135.5900 C   0  0  0  0  0  3  0  0  0  0  0  0
  180.1480  183.2140  136.4070 C   0  0  0  0  0  1  0  0  0  0  0  0
  181.0100  181.7010  134.6510 C   0  0  0  0  0  1  0  0  0  0  0  0
  188.0060  177.0540  136.7130 C   0  0  1  0  0  3  0  0  0  0  0  0
  189.1580  176.3600  137.4480 C   0  0  2  0  0  3  0  0  0  0  0  0
  189.9190  176.9430  139.8790 C   0  0  1  0  0  3  0  0  0  0  0  0
  191.3250  176.1120  137.4390 O   0  0  0  0  0  0  0  0  0  0  0  0
  191.3420  176.3940  139.8010 C   0  0  0  0  0  2  0  0  0  0  0  0
  188.9630  176.1490  138.9720 C   0  0  0  0  0  2  0  0  0  0  0  0
  192.0070  176.7410  138.4800 C   0  0  0  0  0  2  0  0  0  0  0  0
  190.3770  176.9690  137.1080 O   0  0  0  0  0  0  0  0  0  0  0  0
  189.5360  176.9970  141.3690 C   0  0  1  0  0  3  0  0  0  0  0  0
  191.7980  177.6560  142.2160 O   0  0  0  0  0  0  0  0  0  0  0  0
  190.7440  176.7500  142.2140 C   0  0  0  0  0  0  0  0  0  0  0  0
  190.7930  175.7310  142.9550 O   0  0  0  0  0  1  0  0  0  0  0  0
  188.7670  178.2180  141.9020 C   0  0  1  0  0  3  0  0  0  0  0  0
  187.8500  178.7070  140.9720 O   0  0  0  0  0  1  0  0  0  0  0  0
  186.3980  177.7250  146.9850 O   0  0  0  0  0  1  0  0  0  0  0  0
  186.9820  178.1470  145.7880 C   0  0  2  0  0  3  0  0  0  0  0  0
  184.7930  178.3960  144.5880 C   0  0  0  0  0  1  0  0  0  0  0  0
  188.1260  177.9860  143.2310 C   0  0  0  0  0  0  0  0  0  0  0  0
  186.1420  177.6930  144.5900 C   0  0  1  0  0  3  0  0  0  0  0  0
  188.3590  177.5190  145.6640 C   0  0  0  0  0  2  0  0  0  0  0  0
  188.9180  177.8300  144.3820 O   0  0  0  0  0  0  0  0  0  0  0  0
  186.8300  177.9530  143.3200 N   0  0  0  0  0  0  0  0  0  0  0  0
  187.5140  178.8550  135.0430 C   0  0  0  0  0  1  0  0  0  0  0  0
  188.5890  177.9560  135.6300 C   0  0  0  0  0  2  0  0  0  0  0  0
  3  2  1  0  0  0  0
  3  7  2  0  0  0  0
  4  5  1  1  0  0  0
  4 13  1  0  0  0  0
  4  8  1  0  0  0  0
  6 23  1  6  0  0  0
  6 10  1  0  0  0  0
  8 22  1  1  0  0  0
  9 17  1  0  0  0  0
  9  3  1  0  0  0  0
 10  8  1  0  0  0  0
 10 20  1  1  0  0  0
 11 15  1  0  0  0  0
 12  9  2  0  0  0  0
 13  1  2  0  0  0  0
 14  2  1  0  0  0  0
 14  6  1  0  0  0  0
 15 30  1  0  0  0  0
 15 17  2  0  0  0  0
 16 11  2  0  0  0  0
 16 12  1  0  0  0  0
 17 13  1  0  0  0  0
 19 20  2  0  0  0  0
 20 18  1  0  0  0  0
 22 21  1  0  0  0  0
 23 24  1  1  0  0  0
 25 26  1  0  0  0  0
 25 23  1  0  0  0  0
 27 28  1  0  0  0  0
 27 26  1  0  0  0  0
 29 27  1  0  0  0  0
 30 53  1  6  0  0  0
 31 30  1  1  0  0  0
 31 35  1  0  0  0  0
 32 38  1  1  0  0  0
 33 36  1  0  0  0  0
 34 32  1  0  0  0  0
 35 32  1  0  0  0  0
 36 34  1  0  0  0  0
 37 33  1  0  0  0  0
 37 31  1  0  0  0  0
 38 42  1  0  0  0  0
 38 40  1  1  0  0  0
 40 39  2  0  0  0  0
 40 41  1  0  0  0  0
 42 43  1  6  0  0  0
 42 47  1  0  0  0  0
 45 44  1  1  0  0  0
 47 51  2  0  0  0  0
 47 50  1  0  0  0  0
 48 46  1  6  0  0  0
 48 45  1  0  0  0  0
 49 45  1  0  0  0  0
 50 49  1  0  0  0  0
 51 48  1  0  0  0  0
 52 53  1  0  0  0  0
M  END
>  <MODEL>
6

>  <REMARK>
 VINA RESULT:      -6.2      3.115      7.134
  Name = 
  13 active torsions:
  status: ('A' for Active; 'I' for Inactive)
    1  A    between atoms: C_4  and  C_29
    2  A    between atoms: C_4  and  C_31
    3  A    between atoms: C_9  and  C_26
    4  A    between atoms: N_10  and  C_14
    5  A    between atoms: N_10  and  C_45
    6  A    between atoms: C_12  and  C_31
    7  A    between atoms: C_16  and  C_26
    8  A    between atoms: C_17  and  C_19
    9  A    between atoms: C_19  and  C_45
   10  A    between atoms: C_26  and  C_46
   11  A    between atoms: C_28  and  C_31
   12  A    between atoms: C_32  and  C_40
   13  A    between atoms: C_37  and  C_52
                            x       y       z     vdW  Elec       q    Type
                         _______ _______ _______ _____ _____    ______ ____

>  <TORSDO>
F 13

$$$$
=
 OpenBabel11062413593D

 53 56  0  0  1  0  0  0  0  0999 V2000
  184.5330  177.5430  135.4890 O   0  0  0  0  0  0  0  0  0  0  0  0
  182.9580  178.9500  138.8760 O   0  0  0  0  0  0  0  0  0  0  0  0
  184.2700  179.3180  138.5690 C   0  0  0  0  0  0  0  0  0  0  0  0
  183.4190  176.0590  136.9890 C   0  0  2  0  0  3  0  0  0  0  0  0
  183.7760  174.7710  136.5800 O   0  0  0  0  0  1  0  0  0  0  0  0
  181.1540  177.3800  138.8090 C   0  0  2  0  0  3  0  0  0  0  0  0
  184.5130  180.5270  138.3190 O   0  0  0  0  0  0  0  0  0  0  0  0
  182.0120  176.4860  136.5350 C   0  0  2  0  0  3  0  0  0  0  0  0
  185.3940  178.3680  138.5890 C   0  0  0  0  0  0  0  0  0  0  0  0
  181.0210  176.3020  137.7130 C   0  0  2  0  0  3  0  0  0  0  0  0
  187.7060  176.7970  138.6160 C   0  0  0  0  0  3  0  0  0  0  0  0
  186.3990  178.5920  139.5330 C   0  0  0  0  0  3  0  0  0  0  0  0
  184.4770  177.0590  136.6550 C   0  0  0  0  0  0  0  0  0  0  0  0
  182.5950  177.6360  139.2410 C   0  0  0  0  0  2  0  0  0  0  0  0
  186.6990  176.5150  137.6730 C   0  0  0  0  0  0  0  0  0  0  0  0
  187.5540  177.8160  139.5470 C   0  0  0  0  0  3  0  0  0  0  0  0
  185.5410  177.3270  137.6390 C   0  0  0  0  0  0  0  0  0  0  0  0
  178.9630  177.3010  136.6790 O   0  0  0  0  0  0  0  0  0  0  0  0
  178.9310  175.1480  137.4660 O   0  0  0  0  0  1  0  0  0  0  0  0
  179.5900  176.2060  137.2550 C   0  0  0  0  0  0  0  0  0  0  0  0
  181.0990  174.5040  135.5440 O   0  0  0  0  0  1  0  0  0  0  0  0
  181.5840  175.7770  135.2520 C   0  0  0  0  0  2  0  0  0  0  0  0
  180.2590  177.0820  140.0210 C   0  0  1  0  0  3  0  0  0  0  0  0
  180.7230  175.8470  140.7980 C   0  0  0  0  0  1  0  0  0  0  0  0
  180.1240  178.3020  140.9190 C   0  0  0  0  0  2  0  0  0  0  0  0
  179.6100  177.9070  142.2210 N   0  0  0  0  0  2  0  0  0  0  0  0
  180.0510  178.9020  143.1880 C   0  0  0  0  0  3  0  0  0  0  0  0
  179.1600  178.8480  144.4190 C   0  0  0  0  0  1  0  0  0  0  0  0
  181.4790  178.6140  143.5930 C   0  0  0  0  0  1  0  0  0  0  0  0
  186.9490  175.4250  136.6400 C   0  0  1  0  0  3  0  0  0  0  0  0
  188.3970  175.2880  136.1580 C   0  0  2  0  0  3  0  0  0  0  0  0
  190.4720  176.2410  137.4290 C   0  0  1  0  0  3  0  0  0  0  0  0
  189.7750  175.9320  134.5940 O   0  0  0  0  0  0  0  0  0  0  0  0
  191.4400  176.3070  136.2500 C   0  0  0  0  0  2  0  0  0  0  0  0
  189.4670  175.0880  137.2630 C   0  0  0  0  0  2  0  0  0  0  0  0
  190.7630  176.8300  134.9950 C   0  0  0  0  0  2  0  0  0  0  0  0
  188.6980  176.3190  135.2520 O   0  0  0  0  0  0  0  0  0  0  0  0
  191.3220  176.2070  138.7120 C   0  0  1  0  0  3  0  0  0  0  0  0
  193.7650  176.6940  138.4690 O   0  0  0  0  0  1  0  0  0  0  0  0
  192.7180  175.7850  138.3850 C   0  0  0  0  0  0  0  0  0  0  0  0
  192.9520  174.5870  138.0640 O   0  0  0  0  0  0  0  0  0  0  0  0
  191.3500  177.4440  139.6260 C   0  0  1  0  0  3  0  0  0  0  0  0
  190.4890  178.4460  139.1790 O   0  0  0  0  0  1  0  0  0  0  0  0
  190.3560  176.6140  145.1040 O   0  0  0  0  0  1  0  0  0  0  0  0
  190.4720  177.0930  143.7970 C   0  0  2  0  0  3  0  0  0  0  0  0
  188.2470  176.1940  143.0680 C   0  0  0  0  0  1  0  0  0  0  0  0
  191.1190  177.1260  141.0660 C   0  0  0  0  0  0  0  0  0  0  0  0
  189.7470  176.1650  142.8170 C   0  0  1  0  0  3  0  0  0  0  0  0
  191.9420  177.1260  143.4150 C   0  0  0  0  0  2  0  0  0  0  0  0
  192.0740  177.4840  142.0350 O   0  0  0  0  0  0  0  0  0  0  0  0
  190.0170  176.5360  141.4230 N   0  0  0  0  0  0  0  0  0  0  0  0
  186.3390  173.1220  135.8680 C   0  0  0  0  0  1  0  0  0  0  0  0
  186.4410  174.0520  137.0650 C   0  0  0  0  0  2  0  0  0  0  0  0
  1 13  2  0  0  0  0
  2 14  1  0  0  0  0
  3  9  1  0  0  0  0
  3  2  1  0  0  0  0
  4  5  1  6  0  0  0
  6 14  1  0  0  0  0
  6 23  1  1  0  0  0
  7  3  2  0  0  0  0
  8 22  1  6  0  0  0
  8  4  1  0  0  0  0
  8 10  1  0  0  0  0
  9 12  1  0  0  0  0
 10 20  1  6  0  0  0
 10  6  1  0  0  0  0
 11 16  1  0  0  0  0
 12 16  2  0  0  0  0
 13  4  1  0  0  0  0
 13 17  1  0  0  0  0
 15 11  2  0  0  0  0
 17 15  1  0  0  0  0
 17  9  2  0  0  0  0
 18 20  2  0  0  0  0
 20 19  1  0  0  0  0
 22 21  1  0  0  0  0
 23 24  1  1  0  0  0
 23 25  1  0  0  0  0
 25 26  1  0  0  0  0
 26 27  1  0  0  0  0
 27 29  1  0  0  0  0
 27 28  1  0  0  0  0
 30 53  1  1  0  0  0
 30 15  1  0  0  0  0
 31 30  1  1  0  0  0
 31 35  1  0  0  0  0
 32 38  1  1  0  0  0
 33 36  1  0  0  0  0
 33 37  1  0  0  0  0
 34 32  1  0  0  0  0
 35 32  1  0  0  0  0
 36 34  1  0  0  0  0
 37 31  1  0  0  0  0
 38 40  1  6  0  0  0
 38 42  1  0  0  0  0
 40 39  1  0  0  0  0
 41 40  2  0  0  0  0
 42 43  1  6  0  0  0
 42 47  1  0  0  0  0
 45 44  1  1  0  0  0
 47 51  2  0  0  0  0
 47 50  1  0  0  0  0
 48 46  1  1  0  0  0
 48 45  1  0  0  0  0
 49 45  1  0  0  0  0
 50 49  1  0  0  0  0
 51 48  1  0  0  0  0
 52 53  1  0  0  0  0
M  END
>  <MODEL>
7

>  <REMARK>
 VINA RESULT:      -6.2      2.880      8.031
  Name = 
  13 active torsions:
  status: ('A' for Active; 'I' for Inactive)
    1  A    between atoms: C_4  and  C_29
    2  A    between atoms: C_4  and  C_31
    3  A    between atoms: C_9  and  C_26
    4  A    between atoms: N_10  and  C_14
    5  A    between atoms: N_10  and  C_45
    6  A    between atoms: C_12  and  C_31
    7  A    between atoms: C_16  and  C_26
    8  A    between atoms: C_17  and  C_19
    9  A    between atoms: C_19  and  C_45
   10  A    between atoms: C_26  and  C_46
   11  A    between atoms: C_28  and  C_31
   12  A    between atoms: C_32  and  C_40
   13  A    between atoms: C_37  and  C_52
                            x       y       z     vdW  Elec       q    Type
                         _______ _______ _______ _____ _____    ______ ____

>  <TORSDO>
F 13

$$$$
=
 OpenBabel11062413593D

 53 56  0  0  1  0  0  0  0  0999 V2000
  184.2370  175.2760  134.5960 O   0  0  0  0  0  0  0  0  0  0  0  0
  181.7390  177.1200  137.1050 O   0  0  0  0  0  0  0  0  0  0  0  0
  182.9250  177.7780  136.7700 C   0  0  0  0  0  0  0  0  0  0  0  0
  183.3380  174.0930  136.4630 C   0  0  2  0  0  3  0  0  0  0  0  0
  184.1140  172.9370  136.5870 O   0  0  0  0  0  1  0  0  0  0  0  0
  180.4990  175.1140  137.5070 C   0  0  2  0  0  3  0  0  0  0  0  0
  182.8560  178.8440  136.1050 O   0  0  0  0  0  0  0  0  0  0  0  0
  181.9740  173.8550  135.7910 C   0  0  2  0  0  3  0  0  0  0  0  0
  184.2490  177.3170  137.2160 C   0  0  0  0  0  0  0  0  0  0  0  0
  180.8800  173.7540  136.8840 C   0  0  2  0  0  3  0  0  0  0  0  0
  186.8680  176.7020  137.9790 C   0  0  0  0  0  3  0  0  0  0  0  0
  184.9610  178.1600  138.0740 C   0  0  0  0  0  3  0  0  0  0  0  0
  184.1090  175.2160  135.8520 C   0  0  0  0  0  0  0  0  0  0  0  0
  181.7050  175.9600  137.9070 C   0  0  0  0  0  2  0  0  0  0  0  0
  186.1710  175.8070  137.1440 C   0  0  0  0  0  0  0  0  0  0  0  0
  186.2660  177.8610  138.4510 C   0  0  0  0  0  3  0  0  0  0  0  0
  184.8570  176.1300  136.7340 C   0  0  0  0  0  0  0  0  0  0  0  0
  179.2150  171.8790  137.0220 O   0  0  0  0  0  1  0  0  0  0  0  0
  179.0360  173.4650  135.3760 O   0  0  0  0  0  0  0  0  0  0  0  0
  179.6430  173.0440  136.4010 C   0  0  0  0  0  0  0  0  0  0  0  0
  183.1610  171.9110  135.0430 O   0  0  0  0  0  1  0  0  0  0  0  0
  182.0060  172.6610  134.8380 C   0  0  0  0  0  2  0  0  0  0  0  0
  179.5210  174.9560  138.6800 C   0  0  1  0  0  3  0  0  0  0  0  0
  180.0030  173.9250  139.7040 C   0  0  0  0  0  1  0  0  0  0  0  0
  179.2140  176.2980  139.3260 C   0  0  0  0  0  2  0  0  0  0  0  0
  179.9020  176.4060  140.6030 N   0  0  0  0  0  2  0  0  0  0  0  0
  179.7810  177.7850  141.0520 C   0  0  0  0  0  3  0  0  0  0  0  0
  180.2300  177.8920  142.5010 C   0  0  0  0  0  1  0  0  0  0  0  0
  180.6520  178.6750  140.1940 C   0  0  0  0  0  1  0  0  0  0  0  0
  186.9040  174.5850  136.6090 C   0  0  1  0  0  3  0  0  0  0  0  0
  188.3370  174.8300  136.1220 C   0  0  2  0  0  3  0  0  0  0  0  0
  190.1270  176.2030  137.4410 C   0  0  1  0  0  3  0  0  0  0  0  0
  189.4970  175.8650  134.5940 O   0  0  0  0  0  0  0  0  0  0  0  0
  191.0370  176.5600  136.2670 C   0  0  0  0  0  2  0  0  0  0  0  0
  189.4340  174.8480  137.2180 C   0  0  0  0  0  2  0  0  0  0  0  0
  190.2390  176.9590  135.0380 C   0  0  0  0  0  2  0  0  0  0  0  0
  188.3650  175.9450  135.2680 O   0  0  0  0  0  0  0  0  0  0  0  0
  190.9730  176.3180  138.7220 C   0  0  1  0  0  3  0  0  0  0  0  0
  192.8940  174.8850  138.0000 O   0  0  0  0  0  0  0  0  0  0  0  0
  192.4190  176.1300  138.3940 C   0  0  0  0  0  0  0  0  0  0  0  0
  193.2060  177.1150  138.4410 O   0  0  0  0  0  1  0  0  0  0  0  0
  190.7980  177.5500  139.6270 C   0  0  1  0  0  3  0  0  0  0  0  0
  190.2990  178.6480  138.9290 O   0  0  0  0  0  1  0  0  0  0  0  0
  187.9720  176.8140  144.4400 O   0  0  0  0  0  1  0  0  0  0  0  0
  188.7830  177.2450  143.3880 C   0  0  2  0  0  3  0  0  0  0  0  0
  186.9940  178.6560  142.3380 C   0  0  0  0  0  1  0  0  0  0  0  0
  189.9990  177.2760  140.8590 C   0  0  0  0  0  0  0  0  0  0  0  0
  187.9460  177.4890  142.1270 C   0  0  1  0  0  3  0  0  0  0  0  0
  189.8010  176.1620  143.0760 C   0  0  0  0  0  2  0  0  0  0  0  0
  190.5530  176.5270  141.9130 O   0  0  0  0  0  0  0  0  0  0  0  0
  188.7950  177.7530  140.9600 N   0  0  0  0  0  0  0  0  0  0  0  0
  186.7050  172.0980  136.8270 C   0  0  0  0  0  1  0  0  0  0  0  0
  186.9080  173.4050  137.5740 C   0  0  0  0  0  2  0  0  0  0  0  0
  1 13  2  0  0  0  0
  2 14  1  0  0  0  0
  3  2  1  0  0  0  0
  3  9  1  0  0  0  0
  4  5  1  6  0  0  0
  6 14  1  0  0  0  0
  6 23  1  1  0  0  0
  7  3  2  0  0  0  0
  8 22  1  1  0  0  0
  8  4  1  0  0  0  0
  8 10  1  0  0  0  0
  9 12  1  0  0  0  0
 10 20  1  6  0  0  0
 10  6  1  0  0  0  0
 11 16  1  0  0  0  0
 12 16  2  0  0  0  0
 13  4  1  0  0  0  0
 13 17  1  0  0  0  0
 15 11  2  0  0  0  0
 17 15  1  0  0  0  0
 17  9  2  0  0  0  0
 19 20  2  0  0  0  0
 20 18  1  0  0  0  0
 22 21  1  0  0  0  0
 23 25  1  0  0  0  0
 23 24  1  1  0  0  0
 25 26  1  0  0  0  0
 26 27  1  0  0  0  0
 27 28  1  0  0  0  0
 29 27  1  0  0  0  0
 30 15  1  0  0  0  0
 30 53  1  1  0  0  0
 31 30  1  1  0  0  0
 31 35  1  0  0  0  0
 32 38  1  1  0  0  0
 33 36  1  0  0  0  0
 33 37  1  0  0  0  0
 34 32  1  0  0  0  0
 35 32  1  0  0  0  0
 36 34  1  0  0  0  0
 37 31  1  0  0  0  0
 38 40  1  6  0  0  0
 38 42  1  0  0  0  0
 39 40  2  0  0  0  0
 40 41  1  0  0  0  0
 42 43  1  6  0  0  0
 42 47  1  0  0  0  0
 45 44  1  1  0  0  0
 47 51  2  0  0  0  0
 47 50  1  0  0  0  0
 48 46  1  1  0  0  0
 48 45  1  0  0  0  0
 49 45  1  0  0  0  0
 50 49  1  0  0  0  0
 51 48  1  0  0  0  0
 52 53  1  0  0  0  0
M  END
>  <MODEL>
8

>  <REMARK>
 VINA RESULT:      -5.8      2.913      7.768
  Name = 
  13 active torsions:
  status: ('A' for Active; 'I' for Inactive)
    1  A    between atoms: C_4  and  C_29
    2  A    between atoms: C_4  and  C_31
    3  A    between atoms: C_9  and  C_26
    4  A    between atoms: N_10  and  C_14
    5  A    between atoms: N_10  and  C_45
    6  A    between atoms: C_12  and  C_31
    7  A    between atoms: C_16  and  C_26
    8  A    between atoms: C_17  and  C_19
    9  A    between atoms: C_19  and  C_45
   10  A    between atoms: C_26  and  C_46
   11  A    between atoms: C_28  and  C_31
   12  A    between atoms: C_32  and  C_40
   13  A    between atoms: C_37  and  C_52
                            x       y       z     vdW  Elec       q    Type
                         _______ _______ _______ _____ _____    ______ ____

>  <TORSDO>
F 13

$$$$
=
 OpenBabel11062413593D

 53 56  0  0  1  0  0  0  0  0999 V2000
  187.6390  176.3550  139.5660 O   0  0  0  0  0  0  0  0  0  0  0  0
  184.5150  174.9910  137.4880 O   0  0  0  0  0  0  0  0  0  0  0  0
  185.6450  174.1740  137.5710 C   0  0  0  0  0  0  0  0  0  0  0  0
  186.5850  177.7550  137.9460 C   0  0  2  0  0  3  0  0  0  0  0  0
  187.4720  178.8130  137.7280 O   0  0  0  0  0  1  0  0  0  0  0  0
  183.4980  177.1540  137.4030 C   0  0  2  0  0  3  0  0  0  0  0  0
  185.5570  173.0840  138.1930 O   0  0  0  0  0  0  0  0  0  0  0  0
  185.4060  178.1130  138.8670 C   0  0  2  0  0  3  0  0  0  0  0  0
  186.9180  174.4990  136.9070 C   0  0  0  0  0  0  0  0  0  0  0  0
  184.1570  178.4160  137.9990 C   0  0  2  0  0  3  0  0  0  0  0  0
  189.4170  174.8380  135.7000 C   0  0  0  0  0  3  0  0  0  0  0  0
  187.3490  173.6320  135.8990 C   0  0  0  0  0  3  0  0  0  0  0  0
  187.2990  176.5100  138.3580 C   0  0  0  0  0  0  0  0  0  0  0  0
  184.4910  176.1960  136.7530 C   0  0  0  0  0  2  0  0  0  0  0  0
  189.0030  175.7560  136.6850 C   0  0  0  0  0  0  0  0  0  0  0  0
  188.5940  173.7940  135.3000 C   0  0  0  0  0  3  0  0  0  0  0  0
  187.7520  175.5700  137.3170 C   0  0  0  0  0  0  0  0  0  0  0  0
  182.9750  180.5860  138.4410 O   0  0  0  0  0  0  0  0  0  0  0  0
  182.4600  178.7190  139.6670 O   0  0  0  0  0  1  0  0  0  0  0  0
  183.1300  179.2380  138.7310 C   0  0  0  0  0  0  0  0  0  0  0  0
  185.5380  178.8160  141.1550 O   0  0  0  0  0  1  0  0  0  0  0  0
  185.7620  179.2310  139.8450 C   0  0  0  0  0  2  0  0  0  0  0  0
  182.3560  177.5040  136.4370 C   0  0  1  0  0  3  0  0  0  0  0  0
  182.6080  176.9760  135.0220 C   0  0  0  0  0  1  0  0  0  0  0  0
  181.0120  177.0460  136.9840 C   0  0  0  0  0  2  0  0  0  0  0  0
  181.1980  175.9190  137.8840 N   0  0  0  0  0  2  0  0  0  0  0  0
  179.8790  175.4790  138.3150 C   0  0  0  0  0  3  0  0  0  0  0  0
  179.9740  174.8650  139.7040 C   0  0  0  0  0  1  0  0  0  0  0  0
  178.9400  176.6640  138.3580 C   0  0  0  0  0  1  0  0  0  0  0  0
  189.9730  176.8440  137.1240 C   0  0  1  0  0  3  0  0  0  0  0  0
  190.9980  176.4300  138.1860 C   0  0  2  0  0  3  0  0  0  0  0  0
  191.0820  177.4010  140.6110 C   0  0  1  0  0  3  0  0  0  0  0  0
  193.1190  176.5330  138.6840 O   0  0  0  0  0  0  0  0  0  0  0  0
  192.5420  177.0810  140.9250 C   0  0  0  0  0  2  0  0  0  0  0  0
  190.4780  176.3670  139.6460 C   0  0  0  0  0  2  0  0  0  0  0  0
  193.4490  177.3770  139.7430 C   0  0  0  0  0  2  0  0  0  0  0  0
  192.1740  177.1840  138.0320 O   0  0  0  0  0  0  0  0  0  0  0  0
  190.3540  177.5630  141.9580 C   0  0  1  0  0  3  0  0  0  0  0  0
  188.4050  176.0900  142.5070 O   0  0  0  0  0  0  0  0  0  0  0  0
  189.7800  176.2510  142.3860 C   0  0  0  0  0  0  0  0  0  0  0  0
  190.5470  175.2730  142.6040 O   0  0  0  0  0  1  0  0  0  0  0  0
  191.0940  178.2200  143.1360 C   0  0  1  0  0  3  0  0  0  0  0  0
  191.2660  179.5900  142.9490 O   0  0  0  0  0  1  0  0  0  0  0  0
  188.6500  176.7630  147.9940 O   0  0  0  0  0  1  0  0  0  0  0  0
  189.1710  176.8430  146.7000 C   0  0  2  0  0  3  0  0  0  0  0  0
  191.4200  175.9390  147.3470 C   0  0  0  0  0  1  0  0  0  0  0  0
  190.4810  177.9220  144.4650 C   0  0  0  0  0  0  0  0  0  0  0  0
  190.6780  177.1210  146.7430 C   0  0  1  0  0  3  0  0  0  0  0  0
  188.5000  177.9930  145.9710 C   0  0  0  0  0  2  0  0  0  0  0  0
  189.1160  178.1780  144.6900 O   0  0  0  0  0  0  0  0  0  0  0  0
  191.2110  177.4020  145.4050 N   0  0  0  0  0  0  0  0  0  0  0  0
  191.5420  176.4990  135.2030 C   0  0  0  0  0  1  0  0  0  0  0  0
  190.7070  177.5120  135.9670 C   0  0  0  0  0  2  0  0  0  0  0  0
  2  3  1  0  0  0  0
  3  7  2  0  0  0  0
  4  5  1  1  0  0  0
  4 13  1  0  0  0  0
  4  8  1  0  0  0  0
  6 23  1  6  0  0  0
  6 10  1  0  0  0  0
  8 22  1  6  0  0  0
  9 17  1  0  0  0  0
  9  3  1  0  0  0  0
 10 20  1  1  0  0  0
 10  8  1  0  0  0  0
 11 15  1  0  0  0  0
 12  9  2  0  0  0  0
 13  1  2  0  0  0  0
 14  6  1  0  0  0  0
 14  2  1  0  0  0  0
 15 30  1  0  0  0  0
 15 17  2  0  0  0  0
 16 11  2  0  0  0  0
 16 12  1  0  0  0  0
 17 13  1  0  0  0  0
 18 20  2  0  0  0  0
 20 19  1  0  0  0  0
 22 21  1  0  0  0  0
 23 24  1  6  0  0  0
 23 25  1  0  0  0  0
 25 26  1  0  0  0  0
 26 27  1  0  0  0  0
 27 29  1  0  0  0  0
 27 28  1  0  0  0  0
 30 53  1  6  0  0  0
 31 30  1  6  0  0  0
 31 35  1  0  0  0  0
 32 34  1  0  0  0  0
 32 38  1  1  0  0  0
 33 36  1  0  0  0  0
 35 32  1  0  0  0  0
 36 34  1  0  0  0  0
 37 31  1  0  0  0  0
 37 33  1  0  0  0  0
 38 40  1  1  0  0  0
 38 42  1  0  0  0  0
 40 39  2  0  0  0  0
 40 41  1  0  0  0  0
 42 43  1  6  0  0  0
 42 47  1  0  0  0  0
 45 48  1  0  0  0  0
 45 44  1  1  0  0  0
 47 50  1  0  0  0  0
 47 51  2  0  0  0  0
 48 46  1  6  0  0  0
 49 45  1  0  0  0  0
 50 49  1  0  0  0  0
 51 48  1  0  0  0  0
 52 53  1  0  0  0  0
M  END
>  <MODEL>
9

>  <REMARK>
 VINA RESULT:      -5.8      2.659      6.442
  Name = 
  13 active torsions:
  status: ('A' for Active; 'I' for Inactive)
    1  A    between atoms: C_4  and  C_29
    2  A    between atoms: C_4  and  C_31
    3  A    between atoms: C_9  and  C_26
    4  A    between atoms: N_10  and  C_14
    5  A    between atoms: N_10  and  C_45
    6  A    between atoms: C_12  and  C_31
    7  A    between atoms: C_16  and  C_26
    8  A    between atoms: C_17  and  C_19
    9  A    between atoms: C_19  and  C_45
   10  A    between atoms: C_26  and  C_46
   11  A    between atoms: C_28  and  C_31
   12  A    between atoms: C_32  and  C_40
   13  A    between atoms: C_37  and  C_52
                            x       y       z     vdW  Elec       q    Type
                         _______ _______ _______ _____ _____    ______ ____

>  <TORSDO>
F 13

$$$$
