=
 OpenBabel11062413293D

 30 35  0  0  1  0  0  0  0  0999 V2000
  189.1030  177.8470  140.5120 N   0  0  0  0  0  0  0  0  0  0  0  0
  186.2440  176.7540  136.0370 C   0  0  1  0  0  3  0  0  0  0  0  0
  188.0720  176.5930  137.5290 C   0  0  1  0  0  3  0  0  0  0  0  0
  187.1490  178.5240  139.2220 C   0  0  0  0  0  3  0  0  0  0  0  0
  185.6900  177.6080  135.0020 N   0  0  0  0  0  1  0  0  0  0  0  0
  188.4870  175.8040  136.3000 C   0  0  2  0  0  3  0  0  0  0  0  0
  187.2490  175.7830  135.4220 C   0  0  1  0  0  3  0  0  0  0  0  0
  186.7170  174.4290  135.4680 N   0  0  0  0  0  2  0  0  0  0  0  0
  187.7870  173.5840  135.8130 N   0  0  0  0  0  2  0  0  0  0  0  0
  190.4210  176.0890  141.4690 N   0  0  0  0  0  2  0  0  0  0  0  0
  188.6590  178.2960  139.2080 C   0  0  2  0  0  3  0  0  0  0  0  0
  189.8130  176.7880  140.3730 C   0  0  0  0  0  0  0  0  0  0  0  0
  189.9330  176.3420  138.9740 C   0  0  0  0  0  2  0  0  0  0  0  0
  189.1660  177.3160  138.1920 N   0  0  1  0  0  0  0  0  0  0  0  0
  186.3810  178.1920  138.1680 C   0  0  0  0  0  0  0  0  0  0  0  0
  187.0740  177.5760  136.9920 C   0  0  2  0  0  3  0  0  0  0  0  0
  188.6800  174.3580  136.6630 C   0  0  0  0  0  2  0  0  0  0  0  0
  191.6600  178.3590  143.7220 C   0  0  0  0  0  2  0  0  0  0  0  0
  189.8830  177.8570  145.4630 C   0  0  0  0  0  2  0  0  0  0  0  0
  189.1330  176.3640  143.5780 C   0  0  0  0  0  3  0  0  0  0  0  0
  190.3590  176.4640  142.8260 N   0  0  0  0  0  0  0  0  0  0  0  0
  188.9060  176.9710  144.7500 C   0  0  0  0  0  3  0  0  0  0  0  0
  191.6080  176.8520  143.4700 C   0  0  0  0  0  2  0  0  0  0  0  0
  190.4580  178.8960  144.5070 C   0  0  0  0  0  2  0  0  0  0  0  0
  184.8960  178.4210  138.1800 C   0  0  1  0  0  3  0  0  0  0  0  0
  182.6780  177.5570  138.8440 C   0  0  0  0  0  2  0  0  0  0  0  0
  183.1120  179.7650  138.9700 C   0  0  0  0  0  2  0  0  0  0  0  0
  184.1560  177.1970  138.7190 C   0  0  0  0  0  2  0  0  0  0  0  0
  184.5670  179.6130  138.9640 N   0  0  0  0  0  2  0  0  0  0  0  0
  182.5240  178.6920  139.6620 O   0  0  0  0  0  0  0  0  0  0  0  0
  2  5  1  6  0  0  0
  2 16  1  0  0  0  0
  3 14  1  0  0  0  0
  6 17  1  0  0  0  0
  6  3  1  0  0  0  0
  7  8  1  0  0  0  0
  7  2  1  0  0  0  0
  7  6  1  0  0  0  0
  8  9  1  0  0  0  0
  9 17  1  0  0  0  0
 10 21  1  0  0  0  0
 11  4  1  0  0  0  0
 11  1  1  0  0  0  0
 12  1  2  0  0  0  0
 12 10  1  0  0  0  0
 13 12  1  0  0  0  0
 14 13  1  0  0  0  0
 14 11  1  0  0  0  0
 15 25  1  0  0  0  0
 15  4  2  0  0  0  0
 16  3  1  0  0  0  0
 16 15  1  0  0  0  0
 18 24  1  0  0  0  0
 20 22  2  0  0  0  0
 21 23  1  0  0  0  0
 21 20  1  0  0  0  0
 22 19  1  0  0  0  0
 23 18  1  0  0  0  0
 24 19  1  0  0  0  0
 25 28  1  0  0  0  0
 25 29  1  0  0  0  0
 26 30  1  0  0  0  0
 27 30  1  0  0  0  0
 28 26  1  0  0  0  0
 29 27  1  0  0  0  0
M  END
>  <MODEL>
1

>  <REMARK>
 VINA RESULT:      -7.8      0.000      0.000
  Name = 
  2 active torsions:
  status: ('A' for Active; 'I' for Inactive)
    1  A    between atoms: C_2  and  C_27
    2  A    between atoms: N_14  and  N_21
                            x       y       z     vdW  Elec       q    Type
                         _______ _______ _______ _____ _____    ______ ____

>  <TORSDO>
F 2

$$$$
=
 OpenBabel11062413293D

 30 35  0  0  1  0  0  0  0  0999 V2000
  185.5720  178.6290  138.9430 N   0  0  0  0  0  0  0  0  0  0  0  0
  181.5080  178.3760  142.5230 C   0  0  1  0  0  3  0  0  0  0  0  0
  182.5040  178.3780  140.3770 C   0  0  1  0  0  3  0  0  0  0  0  0
  185.0150  178.9200  141.2970 C   0  0  0  0  0  3  0  0  0  0  0  0
  181.0890  179.2720  143.5850 N   0  0  0  0  0  1  0  0  0  0  0  0
  181.0070  178.3880  140.1250 C   0  0  2  0  0  3  0  0  0  0  0  0
  180.3840  178.2260  141.4990 C   0  0  1  0  0  3  0  0  0  0  0  0
  179.8370  176.8790  141.5630 N   0  0  0  0  0  2  0  0  0  0  0  0
  179.6000  176.4740  140.2370 N   0  0  0  0  0  2  0  0  0  0  0  0
  185.3960  177.3270  136.9390 N   0  0  0  0  0  2  0  0  0  0  0  0
  184.7110  179.3430  139.8630 C   0  0  2  0  0  3  0  0  0  0  0  0
  184.8560  178.0970  138.0220 C   0  0  0  0  0  0  0  0  0  0  0  0
  183.4120  178.3400  138.1890 C   0  0  0  0  0  2  0  0  0  0  0  0
  183.2960  179.1470  139.4070 N   0  0  1  0  0  0  0  0  0  0  0  0
  184.0340  178.7610  142.2040 C   0  0  0  0  0  0  0  0  0  0  0  0
  182.6330  179.0030  141.7350 C   0  0  2  0  0  3  0  0  0  0  0  0
  180.6020  177.1290  139.4090 C   0  0  0  0  0  2  0  0  0  0  0  0
  188.4740  178.8390  136.8440 C   0  0  0  0  0  2  0  0  0  0  0  0
  189.7440  176.6430  136.9390 C   0  0  0  0  0  2  0  0  0  0  0  0
  187.3690  175.8230  137.1160 C   0  0  0  0  0  3  0  0  0  0  0  0
  186.7620  177.0660  136.7100 N   0  0  0  0  0  0  0  0  0  0  0  0
  188.6880  175.6160  137.2180 C   0  0  0  0  0  3  0  0  0  0  0  0
  187.5120  178.0570  135.9480 C   0  0  0  0  0  2  0  0  0  0  0  0
  189.4220  177.9500  137.6570 C   0  0  0  0  0  2  0  0  0  0  0  0
  184.3350  178.3480  143.6180 C   0  0  1  0  0  3  0  0  0  0  0  0
  186.0560  177.6230  145.2360 C   0  0  0  0  0  2  0  0  0  0  0  0
  184.3990  179.0030  145.8940 C   0  0  0  0  0  2  0  0  0  0  0  0
  185.7820  177.8780  143.7560 C   0  0  0  0  0  2  0  0  0  0  0  0
  184.0560  179.4480  144.5430 N   0  0  0  0  0  2  0  0  0  0  0  0
  185.7850  178.7830  145.9850 O   0  0  0  0  0  0  0  0  0  0  0  0
  1 11  1  0  0  0  0
  2  5  1  1  0  0  0
  3 16  1  0  0  0  0
  4 15  2  0  0  0  0
  6  3  1  0  0  0  0
  6  7  1  0  0  0  0
  7  8  1  0  0  0  0
  7  2  1  0  0  0  0
  9  8  1  0  0  0  0
 10 12  1  0  0  0  0
 11  4  1  0  0  0  0
 12 13  1  0  0  0  0
 12  1  2  0  0  0  0
 13 14  1  0  0  0  0
 14 11  1  0  0  0  0
 14  3  1  0  0  0  0
 15 25  1  0  0  0  0
 16 15  1  0  0  0  0
 16  2  1  0  0  0  0
 17  6  1  0  0  0  0
 17  9  1  0  0  0  0
 18 24  1  0  0  0  0
 19 22  1  0  0  0  0
 19 24  1  0  0  0  0
 20 22  2  0  0  0  0
 21 10  1  0  0  0  0
 21 20  1  0  0  0  0
 23 21  1  0  0  0  0
 23 18  1  0  0  0  0
 25 28  1  0  0  0  0
 25 29  1  0  0  0  0
 26 30  1  0  0  0  0
 27 30  1  0  0  0  0
 28 26  1  0  0  0  0
 29 27  1  0  0  0  0
M  END
>  <MODEL>
2

>  <REMARK>
 VINA RESULT:      -7.3      3.465      7.227
  Name = 
  2 active torsions:
  status: ('A' for Active; 'I' for Inactive)
    1  A    between atoms: C_2  and  C_27
    2  A    between atoms: N_14  and  N_21
                            x       y       z     vdW  Elec       q    Type
                         _______ _______ _______ _____ _____    ______ ____

>  <TORSDO>
F 2

$$$$
=
 OpenBabel11062413293D

 30 35  0  0  1  0  0  0  0  0999 V2000
  188.8800  177.6980  141.0380 N   0  0  0  0  0  0  0  0  0  0  0  0
  189.6030  176.3730  135.8310 C   0  0  1  0  0  3  0  0  0  0  0  0
  190.2420  176.7370  138.0790 C   0  0  1  0  0  3  0  0  0  0  0  0
  187.8040  177.6910  138.8520 C   0  0  0  0  0  3  0  0  0  0  0  0
  189.3220  177.0840  134.5970 N   0  0  0  0  0  1  0  0  0  0  0  0
  191.5360  176.4700  137.3320 C   0  0  2  0  0  3  0  0  0  0  0  0
  191.0990  176.0830  135.9310 C   0  0  1  0  0  3  0  0  0  0  0  0
  191.3340  174.6540  135.7910 N   0  0  0  0  0  2  0  0  0  0  0  0
  192.3310  174.3130  136.7230 N   0  0  0  0  0  2  0  0  0  0  0  0
  190.1790  176.5450  142.6890 N   0  0  0  0  0  2  0  0  0  0  0  0
  189.0070  178.1550  139.6700 C   0  0  2  0  0  3  0  0  0  0  0  0
  189.9630  177.1080  141.3870 C   0  0  0  0  0  0  0  0  0  0  0  0
  190.9700  177.0470  140.3120 C   0  0  0  0  0  2  0  0  0  0  0  0
  190.3510  177.7190  139.1670 N   0  0  1  0  0  0  0  0  0  0  0  0
  187.9410  177.2720  137.5810 C   0  0  0  0  0  0  0  0  0  0  0  0
  189.3280  177.2680  137.0140 C   0  0  2  0  0  3  0  0  0  0  0  0
  192.1770  175.2150  137.8550 C   0  0  0  0  0  2  0  0  0  0  0  0
  189.7590  177.7920  145.8570 C   0  0  0  0  0  2  0  0  0  0  0  0
  187.2590  177.3530  145.8810 C   0  0  0  0  0  2  0  0  0  0  0  0
  187.8450  176.6140  143.5450 C   0  0  0  0  0  3  0  0  0  0  0  0
  189.2700  176.5770  143.7650 N   0  0  0  0  0  0  0  0  0  0  0  0
  186.9390  176.9510  144.4720 C   0  0  0  0  0  3  0  0  0  0  0  0
  189.8210  176.4590  145.1090 C   0  0  0  0  0  2  0  0  0  0  0  0
  188.3570  178.4110  145.9000 C   0  0  0  0  0  2  0  0  0  0  0  0
  186.7560  176.8200  136.7740 C   0  0  1  0  0  3  0  0  0  0  0  0
  185.1740  174.9880  136.2760 C   0  0  0  0  0  2  0  0  0  0  0  0
  184.4540  177.1240  136.3080 C   0  0  0  0  0  2  0  0  0  0  0  0
  186.4710  175.3360  137.0020 C   0  0  0  0  0  2  0  0  0  0  0  0
  185.5790  177.6300  137.0930 N   0  0  0  0  0  2  0  0  0  0  0  0
  184.1310  175.8200  136.7240 O   0  0  0  0  0  0  0  0  0  0  0  0
  1 12  2  0  0  0  0
  2  5  1  6  0  0  0
  2  7  1  0  0  0  0
  2 16  1  0  0  0  0
  3 14  1  0  0  0  0
  4 11  1  0  0  0  0
  6 17  1  0  0  0  0
  6  3  1  0  0  0  0
  7  6  1  0  0  0  0
  8  7  1  0  0  0  0
  8  9  1  0  0  0  0
  9 17  1  0  0  0  0
 10 21  1  0  0  0  0
 11  1  1  0  0  0  0
 12 10  1  0  0  0  0
 13 12  1  0  0  0  0
 14 11  1  0  0  0  0
 14 13  1  0  0  0  0
 15  4  2  0  0  0  0
 16 15  1  0  0  0  0
 16  3  1  0  0  0  0
 18 24  1  0  0  0  0
 19 24  1  0  0  0  0
 20 21  1  0  0  0  0
 20 22  2  0  0  0  0
 21 23  1  0  0  0  0
 22 19  1  0  0  0  0
 23 18  1  0  0  0  0
 25 28  1  0  0  0  0
 25 29  1  0  0  0  0
 25 15  1  0  0  0  0
 26 30  1  0  0  0  0
 26 28  1  0  0  0  0
 27 30  1  0  0  0  0
 27 29  1  0  0  0  0
M  END
>  <MODEL>
3

>  <REMARK>
 VINA RESULT:      -7.2      2.176      2.902
  Name = 
  2 active torsions:
  status: ('A' for Active; 'I' for Inactive)
    1  A    between atoms: C_2  and  C_27
    2  A    between atoms: N_14  and  N_21
                            x       y       z     vdW  Elec       q    Type
                         _______ _______ _______ _____ _____    ______ ____

>  <TORSDO>
F 2

$$$$
=
 OpenBabel11062413293D

 30 35  0  0  1  0  0  0  0  0999 V2000
  185.3150  178.6410  139.4720 N   0  0  0  0  0  0  0  0  0  0  0  0
  190.3250  176.9860  140.7190 C   0  0  1  0  0  3  0  0  0  0  0  0
  188.1840  177.9020  141.1330 C   0  0  1  0  0  3  0  0  0  0  0  0
  187.4210  177.8760  138.5130 C   0  0  0  0  0  3  0  0  0  0  0  0
  191.6270  177.3320  140.1800 N   0  0  0  0  0  1  0  0  0  0  0  0
  188.9550  178.0830  142.4280 C   0  0  2  0  0  3  0  0  0  0  0  0
  190.2650  177.3520  142.2010 C   0  0  1  0  0  3  0  0  0  0  0  0
  190.2220  176.1400  143.0060 N   0  0  0  0  0  2  0  0  0  0  0  0
  189.3070  176.3780  144.0480 N   0  0  0  0  0  2  0  0  0  0  0  0
  183.5940  178.3740  141.1180 N   0  0  0  0  0  2  0  0  0  0  0  0
  186.7380  178.9050  139.4100 C   0  0  2  0  0  3  0  0  0  0  0  0
  184.9470  178.6040  140.7000 C   0  0  0  0  0  0  0  0  0  0  0  0
  186.0550  178.8040  141.6510 C   0  0  0  0  0  2  0  0  0  0  0  0
  187.2470  178.9900  140.8180 N   0  0  1  0  0  0  0  0  0  0  0  0
  188.6280  177.3700  138.8210 C   0  0  0  0  0  0  0  0  0  0  0  0
  189.2620  177.8520  140.0900 C   0  0  2  0  0  3  0  0  0  0  0  0
  188.3010  177.2910  143.5260 C   0  0  0  0  0  2  0  0  0  0  0  0
  181.9310  179.7840  138.4700 C   0  0  0  0  0  2  0  0  0  0  0  0
  180.6310  177.6700  137.9410 C   0  0  0  0  0  2  0  0  0  0  0  0
  182.0760  176.8720  139.8430 C   0  0  0  0  0  3  0  0  0  0  0  0
  182.4860  178.1870  140.2680 N   0  0  0  0  0  0  0  0  0  0  0  0
  181.2520  176.6240  138.8170 C   0  0  0  0  0  3  0  0  0  0  0  0
  181.7020  179.3680  139.9230 C   0  0  0  0  0  2  0  0  0  0  0  0
  181.6870  178.6580  137.4580 C   0  0  0  0  0  2  0  0  0  0  0  0
  189.3030  176.3600  137.9350 C   0  0  1  0  0  3  0  0  0  0  0  0
  189.0220  174.5960  136.2280 C   0  0  0  0  0  2  0  0  0  0  0  0
  190.7790  176.0030  136.1170 C   0  0  0  0  0  2  0  0  0  0  0  0
  188.2750  175.4870  137.2170 C   0  0  0  0  0  2  0  0  0  0  0  0
  190.1810  177.0280  136.9720 N   0  0  0  0  0  2  0  0  0  0  0  0
  189.7810  175.3850  135.3440 O   0  0  0  0  0  0  0  0  0  0  0  0
  1 12  2  0  0  0  0
  2  5  1  6  0  0  0
  2  7  1  0  0  0  0
  3  6  1  0  0  0  0
  4 15  2  0  0  0  0
  4 11  1  0  0  0  0
  6 17  1  0  0  0  0
  7  6  1  0  0  0  0
  7  8  1  0  0  0  0
  8  9  1  0  0  0  0
 11  1  1  0  0  0  0
 11 14  1  0  0  0  0
 12 10  1  0  0  0  0
 12 13  1  0  0  0  0
 14  3  1  0  0  0  0
 14 13  1  0  0  0  0
 15 16  1  0  0  0  0
 16  2  1  0  0  0  0
 16  3  1  0  0  0  0
 17  9  1  0  0  0  0
 18 23  1  0  0  0  0
 19 22  1  0  0  0  0
 20 21  1  0  0  0  0
 21 10  1  0  0  0  0
 22 20  2  0  0  0  0
 23 21  1  0  0  0  0
 24 19  1  0  0  0  0
 24 18  1  0  0  0  0
 25 15  1  0  0  0  0
 26 28  1  0  0  0  0
 27 29  1  0  0  0  0
 28 25  1  0  0  0  0
 29 25  1  0  0  0  0
 30 27  1  0  0  0  0
 30 26  1  0  0  0  0
M  END
>  <MODEL>
4

>  <REMARK>
 VINA RESULT:      -7.0      2.689      7.373
  Name = 
  2 active torsions:
  status: ('A' for Active; 'I' for Inactive)
    1  A    between atoms: C_2  and  C_27
    2  A    between atoms: N_14  and  N_21
                            x       y       z     vdW  Elec       q    Type
                         _______ _______ _______ _____ _____    ______ ____

>  <TORSDO>
F 2

$$$$
=
 OpenBabel11062413293D

 30 35  0  0  1  0  0  0  0  0999 V2000
  187.8190  178.2750  139.8090 N   0  0  0  0  0  0  0  0  0  0  0  0
  184.9570  175.7980  135.9280 C   0  0  1  0  0  3  0  0  0  0  0  0
  186.8860  176.3200  137.1930 C   0  0  1  0  0  3  0  0  0  0  0  0
  185.6600  178.2520  138.6810 C   0  0  0  0  0  3  0  0  0  0  0  0
  184.1260  176.3100  134.8540 N   0  0  0  0  0  1  0  0  0  0  0  0
  187.3780  175.4470  136.0540 C   0  0  2  0  0  3  0  0  0  0  0  0
  186.1160  174.9910  135.3450 C   0  0  1  0  0  3  0  0  0  0  0  0
  185.9390  173.5800  135.6570 N   0  0  0  0  0  2  0  0  0  0  0  0
  187.2090  173.0760  135.9900 N   0  0  0  0  0  2  0  0  0  0  0  0
  189.6050  177.0590  140.8480 N   0  0  0  0  0  2  0  0  0  0  0  0
  187.1720  178.3770  138.5180 C   0  0  2  0  0  3  0  0  0  0  0  0
  188.7540  177.3990  139.7440 C   0  0  0  0  0  0  0  0  0  0  0  0
  188.8640  176.7580  138.4210 C   0  0  0  0  0  2  0  0  0  0  0  0
  187.8190  177.3790  137.6040 N   0  0  1  0  0  0  0  0  0  0  0  0
  184.9130  177.5750  137.7900 C   0  0  0  0  0  0  0  0  0  0  0  0
  185.6350  176.9410  136.6420 C   0  0  2  0  0  3  0  0  0  0  0  0
  187.9510  174.1690  136.6000 C   0  0  0  0  0  2  0  0  0  0  0  0
  188.1170  176.7520  143.9240 C   0  0  0  0  0  2  0  0  0  0  0  0
  189.8060  178.2530  145.0790 C   0  0  0  0  0  2  0  0  0  0  0  0
  190.7440  178.1980  142.7420 C   0  0  0  0  0  3  0  0  0  0  0  0
  189.5640  177.6380  142.1320 N   0  0  0  0  0  0  0  0  0  0  0  0
  190.8680  178.4810  144.0460 C   0  0  0  0  0  3  0  0  0  0  0  0
  188.2600  177.7500  142.7730 C   0  0  0  0  0  2  0  0  0  0  0  0
  189.2400  176.8420  144.9630 C   0  0  0  0  0  2  0  0  0  0  0  0
  183.4230  177.4560  137.9490 C   0  0  1  0  0  3  0  0  0  0  0  0
  181.5540  176.5020  139.2550 C   0  0  0  0  0  2  0  0  0  0  0  0
  181.3900  178.5840  138.4060 C   0  0  0  0  0  2  0  0  0  0  0  0
  183.0660  176.4570  139.0480 C   0  0  0  0  0  2  0  0  0  0  0  0
  182.8290  178.7660  138.2260 N   0  0  0  0  0  2  0  0  0  0  0  0
  181.1470  177.8150  139.5580 O   0  0  0  0  0  0  0  0  0  0  0  0
  2  5  1  6  0  0  0
  2 16  1  0  0  0  0
  3 14  1  0  0  0  0
  6 17  1  0  0  0  0
  6  3  1  0  0  0  0
  7  8  1  0  0  0  0
  7  2  1  0  0  0  0
  7  6  1  0  0  0  0
  8  9  1  0  0  0  0
  9 17  1  0  0  0  0
 10 21  1  0  0  0  0
 11  4  1  0  0  0  0
 11  1  1  0  0  0  0
 12  1  2  0  0  0  0
 12 10  1  0  0  0  0
 13 12  1  0  0  0  0
 14 13  1  0  0  0  0
 14 11  1  0  0  0  0
 15 25  1  0  0  0  0
 15  4  2  0  0  0  0
 16  3  1  0  0  0  0
 16 15  1  0  0  0  0
 18 24  1  0  0  0  0
 20 22  2  0  0  0  0
 21 20  1  0  0  0  0
 21 23  1  0  0  0  0
 22 19  1  0  0  0  0
 23 18  1  0  0  0  0
 24 19  1  0  0  0  0
 25 29  1  0  0  0  0
 25 28  1  0  0  0  0
 26 30  1  0  0  0  0
 27 30  1  0  0  0  0
 28 26  1  0  0  0  0
 29 27  1  0  0  0  0
M  END
>  <MODEL>
5

>  <REMARK>
 VINA RESULT:      -7.0      1.282      1.859
  Name = 
  2 active torsions:
  status: ('A' for Active; 'I' for Inactive)
    1  A    between atoms: C_2  and  C_27
    2  A    between atoms: N_14  and  N_21
                            x       y       z     vdW  Elec       q    Type
                         _______ _______ _______ _____ _____    ______ ____

>  <TORSDO>
F 2

$$$$
=
 OpenBabel11062413293D

 30 35  0  0  1  0  0  0  0  0999 V2000
  185.4220  178.6020  142.2890 N   0  0  0  0  0  0  0  0  0  0  0  0
  183.6670  177.4650  137.2870 C   0  0  1  0  0  3  0  0  0  0  0  0
  185.2590  178.0160  138.9480 C   0  0  1  0  0  3  0  0  0  0  0  0
  183.4160  178.2760  140.9450 C   0  0  0  0  0  3  0  0  0  0  0  0
  182.6320  178.0570  136.4610 N   0  0  0  0  0  1  0  0  0  0  0  0
  186.0070  178.1050  137.6310 C   0  0  2  0  0  3  0  0  0  0  0  0
  185.0220  177.5970  136.5940 C   0  0  1  0  0  3  0  0  0  0  0  0
  185.4870  176.2850  136.1700 N   0  0  0  0  0  2  0  0  0  0  0  0
  186.8690  176.2410  136.4310 N   0  0  0  0  0  2  0  0  0  0  0  0
  187.6170  177.8680  142.9120 N   0  0  0  0  0  2  0  0  0  0  0  0
  184.7150  179.0610  141.1110 C   0  0  2  0  0  3  0  0  0  0  0  0
  186.6360  178.3360  141.9750 C   0  0  0  0  0  0  0  0  0  0  0  0
  186.9290  178.5400  140.5450 C   0  0  0  0  0  2  0  0  0  0  0  0
  185.6700  179.0030  139.9560 N   0  0  1  0  0  0  0  0  0  0  0  0
  182.9790  177.8950  139.7310 C   0  0  0  0  0  0  0  0  0  0  0  0
  183.8310  178.2640  138.5570 C   0  0  2  0  0  3  0  0  0  0  0  0
  187.1060  177.0800  137.5970 C   0  0  0  0  0  2  0  0  0  0  0  0
  189.2880  177.4970  145.8840 C   0  0  0  0  0  2  0  0  0  0  0  0
  187.2200  177.9120  147.2950 C   0  0  0  0  0  2  0  0  0  0  0  0
  186.2870  178.2470  144.9790 C   0  0  0  0  0  3  0  0  0  0  0  0
  187.4110  177.6630  144.2910 N   0  0  0  0  0  0  0  0  0  0  0  0
  186.1830  178.3620  146.3090 C   0  0  0  0  0  3  0  0  0  0  0  0
  188.3170  176.7460  144.9720 C   0  0  0  0  0  2  0  0  0  0  0  0
  188.5980  178.4230  146.8920 C   0  0  0  0  0  2  0  0  0  0  0  0
  181.6970  177.1260  139.5670 C   0  0  1  0  0  3  0  0  0  0  0  0
  180.5660  174.9370  139.7410 C   0  0  0  0  0  2  0  0  0  0  0  0
  179.4690  176.8210  140.3120 C   0  0  0  0  0  2  0  0  0  0  0  0
  181.9260  175.6300  139.7710 C   0  0  0  0  0  2  0  0  0  0  0  0
  180.6770  177.6270  140.4900 N   0  0  0  0  0  2  0  0  0  0  0  0
  179.7170  175.4970  140.7130 O   0  0  0  0  0  0  0  0  0  0  0  0
  2  5  1  6  0  0  0
  2 16  1  0  0  0  0
  3 14  1  0  0  0  0
  4 11  1  0  0  0  0
  6  3  1  0  0  0  0
  7  2  1  0  0  0  0
  7  6  1  0  0  0  0
  8  9  1  0  0  0  0
  8  7  1  0  0  0  0
  9 17  1  0  0  0  0
 10 21  1  0  0  0  0
 11  1  1  0  0  0  0
 12  1  2  0  0  0  0
 12 10  1  0  0  0  0
 13 12  1  0  0  0  0
 14 13  1  0  0  0  0
 14 11  1  0  0  0  0
 15  4  2  0  0  0  0
 16  3  1  0  0  0  0
 16 15  1  0  0  0  0
 17  6  1  0  0  0  0
 18 24  1  0  0  0  0
 20 22  2  0  0  0  0
 21 23  1  0  0  0  0
 21 20  1  0  0  0  0
 22 19  1  0  0  0  0
 23 18  1  0  0  0  0
 24 19  1  0  0  0  0
 25 15  1  0  0  0  0
 25 28  1  0  0  0  0
 25 29  1  0  0  0  0
 26 28  1  0  0  0  0
 26 30  1  0  0  0  0
 27 29  1  0  0  0  0
 27 30  1  0  0  0  0
M  END
>  <MODEL>
6

>  <REMARK>
 VINA RESULT:      -7.0      2.548      3.671
  Name = 
  2 active torsions:
  status: ('A' for Active; 'I' for Inactive)
    1  A    between atoms: C_2  and  C_27
    2  A    between atoms: N_14  and  N_21
                            x       y       z     vdW  Elec       q    Type
                         _______ _______ _______ _____ _____    ______ ____

>  <TORSDO>
F 2

$$$$
=
 OpenBabel11062413293D

 30 35  0  0  1  0  0  0  0  0999 V2000
  183.8370  178.8570  139.5230 N   0  0  0  0  0  0  0  0  0  0  0  0
  189.0350  177.3950  140.0070 C   0  0  1  0  0  3  0  0  0  0  0  0
  186.9370  178.2010  140.7440 C   0  0  1  0  0  3  0  0  0  0  0  0
  185.8180  178.2180  138.2550 C   0  0  0  0  0  3  0  0  0  0  0  0
  190.2340  177.8160  139.3060 N   0  0  0  0  0  1  0  0  0  0  0  0
  187.8730  178.3780  141.9260 C   0  0  2  0  0  3  0  0  0  0  0  0
  189.1670  177.7140  141.4950 C   0  0  1  0  0  3  0  0  0  0  0  0
  189.2870  176.4780  142.2540 N   0  0  0  0  0  2  0  0  0  0  0  0
  188.5160  176.6430  143.4200 N   0  0  0  0  0  2  0  0  0  0  0  0
  182.3740  178.4640  141.3800 N   0  0  0  0  0  2  0  0  0  0  0  0
  185.2250  179.1880  139.2750 C   0  0  2  0  0  3  0  0  0  0  0  0
  183.6450  178.7670  140.7870 C   0  0  0  0  0  0  0  0  0  0  0  0
  184.8660  178.9890  141.5830 C   0  0  0  0  0  2  0  0  0  0  0  0
  185.9220  179.2530  140.6010 N   0  0  1  0  0  0  0  0  0  0  0  0
  187.0760  177.7580  138.3760 C   0  0  0  0  0  0  0  0  0  0  0  0
  187.8600  178.2300  139.5620 C   0  0  2  0  0  3  0  0  0  0  0  0
  187.4110  177.5250  143.0750 C   0  0  0  0  0  2  0  0  0  0  0  0
  180.2820  179.8950  139.0680 C   0  0  0  0  0  2  0  0  0  0  0  0
  179.0280  177.7350  138.6160 C   0  0  0  0  0  2  0  0  0  0  0  0
  180.7680  176.9370  140.2530 C   0  0  0  0  0  3  0  0  0  0  0  0
  181.1670  178.2530  140.6850 N   0  0  0  0  0  0  0  0  0  0  0  0
  179.8190  176.6880  139.3410 C   0  0  0  0  0  3  0  0  0  0  0  0
  180.2840  179.4010  140.5160 C   0  0  0  0  0  2  0  0  0  0  0  0
  179.9530  178.8030  138.0430 C   0  0  0  0  0  2  0  0  0  0  0  0
  187.6610  176.8070  137.3700 C   0  0  1  0  0  3  0  0  0  0  0  0
  187.2240  175.0240  135.7160 C   0  0  0  0  0  2  0  0  0  0  0  0
  188.8120  176.5710  135.3120 C   0  0  0  0  0  2  0  0  0  0  0  0
  186.5960  175.8510  136.8350 C   0  0  0  0  0  2  0  0  0  0  0  0
  188.2940  177.5440  136.2740 N   0  0  0  0  0  2  0  0  0  0  0  0
  187.7450  175.8720  134.7220 O   0  0  0  0  0  0  0  0  0  0  0  0
  1 12  2  0  0  0  0
  2  5  1  6  0  0  0
  2  7  1  0  0  0  0
  3  6  1  0  0  0  0
  4 15  2  0  0  0  0
  4 11  1  0  0  0  0
  6 17  1  0  0  0  0
  7  6  1  0  0  0  0
  7  8  1  0  0  0  0
  8  9  1  0  0  0  0
 11  1  1  0  0  0  0
 11 14  1  0  0  0  0
 12 10  1  0  0  0  0
 12 13  1  0  0  0  0
 14  3  1  0  0  0  0
 14 13  1  0  0  0  0
 15 16  1  0  0  0  0
 16  2  1  0  0  0  0
 16  3  1  0  0  0  0
 17  9  1  0  0  0  0
 18 23  1  0  0  0  0
 19 22  1  0  0  0  0
 20 21  1  0  0  0  0
 21 10  1  0  0  0  0
 22 20  2  0  0  0  0
 23 21  1  0  0  0  0
 24 19  1  0  0  0  0
 24 18  1  0  0  0  0
 25 15  1  0  0  0  0
 26 28  1  0  0  0  0
 27 29  1  0  0  0  0
 28 25  1  0  0  0  0
 29 25  1  0  0  0  0
 30 27  1  0  0  0  0
 30 26  1  0  0  0  0
M  END
>  <MODEL>
7

>  <REMARK>
 VINA RESULT:      -6.8      2.611      7.445
  Name = 
  2 active torsions:
  status: ('A' for Active; 'I' for Inactive)
    1  A    between atoms: C_2  and  C_27
    2  A    between atoms: N_14  and  N_21
                            x       y       z     vdW  Elec       q    Type
                         _______ _______ _______ _____ _____    ______ ____

>  <TORSDO>
F 2

$$$$
=
 OpenBabel11062413293D

 30 35  0  0  1  0  0  0  0  0999 V2000
  187.0990  178.2570  139.3250 N   0  0  0  0  0  0  0  0  0  0  0  0
  182.7480  178.6280  142.5380 C   0  0  1  0  0  3  0  0  0  0  0  0
  183.9170  178.5070  140.4850 C   0  0  1  0  0  3  0  0  0  0  0  0
  186.3920  178.5870  141.6330 C   0  0  0  0  0  3  0  0  0  0  0  0
  182.3930  179.5580  143.5930 N   0  0  0  0  0  1  0  0  0  0  0  0
  182.4730  178.7790  140.1080 C   0  0  2  0  0  3  0  0  0  0  0  0
  181.7110  178.6960  141.4180 C   0  0  1  0  0  3  0  0  0  0  0  0
  180.9400  177.4630  141.3850 N   0  0  0  0  0  2  0  0  0  0  0  0
  180.7570  177.1350  140.0290 N   0  0  0  0  0  2  0  0  0  0  0  0
  186.8850  177.0500  137.2660 N   0  0  0  0  0  2  0  0  0  0  0  0
  186.2930  179.0880  140.1950 C   0  0  2  0  0  3  0  0  0  0  0  0
  186.3890  177.8770  138.3280 C   0  0  0  0  0  0  0  0  0  0  0  0
  184.9980  178.3610  138.3810 C   0  0  0  0  0  2  0  0  0  0  0  0
  184.9120  179.1490  139.6140 N   0  0  1  0  0  0  0  0  0  0  0  0
  185.3210  178.5780  142.4470 C   0  0  0  0  0  0  0  0  0  0  0  0
  184.0280  179.0690  141.8720 C   0  0  2  0  0  3  0  0  0  0  0  0
  181.9250  177.6260  139.3140 C   0  0  0  0  0  2  0  0  0  0  0  0
  190.1040  177.6250  138.3040 C   0  0  0  0  0  2  0  0  0  0  0  0
  190.9260  175.3330  137.5850 C   0  0  0  0  0  2  0  0  0  0  0  0
  188.4750  175.1520  137.0310 C   0  0  0  0  0  3  0  0  0  0  0  0
  188.2020  176.5630  137.1440 N   0  0  0  0  0  0  0  0  0  0  0  0
  189.6760  174.5900  137.2190 C   0  0  0  0  0  3  0  0  0  0  0  0
  189.2700  177.5480  137.0240 C   0  0  0  0  0  2  0  0  0  0  0  0
  190.6640  176.2720  138.7580 C   0  0  0  0  0  2  0  0  0  0  0  0
  185.4190  178.0890  143.8650 C   0  0  1  0  0  3  0  0  0  0  0  0
  186.8650  177.1230  145.6210 C   0  0  0  0  0  2  0  0  0  0  0  0
  185.3050  178.6570  146.1620 C   0  0  0  0  0  2  0  0  0  0  0  0
  186.7840  177.4560  144.1330 C   0  0  0  0  0  2  0  0  0  0  0  0
  185.1600  179.1820  144.8050 N   0  0  0  0  0  2  0  0  0  0  0  0
  186.6400  178.2820  146.3880 O   0  0  0  0  0  0  0  0  0  0  0  0
  1 11  1  0  0  0  0
  2  5  1  1  0  0  0
  3 16  1  0  0  0  0
  4 15  2  0  0  0  0
  6  3  1  0  0  0  0
  6  7  1  0  0  0  0
  7  2  1  0  0  0  0
  8  7  1  0  0  0  0
  9  8  1  0  0  0  0
 10 12  1  0  0  0  0
 11  4  1  0  0  0  0
 12 13  1  0  0  0  0
 12  1  2  0  0  0  0
 13 14  1  0  0  0  0
 14 11  1  0  0  0  0
 14  3  1  0  0  0  0
 15 25  1  0  0  0  0
 16 15  1  0  0  0  0
 16  2  1  0  0  0  0
 17  9  1  0  0  0  0
 17  6  1  0  0  0  0
 18 24  1  0  0  0  0
 19 24  1  0  0  0  0
 20 21  1  0  0  0  0
 20 22  2  0  0  0  0
 21 10  1  0  0  0  0
 22 19  1  0  0  0  0
 23 21  1  0  0  0  0
 23 18  1  0  0  0  0
 25 28  1  0  0  0  0
 25 29  1  0  0  0  0
 26 30  1  0  0  0  0
 27 30  1  0  0  0  0
 28 26  1  0  0  0  0
 29 27  1  0  0  0  0
M  END
>  <MODEL>
8

>  <REMARK>
 VINA RESULT:      -6.8      3.163      6.652
  Name = 
  2 active torsions:
  status: ('A' for Active; 'I' for Inactive)
    1  A    between atoms: C_2  and  C_27
    2  A    between atoms: N_14  and  N_21
                            x       y       z     vdW  Elec       q    Type
                         _______ _______ _______ _____ _____    ______ ____

>  <TORSDO>
F 2

$$$$
=
 OpenBabel11062413293D

 30 35  0  0  1  0  0  0  0  0999 V2000
  188.9490  177.2450  137.8310 N   0  0  0  0  0  0  0  0  0  0  0  0
  185.6270  178.9060  141.7810 C   0  0  1  0  0  3  0  0  0  0  0  0
  186.2220  178.2520  139.5870 C   0  0  1  0  0  3  0  0  0  0  0  0
  188.8900  178.0580  140.1270 C   0  0  0  0  0  3  0  0  0  0  0  0
  185.6800  180.0410  142.6850 N   0  0  0  0  0  1  0  0  0  0  0  0
  184.7820  178.7210  139.4890 C   0  0  2  0  0  3  0  0  0  0  0  0
  184.3650  178.9860  140.9240 C   0  0  1  0  0  3  0  0  0  0  0  0
  183.4450  177.9240  141.3040 N   0  0  0  0  0  2  0  0  0  0  0  0
  182.8870  177.4260  140.1130 N   0  0  0  0  0  2  0  0  0  0  0  0
  188.0630  175.7880  136.1470 N   0  0  0  0  0  2  0  0  0  0  0  0
  188.5080  178.3360  138.6750 C   0  0  2  0  0  3  0  0  0  0  0  0
  187.9670  176.8500  137.1080 C   0  0  0  0  0  0  0  0  0  0  0  0
  186.7140  177.5820  137.3690 C   0  0  0  0  0  2  0  0  0  0  0  0
  187.0490  178.5560  138.4110 N   0  0  1  0  0  0  0  0  0  0  0  0
  188.0640  178.3740  141.1410 C   0  0  0  0  0  0  0  0  0  0  0  0
  186.7510  178.9960  140.7780 C   0  0  2  0  0  3  0  0  0  0  0  0
  183.8980  177.5760  139.0770 C   0  0  0  0  0  2  0  0  0  0  0  0
  191.2250  176.1240  134.8600 C   0  0  0  0  0  2  0  0  0  0  0  0
  192.0030  173.8710  135.7320 C   0  0  0  0  0  2  0  0  0  0  0  0
  189.6620  173.9530  136.6570 C   0  0  0  0  0  3  0  0  0  0  0  0
  189.2270  175.0560  135.8380 N   0  0  0  0  0  0  0  0  0  0  0  0
  190.8860  173.4120  136.6210 C   0  0  0  0  0  3  0  0  0  0  0  0
  189.9120  175.3860  134.5940 C   0  0  0  0  0  2  0  0  0  0  0  0
  192.1670  175.3850  135.8170 C   0  0  0  0  0  2  0  0  0  0  0  0
  188.4420  178.1050  142.5710 C   0  0  1  0  0  3  0  0  0  0  0  0
  188.8520  176.4010  144.3130 C   0  0  0  0  0  2  0  0  0  0  0  0
  190.1270  178.2580  144.2300 C   0  0  0  0  0  2  0  0  0  0  0  0
  188.3100  176.6200  142.9030 C   0  0  0  0  0  2  0  0  0  0  0  0
  189.8020  178.5780  142.8400 N   0  0  0  0  0  2  0  0  0  0  0  0
  190.1780  176.8630  144.3980 O   0  0  0  0  0  0  0  0  0  0  0  0
  1 11  1  0  0  0  0
  2  5  1  1  0  0  0
  3 16  1  0  0  0  0
  4 15  2  0  0  0  0
  6  3  1  0  0  0  0
  6  7  1  0  0  0  0
  7  8  1  0  0  0  0
  7  2  1  0  0  0  0
  9  8  1  0  0  0  0
 10 12  1  0  0  0  0
 11  4  1  0  0  0  0
 12 13  1  0  0  0  0
 12  1  2  0  0  0  0
 13 14  1  0  0  0  0
 14 11  1  0  0  0  0
 14  3  1  0  0  0  0
 15 25  1  0  0  0  0
 16 15  1  0  0  0  0
 16  2  1  0  0  0  0
 17  6  1  0  0  0  0
 17  9  1  0  0  0  0
 18 24  1  0  0  0  0
 19 24  1  0  0  0  0
 19 22  1  0  0  0  0
 21 10  1  0  0  0  0
 21 20  1  0  0  0  0
 22 20  2  0  0  0  0
 23 18  1  0  0  0  0
 23 21  1  0  0  0  0
 25 29  1  0  0  0  0
 25 28  1  0  0  0  0
 26 30  1  0  0  0  0
 27 30  1  0  0  0  0
 28 26  1  0  0  0  0
 29 27  1  0  0  0  0
M  END
>  <MODEL>
9

>  <REMARK>
 VINA RESULT:      -6.7      2.702      6.738
  Name = 
  2 active torsions:
  status: ('A' for Active; 'I' for Inactive)
    1  A    between atoms: C_2  and  C_27
    2  A    between atoms: N_14  and  N_21
                            x       y       z     vdW  Elec       q    Type
                         _______ _______ _______ _____ _____    ______ ____

>  <TORSDO>
F 2

$$$$
