=
 OpenBabel11062412433D

 32 34  0  0  1  0  0  0  0  0999 V2000
  189.1010  177.5010  141.0810 C   0  0  2  0  0  3  0  0  0  0  0  0
  191.3830  177.5000  140.2850 O   0  0  0  0  0  1  0  0  0  0  0  0
  190.2130  176.7400  140.3500 C   0  0  0  0  0  2  0  0  0  0  0  0
  188.2100  178.3550  140.1690 C   0  0  0  0  0  2  0  0  0  0  0  0
  187.8620  177.6110  138.8920 C   0  0  0  0  0  2  0  0  0  0  0  0
  186.8610  178.3540  138.1430 N   0  0  0  0  0  2  0  0  0  0  0  0
  185.3410  176.5480  136.9610 S   0  0  0  0  0  0  0  0  0  0  0  0
  185.5390  177.8570  137.9270 C   0  0  0  0  0  0  0  0  0  0  0  0
  183.7420  178.8740  140.9170 C   0  0  1  0  0  3  0  0  0  0  0  0
  184.7370  179.8550  139.0950 N   0  0  0  0  0  2  0  0  0  0  0  0
  184.3510  178.5820  138.4940 C   0  0  2  0  0  3  0  0  0  0  0  0
  184.8870  179.6520  140.4760 N   0  0  0  0  0  2  0  0  0  0  0  0
  183.4710  177.5650  139.7100 S   0  0  0  0  0  0  0  0  0  0  0  0
  184.0180  178.2580  142.2790 C   0  0  0  0  0  2  0  0  0  0  0  0
  183.7540  179.4870  144.4680 N   0  0  0  0  0  1  0  0  0  0  0  0
  181.8480  178.9630  143.1470 C   0  0  0  0  0  2  0  0  0  0  0  0
  183.1580  178.8750  143.3300 C   0  0  0  0  0  0  0  0  0  0  0  0
  189.5360  178.1550  142.2590 O   0  0  0  0  0  0  0  0  0  0  0  0
  188.8010  177.3290  147.6910 C   0  0  0  0  0  3  0  0  0  0  0  0
  189.2480  177.3550  143.3820 C   0  0  1  0  0  3  0  0  0  0  0  0
  190.4720  177.2070  144.2760 C   0  0  0  0  0  0  0  0  0  0  0  0
  188.1260  177.9070  144.0730 O   0  0  0  0  0  0  0  0  0  0  0  0
  186.6770  178.5550  147.4620 C   0  0  0  0  0  2  0  0  0  0  0  0
  190.3290  177.2170  145.6280 C   0  0  0  0  0  0  0  0  0  0  0  0
  186.5840  177.9910  146.0420 C   0  0  0  0  0  2  0  0  0  0  0  0
  188.9920  177.4370  146.2260 C   0  0  0  0  0  0  0  0  0  0  0  0
  187.6990  177.8090  148.2730 C   0  0  0  0  0  3  0  0  0  0  0  0
  187.9510  177.7770  145.4490 C   0  0  0  0  0  0  0  0  0  0  0  0
  191.8930  175.7740  146.9810 N   0  0  0  0  0  1  0  0  0  0  0  0
  191.4250  177.0200  146.5430 N   0  0  0  0  0  2  0  0  0  0  0  0
  192.1530  175.7090  143.4500 O   0  0  0  0  0  0  0  0  0  0  0  0
  191.7730  176.8910  143.6530 C   0  0  0  0  0  3  0  0  0  0  0  0
  1  4  1  6  0  0  0
  1 18  1  0  0  0  0
  2  3  1  0  0  0  0
  3  1  1  0  0  0  0
  5  4  1  0  0  0  0
  6  5  1  0  0  0  0
  7  8  2  0  0  0  0
  8  6  1  0  0  0  0
  9 14  1  1  0  0  0
 10 12  1  0  0  0  0
 11  8  1  1  0  0  0
 11 10  1  0  0  0  0
 11 13  1  0  0  0  0
 12  9  1  0  0  0  0
 13  9  1  0  0  0  0
 14 17  1  0  0  0  0
 16 17  2  0  0  0  0
 17 15  1  0  0  0  0
 19 27  2  0  0  0  0
 20 18  1  6  0  0  0
 20 22  1  0  0  0  0
 20 21  1  0  0  0  0
 21 24  2  0  0  0  0
 22 28  1  0  0  0  0
 23 27  1  0  0  0  0
 24 26  1  0  0  0  0
 24 30  1  0  0  0  0
 25 23  1  0  0  0  0
 26 19  1  0  0  0  0
 28 25  1  0  0  0  0
 28 26  2  0  0  0  0
 30 29  1  0  0  0  0
 31 32  2  0  0  0  0
 32 21  1  0  0  0  0
M  END
>  <MODEL>
1

>  <REMARK>
 VINA RESULT:      -8.2      0.000      0.000
  Name = 
  12 active torsions:
  status: ('A' for Active; 'I' for Inactive)
    1  A    between atoms: C_3  and  O_18
    2  A    between atoms: C_4  and  C_31
    3  A    between atoms: N_6  and  C_21
    4  A    between atoms: N_6  and  C_23
    5  A    between atoms: N_7  and  C_20
    6  A    between atoms: C_8  and  C_10
    7  A    between atoms: C_10  and  C_25
    8  A    between atoms: C_14  and  C_21
    9  A    between atoms: C_14  and  C_28
   10  A    between atoms: C_17  and  C_23
   11  A    between atoms: O_18  and  C_28
   12  A    between atoms: C_19  and  C_28
                            x       y       z     vdW  Elec       q    Type
                         _______ _______ _______ _____ _____    ______ ____

>  <TORSDO>
F 12

$$$$
=
 OpenBabel11062412433D

 32 34  0  0  1  0  0  0  0  0999 V2000
  185.0000  178.6540  143.0700 C   0  0  2  0  0  3  0  0  0  0  0  0
  183.1240  178.6760  144.5920 O   0  0  0  0  0  1  0  0  0  0  0  0
  183.8900  179.4720  143.7390 C   0  0  0  0  0  2  0  0  0  0  0  0
  184.6580  178.1480  141.6630 C   0  0  0  0  0  2  0  0  0  0  0  0
  185.0540  179.1620  140.6040 C   0  0  0  0  0  2  0  0  0  0  0  0
  186.1290  178.6280  139.7840 N   0  0  0  0  0  2  0  0  0  0  0  0
  184.4410  177.7230  137.9680 S   0  0  0  0  0  0  0  0  0  0  0  0
  185.9320  178.2220  138.4280 C   0  0  0  0  0  0  0  0  0  0  0  0
  189.2990  176.9990  137.8150 C   0  0  1  0  0  3  0  0  0  0  0  0
  187.2160  176.8420  136.8630 N   0  0  0  0  0  2  0  0  0  0  0  0
  187.0940  178.1610  137.4760 C   0  0  2  0  0  3  0  0  0  0  0  0
  188.1690  176.1130  137.5920 N   0  0  0  0  0  2  0  0  0  0  0  0
  188.6480  178.6080  138.2960 S   0  0  0  0  0  0  0  0  0  0  0  0
  190.1800  176.4560  138.9280 C   0  0  0  0  0  2  0  0  0  0  0  0
  191.3230  174.4950  137.8220 N   0  0  0  0  0  1  0  0  0  0  0  0
  192.5340  176.4880  138.2800 C   0  0  0  0  0  2  0  0  0  0  0  0
  191.4030  175.8050  138.3730 C   0  0  0  0  0  0  0  0  0  0  0  0
  185.5850  177.6830  143.9190 O   0  0  0  0  0  0  0  0  0  0  0  0
  190.6660  176.9750  146.0180 C   0  0  0  0  0  3  0  0  0  0  0  0
  186.8250  178.1510  144.3940 C   0  0  1  0  0  3  0  0  0  0  0  0
  186.9750  177.8850  145.8860 C   0  0  0  0  0  0  0  0  0  0  0  0
  187.8730  177.5600  143.6230 O   0  0  0  0  0  0  0  0  0  0  0  0
  191.3270  176.1320  143.8000 C   0  0  0  0  0  2  0  0  0  0  0  0
  188.1780  177.4990  146.3880 C   0  0  0  0  0  0  0  0  0  0  0  0
  190.2950  177.0920  143.2030 C   0  0  0  0  0  2  0  0  0  0  0  0
  189.3220  177.2760  145.4740 C   0  0  0  0  0  0  0  0  0  0  0  0
  191.6260  176.4820  145.2310 C   0  0  0  0  0  3  0  0  0  0  0  0
  189.1390  177.3040  144.1440 C   0  0  0  0  0  0  0  0  0  0  0  0
  188.6060  178.3060  148.7390 N   0  0  0  0  0  1  0  0  0  0  0  0
  188.4200  177.2880  147.7940 N   0  0  0  0  0  2  0  0  0  0  0  0
  185.5160  179.3950  147.0440 O   0  0  0  0  0  0  0  0  0  0  0  0
  185.8470  178.2100  146.7820 C   0  0  0  0  0  3  0  0  0  0  0  0
  1  4  1  6  0  0  0
  1  3  1  0  0  0  0
  1 18  1  0  0  0  0
  3  2  1  0  0  0  0
  5  4  1  0  0  0  0
  6  5  1  0  0  0  0
  7  8  2  0  0  0  0
  8  6  1  0  0  0  0
  9 13  1  0  0  0  0
  9 14  1  1  0  0  0
 10 11  1  0  0  0  0
 10 12  1  0  0  0  0
 11 13  1  0  0  0  0
 11  8  1  1  0  0  0
 12  9  1  0  0  0  0
 15 17  1  0  0  0  0
 16 17  2  0  0  0  0
 17 14  1  0  0  0  0
 20 18  1  6  0  0  0
 20 21  1  0  0  0  0
 21 24  2  0  0  0  0
 21 32  1  0  0  0  0
 22 28  1  0  0  0  0
 22 20  1  0  0  0  0
 23 27  1  0  0  0  0
 24 30  1  0  0  0  0
 25 23  1  0  0  0  0
 25 28  1  0  0  0  0
 26 19  1  0  0  0  0
 26 24  1  0  0  0  0
 27 19  2  0  0  0  0
 28 26  2  0  0  0  0
 30 29  1  0  0  0  0
 32 31  2  0  0  0  0
M  END
>  <MODEL>
2

>  <REMARK>
 VINA RESULT:      -7.6      2.410      5.753
  Name = 
  12 active torsions:
  status: ('A' for Active; 'I' for Inactive)
    1  A    between atoms: C_3  and  O_18
    2  A    between atoms: C_4  and  C_31
    3  A    between atoms: N_6  and  C_21
    4  A    between atoms: N_6  and  C_23
    5  A    between atoms: N_7  and  C_20
    6  A    between atoms: C_8  and  C_10
    7  A    between atoms: C_10  and  C_25
    8  A    between atoms: C_14  and  C_21
    9  A    between atoms: C_14  and  C_28
   10  A    between atoms: C_17  and  C_23
   11  A    between atoms: O_18  and  C_28
   12  A    between atoms: C_19  and  C_28
                            x       y       z     vdW  Elec       q    Type
                         _______ _______ _______ _____ _____    ______ ____

>  <TORSDO>
F 12

$$$$
=
 OpenBabel11062412433D

 32 34  0  0  1  0  0  0  0  0999 V2000
  190.0210  177.1260  143.2600 C   0  0  2  0  0  3  0  0  0  0  0  0
  191.6410  176.9040  145.0390 O   0  0  0  0  0  1  0  0  0  0  0  0
  191.4280  176.6840  143.6770 C   0  0  0  0  0  2  0  0  0  0  0  0
  189.9070  177.5970  141.8040 C   0  0  0  0  0  2  0  0  0  0  0  0
  190.4740  176.5620  140.8480 C   0  0  0  0  0  2  0  0  0  0  0  0
  190.8370  177.1950  139.5900 N   0  0  0  0  0  2  0  0  0  0  0  0
  190.3650  175.4940  137.6280 S   0  0  0  0  0  0  0  0  0  0  0  0
  190.1390  176.9370  138.3710 C   0  0  0  0  0  0  0  0  0  0  0  0
  186.8140  178.3480  137.9710 C   0  0  1  0  0  3  0  0  0  0  0  0
  188.8830  179.0130  138.7090 N   0  0  0  0  0  2  0  0  0  0  0  0
  189.2950  178.0070  137.7350 C   0  0  2  0  0  3  0  0  0  0  0  0
  187.5910  178.6840  139.1500 N   0  0  0  0  0  2  0  0  0  0  0  0
  187.8370  177.3030  136.9180 S   0  0  0  0  0  0  0  0  0  0  0  0
  185.5570  177.5900  138.3680 C   0  0  0  0  0  2  0  0  0  0  0  0
  184.5670  179.7900  139.1100 N   0  0  0  0  0  1  0  0  0  0  0  0
  183.2310  178.2020  137.9510 C   0  0  0  0  0  2  0  0  0  0  0  0
  184.3940  178.5150  138.5030 C   0  0  0  0  0  0  0  0  0  0  0  0
  189.3840  177.9680  144.2030 O   0  0  0  0  0  0  0  0  0  0  0  0
  183.9410  178.6330  145.0150 C   0  0  0  0  0  3  0  0  0  0  0  0
  188.0840  177.4930  144.4650 C   0  0  1  0  0  3  0  0  0  0  0  0
  187.5960  177.9610  145.8290 C   0  0  0  0  0  0  0  0  0  0  0  0
  187.2170  177.8960  143.4020 O   0  0  0  0  0  0  0  0  0  0  0  0
  183.7660  179.1010  142.6030 C   0  0  0  0  0  2  0  0  0  0  0  0
  186.2980  178.3350  145.9930 C   0  0  0  0  0  0  0  0  0  0  0  0
  184.9370  178.1350  142.4010 C   0  0  0  0  0  2  0  0  0  0  0  0
  185.3820  178.3470  144.8290 C   0  0  0  0  0  0  0  0  0  0  0  0
  183.1670  178.9430  143.9720 C   0  0  0  0  0  3  0  0  0  0  0  0
  185.8590  178.1390  143.5910 C   0  0  0  0  0  0  0  0  0  0  0  0
  185.8930  179.9940  147.8470 N   0  0  0  0  0  1  0  0  0  0  0  0
  185.7410  178.7300  147.2620 N   0  0  0  0  0  2  0  0  0  0  0  0
  188.9800  176.7410  147.3610 O   0  0  0  0  0  0  0  0  0  0  0  0
  188.5040  177.8450  146.9880 C   0  0  0  0  0  3  0  0  0  0  0  0
  1  4  1  6  0  0  0
  1  3  1  0  0  0  0
  1 18  1  0  0  0  0
  3  2  1  0  0  0  0
  5  4  1  0  0  0  0
  6  5  1  0  0  0  0
  7  8  2  0  0  0  0
  8  6  1  0  0  0  0
  9 14  1  1  0  0  0
  9 12  1  0  0  0  0
 10 12  1  0  0  0  0
 11  8  1  1  0  0  0
 11 10  1  0  0  0  0
 13 11  1  0  0  0  0
 13  9  1  0  0  0  0
 14 17  1  0  0  0  0
 16 17  2  0  0  0  0
 17 15  1  0  0  0  0
 20 18  1  6  0  0  0
 20 21  1  0  0  0  0
 21 24  2  0  0  0  0
 21 32  1  0  0  0  0
 22 28  1  0  0  0  0
 22 20  1  0  0  0  0
 23 27  1  0  0  0  0
 24 30  1  0  0  0  0
 25 23  1  0  0  0  0
 25 28  1  0  0  0  0
 26 19  1  0  0  0  0
 26 24  1  0  0  0  0
 27 19  2  0  0  0  0
 28 26  2  0  0  0  0
 30 29  1  0  0  0  0
 32 31  2  0  0  0  0
M  END
>  <MODEL>
3

>  <REMARK>
 VINA RESULT:      -7.6      2.452      4.504
  Name = 
  12 active torsions:
  status: ('A' for Active; 'I' for Inactive)
    1  A    between atoms: C_3  and  O_18
    2  A    between atoms: C_4  and  C_31
    3  A    between atoms: N_6  and  C_21
    4  A    between atoms: N_6  and  C_23
    5  A    between atoms: N_7  and  C_20
    6  A    between atoms: C_8  and  C_10
    7  A    between atoms: C_10  and  C_25
    8  A    between atoms: C_14  and  C_21
    9  A    between atoms: C_14  and  C_28
   10  A    between atoms: C_17  and  C_23
   11  A    between atoms: O_18  and  C_28
   12  A    between atoms: C_19  and  C_28
                            x       y       z     vdW  Elec       q    Type
                         _______ _______ _______ _____ _____    ______ ____

>  <TORSDO>
F 12

$$$$
=
 OpenBabel11062412433D

 32 34  0  0  1  0  0  0  0  0999 V2000
  189.2170  177.5800  140.7170 C   0  0  2  0  0  3  0  0  0  0  0  0
  191.6240  177.3660  140.7360 O   0  0  0  0  0  1  0  0  0  0  0  0
  190.4440  176.7710  140.2830 C   0  0  0  0  0  2  0  0  0  0  0  0
  188.6160  178.4640  139.6170 C   0  0  0  0  0  2  0  0  0  0  0  0
  187.8510  177.6320  138.6030 C   0  0  0  0  0  2  0  0  0  0  0  0
  186.8580  178.4560  137.9330 N   0  0  0  0  0  2  0  0  0  0  0  0
  184.7480  176.9380  137.4740 S   0  0  0  0  0  0  0  0  0  0  0  0
  185.4530  178.2690  138.1170 C   0  0  0  0  0  0  0  0  0  0  0  0
  182.7270  178.9820  140.4120 C   0  0  1  0  0  3  0  0  0  0  0  0
  184.9690  179.4360  140.2160 N   0  0  0  0  0  2  0  0  0  0  0  0
  184.6290  179.3240  138.8020 C   0  0  2  0  0  3  0  0  0  0  0  0
  184.0420  178.6730  140.9450 N   0  0  0  0  0  2  0  0  0  0  0  0
  182.8540  179.0020  138.6150 S   0  0  0  0  0  0  0  0  0  0  0  0
  181.7250  177.9210  140.8370 C   0  0  0  0  0  2  0  0  0  0  0  0
  180.1220  179.7780  141.4320 N   0  0  0  0  0  1  0  0  0  0  0  0
  179.3400  177.8250  140.3250 C   0  0  0  0  0  2  0  0  0  0  0  0
  180.3430  178.4800  140.8910 C   0  0  0  0  0  0  0  0  0  0  0  0
  189.3700  178.2220  141.9700 O   0  0  0  0  0  0  0  0  0  0  0  0
  186.3400  177.9270  146.6020 C   0  0  0  0  0  3  0  0  0  0  0  0
  188.6420  177.5250  142.9540 C   0  0  1  0  0  3  0  0  0  0  0  0
  189.3500  177.5840  144.3010 C   0  0  0  0  0  0  0  0  0  0  0  0
  187.3130  178.0480  143.0080 O   0  0  0  0  0  0  0  0  0  0  0  0
  184.4980  178.9280  145.3110 C   0  0  0  0  0  2  0  0  0  0  0  0
  188.6240  177.7280  145.4420 C   0  0  0  0  0  0  0  0  0  0  0  0
  185.0590  178.2070  144.0820 C   0  0  0  0  0  2  0  0  0  0  0  0
  187.1550  177.8920  145.3650 C   0  0  0  0  0  0  0  0  0  0  0  0
  185.0800  178.3680  146.5770 C   0  0  0  0  0  3  0  0  0  0  0  0
  186.5540  178.0530  144.1750 C   0  0  0  0  0  0  0  0  0  0  0  0
  189.5460  176.5830  147.4910 N   0  0  0  0  0  1  0  0  0  0  0  0
  189.2100  177.7300  146.7590 N   0  0  0  0  0  2  0  0  0  0  0  0
  191.6530  178.2460  144.4050 O   0  0  0  0  0  0  0  0  0  0  0  0
  190.8020  177.3200  144.3530 C   0  0  0  0  0  3  0  0  0  0  0  0
  1  4  1  6  0  0  0
  1 18  1  0  0  0  0
  3  1  1  0  0  0  0
  3  2  1  0  0  0  0
  5  4  1  0  0  0  0
  6  8  1  0  0  0  0
  6  5  1  0  0  0  0
  7  8  2  0  0  0  0
  9 14  1  6  0  0  0
  9 12  1  0  0  0  0
 10 12  1  0  0  0  0
 11  8  1  1  0  0  0
 11 10  1  0  0  0  0
 13 11  1  0  0  0  0
 13  9  1  0  0  0  0
 14 17  1  0  0  0  0
 16 17  2  0  0  0  0
 17 15  1  0  0  0  0
 20 18  1  6  0  0  0
 20 22  1  0  0  0  0
 20 21  1  0  0  0  0
 21 32  1  0  0  0  0
 21 24  2  0  0  0  0
 22 28  1  0  0  0  0
 23 27  1  0  0  0  0
 24 30  1  0  0  0  0
 25 28  1  0  0  0  0
 25 23  1  0  0  0  0
 26 24  1  0  0  0  0
 26 19  1  0  0  0  0
 27 19  2  0  0  0  0
 28 26  2  0  0  0  0
 30 29  1  0  0  0  0
 32 31  2  0  0  0  0
M  END
>  <MODEL>
4

>  <REMARK>
 VINA RESULT:      -7.5      1.762      2.093
  Name = 
  12 active torsions:
  status: ('A' for Active; 'I' for Inactive)
    1  A    between atoms: C_3  and  O_18
    2  A    between atoms: C_4  and  C_31
    3  A    between atoms: N_6  and  C_21
    4  A    between atoms: N_6  and  C_23
    5  A    between atoms: N_7  and  C_20
    6  A    between atoms: C_8  and  C_10
    7  A    between atoms: C_10  and  C_25
    8  A    between atoms: C_14  and  C_21
    9  A    between atoms: C_14  and  C_28
   10  A    between atoms: C_17  and  C_23
   11  A    between atoms: O_18  and  C_28
   12  A    between atoms: C_19  and  C_28
                            x       y       z     vdW  Elec       q    Type
                         _______ _______ _______ _____ _____    ______ ____

>  <TORSDO>
F 12

$$$$
=
 OpenBabel11062412433D

 32 34  0  0  1  0  0  0  0  0999 V2000
  185.1140  178.4120  142.8930 C   0  0  2  0  0  3  0  0  0  0  0  0
  185.3680  179.6950  140.8610 O   0  0  0  0  0  1  0  0  0  0  0  0
  186.0410  178.8630  141.7590 C   0  0  0  0  0  2  0  0  0  0  0  0
  184.3790  179.5540  143.6070 C   0  0  0  0  0  2  0  0  0  0  0  0
  182.9690  179.1410  143.9900 C   0  0  0  0  0  2  0  0  0  0  0  0
  182.2300  178.7380  142.8050 N   0  0  0  0  0  2  0  0  0  0  0  0
  179.9560  178.8870  144.1350 S   0  0  0  0  0  0  0  0  0  0  0  0
  180.8030  178.7780  142.7380 C   0  0  0  0  0  0  0  0  0  0  0  0
  180.0820  176.6050  139.9160 C   0  0  1  0  0  3  0  0  0  0  0  0
  178.9310  177.7540  141.5350 N   0  0  0  0  0  2  0  0  0  0  0  0
  180.0990  178.6220  141.4190 C   0  0  2  0  0  3  0  0  0  0  0  0
  179.3110  176.4620  141.1380 N   0  0  0  0  0  2  0  0  0  0  0  0
  181.2170  177.9860  140.1410 S   0  0  0  0  0  0  0  0  0  0  0  0
  180.8750  175.3370  139.6450 C   0  0  0  0  0  2  0  0  0  0  0  0
  183.0060  175.2950  138.2920 N   0  0  0  0  0  1  0  0  0  0  0  0
  180.9000  175.4930  137.2080 C   0  0  0  0  0  2  0  0  0  0  0  0
  181.5900  175.4220  138.3380 C   0  0  0  0  0  0  0  0  0  0  0  0
  185.6970  177.4550  143.7600 O   0  0  0  0  0  0  0  0  0  0  0  0
  190.5700  177.0350  146.3670 C   0  0  0  0  0  3  0  0  0  0  0  0
  186.8560  177.9920  144.3530 C   0  0  1  0  0  3  0  0  0  0  0  0
  186.8670  177.7400  145.8550 C   0  0  0  0  0  0  0  0  0  0  0  0
  188.0070  177.4560  143.6970 O   0  0  0  0  0  0  0  0  0  0  0  0
  191.4980  176.2220  144.2350 C   0  0  0  0  0  2  0  0  0  0  0  0
  188.0330  177.4230  146.4800 C   0  0  0  0  0  0  0  0  0  0  0  0
  190.4800  177.1210  143.5280 C   0  0  0  0  0  2  0  0  0  0  0  0
  189.2730  177.2600  145.6880 C   0  0  0  0  0  0  0  0  0  0  0  0
  191.6300  176.5930  145.6850 C   0  0  0  0  0  3  0  0  0  0  0  0
  189.2250  177.2720  144.3460 C   0  0  0  0  0  0  0  0  0  0  0  0
  188.4450  178.2380  148.8300 N   0  0  0  0  0  1  0  0  0  0  0  0
  188.1420  177.2310  147.9040 N   0  0  0  0  0  2  0  0  0  0  0  0
  185.2870  179.1690  146.9550 O   0  0  0  0  0  0  0  0  0  0  0  0
  185.6390  178.0060  146.6300 C   0  0  0  0  0  3  0  0  0  0  0  0
  1  3  1  1  0  0  0
  1  4  1  0  0  0  0
  1 18  1  0  0  0  0
  2  3  1  0  0  0  0
  4  5  1  0  0  0  0
  6  5  1  0  0  0  0
  8  6  1  0  0  0  0
  8  7  2  0  0  0  0
  9 14  1  1  0  0  0
  9 13  1  0  0  0  0
  9 12  1  0  0  0  0
 11 10  1  0  0  0  0
 11  8  1  1  0  0  0
 12 10  1  0  0  0  0
 13 11  1  0  0  0  0
 15 17  1  0  0  0  0
 16 17  2  0  0  0  0
 17 14  1  0  0  0  0
 20 18  1  6  0  0  0
 20 21  1  0  0  0  0
 21 24  2  0  0  0  0
 21 32  1  0  0  0  0
 22 28  1  0  0  0  0
 22 20  1  0  0  0  0
 23 27  1  0  0  0  0
 24 30  1  0  0  0  0
 25 23  1  0  0  0  0
 25 28  1  0  0  0  0
 26 19  1  0  0  0  0
 26 24  1  0  0  0  0
 27 19  2  0  0  0  0
 28 26  2  0  0  0  0
 30 29  1  0  0  0  0
 32 31  2  0  0  0  0
M  END
>  <MODEL>
5

>  <REMARK>
 VINA RESULT:      -7.2      3.195      5.423
  Name = 
  12 active torsions:
  status: ('A' for Active; 'I' for Inactive)
    1  A    between atoms: C_3  and  O_18
    2  A    between atoms: C_4  and  C_31
    3  A    between atoms: N_6  and  C_21
    4  A    between atoms: N_6  and  C_23
    5  A    between atoms: N_7  and  C_20
    6  A    between atoms: C_8  and  C_10
    7  A    between atoms: C_10  and  C_25
    8  A    between atoms: C_14  and  C_21
    9  A    between atoms: C_14  and  C_28
   10  A    between atoms: C_17  and  C_23
   11  A    between atoms: O_18  and  C_28
   12  A    between atoms: C_19  and  C_28
                            x       y       z     vdW  Elec       q    Type
                         _______ _______ _______ _____ _____    ______ ____

>  <TORSDO>
F 12

$$$$
=
 OpenBabel11062412433D

 32 34  0  0  1  0  0  0  0  0999 V2000
  189.2700  177.5120  140.7890 C   0  0  2  0  0  3  0  0  0  0  0  0
  191.6820  177.5330  140.9390 O   0  0  0  0  0  1  0  0  0  0  0  0
  190.5900  176.8080  140.4560 C   0  0  0  0  0  2  0  0  0  0  0  0
  188.7030  178.3710  139.6520 C   0  0  0  0  0  2  0  0  0  0  0  0
  187.9000  177.5290  138.6770 C   0  0  0  0  0  2  0  0  0  0  0  0
  188.7900  176.9070  137.7090 N   0  0  0  0  0  2  0  0  0  0  0  0
  186.7880  175.5070  136.7080 S   0  0  0  0  0  0  0  0  0  0  0  0
  188.3890  175.8030  136.8950 C   0  0  0  0  0  0  0  0  0  0  0  0
  191.8850  174.8170  136.7940 C   0  0  1  0  0  3  0  0  0  0  0  0
  189.8480  173.8730  137.2750 N   0  0  0  0  0  2  0  0  0  0  0  0
  189.4170  174.8770  136.3080 C   0  0  2  0  0  3  0  0  0  0  0  0
  191.0380  174.3260  137.8670 N   0  0  0  0  0  2  0  0  0  0  0  0
  190.8530  175.7920  135.6840 S   0  0  0  0  0  0  0  0  0  0  0  0
  192.9920  175.6930  137.3570 C   0  0  0  0  0  2  0  0  0  0  0  0
  195.0910  175.2170  138.6750 N   0  0  0  0  0  1  0  0  0  0  0  0
  194.4880  173.8350  136.8380 C   0  0  0  0  0  2  0  0  0  0  0  0
  194.2380  174.9040  137.5810 C   0  0  0  0  0  0  0  0  0  0  0  0
  189.2600  178.1360  142.0600 O   0  0  0  0  0  0  0  0  0  0  0  0
  186.0630  177.6560  146.5620 C   0  0  0  0  0  3  0  0  0  0  0  0
  188.4210  177.4200  142.9350 C   0  0  1  0  0  3  0  0  0  0  0  0
  189.0850  177.2250  144.2920 C   0  0  0  0  0  0  0  0  0  0  0  0
  187.1640  178.0930  143.0300 O   0  0  0  0  0  0  0  0  0  0  0  0
  184.3990  179.0270  145.3720 C   0  0  0  0  0  2  0  0  0  0  0  0
  188.3440  177.3180  145.4290 C   0  0  0  0  0  0  0  0  0  0  0  0
  184.9100  178.3980  144.0730 C   0  0  0  0  0  2  0  0  0  0  0  0
  186.9080  177.6710  145.3460 C   0  0  0  0  0  0  0  0  0  0  0  0
  184.8670  178.2490  146.5690 C   0  0  0  0  0  3  0  0  0  0  0  0
  186.3720  178.0490  144.1740 C   0  0  0  0  0  0  0  0  0  0  0  0
  189.4630  178.0670  147.5610 N   0  0  0  0  0  1  0  0  0  0  0  0
  188.8810  177.0860  146.7460 N   0  0  0  0  0  2  0  0  0  0  0  0
  191.4500  177.5850  144.4560 O   0  0  0  0  0  0  0  0  0  0  0  0
  190.4920  176.7790  144.3370 C   0  0  0  0  0  3  0  0  0  0  0  0
  1  4  1  6  0  0  0
  1 18  1  0  0  0  0
  3  1  1  0  0  0  0
  3  2  1  0  0  0  0
  5  4  1  0  0  0  0
  6  5  1  0  0  0  0
  7  8  2  0  0  0  0
  8  6  1  0  0  0  0
  9 14  1  1  0  0  0
  9 12  1  0  0  0  0
 10 12  1  0  0  0  0
 11  8  1  1  0  0  0
 11 10  1  0  0  0  0
 13 11  1  0  0  0  0
 13  9  1  0  0  0  0
 14 17  1  0  0  0  0
 16 17  2  0  0  0  0
 17 15  1  0  0  0  0
 19 27  2  0  0  0  0
 20 18  1  6  0  0  0
 20 22  1  0  0  0  0
 20 21  1  0  0  0  0
 21 32  1  0  0  0  0
 21 24  2  0  0  0  0
 22 28  1  0  0  0  0
 23 27  1  0  0  0  0
 24 30  1  0  0  0  0
 25 28  1  0  0  0  0
 25 23  1  0  0  0  0
 26 24  1  0  0  0  0
 26 19  1  0  0  0  0
 28 26  2  0  0  0  0
 30 29  1  0  0  0  0
 32 31  2  0  0  0  0
M  END
>  <MODEL>
6

>  <REMARK>
 VINA RESULT:      -7.1      3.315      5.993
  Name = 
  12 active torsions:
  status: ('A' for Active; 'I' for Inactive)
    1  A    between atoms: C_3  and  O_18
    2  A    between atoms: C_4  and  C_31
    3  A    between atoms: N_6  and  C_21
    4  A    between atoms: N_6  and  C_23
    5  A    between atoms: N_7  and  C_20
    6  A    between atoms: C_8  and  C_10
    7  A    between atoms: C_10  and  C_25
    8  A    between atoms: C_14  and  C_21
    9  A    between atoms: C_14  and  C_28
   10  A    between atoms: C_17  and  C_23
   11  A    between atoms: O_18  and  C_28
   12  A    between atoms: C_19  and  C_28
                            x       y       z     vdW  Elec       q    Type
                         _______ _______ _______ _____ _____    ______ ____

>  <TORSDO>
F 12

$$$$
=
 OpenBabel11062412433D

 32 34  0  0  1  0  0  0  0  0999 V2000
  189.5480  177.2130  141.1190 C   0  0  2  0  0  3  0  0  0  0  0  0
  191.8900  177.5040  141.6370 O   0  0  0  0  0  1  0  0  0  0  0  0
  190.8930  176.5480  141.4280 C   0  0  0  0  0  2  0  0  0  0  0  0
  189.3910  177.6880  139.6690 C   0  0  0  0  0  2  0  0  0  0  0  0
  189.8750  176.6320  138.6910 C   0  0  0  0  0  2  0  0  0  0  0  0
  188.7640  176.1580  137.8820 N   0  0  0  0  0  2  0  0  0  0  0  0
  189.7100  176.4880  135.4400 S   0  0  0  0  0  0  0  0  0  0  0  0
  188.5210  176.6330  136.5570 C   0  0  0  0  0  0  0  0  0  0  0  0
  185.5280  178.2520  137.8330 C   0  0  1  0  0  3  0  0  0  0  0  0
  187.3270  178.7710  136.5050 N   0  0  0  0  0  2  0  0  0  0  0  0
  187.2370  177.3420  136.2270 C   0  0  2  0  0  3  0  0  0  0  0  0
  186.7710  179.0010  137.7730 N   0  0  0  0  0  2  0  0  0  0  0  0
  185.8340  176.6240  137.1250 S   0  0  0  0  0  0  0  0  0  0  0  0
  185.0750  178.1000  139.2760 C   0  0  0  0  0  2  0  0  0  0  0  0
  184.0210  180.3850  139.0810 N   0  0  0  0  0  1  0  0  0  0  0  0
  182.9080  178.6460  140.2590 C   0  0  0  0  0  2  0  0  0  0  0  0
  183.9790  179.0600  139.5970 C   0  0  0  0  0  0  0  0  0  0  0  0
  189.1380  178.1550  142.0950 O   0  0  0  0  0  0  0  0  0  0  0  0
  185.3840  178.2460  146.1720 C   0  0  0  0  0  3  0  0  0  0  0  0
  188.2610  177.5410  143.0100 C   0  0  1  0  0  3  0  0  0  0  0  0
  188.7360  177.7470  144.4430 C   0  0  0  0  0  0  0  0  0  0  0  0
  186.9390  178.0370  142.7930 O   0  0  0  0  0  0  0  0  0  0  0  0
  183.7760  179.0750  144.5020 C   0  0  0  0  0  2  0  0  0  0  0  0
  187.8300  177.9850  145.4290 C   0  0  0  0  0  0  0  0  0  0  0  0
  184.5370  178.2500  143.4600 C   0  0  0  0  0  2  0  0  0  0  0  0
  186.3920  178.1080  145.0950 C   0  0  0  0  0  0  0  0  0  0  0  0
  184.1430  178.6540  145.8960 C   0  0  0  0  0  3  0  0  0  0  0  0
  185.9960  178.1390  143.8130 C   0  0  0  0  0  0  0  0  0  0  0  0
  188.3850  177.0650  147.7100 N   0  0  0  0  0  1  0  0  0  0  0  0
  188.1890  178.1280  146.8170 N   0  0  0  0  0  2  0  0  0  0  0  0
  190.6590  176.3670  144.8280 O   0  0  0  0  0  0  0  0  0  0  0  0
  190.1600  177.5210  144.7590 C   0  0  0  0  0  3  0  0  0  0  0  0
  1  4  1  6  0  0  0
  1  3  1  0  0  0  0
  1 18  1  0  0  0  0
  3  2  1  0  0  0  0
  5  4  1  0  0  0  0
  6  5  1  0  0  0  0
  7  8  2  0  0  0  0
  8  6  1  0  0  0  0
  9 14  1  1  0  0  0
 10 12  1  0  0  0  0
 11 10  1  0  0  0  0
 11  8  1  1  0  0  0
 11 13  1  0  0  0  0
 12  9  1  0  0  0  0
 13  9  1  0  0  0  0
 14 17  1  0  0  0  0
 15 17  1  0  0  0  0
 17 16  2  0  0  0  0
 20 18  1  6  0  0  0
 20 21  1  0  0  0  0
 21 32  1  0  0  0  0
 21 24  2  0  0  0  0
 22 20  1  0  0  0  0
 22 28  1  0  0  0  0
 23 27  1  0  0  0  0
 24 30  1  0  0  0  0
 25 28  1  0  0  0  0
 25 23  1  0  0  0  0
 26 24  1  0  0  0  0
 26 19  1  0  0  0  0
 27 19  2  0  0  0  0
 28 26  2  0  0  0  0
 30 29  1  0  0  0  0
 32 31  2  0  0  0  0
M  END
>  <MODEL>
7

>  <REMARK>
 VINA RESULT:      -7.0      1.987      3.121
  Name = 
  12 active torsions:
  status: ('A' for Active; 'I' for Inactive)
    1  A    between atoms: C_3  and  O_18
    2  A    between atoms: C_4  and  C_31
    3  A    between atoms: N_6  and  C_21
    4  A    between atoms: N_6  and  C_23
    5  A    between atoms: N_7  and  C_20
    6  A    between atoms: C_8  and  C_10
    7  A    between atoms: C_10  and  C_25
    8  A    between atoms: C_14  and  C_21
    9  A    between atoms: C_14  and  C_28
   10  A    between atoms: C_17  and  C_23
   11  A    between atoms: O_18  and  C_28
   12  A    between atoms: C_19  and  C_28
                            x       y       z     vdW  Elec       q    Type
                         _______ _______ _______ _____ _____    ______ ____

>  <TORSDO>
F 12

$$$$
=
 OpenBabel11062412433D

 32 34  0  0  1  0  0  0  0  0999 V2000
  185.1710  178.5100  142.8640 C   0  0  2  0  0  3  0  0  0  0  0  0
  185.3080  179.3800  140.6130 O   0  0  0  0  0  1  0  0  0  0  0  0
  186.0680  179.0020  141.7220 C   0  0  0  0  0  2  0  0  0  0  0  0
  184.4520  179.6250  143.6330 C   0  0  0  0  0  2  0  0  0  0  0  0
  183.0030  179.2570  143.9010 C   0  0  0  0  0  2  0  0  0  0  0  0
  182.3140  179.0030  142.6460 N   0  0  0  0  0  2  0  0  0  0  0  0
  180.0570  178.6410  143.9650 S   0  0  0  0  0  0  0  0  0  0  0  0
  180.9010  178.8060  142.5710 C   0  0  0  0  0  0  0  0  0  0  0  0
  180.5150  180.0940  139.1940 C   0  0  1  0  0  3  0  0  0  0  0  0
  181.1420  178.1410  140.2250 N   0  0  0  0  0  2  0  0  0  0  0  0
  180.2240  178.6550  141.2370 C   0  0  2  0  0  3  0  0  0  0  0  0
  181.6440  179.2350  139.5030 N   0  0  0  0  0  2  0  0  0  0  0  0
  179.5010  180.2220  140.6790 S   0  0  0  0  0  0  0  0  0  0  0  0
  181.0000  181.4770  138.7930 C   0  0  0  0  0  2  0  0  0  0  0  0
  180.8080  181.3210  136.2810 N   0  0  0  0  0  1  0  0  0  0  0  0
  179.3550  182.7450  137.5100 C   0  0  0  0  0  2  0  0  0  0  0  0
  180.3820  181.9080  137.5050 C   0  0  0  0  0  0  0  0  0  0  0  0
  185.7770  177.5260  143.6830 O   0  0  0  0  0  0  0  0  0  0  0  0
  190.6070  177.1080  146.3700 C   0  0  0  0  0  3  0  0  0  0  0  0
  186.9190  178.0640  144.3080 C   0  0  1  0  0  3  0  0  0  0  0  0
  186.9060  177.7820  145.8040 C   0  0  0  0  0  0  0  0  0  0  0  0
  188.0880  177.5530  143.6620 O   0  0  0  0  0  0  0  0  0  0  0  0
  191.5820  176.3470  144.2410 C   0  0  0  0  0  2  0  0  0  0  0  0
  188.0640  177.4650  146.4440 C   0  0  0  0  0  0  0  0  0  0  0  0
  190.5680  177.2490  143.5330 C   0  0  0  0  0  2  0  0  0  0  0  0
  189.3200  177.3310  145.6720 C   0  0  0  0  0  0  0  0  0  0  0  0
  191.6840  176.6900  145.7000 C   0  0  0  0  0  3  0  0  0  0  0  0
  189.2960  177.3700  144.3300 C   0  0  0  0  0  0  0  0  0  0  0  0
  188.3250  178.2530  148.8250 N   0  0  0  0  0  1  0  0  0  0  0  0
  188.1490  177.2460  147.8660 N   0  0  0  0  0  2  0  0  0  0  0  0
  185.3270  179.1630  146.9670 O   0  0  0  0  0  0  0  0  0  0  0  0
  185.6610  178.0190  146.5610 C   0  0  0  0  0  3  0  0  0  0  0  0
  1  3  1  1  0  0  0
  1  4  1  0  0  0  0
  1 18  1  0  0  0  0
  2  3  1  0  0  0  0
  4  5  1  0  0  0  0
  6  5  1  0  0  0  0
  8  6  1  0  0  0  0
  8  7  2  0  0  0  0
  9 14  1  1  0  0  0
  9 12  1  0  0  0  0
  9 13  1  0  0  0  0
 10 11  1  0  0  0  0
 11  8  1  1  0  0  0
 12 10  1  0  0  0  0
 13 11  1  0  0  0  0
 15 17  1  0  0  0  0
 17 16  2  0  0  0  0
 17 14  1  0  0  0  0
 20 18  1  6  0  0  0
 20 21  1  0  0  0  0
 21 24  2  0  0  0  0
 21 32  1  0  0  0  0
 22 20  1  0  0  0  0
 22 28  1  0  0  0  0
 23 27  1  0  0  0  0
 24 30  1  0  0  0  0
 25 23  1  0  0  0  0
 25 28  1  0  0  0  0
 26 19  1  0  0  0  0
 26 24  1  0  0  0  0
 27 19  2  0  0  0  0
 28 26  2  0  0  0  0
 30 29  1  0  0  0  0
 32 31  2  0  0  0  0
M  END
>  <MODEL>
8

>  <REMARK>
 VINA RESULT:      -7.0      3.158      5.386
  Name = 
  12 active torsions:
  status: ('A' for Active; 'I' for Inactive)
    1  A    between atoms: C_3  and  O_18
    2  A    between atoms: C_4  and  C_31
    3  A    between atoms: N_6  and  C_21
    4  A    between atoms: N_6  and  C_23
    5  A    between atoms: N_7  and  C_20
    6  A    between atoms: C_8  and  C_10
    7  A    between atoms: C_10  and  C_25
    8  A    between atoms: C_14  and  C_21
    9  A    between atoms: C_14  and  C_28
   10  A    between atoms: C_17  and  C_23
   11  A    between atoms: O_18  and  C_28
   12  A    between atoms: C_19  and  C_28
                            x       y       z     vdW  Elec       q    Type
                         _______ _______ _______ _____ _____    ______ ____

>  <TORSDO>
F 12

$$$$
=
 OpenBabel11062412433D

 32 34  0  0  1  0  0  0  0  0999 V2000
  189.2440  177.5190  140.5280 C   0  0  2  0  0  3  0  0  0  0  0  0
  191.6360  177.3690  140.2150 O   0  0  0  0  0  1  0  0  0  0  0  0
  190.4200  176.7540  139.9090 C   0  0  0  0  0  2  0  0  0  0  0  0
  188.5240  178.4690  139.5630 C   0  0  0  0  0  2  0  0  0  0  0  0
  187.5470  177.7140  138.6790 C   0  0  0  0  0  2  0  0  0  0  0  0
  186.4860  178.6060  138.2380 N   0  0  0  0  0  2  0  0  0  0  0  0
  184.9010  178.9950  140.3120 S   0  0  0  0  0  0  0  0  0  0  0  0
  185.1580  178.5370  138.7600 C   0  0  0  0  0  0  0  0  0  0  0  0
  183.5220  175.5330  137.5340 C   0  0  1  0  0  3  0  0  0  0  0  0
  182.9920  177.3930  138.7690 N   0  0  0  0  0  2  0  0  0  0  0  0
  184.0440  177.9610  137.9320 C   0  0  2  0  0  3  0  0  0  0  0  0
  183.2190  176.0120  138.8710 N   0  0  0  0  0  2  0  0  0  0  0  0
  184.6580  176.7080  136.7740 S   0  0  0  0  0  0  0  0  0  0  0  0
  184.1810  174.1640  137.6030 C   0  0  0  0  0  2  0  0  0  0  0  0
  182.5370  173.6270  135.7640 N   0  0  0  0  0  1  0  0  0  0  0  0
  183.7410  171.8860  136.8450 C   0  0  0  0  0  2  0  0  0  0  0  0
  183.4500  173.1760  136.7570 C   0  0  0  0  0  0  0  0  0  0  0  0
  189.5300  178.0750  141.7990 O   0  0  0  0  0  0  0  0  0  0  0  0
  186.5750  177.8840  146.4840 C   0  0  0  0  0  3  0  0  0  0  0  0
  188.7880  177.4060  142.7900 C   0  0  1  0  0  3  0  0  0  0  0  0
  189.5230  177.4190  144.1250 C   0  0  0  0  0  0  0  0  0  0  0  0
  187.4870  177.9900  142.8730 O   0  0  0  0  0  0  0  0  0  0  0  0
  184.7590  178.9830  145.2350 C   0  0  0  0  0  2  0  0  0  0  0  0
  188.8250  177.5870  145.2800 C   0  0  0  0  0  0  0  0  0  0  0  0
  185.2630  178.2470  143.9900 C   0  0  0  0  0  2  0  0  0  0  0  0
  187.3640  177.8210  145.2320 C   0  0  0  0  0  0  0  0  0  0  0  0
  185.3370  178.3840  146.4860 C   0  0  0  0  0  3  0  0  0  0  0  0
  186.7500  178.0210  144.0550 C   0  0  0  0  0  0  0  0  0  0  0  0
  189.6420  176.3870  147.3420 N   0  0  0  0  0  1  0  0  0  0  0  0
  189.4340  177.5490  146.5860 N   0  0  0  0  0  2  0  0  0  0  0  0
  191.4140  176.0250  143.6420 O   0  0  0  0  0  0  0  0  0  0  0  0
  190.9610  177.0850  144.1470 C   0  0  0  0  0  3  0  0  0  0  0  0
  1  4  1  6  0  0  0
  1 18  1  0  0  0  0
  3  2  1  0  0  0  0
  3  1  1  0  0  0  0
  5  4  1  0  0  0  0
  6  5  1  0  0  0  0
  6  8  1  0  0  0  0
  8  7  2  0  0  0  0
  9 14  1  1  0  0  0
  9 12  1  0  0  0  0
 10 12  1  0  0  0  0
 11  8  1  1  0  0  0
 11 10  1  0  0  0  0
 13  9  1  0  0  0  0
 13 11  1  0  0  0  0
 15 17  1  0  0  0  0
 17 16  2  0  0  0  0
 17 14  1  0  0  0  0
 19 27  2  0  0  0  0
 20 18  1  6  0  0  0
 20 22  1  0  0  0  0
 20 21  1  0  0  0  0
 21 32  1  0  0  0  0
 21 24  2  0  0  0  0
 22 28  1  0  0  0  0
 23 27  1  0  0  0  0
 24 30  1  0  0  0  0
 25 28  1  0  0  0  0
 25 23  1  0  0  0  0
 26 24  1  0  0  0  0
 26 19  1  0  0  0  0
 28 26  2  0  0  0  0
 30 29  1  0  0  0  0
 31 32  2  0  0  0  0
M  END
>  <MODEL>
9

>  <REMARK>
 VINA RESULT:      -7.0      2.518      3.779
  Name = 
  12 active torsions:
  status: ('A' for Active; 'I' for Inactive)
    1  A    between atoms: C_3  and  O_18
    2  A    between atoms: C_4  and  C_31
    3  A    between atoms: N_6  and  C_21
    4  A    between atoms: N_6  and  C_23
    5  A    between atoms: N_7  and  C_20
    6  A    between atoms: C_8  and  C_10
    7  A    between atoms: C_10  and  C_25
    8  A    between atoms: C_14  and  C_21
    9  A    between atoms: C_14  and  C_28
   10  A    between atoms: C_17  and  C_23
   11  A    between atoms: O_18  and  C_28
   12  A    between atoms: C_19  and  C_28
                            x       y       z     vdW  Elec       q    Type
                         _______ _______ _______ _____ _____    ______ ____

>  <TORSDO>
F 12

$$$$
