=
 OpenBabel11062415503D

 44 49  0  0  1  0  0  0  0  0999 V2000
  188.0010  177.2380  138.7550 C   0  0  1  0  0  3  0  0  0  0  0  0
  189.1750  179.3350  137.7170 C   0  0  0  0  0  1  0  0  0  0  0  0
  190.3490  177.0060  137.7460 C   0  0  0  0  0  2  0  0  0  0  0  0
  190.2950  175.9280  136.6810 C   0  0  2  0  0  0  0  0  0  0  0  0
  191.5290  175.0180  136.7290 C   0  0  0  0  0  2  0  0  0  0  0  0
  188.8890  173.6780  134.5940 O   0  0  0  0  0  0  0  0  0  0  0  0
  187.7730  175.8320  136.6320 C   0  0  1  0  0  3  0  0  0  0  0  0
  187.7280  177.2590  137.2500 C   0  0  2  0  0  3  0  0  0  0  0  0
  188.6320  172.2080  136.7910 O   0  0  0  0  0  1  0  0  0  0  0  0
  191.1320  173.6090  136.2410 C   0  0  1  0  0  3  0  0  0  0  0  0
  189.0480  177.8230  137.8010 C   0  0  1  0  0  0  0  0  0  0  0  0
  190.2240  176.5270  135.4140 O   0  0  0  0  0  1  0  0  0  0  0  0
  189.3310  173.5520  136.0380 P   0  0  1  0  0  0  0  0  0  0  0  0
  189.0640  175.0760  136.9550 C   0  0  1  0  0  3  0  0  0  0  0  0
  186.5520  175.0250  137.0720 C   0  0  0  0  0  2  0  0  0  0  0  0
  184.1540  175.4120  136.4060 C   0  0  0  0  0  1  0  0  0  0  0  0
  185.5050  174.8960  135.9730 C   0  0  1  0  0  3  0  0  0  0  0  0
  185.9230  175.5410  134.8050 O   0  0  0  0  0  1  0  0  0  0  0  0
  187.1570  178.2900  139.4710 C   0  0  2  0  0  3  0  0  0  0  0  0
  188.3830  177.7160  141.5760 C   0  0  0  0  0  3  0  0  0  0  0  0
  187.2790  178.1080  140.9170 N   0  0  0  0  0  0  0  0  0  0  0  0
  186.3320  178.4620  141.7720 N   0  0  0  0  0  0  0  0  0  0  0  0
  186.7980  178.2830  143.0250 C   0  0  0  0  0  3  0  0  0  0  0  0
  188.0900  177.8130  142.9220 C   0  0  0  0  0  0  0  0  0  0  0  0
  189.0020  177.4870  144.0720 C   0  0  0  0  0  2  0  0  0  0  0  0
  190.4920  177.6410  143.7420 C   0  0  1  0  0  3  0  0  0  0  0  0
  190.9400  179.0850  143.9200 C   0  0  0  0  0  1  0  0  0  0  0  0
  191.7530  176.9320  145.6570 O   0  0  0  0  0  1  0  0  0  0  0  0
  191.3690  176.6770  144.4850 C   0  0  0  0  0  0  0  0  0  0  0  0
  191.8310  175.5310  143.8530 O   0  0  0  0  0  0  0  0  0  0  0  0
  185.7020  178.2030  139.0210 C   0  0  0  0  0  2  0  0  0  0  0  0
  184.4000  179.9250  139.2500 N   0  0  0  0  0  1  0  0  0  0  0  0
  185.3240  179.4030  138.4120 O   0  0  0  0  0  0  0  0  0  0  0  0
  191.8670  173.0980  135.1460 O   0  0  0  0  0  0  0  0  0  0  0  0
  193.3280  174.0010  134.9230 S   0  0  0  0  0  0  0  0  0  0  0  0
  194.4850  172.8480  137.5560 C   0  0  0  0  0  2  0  0  0  0  0  0
  195.8700  173.0120  138.2910 C   0  0  1  0  0  3  0  0  0  0  0  0
  195.6910  172.8170  135.6190 C   0  0  1  0  0  3  0  0  0  0  0  0
  197.1620  172.9890  137.3850 C   0  0  0  0  0  2  0  0  0  0  0  0
  194.5880  172.0070  136.2720 C   0  0  2  0  0  3  0  0  0  0  0  0
  194.3660  172.5120  134.9430 C   0  0  1  0  0  3  0  0  0  0  0  0
  196.8740  173.2820  135.9270 C   0  0  0  0  0  2  0  0  0  0  0  0
  195.8480  174.2370  139.1010 C   0  0  0  0  0  0  0  0  0  0  0  0
  195.8270  175.1950  139.7500 N   0  0  0  0  0  0  0  0  0  0  0  0
  1 19  1  1  0  0  0
  2 11  1  0  0  0  0
  3 11  1  0  0  0  0
  4 12  1  6  0  0  0
  4  5  1  0  0  0  0
  4 14  1  0  0  0  0
  4  3  1  0  0  0  0
  6 13  2  0  0  0  0
  7 14  1  0  0  0  0
  7 15  1  1  0  0  0
  7  8  1  0  0  0  0
  8 11  1  0  0  0  0
  8  1  1  0  0  0  0
 10  5  1  0  0  0  0
 11  1  1  0  0  0  0
 13 10  1  0  0  0  0
 13  9  1  0  0  0  0
 13 14  1  0  0  0  0
 17 16  1  0  0  0  0
 17 15  1  0  0  0  0
 18 17  1  0  0  0  0
 19 21  1  0  0  0  0
 20 24  2  0  0  0  0
 21 20  1  0  0  0  0
 21 22  1  0  0  0  0
 22 23  2  0  0  0  0
 24 23  1  0  0  0  0
 24 25  1  0  0  0  0
 26 27  1  0  0  0  0
 26 25  1  0  0  0  0
 26 29  1  0  0  0  0
 29 28  1  0  0  0  0
 30 29  2  0  0  0  0
 31 19  1  0  0  0  0
 33 31  1  0  0  0  0
 33 32  1  0  0  0  0
 34 10  1  0  0  0  0
 35 41  1  0  0  0  0
 35 34  1  0  0  0  0
 36 37  1  0  0  0  0
 37 43  1  0  0  0  0
 38 42  1  0  0  0  0
 38 40  1  0  0  0  0
 39 37  1  0  0  0  0
 40 36  1  0  0  0  0
 41 38  1  0  0  0  0
 41 40  1  0  0  0  0
 42 39  1  0  0  0  0
 43 44  3  0  0  0  0
M  END
>  <MODEL>
1

>  <REMARK>
 VINA RESULT:      -6.6      0.000      0.000
  Name = 
  13 active torsions:
  status: ('A' for Active; 'I' for Inactive)
    1  A    between atoms: C_1  and  C_16
    2  A    between atoms: C_5  and  C_16
    3  A    between atoms: C_5  and  O_36
    4  A    between atoms: C_8  and  C_15
    5  A    between atoms: C_8  and  C_19
    6  A    between atoms: C_10  and  C_21
    7  A    between atoms: C_12  and  C_24
    8  A    between atoms: C_12  and  C_39
    9  A    between atoms: S_14  and  O_17
   10  A    between atoms: S_14  and  C_42
   11  A    between atoms: C_16  and  N_23
   12  A    between atoms: O_17  and  C_32
   13  A    between atoms: C_24  and  C_25
                            x       y       z     vdW  Elec       q    Type
                         _______ _______ _______ _____ _____    ______ ____

>  <TORSDO>
F 13

$$$$
=
 OpenBabel11062415503D

 44 49  0  0  1  0  0  0  0  0999 V2000
  183.1060  177.7070  139.8430 C   0  0  1  0  0  3  0  0  0  0  0  0
  183.3280  180.0370  138.6700 C   0  0  0  0  0  1  0  0  0  0  0  0
  185.1090  178.1670  138.3050 C   0  0  0  0  0  2  0  0  0  0  0  0
  185.1240  177.1000  137.2280 C   0  0  2  0  0  0  0  0  0  0  0  0
  186.5460  176.6000  136.9400 C   0  0  0  0  0  2  0  0  0  0  0  0
  183.9910  174.4900  135.4110 O   0  0  0  0  0  0  0  0  0  0  0  0
  182.8070  176.2540  137.7610 C   0  0  1  0  0  3  0  0  0  0  0  0
  182.4900  177.6150  138.4460 C   0  0  2  0  0  3  0  0  0  0  0  0
  184.7070  173.0560  137.5280 O   0  0  0  0  0  1  0  0  0  0  0  0
  186.4780  175.1270  136.4860 C   0  0  1  0  0  3  0  0  0  0  0  0
  183.6770  178.5590  138.7030 C   0  0  1  0  0  0  0  0  0  0  0  0
  184.5810  177.6240  136.0450 O   0  0  0  0  0  1  0  0  0  0  0  0
  184.7790  174.5320  136.7040 P   0  0  1  0  0  0  0  0  0  0  0  0
  184.3000  175.9250  137.7350 C   0  0  1  0  0  3  0  0  0  0  0  0
  182.0180  175.1290  138.4300 C   0  0  0  0  0  2  0  0  0  0  0  0
  180.7210  175.3710  136.2840 C   0  0  0  0  0  1  0  0  0  0  0  0
  180.9570  174.5300  137.5160 C   0  0  1  0  0  3  0  0  0  0  0  0
  181.2860  173.2200  137.1570 O   0  0  0  0  0  1  0  0  0  0  0  0
  182.1850  178.4740  140.7890 C   0  0  2  0  0  3  0  0  0  0  0  0
  184.1760  178.6350  142.2950 C   0  0  0  0  0  3  0  0  0  0  0  0
  182.8500  178.6470  142.0790 N   0  0  0  0  0  0  0  0  0  0  0  0
  182.2060  178.9930  143.1840 N   0  0  0  0  0  0  0  0  0  0  0  0
  183.1120  179.1930  144.1630 C   0  0  0  0  0  3  0  0  0  0  0  0
  184.3600  178.9720  143.6210 C   0  0  0  0  0  0  0  0  0  0  0  0
  185.6690  179.0950  144.3510 C   0  0  0  0  0  2  0  0  0  0  0  0
  185.9850  177.9010  145.2600 C   0  0  1  0  0  3  0  0  0  0  0  0
  187.3240  177.2780  144.8920 C   0  0  0  0  0  1  0  0  0  0  0  0
  184.7810  178.5160  147.2440 O   0  0  0  0  0  0  0  0  0  0  0  0
  185.8910  178.2250  146.7220 C   0  0  0  0  0  0  0  0  0  0  0  0
  187.0410  178.2880  147.4950 O   0  0  0  0  0  1  0  0  0  0  0  0
  180.8530  177.7450  140.9430 C   0  0  0  0  0  2  0  0  0  0  0  0
  179.8650  179.6390  140.5580 N   0  0  0  0  0  1  0  0  0  0  0  0
  179.8860  178.3540  140.1400 O   0  0  0  0  0  0  0  0  0  0  0  0
  187.0500  174.8380  135.2250 O   0  0  0  0  0  0  0  0  0  0  0  0
  188.7510  175.1620  135.2410 S   0  0  0  0  0  0  0  0  0  0  0  0
  190.8630  174.8740  137.4900 C   0  0  0  0  0  2  0  0  0  0  0  0
  192.3950  174.5030  137.4910 C   0  0  1  0  0  3  0  0  0  0  0  0
  190.6390  173.2870  135.8650 C   0  0  1  0  0  3  0  0  0  0  0  0
  192.8440  173.3300  136.5350 C   0  0  0  0  0  2  0  0  0  0  0  0
  189.9600  173.6720  137.1650 C   0  0  2  0  0  3  0  0  0  0  0  0
  189.1490  173.5540  135.9820 C   0  0  1  0  0  3  0  0  0  0  0  0
  191.8490  173.0500  135.4280 C   0  0  0  0  0  2  0  0  0  0  0  0
  193.1870  175.7080  137.2110 C   0  0  0  0  0  0  0  0  0  0  0  0
  193.8090  176.6620  137.0030 N   0  0  0  0  0  0  0  0  0  0  0  0
  1 19  1  1  0  0  0
  2 11  1  0  0  0  0
  3 11  1  0  0  0  0
  4 12  1  6  0  0  0
  4 14  1  0  0  0  0
  4  3  1  0  0  0  0
  5  4  1  0  0  0  0
  6 13  2  0  0  0  0
  7 15  1  1  0  0  0
  7  8  1  0  0  0  0
  8 11  1  0  0  0  0
  8  1  1  0  0  0  0
 10 13  1  0  0  0  0
 10  5  1  0  0  0  0
 11  1  1  0  0  0  0
 13  9  1  0  0  0  0
 13 14  1  0  0  0  0
 14  7  1  0  0  0  0
 16 17  1  0  0  0  0
 17 15  1  0  0  0  0
 18 17  1  0  0  0  0
 19 31  1  0  0  0  0
 19 21  1  0  0  0  0
 20 24  2  0  0  0  0
 21 20  1  0  0  0  0
 21 22  1  0  0  0  0
 22 23  2  0  0  0  0
 24 23  1  0  0  0  0
 24 25  1  0  0  0  0
 25 26  1  0  0  0  0
 26 29  1  0  0  0  0
 27 26  1  0  0  0  0
 29 28  2  0  0  0  0
 29 30  1  0  0  0  0
 33 32  1  0  0  0  0
 33 31  1  0  0  0  0
 34 35  1  0  0  0  0
 34 10  1  0  0  0  0
 35 41  1  0  0  0  0
 36 37  1  0  0  0  0
 38 41  1  0  0  0  0
 38 40  1  0  0  0  0
 39 37  1  0  0  0  0
 40 36  1  0  0  0  0
 41 40  1  0  0  0  0
 42 38  1  0  0  0  0
 42 39  1  0  0  0  0
 43 37  1  0  0  0  0
 44 43  3  0  0  0  0
M  END
>  <MODEL>
2

>  <REMARK>
 VINA RESULT:      -6.4      3.321      4.975
  Name = 
  13 active torsions:
  status: ('A' for Active; 'I' for Inactive)
    1  A    between atoms: C_1  and  C_16
    2  A    between atoms: C_5  and  C_16
    3  A    between atoms: C_5  and  O_36
    4  A    between atoms: C_8  and  C_15
    5  A    between atoms: C_8  and  C_19
    6  A    between atoms: C_10  and  C_21
    7  A    between atoms: C_12  and  C_24
    8  A    between atoms: C_12  and  C_39
    9  A    between atoms: S_14  and  O_17
   10  A    between atoms: S_14  and  C_42
   11  A    between atoms: C_16  and  N_23
   12  A    between atoms: O_17  and  C_32
   13  A    between atoms: C_24  and  C_25
                            x       y       z     vdW  Elec       q    Type
                         _______ _______ _______ _____ _____    ______ ____

>  <TORSDO>
F 13

$$$$
=
 OpenBabel11062415503D

 44 49  0  0  1  0  0  0  0  0999 V2000
  181.7570  177.2530  139.4560 C   0  0  1  0  0  3  0  0  0  0  0  0
  181.9630  179.6170  138.3520 C   0  0  0  0  0  1  0  0  0  0  0  0
  183.9890  177.9770  138.4170 C   0  0  0  0  0  2  0  0  0  0  0  0
  184.3770  176.9420  137.3790 C   0  0  2  0  0  0  0  0  0  0  0  0
  185.8760  176.6190  137.4290 C   0  0  0  0  0  2  0  0  0  0  0  0
  184.0090  174.2570  135.3670 O   0  0  0  0  0  0  0  0  0  0  0  0
  182.1170  175.8200  137.3700 C   0  0  1  0  0  3  0  0  0  0  0  0
  181.4930  177.1190  137.9560 C   0  0  2  0  0  3  0  0  0  0  0  0
  184.3870  172.8720  137.6010 O   0  0  0  0  0  1  0  0  0  0  0  0
  186.0900  175.1580  136.9810 C   0  0  1  0  0  3  0  0  0  0  0  0
  182.4680  178.1900  138.4730 C   0  0  1  0  0  0  0  0  0  0  0  0
  184.0620  177.4240  136.1000 O   0  0  0  0  0  1  0  0  0  0  0  0
  184.4700  174.3630  136.8060 P   0  0  1  0  0  0  0  0  0  0  0  0
  183.6050  175.6680  137.6910 C   0  0  1  0  0  3  0  0  0  0  0  0
  181.3360  174.5960  137.8470 C   0  0  0  0  0  2  0  0  0  0  0  0
  180.5290  174.7420  135.4650 C   0  0  0  0  0  1  0  0  0  0  0  0
  180.5810  173.9030  136.7200 C   0  0  1  0  0  3  0  0  0  0  0  0
  181.1330  172.6480  136.4450 O   0  0  0  0  0  1  0  0  0  0  0  0
  180.5590  177.8860  140.1600 C   0  0  2  0  0  3  0  0  0  0  0  0
  182.1550  178.6040  141.9480 C   0  0  0  0  0  3  0  0  0  0  0  0
  180.9310  178.2400  141.5290 N   0  0  0  0  0  0  0  0  0  0  0  0
  180.0470  178.3870  142.5040 N   0  0  0  0  0  0  0  0  0  0  0  0
  180.6900  178.8350  143.6020 C   0  0  0  0  0  3  0  0  0  0  0  0
  182.0210  178.9780  143.2710 C   0  0  0  0  0  0  0  0  0  0  0  0
  183.1080  179.4660  144.1880 C   0  0  0  0  0  2  0  0  0  0  0  0
  184.4110  178.6650  144.0840 C   0  0  1  0  0  3  0  0  0  0  0  0
  185.2690  179.1720  142.9330 C   0  0  0  0  0  1  0  0  0  0  0  0
  186.4080  178.3480  145.3780 O   0  0  0  0  0  0  0  0  0  0  0  0
  185.1720  178.5960  145.3740 C   0  0  0  0  0  0  0  0  0  0  0  0
  184.5030  178.7240  146.5830 O   0  0  0  0  0  1  0  0  0  0  0  0
  179.3640  176.9380  140.1370 C   0  0  0  0  0  2  0  0  0  0  0  0
  178.9310  175.2970  141.4900 N   0  0  0  0  0  1  0  0  0  0  0  0
  179.7750  175.6510  140.4950 O   0  0  0  0  0  0  0  0  0  0  0  0
  186.9660  174.9640  135.8870 O   0  0  0  0  0  0  0  0  0  0  0  0
  188.5120  174.4120  136.4380 S   0  0  0  0  0  0  0  0  0  0  0  0
  190.1210  176.6810  137.8020 C   0  0  0  0  0  2  0  0  0  0  0  0
  189.7800  178.1750  138.1710 C   0  0  1  0  0  3  0  0  0  0  0  0
  188.9480  177.0510  135.8790 C   0  0  1  0  0  3  0  0  0  0  0  0
  188.9790  179.0090  137.0960 C   0  0  0  0  0  2  0  0  0  0  0  0
  190.2850  176.4640  136.2880 C   0  0  2  0  0  3  0  0  0  0  0  0
  189.4090  175.6620  135.4760 C   0  0  1  0  0  3  0  0  0  0  0  0
  188.2560  178.1410  136.0870 C   0  0  0  0  0  2  0  0  0  0  0  0
  189.0730  178.2090  139.4590 C   0  0  0  0  0  0  0  0  0  0  0  0
  188.5280  178.2310  140.4790 N   0  0  0  0  0  0  0  0  0  0  0  0
  1 19  1  1  0  0  0
  2 11  1  0  0  0  0
  3 11  1  0  0  0  0
  4 12  1  6  0  0  0
  4  5  1  0  0  0  0
  4 14  1  0  0  0  0
  4  3  1  0  0  0  0
  6 13  2  0  0  0  0
  7 14  1  0  0  0  0
  7 15  1  1  0  0  0
  7  8  1  0  0  0  0
  8 11  1  0  0  0  0
  8  1  1  0  0  0  0
 10  5  1  0  0  0  0
 11  1  1  0  0  0  0
 13 10  1  0  0  0  0
 13  9  1  0  0  0  0
 13 14  1  0  0  0  0
 16 17  1  0  0  0  0
 17 15  1  0  0  0  0
 18 17  1  0  0  0  0
 19 21  1  0  0  0  0
 20 24  2  0  0  0  0
 21 20  1  0  0  0  0
 21 22  1  0  0  0  0
 22 23  2  0  0  0  0
 24 23  1  0  0  0  0
 24 25  1  0  0  0  0
 26 25  1  0  0  0  0
 26 29  1  0  0  0  0
 27 26  1  0  0  0  0
 29 28  2  0  0  0  0
 29 30  1  0  0  0  0
 31 19  1  0  0  0  0
 31 33  1  0  0  0  0
 33 32  1  0  0  0  0
 34 35  1  0  0  0  0
 34 10  1  0  0  0  0
 36 37  1  0  0  0  0
 37 43  1  0  0  0  0
 38 42  1  0  0  0  0
 38 40  1  0  0  0  0
 39 37  1  0  0  0  0
 40 36  1  0  0  0  0
 41 38  1  0  0  0  0
 41 40  1  0  0  0  0
 41 35  1  0  0  0  0
 42 39  1  0  0  0  0
 43 44  3  0  0  0  0
M  END
>  <MODEL>
3

>  <REMARK>
 VINA RESULT:      -6.1      4.219      6.482
  Name = 
  13 active torsions:
  status: ('A' for Active; 'I' for Inactive)
    1  A    between atoms: C_1  and  C_16
    2  A    between atoms: C_5  and  C_16
    3  A    between atoms: C_5  and  O_36
    4  A    between atoms: C_8  and  C_15
    5  A    between atoms: C_8  and  C_19
    6  A    between atoms: C_10  and  C_21
    7  A    between atoms: C_12  and  C_24
    8  A    between atoms: C_12  and  C_39
    9  A    between atoms: S_14  and  O_17
   10  A    between atoms: S_14  and  C_42
   11  A    between atoms: C_16  and  N_23
   12  A    between atoms: O_17  and  C_32
   13  A    between atoms: C_24  and  C_25
                            x       y       z     vdW  Elec       q    Type
                         _______ _______ _______ _____ _____    ______ ____

>  <TORSDO>
F 13

$$$$
=
 OpenBabel11062415503D

 44 49  0  0  1  0  0  0  0  0999 V2000
  183.9430  178.2230  141.9860 C   0  0  1  0  0  3  0  0  0  0  0  0
  185.2830  179.0600  139.8990 C   0  0  0  0  0  1  0  0  0  0  0  0
  183.6880  177.0020  139.7420 C   0  0  0  0  0  2  0  0  0  0  0  0
  182.2170  176.9970  139.3790 C   0  0  2  0  0  0  0  0  0  0  0  0
  181.7780  175.6460  138.7990 C   0  0  0  0  0  2  0  0  0  0  0  0
  178.9460  177.8000  139.6130 O   0  0  0  0  0  0  0  0  0  0  0  0
  181.5770  178.6900  141.1370 C   0  0  1  0  0  3  0  0  0  0  0  0
  183.0550  179.1730  141.1800 C   0  0  2  0  0  3  0  0  0  0  0  0
  178.9530  176.0920  141.6470 O   0  0  0  0  0  1  0  0  0  0  0  0
  180.2930  175.4090  139.1470 C   0  0  1  0  0  3  0  0  0  0  0  0
  184.0960  178.2980  140.4620 C   0  0  1  0  0  0  0  0  0  0  0  0
  181.9670  177.9990  138.4280 O   0  0  0  0  0  1  0  0  0  0  0  0
  179.7520  176.7090  140.2890 P   0  0  1  0  0  0  0  0  0  0  0  0
  181.4280  177.2450  140.6570 C   0  0  1  0  0  3  0  0  0  0  0  0
  180.9200  178.8730  142.5050 C   0  0  0  0  0  2  0  0  0  0  0  0
  178.9470  179.7840  143.7790 C   0  0  0  0  0  1  0  0  0  0  0  0
  179.6260  179.6730  142.4350 C   0  0  1  0  0  3  0  0  0  0  0  0
  179.8520  180.9430  141.8950 O   0  0  0  0  0  1  0  0  0  0  0  0
  185.0070  179.0010  142.7560 C   0  0  2  0  0  3  0  0  0  0  0  0
  187.2060  177.8090  142.6910 C   0  0  0  0  0  3  0  0  0  0  0  0
  186.0170  178.0730  143.2600 N   0  0  0  0  0  0  0  0  0  0  0  0
  185.9320  177.4860  144.4450 N   0  0  0  0  0  0  0  0  0  0  0  0
  187.0710  176.7980  144.6640 C   0  0  0  0  0  3  0  0  0  0  0  0
  187.8870  176.9890  143.5690 C   0  0  0  0  0  0  0  0  0  0  0  0
  189.2660  176.4170  143.3890 C   0  0  0  0  0  2  0  0  0  0  0  0
  190.3440  177.1330  144.2110 C   0  0  1  0  0  3  0  0  0  0  0  0
  191.3660  176.1390  144.7470 C   0  0  0  0  0  1  0  0  0  0  0  0
  190.7480  179.4660  143.8170 O   0  0  0  0  0  1  0  0  0  0  0  0
  190.9890  178.2750  143.4820 C   0  0  0  0  0  0  0  0  0  0  0  0
  191.7930  178.0290  142.3790 O   0  0  0  0  0  0  0  0  0  0  0  0
  184.3690  179.7980  143.8890 C   0  0  0  0  0  2  0  0  0  0  0  0
  183.6890  179.0150  145.7960 N   0  0  0  0  0  1  0  0  0  0  0  0
  183.3560  179.0430  144.4860 O   0  0  0  0  0  0  0  0  0  0  0  0
  179.4260  175.1830  138.0530 O   0  0  0  0  0  0  0  0  0  0  0  0
  180.2880  174.4660  136.7330 S   0  0  0  0  0  0  0  0  0  0  0  0
  182.2350  172.1220  137.2930 C   0  0  0  0  0  2  0  0  0  0  0  0
  182.8320  170.9750  136.3910 C   0  0  1  0  0  3  0  0  0  0  0  0
  180.2870  171.7960  136.1500 C   0  0  1  0  0  3  0  0  0  0  0  0
  181.8410  170.2790  135.3780 C   0  0  0  0  0  2  0  0  0  0  0  0
  180.7390  171.9280  137.5910 C   0  0  2  0  0  3  0  0  0  0  0  0
  179.6910  172.7970  137.1230 C   0  0  1  0  0  3  0  0  0  0  0  0
  180.6090  171.1080  135.0840 C   0  0  0  0  0  2  0  0  0  0  0  0
  184.0080  171.4830  135.6720 C   0  0  0  0  0  0  0  0  0  0  0  0
  184.9290  171.8960  135.1060 N   0  0  0  0  0  0  0  0  0  0  0  0
  1 19  1  1  0  0  0
  2 11  1  0  0  0  0
  3 11  1  0  0  0  0
  4 12  1  6  0  0  0
  4  3  1  0  0  0  0
  4 14  1  0  0  0  0
  5 10  1  0  0  0  0
  5  4  1  0  0  0  0
  6 13  2  0  0  0  0
  7  8  1  0  0  0  0
  7 15  1  1  0  0  0
  8  1  1  0  0  0  0
 10 13  1  0  0  0  0
 11  8  1  0  0  0  0
 11  1  1  0  0  0  0
 13 14  1  0  0  0  0
 13  9  1  0  0  0  0
 14  7  1  0  0  0  0
 17 15  1  0  0  0  0
 17 16  1  0  0  0  0
 18 17  1  0  0  0  0
 19 21  1  0  0  0  0
 19 31  1  0  0  0  0
 20 21  1  0  0  0  0
 20 24  2  0  0  0  0
 21 22  1  0  0  0  0
 22 23  2  0  0  0  0
 24 23  1  0  0  0  0
 25 24  1  0  0  0  0
 25 26  1  0  0  0  0
 26 27  1  0  0  0  0
 29 28  1  0  0  0  0
 29 26  1  0  0  0  0
 30 29  2  0  0  0  0
 31 33  1  0  0  0  0
 33 32  1  0  0  0  0
 34 10  1  0  0  0  0
 35 41  1  0  0  0  0
 35 34  1  0  0  0  0
 36 40  1  0  0  0  0
 37 36  1  0  0  0  0
 38 41  1  0  0  0  0
 38 40  1  0  0  0  0
 39 37  1  0  0  0  0
 41 40  1  0  0  0  0
 42 39  1  0  0  0  0
 42 38  1  0  0  0  0
 43 37  1  0  0  0  0
 44 43  3  0  0  0  0
M  END
>  <MODEL>
4

>  <REMARK>
 VINA RESULT:      -6.1      6.584      9.313
  Name = 
  13 active torsions:
  status: ('A' for Active; 'I' for Inactive)
    1  A    between atoms: C_1  and  C_16
    2  A    between atoms: C_5  and  C_16
    3  A    between atoms: C_5  and  O_36
    4  A    between atoms: C_8  and  C_15
    5  A    between atoms: C_8  and  C_19
    6  A    between atoms: C_10  and  C_21
    7  A    between atoms: C_12  and  C_24
    8  A    between atoms: C_12  and  C_39
    9  A    between atoms: S_14  and  O_17
   10  A    between atoms: S_14  and  C_42
   11  A    between atoms: C_16  and  N_23
   12  A    between atoms: O_17  and  C_32
   13  A    between atoms: C_24  and  C_25
                            x       y       z     vdW  Elec       q    Type
                         _______ _______ _______ _____ _____    ______ ____

>  <TORSDO>
F 13

$$$$
=
 OpenBabel11062415503D

 44 49  0  0  1  0  0  0  0  0999 V2000
  183.8040  178.2690  141.2640 C   0  0  1  0  0  3  0  0  0  0  0  0
  184.8360  179.4080  139.1450 C   0  0  0  0  0  1  0  0  0  0  0  0
  183.7330  177.0490  139.0080 C   0  0  0  0  0  2  0  0  0  0  0  0
  182.2850  176.7200  138.7010 C   0  0  2  0  0  0  0  0  0  0  0  0
  182.1340  175.3120  138.1110 C   0  0  0  0  0  2  0  0  0  0  0  0
  178.9310  176.7710  139.0780 O   0  0  0  0  0  0  0  0  0  0  0  0
  181.3600  178.2070  140.5180 C   0  0  1  0  0  3  0  0  0  0  0  0
  182.6950  179.0070  140.5140 C   0  0  2  0  0  3  0  0  0  0  0  0
  179.4030  175.0840  141.0740 O   0  0  0  0  0  1  0  0  0  0  0  0
  180.7550  174.7460  138.5110 C   0  0  1  0  0  3  0  0  0  0  0  0
  183.8730  178.3940  139.7380 C   0  0  1  0  0  0  0  0  0  0  0  0
  181.7800  177.6520  137.7820 O   0  0  0  0  0  1  0  0  0  0  0  0
  179.9860  175.8790  139.7000 P   0  0  1  0  0  0  0  0  0  0  0  0
  181.5160  176.7710  140.0130 C   0  0  1  0  0  3  0  0  0  0  0  0
  180.7370  178.2230  141.9130 C   0  0  0  0  0  2  0  0  0  0  0  0
  179.6930  180.1860  143.0980 C   0  0  0  0  0  1  0  0  0  0  0  0
  179.5330  179.1500  142.0100 C   0  0  1  0  0  3  0  0  0  0  0  0
  179.2760  179.7670  140.7830 O   0  0  0  0  0  1  0  0  0  0  0  0
  184.7010  179.2560  142.0090 C   0  0  2  0  0  3  0  0  0  0  0  0
  186.4180  177.9820  143.3070 C   0  0  0  0  0  3  0  0  0  0  0  0
  186.0170  178.6550  142.2150 N   0  0  0  0  0  0  0  0  0  0  0  0
  186.9350  178.5790  141.2630 N   0  0  0  0  0  0  0  0  0  0  0  0
  187.9780  177.8630  141.7300 C   0  0  0  0  0  3  0  0  0  0  0  0
  187.6710  177.4780  143.0170 C   0  0  0  0  0  0  0  0  0  0  0  0
  188.5430  176.6490  143.9190 C   0  0  0  0  0  2  0  0  0  0  0  0
  189.3670  177.4770  144.9140 C   0  0  1  0  0  3  0  0  0  0  0  0
  188.9670  177.1570  146.3480 C   0  0  0  0  0  1  0  0  0  0  0  0
  191.4270  178.0960  143.8490 O   0  0  0  0  0  0  0  0  0  0  0  0
  190.8470  177.3670  144.6980 C   0  0  0  0  0  0  0  0  0  0  0  0
  191.5770  176.4010  145.3750 O   0  0  0  0  0  1  0  0  0  0  0  0
  184.0610  179.6630  143.3330 C   0  0  0  0  0  2  0  0  0  0  0  0
  183.4910  178.6680  145.1760 N   0  0  0  0  0  1  0  0  0  0  0  0
  183.3050  178.6020  143.8380 O   0  0  0  0  0  0  0  0  0  0  0  0
  179.9140  174.3450  137.4460 O   0  0  0  0  0  0  0  0  0  0  0  0
  180.8560  173.7660  136.1140 S   0  0  0  0  0  0  0  0  0  0  0  0
  183.3620  172.0960  136.8430 C   0  0  0  0  0  2  0  0  0  0  0  0
  184.2570  171.0810  136.0340 C   0  0  1  0  0  3  0  0  0  0  0  0
  181.5870  171.1570  135.7580 C   0  0  1  0  0  3  0  0  0  0  0  0
  183.5030  170.0590  135.0970 C   0  0  0  0  0  2  0  0  0  0  0  0
  181.9720  171.5280  137.1770 C   0  0  2  0  0  3  0  0  0  0  0  0
  180.7320  172.0370  136.6520 C   0  0  1  0  0  3  0  0  0  0  0  0
  182.0950  170.4940  134.7510 C   0  0  0  0  0  2  0  0  0  0  0  0
  185.2570  171.8280  135.2590 C   0  0  0  0  0  0  0  0  0  0  0  0
  186.0380  172.4260  134.6500 N   0  0  0  0  0  0  0  0  0  0  0  0
  1 19  1  1  0  0  0
  2 11  1  0  0  0  0
  3 11  1  0  0  0  0
  4 12  1  6  0  0  0
  4  3  1  0  0  0  0
  4 14  1  0  0  0  0
  5 10  1  0  0  0  0
  5  4  1  0  0  0  0
  6 13  2  0  0  0  0
  7 15  1  1  0  0  0
  8  7  1  0  0  0  0
  8  1  1  0  0  0  0
 10 13  1  0  0  0  0
 11  8  1  0  0  0  0
 11  1  1  0  0  0  0
 13 14  1  0  0  0  0
 13  9  1  0  0  0  0
 14  7  1  0  0  0  0
 15 17  1  0  0  0  0
 17 16  1  0  0  0  0
 18 17  1  0  0  0  0
 19 21  1  0  0  0  0
 19 31  1  0  0  0  0
 21 20  1  0  0  0  0
 22 23  2  0  0  0  0
 22 21  1  0  0  0  0
 23 24  1  0  0  0  0
 24 20  2  0  0  0  0
 24 25  1  0  0  0  0
 25 26  1  0  0  0  0
 26 27  1  0  0  0  0
 28 29  2  0  0  0  0
 29 26  1  0  0  0  0
 29 30  1  0  0  0  0
 31 33  1  0  0  0  0
 33 32  1  0  0  0  0
 34 10  1  0  0  0  0
 35 41  1  0  0  0  0
 35 34  1  0  0  0  0
 36 40  1  0  0  0  0
 37 36  1  0  0  0  0
 38 41  1  0  0  0  0
 38 40  1  0  0  0  0
 39 37  1  0  0  0  0
 41 40  1  0  0  0  0
 42 39  1  0  0  0  0
 42 38  1  0  0  0  0
 43 37  1  0  0  0  0
 44 43  3  0  0  0  0
M  END
>  <MODEL>
5

>  <REMARK>
 VINA RESULT:      -6.1      6.416      8.658
  Name = 
  13 active torsions:
  status: ('A' for Active; 'I' for Inactive)
    1  A    between atoms: C_1  and  C_16
    2  A    between atoms: C_5  and  C_16
    3  A    between atoms: C_5  and  O_36
    4  A    between atoms: C_8  and  C_15
    5  A    between atoms: C_8  and  C_19
    6  A    between atoms: C_10  and  C_21
    7  A    between atoms: C_12  and  C_24
    8  A    between atoms: C_12  and  C_39
    9  A    between atoms: S_14  and  O_17
   10  A    between atoms: S_14  and  C_42
   11  A    between atoms: C_16  and  N_23
   12  A    between atoms: O_17  and  C_32
   13  A    between atoms: C_24  and  C_25
                            x       y       z     vdW  Elec       q    Type
                         _______ _______ _______ _____ _____    ______ ____

>  <TORSDO>
F 13

$$$$
=
 OpenBabel11062415503D

 44 49  0  0  1  0  0  0  0  0999 V2000
  184.6250  178.1260  143.2320 C   0  0  1  0  0  3  0  0  0  0  0  0
  186.0630  180.0430  142.1780 C   0  0  0  0  0  1  0  0  0  0  0  0
  184.7810  178.3360  140.6790 C   0  0  0  0  0  2  0  0  0  0  0  0
  183.3720  178.4580  140.1340 C   0  0  2  0  0  0  0  0  0  0  0  0
  183.1820  177.6310  138.8560 C   0  0  0  0  0  2  0  0  0  0  0  0
  180.0180  178.8300  140.2230 O   0  0  0  0  0  0  0  0  0  0  0  0
  182.3250  178.8630  142.3940 C   0  0  1  0  0  3  0  0  0  0  0  0
  183.7130  179.3170  142.9320 C   0  0  2  0  0  3  0  0  0  0  0  0
  180.0290  176.2870  140.9860 O   0  0  0  0  0  1  0  0  0  0  0  0
  181.7130  177.1670  138.7720 C   0  0  1  0  0  3  0  0  0  0  0  0
  184.9330  179.0380  142.0390 C   0  0  1  0  0  0  0  0  0  0  0  0
  183.0980  179.8040  139.8470 O   0  0  0  0  0  1  0  0  0  0  0  0
  180.8820  177.5900  140.3270 P   0  0  1  0  0  0  0  0  0  0  0  0
  182.4230  177.9190  141.1940 C   0  0  1  0  0  3  0  0  0  0  0  0
  181.5040  178.2270  143.5150 C   0  0  0  0  0  2  0  0  0  0  0  0
  180.0580  180.2180  142.9780 C   0  0  0  0  0  1  0  0  0  0  0  0
  180.3260  179.0900  143.9460 C   0  0  1  0  0  3  0  0  0  0  0  0
  179.1760  178.3160  144.1230 O   0  0  0  0  0  1  0  0  0  0  0  0
  185.4860  178.4030  144.4620 C   0  0  2  0  0  3  0  0  0  0  0  0
  187.9560  178.2540  144.8340 C   0  0  0  0  0  3  0  0  0  0  0  0
  186.8160  177.8280  144.2630 N   0  0  0  0  0  0  0  0  0  0  0  0
  187.0240  176.7030  143.5970 N   0  0  0  0  0  0  0  0  0  0  0  0
  188.3290  176.3790  143.7020 C   0  0  0  0  0  3  0  0  0  0  0  0
  188.9330  177.3450  144.4780 C   0  0  0  0  0  0  0  0  0  0  0  0
  190.3850  177.3790  144.8680 C   0  0  0  0  0  2  0  0  0  0  0  0
  190.7510  176.3840  145.9760 C   0  0  1  0  0  3  0  0  0  0  0  0
  192.0530  175.6660  145.6520 C   0  0  0  0  0  1  0  0  0  0  0  0
  189.7070  177.4620  147.8500 O   0  0  0  0  0  0  0  0  0  0  0  0
  190.7640  176.9960  147.3460 C   0  0  0  0  0  0  0  0  0  0  0  0
  191.9600  177.1280  148.0360 O   0  0  0  0  0  1  0  0  0  0  0  0
  184.8200  177.8440  145.7160 C   0  0  0  0  0  2  0  0  0  0  0  0
  185.6720  179.1070  147.2620 N   0  0  0  0  0  1  0  0  0  0  0  0
  184.5170  178.8860  146.5950 O   0  0  0  0  0  0  0  0  0  0  0  0
  181.0080  177.5380  137.6030 O   0  0  0  0  0  0  0  0  0  0  0  0
  181.4640  179.1320  137.1010 S   0  0  0  0  0  0  0  0  0  0  0  0
  180.7540  181.9330  135.9830 C   0  0  0  0  0  2  0  0  0  0  0  0
  180.2510  183.2680  136.6540 C   0  0  1  0  0  3  0  0  0  0  0  0
  179.3740  180.8570  137.4480 C   0  0  1  0  0  3  0  0  0  0  0  0
  179.1500  183.1280  137.7770 C   0  0  0  0  0  2  0  0  0  0  0  0
  179.6780  180.8340  135.9630 C   0  0  2  0  0  3  0  0  0  0  0  0
  179.7570  179.5970  136.6940 C   0  0  1  0  0  3  0  0  0  0  0  0
  179.0770  181.7370  138.3700 C   0  0  0  0  0  2  0  0  0  0  0  0
  181.4040  184.0150  137.1730 C   0  0  0  0  0  0  0  0  0  0  0  0
  182.3060  184.6070  137.5930 N   0  0  0  0  0  0  0  0  0  0  0  0
  1 19  1  1  0  0  0
  3 11  1  0  0  0  0
  4 12  1  6  0  0  0
  4  3  1  0  0  0  0
  4 14  1  0  0  0  0
  5  4  1  0  0  0  0
  6 13  2  0  0  0  0
  7  8  1  0  0  0  0
  7 15  1  1  0  0  0
  8  1  1  0  0  0  0
 10  5  1  0  0  0  0
 10 13  1  0  0  0  0
 11  2  1  0  0  0  0
 11  8  1  0  0  0  0
 11  1  1  0  0  0  0
 13  9  1  0  0  0  0
 13 14  1  0  0  0  0
 14  7  1  0  0  0  0
 15 17  1  0  0  0  0
 16 17  1  0  0  0  0
 17 18  1  0  0  0  0
 19 31  1  0  0  0  0
 21 19  1  0  0  0  0
 21 20  1  0  0  0  0
 22 23  2  0  0  0  0
 22 21  1  0  0  0  0
 23 24  1  0  0  0  0
 24 20  2  0  0  0  0
 24 25  1  0  0  0  0
 25 26  1  0  0  0  0
 26 29  1  0  0  0  0
 27 26  1  0  0  0  0
 29 28  2  0  0  0  0
 29 30  1  0  0  0  0
 31 33  1  0  0  0  0
 33 32  1  0  0  0  0
 34 10  1  0  0  0  0
 35 34  1  0  0  0  0
 36 37  1  0  0  0  0
 37 43  1  0  0  0  0
 37 39  1  0  0  0  0
 38 42  1  0  0  0  0
 39 42  1  0  0  0  0
 40 36  1  0  0  0  0
 40 41  1  0  0  0  0
 40 38  1  0  0  0  0
 41 35  1  0  0  0  0
 41 38  1  0  0  0  0
 43 44  3  0  0  0  0
M  END
>  <MODEL>
6

>  <REMARK>
 VINA RESULT:      -5.9      7.000     10.648
  Name = 
  13 active torsions:
  status: ('A' for Active; 'I' for Inactive)
    1  A    between atoms: C_1  and  C_16
    2  A    between atoms: C_5  and  C_16
    3  A    between atoms: C_5  and  O_36
    4  A    between atoms: C_8  and  C_15
    5  A    between atoms: C_8  and  C_19
    6  A    between atoms: C_10  and  C_21
    7  A    between atoms: C_12  and  C_24
    8  A    between atoms: C_12  and  C_39
    9  A    between atoms: S_14  and  O_17
   10  A    between atoms: S_14  and  C_42
   11  A    between atoms: C_16  and  N_23
   12  A    between atoms: O_17  and  C_32
   13  A    between atoms: C_24  and  C_25
                            x       y       z     vdW  Elec       q    Type
                         _______ _______ _______ _____ _____    ______ ____

>  <TORSDO>
F 13

$$$$
=
 OpenBabel11062415503D

 44 49  0  0  1  0  0  0  0  0999 V2000
  188.9200  175.4940  137.1050 C   0  0  1  0  0  3  0  0  0  0  0  0
  189.2210  173.2130  135.8570 C   0  0  0  0  0  1  0  0  0  0  0  0
  187.0580  173.7310  137.2190 C   0  0  0  0  0  2  0  0  0  0  0  0
  185.7790  174.3720  136.7160 C   0  0  2  0  0  0  0  0  0  0  0  0
  184.5680  173.9690  137.5680 C   0  0  0  0  0  2  0  0  0  0  0  0
  183.8210  176.7300  135.3020 O   0  0  0  0  0  0  0  0  0  0  0  0
  186.9370  176.4050  135.7730 C   0  0  1  0  0  3  0  0  0  0  0  0
  188.2680  175.5990  135.7260 C   0  0  2  0  0  3  0  0  0  0  0  0
  184.1120  177.9780  137.6270 O   0  0  0  0  0  1  0  0  0  0  0  0
  183.5390  175.1190  137.5530 C   0  0  1  0  0  3  0  0  0  0  0  0
  188.2930  174.2510  136.4650 C   0  0  1  0  0  0  0  0  0  0  0  0
  185.5490  173.9770  135.3900 O   0  0  0  0  0  1  0  0  0  0  0  0
  184.2850  176.5530  136.7330 P   0  0  1  0  0  0  0  0  0  0  0  0
  185.9510  175.8800  136.8180 C   0  0  1  0  0  3  0  0  0  0  0  0
  187.2240  177.8890  136.0010 C   0  0  0  0  0  2  0  0  0  0  0  0
  189.0520  179.1210  137.2200 C   0  0  0  0  0  1  0  0  0  0  0  0
  187.8940  178.1600  137.3420 C   0  0  1  0  0  3  0  0  0  0  0  0
  186.9680  178.6270  138.2790 O   0  0  0  0  0  1  0  0  0  0  0  0
  190.4410  175.5520  136.9890 C   0  0  2  0  0  3  0  0  0  0  0  0
  190.3730  176.4200  139.3350 C   0  0  0  0  0  3  0  0  0  0  0  0
  190.9910  176.2420  138.1550 N   0  0  0  0  0  0  0  0  0  0  0  0
  192.2500  176.6480  138.2270 N   0  0  0  0  0  0  0  0  0  0  0  0
  192.4750  177.1280  139.4670 C   0  0  0  0  0  3  0  0  0  0  0  0
  191.3030  176.9920  140.1800 C   0  0  0  0  0  0  0  0  0  0  0  0
  191.0970  177.3850  141.6170 C   0  0  0  0  0  2  0  0  0  0  0  0
  190.2650  176.3790  142.4210 C   0  0  1  0  0  3  0  0  0  0  0  0
  190.9500  176.0360  143.7360 C   0  0  0  0  0  1  0  0  0  0  0  0
  188.4410  177.9210  142.1890 O   0  0  0  0  0  0  0  0  0  0  0  0
  188.8400  176.8040  142.6150 C   0  0  0  0  0  0  0  0  0  0  0  0
  187.9690  176.0040  143.3390 O   0  0  0  0  0  1  0  0  0  0  0  0
  190.8500  176.2410  135.6910 C   0  0  0  0  0  2  0  0  0  0  0  0
  192.8630  175.6240  135.1630 N   0  0  0  0  0  1  0  0  0  0  0  0
  191.5680  175.3510  134.8890 O   0  0  0  0  0  0  0  0  0  0  0  0
  182.2400  174.7870  137.1010 O   0  0  0  0  0  0  0  0  0  0  0  0
  181.1000  175.9950  137.5900 S   0  0  0  0  0  0  0  0  0  0  0  0
  179.8690  177.7550  139.8230 C   0  0  0  0  0  2  0  0  0  0  0  0
  180.4540  178.8860  140.7530 C   0  0  1  0  0  3  0  0  0  0  0  0
  181.8670  176.6930  140.1180 C   0  0  1  0  0  3  0  0  0  0  0  0
  181.8920  178.6390  141.3540 C   0  0  0  0  0  2  0  0  0  0  0  0
  180.3910  176.3550  140.1880 C   0  0  2  0  0  3  0  0  0  0  0  0
  181.2350  175.5500  139.3440 C   0  0  1  0  0  3  0  0  0  0  0  0
  182.6850  177.5970  140.5930 C   0  0  0  0  0  2  0  0  0  0  0  0
  180.4230  180.1680  140.0370 C   0  0  0  0  0  0  0  0  0  0  0  0
  180.3870  181.1750  139.4680 N   0  0  0  0  0  0  0  0  0  0  0  0
  1 19  1  6  0  0  0
  2 11  1  0  0  0  0
  4 12  1  6  0  0  0
  4 14  1  0  0  0  0
  4  3  1  0  0  0  0
  4  5  1  0  0  0  0
  6 13  2  0  0  0  0
  7 15  1  1  0  0  0
  7 14  1  0  0  0  0
  8  7  1  0  0  0  0
  8 11  1  0  0  0  0
  8  1  1  0  0  0  0
 10  5  1  0  0  0  0
 11  1  1  0  0  0  0
 11  3  1  0  0  0  0
 13 14  1  0  0  0  0
 13 10  1  0  0  0  0
 13  9  1  0  0  0  0
 15 17  1  0  0  0  0
 16 17  1  0  0  0  0
 17 18  1  0  0  0  0
 19 21  1  0  0  0  0
 20 24  2  0  0  0  0
 21 22  1  0  0  0  0
 21 20  1  0  0  0  0
 22 23  2  0  0  0  0
 23 24  1  0  0  0  0
 24 25  1  0  0  0  0
 25 26  1  0  0  0  0
 26 29  1  0  0  0  0
 26 27  1  0  0  0  0
 28 29  2  0  0  0  0
 29 30  1  0  0  0  0
 31 19  1  0  0  0  0
 33 32  1  0  0  0  0
 33 31  1  0  0  0  0
 34 10  1  0  0  0  0
 34 35  1  0  0  0  0
 35 41  1  0  0  0  0
 36 40  1  0  0  0  0
 36 37  1  0  0  0  0
 37 39  1  0  0  0  0
 38 40  1  0  0  0  0
 38 42  1  0  0  0  0
 41 38  1  0  0  0  0
 41 40  1  0  0  0  0
 42 39  1  0  0  0  0
 43 37  1  0  0  0  0
 44 43  3  0  0  0  0
M  END
>  <MODEL>
7

>  <REMARK>
 VINA RESULT:      -5.7      3.938      8.865
  Name = 
  13 active torsions:
  status: ('A' for Active; 'I' for Inactive)
    1  A    between atoms: C_1  and  C_16
    2  A    between atoms: C_5  and  C_16
    3  A    between atoms: C_5  and  O_36
    4  A    between atoms: C_8  and  C_15
    5  A    between atoms: C_8  and  C_19
    6  A    between atoms: C_10  and  C_21
    7  A    between atoms: C_12  and  C_24
    8  A    between atoms: C_12  and  C_39
    9  A    between atoms: S_14  and  O_17
   10  A    between atoms: S_14  and  C_42
   11  A    between atoms: C_16  and  N_23
   12  A    between atoms: O_17  and  C_32
   13  A    between atoms: C_24  and  C_25
                            x       y       z     vdW  Elec       q    Type
                         _______ _______ _______ _____ _____    ______ ____

>  <TORSDO>
F 13

$$$$
=
 OpenBabel11062415503D

 44 49  0  0  1  0  0  0  0  0999 V2000
  185.9850  178.0120  142.5610 C   0  0  1  0  0  3  0  0  0  0  0  0
  187.6070  179.8760  141.6960 C   0  0  0  0  0  1  0  0  0  0  0  0
  186.4500  178.2200  140.0450 C   0  0  0  0  0  2  0  0  0  0  0  0
  185.1210  178.3950  139.3380 C   0  0  2  0  0  0  0  0  0  0  0  0
  185.0530  177.5780  138.0410 C   0  0  0  0  0  2  0  0  0  0  0  0
  181.7960  178.8920  139.0320 O   0  0  0  0  0  0  0  0  0  0  0  0
  183.8290  178.8360  141.4610 C   0  0  1  0  0  3  0  0  0  0  0  0
  185.1590  179.2360  142.1620 C   0  0  2  0  0  3  0  0  0  0  0  0
  181.6230  176.3490  139.7760 O   0  0  0  0  0  1  0  0  0  0  0  0
  183.5880  177.1690  137.7820 C   0  0  1  0  0  3  0  0  0  0  0  0
  186.4650  178.9130  141.4170 C   0  0  1  0  0  0  0  0  0  0  0  0
  184.9320  179.7510  139.0290 O   0  0  0  0  0  1  0  0  0  0  0  0
  182.5960  177.6210  139.2300 P   0  0  1  0  0  0  0  0  0  0  0  0
  184.0330  177.8900  140.2760 C   0  0  1  0  0  3  0  0  0  0  0  0
  182.8590  178.2280  142.4730 C   0  0  0  0  0  2  0  0  0  0  0  0
  180.7670  179.3590  143.3050 C   0  0  0  0  0  1  0  0  0  0  0  0
  182.2700  179.2660  143.4200 C   0  0  1  0  0  3  0  0  0  0  0  0
  182.6430  179.0070  144.7420 O   0  0  0  0  0  1  0  0  0  0  0  0
  186.7040  178.2550  143.8860 C   0  0  2  0  0  3  0  0  0  0  0  0
  189.0860  177.9160  144.5720 C   0  0  0  0  0  3  0  0  0  0  0  0
  187.9940  177.5670  143.8710 N   0  0  0  0  0  0  0  0  0  0  0  0
  188.1880  176.4070  143.2620 N   0  0  0  0  0  0  0  0  0  0  0  0
  189.4370  175.9810  143.5390 C   0  0  0  0  0  3  0  0  0  0  0  0
  190.0190  176.9190  144.3640 C   0  0  0  0  0  0  0  0  0  0  0  0
  191.4090  176.8470  144.9360 C   0  0  0  0  0  2  0  0  0  0  0  0
  191.4440  176.7620  146.4670 C   0  0  1  0  0  3  0  0  0  0  0  0
  190.0340  176.7440  147.0420 C   0  0  0  0  0  1  0  0  0  0  0  0
  192.8060  175.6870  148.1260 O   0  0  0  0  0  1  0  0  0  0  0  0
  192.2830  175.6290  146.9810 C   0  0  0  0  0  0  0  0  0  0  0  0
  192.5570  174.5420  146.1640 O   0  0  0  0  0  0  0  0  0  0  0  0
  185.8400  177.7900  145.0540 C   0  0  0  0  0  2  0  0  0  0  0  0
  186.4260  178.2300  147.0970 N   0  0  0  0  0  1  0  0  0  0  0  0
  185.7990  178.7840  146.0360 O   0  0  0  0  0  0  0  0  0  0  0  0
  183.0410  177.5680  136.5400 O   0  0  0  0  0  0  0  0  0  0  0  0
  182.0980  176.2890  135.8530 S   0  0  0  0  0  0  0  0  0  0  0  0
  181.9180  173.3110  135.0180 C   0  0  0  0  0  2  0  0  0  0  0  0
  182.1280  171.9560  135.7960 C   0  0  1  0  0  3  0  0  0  0  0  0
  183.6890  174.0980  136.2230 C   0  0  1  0  0  3  0  0  0  0  0  0
  183.3460  171.8920  136.7970 C   0  0  0  0  0  2  0  0  0  0  0  0
  183.2350  174.0680  134.7770 C   0  0  2  0  0  3  0  0  0  0  0  0
  183.5660  175.3410  135.3610 C   0  0  1  0  0  3  0  0  0  0  0  0
  183.8480  173.2590  137.2140 C   0  0  0  0  0  2  0  0  0  0  0  0
  180.8850  171.6010  136.4960 C   0  0  0  0  0  0  0  0  0  0  0  0
  179.9050  171.3120  137.0390 N   0  0  0  0  0  0  0  0  0  0  0  0
  1 19  1  1  0  0  0
  3 11  1  0  0  0  0
  4 12  1  6  0  0  0
  4  3  1  0  0  0  0
  4 14  1  0  0  0  0
  5  4  1  0  0  0  0
  6 13  2  0  0  0  0
  7  8  1  0  0  0  0
  7 15  1  1  0  0  0
  8  1  1  0  0  0  0
 10  5  1  0  0  0  0
 10 13  1  0  0  0  0
 11  2  1  0  0  0  0
 11  8  1  0  0  0  0
 11  1  1  0  0  0  0
 13  9  1  0  0  0  0
 13 14  1  0  0  0  0
 14  7  1  0  0  0  0
 15 17  1  0  0  0  0
 16 17  1  0  0  0  0
 17 18  1  0  0  0  0
 19 31  1  0  0  0  0
 21 19  1  0  0  0  0
 21 20  1  0  0  0  0
 22 23  2  0  0  0  0
 22 21  1  0  0  0  0
 23 24  1  0  0  0  0
 24 20  2  0  0  0  0
 24 25  1  0  0  0  0
 25 26  1  0  0  0  0
 26 29  1  0  0  0  0
 26 27  1  0  0  0  0
 29 28  1  0  0  0  0
 30 29  2  0  0  0  0
 31 33  1  0  0  0  0
 33 32  1  0  0  0  0
 34 10  1  0  0  0  0
 35 34  1  0  0  0  0
 36 37  1  0  0  0  0
 37 43  1  0  0  0  0
 37 39  1  0  0  0  0
 38 42  1  0  0  0  0
 39 42  1  0  0  0  0
 40 36  1  0  0  0  0
 40 41  1  0  0  0  0
 40 38  1  0  0  0  0
 41 35  1  0  0  0  0
 41 38  1  0  0  0  0
 43 44  3  0  0  0  0
M  END
>  <MODEL>
8

>  <REMARK>
 VINA RESULT:      -5.6      6.108      8.479
  Name = 
  13 active torsions:
  status: ('A' for Active; 'I' for Inactive)
    1  A    between atoms: C_1  and  C_16
    2  A    between atoms: C_5  and  C_16
    3  A    between atoms: C_5  and  O_36
    4  A    between atoms: C_8  and  C_15
    5  A    between atoms: C_8  and  C_19
    6  A    between atoms: C_10  and  C_21
    7  A    between atoms: C_12  and  C_24
    8  A    between atoms: C_12  and  C_39
    9  A    between atoms: S_14  and  O_17
   10  A    between atoms: S_14  and  C_42
   11  A    between atoms: C_16  and  N_23
   12  A    between atoms: O_17  and  C_32
   13  A    between atoms: C_24  and  C_25
                            x       y       z     vdW  Elec       q    Type
                         _______ _______ _______ _____ _____    ______ ____

>  <TORSDO>
F 13

$$$$
=
 OpenBabel11062415503D

 44 49  0  0  1  0  0  0  0  0999 V2000
  182.2660  178.5420  139.0470 C   0  0  1  0  0  3  0  0  0  0  0  0
  181.1010  176.1980  139.0570 C   0  0  0  0  0  1  0  0  0  0  0  0
  182.6700  176.9180  137.1010 C   0  0  0  0  0  2  0  0  0  0  0  0
  184.1640  176.6940  136.9830 C   0  0  2  0  0  0  0  0  0  0  0  0
  184.6240  176.6780  135.5190 C   0  0  0  0  0  2  0  0  0  0  0  0
  187.4210  176.8740  137.8560 O   0  0  0  0  0  1  0  0  0  0  0  0
  184.6970  177.7670  139.2050 C   0  0  1  0  0  3  0  0  0  0  0  0
  183.2270  177.5180  139.6530 C   0  0  2  0  0  3  0  0  0  0  0  0
  187.2310  179.3790  136.9980 O   0  0  0  0  0  0  0  0  0  0  0  0
  186.0740  177.2000  135.4420 C   0  0  1  0  0  3  0  0  0  0  0  0
  182.2300  177.0880  138.5640 C   0  0  1  0  0  0  0  0  0  0  0  0
  184.5010  175.4690  137.5760 O   0  0  0  0  0  1  0  0  0  0  0  0
  186.5480  177.8340  137.0730 P   0  0  1  0  0  0  0  0  0  0  0  0
  184.8580  177.8530  137.6860 C   0  0  1  0  0  3  0  0  0  0  0  0
  185.2510  179.0220  139.8770 C   0  0  0  0  0  2  0  0  0  0  0  0
  187.2660  178.6230  141.3350 C   0  0  0  0  0  1  0  0  0  0  0  0
  185.7620  178.7580  141.2870 C   0  0  1  0  0  3  0  0  0  0  0  0
  185.3330  179.7530  142.1700 O   0  0  0  0  0  1  0  0  0  0  0  0
  181.1590  178.8950  140.0380 C   0  0  2  0  0  3  0  0  0  0  0  0
  180.5350  180.7010  138.4220 C   0  0  0  0  0  3  0  0  0  0  0  0
  180.5550  180.1710  139.6570 N   0  0  0  0  0  0  0  0  0  0  0  0
  179.8130  180.8940  140.4820 N   0  0  0  0  0  0  0  0  0  0  0  0
  179.3050  181.9390  139.7970 C   0  0  0  0  0  3  0  0  0  0  0  0
  179.7490  181.8340  138.4960 C   0  0  0  0  0  0  0  0  0  0  0  0
  179.4170  182.7790  137.3750 C   0  0  0  0  0  2  0  0  0  0  0  0
  180.5030  182.8630  136.2950 C   0  0  1  0  0  3  0  0  0  0  0  0
  179.9580  182.4310  134.9410 C   0  0  0  0  0  1  0  0  0  0  0  0
  181.8430  184.6290  137.2180 O   0  0  0  0  0  1  0  0  0  0  0  0
  181.1810  184.2010  136.2350 C   0  0  0  0  0  0  0  0  0  0  0  0
  181.0140  185.0140  135.1240 O   0  0  0  0  0  0  0  0  0  0  0  0
  181.7110  178.9430  141.4590 C   0  0  0  0  0  2  0  0  0  0  0  0
  180.6410  179.1330  143.3380 N   0  0  0  0  0  1  0  0  0  0  0  0
  180.8500  178.2640  142.3240 O   0  0  0  0  0  0  0  0  0  0  0  0
  187.0180  176.3320  134.8460 O   0  0  0  0  0  0  0  0  0  0  0  0
  187.0680  174.8200  135.6900 S   0  0  0  0  0  0  0  0  0  0  0  0
  189.7040  174.2660  137.2190 C   0  0  0  0  0  2  0  0  0  0  0  0
  190.9840  175.1380  137.5180 C   0  0  1  0  0  3  0  0  0  0  0  0
  189.7150  175.2360  135.1540 C   0  0  1  0  0  3  0  0  0  0  0  0
  191.5300  176.0280  136.3340 C   0  0  0  0  0  2  0  0  0  0  0  0
  189.6030  173.8440  135.7440 C   0  0  2  0  0  3  0  0  0  0  0  0
  188.5770  174.2830  134.8350 C   0  0  1  0  0  3  0  0  0  0  0  0
  190.5000  176.2770  135.2520 C   0  0  0  0  0  2  0  0  0  0  0  0
  190.7370  175.9740  138.7010 C   0  0  0  0  0  0  0  0  0  0  0  0
  190.5550  176.6340  139.6330 N   0  0  0  0  0  0  0  0  0  0  0  0
  1  8  1  0  0  0  0
  1 19  1  1  0  0  0
  3 11  1  0  0  0  0
  4  3  1  0  0  0  0
  4 12  1  1  0  0  0
  4 14  1  0  0  0  0
  5  4  1  0  0  0  0
  7  8  1  0  0  0  0
  7 15  1  1  0  0  0
  9 13  2  0  0  0  0
 10  5  1  0  0  0  0
 10 13  1  0  0  0  0
 11  1  1  0  0  0  0
 11  2  1  0  0  0  0
 11  8  1  0  0  0  0
 13 14  1  0  0  0  0
 13  6  1  0  0  0  0
 14  7  1  0  0  0  0
 15 17  1  0  0  0  0
 17 16  1  0  0  0  0
 17 18  1  0  0  0  0
 19 31  1  0  0  0  0
 20 24  2  0  0  0  0
 20 21  1  0  0  0  0
 21 19  1  0  0  0  0
 21 22  1  0  0  0  0
 23 22  2  0  0  0  0
 24 23  1  0  0  0  0
 25 24  1  0  0  0  0
 26 25  1  0  0  0  0
 27 26  1  0  0  0  0
 29 26  1  0  0  0  0
 29 28  1  0  0  0  0
 30 29  2  0  0  0  0
 31 33  1  0  0  0  0
 33 32  1  0  0  0  0
 34 10  1  0  0  0  0
 34 35  1  0  0  0  0
 36 37  1  0  0  0  0
 37 43  1  0  0  0  0
 38 42  1  0  0  0  0
 38 40  1  0  0  0  0
 39 37  1  0  0  0  0
 40 36  1  0  0  0  0
 41 38  1  0  0  0  0
 41 35  1  0  0  0  0
 41 40  1  0  0  0  0
 42 39  1  0  0  0  0
 43 44  3  0  0  0  0
M  END
>  <MODEL>
9

>  <REMARK>
 VINA RESULT:      -5.5      4.419      8.157
  Name = 
  13 active torsions:
  status: ('A' for Active; 'I' for Inactive)
    1  A    between atoms: C_1  and  C_16
    2  A    between atoms: C_5  and  C_16
    3  A    between atoms: C_5  and  O_36
    4  A    between atoms: C_8  and  C_15
    5  A    between atoms: C_8  and  C_19
    6  A    between atoms: C_10  and  C_21
    7  A    between atoms: C_12  and  C_24
    8  A    between atoms: C_12  and  C_39
    9  A    between atoms: S_14  and  O_17
   10  A    between atoms: S_14  and  C_42
   11  A    between atoms: C_16  and  N_23
   12  A    between atoms: O_17  and  C_32
   13  A    between atoms: C_24  and  C_25
                            x       y       z     vdW  Elec       q    Type
                         _______ _______ _______ _____ _____    ______ ____

>  <TORSDO>
F 13

$$$$
