=
 OpenBabel11062414423D

 27 30  0  0  1  0  0  0  0  0999 V2000
  185.6930  178.3590  146.2760 C   0  0  0  0  0  3  0  0  0  0  0  0
  186.6250  178.2480  145.2420 C   0  0  0  0  0  0  0  0  0  0  0  0
  184.9100  178.6480  143.6520 C   0  0  0  0  0  0  0  0  0  0  0  0
  183.9760  178.7590  144.6920 C   0  0  0  0  0  0  0  0  0  0  0  0
  182.6040  179.0270  144.4200 N   0  0  0  0  0  1  0  0  0  0  0  0
  184.3920  178.6140  145.9790 N   0  0  0  0  0  0  0  0  0  0  0  0
  186.2110  178.3960  143.9540 N   0  0  0  0  0  0  0  0  0  0  0  0
  188.0560  177.9620  145.5600 C   0  0  2  0  0  3  0  0  0  0  0  0
  190.8390  179.0810  143.8570 C   0  0  0  0  0  1  0  0  0  0  0  0
  188.6070  176.3320  143.7790 N   0  0  0  0  0  2  0  0  0  0  0  0
  188.8500  177.6740  144.2770 C   0  0  2  0  0  3  0  0  0  0  0  0
  190.3370  177.8010  144.4930 C   0  0  1  0  0  3  0  0  0  0  0  0
  189.8800  175.9120  143.2150 C   0  0  0  0  0  2  0  0  0  0  0  0
  190.9590  176.6560  143.8510 N   0  0  0  0  0  2  0  0  0  0  0  0
  188.1550  176.8550  146.6100 C   0  0  0  0  0  2  0  0  0  0  0  0
  188.1610  177.8560  148.8440 C   0  0  0  0  0  2  0  0  0  0  0  0
  188.8690  178.6810  147.9550 O   0  0  0  0  0  0  0  0  0  0  0  0
  189.0170  177.2930  147.7780 C   0  0  2  0  0  3  0  0  0  0  0  0
  184.4280  178.8360  141.9360 S   0  0  0  0  0  0  0  0  0  0  0  0
  186.1020  178.6060  141.3560 C   0  0  0  0  0  3  0  0  0  0  0  0
  186.3500  178.5900  140.0860 N   0  0  0  0  0  0  0  0  0  0  0  0
  189.9990  177.4100  138.4630 C   0  0  0  0  0  3  0  0  0  0  0  0
  188.8340  178.0510  140.4560 C   0  0  0  0  0  2  0  0  0  0  0  0
  189.2160  178.4500  137.7100 C   0  0  0  0  0  2  0  0  0  0  0  0
  187.8760  178.5760  138.2880 N   0  0  0  0  0  0  0  0  0  0  0  0
  187.6690  178.4160  139.5620 C   0  0  0  0  0  0  0  0  0  0  0  0
  189.7950  177.2430  139.7270 N   0  0  0  0  0  0  0  0  0  0  0  0
  2  8  1  0  0  0  0
  2  1  2  0  0  0  0
  3  7  2  0  0  0  0
  3  4  1  0  0  0  0
  4  6  2  0  0  0  0
  5  4  1  0  0  0  0
  6  1  1  0  0  0  0
  7  2  1  0  0  0  0
  8 15  1  1  0  0  0
 10 11  1  0  0  0  0
 11 12  1  0  0  0  0
 11  8  1  1  0  0  0
 12  9  1  6  0  0  0
 13 10  1  0  0  0  0
 13 14  1  0  0  0  0
 14 12  1  0  0  0  0
 17 16  1  0  0  0  0
 18 15  1  6  0  0  0
 18 17  1  0  0  0  0
 18 16  1  0  0  0  0
 19  3  1  0  0  0  0
 20 19  1  0  0  0  0
 21 20  2  0  0  0  0
 22 27  2  0  0  0  0
 24 25  1  0  0  0  0
 24 22  1  0  0  0  0
 25 26  2  0  0  0  0
 26 21  1  0  0  0  0
 26 23  1  0  0  0  0
 27 23  1  0  0  0  0
M  END
>  <MODEL>
1

>  <REMARK>
 VINA RESULT:      -7.8      0.000      0.000
  Name = 
  7 active torsions:
  status: ('A' for Active; 'I' for Inactive)
    1  A    between atoms: C_7  and  C_8
    2  A    between atoms: C_8  and  C_9
    3  A    between atoms: C_8  and  C_12
    4  A    between atoms: C_9  and  C_27
    5  A    between atoms: C_10  and  S_23
    6  A    between atoms: C_16  and  N_26
    7  A    between atoms: C_21  and  S_23
                            x       y       z     vdW  Elec       q    Type
                         _______ _______ _______ _____ _____    ______ ____

>  <TORSDO>
F 7

$$$$
=
 OpenBabel11062414423D

 27 30  0  0  1  0  0  0  0  0999 V2000
  187.8620  178.2020  139.7640 C   0  0  0  0  0  3  0  0  0  0  0  0
  188.1970  177.7540  141.0430 C   0  0  0  0  0  0  0  0  0  0  0  0
  186.0490  178.3840  141.8290 C   0  0  0  0  0  0  0  0  0  0  0  0
  185.7150  178.8350  140.5430 C   0  0  0  0  0  0  0  0  0  0  0  0
  184.4330  179.3930  140.2710 N   0  0  0  0  0  1  0  0  0  0  0  0
  186.6300  178.7300  139.5420 N   0  0  0  0  0  0  0  0  0  0  0  0
  187.2810  177.8550  142.0450 N   0  0  0  0  0  0  0  0  0  0  0  0
  189.5520  177.1780  141.2980 C   0  0  2  0  0  3  0  0  0  0  0  0
  191.4900  175.7860  143.7880 C   0  0  0  0  0  1  0  0  0  0  0  0
  189.8830  178.8630  143.0810 N   0  0  0  0  0  2  0  0  0  0  0  0
  189.9970  177.4560  142.7410 C   0  0  2  0  0  3  0  0  0  0  0  0
  191.4340  177.0620  142.9730 C   0  0  1  0  0  3  0  0  0  0  0  0
  191.0050  179.1190  143.9710 C   0  0  0  0  0  2  0  0  0  0  0  0
  192.0580  178.1450  143.7130 N   0  0  0  0  0  2  0  0  0  0  0  0
  190.5420  177.6650  140.2390 C   0  0  0  0  0  2  0  0  0  0  0  0
  191.1110  176.6710  138.0760 C   0  0  0  0  0  2  0  0  0  0  0  0
  190.2390  175.8180  138.7730 O   0  0  0  0  0  0  0  0  0  0  0  0
  191.2050  176.4950  139.5410 C   0  0  2  0  0  3  0  0  0  0  0  0
  184.8860  178.4880  143.1890 S   0  0  0  0  0  0  0  0  0  0  0  0
  186.0750  177.8530  144.3610 C   0  0  0  0  0  3  0  0  0  0  0  0
  186.3350  178.5160  145.4410 N   0  0  0  0  0  0  0  0  0  0  0  0
  189.3940  177.7920  148.1720 C   0  0  0  0  0  3  0  0  0  0  0  0
  188.4780  177.2300  146.0310 C   0  0  0  0  0  2  0  0  0  0  0  0
  187.9930  177.8700  148.7130 C   0  0  0  0  0  2  0  0  0  0  0  0
  187.0850  178.3530  147.6700 N   0  0  0  0  0  0  0  0  0  0  0  0
  187.2720  178.0560  146.4190 C   0  0  0  0  0  0  0  0  0  0  0  0
  189.5860  177.5030  146.9290 N   0  0  0  0  0  0  0  0  0  0  0  0
  1  2  1  0  0  0  0
  2  8  1  0  0  0  0
  2  7  2  0  0  0  0
  3  7  1  0  0  0  0
  3 19  1  0  0  0  0
  4  3  2  0  0  0  0
  5  4  1  0  0  0  0
  6  1  2  0  0  0  0
  6  4  1  0  0  0  0
  8 15  1  6  0  0  0
 10 13  1  0  0  0  0
 11  8  1  6  0  0  0
 11 12  1  0  0  0  0
 11 10  1  0  0  0  0
 12 14  1  0  0  0  0
 12  9  1  1  0  0  0
 14 13  1  0  0  0  0
 16 17  1  0  0  0  0
 16 18  1  0  0  0  0
 17 18  1  0  0  0  0
 18 15  1  1  0  0  0
 19 20  1  0  0  0  0
 20 21  2  0  0  0  0
 21 26  1  0  0  0  0
 22 24  1  0  0  0  0
 23 26  1  0  0  0  0
 23 27  1  0  0  0  0
 25 24  1  0  0  0  0
 26 25  2  0  0  0  0
 27 22  2  0  0  0  0
M  END
>  <MODEL>
2

>  <REMARK>
 VINA RESULT:      -7.2      2.550      6.228
  Name = 
  7 active torsions:
  status: ('A' for Active; 'I' for Inactive)
    1  A    between atoms: C_7  and  C_8
    2  A    between atoms: C_8  and  C_9
    3  A    between atoms: C_8  and  C_12
    4  A    between atoms: C_9  and  C_27
    5  A    between atoms: C_10  and  S_23
    6  A    between atoms: C_16  and  N_26
    7  A    between atoms: C_21  and  S_23
                            x       y       z     vdW  Elec       q    Type
                         _______ _______ _______ _____ _____    ______ ____

>  <TORSDO>
F 7

$$$$
=
 OpenBabel11062414423D

 27 30  0  0  1  0  0  0  0  0999 V2000
  186.7330  177.9370  145.5070 C   0  0  0  0  0  3  0  0  0  0  0  0
  187.1800  177.7030  144.2060 C   0  0  0  0  0  0  0  0  0  0  0  0
  185.0920  178.4410  143.3530 C   0  0  0  0  0  0  0  0  0  0  0  0
  184.6450  178.6750  144.6620 C   0  0  0  0  0  0  0  0  0  0  0  0
  183.3360  179.1800  144.9110 N   0  0  0  0  0  1  0  0  0  0  0  0
  185.4780  178.4180  145.7060 N   0  0  0  0  0  0  0  0  0  0  0  0
  186.3490  177.9620  143.1590 N   0  0  0  0  0  0  0  0  0  0  0  0
  188.5560  177.1680  143.9780 C   0  0  2  0  0  3  0  0  0  0  0  0
  190.1380  176.8400  147.0250 C   0  0  0  0  0  1  0  0  0  0  0  0
  190.4030  178.8130  144.0950 N   0  0  0  0  0  2  0  0  0  0  0  0
  189.5760  177.9000  144.8630 C   0  0  2  0  0  3  0  0  0  0  0  0
  190.5090  176.9420  145.5600 C   0  0  1  0  0  3  0  0  0  0  0  0
  191.7080  178.7560  144.7350 C   0  0  0  0  0  2  0  0  0  0  0  0
  191.8510  177.4820  145.4280 N   0  0  0  0  0  2  0  0  0  0  0  0
  188.8960  177.1970  142.4880 C   0  0  0  0  0  2  0  0  0  0  0  0
  191.0890  177.0670  141.4080 C   0  0  0  0  0  2  0  0  0  0  0  0
  190.2060  176.1640  140.7940 O   0  0  0  0  0  0  0  0  0  0  0  0
  190.0880  176.3100  142.1880 C   0  0  2  0  0  3  0  0  0  0  0  0
  184.0470  178.7640  141.9340 S   0  0  0  0  0  0  0  0  0  0  0  0
  185.4480  178.9640  140.8450 C   0  0  0  0  0  3  0  0  0  0  0  0
  185.5860  178.1870  139.8190 N   0  0  0  0  0  0  0  0  0  0  0  0
  188.6530  179.2170  137.1980 C   0  0  0  0  0  3  0  0  0  0  0  0
  186.4780  178.2380  137.4110 C   0  0  0  0  0  2  0  0  0  0  0  0
  189.0460  178.5450  138.4860 C   0  0  0  0  0  2  0  0  0  0  0  0
  187.8850  178.4650  139.3760 N   0  0  0  0  0  0  0  0  0  0  0  0
  186.6830  178.3020  138.9090 C   0  0  0  0  0  0  0  0  0  0  0  0
  187.4600  179.0630  136.7320 N   0  0  0  0  0  0  0  0  0  0  0  0
  1  6  1  0  0  0  0
  2  1  2  0  0  0  0
  3  4  1  0  0  0  0
  4  5  1  0  0  0  0
  4  6  2  0  0  0  0
  7  3  2  0  0  0  0
  7  2  1  0  0  0  0
  8 15  1  6  0  0  0
  8  2  1  0  0  0  0
 10 13  1  0  0  0  0
 10 11  1  0  0  0  0
 11  8  1  6  0  0  0
 11 12  1  0  0  0  0
 12  9  1  1  0  0  0
 13 14  1  0  0  0  0
 14 12  1  0  0  0  0
 16 18  1  0  0  0  0
 17 16  1  0  0  0  0
 17 18  1  0  0  0  0
 18 15  1  6  0  0  0
 19  3  1  0  0  0  0
 20 19  1  0  0  0  0
 21 20  2  0  0  0  0
 22 24  1  0  0  0  0
 23 26  1  0  0  0  0
 24 25  1  0  0  0  0
 26 25  2  0  0  0  0
 26 21  1  0  0  0  0
 27 22  2  0  0  0  0
 27 23  1  0  0  0  0
M  END
>  <MODEL>
3

>  <REMARK>
 VINA RESULT:      -7.2      2.054      3.193
  Name = 
  7 active torsions:
  status: ('A' for Active; 'I' for Inactive)
    1  A    between atoms: C_7  and  C_8
    2  A    between atoms: C_8  and  C_9
    3  A    between atoms: C_8  and  C_12
    4  A    between atoms: C_9  and  C_27
    5  A    between atoms: C_10  and  S_23
    6  A    between atoms: C_16  and  N_26
    7  A    between atoms: C_21  and  S_23
                            x       y       z     vdW  Elec       q    Type
                         _______ _______ _______ _____ _____    ______ ____

>  <TORSDO>
F 7

$$$$
=
 OpenBabel11062414423D

 27 30  0  0  1  0  0  0  0  0999 V2000
  183.1030  179.3100  143.9640 C   0  0  0  0  0  3  0  0  0  0  0  0
  183.9350  178.8550  142.9400 C   0  0  0  0  0  0  0  0  0  0  0  0
  185.5520  178.1940  144.5450 C   0  0  0  0  0  0  0  0  0  0  0  0
  184.7140  178.6520  145.5720 C   0  0  0  0  0  0  0  0  0  0  0  0
  185.1050  178.5500  146.9380 N   0  0  0  0  0  1  0  0  0  0  0  0
  183.5090  179.1970  145.2550 N   0  0  0  0  0  0  0  0  0  0  0  0
  185.1400  178.3070  143.2550 N   0  0  0  0  0  0  0  0  0  0  0  0
  183.4980  178.9810  141.5160 C   0  0  2  0  0  3  0  0  0  0  0  0
  180.1530  179.8180  141.6070 C   0  0  0  0  0  1  0  0  0  0  0  0
  182.1900  177.1320  140.5160 N   0  0  0  0  0  2  0  0  0  0  0  0
  182.1160  178.3420  141.3150 C   0  0  2  0  0  3  0  0  0  0  0  0
  181.1610  179.2750  140.6130 C   0  0  1  0  0  3  0  0  0  0  0  0
  180.9620  177.1310  139.7360 C   0  0  0  0  0  2  0  0  0  0  0  0
  180.4770  178.4980  139.5950 N   0  0  0  0  0  2  0  0  0  0  0  0
  184.5760  178.4330  140.5810 C   0  0  0  0  0  2  0  0  0  0  0  0
  184.5900  178.1310  138.1520 C   0  0  0  0  0  2  0  0  0  0  0  0
  185.7260  178.8580  138.5440 O   0  0  0  0  0  0  0  0  0  0  0  0
  184.5330  179.1330  139.2380 C   0  0  2  0  0  3  0  0  0  0  0  0
  187.1490  177.4600  144.8960 S   0  0  0  0  0  0  0  0  0  0  0  0
  187.6300  177.4850  143.1750 C   0  0  0  0  0  3  0  0  0  0  0  0
  188.8830  177.5160  142.8540 N   0  0  0  0  0  0  0  0  0  0  0  0
  189.7890  176.9780  138.8260 C   0  0  0  0  0  3  0  0  0  0  0  0
  190.6040  176.8370  141.0740 C   0  0  0  0  0  2  0  0  0  0  0  0
  189.0600  178.2380  139.2040 C   0  0  0  0  0  2  0  0  0  0  0  0
  188.6230  178.1580  140.6000 N   0  0  0  0  0  0  0  0  0  0  0  0
  189.3280  177.5320  141.4950 C   0  0  0  0  0  0  0  0  0  0  0  0
  190.4860  176.3500  139.7110 N   0  0  0  0  0  0  0  0  0  0  0  0
  1  6  1  0  0  0  0
  2  7  1  0  0  0  0
  2  1  2  0  0  0  0
  3 19  1  0  0  0  0
  3  4  1  0  0  0  0
  4  5  1  0  0  0  0
  6  4  2  0  0  0  0
  7  3  2  0  0  0  0
  8 15  1  6  0  0  0
  8  2  1  0  0  0  0
 10 11  1  0  0  0  0
 11  8  1  6  0  0  0
 12 11  1  0  0  0  0
 12  9  1  1  0  0  0
 13 10  1  0  0  0  0
 14 13  1  0  0  0  0
 14 12  1  0  0  0  0
 16 17  1  0  0  0  0
 16 18  1  0  0  0  0
 17 18  1  0  0  0  0
 18 15  1  1  0  0  0
 20 19  1  0  0  0  0
 21 20  2  0  0  0  0
 22 24  1  0  0  0  0
 22 27  2  0  0  0  0
 23 26  1  0  0  0  0
 24 25  1  0  0  0  0
 25 26  2  0  0  0  0
 26 21  1  0  0  0  0
 27 23  1  0  0  0  0
M  END
>  <MODEL>
4

>  <REMARK>
 VINA RESULT:      -6.8      3.410      6.301
  Name = 
  7 active torsions:
  status: ('A' for Active; 'I' for Inactive)
    1  A    between atoms: C_7  and  C_8
    2  A    between atoms: C_8  and  C_9
    3  A    between atoms: C_8  and  C_12
    4  A    between atoms: C_9  and  C_27
    5  A    between atoms: C_10  and  S_23
    6  A    between atoms: C_16  and  N_26
    7  A    between atoms: C_21  and  S_23
                            x       y       z     vdW  Elec       q    Type
                         _______ _______ _______ _____ _____    ______ ____

>  <TORSDO>
F 7

$$$$
=
 OpenBabel11062414423D

 27 30  0  0  1  0  0  0  0  0999 V2000
  190.0730  176.7320  141.0020 C   0  0  0  0  0  3  0  0  0  0  0  0
  189.1200  177.7520  141.0250 C   0  0  0  0  0  0  0  0  0  0  0  0
  189.3650  178.0370  138.6830 C   0  0  0  0  0  0  0  0  0  0  0  0
  190.3220  177.0120  138.6620 C   0  0  0  0  0  0  0  0  0  0  0  0
  190.9490  176.6180  137.4440 N   0  0  0  0  0  1  0  0  0  0  0  0
  190.6510  176.3840  139.8220 N   0  0  0  0  0  0  0  0  0  0  0  0
  188.7880  178.3800  139.8640 N   0  0  0  0  0  0  0  0  0  0  0  0
  188.4840  178.1450  142.3190 C   0  0  2  0  0  3  0  0  0  0  0  0
  191.4830  178.3040  144.0150 C   0  0  0  0  0  1  0  0  0  0  0  0
  188.2790  176.8500  144.4190 N   0  0  0  0  0  2  0  0  0  0  0  0
  189.2080  177.4840  143.5020 C   0  0  2  0  0  3  0  0  0  0  0  0
  190.0060  178.4810  144.3030 C   0  0  1  0  0  3  0  0  0  0  0  0
  188.8700  177.0420  145.7340 C   0  0  0  0  0  2  0  0  0  0  0  0
  189.7420  178.2090  145.7050 N   0  0  0  0  0  2  0  0  0  0  0  0
  186.9820  177.8650  142.2770 C   0  0  0  0  0  2  0  0  0  0  0  0
  184.8060  178.8950  141.8350 C   0  0  0  0  0  2  0  0  0  0  0  0
  185.7690  179.4340  140.9670 O   0  0  0  0  0  0  0  0  0  0  0  0
  186.1910  179.1580  142.2800 C   0  0  2  0  0  3  0  0  0  0  0  0
  188.8830  178.9000  137.1870 S   0  0  0  0  0  0  0  0  0  0  0  0
  187.3330  178.0180  137.0810 C   0  0  0  0  0  3  0  0  0  0  0  0
  186.3130  178.4170  137.7700 N   0  0  0  0  0  0  0  0  0  0  0  0
  182.8140  176.2130  138.2490 C   0  0  0  0  0  3  0  0  0  0  0  0
  184.8820  176.4090  137.0560 C   0  0  0  0  0  2  0  0  0  0  0  0
  182.6820  177.7110  138.1990 C   0  0  0  0  0  2  0  0  0  0  0  0
  184.0090  178.3270  138.2600 N   0  0  0  0  0  0  0  0  0  0  0  0
  185.0460  177.7570  137.7210 C   0  0  0  0  0  0  0  0  0  0  0  0
  183.8430  175.6420  137.7200 N   0  0  0  0  0  0  0  0  0  0  0  0
  1  2  1  0  0  0  0
  2  8  1  0  0  0  0
  3  7  1  0  0  0  0
  4  3  2  0  0  0  0
  4  6  1  0  0  0  0
  5  4  1  0  0  0  0
  6  1  2  0  0  0  0
  7  2  2  0  0  0  0
  8 15  1  6  0  0  0
 10 13  1  0  0  0  0
 11  8  1  6  0  0  0
 11 12  1  0  0  0  0
 11 10  1  0  0  0  0
 12  9  1  1  0  0  0
 12 14  1  0  0  0  0
 14 13  1  0  0  0  0
 16 18  1  0  0  0  0
 17 16  1  0  0  0  0
 17 18  1  0  0  0  0
 18 15  1  6  0  0  0
 19  3  1  0  0  0  0
 20 19  1  0  0  0  0
 20 21  2  0  0  0  0
 23 27  1  0  0  0  0
 23 26  1  0  0  0  0
 24 22  1  0  0  0  0
 24 25  1  0  0  0  0
 26 21  1  0  0  0  0
 26 25  2  0  0  0  0
 27 22  2  0  0  0  0
M  END
>  <MODEL>
5

>  <REMARK>
 VINA RESULT:      -6.7      3.054      5.784
  Name = 
  7 active torsions:
  status: ('A' for Active; 'I' for Inactive)
    1  A    between atoms: C_7  and  C_8
    2  A    between atoms: C_8  and  C_9
    3  A    between atoms: C_8  and  C_12
    4  A    between atoms: C_9  and  C_27
    5  A    between atoms: C_10  and  S_23
    6  A    between atoms: C_16  and  N_26
    7  A    between atoms: C_21  and  S_23
                            x       y       z     vdW  Elec       q    Type
                         _______ _______ _______ _____ _____    ______ ____

>  <TORSDO>
F 7

$$$$
=
 OpenBabel11062414423D

 27 30  0  0  1  0  0  0  0  0999 V2000
  190.0680  176.7510  141.1420 C   0  0  0  0  0  3  0  0  0  0  0  0
  188.9750  177.6150  141.2320 C   0  0  0  0  0  0  0  0  0  0  0  0
  188.9210  177.7970  138.8670 C   0  0  0  0  0  0  0  0  0  0  0  0
  190.0200  176.9290  138.7790 C   0  0  0  0  0  0  0  0  0  0  0  0
  190.5670  176.5640  137.5150 N   0  0  0  0  0  1  0  0  0  0  0  0
  190.5640  176.4260  139.9190 N   0  0  0  0  0  0  0  0  0  0  0  0
  188.4270  178.1170  140.0910 N   0  0  0  0  0  0  0  0  0  0  0  0
  188.4270  177.9830  142.5720 C   0  0  2  0  0  3  0  0  0  0  0  0
  191.5380  178.5410  143.9530 C   0  0  0  0  0  1  0  0  0  0  0  0
  188.5770  176.7520  144.7150 N   0  0  0  0  0  2  0  0  0  0  0  0
  189.3330  177.4520  143.6930 C   0  0  2  0  0  3  0  0  0  0  0  0
  190.0850  178.5610  144.3840 C   0  0  1  0  0  3  0  0  0  0  0  0
  189.2670  177.0580  145.9580 C   0  0  0  0  0  2  0  0  0  0  0  0
  189.9920  178.3140  145.8110 N   0  0  0  0  0  2  0  0  0  0  0  0
  186.9700  177.5350  142.6900 C   0  0  0  0  0  2  0  0  0  0  0  0
  184.7350  178.4900  142.3950 C   0  0  0  0  0  2  0  0  0  0  0  0
  185.6890  179.3250  141.7900 O   0  0  0  0  0  0  0  0  0  0  0  0
  186.0660  178.7120  142.9990 C   0  0  2  0  0  3  0  0  0  0  0  0
  188.1540  178.4890  137.4020 S   0  0  0  0  0  0  0  0  0  0  0  0
  186.5150  178.0370  137.9480 C   0  0  0  0  0  3  0  0  0  0  0  0
  185.6660  178.9570  138.2760 N   0  0  0  0  0  0  0  0  0  0  0  0
  181.6300  178.1190  138.8680 C   0  0  0  0  0  3  0  0  0  0  0  0
  183.3680  179.7520  139.1010 C   0  0  0  0  0  2  0  0  0  0  0  0
  182.6190  177.0590  139.2690 C   0  0  0  0  0  2  0  0  0  0  0  0
  183.9540  177.4180  138.7850 N   0  0  0  0  0  0  0  0  0  0  0  0
  184.3380  178.6580  138.7150 C   0  0  0  0  0  0  0  0  0  0  0  0
  182.0070  179.3510  138.7920 N   0  0  0  0  0  0  0  0  0  0  0  0
  1  2  1  0  0  0  0
  2  8  1  0  0  0  0
  3  7  1  0  0  0  0
  4  3  2  0  0  0  0
  4  6  1  0  0  0  0
  5  4  1  0  0  0  0
  6  1  2  0  0  0  0
  7  2  2  0  0  0  0
  8 15  1  1  0  0  0
 10 13  1  0  0  0  0
 11  8  1  6  0  0  0
 11 12  1  0  0  0  0
 11 10  1  0  0  0  0
 12  9  1  6  0  0  0
 12 14  1  0  0  0  0
 14 13  1  0  0  0  0
 16 18  1  0  0  0  0
 17 16  1  0  0  0  0
 17 18  1  0  0  0  0
 18 15  1  6  0  0  0
 19 20  1  0  0  0  0
 19  3  1  0  0  0  0
 20 21  2  0  0  0  0
 21 26  1  0  0  0  0
 22 24  1  0  0  0  0
 25 24  1  0  0  0  0
 26 25  2  0  0  0  0
 26 23  1  0  0  0  0
 27 22  2  0  0  0  0
 27 23  1  0  0  0  0
M  END
>  <MODEL>
6

>  <REMARK>
 VINA RESULT:      -6.5      2.913      5.715
  Name = 
  7 active torsions:
  status: ('A' for Active; 'I' for Inactive)
    1  A    between atoms: C_7  and  C_8
    2  A    between atoms: C_8  and  C_9
    3  A    between atoms: C_8  and  C_12
    4  A    between atoms: C_9  and  C_27
    5  A    between atoms: C_10  and  S_23
    6  A    between atoms: C_16  and  N_26
    7  A    between atoms: C_21  and  S_23
                            x       y       z     vdW  Elec       q    Type
                         _______ _______ _______ _____ _____    ______ ____

>  <TORSDO>
F 7

$$$$
=
 OpenBabel11062414423D

 27 30  0  0  1  0  0  0  0  0999 V2000
  186.0040  178.5730  140.0190 C   0  0  0  0  0  3  0  0  0  0  0  0
  186.7900  178.6200  141.1720 C   0  0  0  0  0  0  0  0  0  0  0  0
  184.8360  178.8510  142.4980 C   0  0  0  0  0  0  0  0  0  0  0  0
  184.0490  178.8040  141.3380 C   0  0  0  0  0  0  0  0  0  0  0  0
  182.6290  178.8950  141.4110 N   0  0  0  0  0  1  0  0  0  0  0  0
  184.6530  178.6640  140.1280 N   0  0  0  0  0  0  0  0  0  0  0  0
  186.1870  178.7570  142.3840 N   0  0  0  0  0  0  0  0  0  0  0  0
  188.2770  178.5270  141.0610 C   0  0  2  0  0  3  0  0  0  0  0  0
  188.5260  178.7020  137.6260 C   0  0  0  0  0  1  0  0  0  0  0  0
  189.5370  176.5540  140.2540 N   0  0  0  0  0  2  0  0  0  0  0  0
  188.6790  177.6560  139.8610 C   0  0  2  0  0  3  0  0  0  0  0  0
  189.4270  178.4460  138.8170 C   0  0  1  0  0  3  0  0  0  0  0  0
  190.4540  176.3840  139.1380 C   0  0  0  0  0  2  0  0  0  0  0  0
  190.5650  177.6410  138.4090 N   0  0  0  0  0  2  0  0  0  0  0  0
  188.8800  178.0660  142.3890 C   0  0  0  0  0  2  0  0  0  0  0  0
  191.0460  177.7270  143.4780 C   0  0  0  0  0  2  0  0  0  0  0  0
  190.4840  178.9400  143.9100 O   0  0  0  0  0  0  0  0  0  0  0  0
  190.2870  178.6020  142.5590 C   0  0  2  0  0  3  0  0  0  0  0  0
  184.1010  179.0270  144.1230 S   0  0  0  0  0  0  0  0  0  0  0  0
  185.5290  178.3240  144.9340 C   0  0  0  0  0  3  0  0  0  0  0  0
  185.8760  178.7410  146.1090 N   0  0  0  0  0  0  0  0  0  0  0  0
  189.4750  177.8160  147.9880 C   0  0  0  0  0  3  0  0  0  0  0  0
  188.0550  177.3830  146.1070 C   0  0  0  0  0  2  0  0  0  0  0  0
  188.2470  177.8950  148.8540 C   0  0  0  0  0  2  0  0  0  0  0  0
  187.1320  178.4490  148.0830 N   0  0  0  0  0  0  0  0  0  0  0  0
  187.0040  178.2130  146.8110 C   0  0  0  0  0  0  0  0  0  0  0  0
  189.3540  177.5860  146.7230 N   0  0  0  0  0  0  0  0  0  0  0  0
  1  6  2  0  0  0  0
  1  2  1  0  0  0  0
  2  7  2  0  0  0  0
  3 19  1  0  0  0  0
  4  5  1  0  0  0  0
  4  3  2  0  0  0  0
  6  4  1  0  0  0  0
  7  3  1  0  0  0  0
  8  2  1  0  0  0  0
  8 15  1  1  0  0  0
 11 10  1  0  0  0  0
 11  8  1  1  0  0  0
 12  9  1  6  0  0  0
 12 11  1  0  0  0  0
 13 10  1  0  0  0  0
 14 12  1  0  0  0  0
 14 13  1  0  0  0  0
 16 17  1  0  0  0  0
 18 15  1  1  0  0  0
 18 16  1  0  0  0  0
 18 17  1  0  0  0  0
 19 20  1  0  0  0  0
 20 21  2  0  0  0  0
 21 26  1  0  0  0  0
 22 24  1  0  0  0  0
 23 27  1  0  0  0  0
 23 26  1  0  0  0  0
 25 24  1  0  0  0  0
 26 25  2  0  0  0  0
 27 22  2  0  0  0  0
M  END
>  <MODEL>
7

>  <REMARK>
 VINA RESULT:      -6.4      1.904      5.784
  Name = 
  7 active torsions:
  status: ('A' for Active; 'I' for Inactive)
    1  A    between atoms: C_7  and  C_8
    2  A    between atoms: C_8  and  C_9
    3  A    between atoms: C_8  and  C_12
    4  A    between atoms: C_9  and  C_27
    5  A    between atoms: C_10  and  S_23
    6  A    between atoms: C_16  and  N_26
    7  A    between atoms: C_21  and  S_23
                            x       y       z     vdW  Elec       q    Type
                         _______ _______ _______ _____ _____    ______ ____

>  <TORSDO>
F 7

$$$$
=
 OpenBabel11062414423D

 27 30  0  0  1  0  0  0  0  0999 V2000
  190.1810  176.7430  140.7260 C   0  0  0  0  0  3  0  0  0  0  0  0
  189.1080  177.6360  140.7070 C   0  0  0  0  0  0  0  0  0  0  0  0
  189.1420  177.6300  138.3350 C   0  0  0  0  0  0  0  0  0  0  0  0
  190.2200  176.7340  138.3560 C   0  0  0  0  0  0  0  0  0  0  0  0
  190.8020  176.2580  137.1460 N   0  0  0  0  0  1  0  0  0  0  0  0
  190.7120  176.3110  139.5520 N   0  0  0  0  0  0  0  0  0  0  0  0
  188.6130  178.0580  139.5110 N   0  0  0  0  0  0  0  0  0  0  0  0
  188.5230  178.1210  141.9930 C   0  0  2  0  0  3  0  0  0  0  0  0
  191.4600  178.4760  143.7680 C   0  0  0  0  0  1  0  0  0  0  0  0
  188.3540  176.8010  144.0810 N   0  0  0  0  0  2  0  0  0  0  0  0
  189.2600  177.5030  143.1910 C   0  0  2  0  0  3  0  0  0  0  0  0
  189.9670  178.5480  144.0180 C   0  0  1  0  0  3  0  0  0  0  0  0
  188.8960  177.0250  145.4120 C   0  0  0  0  0  2  0  0  0  0  0  0
  189.6870  178.2500  145.4110 N   0  0  0  0  0  2  0  0  0  0  0  0
  187.0120  177.8880  142.0090 C   0  0  0  0  0  2  0  0  0  0  0  0
  184.8180  178.9570  141.8180 C   0  0  0  0  0  2  0  0  0  0  0  0
  185.6410  179.3750  140.7590 O   0  0  0  0  0  0  0  0  0  0  0  0
  186.2630  179.2060  142.0100 C   0  0  2  0  0  3  0  0  0  0  0  0
  188.4440  178.2200  136.7930 S   0  0  0  0  0  0  0  0  0  0  0  0
  186.9830  177.2080  136.9720 C   0  0  0  0  0  3  0  0  0  0  0  0
  187.0930  175.9200  137.0390 N   0  0  0  0  0  0  0  0  0  0  0  0
  183.8600  173.3090  136.7780 C   0  0  0  0  0  3  0  0  0  0  0  0
  184.5470  175.5840  137.0800 C   0  0  0  0  0  2  0  0  0  0  0  0
  185.0240  172.8790  137.6280 C   0  0  0  0  0  2  0  0  0  0  0  0
  186.1500  173.7940  137.4250 N   0  0  0  0  0  0  0  0  0  0  0  0
  185.9620  175.0580  137.1890 C   0  0  0  0  0  0  0  0  0  0  0  0
  183.6700  174.5630  136.5360 N   0  0  0  0  0  0  0  0  0  0  0  0
  2  1  1  0  0  0  0
  2  8  1  0  0  0  0
  3  4  2  0  0  0  0
  3  7  1  0  0  0  0
  4  6  1  0  0  0  0
  5  4  1  0  0  0  0
  6  1  2  0  0  0  0
  7  2  2  0  0  0  0
  8 15  1  6  0  0  0
 10 13  1  0  0  0  0
 11  8  1  6  0  0  0
 11 12  1  0  0  0  0
 11 10  1  0  0  0  0
 12  9  1  1  0  0  0
 12 14  1  0  0  0  0
 14 13  1  0  0  0  0
 16 18  1  0  0  0  0
 17 16  1  0  0  0  0
 17 18  1  0  0  0  0
 18 15  1  6  0  0  0
 19 20  1  0  0  0  0
 19  3  1  0  0  0  0
 20 21  2  0  0  0  0
 21 26  1  0  0  0  0
 22 24  1  0  0  0  0
 23 26  1  0  0  0  0
 25 24  1  0  0  0  0
 26 25  2  0  0  0  0
 27 22  2  0  0  0  0
 27 23  1  0  0  0  0
M  END
>  <MODEL>
8

>  <REMARK>
 VINA RESULT:      -6.4      3.623      6.081
  Name = 
  7 active torsions:
  status: ('A' for Active; 'I' for Inactive)
    1  A    between atoms: C_7  and  C_8
    2  A    between atoms: C_8  and  C_9
    3  A    between atoms: C_8  and  C_12
    4  A    between atoms: C_9  and  C_27
    5  A    between atoms: C_10  and  S_23
    6  A    between atoms: C_16  and  N_26
    7  A    between atoms: C_21  and  S_23
                            x       y       z     vdW  Elec       q    Type
                         _______ _______ _______ _____ _____    ______ ____

>  <TORSDO>
F 7

$$$$
=
 OpenBabel11062414423D

 27 30  0  0  1  0  0  0  0  0999 V2000
  187.5320  178.1060  138.7420 C   0  0  0  0  0  3  0  0  0  0  0  0
  187.1700  178.1300  140.0900 C   0  0  0  0  0  0  0  0  0  0  0  0
  189.4260  177.7310  140.7060 C   0  0  0  0  0  0  0  0  0  0  0  0
  189.7870  177.7060  139.3510 C   0  0  0  0  0  0  0  0  0  0  0  0
  191.1390  177.4910  138.9560 N   0  0  0  0  0  1  0  0  0  0  0  0
  188.8310  177.8960  138.4030 N   0  0  0  0  0  0  0  0  0  0  0  0
  188.1260  177.9430  141.0400 N   0  0  0  0  0  0  0  0  0  0  0  0
  185.7430  178.3530  140.4720 C   0  0  2  0  0  3  0  0  0  0  0  0
  184.1390  177.0280  137.7200 C   0  0  0  0  0  1  0  0  0  0  0  0
  184.3200  180.1090  139.4590 N   0  0  0  0  0  2  0  0  0  0  0  0
  184.9200  178.8030  139.2550 C   0  0  2  0  0  3  0  0  0  0  0  0
  183.7960  177.8450  138.9490 C   0  0  1  0  0  3  0  0  0  0  0  0
  183.0390  180.0370  138.7740 C   0  0  0  0  0  2  0  0  0  0  0  0
  182.6120  178.6460  138.6920 N   0  0  0  0  0  2  0  0  0  0  0  0
  185.6560  179.3060  141.6640 C   0  0  0  0  0  2  0  0  0  0  0  0
  183.6780  178.9270  143.0560 C   0  0  0  0  0  2  0  0  0  0  0  0
  184.6770  179.5580  143.8160 O   0  0  0  0  0  0  0  0  0  0  0  0
  185.1090  178.5950  142.8850 C   0  0  2  0  0  3  0  0  0  0  0  0
  190.6390  177.4930  142.0040 S   0  0  0  0  0  0  0  0  0  0  0  0
  189.3940  177.5170  143.2840 C   0  0  0  0  0  3  0  0  0  0  0  0
  189.7450  177.4890  144.5290 N   0  0  0  0  0  0  0  0  0  0  0  0
  187.1840  178.2260  147.7290 C   0  0  0  0  0  3  0  0  0  0  0  0
  189.1790  177.1140  147.0050 C   0  0  0  0  0  2  0  0  0  0  0  0
  186.5530  177.8810  146.4070 C   0  0  0  0  0  2  0  0  0  0  0  0
  187.5730  177.8820  145.3560 N   0  0  0  0  0  0  0  0  0  0  0  0
  188.7950  177.5120  145.5970 C   0  0  0  0  0  0  0  0  0  0  0  0
  188.3990  177.8650  147.9720 N   0  0  0  0  0  0  0  0  0  0  0  0
  1  2  1  0  0  0  0
  2  8  1  0  0  0  0
  2  7  2  0  0  0  0
  3  7  1  0  0  0  0
  3 19  1  0  0  0  0
  4  3  2  0  0  0  0
  5  4  1  0  0  0  0
  6  1  2  0  0  0  0
  6  4  1  0  0  0  0
  8 15  1  1  0  0  0
 11 10  1  0  0  0  0
 11  8  1  1  0  0  0
 12  9  1  6  0  0  0
 12 11  1  0  0  0  0
 13 10  1  0  0  0  0
 14 13  1  0  0  0  0
 14 12  1  0  0  0  0
 16 17  1  0  0  0  0
 18 15  1  6  0  0  0
 18 16  1  0  0  0  0
 18 17  1  0  0  0  0
 19 20  1  0  0  0  0
 20 21  2  0  0  0  0
 21 26  1  0  0  0  0
 22 27  2  0  0  0  0
 23 27  1  0  0  0  0
 24 22  1  0  0  0  0
 25 26  2  0  0  0  0
 25 24  1  0  0  0  0
 26 23  1  0  0  0  0
M  END
>  <MODEL>
9

>  <REMARK>
 VINA RESULT:      -6.4      2.723      7.407
  Name = 
  7 active torsions:
  status: ('A' for Active; 'I' for Inactive)
    1  A    between atoms: C_7  and  C_8
    2  A    between atoms: C_8  and  C_9
    3  A    between atoms: C_8  and  C_12
    4  A    between atoms: C_9  and  C_27
    5  A    between atoms: C_10  and  S_23
    6  A    between atoms: C_16  and  N_26
    7  A    between atoms: C_21  and  S_23
                            x       y       z     vdW  Elec       q    Type
                         _______ _______ _______ _____ _____    ______ ____

>  <TORSDO>
F 7

$$$$
