=
 OpenBabel11062415373D

 35 37  0  0  1  0  0  0  0  0999 V2000
  190.1350  177.6770  142.6470 C   0  0  2  0  0  3  0  0  0  0  0  0
  189.9800  176.4510  140.4470 N   0  0  0  0  0  2  0  0  0  0  0  0
  190.7560  177.2370  141.3540 C   0  0  0  0  0  0  0  0  0  0  0  0
  191.9320  177.5770  141.0530 O   0  0  0  0  0  0  0  0  0  0  0  0
  190.6030  175.1320  136.4880 C   0  0  0  0  0  2  0  0  0  0  0  0
  191.9240  176.5000  138.9490 C   0  0  0  0  0  2  0  0  0  0  0  0
  192.0970  175.4580  136.6100 C   0  0  0  0  0  2  0  0  0  0  0  0
  192.4100  176.6610  137.5060 C   0  0  0  0  0  2  0  0  0  0  0  0
  188.4710  176.1030  136.0260 O   0  0  0  0  0  1  0  0  0  0  0  0
  190.4290  176.1640  139.0920 C   0  0  2  0  0  3  0  0  0  0  0  0
  189.7100  176.3700  136.6060 C   0  0  1  0  0  3  0  0  0  0  0  0
  189.5000  176.8370  138.0620 C   0  0  2  0  0  3  0  0  0  0  0  0
  189.5480  178.3580  138.1610 C   0  0  0  0  0  2  0  0  0  0  0  0
  187.3610  178.4320  138.7010 O   0  0  0  0  0  1  0  0  0  0  0  0
  188.2560  178.9230  137.8110 N   0  0  0  0  0  2  0  0  0  0  0  0
  188.6660  177.9740  142.4850 C   0  0  0  0  0  0  0  0  0  0  0  0
  188.3420  178.9370  141.8100 O   0  0  0  0  0  0  0  0  0  0  0  0
  187.5740  177.1610  143.1390 C   0  0  1  0  0  3  0  0  0  0  0  0
  187.8950  175.8000  143.1470 O   0  0  0  0  0  1  0  0  0  0  0  0
  187.1740  177.6750  144.5040 C   0  0  0  0  0  0  0  0  0  0  0  0
  186.8750  178.3190  147.5830 C   0  0  0  0  0  3  0  0  0  0  0  0
  186.1520  178.7980  144.5940 C   0  0  2  0  0  3  0  0  0  0  0  0
  187.9530  177.3230  145.5340 C   0  0  0  0  0  3  0  0  0  0  0  0
  185.2360  178.8070  145.7660 C   0  0  0  0  0  0  0  0  0  0  0  0
  185.1620  178.9090  143.4090 C   0  0  2  0  0  3  0  0  0  0  0  0
  185.5520  178.6460  147.0450 C   0  0  0  0  0  3  0  0  0  0  0  0
  183.8900  179.4890  144.0180 C   0  0  0  0  0  2  0  0  0  0  0  0
  184.8380  177.6490  142.8990 O   0  0  0  0  0  1  0  0  0  0  0  0
  183.9600  179.1640  145.3930 O   0  0  0  0  0  0  0  0  0  0  0  0
  187.8960  177.7570  146.9370 C   0  0  0  0  0  3  0  0  0  0  0  0
  190.8920  178.8030  143.3550 C   0  0  0  0  0  2  0  0  0  0  0  0
  191.7600  178.2920  144.5010 C   0  0  0  0  0  2  0  0  0  0  0  0
  191.3780  176.8800  144.9150 C   0  0  0  0  0  2  0  0  0  0  0  0
  192.2730  175.5860  146.8260 C   0  0  0  0  0  1  0  0  0  0  0  0
  191.4000  176.7550  146.4260 C   0  0  0  0  0  2  0  0  0  0  0  0
  1 31  1  6  0  0  0
  2  3  1  0  0  0  0
  3  1  1  0  0  0  0
  4  3  2  0  0  0  0
  5 11  1  0  0  0  0
  5  7  1  0  0  0  0
  6 10  1  0  0  0  0
  7  8  1  0  0  0  0
  8  6  1  0  0  0  0
 10  2  1  1  0  0  0
 11  9  1  1  0  0  0
 11 12  1  0  0  0  0
 12 13  1  6  0  0  0
 12 10  1  0  0  0  0
 15 13  1  0  0  0  0
 15 14  1  0  0  0  0
 16  1  1  0  0  0  0
 16 18  1  0  0  0  0
 17 16  2  0  0  0  0
 18 19  1  1  0  0  0
 18 20  1  0  0  0  0
 20 23  2  0  0  0  0
 22 20  1  6  0  0  0
 22 24  1  0  0  0  0
 23 30  1  0  0  0  0
 24 26  2  0  0  0  0
 25 28  1  1  0  0  0
 25 27  1  0  0  0  0
 25 22  1  0  0  0  0
 26 21  1  0  0  0  0
 27 29  1  0  0  0  0
 29 24  1  0  0  0  0
 30 21  2  0  0  0  0
 31 32  1  0  0  0  0
 32 33  1  0  0  0  0
 33 35  1  0  0  0  0
 35 34  1  0  0  0  0
M  END
>  <MODEL>
1

>  <REMARK>
 VINA RESULT:      -8.8      0.000      0.000
  Name = 
  11 active torsions:
  status: ('A' for Active; 'I' for Inactive)
    1  A    between atoms: C_3  and  C_11
    2  A    between atoms: N_8  and  C_13
    3  A    between atoms: N_10  and  C_24
    4  A    between atoms: C_11  and  C_16
    5  A    between atoms: C_13  and  C_32
    6  A    between atoms: C_15  and  C_18
    7  A    between atoms: C_16  and  C_18
    8  A    between atoms: C_18  and  C_27
    9  A    between atoms: C_23  and  C_27
   10  A    between atoms: C_23  and  C_34
   11  A    between atoms: C_26  and  C_34
                            x       y       z     vdW  Elec       q    Type
                         _______ _______ _______ _____ _____    ______ ____

>  <TORSDO>
F 11

$$$$
=
 OpenBabel11062415373D

 35 37  0  0  1  0  0  0  0  0999 V2000
  189.9020  177.2220  142.0460 C   0  0  2  0  0  3  0  0  0  0  0  0
  188.6750  177.2900  139.8420 N   0  0  0  0  0  2  0  0  0  0  0  0
  189.7990  176.8390  140.5980 C   0  0  0  0  0  0  0  0  0  0  0  0
  190.7030  176.1560  140.0450 O   0  0  0  0  0  0  0  0  0  0  0  0
  188.1900  176.1000  135.8230 C   0  0  0  0  0  2  0  0  0  0  0  0
  189.5140  178.1840  137.7150 C   0  0  0  0  0  2  0  0  0  0  0  0
  189.2120  177.1570  135.3830 C   0  0  0  0  0  2  0  0  0  0  0  0
  189.2110  178.4300  136.2350 C   0  0  0  0  0  2  0  0  0  0  0  0
  185.8910  175.7890  136.3860 O   0  0  0  0  0  1  0  0  0  0  0  0
  188.6050  177.1440  138.3950 C   0  0  2  0  0  3  0  0  0  0  0  0
  186.9360  176.7090  136.4550 C   0  0  1  0  0  3  0  0  0  0  0  0
  187.1370  177.1410  137.9230 C   0  0  2  0  0  3  0  0  0  0  0  0
  186.4480  178.4730  138.2010 C   0  0  0  0  0  2  0  0  0  0  0  0
  185.4000  179.3220  140.0050 O   0  0  0  0  0  1  0  0  0  0  0  0
  185.3540  178.2830  139.1390 N   0  0  0  0  0  2  0  0  0  0  0  0
  188.6420  177.8920  142.5330 C   0  0  0  0  0  0  0  0  0  0  0  0
  188.5490  179.1030  142.4150 O   0  0  0  0  0  0  0  0  0  0  0  0
  187.5020  177.1490  143.1880 C   0  0  1  0  0  3  0  0  0  0  0  0
  187.7330  175.7700  143.1860 O   0  0  0  0  0  1  0  0  0  0  0  0
  187.1430  177.6790  144.5570 C   0  0  0  0  0  0  0  0  0  0  0  0
  186.9300  178.3540  147.6370 C   0  0  0  0  0  3  0  0  0  0  0  0
  186.1360  178.8150  144.6630 C   0  0  2  0  0  3  0  0  0  0  0  0
  187.9440  177.3270  145.5710 C   0  0  0  0  0  3  0  0  0  0  0  0
  185.2510  178.8460  145.8570 C   0  0  0  0  0  0  0  0  0  0  0  0
  185.1180  178.9270  143.5020 C   0  0  2  0  0  3  0  0  0  0  0  0
  185.5970  178.6920  147.1300 C   0  0  0  0  0  3  0  0  0  0  0  0
  183.8690  179.5280  144.1390 C   0  0  0  0  0  2  0  0  0  0  0  0
  184.7670  177.6670  143.0120 O   0  0  0  0  0  1  0  0  0  0  0  0
  183.9700  179.2140  145.5140 O   0  0  0  0  0  0  0  0  0  0  0  0
  187.9270  177.7750  146.9710 C   0  0  0  0  0  3  0  0  0  0  0  0
  191.1660  178.0090  142.3990 C   0  0  0  0  0  2  0  0  0  0  0  0
  191.3890  178.1090  143.9060 C   0  0  0  0  0  2  0  0  0  0  0  0
  191.4610  176.7380  144.5600 C   0  0  0  0  0  2  0  0  0  0  0  0
  192.1840  175.6850  146.6800 C   0  0  0  0  0  1  0  0  0  0  0  0
  191.4870  176.8800  146.0690 C   0  0  0  0  0  2  0  0  0  0  0  0
  1 31  1  6  0  0  0
  1 16  1  0  0  0  0
  2  3  1  0  0  0  0
  3  1  1  0  0  0  0
  4  3  2  0  0  0  0
  5 11  1  0  0  0  0
  6 10  1  0  0  0  0
  7  5  1  0  0  0  0
  7  8  1  0  0  0  0
  8  6  1  0  0  0  0
 10  2  1  1  0  0  0
 11  9  1  1  0  0  0
 11 12  1  0  0  0  0
 12 13  1  6  0  0  0
 12 10  1  0  0  0  0
 13 15  1  0  0  0  0
 15 14  1  0  0  0  0
 16 18  1  0  0  0  0
 17 16  2  0  0  0  0
 18 19  1  1  0  0  0
 18 20  1  0  0  0  0
 20 23  2  0  0  0  0
 22 20  1  6  0  0  0
 22 24  1  0  0  0  0
 23 30  1  0  0  0  0
 24 26  2  0  0  0  0
 25 28  1  1  0  0  0
 25 27  1  0  0  0  0
 25 22  1  0  0  0  0
 26 21  1  0  0  0  0
 27 29  1  0  0  0  0
 29 24  1  0  0  0  0
 30 21  2  0  0  0  0
 31 32  1  0  0  0  0
 32 33  1  0  0  0  0
 33 35  1  0  0  0  0
 35 34  1  0  0  0  0
M  END
>  <MODEL>
2

>  <REMARK>
 VINA RESULT:      -8.6      1.479      1.769
  Name = 
  11 active torsions:
  status: ('A' for Active; 'I' for Inactive)
    1  A    between atoms: C_3  and  C_11
    2  A    between atoms: N_8  and  C_13
    3  A    between atoms: N_10  and  C_24
    4  A    between atoms: C_11  and  C_16
    5  A    between atoms: C_13  and  C_32
    6  A    between atoms: C_15  and  C_18
    7  A    between atoms: C_16  and  C_18
    8  A    between atoms: C_18  and  C_27
    9  A    between atoms: C_23  and  C_27
   10  A    between atoms: C_23  and  C_34
   11  A    between atoms: C_26  and  C_34
                            x       y       z     vdW  Elec       q    Type
                         _______ _______ _______ _____ _____    ______ ____

>  <TORSDO>
F 11

$$$$
=
 OpenBabel11062415373D

 35 37  0  0  1  0  0  0  0  0999 V2000
  189.9050  177.0990  141.7000 C   0  0  2  0  0  3  0  0  0  0  0  0
  188.7850  176.7660  139.4640 N   0  0  0  0  0  2  0  0  0  0  0  0
  189.9090  177.2410  140.2060 C   0  0  0  0  0  0  0  0  0  0  0  0
  190.8720  177.7970  139.6130 O   0  0  0  0  0  0  0  0  0  0  0  0
  189.0660  177.9070  135.4120 C   0  0  0  0  0  2  0  0  0  0  0  0
  187.1180  177.0670  137.6860 C   0  0  0  0  0  2  0  0  0  0  0  0
  187.5350  177.9500  135.3140 C   0  0  0  0  0  2  0  0  0  0  0  0
  186.8170  176.9210  136.1930 C   0  0  0  0  0  2  0  0  0  0  0  0
  190.9420  176.4340  135.3190 O   0  0  0  0  0  1  0  0  0  0  0  0
  188.6150  177.0530  138.0470 C   0  0  2  0  0  3  0  0  0  0  0  0
  189.6060  176.5070  135.7110 C   0  0  1  0  0  3  0  0  0  0  0  0
  189.4890  176.1090  137.1970 C   0  0  2  0  0  3  0  0  0  0  0  0
  189.0600  174.6520  137.3410 C   0  0  0  0  0  2  0  0  0  0  0  0
  191.1720  174.5220  138.1160 O   0  0  0  0  0  1  0  0  0  0  0  0
  190.2280  173.7970  137.4710 N   0  0  0  0  0  2  0  0  0  0  0  0
  188.6940  177.7500  142.3170 C   0  0  0  0  0  0  0  0  0  0  0  0
  188.5890  178.9640  142.2420 O   0  0  0  0  0  0  0  0  0  0  0  0
  187.6180  176.9860  143.0490 C   0  0  1  0  0  3  0  0  0  0  0  0
  187.9150  175.6210  143.1000 O   0  0  0  0  0  1  0  0  0  0  0  0
  187.2860  177.5610  144.4080 C   0  0  0  0  0  0  0  0  0  0  0  0
  187.1180  178.3180  147.4710 C   0  0  0  0  0  3  0  0  0  0  0  0
  186.3170  178.7310  144.4920 C   0  0  2  0  0  3  0  0  0  0  0  0
  188.0830  177.2080  145.4250 C   0  0  0  0  0  3  0  0  0  0  0  0
  185.4430  178.8200  145.6910 C   0  0  0  0  0  0  0  0  0  0  0  0
  185.2950  178.8480  143.3360 C   0  0  2  0  0  3  0  0  0  0  0  0
  185.7930  178.6870  146.9650 C   0  0  0  0  0  3  0  0  0  0  0  0
  184.0710  179.5050  143.9650 C   0  0  0  0  0  2  0  0  0  0  0  0
  184.8990  177.5880  142.8800 O   0  0  0  0  0  1  0  0  0  0  0  0
  184.1710  179.2220  145.3480 O   0  0  0  0  0  0  0  0  0  0  0  0
  188.0910  177.6910  146.8130 C   0  0  0  0  0  3  0  0  0  0  0  0
  191.2130  177.5220  142.3740 C   0  0  0  0  0  2  0  0  0  0  0  0
  191.0580  177.7100  143.8810 C   0  0  0  0  0  2  0  0  0  0  0  0
  191.6010  176.5220  144.6580 C   0  0  0  0  0  2  0  0  0  0  0  0
  192.1570  175.6430  146.9050 C   0  0  0  0  0  1  0  0  0  0  0  0
  191.6630  176.8490  146.1370 C   0  0  0  0  0  2  0  0  0  0  0  0
  1 16  1  0  0  0  0
  1 31  1  1  0  0  0
  2  3  1  0  0  0  0
  3  1  1  0  0  0  0
  4  3  2  0  0  0  0
  5 11  1  0  0  0  0
  6 10  1  0  0  0  0
  7  5  1  0  0  0  0
  7  8  1  0  0  0  0
  8  6  1  0  0  0  0
 10  2  1  1  0  0  0
 11  9  1  1  0  0  0
 11 12  1  0  0  0  0
 12 13  1  6  0  0  0
 12 10  1  0  0  0  0
 13 15  1  0  0  0  0
 15 14  1  0  0  0  0
 16 18  1  0  0  0  0
 17 16  2  0  0  0  0
 18 19  1  1  0  0  0
 18 20  1  0  0  0  0
 20 23  2  0  0  0  0
 22 20  1  6  0  0  0
 22 24  1  0  0  0  0
 23 30  1  0  0  0  0
 24 26  2  0  0  0  0
 25 28  1  1  0  0  0
 25 27  1  0  0  0  0
 25 22  1  0  0  0  0
 26 21  1  0  0  0  0
 27 29  1  0  0  0  0
 29 24  1  0  0  0  0
 30 21  2  0  0  0  0
 31 32  1  0  0  0  0
 32 33  1  0  0  0  0
 33 35  1  0  0  0  0
 35 34  1  0  0  0  0
M  END
>  <MODEL>
3

>  <REMARK>
 VINA RESULT:      -8.5      1.536      2.399
  Name = 
  11 active torsions:
  status: ('A' for Active; 'I' for Inactive)
    1  A    between atoms: C_3  and  C_11
    2  A    between atoms: N_8  and  C_13
    3  A    between atoms: N_10  and  C_24
    4  A    between atoms: C_11  and  C_16
    5  A    between atoms: C_13  and  C_32
    6  A    between atoms: C_15  and  C_18
    7  A    between atoms: C_16  and  C_18
    8  A    between atoms: C_18  and  C_27
    9  A    between atoms: C_23  and  C_27
   10  A    between atoms: C_23  and  C_34
   11  A    between atoms: C_26  and  C_34
                            x       y       z     vdW  Elec       q    Type
                         _______ _______ _______ _____ _____    ______ ____

>  <TORSDO>
F 11

$$$$
=
 OpenBabel11062415373D

 35 37  0  0  1  0  0  0  0  0999 V2000
  188.4240  178.0240  141.2200 C   0  0  2  0  0  3  0  0  0  0  0  0
  188.3480  177.0760  138.8830 N   0  0  0  0  0  2  0  0  0  0  0  0
  189.1230  177.4440  140.0250 C   0  0  0  0  0  0  0  0  0  0  0  0
  190.3760  177.3100  140.0120 O   0  0  0  0  0  0  0  0  0  0  0  0
  190.5440  175.4460  135.6700 C   0  0  0  0  0  2  0  0  0  0  0  0
  188.8170  177.8580  136.6030 C   0  0  0  0  0  2  0  0  0  0  0  0
  190.3500  176.7430  134.8740 C   0  0  0  0  0  2  0  0  0  0  0  0
  189.0200  177.4550  135.1410 C   0  0  0  0  0  2  0  0  0  0  0  0
  189.4880  173.3810  136.2380 O   0  0  0  0  0  1  0  0  0  0  0  0
  188.9640  176.7080  137.6160 C   0  0  2  0  0  3  0  0  0  0  0  0
  189.2270  174.7230  135.9640 C   0  0  1  0  0  3  0  0  0  0  0  0
  188.4390  175.3390  137.1390 C   0  0  2  0  0  3  0  0  0  0  0  0
  186.9450  175.3760  136.8350 C   0  0  0  0  0  2  0  0  0  0  0  0
  185.7980  173.5640  136.1450 O   0  0  0  0  0  1  0  0  0  0  0  0
  186.3170  174.1350  137.2570 N   0  0  0  0  0  2  0  0  0  0  0  0
  188.7430  177.2550  142.4770 C   0  0  0  0  0  0  0  0  0  0  0  0
  188.1940  176.1790  142.6520 O   0  0  0  0  0  0  0  0  0  0  0  0
  189.6820  177.7580  143.5460 C   0  0  1  0  0  3  0  0  0  0  0  0
  190.1480  179.0420  143.2450 O   0  0  0  0  0  1  0  0  0  0  0  0
  189.1160  177.6560  144.9450 C   0  0  0  0  0  0  0  0  0  0  0  0
  187.3790  177.8120  147.5800 C   0  0  0  0  0  3  0  0  0  0  0  0
  189.8330  176.7840  145.9640 C   0  0  2  0  0  3  0  0  0  0  0  0
  187.8640  178.0960  145.1240 C   0  0  0  0  0  3  0  0  0  0  0  0
  189.7930  177.2100  147.3880 C   0  0  0  0  0  0  0  0  0  0  0  0
  191.3490  176.5760  145.7300 C   0  0  2  0  0  3  0  0  0  0  0  0
  188.7380  177.6070  148.0890 C   0  0  0  0  0  3  0  0  0  0  0  0
  191.9350  176.3880  147.1260 C   0  0  0  0  0  2  0  0  0  0  0  0
  191.9390  177.7190  145.1850 O   0  0  0  0  0  1  0  0  0  0  0  0
  191.0110  177.0070  147.9990 O   0  0  0  0  0  0  0  0  0  0  0  0
  187.0100  178.0170  146.3170 C   0  0  0  0  0  3  0  0  0  0  0  0
  186.9220  178.2410  141.0250 C   0  0  0  0  0  2  0  0  0  0  0  0
  186.3290  179.1900  142.0630 C   0  0  0  0  0  2  0  0  0  0  0  0
  185.1460  178.5680  142.7880 C   0  0  0  0  0  2  0  0  0  0  0  0
  183.6750  178.8340  144.7610 C   0  0  0  0  0  1  0  0  0  0  0  0
  184.5520  179.5620  143.7670 C   0  0  0  0  0  2  0  0  0  0  0  0
  1 31  1  6  0  0  0
  1 16  1  0  0  0  0
  2  3  1  0  0  0  0
  3  1  1  0  0  0  0
  4  3  2  0  0  0  0
  5 11  1  0  0  0  0
  6 10  1  0  0  0  0
  7  8  1  0  0  0  0
  7  5  1  0  0  0  0
  8  6  1  0  0  0  0
 10  2  1  1  0  0  0
 11  9  1  1  0  0  0
 11 12  1  0  0  0  0
 12 13  1  6  0  0  0
 12 10  1  0  0  0  0
 13 15  1  0  0  0  0
 14 15  1  0  0  0  0
 16 17  2  0  0  0  0
 16 18  1  0  0  0  0
 18 19  1  6  0  0  0
 18 20  1  0  0  0  0
 20 23  2  0  0  0  0
 21 26  1  0  0  0  0
 22 20  1  6  0  0  0
 22 24  1  0  0  0  0
 23 30  1  0  0  0  0
 24 29  1  0  0  0  0
 24 26  2  0  0  0  0
 25 28  1  1  0  0  0
 25 22  1  0  0  0  0
 25 27  1  0  0  0  0
 27 29  1  0  0  0  0
 30 21  2  0  0  0  0
 31 32  1  0  0  0  0
 32 33  1  0  0  0  0
 33 35  1  0  0  0  0
 35 34  1  0  0  0  0
M  END
>  <MODEL>
4

>  <REMARK>
 VINA RESULT:      -8.2      2.220      4.653
  Name = 
  11 active torsions:
  status: ('A' for Active; 'I' for Inactive)
    1  A    between atoms: C_3  and  C_11
    2  A    between atoms: N_8  and  C_13
    3  A    between atoms: N_10  and  C_24
    4  A    between atoms: C_11  and  C_16
    5  A    between atoms: C_13  and  C_32
    6  A    between atoms: C_15  and  C_18
    7  A    between atoms: C_16  and  C_18
    8  A    between atoms: C_18  and  C_27
    9  A    between atoms: C_23  and  C_27
   10  A    between atoms: C_23  and  C_34
   11  A    between atoms: C_26  and  C_34
                            x       y       z     vdW  Elec       q    Type
                         _______ _______ _______ _____ _____    ______ ____

>  <TORSDO>
F 11

$$$$
=
 OpenBabel11062415373D

 35 37  0  0  1  0  0  0  0  0999 V2000
  188.2400  178.3690  141.3190 C   0  0  2  0  0  3  0  0  0  0  0  0
  187.9300  177.4160  139.0030 N   0  0  0  0  0  2  0  0  0  0  0  0
  188.8050  177.7150  140.0910 C   0  0  0  0  0  0  0  0  0  0  0  0
  190.0370  177.4600  140.0040 O   0  0  0  0  0  0  0  0  0  0  0  0
  189.4250  175.4060  135.6080 C   0  0  0  0  0  2  0  0  0  0  0  0
  188.9400  178.1910  136.9040 C   0  0  0  0  0  2  0  0  0  0  0  0
  189.9420  176.7350  135.0430 C   0  0  0  0  0  2  0  0  0  0  0  0
  189.0800  177.9500  135.3990 C   0  0  0  0  0  2  0  0  0  0  0  0
  187.4750  174.0400  135.7870 O   0  0  0  0  0  1  0  0  0  0  0  0
  188.4280  176.9810  137.7050 C   0  0  2  0  0  3  0  0  0  0  0  0
  187.9010  175.3660  135.7430 C   0  0  1  0  0  3  0  0  0  0  0  0
  187.3760  176.1120  136.9880 C   0  0  2  0  0  3  0  0  0  0  0  0
  186.1130  176.9010  136.6610 C   0  0  0  0  0  2  0  0  0  0  0  0
  184.6560  175.2200  137.0230 O   0  0  0  0  0  1  0  0  0  0  0  0
  185.0090  176.4420  137.4870 N   0  0  0  0  0  2  0  0  0  0  0  0
  189.0720  178.0670  142.5400 C   0  0  0  0  0  0  0  0  0  0  0  0
  189.9890  178.8240  142.8160 O   0  0  0  0  0  0  0  0  0  0  0  0
  188.8500  176.8630  143.4230 C   0  0  1  0  0  3  0  0  0  0  0  0
  189.3250  175.6970  142.8130 O   0  0  0  0  0  1  0  0  0  0  0  0
  189.3750  177.0400  144.8300 C   0  0  0  0  0  0  0  0  0  0  0  0
  191.0380  177.0410  147.5160 C   0  0  0  0  0  3  0  0  0  0  0  0
  188.6140  177.9450  145.7870 C   0  0  2  0  0  3  0  0  0  0  0  0
  190.6290  176.6340  145.0640 C   0  0  0  0  0  3  0  0  0  0  0  0
  188.6210  177.5870  147.2300 C   0  0  0  0  0  0  0  0  0  0  0  0
  187.1020  178.1130  145.5020 C   0  0  2  0  0  3  0  0  0  0  0  0
  189.6630  177.2430  147.9780 C   0  0  0  0  0  3  0  0  0  0  0  0
  186.4730  178.3550  146.8710 C   0  0  0  0  0  2  0  0  0  0  0  0
  186.5470  176.9350  144.9950 O   0  0  0  0  0  1  0  0  0  0  0  0
  187.3830  177.7950  147.7970 O   0  0  0  0  0  0  0  0  0  0  0  0
  191.4470  176.7840  146.2750 C   0  0  0  0  0  3  0  0  0  0  0  0
  186.7490  178.1080  141.5390 C   0  0  0  0  0  2  0  0  0  0  0  0
  186.0190  179.3280  142.0950 C   0  0  0  0  0  2  0  0  0  0  0  0
  184.6420  178.9680  142.6310 C   0  0  0  0  0  2  0  0  0  0  0  0
  183.3690  178.9130  144.7530 C   0  0  0  0  0  1  0  0  0  0  0  0
  184.3910  179.6820  143.9440 C   0  0  0  0  0  2  0  0  0  0  0  0
  1 31  1  1  0  0  0
  1 16  1  0  0  0  0
  2  3  1  0  0  0  0
  3  1  1  0  0  0  0
  4  3  2  0  0  0  0
  5 11  1  0  0  0  0
  6 10  1  0  0  0  0
  7  8  1  0  0  0  0
  7  5  1  0  0  0  0
  8  6  1  0  0  0  0
 10  2  1  1  0  0  0
 11  9  1  1  0  0  0
 11 12  1  0  0  0  0
 12 13  1  6  0  0  0
 12 10  1  0  0  0  0
 13 15  1  0  0  0  0
 14 15  1  0  0  0  0
 16 17  2  0  0  0  0
 16 18  1  0  0  0  0
 18 19  1  6  0  0  0
 18 20  1  0  0  0  0
 20 23  2  0  0  0  0
 21 26  1  0  0  0  0
 22 20  1  6  0  0  0
 22 24  1  0  0  0  0
 23 30  1  0  0  0  0
 24 29  1  0  0  0  0
 24 26  2  0  0  0  0
 25 28  1  1  0  0  0
 25 22  1  0  0  0  0
 25 27  1  0  0  0  0
 27 29  1  0  0  0  0
 30 21  2  0  0  0  0
 31 32  1  0  0  0  0
 32 33  1  0  0  0  0
 33 35  1  0  0  0  0
 35 34  1  0  0  0  0
M  END
>  <MODEL>
5

>  <REMARK>
 VINA RESULT:      -7.8      2.035      4.026
  Name = 
  11 active torsions:
  status: ('A' for Active; 'I' for Inactive)
    1  A    between atoms: C_3  and  C_11
    2  A    between atoms: N_8  and  C_13
    3  A    between atoms: N_10  and  C_24
    4  A    between atoms: C_11  and  C_16
    5  A    between atoms: C_13  and  C_32
    6  A    between atoms: C_15  and  C_18
    7  A    between atoms: C_16  and  C_18
    8  A    between atoms: C_18  and  C_27
    9  A    between atoms: C_23  and  C_27
   10  A    between atoms: C_23  and  C_34
   11  A    between atoms: C_26  and  C_34
                            x       y       z     vdW  Elec       q    Type
                         _______ _______ _______ _____ _____    ______ ____

>  <TORSDO>
F 11

$$$$
=
 OpenBabel11062415373D

 35 37  0  0  1  0  0  0  0  0999 V2000
  188.3310  178.3730  141.3000 C   0  0  2  0  0  3  0  0  0  0  0  0
  187.9870  177.1650  139.1110 N   0  0  0  0  0  2  0  0  0  0  0  0
  188.4950  178.3030  139.8100 C   0  0  0  0  0  0  0  0  0  0  0  0
  189.0440  179.2450  139.1760 O   0  0  0  0  0  0  0  0  0  0  0  0
  188.3430  177.6450  134.9340 C   0  0  0  0  0  2  0  0  0  0  0  0
  186.6160  176.4230  137.2140 C   0  0  0  0  0  2  0  0  0  0  0  0
  186.9620  177.0040  134.7390 C   0  0  0  0  0  2  0  0  0  0  0  0
  186.6170  175.9230  135.7680 C   0  0  0  0  0  2  0  0  0  0  0  0
  190.6530  177.1360  135.2580 O   0  0  0  0  0  1  0  0  0  0  0  0
  187.9170  177.1170  137.6570 C   0  0  2  0  0  3  0  0  0  0  0  0
  189.3660  176.6850  135.5470 C   0  0  1  0  0  3  0  0  0  0  0  0
  189.2140  176.5220  137.0740 C   0  0  2  0  0  3  0  0  0  0  0  0
  189.4100  175.0670  137.4910 C   0  0  0  0  0  2  0  0  0  0  0  0
  191.1220  176.1310  138.4980 O   0  0  0  0  0  1  0  0  0  0  0  0
  190.7080  174.8980  138.1210 N   0  0  0  0  0  2  0  0  0  0  0  0
  189.4090  177.5990  142.0140 C   0  0  0  0  0  0  0  0  0  0  0  0
  190.5740  177.8680  141.7660 O   0  0  0  0  0  0  0  0  0  0  0  0
  189.1280  176.4870  142.9950 C   0  0  1  0  0  3  0  0  0  0  0  0
  189.5680  175.2550  142.5000 O   0  0  0  0  0  1  0  0  0  0  0  0
  189.6350  176.7700  144.3910 C   0  0  0  0  0  0  0  0  0  0  0  0
  191.2660  176.9700  147.0900 C   0  0  0  0  0  3  0  0  0  0  0  0
  188.8670  177.7470  145.2670 C   0  0  2  0  0  3  0  0  0  0  0  0
  190.8850  176.3780  144.6710 C   0  0  0  0  0  3  0  0  0  0  0  0
  188.8540  177.5000  146.7330 C   0  0  0  0  0  0  0  0  0  0  0  0
  187.3590  177.8980  144.9510 C   0  0  2  0  0  3  0  0  0  0  0  0
  189.8860  177.2110  147.5180 C   0  0  0  0  0  3  0  0  0  0  0  0
  186.7150  178.2450  146.2890 C   0  0  0  0  0  2  0  0  0  0  0  0
  186.8060  176.6860  144.5280 O   0  0  0  0  0  1  0  0  0  0  0  0
  187.6110  177.7540  147.2670 O   0  0  0  0  0  0  0  0  0  0  0  0
  191.6890  176.6180  145.8770 C   0  0  0  0  0  3  0  0  0  0  0  0
  186.9250  178.0220  141.7930 C   0  0  0  0  0  2  0  0  0  0  0  0
  185.9300  179.1590  141.5760 C   0  0  0  0  0  2  0  0  0  0  0  0
  184.5600  178.8300  142.1480 C   0  0  0  0  0  2  0  0  0  0  0  0
  183.6840  178.6390  144.4550 C   0  0  0  0  0  1  0  0  0  0  0  0
  184.3530  179.5610  143.4600 C   0  0  0  0  0  2  0  0  0  0  0  0
  1 31  1  6  0  0  0
  1 16  1  0  0  0  0
  2  3  1  0  0  0  0
  3  1  1  0  0  0  0
  4  3  2  0  0  0  0
  5 11  1  0  0  0  0
  6 10  1  0  0  0  0
  7  5  1  0  0  0  0
  7  8  1  0  0  0  0
  8  6  1  0  0  0  0
 10  2  1  1  0  0  0
 11  9  1  1  0  0  0
 11 12  1  0  0  0  0
 12 13  1  6  0  0  0
 12 10  1  0  0  0  0
 13 15  1  0  0  0  0
 15 14  1  0  0  0  0
 16 18  1  0  0  0  0
 17 16  2  0  0  0  0
 18 19  1  6  0  0  0
 18 20  1  0  0  0  0
 20 23  2  0  0  0  0
 21 26  1  0  0  0  0
 22 20  1  6  0  0  0
 22 24  1  0  0  0  0
 23 30  1  0  0  0  0
 24 29  1  0  0  0  0
 24 26  2  0  0  0  0
 25 28  1  1  0  0  0
 25 22  1  0  0  0  0
 25 27  1  0  0  0  0
 27 29  1  0  0  0  0
 30 21  2  0  0  0  0
 32 31  1  0  0  0  0
 32 33  1  0  0  0  0
 33 35  1  0  0  0  0
 35 34  1  0  0  0  0
M  END
>  <MODEL>
6

>  <REMARK>
 VINA RESULT:      -7.7      1.983      4.341
  Name = 
  11 active torsions:
  status: ('A' for Active; 'I' for Inactive)
    1  A    between atoms: C_3  and  C_11
    2  A    between atoms: N_8  and  C_13
    3  A    between atoms: N_10  and  C_24
    4  A    between atoms: C_11  and  C_16
    5  A    between atoms: C_13  and  C_32
    6  A    between atoms: C_15  and  C_18
    7  A    between atoms: C_16  and  C_18
    8  A    between atoms: C_18  and  C_27
    9  A    between atoms: C_23  and  C_27
   10  A    between atoms: C_23  and  C_34
   11  A    between atoms: C_26  and  C_34
                            x       y       z     vdW  Elec       q    Type
                         _______ _______ _______ _____ _____    ______ ____

>  <TORSDO>
F 11

$$$$
=
 OpenBabel11062415373D

 35 37  0  0  1  0  0  0  0  0999 V2000
  190.1950  177.7670  140.7990 C   0  0  2  0  0  3  0  0  0  0  0  0
  190.4480  176.0330  138.9830 N   0  0  0  0  0  2  0  0  0  0  0  0
  191.0640  176.9600  139.8790 C   0  0  0  0  0  0  0  0  0  0  0  0
  192.3150  177.1160  139.8710 O   0  0  0  0  0  0  0  0  0  0  0  0
  192.3050  173.4160  136.2440 C   0  0  0  0  0  2  0  0  0  0  0  0
  192.2810  176.3140  137.3740 C   0  0  0  0  0  2  0  0  0  0  0  0
  193.3560  174.4890  135.9260 C   0  0  0  0  0  2  0  0  0  0  0  0
  192.8320  175.9260  136.0000 C   0  0  0  0  0  2  0  0  0  0  0  0
  190.0920  172.6980  135.7130 O   0  0  0  0  0  1  0  0  0  0  0  0
  191.1930  175.3720  137.9210 C   0  0  2  0  0  3  0  0  0  0  0  0
  190.8870  173.8350  135.8520 C   0  0  1  0  0  3  0  0  0  0  0  0
  190.2290  174.7950  136.8650 C   0  0  2  0  0  3  0  0  0  0  0  0
  189.4450  175.8910  136.1500 C   0  0  0  0  0  2  0  0  0  0  0  0
  187.7790  174.7570  137.1590 O   0  0  0  0  0  1  0  0  0  0  0  0
  188.0370  175.5360  136.0820 N   0  0  0  0  0  2  0  0  0  0  0  0
  190.5640  177.5490  142.2440 C   0  0  0  0  0  0  0  0  0  0  0  0
  191.4260  178.2610  142.7340 O   0  0  0  0  0  0  0  0  0  0  0  0
  189.9490  176.4760  143.1100 C   0  0  1  0  0  3  0  0  0  0  0  0
  190.4140  175.2080  142.7480 O   0  0  0  0  0  1  0  0  0  0  0  0
  190.0810  176.7460  144.5920 C   0  0  0  0  0  0  0  0  0  0  0  0
  190.9750  176.9390  147.6160 C   0  0  0  0  0  3  0  0  0  0  0  0
  189.0850  177.6830  145.2580 C   0  0  2  0  0  3  0  0  0  0  0  0
  191.2330  176.3850  145.1710 C   0  0  0  0  0  3  0  0  0  0  0  0
  188.7140  177.4070  146.6710 C   0  0  0  0  0  0  0  0  0  0  0  0
  187.7010  177.7960  144.5750 C   0  0  2  0  0  3  0  0  0  0  0  0
  189.5250  177.1320  147.6860 C   0  0  0  0  0  3  0  0  0  0  0  0
  186.7310  178.0990  145.7130 C   0  0  0  0  0  2  0  0  0  0  0  0
  187.3110  176.5780  144.0130 O   0  0  0  0  0  1  0  0  0  0  0  0
  187.3690  177.6140  146.8790 O   0  0  0  0  0  0  0  0  0  0  0  0
  191.7000  176.6230  146.5440 C   0  0  0  0  0  3  0  0  0  0  0  0
  188.6940  177.6130  140.5420 C   0  0  0  0  0  2  0  0  0  0  0  0
  187.8770  178.7470  141.1550 C   0  0  0  0  0  2  0  0  0  0  0  0
  186.3960  178.6130  140.8380 C   0  0  0  0  0  2  0  0  0  0  0  0
  184.4740  178.2750  142.3600 C   0  0  0  0  0  1  0  0  0  0  0  0
  185.5670  179.2340  141.9440 C   0  0  0  0  0  2  0  0  0  0  0  0
  1 31  1  1  0  0  0
  1 16  1  0  0  0  0
  2  3  1  0  0  0  0
  3  1  1  0  0  0  0
  4  3  2  0  0  0  0
  6 10  1  0  0  0  0
  7  8  1  0  0  0  0
  7  5  1  0  0  0  0
  8  6  1  0  0  0  0
 10  2  1  1  0  0  0
 11  9  1  1  0  0  0
 11  5  1  0  0  0  0
 11 12  1  0  0  0  0
 12 13  1  6  0  0  0
 12 10  1  0  0  0  0
 15 13  1  0  0  0  0
 15 14  1  0  0  0  0
 16 17  2  0  0  0  0
 16 18  1  0  0  0  0
 18 19  1  1  0  0  0
 18 20  1  0  0  0  0
 20 23  2  0  0  0  0
 21 26  1  0  0  0  0
 22 20  1  6  0  0  0
 22 24  1  0  0  0  0
 23 30  1  0  0  0  0
 24 29  1  0  0  0  0
 24 26  2  0  0  0  0
 25 28  1  1  0  0  0
 25 22  1  0  0  0  0
 25 27  1  0  0  0  0
 27 29  1  0  0  0  0
 30 21  2  0  0  0  0
 31 32  1  0  0  0  0
 33 32  1  0  0  0  0
 33 35  1  0  0  0  0
 35 34  1  0  0  0  0
M  END
>  <MODEL>
7

>  <REMARK>
 VINA RESULT:      -7.6      1.924      3.794
  Name = 
  11 active torsions:
  status: ('A' for Active; 'I' for Inactive)
    1  A    between atoms: C_3  and  C_11
    2  A    between atoms: N_8  and  C_13
    3  A    between atoms: N_10  and  C_24
    4  A    between atoms: C_11  and  C_16
    5  A    between atoms: C_13  and  C_32
    6  A    between atoms: C_15  and  C_18
    7  A    between atoms: C_16  and  C_18
    8  A    between atoms: C_18  and  C_27
    9  A    between atoms: C_23  and  C_27
   10  A    between atoms: C_23  and  C_34
   11  A    between atoms: C_26  and  C_34
                            x       y       z     vdW  Elec       q    Type
                         _______ _______ _______ _____ _____    ______ ____

>  <TORSDO>
F 11

$$$$
=
 OpenBabel11062415373D

 35 37  0  0  1  0  0  0  0  0999 V2000
  185.2030  178.5540  141.7730 C   0  0  2  0  0  3  0  0  0  0  0  0
  187.4120  178.1110  142.9110 N   0  0  0  0  0  2  0  0  0  0  0  0
  186.6960  178.4060  141.7110 C   0  0  0  0  0  0  0  0  0  0  0  0
  187.3100  178.5100  140.6150 O   0  0  0  0  0  0  0  0  0  0  0  0
  191.6150  177.8510  142.6670 C   0  0  0  0  0  2  0  0  0  0  0  0
  188.9710  176.2190  142.7790 C   0  0  0  0  0  2  0  0  0  0  0  0
  191.5140  176.3340  142.4580 C   0  0  0  0  0  2  0  0  0  0  0  0
  190.3400  175.6740  143.1890 C   0  0  0  0  0  2  0  0  0  0  0  0
  191.6340  179.5480  144.3460 O   0  0  0  0  0  1  0  0  0  0  0  0
  188.8220  177.7460  142.9020 C   0  0  2  0  0  3  0  0  0  0  0  0
  191.0910  178.3030  144.0320 C   0  0  1  0  0  3  0  0  0  0  0  0
  189.5520  178.3860  144.1000 C   0  0  2  0  0  3  0  0  0  0  0  0
  189.0330  177.8550  145.4320 C   0  0  0  0  0  2  0  0  0  0  0  0
  189.6080  176.9400  147.4090 O   0  0  0  0  0  1  0  0  0  0  0  0
  190.1450  177.4400  146.2710 N   0  0  0  0  0  2  0  0  0  0  0  0
  184.6340  178.9980  140.4500 C   0  0  0  0  0  0  0  0  0  0  0  0
  185.3990  179.1390  139.5100 O   0  0  0  0  0  0  0  0  0  0  0  0
  183.1730  179.3080  140.2330 C   0  0  1  0  0  3  0  0  0  0  0  0
  182.9860  180.0630  139.0700 O   0  0  0  0  0  1  0  0  0  0  0  0
  182.2810  178.0880  140.2860 C   0  0  0  0  0  0  0  0  0  0  0  0
  180.8430  175.3070  139.8580 C   0  0  0  0  0  3  0  0  0  0  0  0
  181.2720  177.9660  141.4170 C   0  0  2  0  0  3  0  0  0  0  0  0
  182.6290  177.0510  139.5140 C   0  0  0  0  0  3  0  0  0  0  0  0
  179.9870  177.2780  141.1260 C   0  0  0  0  0  0  0  0  0  0  0  0
  180.7920  179.2990  142.0420 C   0  0  2  0  0  3  0  0  0  0  0  0
  179.8070  176.1210  140.4990 C   0  0  0  0  0  3  0  0  0  0  0  0
  179.3710  179.0140  142.5180 C   0  0  0  0  0  2  0  0  0  0  0  0
  180.7110  180.3100  141.0810 O   0  0  0  0  0  1  0  0  0  0  0  0
  178.9320  177.9220  141.7330 O   0  0  0  0  0  0  0  0  0  0  0  0
  182.0440  175.7050  139.4420 C   0  0  0  0  0  3  0  0  0  0  0  0
  184.7050  179.4010  142.9460 C   0  0  0  0  0  2  0  0  0  0  0  0
  183.8050  178.6130  143.8950 C   0  0  0  0  0  2  0  0  0  0  0  0
  184.0760  178.9580  145.3500 C   0  0  0  0  0  2  0  0  0  0  0  0
  185.8760  179.0260  147.0480 C   0  0  0  0  0  1  0  0  0  0  0  0
  185.3760  178.3250  145.8040 C   0  0  0  0  0  2  0  0  0  0  0  0
  1 31  1  1  0  0  0
  3  1  1  0  0  0  0
  3  2  1  0  0  0  0
  4  3  2  0  0  0  0
  5 11  1  0  0  0  0
  6 10  1  0  0  0  0
  6  8  1  0  0  0  0
  7  5  1  0  0  0  0
  7  8  1  0  0  0  0
 10  2  1  1  0  0  0
 10 12  1  0  0  0  0
 11 12  1  0  0  0  0
 11  9  1  6  0  0  0
 12 13  1  1  0  0  0
 13 15  1  0  0  0  0
 15 14  1  0  0  0  0
 16  1  1  0  0  0  0
 17 16  2  0  0  0  0
 18 19  1  6  0  0  0
 18 20  1  0  0  0  0
 18 16  1  0  0  0  0
 21 26  1  0  0  0  0
 22 20  1  6  0  0  0
 22 25  1  0  0  0  0
 23 20  2  0  0  0  0
 24 22  1  0  0  0  0
 24 29  1  0  0  0  0
 25 28  1  6  0  0  0
 25 27  1  0  0  0  0
 26 24  2  0  0  0  0
 29 27  1  0  0  0  0
 30 23  1  0  0  0  0
 30 21  2  0  0  0  0
 31 32  1  0  0  0  0
 32 33  1  0  0  0  0
 33 35  1  0  0  0  0
 35 34  1  0  0  0  0
M  END
>  <MODEL>
8

>  <REMARK>
 VINA RESULT:      -7.6      3.689      6.791
  Name = 
  11 active torsions:
  status: ('A' for Active; 'I' for Inactive)
    1  A    between atoms: C_3  and  C_11
    2  A    between atoms: N_8  and  C_13
    3  A    between atoms: N_10  and  C_24
    4  A    between atoms: C_11  and  C_16
    5  A    between atoms: C_13  and  C_32
    6  A    between atoms: C_15  and  C_18
    7  A    between atoms: C_16  and  C_18
    8  A    between atoms: C_18  and  C_27
    9  A    between atoms: C_23  and  C_27
   10  A    between atoms: C_23  and  C_34
   11  A    between atoms: C_26  and  C_34
                            x       y       z     vdW  Elec       q    Type
                         _______ _______ _______ _____ _____    ______ ____

>  <TORSDO>
F 11

$$$$
=
 OpenBabel11062415373D

 35 37  0  0  1  0  0  0  0  0999 V2000
  186.5000  178.8100  142.1400 C   0  0  2  0  0  3  0  0  0  0  0  0
  187.3260  178.1950  139.8360 N   0  0  0  0  0  2  0  0  0  0  0  0
  186.3390  178.8330  140.6480 C   0  0  0  0  0  0  0  0  0  0  0  0
  185.3340  179.3780  140.1160 O   0  0  0  0  0  0  0  0  0  0  0  0
  187.2860  178.2600  135.6180 C   0  0  0  0  0  2  0  0  0  0  0  0
  185.8710  177.1530  138.1560 C   0  0  0  0  0  2  0  0  0  0  0  0
  185.9560  177.4960  135.6150 C   0  0  0  0  0  2  0  0  0  0  0  0
  185.7940  176.5050  136.7720 C   0  0  0  0  0  2  0  0  0  0  0  0
  189.6510  177.9710  135.7750 O   0  0  0  0  0  1  0  0  0  0  0  0
  187.1380  177.9890  138.4070 C   0  0  2  0  0  3  0  0  0  0  0  0
  188.4370  177.4530  136.2240 C   0  0  1  0  0  3  0  0  0  0  0  0
  188.4290  177.4400  137.7670 C   0  0  2  0  0  3  0  0  0  0  0  0
  188.7860  176.0570  138.3040 C   0  0  0  0  0  2  0  0  0  0  0  0
  190.1880  174.4420  137.5940 O   0  0  0  0  0  1  0  0  0  0  0  0
  189.1100  175.1630  137.2050 N   0  0  0  0  0  2  0  0  0  0  0  0
  187.7920  178.1480  142.5480 C   0  0  0  0  0  0  0  0  0  0  0  0
  188.8370  178.5990  142.1080 O   0  0  0  0  0  0  0  0  0  0  0  0
  187.8610  176.9370  143.4470 C   0  0  1  0  0  3  0  0  0  0  0  0
  187.9480  175.7590  142.6990 O   0  0  0  0  0  1  0  0  0  0  0  0
  188.9310  177.0340  144.5110 C   0  0  0  0  0  0  0  0  0  0  0  0
  191.5670  176.8760  146.2470 C   0  0  0  0  0  3  0  0  0  0  0  0
  188.6680  177.8890  145.7410 C   0  0  2  0  0  3  0  0  0  0  0  0
  190.1550  176.6070  144.1760 C   0  0  0  0  0  3  0  0  0  0  0  0
  189.2690  177.4520  147.0280 C   0  0  0  0  0  0  0  0  0  0  0  0
  187.1810  178.0820  146.1250 C   0  0  2  0  0  3  0  0  0  0  0  0
  190.5180  177.0620  147.2520 C   0  0  0  0  0  3  0  0  0  0  0  0
  187.1910  178.2530  147.6410 C   0  0  0  0  0  2  0  0  0  0  0  0
  186.4320  176.9380  145.8430 O   0  0  0  0  0  1  0  0  0  0  0  0
  188.3890  177.6360  148.0720 O   0  0  0  0  0  0  0  0  0  0  0  0
  191.4100  176.6850  144.9380 C   0  0  0  0  0  3  0  0  0  0  0  0
  185.2880  178.2590  142.8940 C   0  0  0  0  0  2  0  0  0  0  0  0
  184.6080  179.3180  143.7590 C   0  0  0  0  0  2  0  0  0  0  0  0
  183.2950  178.8160  144.3390 C   0  0  0  0  0  2  0  0  0  0  0  0
  180.8550  178.6280  143.9700 C   0  0  0  0  0  1  0  0  0  0  0  0
  182.1760  179.0030  143.3350 C   0  0  0  0  0  2  0  0  0  0  0  0
  1 16  1  0  0  0  0
  1 31  1  1  0  0  0
  2  3  1  0  0  0  0
  3  1  1  0  0  0  0
  4  3  2  0  0  0  0
  5 11  1  0  0  0  0
  6 10  1  0  0  0  0
  7  5  1  0  0  0  0
  7  8  1  0  0  0  0
  8  6  1  0  0  0  0
 10  2  1  1  0  0  0
 11  9  1  1  0  0  0
 11 12  1  0  0  0  0
 12 13  1  6  0  0  0
 12 10  1  0  0  0  0
 15 14  1  0  0  0  0
 15 13  1  0  0  0  0
 16 18  1  0  0  0  0
 17 16  2  0  0  0  0
 18 19  1  6  0  0  0
 18 20  1  0  0  0  0
 21 26  1  0  0  0  0
 22 20  1  6  0  0  0
 22 25  1  0  0  0  0
 22 24  1  0  0  0  0
 23 20  2  0  0  0  0
 23 30  1  0  0  0  0
 24 26  2  0  0  0  0
 24 29  1  0  0  0  0
 25 28  1  1  0  0  0
 25 27  1  0  0  0  0
 27 29  1  0  0  0  0
 30 21  2  0  0  0  0
 31 32  1  0  0  0  0
 32 33  1  0  0  0  0
 35 34  1  0  0  0  0
 35 33  1  0  0  0  0
M  END
>  <MODEL>
9

>  <REMARK>
 VINA RESULT:      -7.6      2.295      5.081
  Name = 
  11 active torsions:
  status: ('A' for Active; 'I' for Inactive)
    1  A    between atoms: C_3  and  C_11
    2  A    between atoms: N_8  and  C_13
    3  A    between atoms: N_10  and  C_24
    4  A    between atoms: C_11  and  C_16
    5  A    between atoms: C_13  and  C_32
    6  A    between atoms: C_15  and  C_18
    7  A    between atoms: C_16  and  C_18
    8  A    between atoms: C_18  and  C_27
    9  A    between atoms: C_23  and  C_27
   10  A    between atoms: C_23  and  C_34
   11  A    between atoms: C_26  and  C_34
                            x       y       z     vdW  Elec       q    Type
                         _______ _______ _______ _____ _____    ______ ____

>  <TORSDO>
F 11

$$$$
