=
 OpenBabel11062418103D

 25 28  0  0  1  0  0  0  0  0999 V2000
  184.6810  180.4260  143.9830 C   0  0  0  0  0  1  0  0  0  0  0  0
  184.4070  178.9320  144.1650 C   0  0  1  0  0  0  0  0  0  0  0  0
  182.2540  178.8270  142.2800 C   0  0  0  0  0  0  0  0  0  0  0  0
  186.2420  178.2860  141.1040 O   0  0  0  0  0  0  0  0  0  0  0  0
  181.1650  179.1530  141.3230 C   0  0  0  0  0  1  0  0  0  0  0  0
  185.9650  178.2040  142.3300 C   0  0  0  0  0  0  0  0  0  0  0  0
  187.7010  177.6070  145.6400 C   0  0  0  0  0  0  0  0  0  0  0  0
  187.0060  178.0420  143.2950 N   0  0  0  0  0  2  0  0  0  0  0  0
  181.9680  178.7680  143.7330 C   0  0  0  0  0  3  0  0  0  0  0  0
  185.1510  178.4110  146.5320 C   0  0  0  0  0  3  0  0  0  0  0  0
  186.7120  178.0010  144.7040 C   0  0  0  0  0  0  0  0  0  0  0  0
  185.4200  178.3880  145.1570 C   0  0  0  0  0  0  0  0  0  0  0  0
  186.1230  178.0250  147.4510 C   0  0  0  0  0  3  0  0  0  0  0  0
  187.3830  177.6290  147.0080 C   0  0  0  0  0  3  0  0  0  0  0  0
  182.9730  178.7740  144.6250 C   0  0  0  0  0  3  0  0  0  0  0  0
  183.4930  178.5990  141.8280 C   0  0  0  0  0  3  0  0  0  0  0  0
  184.5520  178.1900  142.8190 C   0  0  2  0  0  3  0  0  0  0  0  0
  190.0930  177.1080  146.1950 C   0  0  0  0  0  3  0  0  0  0  0  0
  189.0670  177.1670  145.2400 C   0  0  0  0  0  0  0  0  0  0  0  0
  190.6360  176.3350  143.5930 C   0  0  0  0  0  3  0  0  0  0  0  0
  191.6100  176.2980  144.5400 N   0  0  0  0  0  0  0  0  0  0  0  0
  191.3680  176.6730  145.8270 C   0  0  0  0  0  0  0  0  0  0  0  0
  189.3510  176.7650  143.9280 C   0  0  0  0  0  3  0  0  0  0  0  0
  192.3780  176.6260  146.7890 O   0  0  0  0  0  0  0  0  0  0  0  0
  192.3890  175.6540  147.8230 C   0  0  0  0  0  1  0  0  0  0  0  0
  2  1  1  6  0  0  0
  2 15  1  0  0  0  0
  2 12  1  0  0  0  0
  3  9  1  0  0  0  0
  4  6  2  0  0  0  0
  5  3  1  0  0  0  0
  6 17  1  0  0  0  0
  6  8  1  0  0  0  0
  7 14  1  0  0  0  0
  8 11  1  0  0  0  0
  9 15  2  0  0  0  0
 10 13  1  0  0  0  0
 11 12  1  0  0  0  0
 11  7  2  0  0  0  0
 12 10  2  0  0  0  0
 14 13  2  0  0  0  0
 16  3  2  0  0  0  0
 17 16  1  6  0  0  0
 17  2  1  0  0  0  0
 19  7  1  0  0  0  0
 19 18  2  0  0  0  0
 20 23  2  0  0  0  0
 20 21  1  0  0  0  0
 21 22  2  0  0  0  0
 22 18  1  0  0  0  0
 22 24  1  0  0  0  0
 23 19  1  0  0  0  0
 24 25  1  0  0  0  0
M  END
>  <MODEL>
1

>  <REMARK>
 VINA RESULT:     -10.2      0.000      0.000
  Name = 
  2 active torsions:
  status: ('A' for Active; 'I' for Inactive)
    1  A    between atoms: C_3  and  C_12
    2  A    between atoms: C_11  and  O_17
                            x       y       z     vdW  Elec       q    Type
                         _______ _______ _______ _____ _____    ______ ____

>  <TORSDO>
F 2

$$$$
=
 OpenBabel11062418103D

 25 28  0  0  1  0  0  0  0  0999 V2000
  184.6280  180.4420  144.0460 C   0  0  0  0  0  1  0  0  0  0  0  0
  184.3770  178.9430  144.2090 C   0  0  1  0  0  0  0  0  0  0  0  0
  182.0680  178.8760  142.5170 C   0  0  0  0  0  0  0  0  0  0  0  0
  185.9410  178.3920  140.9830 O   0  0  0  0  0  0  0  0  0  0  0  0
  180.8980  179.2210  141.6680 C   0  0  0  0  0  1  0  0  0  0  0  0
  185.7720  178.2750  142.2260 C   0  0  0  0  0  0  0  0  0  0  0  0
  187.7920  177.5990  145.3540 C   0  0  0  0  0  0  0  0  0  0  0  0
  186.8940  178.0930  143.0920 N   0  0  0  0  0  2  0  0  0  0  0  0
  181.9110  178.7750  143.9870 C   0  0  0  0  0  3  0  0  0  0  0  0
  185.3260  178.3610  146.4870 C   0  0  0  0  0  3  0  0  0  0  0  0
  186.7230  178.0120  144.5190 C   0  0  0  0  0  0  0  0  0  0  0  0
  185.4750  178.3770  145.0940 C   0  0  0  0  0  0  0  0  0  0  0  0
  186.3770  177.9560  147.3070 C   0  0  0  0  0  3  0  0  0  0  0  0
  187.5950  177.5810  146.7450 C   0  0  0  0  0  3  0  0  0  0  0  0
  182.9890  178.7620  144.7880 C   0  0  0  0  0  3  0  0  0  0  0  0
  183.2640  178.6680  141.9520 C   0  0  0  0  0  3  0  0  0  0  0  0
  184.4070  178.2380  142.8350 C   0  0  2  0  0  3  0  0  0  0  0  0
  189.2390  176.7410  143.4970 C   0  0  0  0  0  3  0  0  0  0  0  0
  189.1190  177.1780  144.8250 C   0  0  0  0  0  0  0  0  0  0  0  0
  191.5090  176.8670  145.0780 C   0  0  0  0  0  3  0  0  0  0  0  0
  191.5890  176.4400  143.7900 N   0  0  0  0  0  0  0  0  0  0  0  0
  190.4870  176.3690  142.9920 C   0  0  0  0  0  0  0  0  0  0  0  0
  190.2760  177.2460  145.6130 C   0  0  0  0  0  3  0  0  0  0  0  0
  190.5860  175.9310  141.6710 O   0  0  0  0  0  0  0  0  0  0  0  0
  190.4710  176.8210  140.5710 C   0  0  0  0  0  1  0  0  0  0  0  0
  2  1  1  6  0  0  0
  2 15  1  0  0  0  0
  2 12  1  0  0  0  0
  3  9  1  0  0  0  0
  4  6  2  0  0  0  0
  5  3  1  0  0  0  0
  6 17  1  0  0  0  0
  6  8  1  0  0  0  0
  7 14  1  0  0  0  0
  8 11  1  0  0  0  0
  9 15  2  0  0  0  0
 10 13  1  0  0  0  0
 11 12  1  0  0  0  0
 11  7  2  0  0  0  0
 12 10  2  0  0  0  0
 14 13  2  0  0  0  0
 16  3  2  0  0  0  0
 17 16  1  6  0  0  0
 17  2  1  0  0  0  0
 18 19  2  0  0  0  0
 19  7  1  0  0  0  0
 19 23  1  0  0  0  0
 20 23  2  0  0  0  0
 21 20  1  0  0  0  0
 22 18  1  0  0  0  0
 22 21  2  0  0  0  0
 24 22  1  0  0  0  0
 25 24  1  0  0  0  0
M  END
>  <MODEL>
2

>  <REMARK>
 VINA RESULT:     -10.1      1.313      2.132
  Name = 
  2 active torsions:
  status: ('A' for Active; 'I' for Inactive)
    1  A    between atoms: C_3  and  C_12
    2  A    between atoms: C_11  and  O_17
                            x       y       z     vdW  Elec       q    Type
                         _______ _______ _______ _____ _____    ______ ____

>  <TORSDO>
F 2

$$$$
=
 OpenBabel11062418103D

 25 28  0  0  1  0  0  0  0  0999 V2000
  190.6730  178.7640  145.2050 C   0  0  0  0  0  1  0  0  0  0  0  0
  190.1050  177.3590  145.0050 C   0  0  1  0  0  0  0  0  0  0  0  0
  191.6780  176.1430  147.0670 C   0  0  0  0  0  0  0  0  0  0  0  0
  187.9500  177.8880  147.8740 O   0  0  0  0  0  0  0  0  0  0  0  0
  192.6780  175.8460  148.1240 C   0  0  0  0  0  1  0  0  0  0  0  0
  188.2460  177.6390  146.6750 C   0  0  0  0  0  0  0  0  0  0  0  0
  186.7670  178.0060  143.2110 C   0  0  0  0  0  0  0  0  0  0  0  0
  187.3750  178.0480  145.6190 N   0  0  0  0  0  2  0  0  0  0  0  0
  192.0120  175.9040  145.6430 C   0  0  0  0  0  3  0  0  0  0  0  0
  189.4110  177.2700  142.5680 C   0  0  0  0  0  3  0  0  0  0  0  0
  187.7230  177.8190  144.2410 C   0  0  0  0  0  0  0  0  0  0  0  0
  189.0510  177.4300  143.9130 C   0  0  0  0  0  0  0  0  0  0  0  0
  188.4710  177.4540  141.5570 C   0  0  0  0  0  3  0  0  0  0  0  0
  187.1650  177.8190  141.8770 C   0  0  0  0  0  3  0  0  0  0  0  0
  191.2560  176.4340  144.6680 C   0  0  0  0  0  3  0  0  0  0  0  0
  190.4790  176.6370  147.4030 C   0  0  0  0  0  3  0  0  0  0  0  0
  189.4610  176.8470  146.3120 C   0  0  2  0  0  3  0  0  0  0  0  0
  184.4180  178.3980  142.4300 C   0  0  0  0  0  3  0  0  0  0  0  0
  185.3520  178.3890  143.4770 C   0  0  0  0  0  0  0  0  0  0  0  0
  183.5730  179.0390  144.9880 C   0  0  0  0  0  3  0  0  0  0  0  0
  182.6960  179.0470  143.9500 N   0  0  0  0  0  0  0  0  0  0  0  0
  183.0870  178.7350  142.6830 C   0  0  0  0  0  0  0  0  0  0  0  0
  184.9120  178.7070  144.7690 C   0  0  0  0  0  3  0  0  0  0  0  0
  182.1730  178.7450  141.6280 O   0  0  0  0  0  0  0  0  0  0  0  0
  180.8140  179.1110  141.8120 C   0  0  0  0  0  1  0  0  0  0  0  0
  2  1  1  1  0  0  0
  2 17  1  0  0  0  0
  3 16  2  0  0  0  0
  3  5  1  0  0  0  0
  6  4  2  0  0  0  0
  7 19  1  0  0  0  0
  7 11  1  0  0  0  0
  8  6  1  0  0  0  0
  9  3  1  0  0  0  0
 10 12  1  0  0  0  0
 11  8  1  0  0  0  0
 12 11  2  0  0  0  0
 12  2  1  0  0  0  0
 13 14  1  0  0  0  0
 13 10  2  0  0  0  0
 14  7  2  0  0  0  0
 15  2  1  0  0  0  0
 15  9  2  0  0  0  0
 17  6  1  0  0  0  0
 17 16  1  1  0  0  0
 18 22  1  0  0  0  0
 18 19  2  0  0  0  0
 19 23  1  0  0  0  0
 21 20  1  0  0  0  0
 22 21  2  0  0  0  0
 23 20  2  0  0  0  0
 24 25  1  0  0  0  0
 24 22  1  0  0  0  0
M  END
>  <MODEL>
3

>  <REMARK>
 VINA RESULT:      -9.8      1.956      7.836
  Name = 
  2 active torsions:
  status: ('A' for Active; 'I' for Inactive)
    1  A    between atoms: C_3  and  C_12
    2  A    between atoms: C_11  and  O_17
                            x       y       z     vdW  Elec       q    Type
                         _______ _______ _______ _____ _____    ______ ____

>  <TORSDO>
F 2

$$$$
=
 OpenBabel11062418103D

 25 28  0  0  1  0  0  0  0  0999 V2000
  189.4860  175.6290  142.8430 C   0  0  0  0  0  1  0  0  0  0  0  0
  189.6390  177.1180  143.1530 C   0  0  1  0  0  0  0  0  0  0  0  0
  191.8650  177.5270  141.3990 C   0  0  0  0  0  0  0  0  0  0  0  0
  187.9060  177.8780  140.0590 O   0  0  0  0  0  0  0  0  0  0  0  0
  193.0190  177.3570  140.4780 C   0  0  0  0  0  1  0  0  0  0  0  0
  188.1190  177.8800  141.3010 C   0  0  0  0  0  0  0  0  0  0  0  0
  186.1890  178.0840  144.5500 C   0  0  0  0  0  0  0  0  0  0  0  0
  187.0240  177.8890  142.2190 N   0  0  0  0  0  2  0  0  0  0  0  0
  192.0760  177.4890  142.8650 C   0  0  0  0  0  3  0  0  0  0  0  0
  188.7480  177.3940  145.5110 C   0  0  0  0  0  3  0  0  0  0  0  0
  187.2480  177.8380  143.6400 C   0  0  0  0  0  0  0  0  0  0  0  0
  188.5420  177.5080  144.1290 C   0  0  0  0  0  0  0  0  0  0  0  0
  187.7070  177.6350  146.4040 C   0  0  0  0  0  3  0  0  0  0  0  0
  186.4430  177.9740  145.9270 C   0  0  0  0  0  3  0  0  0  0  0  0
  191.0340  177.3410  143.7000 C   0  0  0  0  0  3  0  0  0  0  0  0
  190.6340  177.7030  140.9010 C   0  0  0  0  0  3  0  0  0  0  0  0
  189.5020  177.9550  141.8630 C   0  0  2  0  0  3  0  0  0  0  0  0
  184.4680  178.3930  142.7550 C   0  0  0  0  0  3  0  0  0  0  0  0
  184.8150  178.4570  144.1140 C   0  0  0  0  0  0  0  0  0  0  0  0
  182.5460  179.1570  144.5970 C   0  0  0  0  0  3  0  0  0  0  0  0
  182.2450  179.0930  143.2730 N   0  0  0  0  0  0  0  0  0  0  0  0
  183.1730  178.7190  142.3470 C   0  0  0  0  0  0  0  0  0  0  0  0
  183.8320  178.8370  145.0370 C   0  0  0  0  0  3  0  0  0  0  0  0
  182.8470  178.6560  140.9920 O   0  0  0  0  0  0  0  0  0  0  0  0
  183.7600  179.0500  139.9790 C   0  0  0  0  0  1  0  0  0  0  0  0
  2  1  1  6  0  0  0
  2 15  1  0  0  0  0
  2 12  1  0  0  0  0
  3  9  1  0  0  0  0
  4  6  2  0  0  0  0
  5  3  1  0  0  0  0
  6 17  1  0  0  0  0
  6  8  1  0  0  0  0
  7 14  1  0  0  0  0
  8 11  1  0  0  0  0
  9 15  2  0  0  0  0
 10 13  1  0  0  0  0
 11 12  1  0  0  0  0
 11  7  2  0  0  0  0
 12 10  2  0  0  0  0
 14 13  2  0  0  0  0
 16  3  2  0  0  0  0
 17 16  1  6  0  0  0
 17  2  1  0  0  0  0
 18 19  2  0  0  0  0
 19  7  1  0  0  0  0
 19 23  1  0  0  0  0
 20 23  2  0  0  0  0
 21 20  1  0  0  0  0
 22 18  1  0  0  0  0
 22 21  2  0  0  0  0
 24 22  1  0  0  0  0
 25 24  1  0  0  0  0
M  END
>  <MODEL>
4

>  <REMARK>
 VINA RESULT:      -9.1      2.484      7.073
  Name = 
  2 active torsions:
  status: ('A' for Active; 'I' for Inactive)
    1  A    between atoms: C_3  and  C_12
    2  A    between atoms: C_11  and  O_17
                            x       y       z     vdW  Elec       q    Type
                         _______ _______ _______ _____ _____    ______ ____

>  <TORSDO>
F 2

$$$$
=
 OpenBabel11062418103D

 25 28  0  0  1  0  0  0  0  0999 V2000
  190.4530  179.2930  143.7930 C   0  0  0  0  0  1  0  0  0  0  0  0
  190.4100  177.7810  143.5630 C   0  0  1  0  0  0  0  0  0  0  0  0
  189.5260  177.1370  146.2100 C   0  0  0  0  0  0  0  0  0  0  0  0
  186.8170  178.0110  143.1310 O   0  0  0  0  0  0  0  0  0  0  0  0
  189.1550  177.1690  147.6480 C   0  0  0  0  0  1  0  0  0  0  0  0
  188.0080  177.7450  142.8200 C   0  0  0  0  0  0  0  0  0  0  0  0
  190.1870  177.4790  139.7370 C   0  0  0  0  0  0  0  0  0  0  0  0
  188.4400  177.8520  141.4620 N   0  0  0  0  0  2  0  0  0  0  0  0
  190.9300  176.8730  145.8140 C   0  0  0  0  0  3  0  0  0  0  0  0
  192.1410  177.3400  141.7640 C   0  0  0  0  0  3  0  0  0  0  0  0
  189.8110  177.6050  141.0980 C   0  0  0  0  0  0  0  0  0  0  0  0
  190.7970  177.5160  142.1190 C   0  0  0  0  0  0  0  0  0  0  0  0
  192.5110  177.2170  140.4270 C   0  0  0  0  0  3  0  0  0  0  0  0
  191.5440  177.2870  139.4270 C   0  0  0  0  0  3  0  0  0  0  0  0
  191.3450  177.1310  144.5630 C   0  0  0  0  0  3  0  0  0  0  0  0
  188.5940  177.3590  145.2750 C   0  0  0  0  0  3  0  0  0  0  0  0
  188.9900  177.2360  143.8260 C   0  0  2  0  0  3  0  0  0  0  0  0
  188.4500  176.4040  138.2860 C   0  0  0  0  0  3  0  0  0  0  0  0
  189.2090  177.5370  138.6160 C   0  0  0  0  0  0  0  0  0  0  0  0
  188.0490  178.7460  136.8660 C   0  0  0  0  0  3  0  0  0  0  0  0
  187.3370  177.6280  136.5660 N   0  0  0  0  0  0  0  0  0  0  0  0
  187.5150  176.4640  137.2500 C   0  0  0  0  0  0  0  0  0  0  0  0
  188.9920  178.7190  137.8950 C   0  0  0  0  0  3  0  0  0  0  0  0
  186.7750  175.3250  136.9320 O   0  0  0  0  0  0  0  0  0  0  0  0
  187.3910  174.0720  136.6750 C   0  0  0  0  0  1  0  0  0  0  0  0
  2  1  1  1  0  0  0
  2 17  1  0  0  0  0
  2 15  1  0  0  0  0
  3  5  1  0  0  0  0
  6  4  2  0  0  0  0
  6 17  1  0  0  0  0
  7 11  1  0  0  0  0
  8  6  1  0  0  0  0
  9  3  1  0  0  0  0
 10 12  1  0  0  0  0
 11  8  1  0  0  0  0
 11 12  2  0  0  0  0
 12  2  1  0  0  0  0
 13 10  2  0  0  0  0
 14  7  2  0  0  0  0
 14 13  1  0  0  0  0
 15  9  2  0  0  0  0
 16  3  2  0  0  0  0
 17 16  1  1  0  0  0
 18 19  2  0  0  0  0
 19  7  1  0  0  0  0
 20 23  2  0  0  0  0
 21 20  1  0  0  0  0
 21 22  2  0  0  0  0
 22 18  1  0  0  0  0
 23 19  1  0  0  0  0
 24 22  1  0  0  0  0
 25 24  1  0  0  0  0
M  END
>  <MODEL>
5

>  <REMARK>
 VINA RESULT:      -9.0      3.830      7.723
  Name = 
  2 active torsions:
  status: ('A' for Active; 'I' for Inactive)
    1  A    between atoms: C_3  and  C_12
    2  A    between atoms: C_11  and  O_17
                            x       y       z     vdW  Elec       q    Type
                         _______ _______ _______ _____ _____    ______ ____

>  <TORSDO>
F 2

$$$$
=
 OpenBabel11062418103D

 25 28  0  0  1  0  0  0  0  0999 V2000
  190.4980  179.2380  143.8970 C   0  0  0  0  0  1  0  0  0  0  0  0
  190.4920  177.7200  143.7170 C   0  0  1  0  0  0  0  0  0  0  0  0
  189.9640  177.1300  146.4690 C   0  0  0  0  0  0  0  0  0  0  0  0
  186.8660  177.7960  143.7220 O   0  0  0  0  0  0  0  0  0  0  0  0
  189.7690  177.1950  147.9410 C   0  0  0  0  0  1  0  0  0  0  0  0
  188.0210  177.5660  143.2750 C   0  0  0  0  0  0  0  0  0  0  0  0
  189.8190  177.2820  139.9570 C   0  0  0  0  0  0  0  0  0  0  0  0
  188.2800  177.6450  141.8720 N   0  0  0  0  0  2  0  0  0  0  0  0
  191.3190  176.9070  145.9120 C   0  0  0  0  0  3  0  0  0  0  0  0
  192.0090  177.2870  141.7320 C   0  0  0  0  0  3  0  0  0  0  0  0
  189.6050  177.4390  141.3500 C   0  0  0  0  0  0  0  0  0  0  0  0
  190.7110  177.4220  142.2440 C   0  0  0  0  0  0  0  0  0  0  0  0
  192.2180  177.1340  140.3640 C   0  0  0  0  0  3  0  0  0  0  0  0
  191.1350  177.1340  139.4890 C   0  0  0  0  0  3  0  0  0  0  0  0
  191.5670  177.1390  144.6120 C   0  0  0  0  0  3  0  0  0  0  0  0
  188.9160  177.2840  145.6500 C   0  0  0  0  0  3  0  0  0  0  0  0
  189.1380  177.1290  144.1680 C   0  0  2  0  0  3  0  0  0  0  0  0
  187.6240  178.1430  139.1080 C   0  0  0  0  0  3  0  0  0  0  0  0
  188.7100  177.2660  138.9630 C   0  0  0  0  0  0  0  0  0  0  0  0
  187.6950  176.4440  136.9230 C   0  0  0  0  0  3  0  0  0  0  0  0
  186.6530  177.2990  137.0970 N   0  0  0  0  0  0  0  0  0  0  0  0
  186.5950  178.1450  138.1640 C   0  0  0  0  0  0  0  0  0  0  0  0
  188.7390  176.4160  137.8490 C   0  0  0  0  0  3  0  0  0  0  0  0
  185.5210  179.0200  138.3270 O   0  0  0  0  0  0  0  0  0  0  0  0
  184.6530  178.9460  139.4490 C   0  0  0  0  0  1  0  0  0  0  0  0
  2  1  1  1  0  0  0
  2 17  1  0  0  0  0
  2 15  1  0  0  0  0
  3  5  1  0  0  0  0
  6  4  2  0  0  0  0
  6 17  1  0  0  0  0
  7 11  1  0  0  0  0
  8  6  1  0  0  0  0
  9  3  1  0  0  0  0
 10 12  1  0  0  0  0
 11  8  1  0  0  0  0
 11 12  2  0  0  0  0
 12  2  1  0  0  0  0
 13 10  2  0  0  0  0
 14  7  2  0  0  0  0
 14 13  1  0  0  0  0
 15  9  2  0  0  0  0
 16  3  2  0  0  0  0
 17 16  1  1  0  0  0
 19 18  2  0  0  0  0
 19  7  1  0  0  0  0
 20 21  1  0  0  0  0
 20 23  2  0  0  0  0
 21 22  2  0  0  0  0
 22 24  1  0  0  0  0
 22 18  1  0  0  0  0
 23 19  1  0  0  0  0
 24 25  1  0  0  0  0
M  END
>  <MODEL>
6

>  <REMARK>
 VINA RESULT:      -8.9      3.311      7.684
  Name = 
  2 active torsions:
  status: ('A' for Active; 'I' for Inactive)
    1  A    between atoms: C_3  and  C_12
    2  A    between atoms: C_11  and  O_17
                            x       y       z     vdW  Elec       q    Type
                         _______ _______ _______ _____ _____    ______ ____

>  <TORSDO>
F 2

$$$$
=
 OpenBabel11062418103D

 25 28  0  0  1  0  0  0  0  0999 V2000
  190.7170  178.9160  144.6200 C   0  0  0  0  0  1  0  0  0  0  0  0
  190.2640  177.4940  144.2870 C   0  0  1  0  0  0  0  0  0  0  0  0
  191.4170  176.2970  146.6190 C   0  0  0  0  0  0  0  0  0  0  0  0
  187.5330  177.8780  146.6420 O   0  0  0  0  0  0  0  0  0  0  0  0
  192.1840  176.0170  147.8600 C   0  0  0  0  0  1  0  0  0  0  0  0
  188.0840  177.6660  145.5290 C   0  0  0  0  0  0  0  0  0  0  0  0
  187.3540  178.0490  141.8360 C   0  0  0  0  0  0  0  0  0  0  0  0
  187.4390  178.0630  144.3180 N   0  0  0  0  0  2  0  0  0  0  0  0
  192.0540  176.1010  145.2950 C   0  0  0  0  0  3  0  0  0  0  0  0
  190.1040  177.4310  141.7570 C   0  0  0  0  0  3  0  0  0  0  0  0
  188.0800  177.8780  143.0420 C   0  0  0  0  0  0  0  0  0  0  0  0
  189.4620  177.5480  142.9980 C   0  0  0  0  0  0  0  0  0  0  0  0
  189.3910  177.5990  140.5730 C   0  0  0  0  0  3  0  0  0  0  0  0
  188.0330  177.9070  140.6140 C   0  0  0  0  0  3  0  0  0  0  0  0
  191.4990  176.6220  144.1890 C   0  0  0  0  0  3  0  0  0  0  0  0
  190.1550  176.7360  146.7000 C   0  0  0  0  0  3  0  0  0  0  0  0
  189.3810  176.9300  145.4210 C   0  0  2  0  0  3  0  0  0  0  0  0
  185.1740  178.4620  142.9990 C   0  0  0  0  0  3  0  0  0  0  0  0
  185.9010  178.3710  141.8020 C   0  0  0  0  0  0  0  0  0  0  0  0
  183.8790  178.9540  140.6010 C   0  0  0  0  0  3  0  0  0  0  0  0
  183.2020  179.0250  141.7770 N   0  0  0  0  0  0  0  0  0  0  0  0
  183.8160  178.7880  142.9700 C   0  0  0  0  0  0  0  0  0  0  0  0
  185.2370  178.6300  140.5950 C   0  0  0  0  0  3  0  0  0  0  0  0
  183.1080  178.8680  144.1690 O   0  0  0  0  0  0  0  0  0  0  0  0
  183.7610  179.0020  145.4230 C   0  0  0  0  0  1  0  0  0  0  0  0
  2  1  1  1  0  0  0
  2 17  1  0  0  0  0
  3 16  2  0  0  0  0
  3  5  1  0  0  0  0
  6  4  2  0  0  0  0
  7 11  1  0  0  0  0
  8  6  1  0  0  0  0
  9  3  1  0  0  0  0
 10 12  1  0  0  0  0
 11  8  1  0  0  0  0
 12 11  2  0  0  0  0
 12  2  1  0  0  0  0
 13 14  1  0  0  0  0
 13 10  2  0  0  0  0
 14  7  2  0  0  0  0
 15  2  1  0  0  0  0
 15  9  2  0  0  0  0
 17  6  1  0  0  0  0
 17 16  1  1  0  0  0
 19  7  1  0  0  0  0
 19 18  2  0  0  0  0
 20 21  1  0  0  0  0
 21 22  2  0  0  0  0
 22 18  1  0  0  0  0
 22 24  1  0  0  0  0
 23 20  2  0  0  0  0
 23 19  1  0  0  0  0
 24 25  1  0  0  0  0
M  END
>  <MODEL>
7

>  <REMARK>
 VINA RESULT:      -8.9      2.146      7.445
  Name = 
  2 active torsions:
  status: ('A' for Active; 'I' for Inactive)
    1  A    between atoms: C_3  and  C_12
    2  A    between atoms: C_11  and  O_17
                            x       y       z     vdW  Elec       q    Type
                         _______ _______ _______ _____ _____    ______ ____

>  <TORSDO>
F 2

$$$$
=
 OpenBabel11062418103D

 25 28  0  0  1  0  0  0  0  0999 V2000
  187.9330  176.0940  143.7050 C   0  0  0  0  0  1  0  0  0  0  0  0
  187.9600  177.6030  143.9450 C   0  0  1  0  0  0  0  0  0  0  0  0
  190.6370  177.9740  143.0000 C   0  0  0  0  0  0  0  0  0  0  0  0
  187.3440  178.1160  140.4080 O   0  0  0  0  0  0  0  0  0  0  0  0
  192.0330  177.7840  142.5270 C   0  0  0  0  0  1  0  0  0  0  0  0
  187.1330  178.2020  141.6470 C   0  0  0  0  0  0  0  0  0  0  0  0
  184.2330  178.5430  144.0550 C   0  0  0  0  0  0  0  0  0  0  0  0
  185.7950  178.2320  142.1490 N   0  0  0  0  0  2  0  0  0  0  0  0
  190.3510  178.0330  144.4530 C   0  0  0  0  0  3  0  0  0  0  0  0
  186.3340  177.9940  145.8510 C   0  0  0  0  0  3  0  0  0  0  0  0
  185.5360  178.2750  143.5650 C   0  0  0  0  0  0  0  0  0  0  0  0
  186.5980  178.0180  144.4750 C   0  0  0  0  0  0  0  0  0  0  0  0
  185.0540  178.2570  146.3320 C   0  0  0  0  0  3  0  0  0  0  0  0
  184.0170  178.5260  145.4420 C   0  0  0  0  0  3  0  0  0  0  0  0
  189.0920  177.9030  144.9050 C   0  0  0  0  0  3  0  0  0  0  0  0
  189.6400  178.0800  142.1130 C   0  0  0  0  0  3  0  0  0  0  0  0
  188.2510  178.3540  142.6280 C   0  0  2  0  0  3  0  0  0  0  0  0
  183.2030  178.6930  141.7750 C   0  0  0  0  0  3  0  0  0  0  0  0
  183.0780  178.8450  143.1650 C   0  0  0  0  0  0  0  0  0  0  0  0
  180.7690  179.4950  142.8230 C   0  0  0  0  0  3  0  0  0  0  0  0
  180.9270  179.3470  141.4810 N   0  0  0  0  0  0  0  0  0  0  0  0
  182.1140  178.9530  140.9410 C   0  0  0  0  0  0  0  0  0  0  0  0
  181.8390  179.2440  143.6840 C   0  0  0  0  0  3  0  0  0  0  0  0
  182.2590  178.8030  139.5620 O   0  0  0  0  0  0  0  0  0  0  0  0
  183.4440  179.1900  138.8820 C   0  0  0  0  0  1  0  0  0  0  0  0
  2  1  1  6  0  0  0
  2 12  1  0  0  0  0
  2 15  1  0  0  0  0
  3  9  1  0  0  0  0
  4  6  2  0  0  0  0
  5  3  1  0  0  0  0
  6  8  1  0  0  0  0
  6 17  1  0  0  0  0
  7 14  1  0  0  0  0
  8 11  1  0  0  0  0
  9 15  2  0  0  0  0
 10 13  1  0  0  0  0
 11  7  2  0  0  0  0
 11 12  1  0  0  0  0
 12 10  2  0  0  0  0
 14 13  2  0  0  0  0
 16  3  2  0  0  0  0
 17 16  1  6  0  0  0
 17  2  1  0  0  0  0
 18 19  2  0  0  0  0
 19 23  1  0  0  0  0
 19  7  1  0  0  0  0
 20 23  2  0  0  0  0
 21 20  1  0  0  0  0
 22 21  2  0  0  0  0
 22 18  1  0  0  0  0
 24 22  1  0  0  0  0
 25 24  1  0  0  0  0
M  END
>  <MODEL>
8

>  <REMARK>
 VINA RESULT:      -8.9      2.620      7.229
  Name = 
  2 active torsions:
  status: ('A' for Active; 'I' for Inactive)
    1  A    between atoms: C_3  and  C_12
    2  A    between atoms: C_11  and  O_17
                            x       y       z     vdW  Elec       q    Type
                         _______ _______ _______ _____ _____    ______ ____

>  <TORSDO>
F 2

$$$$
=
 OpenBabel11062418103D

 25 28  0  0  1  0  0  0  0  0999 V2000
  187.8710  176.2210  143.9280 C   0  0  0  0  0  1  0  0  0  0  0  0
  187.8500  177.7400  144.0990 C   0  0  1  0  0  0  0  0  0  0  0  0
  190.5690  178.1360  143.2930 C   0  0  0  0  0  0  0  0  0  0  0  0
  187.4290  178.0770  140.5130 O   0  0  0  0  0  0  0  0  0  0  0  0
  191.9930  177.9610  142.9090 C   0  0  0  0  0  1  0  0  0  0  0  0
  187.1440  178.2130  141.7320 C   0  0  0  0  0  0  0  0  0  0  0  0
  184.1020  178.5880  143.9520 C   0  0  0  0  0  0  0  0  0  0  0  0
  185.7790  178.2320  142.1560 N   0  0  0  0  0  2  0  0  0  0  0  0
  190.1970  178.2530  144.7230 C   0  0  0  0  0  3  0  0  0  0  0  0
  186.1080  178.1750  145.8900 C   0  0  0  0  0  3  0  0  0  0  0  0
  185.4380  178.3320  143.5510 C   0  0  0  0  0  0  0  0  0  0  0  0
  186.4500  178.1430  144.5310 C   0  0  0  0  0  0  0  0  0  0  0  0
  184.7960  178.4260  146.2840 C   0  0  0  0  0  3  0  0  0  0  0  0
  183.8060  178.6280  145.3250 C   0  0  0  0  0  3  0  0  0  0  0  0
  188.9180  178.1120  145.1070 C   0  0  0  0  0  3  0  0  0  0  0  0
  189.6220  178.1760  142.3460 C   0  0  0  0  0  3  0  0  0  0  0  0
  188.2000  178.4380  142.7670 C   0  0  2  0  0  3  0  0  0  0  0  0
  181.7120  179.1510  143.4510 C   0  0  0  0  0  3  0  0  0  0  0  0
  182.9940  178.8200  142.9850 C   0  0  0  0  0  0  0  0  0  0  0  0
  182.1500  179.0030  140.7220 C   0  0  0  0  0  3  0  0  0  0  0  0
  180.9190  179.3120  141.2060 N   0  0  0  0  0  0  0  0  0  0  0  0
  180.6780  179.3910  142.5450 C   0  0  0  0  0  0  0  0  0  0  0  0
  183.2060  178.7560  141.6010 C   0  0  0  0  0  3  0  0  0  0  0  0
  179.4090  179.7130  143.0270 O   0  0  0  0  0  0  0  0  0  0  0  0
  178.9960  179.3780  144.3440 C   0  0  0  0  0  1  0  0  0  0  0  0
  2  1  1  6  0  0  0
  2 12  1  0  0  0  0
  2 15  1  0  0  0  0
  3  9  1  0  0  0  0
  4  6  2  0  0  0  0
  5  3  1  0  0  0  0
  6  8  1  0  0  0  0
  6 17  1  0  0  0  0
  7 14  1  0  0  0  0
  8 11  1  0  0  0  0
  9 15  2  0  0  0  0
 10 13  1  0  0  0  0
 11  7  2  0  0  0  0
 11 12  1  0  0  0  0
 12 10  2  0  0  0  0
 14 13  2  0  0  0  0
 16  3  2  0  0  0  0
 17 16  1  6  0  0  0
 17  2  1  0  0  0  0
 19 18  2  0  0  0  0
 19  7  1  0  0  0  0
 20 21  1  0  0  0  0
 20 23  2  0  0  0  0
 21 22  2  0  0  0  0
 22 24  1  0  0  0  0
 22 18  1  0  0  0  0
 23 19  1  0  0  0  0
 24 25  1  0  0  0  0
M  END
>  <MODEL>
9

>  <REMARK>
 VINA RESULT:      -8.9      2.613      7.386
  Name = 
  2 active torsions:
  status: ('A' for Active; 'I' for Inactive)
    1  A    between atoms: C_3  and  C_12
    2  A    between atoms: C_11  and  O_17
                            x       y       z     vdW  Elec       q    Type
                         _______ _______ _______ _____ _____    ______ ____

>  <TORSDO>
F 2

$$$$
