=
 OpenBabel11062412093D

 54 57  0  0  1  0  0  0  0  0999 V2000
  184.6000  178.2300  142.6160 N   0  0  0  0  0  0  0  0  0  0  0  0
  185.5480  178.8180  146.2460 C   0  0  0  0  0  1  0  0  0  0  0  0
  186.9740  177.9800  144.3850 C   0  0  0  0  0  2  0  0  0  0  0  0
  185.5380  178.1220  144.9020 C   0  0  2  0  0  3  0  0  0  0  0  0
  184.6670  178.9010  143.9210 C   0  0  0  0  0  2  0  0  0  0  0  0
  185.9010  177.7220  142.1410 C   0  0  0  0  0  2  0  0  0  0  0  0
  187.1040  178.3100  142.8930 C   0  0  2  0  0  3  0  0  0  0  0  0
  188.4220  177.7820  142.3220 C   0  0  2  0  0  3  0  0  0  0  0  0
  188.1720  176.9600  141.0600 C   0  0  0  0  0  2  0  0  0  0  0  0
  188.5740  178.4470  139.1560 C   0  0  0  0  0  3  0  0  0  0  0  0
  189.0120  177.4320  139.9160 C   0  0  0  0  0  0  0  0  0  0  0  0
  189.2940  178.9530  137.9440 C   0  0  0  0  0  2  0  0  0  0  0  0
  188.4170  179.6790  137.1360 O   0  0  0  0  0  1  0  0  0  0  0  0
  190.2570  176.6610  139.5900 C   0  0  0  0  0  2  0  0  0  0  0  0
  191.4850  177.3500  140.1660 C   0  0  0  0  0  2  0  0  0  0  0  0
  192.6820  177.1400  139.2570 C   0  0  0  0  0  2  0  0  0  0  0  0
  192.3310  176.1750  138.1400 C   0  0  0  0  0  2  0  0  0  0  0  0
  194.4300  176.2290  137.0250 O   0  0  0  0  0  0  0  0  0  0  0  0
  194.9430  173.4460  137.2960 C   0  0  0  0  0  1  0  0  0  0  0  0
  193.5650  175.5300  137.6200 C   0  0  0  0  0  0  0  0  0  0  0  0
  193.7530  174.1230  137.7820 N   0  0  0  0  0  2  0  0  0  0  0  0
  189.1310  176.9110  143.3550 C   0  0  0  0  0  2  0  0  0  0  0  0
  191.9170  176.0390  147.3530 C   0  0  0  0  0  2  0  0  0  0  0  0
  191.8650  176.5030  145.9170 C   0  0  1  0  0  3  0  0  0  0  0  0
  190.7340  176.9820  147.6260 C   0  0  0  0  0  2  0  0  0  0  0  0
  191.7770  175.5780  144.8070 N   0  0  0  0  0  2  0  0  0  0  0  0
  191.6110  176.4550  143.6230 C   0  0  0  0  0  2  0  0  0  0  0  0
  190.4800  176.9970  146.1380 C   0  0  1  0  0  3  0  0  0  0  0  0
  190.4650  177.5280  143.7670 C   0  0  2  0  0  3  0  0  0  0  0  0
  190.3760  178.1590  145.1910 C   0  0  0  0  0  2  0  0  0  0  0  0
  184.1520  179.2280  141.6610 C   0  0  0  0  0  2  0  0  0  0  0  0
  183.8300  178.5670  140.3260 C   0  0  2  0  0  3  0  0  0  0  0  0
  183.8620  180.6800  139.0010 O   0  0  0  0  0  1  0  0  0  0  0  0
  185.2570  178.9500  138.4360 O   0  0  0  0  0  0  0  0  0  0  0  0
  184.3600  179.3980  139.1980 C   0  0  0  0  0  0  0  0  0  0  0  0
  181.5920  179.4050  140.7080 O   0  0  0  0  0  1  0  0  0  0  0  0
  182.3220  178.3260  140.1990 C   0  0  1  0  0  3  0  0  0  0  0  0
  181.9010  177.9960  138.7490 C   0  0  1  0  0  3  0  0  0  0  0  0
  181.4390  176.5400  138.5680 C   0  0  2  0  0  3  0  0  0  0  0  0
  181.7570  175.6770  139.7880 C   0  0  0  0  0  1  0  0  0  0  0  0
  179.9180  175.8760  136.1750 O   0  0  0  0  0  0  0  0  0  0  0  0
  180.9870  173.7840  136.0330 C   0  0  0  0  0  0  0  0  0  0  0  0
  183.2630  175.0620  137.5390 C   0  0  1  0  0  3  0  0  0  0  0  0
  182.0010  175.9120  137.2780 C   0  0  1  0  0  3  0  0  0  0  0  0
  180.8990  175.2220  136.4940 C   0  0  0  0  0  0  0  0  0  0  0  0
  181.0640  173.7610  134.6520 F   0  0  0  0  0  0  0  0  0  0  0  0
  179.8440  173.1110  136.4240 F   0  0  0  0  0  0  0  0  0  0  0  0
  182.1940  173.0500  136.6060 C   0  0  0  0  0  2  0  0  0  0  0  0
  183.4320  173.9230  136.5470 C   0  0  0  0  0  2  0  0  0  0  0  0
  184.5050  175.9340  137.5080 C   0  0  0  0  0  1  0  0  0  0  0  0
  180.9280  179.0040  138.0930 C   0  0  2  0  0  3  0  0  0  0  0  0
  179.6210  178.5140  138.1000 O   0  0  0  0  0  1  0  0  0  0  0  0
  181.0690  180.5490  136.3080 O   0  0  0  0  0  0  0  0  0  0  0  0
  181.3110  179.4210  136.7060 C   0  0  0  0  0  3  0  0  0  0  0  0
  1  5  1  0  0  0  0
  3  4  1  0  0  0  0
  4  2  1  1  0  0  0
  5  4  1  0  0  0  0
  6  1  1  0  0  0  0
  6  7  1  0  0  0  0
  7  8  1  6  0  0  0
  7  3  1  0  0  0  0
  8  9  1  6  0  0  0
  8 22  1  0  0  0  0
 10 11  2  0  0  0  0
 11  9  1  0  0  0  0
 12 10  1  0  0  0  0
 13 12  1  0  0  0  0
 14 11  1  0  0  0  0
 14 15  1  0  0  0  0
 16 15  1  0  0  0  0
 17 16  1  0  0  0  0
 18 20  2  0  0  0  0
 19 21  1  0  0  0  0
 20 21  1  0  0  0  0
 20 17  1  0  0  0  0
 23 25  1  0  0  0  0
 24 28  1  0  0  0  0
 24 23  1  1  0  0  0
 26 24  1  0  0  0  0
 27 29  1  0  0  0  0
 27 26  1  0  0  0  0
 28 30  1  6  0  0  0
 28 25  1  0  0  0  0
 29 22  1  1  0  0  0
 29 30  1  0  0  0  0
 31  1  1  0  0  0  0
 32 31  1  1  0  0  0
 33 35  1  0  0  0  0
 34 35  2  0  0  0  0
 35 32  1  0  0  0  0
 37 32  1  0  0  0  0
 37 36  1  6  0  0  0
 38 51  1  1  0  0  0
 38 37  1  0  0  0  0
 39 38  1  0  0  0  0
 39 40  1  1  0  0  0
 41 45  2  0  0  0  0
 42 47  1  0  0  0  0
 42 45  1  0  0  0  0
 42 48  1  0  0  0  0
 43 50  1  6  0  0  0
 44 43  1  0  0  0  0
 44 39  1  1  0  0  0
 45 44  1  0  0  0  0
 46 42  1  0  0  0  0
 49 48  1  0  0  0  0
 49 43  1  0  0  0  0
 51 52  1  6  0  0  0
 53 54  2  0  0  0  0
 54 51  1  0  0  0  0
M  END
>  <MODEL>
1

>  <REMARK>
 VINA RESULT:      -6.9      0.000      0.000
  Name = 
  20 active torsions:
  status: ('A' for Active; 'I' for Inactive)
    1  A    between atoms: N_1  and  C_5
    2  A    between atoms: C_2  and  C_18
    3  A    between atoms: C_2  and  C_30
    4  A    between atoms: C_5  and  C_39
    5  A    between atoms: C_6  and  C_20
    6  A    between atoms: C_6  and  C_47
    7  A    between atoms: C_9  and  C_22
    8  A    between atoms: C_13  and  C_47
    9  A    between atoms: C_13  and  C_48
   10  A    between atoms: C_16  and  C_17
   11  A    between atoms: C_16  and  C_41
   12  A    between atoms: C_16  and  C_49
   13  A    between atoms: C_17  and  C_30
   14  A    between atoms: C_18  and  C_52
   15  A    between atoms: C_21  and  C_43
   16  A    between atoms: C_39  and  C_44
   17  A    between atoms: C_39  and  C_54
   18  A    between atoms: C_40  and  C_49
   19  A    between atoms: C_43  and  C_52
   20  A    between atoms: C_44  and  C_47
                            x       y       z     vdW  Elec       q    Type
                         _______ _______ _______ _____ _____    ______ ____

>  <TORSDO>
F 20

$$$$
=
 OpenBabel11062412093D

 54 57  0  0  1  0  0  0  0  0999 V2000
  184.4040  178.2090  142.6090 N   0  0  0  0  0  0  0  0  0  0  0  0
  185.3660  178.6720  146.2540 C   0  0  0  0  0  1  0  0  0  0  0  0
  186.8140  178.0200  144.3360 C   0  0  0  0  0  2  0  0  0  0  0  0
  185.3800  178.0460  144.8760 C   0  0  2  0  0  3  0  0  0  0  0  0
  184.4480  178.8160  143.9460 C   0  0  0  0  0  2  0  0  0  0  0  0
  185.7280  177.8090  142.0940 C   0  0  0  0  0  2  0  0  0  0  0  0
  186.9020  178.4330  142.8620 C   0  0  2  0  0  3  0  0  0  0  0  0
  188.2430  178.0190  142.2500 C   0  0  2  0  0  3  0  0  0  0  0  0
  188.0280  177.2780  140.9320 C   0  0  0  0  0  2  0  0  0  0  0  0
  190.2750  176.7450  140.1170 C   0  0  0  0  0  3  0  0  0  0  0  0
  189.1660  177.4900  139.9850 C   0  0  0  0  0  0  0  0  0  0  0  0
  191.5020  176.9210  139.2760 C   0  0  0  0  0  2  0  0  0  0  0  0
  191.5820  175.8990  138.3290 O   0  0  0  0  0  1  0  0  0  0  0  0
  189.0670  178.6200  139.0030 C   0  0  0  0  0  2  0  0  0  0  0  0
  188.2750  178.1990  137.7750 C   0  0  0  0  0  2  0  0  0  0  0  0
  189.0630  178.4990  136.5120 C   0  0  0  0  0  2  0  0  0  0  0  0
  189.5240  177.2080  135.8630 C   0  0  0  0  0  2  0  0  0  0  0  0
  187.4220  176.3610  135.1420 O   0  0  0  0  0  0  0  0  0  0  0  0
  187.4640  174.0780  136.8340 C   0  0  0  0  0  1  0  0  0  0  0  0
  188.4250  176.2050  135.8900 C   0  0  0  0  0  0  0  0  0  0  0  0
  188.5080  175.0860  136.7730 N   0  0  0  0  0  2  0  0  0  0  0  0
  189.0040  177.1140  143.2150 C   0  0  0  0  0  2  0  0  0  0  0  0
  191.8560  176.0700  147.1240 C   0  0  0  0  0  2  0  0  0  0  0  0
  191.7680  176.6600  145.7360 C   0  0  1  0  0  3  0  0  0  0  0  0
  190.6130  176.9020  147.4790 C   0  0  0  0  0  2  0  0  0  0  0  0
  191.7390  175.8370  144.5460 N   0  0  0  0  0  2  0  0  0  0  0  0
  191.5100  176.8050  143.4460 C   0  0  0  0  0  2  0  0  0  0  0  0
  190.3530  177.0360  145.9980 C   0  0  1  0  0  3  0  0  0  0  0  0
  190.2940  177.7800  143.6850 C   0  0  2  0  0  3  0  0  0  0  0  0
  190.1670  178.2710  145.1600 C   0  0  0  0  0  2  0  0  0  0  0  0
  183.8810  179.2240  141.7110 C   0  0  0  0  0  2  0  0  0  0  0  0
  183.6290  178.6230  140.3330 C   0  0  2  0  0  3  0  0  0  0  0  0
  185.2830  179.1890  138.5540 O   0  0  0  0  0  0  0  0  0  0  0  0
  183.5500  180.6200  139.0070 O   0  0  0  0  0  1  0  0  0  0  0  0
  184.1440  179.5410  139.2680 C   0  0  0  0  0  0  0  0  0  0  0  0
  181.3430  179.3760  140.5910 O   0  0  0  0  0  1  0  0  0  0  0  0
  182.1390  178.3140  140.1500 C   0  0  1  0  0  3  0  0  0  0  0  0
  181.7970  177.9220  138.6940 C   0  0  1  0  0  3  0  0  0  0  0  0
  181.4000  176.4430  138.5430 C   0  0  2  0  0  3  0  0  0  0  0  0
  181.7450  175.6220  139.7840 C   0  0  0  0  0  1  0  0  0  0  0  0
  179.9090  175.4460  136.2480 O   0  0  0  0  0  0  0  0  0  0  0  0
  181.2330  173.5000  136.1890 C   0  0  0  0  0  0  0  0  0  0  0  0
  183.3690  175.1460  137.5360 C   0  0  1  0  0  3  0  0  0  0  0  0
  182.0010  175.8130  137.2720 C   0  0  1  0  0  3  0  0  0  0  0  0
  180.9750  174.9420  136.5690 C   0  0  0  0  0  0  0  0  0  0  0  0
  181.2730  173.4020  134.8100 F   0  0  0  0  0  0  0  0  0  0  0  0
  180.1980  172.7140  136.6590 F   0  0  0  0  0  0  0  0  0  0  0  0
  182.5400  172.9610  136.7590 C   0  0  0  0  0  2  0  0  0  0  0  0
  183.6530  173.9780  136.6060 C   0  0  0  0  0  2  0  0  0  0  0  0
  184.4870  176.1640  137.4090 C   0  0  0  0  0  1  0  0  0  0  0  0
  180.8150  178.8680  137.9650 C   0  0  2  0  0  3  0  0  0  0  0  0
  179.5380  178.3090  137.8980 O   0  0  0  0  0  1  0  0  0  0  0  0
  180.7610  178.7910  135.6010 O   0  0  0  0  0  0  0  0  0  0  0  0
  181.2620  179.2870  136.5970 C   0  0  0  0  0  3  0  0  0  0  0  0
  1  5  1  0  0  0  0
  3  4  1  0  0  0  0
  4  2  1  1  0  0  0
  5  4  1  0  0  0  0
  6  1  1  0  0  0  0
  6  7  1  0  0  0  0
  7  8  1  6  0  0  0
  7  3  1  0  0  0  0
  8  9  1  6  0  0  0
  8 22  1  0  0  0  0
 11 10  2  0  0  0  0
 11  9  1  0  0  0  0
 12 10  1  0  0  0  0
 13 12  1  0  0  0  0
 14 11  1  0  0  0  0
 15 14  1  0  0  0  0
 16 15  1  0  0  0  0
 17 20  1  0  0  0  0
 17 16  1  0  0  0  0
 18 20  2  0  0  0  0
 20 21  1  0  0  0  0
 21 19  1  0  0  0  0
 23 25  1  0  0  0  0
 24 28  1  0  0  0  0
 24 23  1  1  0  0  0
 26 24  1  0  0  0  0
 27 29  1  0  0  0  0
 27 26  1  0  0  0  0
 28 30  1  1  0  0  0
 28 25  1  0  0  0  0
 29 22  1  1  0  0  0
 29 30  1  0  0  0  0
 31  1  1  0  0  0  0
 32 31  1  1  0  0  0
 33 35  2  0  0  0  0
 34 35  1  0  0  0  0
 35 32  1  0  0  0  0
 37 32  1  0  0  0  0
 37 36  1  6  0  0  0
 38 51  1  1  0  0  0
 38 37  1  0  0  0  0
 39 38  1  0  0  0  0
 39 40  1  1  0  0  0
 41 45  2  0  0  0  0
 42 45  1  0  0  0  0
 42 47  1  0  0  0  0
 42 48  1  0  0  0  0
 43 50  1  6  0  0  0
 44 43  1  0  0  0  0
 44 39  1  1  0  0  0
 45 44  1  0  0  0  0
 46 42  1  0  0  0  0
 49 48  1  0  0  0  0
 49 43  1  0  0  0  0
 51 52  1  6  0  0  0
 53 54  2  0  0  0  0
 54 51  1  0  0  0  0
M  END
>  <MODEL>
2

>  <REMARK>
 VINA RESULT:      -6.9      1.374      2.309
  Name = 
  20 active torsions:
  status: ('A' for Active; 'I' for Inactive)
    1  A    between atoms: N_1  and  C_5
    2  A    between atoms: C_2  and  C_18
    3  A    between atoms: C_2  and  C_30
    4  A    between atoms: C_5  and  C_39
    5  A    between atoms: C_6  and  C_20
    6  A    between atoms: C_6  and  C_47
    7  A    between atoms: C_9  and  C_22
    8  A    between atoms: C_13  and  C_47
    9  A    between atoms: C_13  and  C_48
   10  A    between atoms: C_16  and  C_17
   11  A    between atoms: C_16  and  C_41
   12  A    between atoms: C_16  and  C_49
   13  A    between atoms: C_17  and  C_30
   14  A    between atoms: C_18  and  C_52
   15  A    between atoms: C_21  and  C_43
   16  A    between atoms: C_39  and  C_44
   17  A    between atoms: C_39  and  C_54
   18  A    between atoms: C_40  and  C_49
   19  A    between atoms: C_43  and  C_52
   20  A    between atoms: C_44  and  C_47
                            x       y       z     vdW  Elec       q    Type
                         _______ _______ _______ _____ _____    ______ ____

>  <TORSDO>
F 20

$$$$
=
 OpenBabel11062412093D

 54 57  0  0  1  0  0  0  0  0999 V2000
  189.2410  177.6220  138.9830 N   0  0  0  0  0  0  0  0  0  0  0  0
  192.1770  176.9990  141.3100 C   0  0  0  0  0  1  0  0  0  0  0  0
  189.8590  177.6990  141.8880 C   0  0  0  0  0  2  0  0  0  0  0  0
  190.9280  177.6780  140.7910 C   0  0  2  0  0  3  0  0  0  0  0  0
  190.4290  176.9620  139.5400 C   0  0  0  0  0  2  0  0  0  0  0  0
  188.2490  178.0180  140.0010 C   0  0  0  0  0  2  0  0  0  0  0  0
  188.4620  177.3440  141.3640 C   0  0  2  0  0  3  0  0  0  0  0  0
  187.3750  177.7580  142.3590 C   0  0  2  0  0  3  0  0  0  0  0  0
  186.5990  178.9650  141.8390 C   0  0  0  0  0  2  0  0  0  0  0  0
  184.8140  179.1440  143.5060 C   0  0  0  0  0  3  0  0  0  0  0  0
  185.1570  178.9080  142.2300 C   0  0  0  0  0  0  0  0  0  0  0  0
  183.4130  179.0400  144.0260 C   0  0  0  0  0  2  0  0  0  0  0  0
  183.4130  179.1310  145.4190 O   0  0  0  0  0  1  0  0  0  0  0  0
  184.1630  178.4620  141.1990 C   0  0  0  0  0  2  0  0  0  0  0  0
  184.7460  178.5820  139.7990 C   0  0  0  0  0  2  0  0  0  0  0  0
  184.0140  179.6550  139.0130 C   0  0  0  0  0  2  0  0  0  0  0  0
  182.5160  179.5170  139.2060 C   0  0  0  0  0  2  0  0  0  0  0  0
  181.8180  181.6780  138.5050 O   0  0  0  0  0  0  0  0  0  0  0  0
  180.3680  180.7640  136.2370 C   0  0  0  0  0  1  0  0  0  0  0  0
  181.7990  180.4370  138.2840 C   0  0  0  0  0  0  0  0  0  0  0  0
  181.0810  179.9070  137.1680 N   0  0  0  0  0  2  0  0  0  0  0  0
  188.0010  178.1070  143.7060 C   0  0  0  0  0  2  0  0  0  0  0  0
  188.2640  178.1660  148.6490 C   0  0  0  0  0  2  0  0  0  0  0  0
  187.7040  177.5020  147.4140 C   0  0  1  0  0  3  0  0  0  0  0  0
  189.6400  178.1190  147.9650 C   0  0  0  0  0  2  0  0  0  0  0  0
  186.5800  178.0470  146.6840 N   0  0  0  0  0  2  0  0  0  0  0  0
  186.4670  177.1690  145.4930 C   0  0  0  0  0  2  0  0  0  0  0  0
  188.9150  177.9160  146.6560 C   0  0  1  0  0  3  0  0  0  0  0  0
  187.8170  176.9680  144.7060 C   0  0  2  0  0  3  0  0  0  0  0  0
  189.0650  176.8260  145.6310 C   0  0  0  0  0  2  0  0  0  0  0  0
  188.6000  176.6530  138.1120 C   0  0  0  0  0  2  0  0  0  0  0  0
  189.2930  176.6310  136.7540 C   0  0  2  0  0  3  0  0  0  0  0  0
  188.8630  178.0220  134.7280 O   0  0  0  0  0  0  0  0  0  0  0  0
  189.2960  179.0300  136.7410 O   0  0  0  0  0  1  0  0  0  0  0  0
  189.1570  177.9640  136.0850 C   0  0  0  0  0  0  0  0  0  0  0  0
  189.7650  174.7590  135.2950 O   0  0  0  0  0  1  0  0  0  0  0  0
  188.7350  175.4970  135.8870 C   0  0  1  0  0  3  0  0  0  0  0  0
  187.7670  174.5820  136.6710 C   0  0  1  0  0  3  0  0  0  0  0  0
  186.3600  174.5180  136.0530 C   0  0  2  0  0  3  0  0  0  0  0  0
  186.3490  174.9690  134.5940 C   0  0  0  0  0  1  0  0  0  0  0  0
  184.6110  173.4110  138.1020 O   0  0  0  0  0  0  0  0  0  0  0  0
  182.7770  174.6020  137.2310 C   0  0  0  0  0  0  0  0  0  0  0  0
  184.8050  176.5540  136.1520 C   0  0  1  0  0  3  0  0  0  0  0  0
  185.3280  175.3000  136.8870 C   0  0  1  0  0  3  0  0  0  0  0  0
  184.2590  174.3680  137.4290 C   0  0  0  0  0  0  0  0  0  0  0  0
  182.2010  174.8860  138.4560 F   0  0  0  0  0  0  0  0  0  0  0  0
  182.1990  173.4520  136.7250 F   0  0  0  0  0  0  0  0  0  0  0  0
  182.4810  175.7480  136.2700 C   0  0  0  0  0  2  0  0  0  0  0  0
  183.3870  176.9310  136.5490 C   0  0  0  0  0  2  0  0  0  0  0  0
  185.7210  177.7360  136.4060 C   0  0  0  0  0  1  0  0  0  0  0  0
  188.3160  173.1790  137.0220 C   0  0  2  0  0  3  0  0  0  0  0  0
  189.6480  173.2520  137.4320 O   0  0  0  0  0  1  0  0  0  0  0  0
  188.0970  170.9770  136.1870 O   0  0  0  0  0  0  0  0  0  0  0  0
  188.1710  172.1670  135.9260 C   0  0  0  0  0  3  0  0  0  0  0  0
  1  5  1  0  0  0  0
  1  6  1  0  0  0  0
  4  2  1  1  0  0  0
  4  3  1  0  0  0  0
  5  4  1  0  0  0  0
  6  7  1  0  0  0  0
  7  3  1  0  0  0  0
  7  8  1  1  0  0  0
  8  9  1  6  0  0  0
  8 22  1  0  0  0  0
  9 11  1  0  0  0  0
 10 12  1  0  0  0  0
 11 10  2  0  0  0  0
 12 13  1  0  0  0  0
 14 11  1  0  0  0  0
 15 14  1  0  0  0  0
 16 17  1  0  0  0  0
 16 15  1  0  0  0  0
 19 21  1  0  0  0  0
 20 18  2  0  0  0  0
 20 17  1  0  0  0  0
 21 20  1  0  0  0  0
 24 23  1  1  0  0  0
 25 23  1  0  0  0  0
 26 24  1  0  0  0  0
 27 26  1  0  0  0  0
 28 30  1  6  0  0  0
 28 24  1  0  0  0  0
 28 25  1  0  0  0  0
 29 22  1  6  0  0  0
 29 27  1  0  0  0  0
 29 30  1  0  0  0  0
 31  1  1  0  0  0  0
 32 31  1  1  0  0  0
 33 35  2  0  0  0  0
 35 34  1  0  0  0  0
 35 32  1  0  0  0  0
 37 36  1  1  0  0  0
 37 32  1  0  0  0  0
 38 37  1  6  0  0  0
 38 51  1  0  0  0  0
 39 40  1  6  0  0  0
 39 38  1  0  0  0  0
 42 45  1  0  0  0  0
 42 46  1  0  0  0  0
 43 50  1  1  0  0  0
 43 49  1  0  0  0  0
 43 44  1  0  0  0  0
 44 39  1  6  0  0  0
 44 45  1  0  0  0  0
 45 41  2  0  0  0  0
 47 42  1  0  0  0  0
 48 49  1  0  0  0  0
 48 42  1  0  0  0  0
 51 52  1  6  0  0  0
 54 53  2  0  0  0  0
 54 51  1  0  0  0  0
M  END
>  <MODEL>
3

>  <REMARK>
 VINA RESULT:      -6.8      3.043      7.167
  Name = 
  20 active torsions:
  status: ('A' for Active; 'I' for Inactive)
    1  A    between atoms: N_1  and  C_5
    2  A    between atoms: C_2  and  C_18
    3  A    between atoms: C_2  and  C_30
    4  A    between atoms: C_5  and  C_39
    5  A    between atoms: C_6  and  C_20
    6  A    between atoms: C_6  and  C_47
    7  A    between atoms: C_9  and  C_22
    8  A    between atoms: C_13  and  C_47
    9  A    between atoms: C_13  and  C_48
   10  A    between atoms: C_16  and  C_17
   11  A    between atoms: C_16  and  C_41
   12  A    between atoms: C_16  and  C_49
   13  A    between atoms: C_17  and  C_30
   14  A    between atoms: C_18  and  C_52
   15  A    between atoms: C_21  and  C_43
   16  A    between atoms: C_39  and  C_44
   17  A    between atoms: C_39  and  C_54
   18  A    between atoms: C_40  and  C_49
   19  A    between atoms: C_43  and  C_52
   20  A    between atoms: C_44  and  C_47
                            x       y       z     vdW  Elec       q    Type
                         _______ _______ _______ _____ _____    ______ ____

>  <TORSDO>
F 20

$$$$
=
 OpenBabel11062412093D

 54 57  0  0  1  0  0  0  0  0999 V2000
  183.2660  178.7930  140.0580 N   0  0  0  0  0  0  0  0  0  0  0  0
  183.2820  178.9790  143.8510 C   0  0  0  0  0  1  0  0  0  0  0  0
  185.1140  178.2660  142.3230 C   0  0  0  0  0  2  0  0  0  0  0  0
  183.5980  178.4200  142.4800 C   0  0  2  0  0  3  0  0  0  0  0  0
  183.0150  179.3290  141.4020 C   0  0  0  0  0  2  0  0  0  0  0  0
  184.6350  178.2770  139.8690 C   0  0  0  0  0  2  0  0  0  0  0  0
  185.6210  178.7350  140.9530 C   0  0  2  0  0  3  0  0  0  0  0  0
  187.0310  178.2080  140.6740 C   0  0  2  0  0  3  0  0  0  0  0  0
  188.0730  179.0340  141.4240 C   0  0  0  0  0  2  0  0  0  0  0  0
  189.9410  178.6790  142.9670 C   0  0  0  0  0  3  0  0  0  0  0  0
  188.7910  178.2190  142.4520 C   0  0  0  0  0  0  0  0  0  0  0  0
  190.7810  177.9160  143.9450 C   0  0  0  0  0  2  0  0  0  0  0  0
  192.0920  178.3970  143.9260 O   0  0  0  0  0  1  0  0  0  0  0  0
  188.2530  176.8560  142.7730 C   0  0  0  0  0  2  0  0  0  0  0  0
  188.2120  176.6310  144.2760 C   0  0  0  0  0  2  0  0  0  0  0  0
  186.8210  176.9110  144.8140 C   0  0  0  0  0  2  0  0  0  0  0  0
  186.7240  178.3450  145.2980 C   0  0  0  0  0  2  0  0  0  0  0  0
  185.7670  178.8860  147.4070 O   0  0  0  0  0  0  0  0  0  0  0  0
  187.9290  177.8670  148.9460 C   0  0  0  0  0  1  0  0  0  0  0  0
  186.7410  178.3810  146.7850 C   0  0  0  0  0  0  0  0  0  0  0  0
  187.8660  177.8590  147.4950 N   0  0  0  0  0  2  0  0  0  0  0  0
  187.3270  178.2660  139.1780 C   0  0  0  0  0  2  0  0  0  0  0  0
  189.9230  175.7170  135.8220 C   0  0  0  0  0  2  0  0  0  0  0  0
  189.8410  176.9390  136.7040 C   0  0  1  0  0  3  0  0  0  0  0  0
  189.5410  174.8860  137.0580 C   0  0  0  0  0  2  0  0  0  0  0  0
  189.0340  178.0900  136.3600 N   0  0  0  0  0  2  0  0  0  0  0  0
  189.1380  178.9690  137.5500 C   0  0  0  0  0  2  0  0  0  0  0  0
  189.0370  176.1640  137.6860 C   0  0  1  0  0  3  0  0  0  0  0  0
  188.8300  178.2480  138.9180 C   0  0  2  0  0  3  0  0  0  0  0  0
  189.3980  176.7980  139.0000 C   0  0  0  0  0  2  0  0  0  0  0  0
  183.0900  179.8990  139.1330 C   0  0  0  0  0  2  0  0  0  0  0  0
  182.0750  179.5260  138.0580 C   0  0  2  0  0  3  0  0  0  0  0  0
  180.3540  180.7990  136.7780 O   0  0  0  0  0  0  0  0  0  0  0  0
  180.6560  181.2070  139.0140 O   0  0  0  0  0  1  0  0  0  0  0  0
  180.9950  180.5610  137.9880 C   0  0  0  0  0  0  0  0  0  0  0  0
  180.1660  178.1860  138.7020 O   0  0  0  0  0  1  0  0  0  0  0  0
  181.5100  178.1260  138.3200 C   0  0  1  0  0  3  0  0  0  0  0  0
  181.7100  177.1780  137.1150 C   0  0  1  0  0  3  0  0  0  0  0  0
  182.0550  175.7380  137.5290 C   0  0  2  0  0  3  0  0  0  0  0  0
  182.3280  175.6160  139.0270 C   0  0  0  0  0  1  0  0  0  0  0  0
  181.9940  173.3040  135.9300 O   0  0  0  0  0  0  0  0  0  0  0  0
  184.0800  172.6420  136.7940 C   0  0  0  0  0  0  0  0  0  0  0  0
  184.6000  175.5730  137.2630 C   0  0  1  0  0  3  0  0  0  0  0  0
  183.2210  175.1640  136.7010 C   0  0  1  0  0  3  0  0  0  0  0  0
  183.0280  173.6770  136.4630 C   0  0  0  0  0  0  0  0  0  0  0  0
  184.5480  172.0870  135.6170 F   0  0  0  0  0  0  0  0  0  0  0  0
  183.5090  171.6410  137.5580 F   0  0  0  0  0  0  0  0  0  0  0  0
  185.2590  173.2210  137.5680 C   0  0  0  0  0  2  0  0  0  0  0  0
  185.6870  174.5510  136.9800 C   0  0  0  0  0  2  0  0  0  0  0  0
  185.0230  176.9160  136.6980 C   0  0  0  0  0  1  0  0  0  0  0  0
  180.5990  177.2280  136.0400 C   0  0  2  0  0  3  0  0  0  0  0  0
  179.9710  175.9880  135.9130 O   0  0  0  0  0  1  0  0  0  0  0  0
  181.7200  178.7300  134.5970 O   0  0  0  0  0  0  0  0  0  0  0  0
  181.0610  177.7080  134.6970 C   0  0  0  0  0  3  0  0  0  0  0  0
  1  5  1  0  0  0  0
  3  4  1  0  0  0  0
  4  2  1  1  0  0  0
  5  4  1  0  0  0  0
  6  1  1  0  0  0  0
  6  7  1  0  0  0  0
  7  8  1  6  0  0  0
  7  3  1  0  0  0  0
  8 22  1  6  0  0  0
  8  9  1  0  0  0  0
  9 11  1  0  0  0  0
 10 12  1  0  0  0  0
 11 14  1  0  0  0  0
 11 10  2  0  0  0  0
 13 12  1  0  0  0  0
 14 15  1  0  0  0  0
 15 16  1  0  0  0  0
 16 17  1  0  0  0  0
 17 20  1  0  0  0  0
 20 18  2  0  0  0  0
 20 21  1  0  0  0  0
 21 19  1  0  0  0  0
 23 25  1  0  0  0  0
 24 23  1  6  0  0  0
 24 28  1  0  0  0  0
 26 24  1  0  0  0  0
 26 27  1  0  0  0  0
 27 29  1  0  0  0  0
 28 25  1  1  0  0  0
 28 30  1  0  0  0  0
 29 30  1  0  0  0  0
 29 22  1  6  0  0  0
 31  1  1  0  0  0  0
 32 37  1  0  0  0  0
 32 31  1  1  0  0  0
 33 35  2  0  0  0  0
 35 32  1  0  0  0  0
 35 34  1  0  0  0  0
 37 36  1  6  0  0  0
 38 51  1  1  0  0  0
 38 39  1  0  0  0  0
 38 37  1  0  0  0  0
 39 40  1  1  0  0  0
 41 45  2  0  0  0  0
 42 47  1  0  0  0  0
 42 48  1  0  0  0  0
 43 50  1  6  0  0  0
 44 43  1  0  0  0  0
 44 39  1  1  0  0  0
 45 44  1  0  0  0  0
 45 42  1  0  0  0  0
 46 42  1  0  0  0  0
 49 43  1  0  0  0  0
 49 48  1  0  0  0  0
 51 52  1  6  0  0  0
 53 54  2  0  0  0  0
 54 51  1  0  0  0  0
M  END
>  <MODEL>
4

>  <REMARK>
 VINA RESULT:      -6.6      2.802      5.958
  Name = 
  20 active torsions:
  status: ('A' for Active; 'I' for Inactive)
    1  A    between atoms: N_1  and  C_5
    2  A    between atoms: C_2  and  C_18
    3  A    between atoms: C_2  and  C_30
    4  A    between atoms: C_5  and  C_39
    5  A    between atoms: C_6  and  C_20
    6  A    between atoms: C_6  and  C_47
    7  A    between atoms: C_9  and  C_22
    8  A    between atoms: C_13  and  C_47
    9  A    between atoms: C_13  and  C_48
   10  A    between atoms: C_16  and  C_17
   11  A    between atoms: C_16  and  C_41
   12  A    between atoms: C_16  and  C_49
   13  A    between atoms: C_17  and  C_30
   14  A    between atoms: C_18  and  C_52
   15  A    between atoms: C_21  and  C_43
   16  A    between atoms: C_39  and  C_44
   17  A    between atoms: C_39  and  C_54
   18  A    between atoms: C_40  and  C_49
   19  A    between atoms: C_43  and  C_52
   20  A    between atoms: C_44  and  C_47
                            x       y       z     vdW  Elec       q    Type
                         _______ _______ _______ _____ _____    ______ ____

>  <TORSDO>
F 20

$$$$
=
 OpenBabel11062412093D

 54 57  0  0  1  0  0  0  0  0999 V2000
  185.8430  178.7320  141.3440 N   0  0  0  0  0  0  0  0  0  0  0  0
  183.2470  178.9110  144.1100 C   0  0  0  0  0  1  0  0  0  0  0  0
  182.8940  178.9320  141.6450 C   0  0  0  0  0  2  0  0  0  0  0  0
  183.8870  179.2260  142.7750 C   0  0  2  0  0  3  0  0  0  0  0  0
  185.1710  178.4190  142.6120 C   0  0  0  0  0  2  0  0  0  0  0  0
  184.9260  178.8220  140.1920 C   0  0  0  0  0  2  0  0  0  0  0  0
  183.5420  178.2120  140.4560 C   0  0  2  0  0  3  0  0  0  0  0  0
  182.6570  178.2930  139.2100 C   0  0  2  0  0  3  0  0  0  0  0  0
  183.2690  177.4940  138.0620 C   0  0  0  0  0  2  0  0  0  0  0  0
  182.6900  175.5160  136.7380 C   0  0  0  0  0  3  0  0  0  0  0  0
  182.6300  176.1490  137.9200 C   0  0  0  0  0  0  0  0  0  0  0  0
  182.0240  174.2030  136.4610 C   0  0  0  0  0  2  0  0  0  0  0  0
  180.8180  174.4130  135.7900 O   0  0  0  0  0  1  0  0  0  0  0  0
  181.8360  175.6200  139.0780 C   0  0  0  0  0  2  0  0  0  0  0  0
  180.3670  175.9870  138.9380 C   0  0  0  0  0  2  0  0  0  0  0  0
  179.7430  176.1900  140.3070 C   0  0  0  0  0  2  0  0  0  0  0  0
  179.0200  177.5230  140.3610 C   0  0  0  0  0  2  0  0  0  0  0  0
  179.5050  177.5100  142.6890 O   0  0  0  0  0  0  0  0  0  0  0  0
  179.6070  180.3390  142.9520 C   0  0  0  0  0  1  0  0  0  0  0  0
  179.3040  178.2020  141.6540 C   0  0  0  0  0  0  0  0  0  0  0  0
  179.3300  179.6290  141.7150 N   0  0  0  0  0  2  0  0  0  0  0  0
  182.4900  179.7460  138.7770 C   0  0  0  0  0  2  0  0  0  0  0  0
  180.4620  183.3050  135.9970 C   0  0  0  0  0  2  0  0  0  0  0  0
  180.3060  181.9440  136.6320 C   0  0  1  0  0  3  0  0  0  0  0  0
  180.9610  183.8060  137.3630 C   0  0  0  0  0  2  0  0  0  0  0  0
  180.9010  180.7520  136.0670 N   0  0  0  0  0  2  0  0  0  0  0  0
  180.6170  179.6980  137.0700 C   0  0  0  0  0  2  0  0  0  0  0  0
  181.2150  182.3640  137.7310 C   0  0  1  0  0  3  0  0  0  0  0  0
  181.0200  180.0820  138.5450 C   0  0  2  0  0  3  0  0  0  0  0  0
  180.7200  181.5690  138.9080 C   0  0  0  0  0  2  0  0  0  0  0  0
  186.7600  177.6370  141.0800 C   0  0  0  0  0  2  0  0  0  0  0  0
  188.1410  178.1820  140.7370 C   0  0  2  0  0  3  0  0  0  0  0  0
  189.0300  179.4170  138.7590 O   0  0  0  0  0  1  0  0  0  0  0  0
  187.7060  177.5690  138.4590 O   0  0  0  0  0  0  0  0  0  0  0  0
  188.2700  178.3650  139.2560 C   0  0  0  0  0  0  0  0  0  0  0  0
  190.2590  177.0710  140.3660 O   0  0  0  0  0  1  0  0  0  0  0  0
  189.2330  177.2640  141.2960 C   0  0  1  0  0  3  0  0  0  0  0  0
  189.7880  177.7690  142.6480 C   0  0  1  0  0  3  0  0  0  0  0  0
  189.5120  176.8060  143.8140 C   0  0  2  0  0  3  0  0  0  0  0  0
  188.3460  175.8630  143.5220 C   0  0  0  0  0  1  0  0  0  0  0  0
  191.5550  177.3620  145.8140 O   0  0  0  0  0  0  0  0  0  0  0  0
  190.0990  176.6940  147.5390 C   0  0  0  0  0  0  0  0  0  0  0  0
  187.8550  177.4330  145.6680 C   0  0  1  0  0  3  0  0  0  0  0  0
  189.3030  177.5550  145.1440 C   0  0  1  0  0  3  0  0  0  0  0  0
  190.3900  177.1930  146.1400 C   0  0  0  0  0  0  0  0  0  0  0  0
  190.5160  177.6480  148.4490 F   0  0  0  0  0  0  0  0  0  0  0  0
  190.8090  175.5290  147.7620 F   0  0  0  0  0  0  0  0  0  0  0  0
  188.6200  176.4060  147.7700 C   0  0  0  0  0  2  0  0  0  0  0  0
  187.7590  177.5060  147.1820 C   0  0  0  0  0  2  0  0  0  0  0  0
  186.9810  178.5160  145.0640 C   0  0  0  0  0  1  0  0  0  0  0  0
  191.2570  178.2530  142.6240 C   0  0  2  0  0  3  0  0  0  0  0  0
  192.1390  177.1720  142.6200 O   0  0  0  0  0  1  0  0  0  0  0  0
  190.9830  180.2340  143.8880 O   0  0  0  0  0  0  0  0  0  0  0  0
  191.6130  179.2010  143.7290 C   0  0  0  0  0  3  0  0  0  0  0  0
  1  5  1  0  0  0  0
  3  4  1  0  0  0  0
  4  2  1  1  0  0  0
  5  4  1  0  0  0  0
  6  7  1  0  0  0  0
  6  1  1  0  0  0  0
  7  8  1  6  0  0  0
  7  3  1  0  0  0  0
  8  9  1  6  0  0  0
 10 11  2  0  0  0  0
 11  9  1  0  0  0  0
 11 14  1  0  0  0  0
 12 10  1  0  0  0  0
 13 12  1  0  0  0  0
 15 14  1  0  0  0  0
 15 16  1  0  0  0  0
 16 17  1  0  0  0  0
 17 20  1  0  0  0  0
 20 21  1  0  0  0  0
 20 18  2  0  0  0  0
 21 19  1  0  0  0  0
 22  8  1  0  0  0  0
 23 25  1  0  0  0  0
 24 23  1  6  0  0  0
 24 28  1  0  0  0  0
 26 24  1  0  0  0  0
 26 27  1  0  0  0  0
 27 29  1  0  0  0  0
 28 25  1  1  0  0  0
 28 30  1  0  0  0  0
 29 22  1  6  0  0  0
 29 30  1  0  0  0  0
 31  1  1  0  0  0  0
 32 31  1  6  0  0  0
 32 37  1  0  0  0  0
 33 35  1  0  0  0  0
 34 35  2  0  0  0  0
 35 32  1  0  0  0  0
 37 36  1  6  0  0  0
 38 37  1  6  0  0  0
 38 39  1  0  0  0  0
 39 40  1  6  0  0  0
 41 45  2  0  0  0  0
 42 47  1  0  0  0  0
 42 48  1  0  0  0  0
 42 46  1  0  0  0  0
 43 50  1  6  0  0  0
 43 49  1  0  0  0  0
 44 39  1  6  0  0  0
 44 43  1  0  0  0  0
 44 45  1  0  0  0  0
 45 42  1  0  0  0  0
 49 48  1  0  0  0  0
 51 52  1  1  0  0  0
 51 38  1  0  0  0  0
 51 54  1  0  0  0  0
 54 53  2  0  0  0  0
M  END
>  <MODEL>
5

>  <REMARK>
 VINA RESULT:      -6.4      4.356     11.053
  Name = 
  20 active torsions:
  status: ('A' for Active; 'I' for Inactive)
    1  A    between atoms: N_1  and  C_5
    2  A    between atoms: C_2  and  C_18
    3  A    between atoms: C_2  and  C_30
    4  A    between atoms: C_5  and  C_39
    5  A    between atoms: C_6  and  C_20
    6  A    between atoms: C_6  and  C_47
    7  A    between atoms: C_9  and  C_22
    8  A    between atoms: C_13  and  C_47
    9  A    between atoms: C_13  and  C_48
   10  A    between atoms: C_16  and  C_17
   11  A    between atoms: C_16  and  C_41
   12  A    between atoms: C_16  and  C_49
   13  A    between atoms: C_17  and  C_30
   14  A    between atoms: C_18  and  C_52
   15  A    between atoms: C_21  and  C_43
   16  A    between atoms: C_39  and  C_44
   17  A    between atoms: C_39  and  C_54
   18  A    between atoms: C_40  and  C_49
   19  A    between atoms: C_43  and  C_52
   20  A    between atoms: C_44  and  C_47
                            x       y       z     vdW  Elec       q    Type
                         _______ _______ _______ _____ _____    ______ ____

>  <TORSDO>
F 20

$$$$
=
 OpenBabel11062412093D

 54 57  0  0  1  0  0  0  0  0999 V2000
  188.0910  178.5360  140.1850 N   0  0  0  0  0  0  0  0  0  0  0  0
  190.3570  176.0910  142.0040 C   0  0  0  0  0  1  0  0  0  0  0  0
  188.5820  177.5600  142.9470 C   0  0  0  0  0  2  0  0  0  0  0  0
  189.5640  177.3620  141.7880 C   0  0  2  0  0  3  0  0  0  0  0  0
  188.8380  177.2990  140.4470 C   0  0  0  0  0  2  0  0  0  0  0  0
  187.3500  179.0430  141.3550 C   0  0  0  0  0  2  0  0  0  0  0  0
  187.1920  178.0090  142.4790 C   0  0  2  0  0  3  0  0  0  0  0  0
  186.3740  178.5790  143.6410 C   0  0  2  0  0  3  0  0  0  0  0  0
  186.0690  177.4930  144.6690 C   0  0  0  0  0  2  0  0  0  0  0  0
  185.9640  179.0660  146.5430 C   0  0  0  0  0  3  0  0  0  0  0  0
  186.4510  177.9160  146.0520 C   0  0  0  0  0  0  0  0  0  0  0  0
  186.3370  179.6250  147.8820 C   0  0  0  0  0  2  0  0  0  0  0  0
  185.9910  180.9750  147.9490 O   0  0  0  0  0  1  0  0  0  0  0  0
  187.4670  177.0930  146.7860 C   0  0  0  0  0  2  0  0  0  0  0  0
  188.6670  176.7990  145.8990 C   0  0  0  0  0  2  0  0  0  0  0  0
  189.7400  177.8540  146.0950 C   0  0  0  0  0  2  0  0  0  0  0  0
  190.9840  177.4910  145.3070 C   0  0  0  0  0  2  0  0  0  0  0  0
  192.1000  175.3940  145.4070 O   0  0  0  0  0  0  0  0  0  0  0  0
  192.8110  175.6050  148.1510 C   0  0  0  0  0  1  0  0  0  0  0  0
  191.7490  176.4360  146.0250 C   0  0  0  0  0  0  0  0  0  0  0  0
  192.0630  176.6030  147.4080 N   0  0  0  0  0  2  0  0  0  0  0  0
  185.0620  179.1620  143.1240 C   0  0  0  0  0  2  0  0  0  0  0  0
  180.4500  179.4890  141.3560 C   0  0  0  0  0  2  0  0  0  0  0  0
  181.6940  178.6480  141.5120 C   0  0  1  0  0  3  0  0  0  0  0  0
  180.5500  179.7900  142.8600 C   0  0  0  0  0  2  0  0  0  0  0  0
  182.8660  178.8380  140.6830 N   0  0  0  0  0  2  0  0  0  0  0  0
  183.8700  177.9160  141.2660 C   0  0  0  0  0  2  0  0  0  0  0  0
  181.9910  179.3450  142.7910 C   0  0  1  0  0  3  0  0  0  0  0  0
  184.0520  178.0580  142.8250 C   0  0  2  0  0  3  0  0  0  0  0  0
  182.7150  178.2970  143.5910 C   0  0  0  0  0  2  0  0  0  0  0  0
  187.1130  178.2190  139.1590 C   0  0  0  0  0  2  0  0  0  0  0  0
  187.7930  177.5260  137.9840 C   0  0  2  0  0  3  0  0  0  0  0  0
  189.7350  177.9100  136.4650 O   0  0  0  0  0  0  0  0  0  0  0  0
  188.8790  179.6450  137.6940 O   0  0  0  0  0  1  0  0  0  0  0  0
  188.8290  178.4260  137.3840 C   0  0  0  0  0  0  0  0  0  0  0  0
  186.8330  177.8540  135.7870 O   0  0  0  0  0  1  0  0  0  0  0  0
  186.7530  177.0820  136.9500 C   0  0  1  0  0  3  0  0  0  0  0  0
  186.8510  175.5730  136.6300 C   0  0  1  0  0  3  0  0  0  0  0  0
  185.5910  175.0140  135.9480 C   0  0  2  0  0  3  0  0  0  0  0  0
  184.8990  176.0560  135.0710 C   0  0  0  0  0  1  0  0  0  0  0  0
  185.3620  172.1910  136.6260 O   0  0  0  0  0  0  0  0  0  0  0  0
  183.0150  172.3140  136.4980 C   0  0  0  0  0  0  0  0  0  0  0  0
  183.3270  175.2450  137.1300 C   0  0  1  0  0  3  0  0  0  0  0  0
  184.6090  174.4000  136.9640 C   0  0  1  0  0  3  0  0  0  0  0  0
  184.3880  172.9260  136.6720 C   0  0  0  0  0  0  0  0  0  0  0  0
  182.7730  171.4530  137.5520 F   0  0  0  0  0  0  0  0  0  0  0  0
  182.9860  171.5910  135.3200 F   0  0  0  0  0  0  0  0  0  0  0  0
  181.9030  173.3560  136.4480 C   0  0  0  0  0  2  0  0  0  0  0  0
  182.1120  174.4170  137.5100 C   0  0  0  0  0  2  0  0  0  0  0  0
  183.5370  176.3260  138.1740 C   0  0  0  0  0  1  0  0  0  0  0  0
  188.1490  175.1280  135.9150 C   0  0  2  0  0  3  0  0  0  0  0  0
  187.8610  174.3250  134.8110 O   0  0  0  0  0  1  0  0  0  0  0  0
  189.4570  173.2790  136.5980 O   0  0  0  0  0  0  0  0  0  0  0  0
  189.1400  174.4400  136.8050 C   0  0  0  0  0  3  0  0  0  0  0  0
  1  5  1  0  0  0  0
  1  6  1  0  0  0  0
  4  2  1  1  0  0  0
  4  3  1  0  0  0  0
  5  4  1  0  0  0  0
  6  7  1  0  0  0  0
  7  3  1  0  0  0  0
  7  8  1  1  0  0  0
  8 22  1  6  0  0  0
  8  9  1  0  0  0  0
  9 11  1  0  0  0  0
 10 12  1  0  0  0  0
 11 10  2  0  0  0  0
 11 14  1  0  0  0  0
 12 13  1  0  0  0  0
 15 16  1  0  0  0  0
 15 14  1  0  0  0  0
 17 20  1  0  0  0  0
 17 16  1  0  0  0  0
 18 20  2  0  0  0  0
 20 21  1  0  0  0  0
 21 19  1  0  0  0  0
 23 25  1  0  0  0  0
 24 23  1  6  0  0  0
 24 28  1  0  0  0  0
 26 27  1  0  0  0  0
 26 24  1  0  0  0  0
 27 29  1  0  0  0  0
 28 25  1  1  0  0  0
 28 30  1  0  0  0  0
 29 22  1  6  0  0  0
 29 30  1  0  0  0  0
 31  1  1  0  0  0  0
 32 31  1  1  0  0  0
 33 35  2  0  0  0  0
 35 34  1  0  0  0  0
 35 32  1  0  0  0  0
 37 36  1  6  0  0  0
 37 32  1  0  0  0  0
 38 51  1  6  0  0  0
 38 37  1  0  0  0  0
 39 40  1  1  0  0  0
 39 38  1  0  0  0  0
 41 45  2  0  0  0  0
 42 45  1  0  0  0  0
 42 46  1  0  0  0  0
 43 49  1  0  0  0  0
 43 50  1  1  0  0  0
 44 39  1  6  0  0  0
 44 43  1  0  0  0  0
 45 44  1  0  0  0  0
 47 42  1  0  0  0  0
 48 42  1  0  0  0  0
 48 49  1  0  0  0  0
 51 52  1  6  0  0  0
 51 54  1  0  0  0  0
 53 54  2  0  0  0  0
M  END
>  <MODEL>
6

>  <REMARK>
 VINA RESULT:      -6.1      3.163      7.088
  Name = 
  20 active torsions:
  status: ('A' for Active; 'I' for Inactive)
    1  A    between atoms: N_1  and  C_5
    2  A    between atoms: C_2  and  C_18
    3  A    between atoms: C_2  and  C_30
    4  A    between atoms: C_5  and  C_39
    5  A    between atoms: C_6  and  C_20
    6  A    between atoms: C_6  and  C_47
    7  A    between atoms: C_9  and  C_22
    8  A    between atoms: C_13  and  C_47
    9  A    between atoms: C_13  and  C_48
   10  A    between atoms: C_16  and  C_17
   11  A    between atoms: C_16  and  C_41
   12  A    between atoms: C_16  and  C_49
   13  A    between atoms: C_17  and  C_30
   14  A    between atoms: C_18  and  C_52
   15  A    between atoms: C_21  and  C_43
   16  A    between atoms: C_39  and  C_44
   17  A    between atoms: C_39  and  C_54
   18  A    between atoms: C_40  and  C_49
   19  A    between atoms: C_43  and  C_52
   20  A    between atoms: C_44  and  C_47
                            x       y       z     vdW  Elec       q    Type
                         _______ _______ _______ _____ _____    ______ ____

>  <TORSDO>
F 20

$$$$
=
 OpenBabel11062412093D

 54 57  0  0  1  0  0  0  0  0999 V2000
  182.8180  178.8290  140.4660 N   0  0  0  0  0  0  0  0  0  0  0  0
  180.9040  178.9410  143.7440 C   0  0  0  0  0  1  0  0  0  0  0  0
  183.3500  178.6520  143.3840 C   0  0  0  0  0  2  0  0  0  0  0  0
  181.9600  178.4860  142.7610 C   0  0  2  0  0  3  0  0  0  0  0  0
  181.8340  179.2760  141.4610 C   0  0  0  0  0  2  0  0  0  0  0  0
  184.1680  178.6110  141.0210 C   0  0  0  0  0  2  0  0  0  0  0  0
  184.3740  179.2420  142.4060 C   0  0  2  0  0  3  0  0  0  0  0  0
  185.8050  179.0240  142.9030 C   0  0  2  0  0  3  0  0  0  0  0  0
  186.2140  177.5610  142.7420 C   0  0  0  0  0  2  0  0  0  0  0  0
  188.4190  176.5260  142.9960 C   0  0  0  0  0  3  0  0  0  0  0  0
  187.6540  177.4280  142.3610 C   0  0  0  0  0  0  0  0  0  0  0  0
  189.8870  176.3570  142.7500 C   0  0  0  0  0  2  0  0  0  0  0  0
  190.5770  176.3530  143.9630 O   0  0  0  0  0  1  0  0  0  0  0  0
  188.2140  178.4020  141.3670 C   0  0  0  0  0  2  0  0  0  0  0  0
  187.6100  178.1750  139.9900 C   0  0  0  0  0  2  0  0  0  0  0  0
  188.7020  178.1270  138.9370 C   0  0  0  0  0  2  0  0  0  0  0  0
  190.0470  177.8620  139.5870 C   0  0  0  0  0  2  0  0  0  0  0  0
  191.9680  176.5370  139.1320 O   0  0  0  0  0  0  0  0  0  0  0  0
  190.7640  175.0350  137.0420 C   0  0  0  0  0  1  0  0  0  0  0  0
  190.7690  176.7960  138.8420 C   0  0  0  0  0  0  0  0  0  0  0  0
  190.1040  176.0870  137.7950 N   0  0  0  0  0  2  0  0  0  0  0  0
  185.9160  179.4160  144.3730 C   0  0  0  0  0  2  0  0  0  0  0  0
  188.1800  178.1960  148.6040 C   0  0  0  0  0  2  0  0  0  0  0  0
  186.9420  178.0830  147.7460 C   0  0  1  0  0  3  0  0  0  0  0  0
  188.9950  177.8410  147.3500 C   0  0  0  0  0  2  0  0  0  0  0  0
  185.9590  179.1410  147.6610 N   0  0  0  0  0  2  0  0  0  0  0  0
  185.0130  178.6690  146.6210 C   0  0  0  0  0  2  0  0  0  0  0  0
  187.7860  178.2210  146.5290 C   0  0  1  0  0  3  0  0  0  0  0  0
  185.7010  178.2080  145.2800 C   0  0  2  0  0  3  0  0  0  0  0  0
  187.0330  177.4260  145.4990 C   0  0  0  0  0  2  0  0  0  0  0  0
  182.9230  179.8920  139.4820 C   0  0  0  0  0  2  0  0  0  0  0  0
  182.0360  179.5840  138.2820 C   0  0  2  0  0  3  0  0  0  0  0  0
  180.9110  181.1110  136.6620 O   0  0  0  0  0  0  0  0  0  0  0  0
  180.6070  181.4040  138.9150 O   0  0  0  0  0  1  0  0  0  0  0  0
  181.1480  180.7520  137.9830 C   0  0  0  0  0  0  0  0  0  0  0  0
  179.8740  178.5850  138.7150 O   0  0  0  0  0  1  0  0  0  0  0  0
  181.2310  178.3030  138.5280 C   0  0  1  0  0  3  0  0  0  0  0  0
  181.4380  177.2570  137.4080 C   0  0  1  0  0  3  0  0  0  0  0  0
  182.5640  177.6320  136.4300 C   0  0  2  0  0  3  0  0  0  0  0  0
  182.0300  177.9860  135.0430 C   0  0  0  0  0  1  0  0  0  0  0  0
  184.9590  177.4570  138.0780 O   0  0  0  0  0  0  0  0  0  0  0  0
  186.2710  176.9770  136.1830 C   0  0  0  0  0  0  0  0  0  0  0  0
  183.7410  175.9060  134.9430 C   0  0  1  0  0  3  0  0  0  0  0  0
  183.6460  176.5380  136.3490 C   0  0  1  0  0  3  0  0  0  0  0  0
  184.9570  177.0360  136.9310 C   0  0  0  0  0  0  0  0  0  0  0  0
  187.1050  176.0750  136.8180 F   0  0  0  0  0  0  0  0  0  0  0  0
  186.8650  178.2240  136.2090 F   0  0  0  0  0  0  0  0  0  0  0  0
  186.1060  176.5550  134.7270 C   0  0  0  0  0  2  0  0  0  0  0  0
  185.1330  175.3990  134.6090 C   0  0  0  0  0  2  0  0  0  0  0  0
  182.7510  174.7640  134.8080 C   0  0  0  0  0  1  0  0  0  0  0  0
  181.5400  175.7880  137.8820 C   0  0  2  0  0  3  0  0  0  0  0  0
  180.4180  175.0570  137.4880 O   0  0  0  0  0  1  0  0  0  0  0  0
  180.8290  175.3880  140.1020 O   0  0  0  0  0  0  0  0  0  0  0  0
  181.7650  175.6280  139.3550 C   0  0  0  0  0  3  0  0  0  0  0  0
  1  6  1  0  0  0  0
  1  5  1  0  0  0  0
  4  3  1  0  0  0  0
  4  2  1  1  0  0  0
  5  4  1  0  0  0  0
  6  7  1  0  0  0  0
  7  8  1  1  0  0  0
  7  3  1  0  0  0  0
  8  9  1  1  0  0  0
  8 22  1  0  0  0  0
 11  9  1  0  0  0  0
 11 10  2  0  0  0  0
 12 10  1  0  0  0  0
 12 13  1  0  0  0  0
 14 11  1  0  0  0  0
 15 14  1  0  0  0  0
 16 17  1  0  0  0  0
 16 15  1  0  0  0  0
 19 21  1  0  0  0  0
 20 18  2  0  0  0  0
 20 17  1  0  0  0  0
 21 20  1  0  0  0  0
 24 23  1  1  0  0  0
 25 23  1  0  0  0  0
 26 24  1  0  0  0  0
 27 26  1  0  0  0  0
 28 30  1  6  0  0  0
 28 25  1  0  0  0  0
 28 24  1  0  0  0  0
 29 22  1  6  0  0  0
 29 30  1  0  0  0  0
 29 27  1  0  0  0  0
 31  1  1  0  0  0  0
 32 37  1  0  0  0  0
 32 31  1  1  0  0  0
 33 35  2  0  0  0  0
 35 32  1  0  0  0  0
 35 34  1  0  0  0  0
 37 36  1  6  0  0  0
 38 39  1  1  0  0  0
 38 51  1  0  0  0  0
 38 37  1  0  0  0  0
 39 40  1  6  0  0  0
 42 47  1  0  0  0  0
 42 46  1  0  0  0  0
 42 45  1  0  0  0  0
 43 50  1  1  0  0  0
 43 44  1  0  0  0  0
 44 39  1  6  0  0  0
 44 45  1  0  0  0  0
 45 41  2  0  0  0  0
 48 42  1  0  0  0  0
 49 48  1  0  0  0  0
 49 43  1  0  0  0  0
 51 52  1  1  0  0  0
 51 54  1  0  0  0  0
 54 53  2  0  0  0  0
M  END
>  <MODEL>
7

>  <REMARK>
 VINA RESULT:      -6.0      2.679      4.418
  Name = 
  20 active torsions:
  status: ('A' for Active; 'I' for Inactive)
    1  A    between atoms: N_1  and  C_5
    2  A    between atoms: C_2  and  C_18
    3  A    between atoms: C_2  and  C_30
    4  A    between atoms: C_5  and  C_39
    5  A    between atoms: C_6  and  C_20
    6  A    between atoms: C_6  and  C_47
    7  A    between atoms: C_9  and  C_22
    8  A    between atoms: C_13  and  C_47
    9  A    between atoms: C_13  and  C_48
   10  A    between atoms: C_16  and  C_17
   11  A    between atoms: C_16  and  C_41
   12  A    between atoms: C_16  and  C_49
   13  A    between atoms: C_17  and  C_30
   14  A    between atoms: C_18  and  C_52
   15  A    between atoms: C_21  and  C_43
   16  A    between atoms: C_39  and  C_44
   17  A    between atoms: C_39  and  C_54
   18  A    between atoms: C_40  and  C_49
   19  A    between atoms: C_43  and  C_52
   20  A    between atoms: C_44  and  C_47
                            x       y       z     vdW  Elec       q    Type
                         _______ _______ _______ _____ _____    ______ ____

>  <TORSDO>
F 20

$$$$
=
 OpenBabel11062412093D

 54 57  0  0  1  0  0  0  0  0999 V2000
  185.4850  178.7040  141.8340 N   0  0  0  0  0  0  0  0  0  0  0  0
  182.9820  179.0010  144.6750 C   0  0  0  0  0  1  0  0  0  0  0  0
  182.5430  178.8240  142.2310 C   0  0  0  0  0  2  0  0  0  0  0  0
  183.5630  179.2360  143.2970 C   0  0  2  0  0  3  0  0  0  0  0  0
  184.8700  178.4640  143.1470 C   0  0  0  0  0  2  0  0  0  0  0  0
  184.5250  178.6750  140.7140 C   0  0  0  0  0  2  0  0  0  0  0  0
  183.1750  178.0390  141.0750 C   0  0  2  0  0  3  0  0  0  0  0  0
  182.2450  177.9950  139.8610 C   0  0  2  0  0  3  0  0  0  0  0  0
  182.7010  176.9270  138.8700 C   0  0  0  0  0  2  0  0  0  0  0  0
  180.5460  175.9060  139.4250 C   0  0  0  0  0  3  0  0  0  0  0  0
  181.6900  175.8340  138.7280 C   0  0  0  0  0  0  0  0  0  0  0  0
  179.4970  174.8350  139.4190 C   0  0  0  0  0  2  0  0  0  0  0  0
  179.6760  173.9860  140.5120 O   0  0  0  0  0  1  0  0  0  0  0  0
  182.0570  174.6360  137.9020 C   0  0  0  0  0  2  0  0  0  0  0  0
  183.3950  174.8460  137.2120 C   0  0  0  0  0  2  0  0  0  0  0  0
  184.3650  173.7420  137.5950 C   0  0  0  0  0  2  0  0  0  0  0  0
  185.2150  173.3530  136.4010 C   0  0  0  0  0  2  0  0  0  0  0  0
  186.8060  175.1040  136.6320 O   0  0  0  0  0  0  0  0  0  0  0  0
  189.0610  173.3860  136.8440 C   0  0  0  0  0  1  0  0  0  0  0  0
  186.6020  173.8610  136.5780 C   0  0  0  0  0  0  0  0  0  0  0  0
  187.6900  172.9400  136.6670 N   0  0  0  0  0  2  0  0  0  0  0  0
  182.2260  179.3510  139.1630 C   0  0  0  0  0  2  0  0  0  0  0  0
  180.5720  182.9750  136.2240 C   0  0  0  0  0  2  0  0  0  0  0  0
  180.2850  181.6550  136.8980 C   0  0  1  0  0  3  0  0  0  0  0  0
  181.0840  183.4770  137.5840 C   0  0  0  0  0  2  0  0  0  0  0  0
  180.7870  180.3980  136.3850 N   0  0  0  0  0  2  0  0  0  0  0  0
  180.3910  179.4070  137.4140 C   0  0  0  0  0  2  0  0  0  0  0  0
  181.2040  182.0320  138.0040 C   0  0  1  0  0  3  0  0  0  0  0  0
  180.7960  179.8040  138.8850 C   0  0  2  0  0  3  0  0  0  0  0  0
  180.6180  181.3230  139.1930 C   0  0  0  0  0  2  0  0  0  0  0  0
  186.4320  177.6240  141.6180 C   0  0  0  0  0  2  0  0  0  0  0  0
  187.8400  178.1880  141.4590 C   0  0  2  0  0  3  0  0  0  0  0  0
  187.8160  177.2320  139.1550 O   0  0  0  0  0  0  0  0  0  0  0  0
  188.8520  179.2380  139.5550 O   0  0  0  0  0  1  0  0  0  0  0  0
  188.2060  178.2570  140.0090 C   0  0  0  0  0  0  0  0  0  0  0  0
  189.1120  176.1370  141.6300 O   0  0  0  0  0  1  0  0  0  0  0  0
  188.8430  177.3540  142.2630 C   0  0  1  0  0  3  0  0  0  0  0  0
  190.1450  178.1320  142.5630 C   0  0  1  0  0  3  0  0  0  0  0  0
  190.2870  178.5280  144.0420 C   0  0  2  0  0  3  0  0  0  0  0  0
  191.6380  179.1760  144.3400 C   0  0  0  0  0  1  0  0  0  0  0  0
  187.8700  178.0850  145.6060 O   0  0  0  0  0  0  0  0  0  0  0  0
  189.1530  177.5330  147.5000 C   0  0  0  0  0  0  0  0  0  0  0  0
  191.3200  176.7390  145.5610 C   0  0  1  0  0  3  0  0  0  0  0  0
  190.0190  177.3390  144.9850 C   0  0  1  0  0  3  0  0  0  0  0  0
  188.9550  177.6970  146.0090 C   0  0  0  0  0  0  0  0  0  0  0  0
  188.3060  176.5410  147.9570 F   0  0  0  0  0  0  0  0  0  0  0  0
  188.8290  178.7190  148.1340 F   0  0  0  0  0  0  0  0  0  0  0  0
  190.5860  177.1680  147.8720 C   0  0  0  0  0  2  0  0  0  0  0  0
  191.1320  176.1120  146.9320 C   0  0  0  0  0  2  0  0  0  0  0  0
  191.8870  175.6990  144.6140 C   0  0  0  0  0  1  0  0  0  0  0  0
  191.4400  177.5020  141.9990 C   0  0  2  0  0  3  0  0  0  0  0  0
  192.5710  178.1140  142.5420 O   0  0  0  0  0  1  0  0  0  0  0  0
  192.5960  177.3220  139.9430 O   0  0  0  0  0  0  0  0  0  0  0  0
  191.5260  177.5030  140.5020 C   0  0  0  0  0  3  0  0  0  0  0  0
  1  5  1  0  0  0  0
  3  4  1  0  0  0  0
  4  2  1  1  0  0  0
  5  4  1  0  0  0  0
  6  7  1  0  0  0  0
  6  1  1  0  0  0  0
  7  8  1  6  0  0  0
  7  3  1  0  0  0  0
  8  9  1  6  0  0  0
 11  9  1  0  0  0  0
 11 10  2  0  0  0  0
 12 10  1  0  0  0  0
 12 13  1  0  0  0  0
 14 11  1  0  0  0  0
 15 16  1  0  0  0  0
 15 14  1  0  0  0  0
 17 20  1  0  0  0  0
 17 16  1  0  0  0  0
 20 18  2  0  0  0  0
 20 21  1  0  0  0  0
 21 19  1  0  0  0  0
 22  8  1  0  0  0  0
 23 25  1  0  0  0  0
 24 23  1  6  0  0  0
 24 28  1  0  0  0  0
 26 24  1  0  0  0  0
 26 27  1  0  0  0  0
 27 29  1  0  0  0  0
 28 25  1  1  0  0  0
 28 30  1  0  0  0  0
 29 22  1  6  0  0  0
 29 30  1  0  0  0  0
 31  1  1  0  0  0  0
 32 31  1  6  0  0  0
 32 37  1  0  0  0  0
 33 35  2  0  0  0  0
 34 35  1  0  0  0  0
 35 32  1  0  0  0  0
 37 36  1  6  0  0  0
 37 38  1  0  0  0  0
 38 51  1  1  0  0  0
 38 39  1  0  0  0  0
 39 40  1  6  0  0  0
 41 45  2  0  0  0  0
 42 48  1  0  0  0  0
 42 46  1  0  0  0  0
 42 47  1  0  0  0  0
 43 50  1  6  0  0  0
 43 49  1  0  0  0  0
 44 39  1  1  0  0  0
 44 43  1  0  0  0  0
 44 45  1  0  0  0  0
 45 42  1  0  0  0  0
 49 48  1  0  0  0  0
 51 52  1  1  0  0  0
 53 54  2  0  0  0  0
 54 51  1  0  0  0  0
M  END
>  <MODEL>
8

>  <REMARK>
 VINA RESULT:      -5.9      4.089     10.149
  Name = 
  20 active torsions:
  status: ('A' for Active; 'I' for Inactive)
    1  A    between atoms: N_1  and  C_5
    2  A    between atoms: C_2  and  C_18
    3  A    between atoms: C_2  and  C_30
    4  A    between atoms: C_5  and  C_39
    5  A    between atoms: C_6  and  C_20
    6  A    between atoms: C_6  and  C_47
    7  A    between atoms: C_9  and  C_22
    8  A    between atoms: C_13  and  C_47
    9  A    between atoms: C_13  and  C_48
   10  A    between atoms: C_16  and  C_17
   11  A    between atoms: C_16  and  C_41
   12  A    between atoms: C_16  and  C_49
   13  A    between atoms: C_17  and  C_30
   14  A    between atoms: C_18  and  C_52
   15  A    between atoms: C_21  and  C_43
   16  A    between atoms: C_39  and  C_44
   17  A    between atoms: C_39  and  C_54
   18  A    between atoms: C_40  and  C_49
   19  A    between atoms: C_43  and  C_52
   20  A    between atoms: C_44  and  C_47
                            x       y       z     vdW  Elec       q    Type
                         _______ _______ _______ _____ _____    ______ ____

>  <TORSDO>
F 20

$$$$
=
 OpenBabel11062412093D

 54 57  0  0  1  0  0  0  0  0999 V2000
  183.9740  177.6730  138.7300 N   0  0  0  0  0  0  0  0  0  0  0  0
  181.1450  179.4320  140.5540 C   0  0  0  0  0  1  0  0  0  0  0  0
  183.4940  179.0820  141.3020 C   0  0  0  0  0  2  0  0  0  0  0  0
  182.3740  178.5640  140.3930 C   0  0  2  0  0  3  0  0  0  0  0  0
  182.8070  178.5430  138.9300 C   0  0  0  0  0  2  0  0  0  0  0  0
  185.0150  177.8280  139.7630 C   0  0  0  0  0  2  0  0  0  0  0  0
  184.8620  179.1020  140.6070 C   0  0  2  0  0  3  0  0  0  0  0  0
  185.9980  179.2290  141.6250 C   0  0  2  0  0  3  0  0  0  0  0  0
  186.8100  177.9370  141.6910 C   0  0  0  0  0  2  0  0  0  0  0  0
  188.5680  177.4970  140.0440 C   0  0  0  0  0  3  0  0  0  0  0  0
  188.1980  178.1290  141.1690 C   0  0  0  0  0  0  0  0  0  0  0  0
  189.9510  177.5560  139.4720 C   0  0  0  0  0  2  0  0  0  0  0  0
  190.4760  176.2670  139.3580 O   0  0  0  0  0  1  0  0  0  0  0  0
  189.1610  178.9240  142.0000 C   0  0  0  0  0  2  0  0  0  0  0  0
  189.9630  178.0140  142.9170 C   0  0  0  0  0  2  0  0  0  0  0  0
  190.4910  178.7960  144.1050 C   0  0  0  0  0  2  0  0  0  0  0  0
  191.8480  178.2620  144.5240 C   0  0  0  0  0  2  0  0  0  0  0  0
  191.5310  175.9060  144.5320 O   0  0  0  0  0  0  0  0  0  0  0  0
  191.5480  175.6480  147.3620 C   0  0  0  0  0  1  0  0  0  0  0  0
  191.6880  176.9540  145.2140 C   0  0  0  0  0  0  0  0  0  0  0  0
  191.6960  176.9000  146.6420 N   0  0  0  0  0  2  0  0  0  0  0  0
  185.4320  179.5360  143.0090 C   0  0  0  0  0  2  0  0  0  0  0  0
  186.8840  178.0920  147.5150 C   0  0  0  0  0  2  0  0  0  0  0  0
  185.8500  177.9880  146.4190 C   0  0  1  0  0  3  0  0  0  0  0  0
  187.9520  177.8750  146.4310 C   0  0  0  0  0  2  0  0  0  0  0  0
  184.8400  179.0030  146.2100 N   0  0  0  0  0  2  0  0  0  0  0  0
  184.1490  178.5710  144.9710 C   0  0  0  0  0  2  0  0  0  0  0  0
  186.9080  178.2620  145.4110 C   0  0  1  0  0  3  0  0  0  0  0  0
  185.1170  178.2500  143.7690 C   0  0  2  0  0  3  0  0  0  0  0  0
  186.4250  177.5170  144.1980 C   0  0  0  0  0  2  0  0  0  0  0  0
  184.5650  178.0590  137.4610 C   0  0  0  0  0  2  0  0  0  0  0  0
  185.5000  176.9630  136.9640 C   0  0  2  0  0  3  0  0  0  0  0  0
  187.9630  176.7600  136.6250 O   0  0  0  0  0  1  0  0  0  0  0  0
  186.9050  178.7470  136.1910 O   0  0  0  0  0  0  0  0  0  0  0  0
  186.8210  177.5500  136.5740 C   0  0  0  0  0  0  0  0  0  0  0  0
  185.6590  176.2230  134.6650 O   0  0  0  0  0  1  0  0  0  0  0  0
  184.8530  176.1920  135.8080 C   0  0  1  0  0  3  0  0  0  0  0  0
  184.4900  174.7420  136.2010 C   0  0  1  0  0  3  0  0  0  0  0  0
  183.1670  174.2600  135.5820 C   0  0  2  0  0  3  0  0  0  0  0  0
  182.4010  175.3930  134.9000 C   0  0  0  0  0  1  0  0  0  0  0  0
  182.4310  171.4430  135.5200 O   0  0  0  0  0  0  0  0  0  0  0  0
  180.1940  171.9800  136.0180 C   0  0  0  0  0  0  0  0  0  0  0  0
  181.2830  174.4770  137.3070 C   0  0  1  0  0  3  0  0  0  0  0  0
  182.2820  173.5290  136.6090 C   0  0  1  0  0  3  0  0  0  0  0  0
  181.6780  172.2760  136.0000 C   0  0  0  0  0  0  0  0  0  0  0  0
  179.9660  170.8850  136.8310 F   0  0  0  0  0  0  0  0  0  0  0  0
  179.7760  171.6740  134.7360 F   0  0  0  0  0  0  0  0  0  0  0  0
  179.3610  173.1520  136.5250 C   0  0  0  0  0  2  0  0  0  0  0  0
  180.0050  173.7810  137.7440 C   0  0  0  0  0  2  0  0  0  0  0  0
  181.9290  175.1310  138.5150 C   0  0  0  0  0  1  0  0  0  0  0  0
  185.6250  173.7040  136.0350 C   0  0  2  0  0  3  0  0  0  0  0  0
  185.2340  172.6680  135.1860 O   0  0  0  0  0  1  0  0  0  0  0  0
  185.3780  172.6330  138.1300 O   0  0  0  0  0  0  0  0  0  0  0  0
  186.1420  173.1430  137.3250 C   0  0  0  0  0  3  0  0  0  0  0  0
  1  5  1  0  0  0  0
  1  6  1  0  0  0  0
  4  2  1  6  0  0  0
  4  3  1  0  0  0  0
  5  4  1  0  0  0  0
  6  7  1  0  0  0  0
  7  3  1  0  0  0  0
  7  8  1  1  0  0  0
  8  9  1  1  0  0  0
  8 22  1  0  0  0  0
 10 11  2  0  0  0  0
 11  9  1  0  0  0  0
 11 14  1  0  0  0  0
 12 10  1  0  0  0  0
 13 12  1  0  0  0  0
 14 15  1  0  0  0  0
 15 16  1  0  0  0  0
 16 17  1  0  0  0  0
 17 20  1  0  0  0  0
 18 20  2  0  0  0  0
 20 21  1  0  0  0  0
 21 19  1  0  0  0  0
 24 23  1  1  0  0  0
 25 23  1  0  0  0  0
 26 24  1  0  0  0  0
 27 26  1  0  0  0  0
 28 30  1  6  0  0  0
 28 24  1  0  0  0  0
 28 25  1  0  0  0  0
 29 22  1  1  0  0  0
 29 30  1  0  0  0  0
 29 27  1  0  0  0  0
 31  1  1  0  0  0  0
 32 31  1  6  0  0  0
 34 35  2  0  0  0  0
 35 33  1  0  0  0  0
 35 32  1  0  0  0  0
 37 36  1  6  0  0  0
 37 38  1  0  0  0  0
 37 32  1  0  0  0  0
 38 39  1  6  0  0  0
 39 40  1  1  0  0  0
 41 45  2  0  0  0  0
 42 48  1  0  0  0  0
 42 46  1  0  0  0  0
 43 49  1  0  0  0  0
 43 50  1  1  0  0  0
 44 39  1  6  0  0  0
 44 43  1  0  0  0  0
 45 42  1  0  0  0  0
 45 44  1  0  0  0  0
 47 42  1  0  0  0  0
 48 49  1  0  0  0  0
 51 52  1  6  0  0  0
 51 38  1  0  0  0  0
 51 54  1  0  0  0  0
 54 53  2  0  0  0  0
M  END
>  <MODEL>
9

>  <REMARK>
 VINA RESULT:      -5.8      3.017      5.374
  Name = 
  20 active torsions:
  status: ('A' for Active; 'I' for Inactive)
    1  A    between atoms: N_1  and  C_5
    2  A    between atoms: C_2  and  C_18
    3  A    between atoms: C_2  and  C_30
    4  A    between atoms: C_5  and  C_39
    5  A    between atoms: C_6  and  C_20
    6  A    between atoms: C_6  and  C_47
    7  A    between atoms: C_9  and  C_22
    8  A    between atoms: C_13  and  C_47
    9  A    between atoms: C_13  and  C_48
   10  A    between atoms: C_16  and  C_17
   11  A    between atoms: C_16  and  C_41
   12  A    between atoms: C_16  and  C_49
   13  A    between atoms: C_17  and  C_30
   14  A    between atoms: C_18  and  C_52
   15  A    between atoms: C_21  and  C_43
   16  A    between atoms: C_39  and  C_44
   17  A    between atoms: C_39  and  C_54
   18  A    between atoms: C_40  and  C_49
   19  A    between atoms: C_43  and  C_52
   20  A    between atoms: C_44  and  C_47
                            x       y       z     vdW  Elec       q    Type
                         _______ _______ _______ _____ _____    ______ ____

>  <TORSDO>
F 20

$$$$
