=
 OpenBabel11062415453D

 27 28  0  0  1  0  0  0  0  0999 V2000
  191.0280  177.0670  141.0130 C   0  0  0  0  0  0  0  0  0  0  0  0
  192.1130  177.6780  140.8120 O   0  0  0  0  0  0  0  0  0  0  0  0
  190.3970  177.1250  142.2960 N   0  0  0  0  0  2  0  0  0  0  0  0
  190.9060  177.9320  143.3950 C   0  0  2  0  0  3  0  0  0  0  0  0
  191.2870  176.7730  145.4490 C   0  0  0  0  0  0  0  0  0  0  0  0
  189.9850  177.3740  145.6980 C   0  0  0  0  0  0  0  0  0  0  0  0
  191.7800  177.0820  144.2620 C   0  0  0  0  0  3  0  0  0  0  0  0
  189.2360  177.0180  146.7030 N   0  0  0  0  0  0  0  0  0  0  0  0
  189.5090  178.5310  144.4180 S   0  0  0  0  0  0  0  0  0  0  0  0
  192.3920  174.7580  146.0620 O   0  0  0  0  0  0  0  0  0  0  0  0
  192.0200  175.9130  146.3980 C   0  0  0  0  0  0  0  0  0  0  0  0
  192.3020  176.3700  147.6800 O   0  0  0  0  0  1  0  0  0  0  0  0
  187.7560  178.3480  148.2440 C   0  0  0  0  0  1  0  0  0  0  0  0
  187.9260  177.5020  147.0330 C   0  0  0  0  0  0  0  0  0  0  0  0
  186.9220  177.2380  146.3220 O   0  0  0  0  0  0  0  0  0  0  0  0
  190.4520  176.3390  139.9660 O   0  0  0  0  0  0  0  0  0  0  0  0
  188.6410  178.8670  137.9800 N   0  0  0  0  0  2  0  0  0  0  0  0
  188.8980  176.0170  138.1340 C   0  0  0  0  0  2  0  0  0  0  0  0
  189.2740  178.2570  139.1460 C   0  0  0  0  0  2  0  0  0  0  0  0
  188.2590  176.6060  136.8690 C   0  0  1  0  0  3  0  0  0  0  0  0
  189.9440  176.9390  138.7770 C   0  0  1  0  0  0  0  0  0  0  0  0
  190.9900  177.1880  137.9030 F   0  0  0  0  0  0  0  0  0  0  0  0
  187.2490  178.6680  136.0970 N   0  0  0  0  0  2  0  0  0  0  0  0
  187.9780  178.0820  136.9880 C   0  0  0  0  0  0  0  0  0  0  0  0
  188.9600  174.9660  135.0850 N   0  0  0  0  0  1  0  0  0  0  0  0
  189.0600  176.2680  135.6470 C   0  0  0  0  0  0  0  0  0  0  0  0
  189.8420  177.1090  135.1320 O   0  0  0  0  0  0  0  0  0  0  0  0
  1  3  1  0  0  0  0
  2  1  2  0  0  0  0
  4  3  1  6  0  0  0
  4  7  1  0  0  0  0
  4  9  1  0  0  0  0
  5  6  1  0  0  0  0
  5 11  1  0  0  0  0
  6  8  2  0  0  0  0
  7  5  2  0  0  0  0
  8 14  1  0  0  0  0
  9  6  1  0  0  0  0
 10 11  2  0  0  0  0
 11 12  1  0  0  0  0
 14 13  1  0  0  0  0
 15 14  2  0  0  0  0
 16  1  1  0  0  0  0
 17 19  1  0  0  0  0
 18 21  1  0  0  0  0
 20 26  1  6  0  0  0
 20 24  1  0  0  0  0
 20 18  1  0  0  0  0
 21 22  1  6  0  0  0
 21 19  1  0  0  0  0
 21 16  1  0  0  0  0
 23 24  2  0  0  0  0
 24 17  1  0  0  0  0
 25 26  1  0  0  0  0
 27 26  2  0  0  0  0
M  END
>  <MODEL>
1

>  <REMARK>
 VINA RESULT:      -7.1      0.000      0.000
  Name = 
  6 active torsions:
  status: ('A' for Active; 'I' for Inactive)
    1  A    between atoms: C_2  and  O_13
    2  A    between atoms: C_3  and  N_26
    3  A    between atoms: C_4  and  C_15
    4  A    between atoms: C_9  and  C_12
    5  A    between atoms: O_13  and  C_20
    6  A    between atoms: N_17  and  C_18
                            x       y       z     vdW  Elec       q    Type
                         _______ _______ _______ _____ _____    ______ ____

>  <TORSDO>
F 6

$$$$
=
 OpenBabel11062415453D

 27 28  0  0  1  0  0  0  0  0999 V2000
  190.6660  177.0590  141.8000 C   0  0  0  0  0  0  0  0  0  0  0  0
  191.8580  177.4430  141.6530 O   0  0  0  0  0  0  0  0  0  0  0  0
  189.7540  177.1020  140.6970 N   0  0  0  0  0  2  0  0  0  0  0  0
  190.1510  177.5030  139.3550 C   0  0  2  0  0  3  0  0  0  0  0  0
  188.3840  177.6830  137.7570 C   0  0  0  0  0  0  0  0  0  0  0  0
  188.9150  176.3620  137.4490 C   0  0  0  0  0  0  0  0  0  0  0  0
  189.0410  178.2880  138.7320 C   0  0  0  0  0  3  0  0  0  0  0  0
  188.2800  175.5190  136.6840 N   0  0  0  0  0  0  0  0  0  0  0  0
  190.4350  176.0130  138.3270 S   0  0  0  0  0  0  0  0  0  0  0  0
  187.2680  178.5110  135.8280 O   0  0  0  0  0  0  0  0  0  0  0  0
  187.2430  178.3190  137.0720 C   0  0  0  0  0  0  0  0  0  0  0  0
  186.1280  178.7190  137.7980 O   0  0  0  0  0  1  0  0  0  0  0  0
  187.9440  173.0380  136.9380 C   0  0  0  0  0  1  0  0  0  0  0  0
  188.6760  174.1840  136.3380 C   0  0  0  0  0  0  0  0  0  0  0  0
  189.6190  173.9580  135.5340 O   0  0  0  0  0  0  0  0  0  0  0  0
  190.2500  176.5880  143.0510 O   0  0  0  0  0  0  0  0  0  0  0  0
  188.7930  177.8580  146.1940 N   0  0  0  0  0  2  0  0  0  0  0  0
  187.9530  176.4950  143.8180 C   0  0  0  0  0  2  0  0  0  0  0  0
  189.7900  177.2790  145.2990 C   0  0  0  0  0  2  0  0  0  0  0  0
  186.8640  177.1160  144.7040 C   0  0  1  0  0  3  0  0  0  0  0  0
  189.2850  177.2560  143.8610 C   0  0  1  0  0  0  0  0  0  0  0  0
  189.1260  178.5570  143.4120 F   0  0  0  0  0  0  0  0  0  0  0  0
  186.5720  177.9580  146.9560 N   0  0  0  0  0  2  0  0  0  0  0  0
  187.3960  177.6120  146.0230 C   0  0  0  0  0  0  0  0  0  0  0  0
  186.1040  178.1660  142.5400 N   0  0  0  0  0  1  0  0  0  0  0  0
  186.0920  178.1650  143.9610 C   0  0  0  0  0  0  0  0  0  0  0  0
  185.4620  179.0640  144.5780 O   0  0  0  0  0  0  0  0  0  0  0  0
  1 16  1  0  0  0  0
  2  1  2  0  0  0  0
  3  1  1  0  0  0  0
  4  3  1  1  0  0  0
  5  7  2  0  0  0  0
  6  5  1  0  0  0  0
  6  9  1  0  0  0  0
  7  4  1  0  0  0  0
  8  6  2  0  0  0  0
  9  4  1  0  0  0  0
 10 11  2  0  0  0  0
 11  5  1  0  0  0  0
 11 12  1  0  0  0  0
 14  8  1  0  0  0  0
 14 13  1  0  0  0  0
 15 14  2  0  0  0  0
 16 21  1  0  0  0  0
 18 21  1  0  0  0  0
 18 20  1  0  0  0  0
 19 17  1  0  0  0  0
 20 26  1  6  0  0  0
 20 24  1  0  0  0  0
 21 22  1  6  0  0  0
 21 19  1  0  0  0  0
 24 17  1  0  0  0  0
 24 23  2  0  0  0  0
 25 26  1  0  0  0  0
 26 27  2  0  0  0  0
M  END
>  <MODEL>
2

>  <REMARK>
 VINA RESULT:      -7.0      2.918      8.413
  Name = 
  6 active torsions:
  status: ('A' for Active; 'I' for Inactive)
    1  A    between atoms: C_2  and  O_13
    2  A    between atoms: C_3  and  N_26
    3  A    between atoms: C_4  and  C_15
    4  A    between atoms: C_9  and  C_12
    5  A    between atoms: O_13  and  C_20
    6  A    between atoms: N_17  and  C_18
                            x       y       z     vdW  Elec       q    Type
                         _______ _______ _______ _____ _____    ______ ____

>  <TORSDO>
F 6

$$$$
=
 OpenBabel11062415453D

 27 28  0  0  1  0  0  0  0  0999 V2000
  185.9580  177.9910  145.4700 C   0  0  0  0  0  0  0  0  0  0  0  0
  186.2090  177.5030  146.6050 O   0  0  0  0  0  0  0  0  0  0  0  0
  186.8760  177.8060  144.3870 N   0  0  0  0  0  2  0  0  0  0  0  0
  188.0820  176.9990  144.4990 C   0  0  2  0  0  3  0  0  0  0  0  0
  190.1320  178.1150  143.9900 C   0  0  0  0  0  0  0  0  0  0  0  0
  189.8650  177.4230  142.7370 C   0  0  0  0  0  0  0  0  0  0  0  0
  189.2200  177.8760  144.9160 C   0  0  0  0  0  3  0  0  0  0  0  0
  190.5120  177.6980  141.6390 N   0  0  0  0  0  0  0  0  0  0  0  0
  188.4940  176.2790  142.8650 S   0  0  0  0  0  0  0  0  0  0  0  0
  192.4310  178.4990  144.4660 O   0  0  0  0  0  1  0  0  0  0  0  0
  191.2920  178.9890  144.2450 C   0  0  0  0  0  0  0  0  0  0  0  0
  191.1380  180.3710  144.2480 O   0  0  0  0  0  0  0  0  0  0  0  0
  189.5160  177.8630  139.3340 C   0  0  0  0  0  1  0  0  0  0  0  0
  190.3170  177.1190  140.3410 C   0  0  0  0  0  0  0  0  0  0  0  0
  190.8130  176.0040  140.0300 O   0  0  0  0  0  0  0  0  0  0  0  0
  184.7720  178.7110  145.2840 O   0  0  0  0  0  0  0  0  0  0  0  0
  182.0900  179.2240  142.8040 N   0  0  0  0  0  2  0  0  0  0  0  0
  184.6370  177.9260  142.9950 C   0  0  0  0  0  2  0  0  0  0  0  0
  182.7060  179.0270  144.1120 C   0  0  0  0  0  2  0  0  0  0  0  0
  184.0520  178.1390  141.5930 C   0  0  1  0  0  3  0  0  0  0  0  0
  184.2270  179.0100  144.0010 C   0  0  1  0  0  0  0  0  0  0  0  0
  184.6680  180.2580  143.5920 F   0  0  0  0  0  0  0  0  0  0  0  0
  181.9340  178.6450  140.5310 N   0  0  0  0  0  2  0  0  0  0  0  0
  182.6270  178.6280  141.6210 C   0  0  0  0  0  0  0  0  0  0  0  0
  186.3420  179.0260  141.0160 N   0  0  0  0  0  1  0  0  0  0  0  0
  184.9440  179.0100  140.7590 C   0  0  0  0  0  0  0  0  0  0  0  0
  184.4690  179.7500  139.8580 O   0  0  0  0  0  0  0  0  0  0  0  0
  1  2  2  0  0  0  0
  3  1  1  0  0  0  0
  4  3  1  6  0  0  0
  4  7  1  0  0  0  0
  5 11  1  0  0  0  0
  5  7  2  0  0  0  0
  6  9  1  0  0  0  0
  6  5  1  0  0  0  0
  8  6  2  0  0  0  0
  9  4  1  0  0  0  0
 11 12  2  0  0  0  0
 11 10  1  0  0  0  0
 13 14  1  0  0  0  0
 14  8  1  0  0  0  0
 15 14  2  0  0  0  0
 16  1  1  0  0  0  0
 17 19  1  0  0  0  0
 18 21  1  0  0  0  0
 20 26  1  1  0  0  0
 20 24  1  0  0  0  0
 20 18  1  0  0  0  0
 21 22  1  6  0  0  0
 21 19  1  0  0  0  0
 21 16  1  0  0  0  0
 23 24  2  0  0  0  0
 24 17  1  0  0  0  0
 26 25  1  0  0  0  0
 27 26  2  0  0  0  0
M  END
>  <MODEL>
3

>  <REMARK>
 VINA RESULT:      -7.0      4.460      6.527
  Name = 
  6 active torsions:
  status: ('A' for Active; 'I' for Inactive)
    1  A    between atoms: C_2  and  O_13
    2  A    between atoms: C_3  and  N_26
    3  A    between atoms: C_4  and  C_15
    4  A    between atoms: C_9  and  C_12
    5  A    between atoms: O_13  and  C_20
    6  A    between atoms: N_17  and  C_18
                            x       y       z     vdW  Elec       q    Type
                         _______ _______ _______ _____ _____    ______ ____

>  <TORSDO>
F 6

$$$$
=
 OpenBabel11062415453D

 27 28  0  0  1  0  0  0  0  0999 V2000
  190.2080  177.1990  142.6070 C   0  0  0  0  0  0  0  0  0  0  0  0
  191.3750  177.6750  142.6460 O   0  0  0  0  0  0  0  0  0  0  0  0
  189.4280  177.3010  141.4100 N   0  0  0  0  0  2  0  0  0  0  0  0
  189.9430  177.8710  140.1740 C   0  0  2  0  0  3  0  0  0  0  0  0
  188.4870  177.7460  138.2840 C   0  0  0  0  0  0  0  0  0  0  0  0
  189.3630  176.6060  138.0460 C   0  0  0  0  0  0  0  0  0  0  0  0
  188.8030  178.4190  139.3770 C   0  0  0  0  0  3  0  0  0  0  0  0
  189.0880  175.6930  137.1580 N   0  0  0  0  0  0  0  0  0  0  0  0
  190.7470  176.5580  139.1790 S   0  0  0  0  0  0  0  0  0  0  0  0
  187.4110  179.2200  136.7590 O   0  0  0  0  0  0  0  0  0  0  0  0
  187.3640  178.1470  137.4170 C   0  0  0  0  0  0  0  0  0  0  0  0
  186.2330  177.3440  137.3220 O   0  0  0  0  0  1  0  0  0  0  0  0
  190.9720  174.6030  135.8950 C   0  0  0  0  0  1  0  0  0  0  0  0
  189.8430  174.5110  136.8580 C   0  0  0  0  0  0  0  0  0  0  0  0
  189.5810  173.4010  137.3930 O   0  0  0  0  0  0  0  0  0  0  0  0
  189.6900  176.5680  143.7440 O   0  0  0  0  0  0  0  0  0  0  0  0
  189.4770  177.7330  147.2380 N   0  0  0  0  0  2  0  0  0  0  0  0
  187.7570  176.6820  145.2010 C   0  0  0  0  0  2  0  0  0  0  0  0
  190.0540  177.1180  146.0480 C   0  0  0  0  0  2  0  0  0  0  0  0
  187.0960  177.3510  146.4140 C   0  0  1  0  0  3  0  0  0  0  0  0
  189.1280  177.2750  144.8470 C   0  0  1  0  0  0  0  0  0  0  0  0
  189.0190  178.6180  144.5280 F   0  0  0  0  0  0  0  0  0  0  0  0
  187.6410  178.0310  148.6750 N   0  0  0  0  0  2  0  0  0  0  0  0
  188.0760  177.6700  147.5140 C   0  0  0  0  0  0  0  0  0  0  0  0
  185.7550  179.4070  146.9990 N   0  0  0  0  0  1  0  0  0  0  0  0
  186.2840  178.5430  146.0020 C   0  0  0  0  0  0  0  0  0  0  0  0
  186.0390  178.7710  144.7880 O   0  0  0  0  0  0  0  0  0  0  0  0
  1  2  2  0  0  0  0
  1 16  1  0  0  0  0
  3  1  1  0  0  0  0
  4  3  1  1  0  0  0
  5  7  2  0  0  0  0
  6  5  1  0  0  0  0
  6  9  1  0  0  0  0
  7  4  1  0  0  0  0
  8  6  2  0  0  0  0
  9  4  1  0  0  0  0
 10 11  2  0  0  0  0
 11  5  1  0  0  0  0
 12 11  1  0  0  0  0
 13 14  1  0  0  0  0
 14  8  1  0  0  0  0
 14 15  2  0  0  0  0
 16 21  1  0  0  0  0
 17 24  1  0  0  0  0
 18 20  1  0  0  0  0
 19 17  1  0  0  0  0
 20 26  1  6  0  0  0
 20 24  1  0  0  0  0
 21 22  1  6  0  0  0
 21 18  1  0  0  0  0
 21 19  1  0  0  0  0
 24 23  2  0  0  0  0
 26 25  1  0  0  0  0
 27 26  2  0  0  0  0
M  END
>  <MODEL>
4

>  <REMARK>
 VINA RESULT:      -6.9      2.829      8.892
  Name = 
  6 active torsions:
  status: ('A' for Active; 'I' for Inactive)
    1  A    between atoms: C_2  and  O_13
    2  A    between atoms: C_3  and  N_26
    3  A    between atoms: C_4  and  C_15
    4  A    between atoms: C_9  and  C_12
    5  A    between atoms: O_13  and  C_20
    6  A    between atoms: N_17  and  C_18
                            x       y       z     vdW  Elec       q    Type
                         _______ _______ _______ _____ _____    ______ ____

>  <TORSDO>
F 6

$$$$
=
 OpenBabel11062415453D

 27 28  0  0  1  0  0  0  0  0999 V2000
  185.5610  178.2350  144.4420 C   0  0  0  0  0  0  0  0  0  0  0  0
  185.5920  179.3090  145.1010 O   0  0  0  0  0  0  0  0  0  0  0  0
  184.6460  178.0850  143.3520 N   0  0  0  0  0  2  0  0  0  0  0  0
  183.7740  179.1570  142.8940 C   0  0  2  0  0  3  0  0  0  0  0  0
  181.4290  178.7370  143.0650 C   0  0  0  0  0  0  0  0  0  0  0  0
  181.6730  178.4270  141.6630 C   0  0  0  0  0  0  0  0  0  0  0  0
  182.5150  179.1400  143.7010 C   0  0  0  0  0  3  0  0  0  0  0  0
  180.7960  177.8070  140.9250 N   0  0  0  0  0  0  0  0  0  0  0  0
  183.3240  178.8790  141.1400 S   0  0  0  0  0  0  0  0  0  0  0  0
  179.7450  177.5470  144.2500 O   0  0  0  0  0  1  0  0  0  0  0  0
  180.1210  178.6350  143.7400 C   0  0  0  0  0  0  0  0  0  0  0  0
  179.2860  179.7440  143.8140 O   0  0  0  0  0  0  0  0  0  0  0  0
  181.3720  176.0270  139.2410 C   0  0  0  0  0  1  0  0  0  0  0  0
  180.9310  177.4120  139.5520 C   0  0  0  0  0  0  0  0  0  0  0  0
  180.6780  178.2040  138.6060 O   0  0  0  0  0  0  0  0  0  0  0  0
  186.4340  177.1960  144.7880 O   0  0  0  0  0  0  0  0  0  0  0  0
  190.0970  177.5570  145.0480 N   0  0  0  0  0  2  0  0  0  0  0  0
  187.9990  178.1000  143.1730 C   0  0  0  0  0  2  0  0  0  0  0  0
  188.7050  177.5140  145.4850 C   0  0  0  0  0  2  0  0  0  0  0  0
  189.4420  178.1230  142.6520 C   0  0  1  0  0  3  0  0  0  0  0  0
  187.7840  177.1200  144.3350 C   0  0  1  0  0  0  0  0  0  0  0  0
  188.0680  175.8210  143.9470 F   0  0  0  0  0  0  0  0  0  0  0  0
  191.7090  178.2660  143.4930 N   0  0  0  0  0  2  0  0  0  0  0  0
  190.4650  178.0410  143.7550 C   0  0  0  0  0  0  0  0  0  0  0  0
  189.1480  177.3100  140.2810 N   0  0  0  0  0  1  0  0  0  0  0  0
  189.6530  177.0840  141.5910 C   0  0  0  0  0  0  0  0  0  0  0  0
  190.2410  176.0020  141.8520 O   0  0  0  0  0  0  0  0  0  0  0  0
  1 16  1  0  0  0  0
  1  2  2  0  0  0  0
  3  1  1  0  0  0  0
  4  3  1  1  0  0  0
  4  7  1  0  0  0  0
  5  7  2  0  0  0  0
  5 11  1  0  0  0  0
  6  5  1  0  0  0  0
  8  6  2  0  0  0  0
  9  6  1  0  0  0  0
  9  4  1  0  0  0  0
 11 12  2  0  0  0  0
 11 10  1  0  0  0  0
 13 14  1  0  0  0  0
 14  8  1  0  0  0  0
 15 14  2  0  0  0  0
 17 19  1  0  0  0  0
 18 21  1  0  0  0  0
 20 26  1  6  0  0  0
 20 18  1  0  0  0  0
 20 24  1  0  0  0  0
 21 22  1  6  0  0  0
 21 16  1  0  0  0  0
 21 19  1  0  0  0  0
 23 24  2  0  0  0  0
 24 17  1  0  0  0  0
 25 26  1  0  0  0  0
 26 27  2  0  0  0  0
M  END
>  <MODEL>
5

>  <REMARK>
 VINA RESULT:      -6.9      5.664      8.637
  Name = 
  6 active torsions:
  status: ('A' for Active; 'I' for Inactive)
    1  A    between atoms: C_2  and  O_13
    2  A    between atoms: C_3  and  N_26
    3  A    between atoms: C_4  and  C_15
    4  A    between atoms: C_9  and  C_12
    5  A    between atoms: O_13  and  C_20
    6  A    between atoms: N_17  and  C_18
                            x       y       z     vdW  Elec       q    Type
                         _______ _______ _______ _____ _____    ______ ____

>  <TORSDO>
F 6

$$$$
=
 OpenBabel11062415453D

 27 28  0  0  1  0  0  0  0  0999 V2000
  187.2160  178.3520  141.7700 C   0  0  0  0  0  0  0  0  0  0  0  0
  186.4150  179.2510  141.3960 O   0  0  0  0  0  0  0  0  0  0  0  0
  188.1850  177.8260  140.8570 N   0  0  0  0  0  2  0  0  0  0  0  0
  188.3590  178.3350  139.5050 C   0  0  2  0  0  3  0  0  0  0  0  0
  187.7270  176.8490  137.7440 C   0  0  0  0  0  0  0  0  0  0  0  0
  189.1690  176.6490  137.7830 C   0  0  0  0  0  0  0  0  0  0  0  0
  187.3060  177.7440  138.6220 C   0  0  0  0  0  3  0  0  0  0  0  0
  189.7500  175.6600  137.1640 N   0  0  0  0  0  0  0  0  0  0  0  0
  189.9940  177.8180  138.8580 S   0  0  0  0  0  0  0  0  0  0  0  0
  186.3300  175.0260  137.1270 O   0  0  0  0  0  1  0  0  0  0  0  0
  186.7990  176.1560  136.8310 C   0  0  0  0  0  0  0  0  0  0  0  0
  186.4360  176.7450  135.6250 O   0  0  0  0  0  0  0  0  0  0  0  0
  192.0370  176.0030  136.1710 C   0  0  0  0  0  1  0  0  0  0  0  0
  191.1470  175.3340  137.1560 C   0  0  0  0  0  0  0  0  0  0  0  0
  191.6390  174.5030  137.9640 O   0  0  0  0  0  0  0  0  0  0  0  0
  187.1460  177.8800  143.0860 O   0  0  0  0  0  0  0  0  0  0  0  0
  189.1060  176.9600  146.0730 N   0  0  0  0  0  2  0  0  0  0  0  0
  189.4980  178.2450  143.5420 C   0  0  0  0  0  2  0  0  0  0  0  0
  187.9510  177.3810  145.2870 C   0  0  0  0  0  2  0  0  0  0  0  0
  190.7470  177.7910  144.3090 C   0  0  1  0  0  3  0  0  0  0  0  0
  188.2680  177.3620  143.7960 C   0  0  1  0  0  0  0  0  0  0  0  0
  188.5050  176.0570  143.3970 F   0  0  0  0  0  0  0  0  0  0  0  0
  191.4030  177.1240  146.5440 N   0  0  0  0  0  2  0  0  0  0  0  0
  190.4380  177.3290  145.7100 C   0  0  0  0  0  0  0  0  0  0  0  0
  192.0550  177.1310  142.2550 N   0  0  0  0  0  1  0  0  0  0  0  0
  191.5260  176.7760  143.5260 C   0  0  0  0  0  0  0  0  0  0  0  0
  191.6890  175.6070  143.9630 O   0  0  0  0  0  0  0  0  0  0  0  0
  1 16  1  0  0  0  0
  2  1  2  0  0  0  0
  3  1  1  0  0  0  0
  4  3  1  1  0  0  0
  5  6  1  0  0  0  0
  5  7  2  0  0  0  0
  6  9  1  0  0  0  0
  7  4  1  0  0  0  0
  8  6  2  0  0  0  0
  9  4  1  0  0  0  0
 11 10  1  0  0  0  0
 11  5  1  0  0  0  0
 12 11  2  0  0  0  0
 13 14  1  0  0  0  0
 14  8  1  0  0  0  0
 14 15  2  0  0  0  0
 16 21  1  0  0  0  0
 18 21  1  0  0  0  0
 18 20  1  0  0  0  0
 19 17  1  0  0  0  0
 20 26  1  6  0  0  0
 20 24  1  0  0  0  0
 21 22  1  6  0  0  0
 21 19  1  0  0  0  0
 24 17  1  0  0  0  0
 24 23  2  0  0  0  0
 25 26  1  0  0  0  0
 26 27  2  0  0  0  0
M  END
>  <MODEL>
6

>  <REMARK>
 VINA RESULT:      -6.8      2.877      8.425
  Name = 
  6 active torsions:
  status: ('A' for Active; 'I' for Inactive)
    1  A    between atoms: C_2  and  O_13
    2  A    between atoms: C_3  and  N_26
    3  A    between atoms: C_4  and  C_15
    4  A    between atoms: C_9  and  C_12
    5  A    between atoms: O_13  and  C_20
    6  A    between atoms: N_17  and  C_18
                            x       y       z     vdW  Elec       q    Type
                         _______ _______ _______ _____ _____    ______ ____

>  <TORSDO>
F 6

$$$$
=
 OpenBabel11062415453D

 27 28  0  0  1  0  0  0  0  0999 V2000
  190.3460  176.6330  139.4720 C   0  0  0  0  0  0  0  0  0  0  0  0
  190.3760  177.8000  138.9950 O   0  0  0  0  0  0  0  0  0  0  0  0
  190.5970  176.4180  140.8650 N   0  0  0  0  0  2  0  0  0  0  0  0
  190.8160  177.5040  141.8080 C   0  0  2  0  0  3  0  0  0  0  0  0
  191.0190  176.8660  144.1020 C   0  0  0  0  0  0  0  0  0  0  0  0
  189.6260  177.2860  144.0440 C   0  0  0  0  0  0  0  0  0  0  0  0
  191.6470  177.0020  142.9460 C   0  0  0  0  0  3  0  0  0  0  0  0
  188.7820  177.0250  145.0020 N   0  0  0  0  0  0  0  0  0  0  0  0
  189.2090  178.0640  142.4870 S   0  0  0  0  0  0  0  0  0  0  0  0
  191.8580  177.0800  146.3170 O   0  0  0  0  0  1  0  0  0  0  0  0
  191.7000  176.3490  145.3040 C   0  0  0  0  0  0  0  0  0  0  0  0
  192.1810  175.0450  145.3270 O   0  0  0  0  0  0  0  0  0  0  0  0
  186.8470  178.0520  146.2410 C   0  0  0  0  0  1  0  0  0  0  0  0
  187.3840  177.3480  145.0480 C   0  0  0  0  0  0  0  0  0  0  0  0
  186.6050  177.0570  144.1020 O   0  0  0  0  0  0  0  0  0  0  0  0
  190.0610  175.5560  138.6240 O   0  0  0  0  0  0  0  0  0  0  0  0
  191.3810  173.3270  135.9970 N   0  0  0  0  0  2  0  0  0  0  0  0
  192.3530  175.2280  137.9070 C   0  0  0  0  0  2  0  0  0  0  0  0
  190.5080  173.7850  137.0730 C   0  0  0  0  0  2  0  0  0  0  0  0
  193.3020  174.8090  136.7760 C   0  0  1  0  0  3  0  0  0  0  0  0
  190.8720  175.2010  137.5060 C   0  0  1  0  0  0  0  0  0  0  0  0
  190.6250  176.0750  136.4600 F   0  0  0  0  0  0  0  0  0  0  0  0
  193.5460  173.0540  135.1240 N   0  0  0  0  0  2  0  0  0  0  0  0
  192.7710  173.6550  135.9650 C   0  0  0  0  0  0  0  0  0  0  0  0
  193.1120  176.1270  134.6330 N   0  0  0  0  0  1  0  0  0  0  0  0
  193.6860  175.9830  135.9260 C   0  0  0  0  0  0  0  0  0  0  0  0
  194.5320  176.8250  136.3280 O   0  0  0  0  0  0  0  0  0  0  0  0
  1  3  1  0  0  0  0
  2  1  2  0  0  0  0
  4  3  1  6  0  0  0
  4  9  1  0  0  0  0
  4  7  1  0  0  0  0
  5 11  1  0  0  0  0
  6  5  1  0  0  0  0
  6  8  2  0  0  0  0
  7  5  2  0  0  0  0
  8 14  1  0  0  0  0
  9  6  1  0  0  0  0
 11 12  2  0  0  0  0
 11 10  1  0  0  0  0
 14 13  1  0  0  0  0
 15 14  2  0  0  0  0
 16  1  1  0  0  0  0
 17 19  1  0  0  0  0
 19 21  1  0  0  0  0
 20 26  1  6  0  0  0
 20 18  1  0  0  0  0
 21 22  1  6  0  0  0
 21 18  1  0  0  0  0
 21 16  1  0  0  0  0
 23 24  2  0  0  0  0
 24 17  1  0  0  0  0
 24 20  1  0  0  0  0
 25 26  1  0  0  0  0
 26 27  2  0  0  0  0
M  END
>  <MODEL>
7

>  <REMARK>
 VINA RESULT:      -6.5      2.734      3.638
  Name = 
  6 active torsions:
  status: ('A' for Active; 'I' for Inactive)
    1  A    between atoms: C_2  and  O_13
    2  A    between atoms: C_3  and  N_26
    3  A    between atoms: C_4  and  C_15
    4  A    between atoms: C_9  and  C_12
    5  A    between atoms: O_13  and  C_20
    6  A    between atoms: N_17  and  C_18
                            x       y       z     vdW  Elec       q    Type
                         _______ _______ _______ _____ _____    ______ ____

>  <TORSDO>
F 6

$$$$
=
 OpenBabel11062415453D

 27 28  0  0  1  0  0  0  0  0999 V2000
  189.4260  176.7920  141.4260 C   0  0  0  0  0  0  0  0  0  0  0  0
  188.4810  177.4440  140.9040 O   0  0  0  0  0  0  0  0  0  0  0  0
  190.5970  176.4850  140.6620 N   0  0  0  0  0  2  0  0  0  0  0  0
  190.8020  176.9580  139.3010 C   0  0  2  0  0  3  0  0  0  0  0  0
  190.8000  175.2780  137.6030 C   0  0  0  0  0  0  0  0  0  0  0  0
  192.2280  175.4680  137.8140 C   0  0  0  0  0  0  0  0  0  0  0  0
  190.0570  176.0690  138.3570 C   0  0  0  0  0  3  0  0  0  0  0  0
  193.1160  174.6410  137.3410 N   0  0  0  0  0  0  0  0  0  0  0  0
  192.5830  176.8630  138.8780 S   0  0  0  0  0  0  0  0  0  0  0  0
  190.4590  174.4000  135.4190 O   0  0  0  0  0  0  0  0  0  0  0  0
  190.2030  174.3230  136.6500 C   0  0  0  0  0  0  0  0  0  0  0  0
  189.3450  173.3280  137.1040 O   0  0  0  0  0  1  0  0  0  0  0  0
  195.1900  173.7420  138.4470 C   0  0  0  0  0  1  0  0  0  0  0  0
  194.5400  174.6960  137.5110 C   0  0  0  0  0  0  0  0  0  0  0  0
  195.2530  175.5230  136.8830 O   0  0  0  0  0  0  0  0  0  0  0  0
  189.3150  176.3790  142.7590 O   0  0  0  0  0  0  0  0  0  0  0  0
  188.9330  177.8450  146.1230 N   0  0  0  0  0  2  0  0  0  0  0  0
  187.3290  176.5420  144.1380 C   0  0  0  0  0  2  0  0  0  0  0  0
  189.5760  177.1500  145.0130 C   0  0  0  0  0  2  0  0  0  0  0  0
  186.5990  177.2890  145.2630 C   0  0  1  0  0  3  0  0  0  0  0  0
  188.6870  177.1580  143.7740 C   0  0  1  0  0  0  0  0  0  0  0  0
  188.5370  178.4610  143.3290 F   0  0  0  0  0  0  0  0  0  0  0  0
  187.0370  178.1940  147.4670 N   0  0  0  0  0  2  0  0  0  0  0  0
  187.5270  177.7470  146.3590 C   0  0  0  0  0  0  0  0  0  0  0  0
  185.3930  178.3960  143.3430 N   0  0  0  0  0  1  0  0  0  0  0  0
  185.7570  178.4040  144.7170 C   0  0  0  0  0  0  0  0  0  0  0  0
  185.3940  179.3610  145.4510 O   0  0  0  0  0  0  0  0  0  0  0  0
  1 16  1  0  0  0  0
  2  1  2  0  0  0  0
  3  1  1  0  0  0  0
  4  3  1  1  0  0  0
  5  6  1  0  0  0  0
  5  7  2  0  0  0  0
  6  9  1  0  0  0  0
  7  4  1  0  0  0  0
  8 14  1  0  0  0  0
  8  6  2  0  0  0  0
  9  4  1  0  0  0  0
 10 11  2  0  0  0  0
 11 12  1  0  0  0  0
 11  5  1  0  0  0  0
 14 13  1  0  0  0  0
 15 14  2  0  0  0  0
 16 21  1  0  0  0  0
 17 24  1  0  0  0  0
 18 20  1  0  0  0  0
 19 17  1  0  0  0  0
 20 26  1  6  0  0  0
 20 24  1  0  0  0  0
 21 22  1  6  0  0  0
 21 18  1  0  0  0  0
 21 19  1  0  0  0  0
 24 23  2  0  0  0  0
 25 26  1  0  0  0  0
 26 27  2  0  0  0  0
M  END
>  <MODEL>
8

>  <REMARK>
 VINA RESULT:      -6.3      3.542      8.636
  Name = 
  6 active torsions:
  status: ('A' for Active; 'I' for Inactive)
    1  A    between atoms: C_2  and  O_13
    2  A    between atoms: C_3  and  N_26
    3  A    between atoms: C_4  and  C_15
    4  A    between atoms: C_9  and  C_12
    5  A    between atoms: O_13  and  C_20
    6  A    between atoms: N_17  and  C_18
                            x       y       z     vdW  Elec       q    Type
                         _______ _______ _______ _____ _____    ______ ____

>  <TORSDO>
F 6

$$$$
=
 OpenBabel11062415453D

 27 28  0  0  1  0  0  0  0  0999 V2000
  189.2030  177.8110  142.2980 C   0  0  0  0  0  0  0  0  0  0  0  0
  189.0640  179.0560  142.1590 O   0  0  0  0  0  0  0  0  0  0  0  0
  189.7020  177.0170  141.2160 N   0  0  0  0  0  2  0  0  0  0  0  0
  190.1440  177.5870  139.9520 C   0  0  2  0  0  3  0  0  0  0  0  0
  188.4930  177.7060  138.2290 C   0  0  0  0  0  0  0  0  0  0  0  0
  189.2080  176.4930  137.8560 C   0  0  0  0  0  0  0  0  0  0  0  0
  188.9930  178.2900  139.3040 C   0  0  0  0  0  3  0  0  0  0  0  0
  188.7430  175.6570  136.9720 N   0  0  0  0  0  0  0  0  0  0  0  0
  190.6900  176.2460  138.8290 S   0  0  0  0  0  0  0  0  0  0  0  0
  187.3430  178.3480  136.2490 O   0  0  0  0  0  0  0  0  0  0  0  0
  187.3350  178.2640  137.5050 C   0  0  0  0  0  0  0  0  0  0  0  0
  186.2220  178.7100  138.2070 O   0  0  0  0  0  1  0  0  0  0  0  0
  188.7030  173.1410  136.9840 C   0  0  0  0  0  1  0  0  0  0  0  0
  189.3280  174.4170  136.5480 C   0  0  0  0  0  0  0  0  0  0  0  0
  190.3500  174.3820  135.8130 O   0  0  0  0  0  0  0  0  0  0  0  0
  188.8670  177.2190  143.5210 O   0  0  0  0  0  0  0  0  0  0  0  0
  191.8090  177.1430  145.7470 N   0  0  0  0  0  2  0  0  0  0  0  0
  188.9990  176.5900  145.8580 C   0  0  0  0  0  2  0  0  0  0  0  0
  191.0420  177.0330  144.5100 C   0  0  0  0  0  2  0  0  0  0  0  0
  189.7490  176.7320  147.1900 C   0  0  1  0  0  3  0  0  0  0  0  0
  189.5910  177.4460  144.7290 C   0  0  1  0  0  0  0  0  0  0  0  0
  189.5430  178.7920  145.0500 F   0  0  0  0  0  0  0  0  0  0  0  0
  192.0140  176.7060  148.0470 N   0  0  0  0  0  2  0  0  0  0  0  0
  191.2440  176.8040  147.0150 C   0  0  0  0  0  0  0  0  0  0  0  0
  187.8160  178.1620  147.9540 N   0  0  0  0  0  1  0  0  0  0  0  0
  189.2070  177.8720  148.0000 C   0  0  0  0  0  0  0  0  0  0  0  0
  189.9700  178.5950  148.6930 O   0  0  0  0  0  0  0  0  0  0  0  0
  1 16  1  0  0  0  0
  2  1  2  0  0  0  0
  3  1  1  0  0  0  0
  4  3  1  1  0  0  0
  5  7  2  0  0  0  0
  6  5  1  0  0  0  0
  6  9  1  0  0  0  0
  7  4  1  0  0  0  0
  8  6  2  0  0  0  0
  9  4  1  0  0  0  0
 10 11  2  0  0  0  0
 11 12  1  0  0  0  0
 11  5  1  0  0  0  0
 14  8  1  0  0  0  0
 14 13  1  0  0  0  0
 15 14  2  0  0  0  0
 16 21  1  0  0  0  0
 17 24  1  0  0  0  0
 18 20  1  0  0  0  0
 19 21  1  0  0  0  0
 19 17  1  0  0  0  0
 20 26  1  6  0  0  0
 21 22  1  1  0  0  0
 21 18  1  0  0  0  0
 24 20  1  0  0  0  0
 24 23  2  0  0  0  0
 25 26  1  0  0  0  0
 26 27  2  0  0  0  0
M  END
>  <MODEL>
9

>  <REMARK>
 VINA RESULT:      -6.3      2.942      9.206
  Name = 
  6 active torsions:
  status: ('A' for Active; 'I' for Inactive)
    1  A    between atoms: C_2  and  O_13
    2  A    between atoms: C_3  and  N_26
    3  A    between atoms: C_4  and  C_15
    4  A    between atoms: C_9  and  C_12
    5  A    between atoms: O_13  and  C_20
    6  A    between atoms: N_17  and  C_18
                            x       y       z     vdW  Elec       q    Type
                         _______ _______ _______ _____ _____    ______ ____

>  <TORSDO>
F 6

$$$$
