=
 OpenBabel11062412043D

 48 54  0  0  1  0  0  0  0  0999 V2000
  184.6970  178.9800  141.1970 C   0  0  2  0  0  3  0  0  0  0  0  0
  182.8410  178.7430  145.0810 C   0  0  0  0  0  3  0  0  0  0  0  0
  180.7080  177.9150  144.1170 C   0  0  0  0  0  1  0  0  0  0  0  0
  181.7810  178.6470  141.4090 C   0  0  2  0  0  3  0  0  0  0  0  0
  182.6230  178.6980  142.6590 C   0  0  0  0  0  0  0  0  0  0  0  0
  184.9160  179.4880  146.1250 N   0  0  0  0  0  1  0  0  0  0  0  0
  184.1530  179.1990  144.9600 C   0  0  0  0  0  0  0  0  0  0  0  0
  183.9890  179.0430  142.5420 C   0  0  0  0  0  0  0  0  0  0  0  0
  184.7340  179.3150  143.6970 C   0  0  0  0  0  3  0  0  0  0  0  0
  183.7980  178.8450  140.0420 N   0  0  0  0  0  2  0  0  0  0  0  0
  182.0760  178.4820  143.9390 C   0  0  0  0  0  0  0  0  0  0  0  0
  182.6710  177.9680  140.3500 C   0  0  2  0  0  3  0  0  0  0  0  0
  182.0220  177.4680  139.0460 C   0  0  2  0  0  3  0  0  0  0  0  0
  181.2640  176.3040  139.2700 O   0  0  0  0  0  0  0  0  0  0  0  0
  182.5020  176.1370  138.6120 C   0  0  0  0  0  2  0  0  0  0  0  0
  185.7500  177.8720  141.1630 C   0  0  0  0  0  2  0  0  0  0  0  0
  186.8000  178.1840  140.1050 C   0  0  0  0  0  2  0  0  0  0  0  0
  190.5250  176.1670  141.7680 N   0  0  0  0  0  0  0  0  0  0  0  0
  189.5850  177.0500  141.6080 C   0  0  0  0  0  0  0  0  0  0  0  0
  189.3330  177.7410  140.3460 C   0  0  2  0  0  3  0  0  0  0  0  0
  188.0200  178.6940  142.1380 O   0  0  0  0  0  0  0  0  0  0  0  0
  188.1320  178.6250  140.7250 C   0  0  2  0  0  3  0  0  0  0  0  0
  188.7450  177.6120  142.6890 C   0  0  1  0  0  3  0  0  0  0  0  0
  189.1340  177.3700  137.8550 C   0  0  0  0  0  0  0  0  0  0  0  0
  188.3050  176.6800  136.7920 C   0  0  0  0  0  1  0  0  0  0  0  0
  189.3720  178.8640  137.6960 C   0  0  0  0  0  1  0  0  0  0  0  0
  189.0790  176.7570  139.1930 C   0  0  1  0  0  3  0  0  0  0  0  0
  190.6560  176.4470  138.2790 S   0  0  0  0  0  0  0  0  0  0  0  0
  190.8200  175.5600  143.0250 C   0  0  0  0  0  3  0  0  0  0  0  0
  191.6920  176.0660  143.7760 O   0  0  0  0  0  0  0  0  0  0  0  0
  187.8560  176.6410  143.1680 O   0  0  0  0  0  0  0  0  0  0  0  0
  187.4570  177.1100  144.4250 C   0  0  0  0  0  2  0  0  0  0  0  0
  188.6300  177.0770  145.3870 C   0  0  0  0  0  2  0  0  0  0  0  0
  188.4950  178.0970  146.3350 O   0  0  0  0  0  1  0  0  0  0  0  0
  181.5220  179.9750  140.9910 O   0  0  0  0  0  0  0  0  0  0  0  0
  179.8160  180.9860  142.2230 O   0  0  0  0  0  1  0  0  0  0  0  0
  180.3260  180.6590  138.5460 C   0  0  2  0  0  3  0  0  0  0  0  0
  180.1410  180.2990  141.0510 C   0  0  2  0  0  0  0  0  0  0  0  0
  178.9590  178.9580  139.5180 O   0  0  0  0  0  0  0  0  0  0  0  0
  179.2400  179.0910  140.8840 C   0  0  0  0  0  2  0  0  0  0  0  0
  178.9310  180.2670  139.0030 C   0  0  1  0  0  3  0  0  0  0  0  0
  179.7790  181.1710  139.8740 C   0  0  2  0  0  3  0  0  0  0  0  0
  181.9630  185.0290  137.0970 O   0  0  0  0  0  0  0  0  0  0  0  0
  181.1930  184.0650  136.8330 C   0  0  0  0  0  0  0  0  0  0  0  0
  180.3110  181.7760  137.5460 C   0  0  0  0  0  0  0  0  0  0  0  0
  181.1410  182.9370  137.7200 N   0  0  0  0  0  2  0  0  0  0  0  0
  180.3620  184.1340  135.6790 N   0  0  0  0  0  1  0  0  0  0  0  0
  179.5360  181.6820  136.5550 O   0  0  0  0  0  0  0  0  0  0  0  0
  1 16  1  1  0  0  0
  1  8  1  0  0  0  0
  4 35  1  6  0  0  0
  4  5  1  0  0  0  0
  5 11  1  0  0  0  0
  7  2  1  0  0  0  0
  7  6  1  0  0  0  0
  8  5  2  0  0  0  0
  8  9  1  0  0  0  0
  9  7  2  0  0  0  0
 10  1  1  0  0  0  0
 11  3  1  0  0  0  0
 11  2  2  0  0  0  0
 12 10  1  6  0  0  0
 12  4  1  0  0  0  0
 13 15  1  6  0  0  0
 13 14  1  0  0  0  0
 13 12  1  0  0  0  0
 15 14  1  0  0  0  0
 17 16  1  0  0  0  0
 18 29  1  0  0  0  0
 19 18  2  0  0  0  0
 19 23  1  0  0  0  0
 20 22  1  0  0  0  0
 20 19  1  1  0  0  0
 21 23  1  0  0  0  0
 22 17  1  6  0  0  0
 22 21  1  0  0  0  0
 23 31  1  6  0  0  0
 24 28  1  0  0  0  0
 24 27  1  0  0  0  0
 25 24  1  0  0  0  0
 26 24  1  0  0  0  0
 27 28  1  6  0  0  0
 27 20  1  0  0  0  0
 29 30  2  0  0  0  0
 31 32  1  0  0  0  0
 32 33  1  0  0  0  0
 33 34  1  0  0  0  0
 35 38  1  0  0  0  0
 37 45  1  6  0  0  0
 37 41  1  0  0  0  0
 37 42  1  0  0  0  0
 38 36  1  1  0  0  0
 39 40  1  0  0  0  0
 40 38  1  0  0  0  0
 41 39  1  1  0  0  0
 41 42  1  0  0  0  0
 42 38  1  0  0  0  0
 44 43  2  0  0  0  0
 44 46  1  0  0  0  0
 45 46  1  0  0  0  0
 47 44  1  0  0  0  0
 48 45  2  0  0  0  0
M  END
>  <MODEL>
1

>  <REMARK>
 VINA RESULT:      -7.5      0.000      0.000
  Name = 
  12 active torsions:
  status: ('A' for Active; 'I' for Inactive)
    1  A    between atoms: N_1  and  C_14
    2  A    between atoms: C_2  and  C_34
    3  A    between atoms: C_8  and  C_45
    4  A    between atoms: C_9  and  O_48
    5  A    between atoms: C_11  and  C_28
    6  A    between atoms: C_17  and  O_48
    7  A    between atoms: O_21  and  C_35
    8  A    between atoms: O_21  and  C_44
    9  A    between atoms: C_24  and  C_35
   10  A    between atoms: C_27  and  C_29
   11  A    between atoms: C_33  and  C_34
   12  A    between atoms: C_33  and  C_39
                            x       y       z     vdW  Elec       q    Type
                         _______ _______ _______ _____ _____    ______ ____

>  <TORSDO>
F 12

$$$$
=
 OpenBabel11062412043D

 48 54  0  0  1  0  0  0  0  0999 V2000
  183.7060  178.4270  142.7290 C   0  0  2  0  0  3  0  0  0  0  0  0
  183.8570  179.3190  138.5140 C   0  0  0  0  0  3  0  0  0  0  0  0
  181.4180  179.7770  138.4260 C   0  0  0  0  0  1  0  0  0  0  0  0
  181.2120  178.5870  141.1750 C   0  0  2  0  0  3  0  0  0  0  0  0
  182.5340  178.8520  140.5010 C   0  0  0  0  0  0  0  0  0  0  0  0
  186.2690  178.9540  138.5170 N   0  0  0  0  0  1  0  0  0  0  0  0
  185.0170  178.9430  139.1900 C   0  0  0  0  0  0  0  0  0  0  0  0
  183.7250  178.5900  141.2170 C   0  0  0  0  0  0  0  0  0  0  0  0
  184.9540  178.6130  140.5450 C   0  0  0  0  0  3  0  0  0  0  0  0
  182.3650  178.2590  143.3060 N   0  0  0  0  0  2  0  0  0  0  0  0
  182.6180  179.2850  139.1630 C   0  0  0  0  0  0  0  0  0  0  0  0
  181.3850  179.0970  142.6190 C   0  0  2  0  0  3  0  0  0  0  0  0
  180.1330  179.2720  143.4980 C   0  0  2  0  0  3  0  0  0  0  0  0
  178.9580  179.1950  142.7300 O   0  0  0  0  0  0  0  0  0  0  0  0
  179.3400  180.4800  143.1740 C   0  0  0  0  0  2  0  0  0  0  0  0
  184.4280  179.5770  143.4310 C   0  0  0  0  0  2  0  0  0  0  0  0
  185.9210  179.2850  143.5080 C   0  0  0  0  0  2  0  0  0  0  0  0
  189.4190  176.6490  144.7390 N   0  0  0  0  0  0  0  0  0  0  0  0
  188.3470  177.0400  144.1180 C   0  0  0  0  0  0  0  0  0  0  0  0
  187.1000  177.3850  144.7980 C   0  0  2  0  0  3  0  0  0  0  0  0
  186.7930  177.3110  142.4020 O   0  0  0  0  0  0  0  0  0  0  0  0
  186.2120  177.7830  143.6070 C   0  0  2  0  0  3  0  0  0  0  0  0
  188.1590  177.0400  142.6500 C   0  0  1  0  0  3  0  0  0  0  0  0
  186.1940  178.6200  146.8070 C   0  0  0  0  0  0  0  0  0  0  0  0
  186.0220  179.9990  147.4100 C   0  0  0  0  0  1  0  0  0  0  0  0
  184.9510  177.7540  146.6760 C   0  0  0  0  0  1  0  0  0  0  0  0
  187.3070  178.4850  145.8520 C   0  0  1  0  0  3  0  0  0  0  0  0
  187.6240  177.7140  147.5030 S   0  0  0  0  0  0  0  0  0  0  0  0
  190.6040  176.2310  144.0620 C   0  0  0  0  0  3  0  0  0  0  0  0
  191.5770  177.0200  143.9590 O   0  0  0  0  0  0  0  0  0  0  0  0
  188.9540  178.0290  142.0590 O   0  0  0  0  0  0  0  0  0  0  0  0
  189.0380  177.6630  140.7100 C   0  0  0  0  0  2  0  0  0  0  0  0
  190.4730  177.3220  140.3540 C   0  0  0  0  0  2  0  0  0  0  0  0
  190.5190  176.0890  139.6960 O   0  0  0  0  0  1  0  0  0  0  0  0
  181.0060  177.1870  141.2180 O   0  0  0  0  0  0  0  0  0  0  0  0
  179.1050  177.8270  140.0230 O   0  0  0  0  0  1  0  0  0  0  0  0
  181.6860  175.2340  139.3210 C   0  0  2  0  0  3  0  0  0  0  0  0
  179.9540  176.7700  140.3590 C   0  0  2  0  0  0  0  0  0  0  0  0
  179.7470  174.4280  140.4600 O   0  0  0  0  0  0  0  0  0  0  0  0
  179.1550  175.6110  140.9180 C   0  0  0  0  0  2  0  0  0  0  0  0
  180.2610  174.7240  139.1840 C   0  0  1  0  0  3  0  0  0  0  0  0
  180.5390  176.2100  139.0850 C   0  0  2  0  0  3  0  0  0  0  0  0
  185.5720  176.4460  136.6190 O   0  0  0  0  0  0  0  0  0  0  0  0
  184.5180  175.7560  136.6770 C   0  0  0  0  0  0  0  0  0  0  0  0
  182.4730  175.0860  138.0540 C   0  0  0  0  0  0  0  0  0  0  0  0
  183.6970  175.8130  137.8530 N   0  0  0  0  0  2  0  0  0  0  0  0
  184.1440  174.9610  135.5560 N   0  0  0  0  0  1  0  0  0  0  0  0
  182.0250  174.3220  137.1560 O   0  0  0  0  0  0  0  0  0  0  0  0
  1 10  1  0  0  0  0
  1 16  1  1  0  0  0
  2 11  2  0  0  0  0
  2  7  1  0  0  0  0
  3 11  1  0  0  0  0
  4 35  1  1  0  0  0
  4 12  1  0  0  0  0
  5  4  1  0  0  0  0
  5  8  2  0  0  0  0
  6  7  1  0  0  0  0
  7  9  2  0  0  0  0
  8  1  1  0  0  0  0
  9  8  1  0  0  0  0
 11  5  1  0  0  0  0
 12 10  1  1  0  0  0
 12 13  1  0  0  0  0
 13 15  1  6  0  0  0
 14 15  1  0  0  0  0
 14 13  1  0  0  0  0
 16 17  1  0  0  0  0
 19 18  2  0  0  0  0
 20 19  1  6  0  0  0
 20 27  1  0  0  0  0
 21 23  1  0  0  0  0
 21 22  1  0  0  0  0
 22 17  1  6  0  0  0
 22 20  1  0  0  0  0
 23 31  1  6  0  0  0
 23 19  1  0  0  0  0
 24 25  1  0  0  0  0
 24 28  1  0  0  0  0
 26 24  1  0  0  0  0
 27 24  1  0  0  0  0
 27 28  1  1  0  0  0
 29 18  1  0  0  0  0
 30 29  2  0  0  0  0
 32 31  1  0  0  0  0
 33 32  1  0  0  0  0
 34 33  1  0  0  0  0
 37 45  1  6  0  0  0
 38 36  1  6  0  0  0
 38 40  1  0  0  0  0
 38 35  1  0  0  0  0
 39 40  1  0  0  0  0
 41 37  1  0  0  0  0
 41 39  1  1  0  0  0
 42 41  1  0  0  0  0
 42 37  1  0  0  0  0
 42 38  1  0  0  0  0
 43 44  2  0  0  0  0
 44 46  1  0  0  0  0
 46 45  1  0  0  0  0
 47 44  1  0  0  0  0
 48 45  2  0  0  0  0
M  END
>  <MODEL>
2

>  <REMARK>
 VINA RESULT:      -6.7      3.232      5.759
  Name = 
  12 active torsions:
  status: ('A' for Active; 'I' for Inactive)
    1  A    between atoms: N_1  and  C_14
    2  A    between atoms: C_2  and  C_34
    3  A    between atoms: C_8  and  C_45
    4  A    between atoms: C_9  and  O_48
    5  A    between atoms: C_11  and  C_28
    6  A    between atoms: C_17  and  O_48
    7  A    between atoms: O_21  and  C_35
    8  A    between atoms: O_21  and  C_44
    9  A    between atoms: C_24  and  C_35
   10  A    between atoms: C_27  and  C_29
   11  A    between atoms: C_33  and  C_34
   12  A    between atoms: C_33  and  C_39
                            x       y       z     vdW  Elec       q    Type
                         _______ _______ _______ _____ _____    ______ ____

>  <TORSDO>
F 12

$$$$
=
 OpenBabel11062412043D

 48 54  0  0  1  0  0  0  0  0999 V2000
  188.2660  177.4890  140.4410 C   0  0  2  0  0  3  0  0  0  0  0  0
  192.2480  176.9970  142.0190 C   0  0  0  0  0  3  0  0  0  0  0  0
  193.2820  177.4240  139.8020 C   0  0  0  0  0  1  0  0  0  0  0  0
  190.5410  177.1680  138.6020 C   0  0  2  0  0  3  0  0  0  0  0  0
  190.7780  177.1950  140.0910 C   0  0  0  0  0  0  0  0  0  0  0  0
  191.3260  176.6300  144.2470 N   0  0  0  0  0  1  0  0  0  0  0  0
  191.1420  176.8450  142.8540 C   0  0  0  0  0  0  0  0  0  0  0  0
  189.6600  177.1630  140.9560 C   0  0  0  0  0  0  0  0  0  0  0  0
  189.8540  176.9620  142.3290 C   0  0  0  0  0  3  0  0  0  0  0  0
  188.1510  177.5240  138.9770 N   0  0  0  0  0  2  0  0  0  0  0  0
  192.0740  177.1810  140.6430 C   0  0  0  0  0  0  0  0  0  0  0  0
  189.3430  178.1090  138.3670 C   0  0  2  0  0  3  0  0  0  0  0  0
  189.0300  178.5650  136.9300 C   0  0  2  0  0  3  0  0  0  0  0  0
  187.8050  179.2530  136.8710 O   0  0  0  0  0  0  0  0  0  0  0  0
  187.8170  177.9390  136.3560 C   0  0  0  0  0  2  0  0  0  0  0  0
  187.7370  178.7960  141.0300 C   0  0  0  0  0  2  0  0  0  0  0  0
  186.4440  178.5370  141.7930 C   0  0  0  0  0  2  0  0  0  0  0  0
  181.9540  178.2160  141.1290 N   0  0  0  0  0  0  0  0  0  0  0  0
  183.1830  178.6120  140.9820 C   0  0  0  0  0  0  0  0  0  0  0  0
  183.9670  179.2230  142.0520 C   0  0  2  0  0  3  0  0  0  0  0  0
  185.1240  179.3640  139.9350 O   0  0  0  0  0  0  0  0  0  0  0  0
  185.3080  179.4630  141.3380 C   0  0  2  0  0  3  0  0  0  0  0  0
  183.9170  178.6650  139.6990 C   0  0  1  0  0  3  0  0  0  0  0  0
  184.4760  179.0170  144.5180 C   0  0  0  0  0  0  0  0  0  0  0  0
  185.1670  178.1470  145.5480 C   0  0  0  0  0  1  0  0  0  0  0  0
  184.8520  180.4900  144.4800 C   0  0  0  0  0  1  0  0  0  0  0  0
  184.0440  178.3200  143.2950 C   0  0  1  0  0  3  0  0  0  0  0  0
  182.6680  178.7410  144.4550 S   0  0  0  0  0  0  0  0  0  0  0  0
  181.1670  177.7000  140.0560 C   0  0  0  0  0  3  0  0  0  0  0  0
  180.9180  176.4690  139.9970 O   0  0  0  0  0  0  0  0  0  0  0  0
  184.2000  177.3700  139.2470 O   0  0  0  0  0  0  0  0  0  0  0  0
  184.5550  177.5290  137.9020 C   0  0  0  0  0  2  0  0  0  0  0  0
  184.4740  176.1950  137.1840 C   0  0  0  0  0  2  0  0  0  0  0  0
  183.7840  175.2710  137.9750 O   0  0  0  0  0  1  0  0  0  0  0  0
  190.1580  175.8560  138.2350 O   0  0  0  0  0  0  0  0  0  0  0  0
  192.1330  174.6150  138.1380 O   0  0  0  0  0  1  0  0  0  0  0  0
  189.1460  174.6530  135.9100 C   0  0  2  0  0  3  0  0  0  0  0  0
  191.1190  175.2280  137.3980 C   0  0  2  0  0  0  0  0  0  0  0  0
  190.9280  176.0850  135.2140 O   0  0  0  0  0  0  0  0  0  0  0  0
  191.7140  176.1680  136.3700 C   0  0  0  0  0  2  0  0  0  0  0  0
  190.4640  174.7570  135.1600 C   0  0  1  0  0  3  0  0  0  0  0  0
  190.4400  174.1740  136.5580 C   0  0  2  0  0  3  0  0  0  0  0  0
  185.1320  171.9100  136.3970 O   0  0  0  0  0  0  0  0  0  0  0  0
  186.2260  172.0570  135.7840 C   0  0  0  0  0  0  0  0  0  0  0  0
  188.3390  173.4630  135.4890 C   0  0  0  0  0  0  0  0  0  0  0  0
  187.0700  173.1740  136.1020 N   0  0  0  0  0  2  0  0  0  0  0  0
  186.6170  171.0890  134.8160 N   0  0  0  0  0  1  0  0  0  0  0  0
  188.8080  172.7050  134.5960 O   0  0  0  0  0  0  0  0  0  0  0  0
  1  8  1  0  0  0  0
  1 16  1  1  0  0  0
  2  7  1  0  0  0  0
  3 11  1  0  0  0  0
  4 35  1  1  0  0  0
  4  5  1  0  0  0  0
  5 11  1  0  0  0  0
  5  8  2  0  0  0  0
  7  6  1  0  0  0  0
  8  9  1  0  0  0  0
  9  7  2  0  0  0  0
 10  1  1  0  0  0  0
 11  2  2  0  0  0  0
 12  4  1  0  0  0  0
 12 10  1  6  0  0  0
 13 15  1  6  0  0  0
 13 12  1  0  0  0  0
 14 13  1  0  0  0  0
 15 14  1  0  0  0  0
 16 17  1  0  0  0  0
 19 18  2  0  0  0  0
 20 19  1  6  0  0  0
 20 27  1  0  0  0  0
 21 22  1  0  0  0  0
 22 17  1  1  0  0  0
 22 20  1  0  0  0  0
 23 31  1  1  0  0  0
 23 21  1  0  0  0  0
 23 19  1  0  0  0  0
 24 25  1  0  0  0  0
 26 24  1  0  0  0  0
 27 28  1  1  0  0  0
 27 24  1  0  0  0  0
 28 24  1  0  0  0  0
 29 18  1  0  0  0  0
 30 29  2  0  0  0  0
 32 31  1  0  0  0  0
 33 32  1  0  0  0  0
 33 34  1  0  0  0  0
 37 45  1  6  0  0  0
 37 42  1  0  0  0  0
 38 36  1  1  0  0  0
 38 35  1  0  0  0  0
 39 40  1  0  0  0  0
 40 38  1  0  0  0  0
 41 39  1  1  0  0  0
 41 37  1  0  0  0  0
 41 42  1  0  0  0  0
 42 38  1  0  0  0  0
 44 46  1  0  0  0  0
 44 43  2  0  0  0  0
 45 46  1  0  0  0  0
 47 44  1  0  0  0  0
 48 45  2  0  0  0  0
M  END
>  <MODEL>
3

>  <REMARK>
 VINA RESULT:      -6.6      3.948      9.543
  Name = 
  12 active torsions:
  status: ('A' for Active; 'I' for Inactive)
    1  A    between atoms: N_1  and  C_14
    2  A    between atoms: C_2  and  C_34
    3  A    between atoms: C_8  and  C_45
    4  A    between atoms: C_9  and  O_48
    5  A    between atoms: C_11  and  C_28
    6  A    between atoms: C_17  and  O_48
    7  A    between atoms: O_21  and  C_35
    8  A    between atoms: O_21  and  C_44
    9  A    between atoms: C_24  and  C_35
   10  A    between atoms: C_27  and  C_29
   11  A    between atoms: C_33  and  C_34
   12  A    between atoms: C_33  and  C_39
                            x       y       z     vdW  Elec       q    Type
                         _______ _______ _______ _____ _____    ______ ____

>  <TORSDO>
F 12

$$$$
=
 OpenBabel11062412043D

 48 54  0  0  1  0  0  0  0  0999 V2000
  188.1000  177.5390  140.3260 C   0  0  2  0  0  3  0  0  0  0  0  0
  190.8770  176.9340  137.0840 C   0  0  0  0  0  3  0  0  0  0  0  0
  189.2060  177.6500  135.3920 C   0  0  0  0  0  1  0  0  0  0  0  0
  187.1230  177.4910  137.5500 C   0  0  2  0  0  3  0  0  0  0  0  0
  188.5970  177.3390  137.8300 C   0  0  0  0  0  0  0  0  0  0  0  0
  192.6040  176.2800  138.6770 N   0  0  0  0  0  1  0  0  0  0  0  0
  191.2630  176.6600  138.3950 C   0  0  0  0  0  0  0  0  0  0  0  0
  189.0200  177.1800  139.1690 C   0  0  0  0  0  0  0  0  0  0  0  0
  190.3470  176.8150  139.4360 C   0  0  0  0  0  3  0  0  0  0  0  0
  186.6970  177.7510  139.9430 N   0  0  0  0  0  2  0  0  0  0  0  0
  189.5530  177.2830  136.7950 C   0  0  0  0  0  0  0  0  0  0  0  0
  186.5980  178.4290  138.6530 C   0  0  2  0  0  3  0  0  0  0  0  0
  185.1980  179.0520  138.4930 C   0  0  2  0  0  3  0  0  0  0  0  0
  184.7430  179.5980  139.7060 O   0  0  0  0  0  0  0  0  0  0  0  0
  184.1510  178.3830  139.2980 C   0  0  0  0  0  2  0  0  0  0  0  0
  188.6120  178.7530  141.1000 C   0  0  0  0  0  2  0  0  0  0  0  0
  187.8930  178.8580  142.4390 C   0  0  0  0  0  2  0  0  0  0  0  0
  187.8160  177.3330  146.7250 N   0  0  0  0  0  0  0  0  0  0  0  0
  188.0300  177.3580  145.4440 C   0  0  0  0  0  0  0  0  0  0  0  0
  186.9720  177.5270  144.4510 C   0  0  2  0  0  3  0  0  0  0  0  0
  189.0740  176.9690  143.3970 O   0  0  0  0  0  0  0  0  0  0  0  0
  187.7830  177.5000  143.1440 C   0  0  2  0  0  3  0  0  0  0  0  0
  189.3220  177.0590  144.7860 C   0  0  1  0  0  3  0  0  0  0  0  0
  184.9190  178.8940  143.9020 C   0  0  0  0  0  0  0  0  0  0  0  0
  184.4420  180.2970  143.5920 C   0  0  0  0  0  1  0  0  0  0  0  0
  184.5510  177.7950  142.9170 C   0  0  0  0  0  1  0  0  0  0  0  0
  186.1620  178.8120  144.6890 C   0  0  1  0  0  3  0  0  0  0  0  0
  184.6310  178.4150  145.6450 S   0  0  0  0  0  0  0  0  0  0  0  0
  188.8420  177.0810  147.6830 C   0  0  0  0  0  3  0  0  0  0  0  0
  189.3290  178.0330  148.3450 O   0  0  0  0  0  0  0  0  0  0  0  0
  190.2440  178.0830  145.0380 O   0  0  0  0  0  0  0  0  0  0  0  0
  191.4920  177.5230  144.7410 C   0  0  0  0  0  2  0  0  0  0  0  0
  191.7560  176.3360  145.6480 C   0  0  0  0  0  2  0  0  0  0  0  0
  192.1070  176.7840  146.9260 O   0  0  0  0  0  1  0  0  0  0  0  0
  186.5070  176.2260  137.7080 O   0  0  0  0  0  0  0  0  0  0  0  0
  185.6840  176.7790  135.5940 O   0  0  0  0  0  1  0  0  0  0  0  0
  187.4930  173.7570  136.8110 C   0  0  2  0  0  3  0  0  0  0  0  0
  185.9480  175.7440  136.4950 C   0  0  2  0  0  0  0  0  0  0  0  0
  185.1110  173.5700  136.8330 O   0  0  0  0  0  0  0  0  0  0  0  0
  184.7040  174.9040  136.7080 C   0  0  0  0  0  2  0  0  0  0  0  0
  186.2440  173.4340  136.0080 C   0  0  1  0  0  3  0  0  0  0  0  0
  186.9130  174.7830  135.8450 C   0  0  2  0  0  3  0  0  0  0  0  0
  192.3680  173.5700  136.5510 O   0  0  0  0  0  0  0  0  0  0  0  0
  191.2830  173.1050  136.1070 C   0  0  0  0  0  0  0  0  0  0  0  0
  188.7310  173.1620  136.2100 C   0  0  0  0  0  0  0  0  0  0  0  0
  190.0380  173.5970  136.6250 N   0  0  0  0  0  2  0  0  0  0  0  0
  191.3160  172.1280  135.0710 N   0  0  0  0  0  1  0  0  0  0  0  0
  188.6000  172.2830  135.3150 O   0  0  0  0  0  0  0  0  0  0  0  0
  1 16  1  6  0  0  0
  2  7  1  0  0  0  0
  3 11  1  0  0  0  0
  4 35  1  1  0  0  0
  4  5  1  0  0  0  0
  4 12  1  0  0  0  0
  5  8  2  0  0  0  0
  7  6  1  0  0  0  0
  7  9  2  0  0  0  0
  8  9  1  0  0  0  0
  8  1  1  0  0  0  0
 10  1  1  0  0  0  0
 11  2  2  0  0  0  0
 11  5  1  0  0  0  0
 12 10  1  1  0  0  0
 13 12  1  0  0  0  0
 13 15  1  1  0  0  0
 13 14  1  0  0  0  0
 15 14  1  0  0  0  0
 16 17  1  0  0  0  0
 18 29  1  0  0  0  0
 19 18  2  0  0  0  0
 20 27  1  0  0  0  0
 20 19  1  1  0  0  0
 21 23  1  0  0  0  0
 22 17  1  1  0  0  0
 22 21  1  0  0  0  0
 22 20  1  0  0  0  0
 23 31  1  6  0  0  0
 23 19  1  0  0  0  0
 24 27  1  0  0  0  0
 24 28  1  0  0  0  0
 25 24  1  0  0  0  0
 26 24  1  0  0  0  0
 27 28  1  1  0  0  0
 29 30  2  0  0  0  0
 32 31  1  0  0  0  0
 32 33  1  0  0  0  0
 33 34  1  0  0  0  0
 37 45  1  6  0  0  0
 38 36  1  6  0  0  0
 38 40  1  0  0  0  0
 38 35  1  0  0  0  0
 40 39  1  0  0  0  0
 41 37  1  0  0  0  0
 41 39  1  1  0  0  0
 42 41  1  0  0  0  0
 42 38  1  0  0  0  0
 42 37  1  0  0  0  0
 44 43  2  0  0  0  0
 44 46  1  0  0  0  0
 45 46  1  0  0  0  0
 47 44  1  0  0  0  0
 48 45  2  0  0  0  0
M  END
>  <MODEL>
4

>  <REMARK>
 VINA RESULT:      -6.5      4.079      8.333
  Name = 
  12 active torsions:
  status: ('A' for Active; 'I' for Inactive)
    1  A    between atoms: N_1  and  C_14
    2  A    between atoms: C_2  and  C_34
    3  A    between atoms: C_8  and  C_45
    4  A    between atoms: C_9  and  O_48
    5  A    between atoms: C_11  and  C_28
    6  A    between atoms: C_17  and  O_48
    7  A    between atoms: O_21  and  C_35
    8  A    between atoms: O_21  and  C_44
    9  A    between atoms: C_24  and  C_35
   10  A    between atoms: C_27  and  C_29
   11  A    between atoms: C_33  and  C_34
   12  A    between atoms: C_33  and  C_39
                            x       y       z     vdW  Elec       q    Type
                         _______ _______ _______ _____ _____    ______ ____

>  <TORSDO>
F 12

$$$$
=
 OpenBabel11062412043D

 48 54  0  0  1  0  0  0  0  0999 V2000
  187.4250  177.7400  140.4600 C   0  0  2  0  0  3  0  0  0  0  0  0
  191.2540  177.1230  142.3420 C   0  0  0  0  0  3  0  0  0  0  0  0
  192.4720  177.5440  140.2190 C   0  0  0  0  0  1  0  0  0  0  0  0
  189.8290  177.3760  138.8040 C   0  0  2  0  0  3  0  0  0  0  0  0
  189.9480  177.3810  140.3070 C   0  0  0  0  0  0  0  0  0  0  0  0
  190.1490  176.7600  144.4860 N   0  0  0  0  0  1  0  0  0  0  0  0
  190.0820  176.9930  143.0850 C   0  0  0  0  0  0  0  0  0  0  0  0
  188.7640  177.3710  141.0800 C   0  0  0  0  0  0  0  0  0  0  0  0
  188.8440  177.1510  142.4610 C   0  0  0  0  0  3  0  0  0  0  0  0
  187.4280  177.7930  138.9920 N   0  0  0  0  0  2  0  0  0  0  0  0
  191.1960  177.3260  140.9590 C   0  0  0  0  0  0  0  0  0  0  0  0
  188.6790  178.3510  138.4860 C   0  0  2  0  0  3  0  0  0  0  0  0
  188.4930  178.8290  137.0340 C   0  0  2  0  0  3  0  0  0  0  0  0
  187.2900  179.5430  136.8850 O   0  0  0  0  0  0  0  0  0  0  0  0
  187.3190  178.2350  136.3550 C   0  0  0  0  0  2  0  0  0  0  0  0
  186.8850  179.0560  141.0220 C   0  0  0  0  0  2  0  0  0  0  0  0
  185.3870  179.1550  140.7660 C   0  0  0  0  0  2  0  0  0  0  0  0
  181.3220  178.6660  142.7520 N   0  0  0  0  0  0  0  0  0  0  0  0
  182.5840  178.4870  142.4960 C   0  0  0  0  0  0  0  0  0  0  0  0
  183.0900  178.0550  141.1950 C   0  0  2  0  0  3  0  0  0  0  0  0
  184.8450  178.0540  142.8580 O   0  0  0  0  0  0  0  0  0  0  0  0
  184.6060  178.0320  141.4600 C   0  0  2  0  0  3  0  0  0  0  0  0
  183.6740  178.5240  143.4960 C   0  0  1  0  0  3  0  0  0  0  0  0
  182.4690  178.3280  138.7620 C   0  0  0  0  0  0  0  0  0  0  0  0
  182.6650  179.2160  137.5500 C   0  0  0  0  0  1  0  0  0  0  0  0
  182.7790  176.8480  138.6010 C   0  0  0  0  0  1  0  0  0  0  0  0
  182.6410  178.9940  140.0640 C   0  0  1  0  0  3  0  0  0  0  0  0
  180.8820  178.6360  139.6190 S   0  0  0  0  0  0  0  0  0  0  0  0
  180.8290  179.0030  144.0480 C   0  0  0  0  0  3  0  0  0  0  0  0
  179.6250  178.7860  144.3350 O   0  0  0  0  0  0  0  0  0  0  0  0
  183.8730  179.8340  143.9480 O   0  0  0  0  0  0  0  0  0  0  0  0
  184.9950  179.7590  144.7830 C   0  0  0  0  0  2  0  0  0  0  0  0
  184.6760  178.9160  146.0040 C   0  0  0  0  0  2  0  0  0  0  0  0
  185.5500  179.2400  147.0460 O   0  0  0  0  0  1  0  0  0  0  0  0
  189.4410  176.0780  138.3910 O   0  0  0  0  0  0  0  0  0  0  0  0
  191.4350  174.8640  138.3360 O   0  0  0  0  0  1  0  0  0  0  0  0
  188.4820  174.8380  136.0640 C   0  0  2  0  0  3  0  0  0  0  0  0
  190.4240  175.4560  137.5750 C   0  0  2  0  0  0  0  0  0  0  0  0
  190.2530  176.2880  135.3800 O   0  0  0  0  0  0  0  0  0  0  0  0
  191.0210  176.3940  136.5470 C   0  0  0  0  0  2  0  0  0  0  0  0
  189.8090  174.9540  135.3320 C   0  0  1  0  0  3  0  0  0  0  0  0
  189.7720  174.3840  136.7360 C   0  0  2  0  0  3  0  0  0  0  0  0
  184.6430  171.8860  136.7060 O   0  0  0  0  0  0  0  0  0  0  0  0
  185.6780  172.1150  136.0210 C   0  0  0  0  0  0  0  0  0  0  0  0
  187.6970  173.6330  135.6430 C   0  0  0  0  0  0  0  0  0  0  0  0
  186.4940  173.2540  136.3330 N   0  0  0  0  0  2  0  0  0  0  0  0
  186.0350  171.2150  134.9770 N   0  0  0  0  0  1  0  0  0  0  0  0
  188.1280  172.9440  134.6780 O   0  0  0  0  0  0  0  0  0  0  0  0
  1 16  1  1  0  0  0
  1  8  1  0  0  0  0
  2  7  1  0  0  0  0
  3 11  1  0  0  0  0
  4 35  1  1  0  0  0
  4  5  1  0  0  0  0
  5 11  1  0  0  0  0
  5  8  2  0  0  0  0
  7  6  1  0  0  0  0
  8  9  1  0  0  0  0
  9  7  2  0  0  0  0
 10  1  1  0  0  0  0
 11  2  2  0  0  0  0
 12  4  1  0  0  0  0
 12 10  1  6  0  0  0
 13 15  1  6  0  0  0
 13 12  1  0  0  0  0
 14 13  1  0  0  0  0
 15 14  1  0  0  0  0
 17 16  1  0  0  0  0
 18 29  1  0  0  0  0
 19 18  2  0  0  0  0
 19 23  1  0  0  0  0
 20 22  1  0  0  0  0
 20 19  1  1  0  0  0
 21 23  1  0  0  0  0
 22 17  1  6  0  0  0
 22 21  1  0  0  0  0
 23 31  1  6  0  0  0
 24 28  1  0  0  0  0
 24 27  1  0  0  0  0
 25 24  1  0  0  0  0
 26 24  1  0  0  0  0
 27 28  1  1  0  0  0
 27 20  1  0  0  0  0
 29 30  2  0  0  0  0
 31 32  1  0  0  0  0
 32 33  1  0  0  0  0
 33 34  1  0  0  0  0
 37 45  1  6  0  0  0
 37 42  1  0  0  0  0
 38 36  1  1  0  0  0
 38 35  1  0  0  0  0
 39 40  1  0  0  0  0
 40 38  1  0  0  0  0
 41 39  1  1  0  0  0
 41 37  1  0  0  0  0
 41 42  1  0  0  0  0
 42 38  1  0  0  0  0
 44 46  1  0  0  0  0
 44 43  2  0  0  0  0
 45 46  1  0  0  0  0
 47 44  1  0  0  0  0
 48 45  2  0  0  0  0
M  END
>  <MODEL>
5

>  <REMARK>
 VINA RESULT:      -6.5      3.811      8.838
  Name = 
  12 active torsions:
  status: ('A' for Active; 'I' for Inactive)
    1  A    between atoms: N_1  and  C_14
    2  A    between atoms: C_2  and  C_34
    3  A    between atoms: C_8  and  C_45
    4  A    between atoms: C_9  and  O_48
    5  A    between atoms: C_11  and  C_28
    6  A    between atoms: C_17  and  O_48
    7  A    between atoms: O_21  and  C_35
    8  A    between atoms: O_21  and  C_44
    9  A    between atoms: C_24  and  C_35
   10  A    between atoms: C_27  and  C_29
   11  A    between atoms: C_33  and  C_34
   12  A    between atoms: C_33  and  C_39
                            x       y       z     vdW  Elec       q    Type
                         _______ _______ _______ _____ _____    ______ ____

>  <TORSDO>
F 12

$$$$
=
 OpenBabel11062412043D

 48 54  0  0  1  0  0  0  0  0999 V2000
  185.3460  178.9110  141.2150 C   0  0  2  0  0  3  0  0  0  0  0  0
  183.2590  178.8890  144.9870 C   0  0  0  0  0  3  0  0  0  0  0  0
  181.2320  177.8780  143.9700 C   0  0  0  0  0  1  0  0  0  0  0  0
  182.4410  178.4460  141.2790 C   0  0  2  0  0  3  0  0  0  0  0  0
  183.1980  178.6400  142.5690 C   0  0  0  0  0  0  0  0  0  0  0  0
  185.2270  179.8210  146.0880 N   0  0  0  0  0  1  0  0  0  0  0  0
  184.5540  179.4010  144.9080 C   0  0  0  0  0  0  0  0  0  0  0  0
  184.5510  179.0440  142.5050 C   0  0  0  0  0  0  0  0  0  0  0  0
  185.2080  179.4460  143.6760 C   0  0  0  0  0  3  0  0  0  0  0  0
  184.5290  178.6380  140.0240 N   0  0  0  0  0  2  0  0  0  0  0  0
  182.5810  178.4990  143.8280 C   0  0  0  0  0  0  0  0  0  0  0  0
  183.4270  177.7310  140.3360 C   0  0  2  0  0  3  0  0  0  0  0  0
  182.8860  177.0960  139.0410 C   0  0  2  0  0  3  0  0  0  0  0  0
  181.8180  176.2220  139.3120 O   0  0  0  0  0  0  0  0  0  0  0  0
  183.0550  175.6270  138.9810 C   0  0  0  0  0  2  0  0  0  0  0  0
  186.4490  177.8600  141.3360 C   0  0  0  0  0  2  0  0  0  0  0  0
  187.5440  178.1340  140.3130 C   0  0  0  0  0  2  0  0  0  0  0  0
  191.8550  177.0030  139.3970 N   0  0  0  0  0  0  0  0  0  0  0  0
  190.5560  176.9830  139.3650 C   0  0  0  0  0  0  0  0  0  0  0  0
  189.7220  176.7670  140.5450 C   0  0  2  0  0  3  0  0  0  0  0  0
  188.3970  176.7370  138.5240 O   0  0  0  0  0  0  0  0  0  0  0  0
  188.3130  176.8620  139.9340 C   0  0  2  0  0  3  0  0  0  0  0  0
  189.7300  177.0060  138.1370 C   0  0  1  0  0  3  0  0  0  0  0  0
  189.6670  177.3270  143.0070 C   0  0  0  0  0  0  0  0  0  0  0  0
  189.3300  178.4240  143.9960 C   0  0  0  0  0  1  0  0  0  0  0  0
  189.0120  175.9710  143.2180 C   0  0  0  0  0  1  0  0  0  0  0  0
  190.0220  177.7880  141.6540 C   0  0  1  0  0  3  0  0  0  0  0  0
  191.4600  177.2080  142.6620 S   0  0  0  0  0  0  0  0  0  0  0  0
  192.6630  177.1290  138.2280 C   0  0  0  0  0  3  0  0  0  0  0  0
  193.5350  176.2600  137.9730 O   0  0  0  0  0  0  0  0  0  0  0  0
  189.8010  178.2650  137.5270 O   0  0  0  0  0  0  0  0  0  0  0  0
  189.2750  178.0720  136.2440 C   0  0  0  0  0  2  0  0  0  0  0  0
  187.7920  178.3900  136.2400 C   0  0  0  0  0  2  0  0  0  0  0  0
  187.5700  179.6300  136.8470 O   0  0  0  0  0  1  0  0  0  0  0  0
  182.1470  179.7210  140.7380 O   0  0  0  0  0  0  0  0  0  0  0  0
  180.3710  180.6940  141.8990 O   0  0  0  0  0  1  0  0  0  0  0  0
  181.0150  180.3400  138.2460 C   0  0  2  0  0  3  0  0  0  0  0  0
  180.7550  180.0030  140.7480 C   0  0  2  0  0  0  0  0  0  0  0  0
  179.6680  178.6090  139.1940 O   0  0  0  0  0  0  0  0  0  0  0  0
  179.8980  178.7660  140.5660 C   0  0  0  0  0  2  0  0  0  0  0  0
  179.6170  179.9100  138.6600 C   0  0  1  0  0  3  0  0  0  0  0  0
  180.4070  180.8500  139.5480 C   0  0  2  0  0  3  0  0  0  0  0  0
  181.3540  185.1020  137.2100 O   0  0  0  0  0  0  0  0  0  0  0  0
  181.1780  183.9440  136.7410 C   0  0  0  0  0  0  0  0  0  0  0  0
  180.9990  181.4430  137.2320 C   0  0  0  0  0  0  0  0  0  0  0  0
  181.1880  182.8130  137.6260 N   0  0  0  0  0  2  0  0  0  0  0  0
  180.9360  183.7860  135.3470 N   0  0  0  0  0  1  0  0  0  0  0  0
  180.7970  181.1440  136.0240 O   0  0  0  0  0  0  0  0  0  0  0  0
  1 16  1  1  0  0  0
  1  8  1  0  0  0  0
  4 35  1  6  0  0  0
  4  5  1  0  0  0  0
  5 11  1  0  0  0  0
  7  2  1  0  0  0  0
  7  6  1  0  0  0  0
  8  5  2  0  0  0  0
  8  9  1  0  0  0  0
  9  7  2  0  0  0  0
 10  1  1  0  0  0  0
 11  3  1  0  0  0  0
 11  2  2  0  0  0  0
 12 10  1  6  0  0  0
 12  4  1  0  0  0  0
 13 15  1  1  0  0  0
 13 14  1  0  0  0  0
 13 12  1  0  0  0  0
 15 14  1  0  0  0  0
 17 16  1  0  0  0  0
 19 18  2  0  0  0  0
 20 19  1  6  0  0  0
 20 27  1  0  0  0  0
 21 22  1  0  0  0  0
 22 17  1  6  0  0  0
 22 20  1  0  0  0  0
 23 31  1  1  0  0  0
 23 21  1  0  0  0  0
 23 19  1  0  0  0  0
 24 26  1  0  0  0  0
 24 25  1  0  0  0  0
 27 28  1  1  0  0  0
 27 24  1  0  0  0  0
 28 24  1  0  0  0  0
 29 18  1  0  0  0  0
 30 29  2  0  0  0  0
 32 31  1  0  0  0  0
 33 32  1  0  0  0  0
 33 34  1  0  0  0  0
 35 38  1  0  0  0  0
 37 45  1  6  0  0  0
 37 41  1  0  0  0  0
 37 42  1  0  0  0  0
 38 36  1  1  0  0  0
 39 40  1  0  0  0  0
 40 38  1  0  0  0  0
 41 39  1  1  0  0  0
 41 42  1  0  0  0  0
 42 38  1  0  0  0  0
 44 43  2  0  0  0  0
 44 46  1  0  0  0  0
 45 46  1  0  0  0  0
 47 44  1  0  0  0  0
 48 45  2  0  0  0  0
M  END
>  <MODEL>
6

>  <REMARK>
 VINA RESULT:      -6.4      2.080      3.473
  Name = 
  12 active torsions:
  status: ('A' for Active; 'I' for Inactive)
    1  A    between atoms: N_1  and  C_14
    2  A    between atoms: C_2  and  C_34
    3  A    between atoms: C_8  and  C_45
    4  A    between atoms: C_9  and  O_48
    5  A    between atoms: C_11  and  C_28
    6  A    between atoms: C_17  and  O_48
    7  A    between atoms: O_21  and  C_35
    8  A    between atoms: O_21  and  C_44
    9  A    between atoms: C_24  and  C_35
   10  A    between atoms: C_27  and  C_29
   11  A    between atoms: C_33  and  C_34
   12  A    between atoms: C_33  and  C_39
                            x       y       z     vdW  Elec       q    Type
                         _______ _______ _______ _____ _____    ______ ____

>  <TORSDO>
F 12

$$$$
=
 OpenBabel11062412043D

 48 54  0  0  1  0  0  0  0  0999 V2000
  187.7270  177.7170  140.3010 C   0  0  2  0  0  3  0  0  0  0  0  0
  190.5380  177.0520  137.1000 C   0  0  0  0  0  3  0  0  0  0  0  0
  188.8970  177.7720  135.3810 C   0  0  0  0  0  1  0  0  0  0  0  0
  186.7850  177.6560  137.5130 C   0  0  2  0  0  3  0  0  0  0  0  0
  188.2540  177.4900  137.8130 C   0  0  0  0  0  0  0  0  0  0  0  0
  192.2370  176.3920  138.7210 N   0  0  0  0  0  1  0  0  0  0  0  0
  190.9040  176.7850  138.4180 C   0  0  0  0  0  0  0  0  0  0  0  0
  188.6580  177.3370  139.1590 C   0  0  0  0  0  0  0  0  0  0  0  0
  189.9760  176.9600  139.4460 C   0  0  0  0  0  3  0  0  0  0  0  0
  186.3320  177.9420  139.8990 N   0  0  0  0  0  2  0  0  0  0  0  0
  189.2210  177.4130  136.7910 C   0  0  0  0  0  0  0  0  0  0  0  0
  186.2570  178.6100  138.6020 C   0  0  2  0  0  3  0  0  0  0  0  0
  184.8670  179.2470  138.4180 C   0  0  2  0  0  3  0  0  0  0  0  0
  184.5670  180.1270  139.4730 O   0  0  0  0  0  0  0  0  0  0  0  0
  183.8980  178.8840  139.4770 C   0  0  0  0  0  2  0  0  0  0  0  0
  188.2430  178.9330  141.0710 C   0  0  0  0  0  2  0  0  0  0  0  0
  187.5810  179.0010  142.4410 C   0  0  0  0  0  2  0  0  0  0  0  0
  187.7790  177.4290  146.7060 N   0  0  0  0  0  0  0  0  0  0  0  0
  187.9220  177.4740  145.4150 C   0  0  0  0  0  0  0  0  0  0  0  0
  186.8060  177.6250  144.4840 C   0  0  2  0  0  3  0  0  0  0  0  0
  188.8610  177.1340  143.3100 O   0  0  0  0  0  0  0  0  0  0  0  0
  187.5450  177.6330  143.1340 C   0  0  2  0  0  3  0  0  0  0  0  0
  189.1820  177.2160  144.6840 C   0  0  1  0  0  3  0  0  0  0  0  0
  184.7090  178.9600  144.0360 C   0  0  0  0  0  0  0  0  0  0  0  0
  184.1930  180.3610  143.7780 C   0  0  0  0  0  1  0  0  0  0  0  0
  184.3330  177.8800  143.0340 C   0  0  0  0  0  1  0  0  0  0  0  0
  185.9780  178.8860  144.7810 C   0  0  1  0  0  3  0  0  0  0  0  0
  184.4860  178.4300  145.7740 S   0  0  0  0  0  0  0  0  0  0  0  0
  188.8630  177.1940  147.6040 C   0  0  0  0  0  3  0  0  0  0  0  0
  189.3360  178.1450  148.2760 O   0  0  0  0  0  0  0  0  0  0  0  0
  190.0900  178.2610  144.8980 O   0  0  0  0  0  0  0  0  0  0  0  0
  191.3440  177.7140  144.6010 C   0  0  0  0  0  2  0  0  0  0  0  0
  191.5580  176.4450  145.4060 C   0  0  0  0  0  2  0  0  0  0  0  0
  192.0560  176.7640  146.6730 O   0  0  0  0  0  1  0  0  0  0  0  0
  186.1520  176.4000  137.6740 O   0  0  0  0  0  0  0  0  0  0  0  0
  186.6600  174.8970  135.9610 O   0  0  0  0  0  1  0  0  0  0  0  0
  183.3910  175.9980  137.3720 C   0  0  2  0  0  3  0  0  0  0  0  0
  185.7440  175.8390  136.4350 C   0  0  2  0  0  0  0  0  0  0  0  0
  184.1140  177.2250  135.4530 O   0  0  0  0  0  0  0  0  0  0  0  0
  185.4700  176.8850  135.3730 C   0  0  0  0  0  2  0  0  0  0  0  0
  183.4470  176.0530  135.8540 C   0  0  1  0  0  3  0  0  0  0  0  0
  184.4090  175.1580  136.6080 C   0  0  2  0  0  3  0  0  0  0  0  0
  180.2260  172.3640  136.5690 O   0  0  0  0  0  0  0  0  0  0  0  0
  180.6560  173.2050  137.4050 C   0  0  0  0  0  0  0  0  0  0  0  0
  182.2970  175.1060  137.8750 C   0  0  0  0  0  0  0  0  0  0  0  0
  181.7140  174.1000  137.0290 N   0  0  0  0  0  2  0  0  0  0  0  0
  180.0560  173.2750  138.6940 N   0  0  0  0  0  1  0  0  0  0  0  0
  181.8840  175.2720  139.0550 O   0  0  0  0  0  0  0  0  0  0  0  0
  1 16  1  6  0  0  0
  2  7  1  0  0  0  0
  3 11  1  0  0  0  0
  4 35  1  1  0  0  0
  4  5  1  0  0  0  0
  4 12  1  0  0  0  0
  5  8  2  0  0  0  0
  7  6  1  0  0  0  0
  7  9  2  0  0  0  0
  8  9  1  0  0  0  0
  8  1  1  0  0  0  0
 10  1  1  0  0  0  0
 11  2  2  0  0  0  0
 11  5  1  0  0  0  0
 12 10  1  1  0  0  0
 13 12  1  0  0  0  0
 13 14  1  0  0  0  0
 13 15  1  1  0  0  0
 14 15  1  0  0  0  0
 16 17  1  0  0  0  0
 18 29  1  0  0  0  0
 19 18  2  0  0  0  0
 20 27  1  0  0  0  0
 20 19  1  1  0  0  0
 21 23  1  0  0  0  0
 22 17  1  1  0  0  0
 22 21  1  0  0  0  0
 22 20  1  0  0  0  0
 23 31  1  6  0  0  0
 23 19  1  0  0  0  0
 24 27  1  0  0  0  0
 24 28  1  0  0  0  0
 25 24  1  0  0  0  0
 26 24  1  0  0  0  0
 27 28  1  1  0  0  0
 29 30  2  0  0  0  0
 32 31  1  0  0  0  0
 32 33  1  0  0  0  0
 33 34  1  0  0  0  0
 37 45  1  6  0  0  0
 38 36  1  6  0  0  0
 38 42  1  0  0  0  0
 38 35  1  0  0  0  0
 40 39  1  0  0  0  0
 40 38  1  0  0  0  0
 41 39  1  1  0  0  0
 41 42  1  0  0  0  0
 41 37  1  0  0  0  0
 42 37  1  0  0  0  0
 43 44  2  0  0  0  0
 44 47  1  0  0  0  0
 45 48  2  0  0  0  0
 46 44  1  0  0  0  0
 46 45  1  0  0  0  0
M  END
>  <MODEL>
7

>  <REMARK>
 VINA RESULT:      -5.9      3.797      7.219
  Name = 
  12 active torsions:
  status: ('A' for Active; 'I' for Inactive)
    1  A    between atoms: N_1  and  C_14
    2  A    between atoms: C_2  and  C_34
    3  A    between atoms: C_8  and  C_45
    4  A    between atoms: C_9  and  O_48
    5  A    between atoms: C_11  and  C_28
    6  A    between atoms: C_17  and  O_48
    7  A    between atoms: O_21  and  C_35
    8  A    between atoms: O_21  and  C_44
    9  A    between atoms: C_24  and  C_35
   10  A    between atoms: C_27  and  C_29
   11  A    between atoms: C_33  and  C_34
   12  A    between atoms: C_33  and  C_39
                            x       y       z     vdW  Elec       q    Type
                         _______ _______ _______ _____ _____    ______ ____

>  <TORSDO>
F 12

$$$$
=
 OpenBabel11062412043D

 48 54  0  0  1  0  0  0  0  0999 V2000
  188.0000  177.7790  137.7390 C   0  0  2  0  0  3  0  0  0  0  0  0
  186.1750  174.2240  136.1240 C   0  0  0  0  0  3  0  0  0  0  0  0
  187.9830  172.7740  137.0160 C   0  0  0  0  0  1  0  0  0  0  0  0
  189.5390  175.2750  137.6050 C   0  0  2  0  0  3  0  0  0  0  0  0
  188.1040  175.3000  137.1420 C   0  0  0  0  0  0  0  0  0  0  0  0
  184.3210  175.5570  135.2660 N   0  0  0  0  0  1  0  0  0  0  0  0
  185.5810  175.4680  135.9180 C   0  0  0  0  0  0  0  0  0  0  0  0
  187.4460  176.5470  137.0420 C   0  0  0  0  0  0  0  0  0  0  0  0
  186.1990  176.6210  136.4060 C   0  0  0  0  0  3  0  0  0  0  0  0
  189.3760  177.6320  138.2330 N   0  0  0  0  0  2  0  0  0  0  0  0
  187.4270  174.1310  136.7410 C   0  0  0  0  0  0  0  0  0  0  0  0
  189.6070  176.2900  138.7620 C   0  0  2  0  0  3  0  0  0  0  0  0
  190.8460  176.2900  139.6760 C   0  0  2  0  0  3  0  0  0  0  0  0
  190.9980  177.5280  140.3260 O   0  0  0  0  0  0  0  0  0  0  0  0
  191.8900  177.2570  139.2660 C   0  0  0  0  0  2  0  0  0  0  0  0
  187.0910  178.2410  138.8790 C   0  0  0  0  0  2  0  0  0  0  0  0
  187.7410  177.9320  140.2210 C   0  0  0  0  0  2  0  0  0  0  0  0
  185.5120  178.2070  144.1780 N   0  0  0  0  0  0  0  0  0  0  0  0
  186.0120  178.5640  143.0330 C   0  0  0  0  0  0  0  0  0  0  0  0
  187.4380  178.5030  142.7210 C   0  0  2  0  0  3  0  0  0  0  0  0
  186.2140  179.6540  140.9830 O   0  0  0  0  0  0  0  0  0  0  0  0
  187.4460  179.0120  141.2690 C   0  0  2  0  0  3  0  0  0  0  0  0
  185.2660  179.2320  141.9440 C   0  0  1  0  0  3  0  0  0  0  0  0
  189.3990  177.0660  143.4080 C   0  0  0  0  0  0  0  0  0  0  0  0
  190.1980  175.8380  143.0240 C   0  0  0  0  0  1  0  0  0  0  0  0
  190.1670  178.3610  143.6260 C   0  0  0  0  0  1  0  0  0  0  0  0
  188.0100  177.0900  142.9190 C   0  0  1  0  0  3  0  0  0  0  0  0
  188.1740  176.7330  144.7260 S   0  0  0  0  0  0  0  0  0  0  0  0
  184.1300  178.3500  144.5050 C   0  0  0  0  0  3  0  0  0  0  0  0
  183.7920  179.0140  145.5170 O   0  0  0  0  0  0  0  0  0  0  0  0
  184.3610  178.3380  141.3560 O   0  0  0  0  0  0  0  0  0  0  0  0
  183.8790  179.0080  140.2260 C   0  0  0  0  0  2  0  0  0  0  0  0
  182.4130  178.6770  140.0130 C   0  0  0  0  0  2  0  0  0  0  0  0
  181.8280  178.3110  141.2300 O   0  0  0  0  0  1  0  0  0  0  0  0
  190.3570  175.7440  136.5500 O   0  0  0  0  0  0  0  0  0  0  0  0
  190.2750  174.4620  134.6010 O   0  0  0  0  0  1  0  0  0  0  0  0
  193.1520  175.5470  136.7040 C   0  0  2  0  0  3  0  0  0  0  0  0
  190.9410  174.6830  135.8080 C   0  0  2  0  0  0  0  0  0  0  0  0
  192.2880  173.3840  137.2360 O   0  0  0  0  0  0  0  0  0  0  0  0
  191.0420  173.3930  136.5970 C   0  0  0  0  0  2  0  0  0  0  0  0
  193.1680  174.0640  136.3730 C   0  0  1  0  0  3  0  0  0  0  0  0
  192.3800  175.0190  135.5000 C   0  0  2  0  0  3  0  0  0  0  0  0
  197.8700  175.3920  135.4430 O   0  0  0  0  0  0  0  0  0  0  0  0
  196.8520  176.1250  135.5810 C   0  0  0  0  0  0  0  0  0  0  0  0
  194.3830  176.2560  136.2250 C   0  0  0  0  0  0  0  0  0  0  0  0
  195.6160  175.5430  136.0220 N   0  0  0  0  0  2  0  0  0  0  0  0
  196.9610  177.5220  135.3310 N   0  0  0  0  0  1  0  0  0  0  0  0
  194.3180  177.4990  136.0220 O   0  0  0  0  0  0  0  0  0  0  0  0
  1 10  1  0  0  0  0
  1 16  1  1  0  0  0
  2 11  1  0  0  0  0
  4 35  1  6  0  0  0
  4 12  1  0  0  0  0
  5  4  1  0  0  0  0
  6  7  1  0  0  0  0
  7  2  2  0  0  0  0
  7  9  1  0  0  0  0
  8  5  1  0  0  0  0
  8  1  1  0  0  0  0
  9  8  2  0  0  0  0
 11  3  1  0  0  0  0
 11  5  2  0  0  0  0
 12 10  1  6  0  0  0
 12 13  1  0  0  0  0
 13 15  1  6  0  0  0
 13 14  1  0  0  0  0
 15 14  1  0  0  0  0
 16 17  1  0  0  0  0
 18 29  1  0  0  0  0
 19 18  2  0  0  0  0
 20 27  1  0  0  0  0
 20 19  1  6  0  0  0
 21 22  1  0  0  0  0
 21 23  1  0  0  0  0
 22 17  1  6  0  0  0
 22 20  1  0  0  0  0
 23 31  1  6  0  0  0
 23 19  1  0  0  0  0
 24 26  1  0  0  0  0
 24 28  1  0  0  0  0
 25 24  1  0  0  0  0
 27 24  1  0  0  0  0
 27 28  1  1  0  0  0
 29 30  2  0  0  0  0
 32 31  1  0  0  0  0
 33 32  1  0  0  0  0
 33 34  1  0  0  0  0
 37 45  1  6  0  0  0
 38 36  1  6  0  0  0
 38 35  1  0  0  0  0
 38 40  1  0  0  0  0
 40 39  1  0  0  0  0
 41 37  1  0  0  0  0
 41 39  1  1  0  0  0
 42 38  1  0  0  0  0
 42 41  1  0  0  0  0
 42 37  1  0  0  0  0
 43 44  2  0  0  0  0
 44 46  1  0  0  0  0
 46 45  1  0  0  0  0
 47 44  1  0  0  0  0
 48 45  2  0  0  0  0
M  END
>  <MODEL>
8

>  <REMARK>
 VINA RESULT:      -5.3      4.433     10.291
  Name = 
  12 active torsions:
  status: ('A' for Active; 'I' for Inactive)
    1  A    between atoms: N_1  and  C_14
    2  A    between atoms: C_2  and  C_34
    3  A    between atoms: C_8  and  C_45
    4  A    between atoms: C_9  and  O_48
    5  A    between atoms: C_11  and  C_28
    6  A    between atoms: C_17  and  O_48
    7  A    between atoms: O_21  and  C_35
    8  A    between atoms: O_21  and  C_44
    9  A    between atoms: C_24  and  C_35
   10  A    between atoms: C_27  and  C_29
   11  A    between atoms: C_33  and  C_34
   12  A    between atoms: C_33  and  C_39
                            x       y       z     vdW  Elec       q    Type
                         _______ _______ _______ _____ _____    ______ ____

>  <TORSDO>
F 12

$$$$
=
 OpenBabel11062412043D

 48 54  0  0  1  0  0  0  0  0999 V2000
  186.0370  179.6320  141.8460 C   0  0  2  0  0  3  0  0  0  0  0  0
  189.1400  176.6390  141.8010 C   0  0  0  0  0  3  0  0  0  0  0  0
  187.9880  175.2810  143.5320 C   0  0  0  0  0  1  0  0  0  0  0  0
  186.1680  177.6250  143.9940 C   0  0  2  0  0  3  0  0  0  0  0  0
  187.1650  177.5800  142.8640 C   0  0  0  0  0  0  0  0  0  0  0  0
  190.3110  177.8700  140.0520 N   0  0  0  0  0  1  0  0  0  0  0  0
  189.2400  177.7610  140.9800 C   0  0  0  0  0  0  0  0  0  0  0  0
  187.2000  178.6560  141.9480 C   0  0  0  0  0  0  0  0  0  0  0  0
  188.2550  178.7480  141.0300 C   0  0  0  0  0  3  0  0  0  0  0  0
  185.0710  179.5440  142.9500 N   0  0  0  0  0  2  0  0  0  0  0  0
  188.1030  176.5370  142.7360 C   0  0  0  0  0  0  0  0  0  0  0  0
  184.8660  178.1580  143.3640 C   0  0  2  0  0  3  0  0  0  0  0  0
  183.5530  178.0340  144.1580 C   0  0  2  0  0  3  0  0  0  0  0  0
  182.5610  178.8830  143.6350 O   0  0  0  0  0  0  0  0  0  0  0  0
  183.1560  179.2790  144.8530 C   0  0  0  0  0  2  0  0  0  0  0  0
  185.3060  179.5030  140.5100 C   0  0  0  0  0  2  0  0  0  0  0  0
  185.7440  178.2290  139.7980 C   0  0  0  0  0  2  0  0  0  0  0  0
  185.1600  175.5150  136.1930 N   0  0  0  0  0  0  0  0  0  0  0  0
  185.5850  176.5080  136.9150 C   0  0  0  0  0  0  0  0  0  0  0  0
  184.7000  177.4750  137.5590 C   0  0  2  0  0  3  0  0  0  0  0  0
  187.0120  178.1600  137.7320 O   0  0  0  0  0  0  0  0  0  0  0  0
  185.7190  178.3820  138.2720 C   0  0  2  0  0  3  0  0  0  0  0  0
  187.0000  176.9130  137.0640 C   0  0  1  0  0  3  0  0  0  0  0  0
  182.4920  177.6150  138.7800 C   0  0  0  0  0  0  0  0  0  0  0  0
  181.8140  177.3170  140.1010 C   0  0  0  0  0  1  0  0  0  0  0  0
  182.3730  179.0290  138.2350 C   0  0  0  0  0  1  0  0  0  0  0  0
  183.6780  176.7930  138.4830 C   0  0  1  0  0  3  0  0  0  0  0  0
  182.1720  176.3330  137.5130 S   0  0  0  0  0  0  0  0  0  0  0  0
  186.0320  174.6260  135.4970 C   0  0  0  0  0  3  0  0  0  0  0  0
  186.3120  173.5070  135.9950 O   0  0  0  0  0  0  0  0  0  0  0  0
  187.7010  175.9640  137.8190 O   0  0  0  0  0  0  0  0  0  0  0  0
  189.0080  176.0020  137.3190 C   0  0  0  0  0  2  0  0  0  0  0  0
  189.5310  174.5910  137.1290 C   0  0  0  0  0  2  0  0  0  0  0  0
  190.7250  174.4270  137.8390 O   0  0  0  0  0  1  0  0  0  0  0  0
  186.6190  178.5660  144.9510 O   0  0  0  0  0  0  0  0  0  0  0  0
  185.4580  177.1940  146.4410 O   0  0  0  0  0  1  0  0  0  0  0  0
  189.0730  178.0720  146.2190 C   0  0  2  0  0  3  0  0  0  0  0  0
  186.5360  178.0680  146.2780 C   0  0  2  0  0  0  0  0  0  0  0  0
  187.8030  179.4440  147.7070 O   0  0  0  0  0  0  0  0  0  0  0  0
  186.4860  179.1650  147.3220 C   0  0  0  0  0  2  0  0  0  0  0  0
  188.4960  178.2230  147.6180 C   0  0  1  0  0  3  0  0  0  0  0  0
  187.8050  177.3230  146.6140 C   0  0  2  0  0  3  0  0  0  0  0  0
  192.6650  175.6930  148.5230 O   0  0  0  0  0  0  0  0  0  0  0  0
  192.0860  175.8890  147.4190 C   0  0  0  0  0  0  0  0  0  0  0  0
  190.2180  177.1060  146.1720 C   0  0  0  0  0  0  0  0  0  0  0  0
  190.9670  176.7870  147.3570 N   0  0  0  0  0  2  0  0  0  0  0  0
  192.5800  175.2440  146.2500 N   0  0  0  0  0  1  0  0  0  0  0  0
  190.5240  176.5930  145.0610 O   0  0  0  0  0  0  0  0  0  0  0  0
  1 16  1  6  0  0  0
  1  8  1  0  0  0  0
  1 10  1  0  0  0  0
  2 11  1  0  0  0  0
  4 35  1  1  0  0  0
  5  4  1  0  0  0  0
  6  7  1  0  0  0  0
  7  9  1  0  0  0  0
  7  2  2  0  0  0  0
  8  5  1  0  0  0  0
  9  8  2  0  0  0  0
 11  5  2  0  0  0  0
 11  3  1  0  0  0  0
 12 10  1  1  0  0  0
 12  4  1  0  0  0  0
 12 13  1  0  0  0  0
 13 15  1  1  0  0  0
 14 13  1  0  0  0  0
 14 15  1  0  0  0  0
 17 16  1  0  0  0  0
 18 19  2  0  0  0  0
 19 23  1  0  0  0  0
 20 19  1  1  0  0  0
 20 22  1  0  0  0  0
 20 27  1  0  0  0  0
 21 22  1  0  0  0  0
 22 17  1  1  0  0  0
 23 21  1  0  0  0  0
 23 31  1  1  0  0  0
 24 25  1  0  0  0  0
 26 24  1  0  0  0  0
 27 28  1  6  0  0  0
 27 24  1  0  0  0  0
 28 24  1  0  0  0  0
 29 30  2  0  0  0  0
 29 18  1  0  0  0  0
 32 31  1  0  0  0  0
 33 32  1  0  0  0  0
 33 34  1  0  0  0  0
 35 38  1  0  0  0  0
 37 45  1  1  0  0  0
 37 42  1  0  0  0  0
 37 41  1  0  0  0  0
 38 36  1  1  0  0  0
 38 42  1  0  0  0  0
 38 40  1  0  0  0  0
 40 39  1  0  0  0  0
 41 39  1  6  0  0  0
 42 41  1  0  0  0  0
 44 43  2  0  0  0  0
 45 46  1  0  0  0  0
 46 44  1  0  0  0  0
 47 44  1  0  0  0  0
 48 45  2  0  0  0  0
M  END
>  <MODEL>
9

>  <REMARK>
 VINA RESULT:      -5.1      3.689      8.926
  Name = 
  12 active torsions:
  status: ('A' for Active; 'I' for Inactive)
    1  A    between atoms: N_1  and  C_14
    2  A    between atoms: C_2  and  C_34
    3  A    between atoms: C_8  and  C_45
    4  A    between atoms: C_9  and  O_48
    5  A    between atoms: C_11  and  C_28
    6  A    between atoms: C_17  and  O_48
    7  A    between atoms: O_21  and  C_35
    8  A    between atoms: O_21  and  C_44
    9  A    between atoms: C_24  and  C_35
   10  A    between atoms: C_27  and  C_29
   11  A    between atoms: C_33  and  C_34
   12  A    between atoms: C_33  and  C_39
                            x       y       z     vdW  Elec       q    Type
                         _______ _______ _______ _____ _____    ______ ____

>  <TORSDO>
F 12

$$$$
