=
 OpenBabel11062417183D

 26 29  0  0  1  0  0  0  0  0999 V2000
  187.9140  177.8240  144.0460 C   0  0  0  0  0  0  0  0  0  0  0  0
  188.0980  179.1440  141.7810 C   0  0  2  0  0  3  0  0  0  0  0  0
  191.5720  178.4470  143.6240 C   0  0  0  0  0  2  0  0  0  0  0  0
  189.1910  177.1040  140.7020 C   0  0  0  0  0  0  0  0  0  0  0  0
  186.6130  177.2200  143.9570 N   0  0  0  0  0  2  0  0  0  0  0  0
  191.6640  176.9930  144.0600 C   0  0  2  0  0  3  0  0  0  0  0  0
  189.1570  176.9360  142.0220 C   0  0  0  0  0  0  0  0  0  0  0  0
  190.6710  179.1670  144.6160 C   0  0  0  0  0  2  0  0  0  0  0  0
  186.0180  177.8470  141.7200 N   0  0  0  0  0  2  0  0  0  0  0  0
  189.8120  175.7840  142.7230 C   0  0  0  0  0  2  0  0  0  0  0  0
  190.0090  178.0940  145.4640 C   0  0  2  0  0  3  0  0  0  0  0  0
  191.3120  176.0200  142.9260 C   0  0  0  0  0  2  0  0  0  0  0  0
  190.7870  176.8070  145.2850 C   0  0  0  0  0  2  0  0  0  0  0  0
  188.5230  177.8830  145.2620 C   0  0  0  0  0  0  0  0  0  0  0  0
  185.5330  177.6340  143.0680 C   0  0  0  0  0  2  0  0  0  0  0  0
  188.6850  178.1300  142.7760 C   0  0  2  0  0  3  0  0  0  0  0  0
  186.5760  179.1880  141.7150 C   0  0  0  0  0  2  0  0  0  0  0  0
  188.7600  178.7380  140.1300 S   0  0  0  0  0  0  0  0  0  0  0  0
  189.6840  176.1260  139.7770 N   0  0  0  0  0  2  0  0  0  0  0  0
  191.7980  177.0580  139.4050 O   0  0  0  0  0  0  0  0  0  0  0  0
  190.9270  176.2100  139.0690 C   0  0  0  0  0  0  0  0  0  0  0  0
  191.2020  175.2750  137.9750 C   0  0  0  0  0  0  0  0  0  0  0  0
  190.3170  174.2380  137.7050 O   0  0  0  0  0  1  0  0  0  0  0  0
  192.2380  175.4060  137.2710 O   0  0  0  0  0  0  0  0  0  0  0  0
  188.3210  177.9250  147.7520 C   0  0  0  0  0  1  0  0  0  0  0  0
  187.8120  177.6580  146.4520 O   0  0  0  0  0  0  0  0  0  0  0  0
  1 14  2  0  0  0  0
  2 17  1  6  0  0  0
  2 16  1  0  0  0  0
  3  6  1  0  0  0  0
  3  8  1  0  0  0  0
  4  7  2  0  0  0  0
  5  1  1  0  0  0  0
  6 12  1  6  0  0  0
  6 13  1  0  0  0  0
  7 10  1  0  0  0  0
  9 15  1  0  0  0  0
 10 12  1  0  0  0  0
 11  8  1  6  0  0  0
 13 11  1  0  0  0  0
 14 11  1  0  0  0  0
 14 26  1  0  0  0  0
 15  5  1  0  0  0  0
 16  7  1  6  0  0  0
 16  1  1  0  0  0  0
 17  9  1  0  0  0  0
 18  4  1  0  0  0  0
 18  2  1  0  0  0  0
 19  4  1  0  0  0  0
 21 20  2  0  0  0  0
 21 19  1  0  0  0  0
 22 21  1  0  0  0  0
 23 22  1  0  0  0  0
 24 22  2  0  0  0  0
 26 25  1  0  0  0  0
M  END
>  <MODEL>
1

>  <REMARK>
 VINA RESULT:      -6.2      0.000      0.000
  Name = 
  3 active torsions:
  status: ('A' for Active; 'I' for Inactive)
    1  A    between atoms: C_1  and  C_25
    2  A    between atoms: C_5  and  N_15
    3  A    between atoms: O_17  and  C_20
                            x       y       z     vdW  Elec       q    Type
                         _______ _______ _______ _____ _____    ______ ____

>  <TORSDO>
F 3

$$$$
=
 OpenBabel11062417183D

 26 29  0  0  1  0  0  0  0  0999 V2000
  186.8600  175.1420  136.6230 C   0  0  0  0  0  0  0  0  0  0  0  0
  188.5830  173.7710  135.1870 C   0  0  2  0  0  3  0  0  0  0  0  0
  189.1300  177.7270  135.1700 C   0  0  0  0  0  2  0  0  0  0  0  0
  190.4140  174.3420  136.8720 C   0  0  0  0  0  0  0  0  0  0  0  0
  186.3120  174.1450  137.5000 N   0  0  0  0  0  2  0  0  0  0  0  0
  189.0720  178.2820  136.5850 C   0  0  2  0  0  3  0  0  0  0  0  0
  189.3490  175.1050  137.1080 C   0  0  0  0  0  0  0  0  0  0  0  0
  187.6990  177.4680  134.7210 C   0  0  0  0  0  2  0  0  0  0  0  0
  187.6970  172.2750  136.9160 N   0  0  0  0  0  2  0  0  0  0  0  0
  189.3370  176.2160  138.1150 C   0  0  0  0  0  2  0  0  0  0  0  0
  186.8230  177.5970  135.9560 C   0  0  2  0  0  3  0  0  0  0  0  0
  189.9660  177.4970  137.5560 C   0  0  0  0  0  2  0  0  0  0  0  0
  187.6190  178.3190  137.0230 C   0  0  0  0  0  2  0  0  0  0  0  0
  186.1990  176.3240  136.4870 C   0  0  0  0  0  0  0  0  0  0  0  0
  186.3660  172.7010  137.2980 C   0  0  0  0  0  2  0  0  0  0  0  0
  188.2700  174.9770  136.0890 C   0  0  2  0  0  3  0  0  0  0  0  0
  187.7830  172.5080  135.4850 C   0  0  0  0  0  2  0  0  0  0  0  0
  190.3630  173.4100  135.3520 S   0  0  0  0  0  0  0  0  0  0  0  0
  191.6070  174.3550  137.6680 N   0  0  0  0  0  2  0  0  0  0  0  0
  192.8730  175.8080  136.3420 O   0  0  0  0  0  0  0  0  0  0  0  0
  192.8370  174.9930  137.3030 C   0  0  0  0  0  0  0  0  0  0  0  0
  194.0490  174.7280  138.0830 C   0  0  0  0  0  0  0  0  0  0  0  0
  194.5560  173.4370  138.1650 O   0  0  0  0  0  0  0  0  0  0  0  0
  194.6390  175.6660  138.6800 O   0  0  0  0  0  1  0  0  0  0  0  0
  183.8610  177.1580  136.1910 C   0  0  0  0  0  1  0  0  0  0  0  0
  184.8730  176.4780  136.9240 O   0  0  0  0  0  0  0  0  0  0  0  0
  1  5  1  0  0  0  0
  2 18  1  0  0  0  0
  2 17  1  1  0  0  0
  2 16  1  0  0  0  0
  4  7  2  0  0  0  0
  4 19  1  0  0  0  0
  6  3  1  6  0  0  0
  6 13  1  0  0  0  0
  6 12  1  0  0  0  0
  7 10  1  0  0  0  0
  8  3  1  0  0  0  0
  9 15  1  0  0  0  0
 11  8  1  6  0  0  0
 11 14  1  0  0  0  0
 11 13  1  0  0  0  0
 12 10  1  0  0  0  0
 14  1  2  0  0  0  0
 14 26  1  0  0  0  0
 15  5  1  0  0  0  0
 16  1  1  1  0  0  0
 16  7  1  0  0  0  0
 17  9  1  0  0  0  0
 18  4  1  0  0  0  0
 20 21  2  0  0  0  0
 21 19  1  0  0  0  0
 21 22  1  0  0  0  0
 22 23  2  0  0  0  0
 22 24  1  0  0  0  0
 25 26  1  0  0  0  0
M  END
>  <MODEL>
2

>  <REMARK>
 VINA RESULT:      -5.0      5.888      7.446
  Name = 
  3 active torsions:
  status: ('A' for Active; 'I' for Inactive)
    1  A    between atoms: C_1  and  C_25
    2  A    between atoms: C_5  and  N_15
    3  A    between atoms: O_17  and  C_20
                            x       y       z     vdW  Elec       q    Type
                         _______ _______ _______ _____ _____    ______ ____

>  <TORSDO>
F 3

$$$$
=
 OpenBabel11062417183D

 26 29  0  0  1  0  0  0  0  0999 V2000
  186.6600  174.7980  136.6470 C   0  0  0  0  0  0  0  0  0  0  0  0
  188.4600  174.5440  134.7490 C   0  0  2  0  0  3  0  0  0  0  0  0
  187.2260  178.2810  135.4280 C   0  0  0  0  0  2  0  0  0  0  0  0
  190.1740  175.7030  136.2450 C   0  0  0  0  0  0  0  0  0  0  0  0
  186.7960  173.5690  137.3800 N   0  0  0  0  0  2  0  0  0  0  0  0
  187.2340  178.5860  136.9180 C   0  0  2  0  0  3  0  0  0  0  0  0
  188.9600  175.8570  136.7690 C   0  0  0  0  0  0  0  0  0  0  0  0
  185.9890  177.4440  135.1380 C   0  0  0  0  0  2  0  0  0  0  0  0
  188.6940  172.6260  136.2580 N   0  0  0  0  0  2  0  0  0  0  0  0
  188.6820  176.7180  137.9650 C   0  0  0  0  0  2  0  0  0  0  0  0
  185.4260  177.0170  136.4830 C   0  0  2  0  0  3  0  0  0  0  0  0
  188.5620  178.1980  137.5850 C   0  0  0  0  0  2  0  0  0  0  0  0
  186.0370  177.9000  137.5510 C   0  0  0  0  0  2  0  0  0  0  0  0
  185.5400  175.5480  136.8360 C   0  0  0  0  0  0  0  0  0  0  0  0
  187.4240  172.3450  136.8950 C   0  0  0  0  0  2  0  0  0  0  0  0
  187.8550  175.3610  135.9030 C   0  0  2  0  0  3  0  0  0  0  0  0
  188.3680  173.0310  134.9020 C   0  0  0  0  0  2  0  0  0  0  0  0
  190.2110  175.0280  134.5940 S   0  0  0  0  0  0  0  0  0  0  0  0
  191.3820  176.1750  136.8560 N   0  0  0  0  0  2  0  0  0  0  0  0
  192.4060  174.1010  137.2100 O   0  0  0  0  0  0  0  0  0  0  0  0
  192.3990  175.3430  137.4280 C   0  0  0  0  0  0  0  0  0  0  0  0
  193.4600  175.9490  138.2370 C   0  0  0  0  0  0  0  0  0  0  0  0
  194.6770  175.2960  138.3930 O   0  0  0  0  0  0  0  0  0  0  0  0
  193.2780  177.0650  138.7910 O   0  0  0  0  0  1  0  0  0  0  0  0
  183.4010  175.8150  138.1000 C   0  0  0  0  0  1  0  0  0  0  0  0
  184.4040  175.0250  137.4730 O   0  0  0  0  0  0  0  0  0  0  0  0
  1 14  2  0  0  0  0
  1  5  1  0  0  0  0
  2 17  1  1  0  0  0
  2 16  1  0  0  0  0
  4  7  2  0  0  0  0
  4 19  1  0  0  0  0
  6  3  1  6  0  0  0
  6 13  1  0  0  0  0
  6 12  1  0  0  0  0
  7 10  1  0  0  0  0
  8  3  1  0  0  0  0
  9 15  1  0  0  0  0
 11  8  1  6  0  0  0
 11 14  1  0  0  0  0
 11 13  1  0  0  0  0
 12 10  1  0  0  0  0
 14 26  1  0  0  0  0
 15  5  1  0  0  0  0
 16  1  1  1  0  0  0
 16  7  1  0  0  0  0
 17  9  1  0  0  0  0
 18  2  1  0  0  0  0
 18  4  1  0  0  0  0
 19 21  1  0  0  0  0
 20 21  2  0  0  0  0
 21 22  1  0  0  0  0
 22 23  2  0  0  0  0
 22 24  1  0  0  0  0
 26 25  1  0  0  0  0
M  END
>  <MODEL>
3

>  <REMARK>
 VINA RESULT:      -4.8      5.774      7.503
  Name = 
  3 active torsions:
  status: ('A' for Active; 'I' for Inactive)
    1  A    between atoms: C_1  and  C_25
    2  A    between atoms: C_5  and  N_15
    3  A    between atoms: O_17  and  C_20
                            x       y       z     vdW  Elec       q    Type
                         _______ _______ _______ _____ _____    ______ ____

>  <TORSDO>
F 3

$$$$
=
 OpenBabel11062417183D

 26 29  0  0  1  0  0  0  0  0999 V2000
  180.4940  178.6570  137.7080 C   0  0  0  0  0  0  0  0  0  0  0  0
  179.9620  179.4450  140.1580 C   0  0  2  0  0  3  0  0  0  0  0  0
  180.1660  175.4880  139.6560 C   0  0  0  0  0  2  0  0  0  0  0  0
  182.2750  178.6540  140.8960 C   0  0  0  0  0  0  0  0  0  0  0  0
  181.0500  179.8390  137.1080 N   0  0  0  0  0  2  0  0  0  0  0  0
  181.4100  175.1120  138.8680 C   0  0  2  0  0  3  0  0  0  0  0  0
  182.0180  178.1810  139.6780 C   0  0  0  0  0  0  0  0  0  0  0  0
  179.1390  176.0160  138.6660 C   0  0  0  0  0  2  0  0  0  0  0  0
  181.1380  181.2750  139.0270 N   0  0  0  0  0  2  0  0  0  0  0  0
  182.9130  177.2130  138.9650 C   0  0  0  0  0  2  0  0  0  0  0  0
  179.8660  176.2180  137.3470 C   0  0  2  0  0  3  0  0  0  0  0  0
  182.6780  175.7720  139.4300 C   0  0  0  0  0  2  0  0  0  0  0  0
  181.1700  175.4510  137.4080 C   0  0  0  0  0  2  0  0  0  0  0  0
  180.0770  177.6480  136.8960 C   0  0  0  0  0  0  0  0  0  0  0  0
  180.8980  181.2040  137.6000 C   0  0  0  0  0  2  0  0  0  0  0  0
  180.6310  178.4430  139.2030 C   0  0  2  0  0  3  0  0  0  0  0  0
  179.8870  180.8800  139.6510 C   0  0  0  0  0  2  0  0  0  0  0  0
  180.8890  179.4100  141.7280 S   0  0  0  0  0  0  0  0  0  0  0  0
  183.5120  178.4550  141.5940 N   0  0  0  0  0  2  0  0  0  0  0  0
  184.8840  179.7510  140.2110 O   0  0  0  0  0  0  0  0  0  0  0  0
  184.7940  178.9140  141.1490 C   0  0  0  0  0  0  0  0  0  0  0  0
  186.0060  178.4370  141.8210 C   0  0  0  0  0  0  0  0  0  0  0  0
  187.2480  178.6010  141.2200 O   0  0  0  0  0  0  0  0  0  0  0  0
  185.9310  177.8790  142.9480 O   0  0  0  0  0  1  0  0  0  0  0  0
  178.9700  177.1100  134.7210 C   0  0  0  0  0  1  0  0  0  0  0  0
  179.8910  177.8440  135.5180 O   0  0  0  0  0  0  0  0  0  0  0  0
  2 17  1  6  0  0  0
  2 18  1  0  0  0  0
  4 19  1  0  0  0  0
  4 18  1  0  0  0  0
  5 15  1  0  0  0  0
  5  1  1  0  0  0  0
  6 13  1  6  0  0  0
  6 12  1  0  0  0  0
  6  3  1  0  0  0  0
  7  4  2  0  0  0  0
  8  3  1  0  0  0  0
  9 17  1  0  0  0  0
 10 12  1  0  0  0  0
 10  7  1  0  0  0  0
 11 13  1  1  0  0  0
 11  8  1  0  0  0  0
 14 11  1  0  0  0  0
 14  1  2  0  0  0  0
 15  9  1  0  0  0  0
 16  1  1  6  0  0  0
 16  7  1  0  0  0  0
 16  2  1  0  0  0  0
 20 21  2  0  0  0  0
 21 19  1  0  0  0  0
 21 22  1  0  0  0  0
 22 24  1  0  0  0  0
 23 22  2  0  0  0  0
 25 26  1  0  0  0  0
 26 14  1  0  0  0  0
M  END
>  <MODEL>
4

>  <REMARK>
 VINA RESULT:      -4.6      6.709      9.828
  Name = 
  3 active torsions:
  status: ('A' for Active; 'I' for Inactive)
    1  A    between atoms: C_1  and  C_25
    2  A    between atoms: C_5  and  N_15
    3  A    between atoms: O_17  and  C_20
                            x       y       z     vdW  Elec       q    Type
                         _______ _______ _______ _____ _____    ______ ____

>  <TORSDO>
F 3

$$$$
=
 OpenBabel11062417183D

 26 29  0  0  1  0  0  0  0  0999 V2000
  189.6770  176.9020  146.3910 C   0  0  0  0  0  0  0  0  0  0  0  0
  188.0120  178.9050  146.7400 C   0  0  2  0  0  3  0  0  0  0  0  0
  190.0970  179.0050  143.3350 C   0  0  0  0  0  2  0  0  0  0  0  0
  186.5430  177.9870  144.8640 C   0  0  0  0  0  0  0  0  0  0  0  0
  189.1840  175.9140  147.3110 N   0  0  0  0  0  2  0  0  0  0  0  0
  190.0600  177.6520  142.6440 C   0  0  2  0  0  3  0  0  0  0  0  0
  187.7160  177.3570  144.8500 C   0  0  0  0  0  0  0  0  0  0  0  0
  191.1000  178.9100  144.4750 C   0  0  0  0  0  2  0  0  0  0  0  0
  187.1940  177.0170  148.0720 N   0  0  0  0  0  2  0  0  0  0  0  0
  188.1160  176.3840  143.7820 C   0  0  0  0  0  2  0  0  0  0  0  0
  191.4400  177.4380  144.6370 C   0  0  2  0  0  3  0  0  0  0  0  0
  188.6330  177.0960  142.5270 C   0  0  0  0  0  2  0  0  0  0  0  0
  190.9960  176.7130  143.3830 C   0  0  0  0  0  2  0  0  0  0  0  0
  190.9330  176.7530  145.8890 C   0  0  0  0  0  0  0  0  0  0  0  0
  188.3030  176.1640  148.4480 C   0  0  0  0  0  2  0  0  0  0  0  0
  188.7190  177.9170  145.7980 C   0  0  2  0  0  3  0  0  0  0  0  0
  187.7080  178.3730  148.1350 C   0  0  0  0  0  2  0  0  0  0  0  0
  186.4550  179.4110  145.9360 S   0  0  0  0  0  0  0  0  0  0  0  0
  185.4530  177.6800  143.9850 N   0  0  0  0  0  2  0  0  0  0  0  0
  185.8960  179.2820  142.3380 O   0  0  0  0  0  0  0  0  0  0  0  0
  185.1020  178.4260  142.8130 C   0  0  0  0  0  0  0  0  0  0  0  0
  183.8270  178.1590  142.1410 C   0  0  0  0  0  0  0  0  0  0  0  0
  182.6390  178.6320  142.6840 O   0  0  0  0  0  1  0  0  0  0  0  0
  183.8010  177.5020  141.0660 O   0  0  0  0  0  0  0  0  0  0  0  0
  192.4150  176.0080  147.7590 C   0  0  0  0  0  1  0  0  0  0  0  0
  191.8530  175.8590  146.4610 O   0  0  0  0  0  0  0  0  0  0  0  0
  1  5  1  0  0  0  0
  2 17  1  1  0  0  0
  3  8  1  0  0  0  0
  4 18  1  0  0  0  0
  5 15  1  0  0  0  0
  6 12  1  1  0  0  0
  6  3  1  0  0  0  0
  6 13  1  0  0  0  0
  7  4  2  0  0  0  0
  8 11  1  0  0  0  0
  9 17  1  0  0  0  0
  9 15  1  0  0  0  0
 10  7  1  0  0  0  0
 11 13  1  6  0  0  0
 11 14  1  0  0  0  0
 12 10  1  0  0  0  0
 14  1  2  0  0  0  0
 14 26  1  0  0  0  0
 16  7  1  1  0  0  0
 16  1  1  0  0  0  0
 16  2  1  0  0  0  0
 18  2  1  0  0  0  0
 19  4  1  0  0  0  0
 20 21  2  0  0  0  0
 21 19  1  0  0  0  0
 22 23  1  0  0  0  0
 22 21  1  0  0  0  0
 24 22  2  0  0  0  0
 26 25  1  0  0  0  0
M  END
>  <MODEL>
5

>  <REMARK>
 VINA RESULT:      -4.6      3.757      5.369
  Name = 
  3 active torsions:
  status: ('A' for Active; 'I' for Inactive)
    1  A    between atoms: C_1  and  C_25
    2  A    between atoms: C_5  and  N_15
    3  A    between atoms: O_17  and  C_20
                            x       y       z     vdW  Elec       q    Type
                         _______ _______ _______ _____ _____    ______ ____

>  <TORSDO>
F 3

$$$$
=
 OpenBabel11062417183D

 26 29  0  0  1  0  0  0  0  0999 V2000
  190.3140  176.9870  138.1040 C   0  0  0  0  0  0  0  0  0  0  0  0
  188.9970  177.8010  135.9800 C   0  0  2  0  0  3  0  0  0  0  0  0
  191.9470  175.2080  135.2560 C   0  0  0  0  0  2  0  0  0  0  0  0
  187.9840  175.4690  135.7370 C   0  0  0  0  0  0  0  0  0  0  0  0
  189.4140  177.3070  139.1770 N   0  0  0  0  0  2  0  0  0  0  0  0
  191.8710  174.0290  136.2130 C   0  0  2  0  0  3  0  0  0  0  0  0
  188.9840  175.4230  136.6160 C   0  0  0  0  0  0  0  0  0  0  0  0
  192.5520  176.3780  136.0180 C   0  0  0  0  0  2  0  0  0  0  0  0
  187.5160  178.0550  137.9160 N   0  0  0  0  0  2  0  0  0  0  0  0
  189.4930  174.1490  137.2190 C   0  0  0  0  0  2  0  0  0  0  0  0
  192.5680  175.9820  137.4850 C   0  0  2  0  0  3  0  0  0  0  0  0
  190.4610  173.4220  136.2790 C   0  0  0  0  0  2  0  0  0  0  0  0
  192.3790  174.4820  137.5690 C   0  0  0  0  0  2  0  0  0  0  0  0
  191.6150  176.7200  138.4020 C   0  0  0  0  0  0  0  0  0  0  0  0
  188.3050  178.2520  139.1150 C   0  0  0  0  0  2  0  0  0  0  0  0
  189.7580  176.6910  136.7240 C   0  0  2  0  0  3  0  0  0  0  0  0
  188.2200  178.7670  136.8660 C   0  0  0  0  0  2  0  0  0  0  0  0
  187.8460  176.9920  134.8180 S   0  0  0  0  0  0  0  0  0  0  0  0
  187.1530  174.3500  135.4030 N   0  0  0  0  0  2  0  0  0  0  0  0
  185.4990  174.6710  137.0260 O   0  0  0  0  0  0  0  0  0  0  0  0
  186.0030  173.9240  136.1450 C   0  0  0  0  0  0  0  0  0  0  0  0
  185.3870  172.6290  135.8440 C   0  0  0  0  0  0  0  0  0  0  0  0
  184.5550  172.0190  136.7750 O   0  0  0  0  0  1  0  0  0  0  0  0
  185.6050  172.0620  134.7410 O   0  0  0  0  0  0  0  0  0  0  0  0
  193.5550  177.1280  139.9220 C   0  0  0  0  0  1  0  0  0  0  0  0
  192.1620  177.0390  139.6550 O   0  0  0  0  0  0  0  0  0  0  0  0
  1 14  2  0  0  0  0
  1  5  1  0  0  0  0
  2 16  1  0  0  0  0
  2 17  1  1  0  0  0
  3  8  1  0  0  0  0
  4  7  2  0  0  0  0
  6  3  1  6  0  0  0
  6 12  1  0  0  0  0
  6 13  1  0  0  0  0
  7 10  1  0  0  0  0
  9 15  1  0  0  0  0
 11  8  1  6  0  0  0
 11 13  1  0  0  0  0
 11 14  1  0  0  0  0
 12 10  1  0  0  0  0
 14 26  1  0  0  0  0
 15  5  1  0  0  0  0
 16  7  1  1  0  0  0
 16  1  1  0  0  0  0
 17  9  1  0  0  0  0
 18  4  1  0  0  0  0
 18  2  1  0  0  0  0
 19  4  1  0  0  0  0
 19 21  1  0  0  0  0
 21 20  2  0  0  0  0
 22 21  1  0  0  0  0
 22 23  1  0  0  0  0
 24 22  2  0  0  0  0
 26 25  1  0  0  0  0
M  END
>  <MODEL>
6

>  <REMARK>
 VINA RESULT:      -4.5      4.697      6.927
  Name = 
  3 active torsions:
  status: ('A' for Active; 'I' for Inactive)
    1  A    between atoms: C_1  and  C_25
    2  A    between atoms: C_5  and  N_15
    3  A    between atoms: O_17  and  C_20
                            x       y       z     vdW  Elec       q    Type
                         _______ _______ _______ _____ _____    ______ ____

>  <TORSDO>
F 3

$$$$
=
 OpenBabel11062417183D

 26 29  0  0  1  0  0  0  0  0999 V2000
  182.5290  175.7470  138.0560 C   0  0  0  0  0  0  0  0  0  0  0  0
  183.5250  176.2610  135.6790 C   0  0  2  0  0  3  0  0  0  0  0  0
  181.9140  179.3960  137.5560 C   0  0  0  0  0  2  0  0  0  0  0  0
  185.4020  177.6000  136.7740 C   0  0  0  0  0  0  0  0  0  0  0  0
  183.1630  174.5050  138.4040 N   0  0  0  0  0  2  0  0  0  0  0  0
  182.4040  179.4700  138.9940 C   0  0  2  0  0  3  0  0  0  0  0  0
  184.4580  177.3490  137.6790 C   0  0  0  0  0  0  0  0  0  0  0  0
  180.8470  178.3120  137.4910 C   0  0  0  0  0  2  0  0  0  0  0  0
  184.6670  174.2740  136.5500 N   0  0  0  0  0  2  0  0  0  0  0  0
  184.4720  177.9200  139.0650 C   0  0  0  0  0  2  0  0  0  0  0  0
  180.9090  177.5580  138.8090 C   0  0  2  0  0  3  0  0  0  0  0  0
  183.9320  179.3540  139.0950 C   0  0  0  0  0  2  0  0  0  0  0  0
  181.6810  178.4060  139.7990 C   0  0  0  0  0  2  0  0  0  0  0  0
  181.4320  176.1380  138.7590 C   0  0  0  0  0  0  0  0  0  0  0  0
  183.7980  173.5760  137.4760 C   0  0  0  0  0  2  0  0  0  0  0  0
  183.2350  176.7100  137.1200 C   0  0  2  0  0  3  0  0  0  0  0  0
  183.7960  174.7720  135.5000 C   0  0  0  0  0  2  0  0  0  0  0  0
  184.9680  177.2090  135.0890 S   0  0  0  0  0  0  0  0  0  0  0  0
  186.6320  178.2810  137.0610 N   0  0  0  0  0  2  0  0  0  0  0  0
  187.9290  176.4090  137.5960 O   0  0  0  0  0  0  0  0  0  0  0  0
  187.8160  177.6650  137.5820 C   0  0  0  0  0  0  0  0  0  0  0  0
  188.9180  178.5040  138.0600 C   0  0  0  0  0  0  0  0  0  0  0  0
  189.0560  179.8060  137.5950 O   0  0  0  0  0  0  0  0  0  0  0  0
  189.7440  178.0520  138.8960 O   0  0  0  0  0  1  0  0  0  0  0  0
  179.5380  174.5700  139.2100 C   0  0  0  0  0  1  0  0  0  0  0  0
  180.7320  175.2440  139.5870 O   0  0  0  0  0  0  0  0  0  0  0  0
  1  5  1  0  0  0  0
  1 14  2  0  0  0  0
  2 17  1  1  0  0  0
  2 16  1  0  0  0  0
  4 19  1  0  0  0  0
  4  7  2  0  0  0  0
  6  3  1  6  0  0  0
  6 12  1  0  0  0  0
  6 13  1  0  0  0  0
  7 10  1  0  0  0  0
  8  3  1  0  0  0  0
  9 15  1  0  0  0  0
 10 12  1  0  0  0  0
 11  8  1  6  0  0  0
 11 13  1  0  0  0  0
 14 11  1  0  0  0  0
 14 26  1  0  0  0  0
 15  5  1  0  0  0  0
 16  7  1  1  0  0  0
 16  1  1  0  0  0  0
 17  9  1  0  0  0  0
 18  2  1  0  0  0  0
 18  4  1  0  0  0  0
 19 21  1  0  0  0  0
 21 20  2  0  0  0  0
 21 22  1  0  0  0  0
 22 24  1  0  0  0  0
 23 22  2  0  0  0  0
 25 26  1  0  0  0  0
M  END
>  <MODEL>
7

>  <REMARK>
 VINA RESULT:      -4.4      5.835      8.239
  Name = 
  3 active torsions:
  status: ('A' for Active; 'I' for Inactive)
    1  A    between atoms: C_1  and  C_25
    2  A    between atoms: C_5  and  N_15
    3  A    between atoms: O_17  and  C_20
                            x       y       z     vdW  Elec       q    Type
                         _______ _______ _______ _____ _____    ______ ____

>  <TORSDO>
F 3

$$$$
=
 OpenBabel11062417183D

 26 29  0  0  1  0  0  0  0  0999 V2000
  181.1220  177.7020  137.8250 C   0  0  0  0  0  0  0  0  0  0  0  0
  183.6610  178.2580  138.2170 C   0  0  2  0  0  3  0  0  0  0  0  0
  181.1430  181.2920  138.8520 C   0  0  0  0  0  2  0  0  0  0  0  0
  183.2180  178.4300  140.7250 C   0  0  0  0  0  0  0  0  0  0  0  0
  181.0990  176.2660  137.8820 N   0  0  0  0  0  2  0  0  0  0  0  0
  179.9700  180.8450  139.7100 C   0  0  2  0  0  3  0  0  0  0  0  0
  182.0550  178.4030  140.0760 C   0  0  0  0  0  0  0  0  0  0  0  0
  180.8950  180.7890  137.4380 C   0  0  0  0  0  2  0  0  0  0  0  0
  183.3750  175.8410  138.5070 N   0  0  0  0  0  2  0  0  0  0  0  0
  180.7310  178.6030  140.7490 C   0  0  0  0  0  2  0  0  0  0  0  0
  179.7340  179.8120  137.5190 C   0  0  2  0  0  3  0  0  0  0  0  0
  180.4230  180.0880  140.9680 C   0  0  0  0  0  2  0  0  0  0  0  0
  179.0290  180.0290  138.8420 C   0  0  0  0  0  2  0  0  0  0  0  0
  180.0540  178.3500  137.2860 C   0  0  0  0  0  0  0  0  0  0  0  0
  182.2480  175.3820  137.7200 C   0  0  0  0  0  2  0  0  0  0  0  0
  182.1850  178.4640  138.5940 C   0  0  2  0  0  3  0  0  0  0  0  0
  184.0160  176.8670  137.7040 C   0  0  0  0  0  2  0  0  0  0  0  0
  184.6620  178.6280  139.6960 S   0  0  0  0  0  0  0  0  0  0  0  0
  183.3420  178.4620  142.1540 N   0  0  0  0  0  2  0  0  0  0  0  0
  185.2870  179.7560  142.2860 O   0  0  0  0  0  0  0  0  0  0  0  0
  184.4470  179.0230  142.8740 C   0  0  0  0  0  0  0  0  0  0  0  0
  184.5720  178.7760  144.3130 C   0  0  0  0  0  0  0  0  0  0  0  0
  183.5950  179.2340  145.1870 O   0  0  0  0  0  1  0  0  0  0  0  0
  185.5640  178.1450  144.7660 O   0  0  0  0  0  0  0  0  0  0  0  0
  179.0890  177.6090  135.1030 C   0  0  0  0  0  1  0  0  0  0  0  0
  179.0900  177.6700  136.5240 O   0  0  0  0  0  0  0  0  0  0  0  0
  1  5  1  0  0  0  0
  2 17  1  1  0  0  0
  2 16  1  0  0  0  0
  2 18  1  0  0  0  0
  3  6  1  0  0  0  0
  4 19  1  0  0  0  0
  6 13  1  6  0  0  0
  6 12  1  0  0  0  0
  7  4  2  0  0  0  0
  7 10  1  0  0  0  0
  8  3  1  0  0  0  0
 10 12  1  0  0  0  0
 11  8  1  1  0  0  0
 11 13  1  0  0  0  0
 14 11  1  0  0  0  0
 14  1  2  0  0  0  0
 15  5  1  0  0  0  0
 15  9  1  0  0  0  0
 16  1  1  6  0  0  0
 16  7  1  0  0  0  0
 17  9  1  0  0  0  0
 18  4  1  0  0  0  0
 19 21  1  0  0  0  0
 20 21  2  0  0  0  0
 21 22  1  0  0  0  0
 22 24  2  0  0  0  0
 22 23  1  0  0  0  0
 25 26  1  0  0  0  0
 26 14  1  0  0  0  0
M  END
>  <MODEL>
8

>  <REMARK>
 VINA RESULT:      -4.4      6.211      9.934
  Name = 
  3 active torsions:
  status: ('A' for Active; 'I' for Inactive)
    1  A    between atoms: C_1  and  C_25
    2  A    between atoms: C_5  and  N_15
    3  A    between atoms: O_17  and  C_20
                            x       y       z     vdW  Elec       q    Type
                         _______ _______ _______ _____ _____    ______ ____

>  <TORSDO>
F 3

$$$$
=
 OpenBabel11062417183D

 26 29  0  0  1  0  0  0  0  0999 V2000
  184.9340  177.9450  138.0220 C   0  0  0  0  0  0  0  0  0  0  0  0
  182.5400  178.9780  137.6870 C   0  0  2  0  0  3  0  0  0  0  0  0
  183.5370  176.1260  135.0750 C   0  0  0  0  0  2  0  0  0  0  0  0
  181.5020  176.7760  138.4580 C   0  0  0  0  0  0  0  0  0  0  0  0
  185.2510  178.3110  139.3740 N   0  0  0  0  0  2  0  0  0  0  0  0
  184.1250  174.9220  135.7950 C   0  0  2  0  0  3  0  0  0  0  0  0
  182.8000  176.5900  138.2250 C   0  0  0  0  0  0  0  0  0  0  0  0
  184.6180  177.1940  135.0110 C   0  0  0  0  0  2  0  0  0  0  0  0
  183.1700  179.3040  140.0340 N   0  0  0  0  0  2  0  0  0  0  0  0
  183.4610  175.2460  138.2720 C   0  0  0  0  0  2  0  0  0  0  0  0
  185.7380  176.7390  135.9310 C   0  0  2  0  0  3  0  0  0  0  0  0
  183.2510  174.4630  136.9720 C   0  0  0  0  0  2  0  0  0  0  0  0
  185.5430  175.2640  136.2150 C   0  0  0  0  0  2  0  0  0  0  0  0
  185.9410  177.5320  137.2050 C   0  0  0  0  0  0  0  0  0  0  0  0
  184.6130  179.3690  140.1500 C   0  0  0  0  0  2  0  0  0  0  0  0
  183.4830  177.7650  137.6160 C   0  0  2  0  0  3  0  0  0  0  0  0
  182.8500  179.9830  138.7900 C   0  0  0  0  0  2  0  0  0  0  0  0
  180.8450  178.3420  137.9100 S   0  0  0  0  0  0  0  0  0  0  0  0
  180.6210  175.7640  138.9630 N   0  0  0  0  0  2  0  0  0  0  0  0
  180.0410  176.8050  140.9760 O   0  0  0  0  0  0  0  0  0  0  0  0
  180.0210  175.7650  140.2640 C   0  0  0  0  0  0  0  0  0  0  0  0
  179.3420  174.5600  140.7480 C   0  0  0  0  0  0  0  0  0  0  0  0
  178.9350  174.4740  142.0740 O   0  0  0  0  0  1  0  0  0  0  0  0
  179.1210  173.5970  139.9670 O   0  0  0  0  0  0  0  0  0  0  0  0
  188.1630  178.6150  136.8340 C   0  0  0  0  0  1  0  0  0  0  0  0
  187.2890  177.7410  137.5380 O   0  0  0  0  0  0  0  0  0  0  0  0
  1  5  1  0  0  0  0
  2 18  1  0  0  0  0
  2 17  1  1  0  0  0
  4 19  1  0  0  0  0
  5 15  1  0  0  0  0
  6  3  1  1  0  0  0
  6 13  1  0  0  0  0
  6 12  1  0  0  0  0
  7 10  1  0  0  0  0
  7  4  2  0  0  0  0
  8  3  1  0  0  0  0
  9 15  1  0  0  0  0
 11  8  1  1  0  0  0
 11 13  1  0  0  0  0
 11 14  1  0  0  0  0
 12 10  1  0  0  0  0
 14 26  1  0  0  0  0
 14  1  2  0  0  0  0
 16  2  1  0  0  0  0
 16  1  1  1  0  0  0
 16  7  1  0  0  0  0
 17  9  1  0  0  0  0
 18  4  1  0  0  0  0
 19 21  1  0  0  0  0
 21 22  1  0  0  0  0
 21 20  2  0  0  0  0
 22 23  1  0  0  0  0
 24 22  2  0  0  0  0
 25 26  1  0  0  0  0
M  END
>  <MODEL>
9

>  <REMARK>
 VINA RESULT:      -4.2      6.563      9.392
  Name = 
  3 active torsions:
  status: ('A' for Active; 'I' for Inactive)
    1  A    between atoms: C_1  and  C_25
    2  A    between atoms: C_5  and  N_15
    3  A    between atoms: O_17  and  C_20
                            x       y       z     vdW  Elec       q    Type
                         _______ _______ _______ _____ _____    ______ ____

>  <TORSDO>
F 3

$$$$
