=
 OpenBabel11062413293D

 30 32  0  0  1  0  0  0  0  0999 V2000
  191.7030  176.4650  142.4530 O   0  0  0  0  0  0  0  0  0  0  0  0
  185.5270  179.4050  140.5450 O   0  0  0  0  0  1  0  0  0  0  0  0
  188.7520  177.9810  141.0130 C   0  0  1  0  0  3  0  0  0  0  0  0
  187.2890  177.8100  140.6280 C   0  0  0  0  0  2  0  0  0  0  0  0
  187.9390  177.7740  143.8310 C   0  0  0  0  0  2  0  0  0  0  0  0
  189.2980  176.8170  141.8320 C   0  0  1  0  0  3  0  0  0  0  0  0
  191.3050  175.9800  143.6880 N   0  0  0  0  0  2  0  0  0  0  0  0
  190.2820  176.8820  144.2290 C   0  0  0  0  0  2  0  0  0  0  0  0
  185.7490  178.2330  142.6200 C   0  0  2  0  0  3  0  0  0  0  0  0
  190.7480  176.9190  141.5450 C   0  0  1  0  0  3  0  0  0  0  0  0
  186.5800  177.2250  143.4190 C   0  0  0  0  0  2  0  0  0  0  0  0
  191.0340  177.6190  140.4650 C   0  0  0  0  0  2  0  0  0  0  0  0
  189.0180  176.8070  143.3600 C   0  0  1  0  0  3  0  0  0  0  0  0
  186.4650  178.8290  141.4000 C   0  0  2  0  0  3  0  0  0  0  0  0
  189.7740  178.1710  139.8620 C   0  0  1  0  0  3  0  0  0  0  0  0
  188.5930  176.2750  138.6610 C   0  0  0  0  0  1  0  0  0  0  0  0
  189.4420  177.5390  138.4750 C   0  0  1  0  0  0  0  0  0  0  0  0
  188.7360  178.5720  137.6080 C   0  0  0  0  0  0  0  0  0  0  0  0
  189.1570  179.7210  137.5760 O   0  0  0  0  0  0  0  0  0  0  0  0
  186.3840  178.7530  137.3770 O   0  0  0  0  0  1  0  0  0  0  0  0
  187.5320  178.2280  136.7830 C   0  0  0  0  0  2  0  0  0  0  0  0
  190.7670  177.1520  137.7860 C   0  0  0  0  0  2  0  0  0  0  0  0
  190.3610  175.5290  136.0790 O   0  0  0  0  0  0  0  0  0  0  0  0
  191.2760  174.7150  138.0160 O   0  0  0  0  0  1  0  0  0  0  0  0
  190.7920  175.7580  137.2390 C   0  0  0  0  0  0  0  0  0  0  0  0
  185.3140  179.2630  143.4590 O   0  0  0  0  0  0  0  0  0  0  0  0
  184.0760  178.8350  143.9450 C   0  0  0  0  0  2  0  0  0  0  0  0
  184.0710  178.8790  145.4650 C   0  0  0  0  0  2  0  0  0  0  0  0
  185.9870  178.3310  146.9730 C   0  0  0  0  0  1  0  0  0  0  0  0
  185.4150  179.3460  146.0030 C   0  0  0  0  0  2  0  0  0  0  0  0
  1  7  1  0  0  0  0
  2 14  1  0  0  0  0
  3  4  1  6  0  0  0
  3  6  1  0  0  0  0
  4 14  1  0  0  0  0
  6 13  1  0  0  0  0
  7  8  1  0  0  0  0
  9 11  1  0  0  0  0
  9 26  1  0  0  0  0
 10  6  1  0  0  0  0
 10  1  1  0  0  0  0
 11  5  1  0  0  0  0
 12 10  1  0  0  0  0
 13  5  1  0  0  0  0
 13  8  1  0  0  0  0
 14  9  1  0  0  0  0
 15 12  1  0  0  0  0
 15  3  1  0  0  0  0
 17 16  1  0  0  0  0
 17 15  1  0  0  0  0
 18 17  1  0  0  0  0
 19 18  2  0  0  0  0
 21 20  1  0  0  0  0
 21 18  1  0  0  0  0
 22 17  1  0  0  0  0
 23 25  2  0  0  0  0
 25 22  1  0  0  0  0
 25 24  1  0  0  0  0
 26 27  1  0  0  0  0
 27 28  1  0  0  0  0
 28 30  1  0  0  0  0
 30 29  1  0  0  0  0
M  END
>  <MODEL>
1

>  <REMARK>
 VINA RESULT:      -6.9      0.000      0.000
  Name = 
  9 active torsions:
  status: ('A' for Active; 'I' for Inactive)
    1  A    between atoms: C_3  and  C_29
    2  A    between atoms: C_3  and  C_30
    3  A    between atoms: C_5  and  C_6
    4  A    between atoms: C_5  and  C_8
    5  A    between atoms: C_6  and  O_15
    6  A    between atoms: O_15  and  C_16
    7  A    between atoms: C_17  and  C_19
    8  A    between atoms: C_19  and  C_30
    9  A    between atoms: C_26  and  C_30
                            x       y       z     vdW  Elec       q    Type
                         _______ _______ _______ _____ _____    ______ ____

>  <TORSDO>
F 9

$$$$
=
 OpenBabel11062413293D

 30 32  0  0  1  0  0  0  0  0999 V2000
  189.4530  177.7540  147.4830 O   0  0  0  0  0  0  0  0  0  0  0  0
  185.0530  178.7550  142.0000 O   0  0  0  0  0  1  0  0  0  0  0  0
  187.6040  178.1290  144.3980 C   0  0  1  0  0  3  0  0  0  0  0  0
  186.4850  177.6030  143.5100 C   0  0  0  0  0  2  0  0  0  0  0  0
  185.5560  178.9070  146.3590 C   0  0  0  0  0  2  0  0  0  0  0  0
  187.6410  177.4700  145.7710 C   0  0  1  0  0  3  0  0  0  0  0  0
  188.4990  177.7300  148.4870 N   0  0  0  0  0  2  0  0  0  0  0  0
  187.3900  178.6050  148.0880 C   0  0  0  0  0  2  0  0  0  0  0  0
  184.2160  178.5250  144.2310 C   0  0  2  0  0  3  0  0  0  0  0  0
  189.0600  177.6720  146.1490 C   0  0  1  0  0  3  0  0  0  0  0  0
  184.5220  178.0420  145.6520 C   0  0  0  0  0  2  0  0  0  0  0  0
  189.8540  177.9340  145.1300 C   0  0  0  0  0  2  0  0  0  0  0  0
  186.6790  178.0090  146.8640 C   0  0  1  0  0  3  0  0  0  0  0  0
  185.4500  178.7030  143.3350 C   0  0  2  0  0  3  0  0  0  0  0  0
  189.0540  178.0120  143.8610 C   0  0  1  0  0  3  0  0  0  0  0  0
  188.5400  175.6140  143.2180 C   0  0  0  0  0  1  0  0  0  0  0  0
  189.3780  176.8510  142.8710 C   0  0  1  0  0  0  0  0  0  0  0  0
  189.1290  177.3220  141.4450 C   0  0  0  0  0  0  0  0  0  0  0  0
  189.3430  176.5590  140.5130 O   0  0  0  0  0  0  0  0  0  0  0  0
  187.7190  178.6480  140.0770 O   0  0  0  0  0  1  0  0  0  0  0  0
  188.6230  178.7000  141.1390 C   0  0  0  0  0  2  0  0  0  0  0  0
  190.8730  176.4950  143.0100 C   0  0  0  0  0  2  0  0  0  0  0  0
  192.0470  178.5780  143.0320 O   0  0  0  0  0  1  0  0  0  0  0  0
  192.3900  177.2730  141.1800 O   0  0  0  0  0  0  0  0  0  0  0  0
  191.8050  177.5080  142.4170 C   0  0  0  0  0  0  0  0  0  0  0  0
  183.4930  179.7200  144.2790 O   0  0  0  0  0  0  0  0  0  0  0  0
  182.1510  179.3310  144.2810 C   0  0  0  0  0  2  0  0  0  0  0  0
  181.7100  178.9750  142.8700 C   0  0  0  0  0  2  0  0  0  0  0  0
  179.6520  178.5830  144.2320 C   0  0  0  0  0  1  0  0  0  0  0  0
  180.2290  178.6290  142.8310 C   0  0  0  0  0  2  0  0  0  0  0  0
  1  7  1  0  0  0  0
  2 14  1  0  0  0  0
  3  4  1  6  0  0  0
  3  6  1  0  0  0  0
  5 13  1  0  0  0  0
  6 10  1  0  0  0  0
  6 13  1  0  0  0  0
  8  7  1  0  0  0  0
  9 26  1  0  0  0  0
  9 11  1  0  0  0  0
 10  1  1  0  0  0  0
 11  5  1  0  0  0  0
 12 10  1  0  0  0  0
 13  8  1  0  0  0  0
 14  4  1  0  0  0  0
 14  9  1  0  0  0  0
 15  3  1  0  0  0  0
 15 12  1  0  0  0  0
 17 22  1  0  0  0  0
 17 16  1  0  0  0  0
 17 15  1  0  0  0  0
 18 17  1  0  0  0  0
 19 18  2  0  0  0  0
 20 21  1  0  0  0  0
 21 18  1  0  0  0  0
 24 25  2  0  0  0  0
 25 22  1  0  0  0  0
 25 23  1  0  0  0  0
 26 27  1  0  0  0  0
 28 27  1  0  0  0  0
 30 28  1  0  0  0  0
 30 29  1  0  0  0  0
M  END
>  <MODEL>
2

>  <REMARK>
 VINA RESULT:      -6.9      2.646      4.473
  Name = 
  9 active torsions:
  status: ('A' for Active; 'I' for Inactive)
    1  A    between atoms: C_3  and  C_29
    2  A    between atoms: C_3  and  C_30
    3  A    between atoms: C_5  and  C_6
    4  A    between atoms: C_5  and  C_8
    5  A    between atoms: C_6  and  O_15
    6  A    between atoms: O_15  and  C_16
    7  A    between atoms: C_17  and  C_19
    8  A    between atoms: C_19  and  C_30
    9  A    between atoms: C_26  and  C_30
                            x       y       z     vdW  Elec       q    Type
                         _______ _______ _______ _____ _____    ______ ____

>  <TORSDO>
F 9

$$$$
=
 OpenBabel11062413293D

 30 32  0  0  1  0  0  0  0  0999 V2000
  185.9660  178.2010  147.0540 O   0  0  0  0  0  0  0  0  0  0  0  0
  187.8290  178.7340  140.2220 O   0  0  0  0  0  1  0  0  0  0  0  0
  187.3820  178.3470  143.7290 C   0  0  1  0  0  3  0  0  0  0  0  0
  187.4440  177.7250  142.3410 C   0  0  0  0  0  2  0  0  0  0  0  0
  184.5930  179.0940  143.1680 C   0  0  0  0  0  2  0  0  0  0  0  0
  186.2890  177.7490  144.6070 C   0  0  1  0  0  3  0  0  0  0  0  0
  184.5930  178.1680  146.8710 N   0  0  0  0  0  2  0  0  0  0  0  0
  184.2670  178.9640  145.6820 C   0  0  0  0  0  2  0  0  0  0  0  0
  185.5310  178.5530  140.8660 C   0  0  2  0  0  3  0  0  0  0  0  0
  186.8160  178.0420  145.9610 C   0  0  1  0  0  3  0  0  0  0  0  0
  184.5580  178.1460  141.9770 C   0  0  0  0  0  2  0  0  0  0  0  0
  188.1080  178.3040  145.9890 C   0  0  0  0  0  2  0  0  0  0  0  0
  184.8410  178.2800  144.4320 C   0  0  1  0  0  3  0  0  0  0  0  0
  186.9800  178.7600  141.3270 C   0  0  2  0  0  3  0  0  0  0  0  0
  188.6660  178.2870  144.5950 C   0  0  1  0  0  3  0  0  0  0  0  0
  189.0150  176.0590  143.4350 C   0  0  0  0  0  1  0  0  0  0  0  0
  189.6560  177.1040  144.3570 C   0  0  1  0  0  0  0  0  0  0  0  0
  190.9570  177.6450  143.7810 C   0  0  0  0  0  0  0  0  0  0  0  0
  191.4350  178.6750  144.2360 O   0  0  0  0  0  0  0  0  0  0  0  0
  191.4650  177.6340  141.4650 O   0  0  0  0  0  1  0  0  0  0  0  0
  191.6800  176.9530  142.6640 C   0  0  0  0  0  2  0  0  0  0  0  0
  189.9650  176.4460  145.7180 C   0  0  0  0  0  2  0  0  0  0  0  0
  192.0810  175.3760  145.4160 O   0  0  0  0  0  0  0  0  0  0  0  0
  192.0560  177.1020  146.9230 O   0  0  0  0  0  1  0  0  0  0  0  0
  191.4260  176.2760  146.0010 C   0  0  0  0  0  0  0  0  0  0  0  0
  185.0710  179.7070  140.2280 O   0  0  0  0  0  0  0  0  0  0  0  0
  184.1010  179.2620  139.3270 C   0  0  0  0  0  2  0  0  0  0  0  0
  184.7060  178.2460  138.3710 C   0  0  0  0  0  2  0  0  0  0  0  0
  183.0130  176.5000  138.9480 C   0  0  0  0  0  1  0  0  0  0  0  0
  183.6420  177.3050  137.8270 C   0  0  0  0  0  2  0  0  0  0  0  0
  2 14  1  0  0  0  0
  3  4  1  6  0  0  0
  3 15  1  0  0  0  0
  3  6  1  0  0  0  0
  5 13  1  0  0  0  0
  6 10  1  0  0  0  0
  7  1  1  0  0  0  0
  8  7  1  0  0  0  0
  9 14  1  0  0  0  0
  9 11  1  0  0  0  0
 10 12  1  0  0  0  0
 10  1  1  0  0  0  0
 11  5  1  0  0  0  0
 13  6  1  0  0  0  0
 13  8  1  0  0  0  0
 14  4  1  0  0  0  0
 15 12  1  0  0  0  0
 16 17  1  0  0  0  0
 17 15  1  0  0  0  0
 17 22  1  0  0  0  0
 18 19  2  0  0  0  0
 18 17  1  0  0  0  0
 20 21  1  0  0  0  0
 21 18  1  0  0  0  0
 22 25  1  0  0  0  0
 23 25  2  0  0  0  0
 25 24  1  0  0  0  0
 26  9  1  0  0  0  0
 27 26  1  0  0  0  0
 28 27  1  0  0  0  0
 30 28  1  0  0  0  0
 30 29  1  0  0  0  0
M  END
>  <MODEL>
3

>  <REMARK>
 VINA RESULT:      -6.9      3.159      6.166
  Name = 
  9 active torsions:
  status: ('A' for Active; 'I' for Inactive)
    1  A    between atoms: C_3  and  C_29
    2  A    between atoms: C_3  and  C_30
    3  A    between atoms: C_5  and  C_6
    4  A    between atoms: C_5  and  C_8
    5  A    between atoms: C_6  and  O_15
    6  A    between atoms: O_15  and  C_16
    7  A    between atoms: C_17  and  C_19
    8  A    between atoms: C_19  and  C_30
    9  A    between atoms: C_26  and  C_30
                            x       y       z     vdW  Elec       q    Type
                         _______ _______ _______ _____ _____    ______ ____

>  <TORSDO>
F 9

$$$$
=
 OpenBabel11062413293D

 30 32  0  0  1  0  0  0  0  0999 V2000
  189.8680  177.5030  147.1610 O   0  0  0  0  0  0  0  0  0  0  0  0
  186.1050  178.9630  141.3180 O   0  0  0  0  0  1  0  0  0  0  0  0
  188.3860  178.1820  143.9320 C   0  0  1  0  0  3  0  0  0  0  0  0
  187.4340  177.7100  142.8410 C   0  0  0  0  0  2  0  0  0  0  0  0
  186.0540  178.5370  145.6870 C   0  0  0  0  0  2  0  0  0  0  0  0
  188.3110  177.3400  145.2000 C   0  0  1  0  0  3  0  0  0  0  0  0
  188.8030  177.2750  148.0160 N   0  0  0  0  0  2  0  0  0  0  0  0
  187.6800  178.1190  147.5910 C   0  0  0  0  0  2  0  0  0  0  0  0
  185.0230  178.3670  143.3680 C   0  0  2  0  0  3  0  0  0  0  0  0
  189.6500  177.5830  145.7860 C   0  0  1  0  0  3  0  0  0  0  0  0
  185.1930  177.7120  144.7410 C   0  0  0  0  0  2  0  0  0  0  0  0
  190.5380  178.0380  144.9250 C   0  0  0  0  0  2  0  0  0  0  0  0
  187.1790  177.6550  146.2160 C   0  0  1  0  0  3  0  0  0  0  0  0
  186.3380  178.7520  142.6760 C   0  0  2  0  0  3  0  0  0  0  0  0
  189.8960  178.2390  143.5830 C   0  0  1  0  0  3  0  0  0  0  0  0
  191.7220  177.8100  141.8760 C   0  0  0  0  0  1  0  0  0  0  0  0
  190.4370  177.2530  142.5020 C   0  0  1  0  0  0  0  0  0  0  0  0
  190.6630  175.8870  143.1350 C   0  0  0  0  0  0  0  0  0  0  0  0
  189.8180  175.0130  142.9980 O   0  0  0  0  0  0  0  0  0  0  0  0
  191.9590  174.2000  144.1810 O   0  0  0  0  0  1  0  0  0  0  0  0
  191.8970  175.5710  143.9270 C   0  0  0  0  0  2  0  0  0  0  0  0
  189.3690  177.1060  141.3990 C   0  0  0  0  0  2  0  0  0  0  0  0
  189.7840  178.1240  139.2760 O   0  0  0  0  0  0  0  0  0  0  0  0
  190.5660  175.9830  139.5110 O   0  0  0  0  0  1  0  0  0  0  0  0
  189.9190  177.1080  140.0050 C   0  0  0  0  0  0  0  0  0  0  0  0
  184.2010  179.4920  143.4740 O   0  0  0  0  0  0  0  0  0  0  0  0
  183.0690  179.0490  144.1620 C   0  0  0  0  0  2  0  0  0  0  0  0
  181.8680  179.0290  143.2290 C   0  0  0  0  0  2  0  0  0  0  0  0
  179.4570  179.4440  143.7410 C   0  0  0  0  0  1  0  0  0  0  0  0
  180.6300  178.5050  143.9430 C   0  0  0  0  0  2  0  0  0  0  0  0
  1  7  1  0  0  0  0
  2 14  1  0  0  0  0
  3  4  1  6  0  0  0
  3  6  1  0  0  0  0
  5 13  1  0  0  0  0
  6 10  1  0  0  0  0
  6 13  1  0  0  0  0
  8  7  1  0  0  0  0
  9 26  1  0  0  0  0
  9 11  1  0  0  0  0
 10  1  1  0  0  0  0
 11  5  1  0  0  0  0
 12 10  1  0  0  0  0
 13  8  1  0  0  0  0
 14  4  1  0  0  0  0
 14  9  1  0  0  0  0
 15  3  1  0  0  0  0
 15 12  1  0  0  0  0
 16 17  1  0  0  0  0
 17 18  1  0  0  0  0
 17 15  1  0  0  0  0
 18 21  1  0  0  0  0
 19 18  2  0  0  0  0
 21 20  1  0  0  0  0
 22 17  1  0  0  0  0
 23 25  2  0  0  0  0
 24 25  1  0  0  0  0
 25 22  1  0  0  0  0
 26 27  1  0  0  0  0
 28 30  1  0  0  0  0
 28 27  1  0  0  0  0
 29 30  1  0  0  0  0
M  END
>  <MODEL>
4

>  <REMARK>
 VINA RESULT:      -6.8      2.271      4.584
  Name = 
  9 active torsions:
  status: ('A' for Active; 'I' for Inactive)
    1  A    between atoms: C_3  and  C_29
    2  A    between atoms: C_3  and  C_30
    3  A    between atoms: C_5  and  C_6
    4  A    between atoms: C_5  and  C_8
    5  A    between atoms: C_6  and  O_15
    6  A    between atoms: O_15  and  C_16
    7  A    between atoms: C_17  and  C_19
    8  A    between atoms: C_19  and  C_30
    9  A    between atoms: C_26  and  C_30
                            x       y       z     vdW  Elec       q    Type
                         _______ _______ _______ _____ _____    ______ ____

>  <TORSDO>
F 9

$$$$
=
 OpenBabel11062413293D

 30 32  0  0  1  0  0  0  0  0999 V2000
  189.9770  177.3030  141.0300 O   0  0  0  0  0  0  0  0  0  0  0  0
  185.3940  177.8700  146.4230 O   0  0  0  0  0  1  0  0  0  0  0  0
  188.0270  177.4430  144.0720 C   0  0  1  0  0  3  0  0  0  0  0  0
  187.3090  178.3210  145.0870 C   0  0  0  0  0  2  0  0  0  0  0  0
  186.0040  178.2330  142.0910 C   0  0  0  0  0  2  0  0  0  0  0  0
  188.4940  178.2070  142.8390 C   0  0  1  0  0  3  0  0  0  0  0  0
  189.2450  178.0060  140.0870 N   0  0  0  0  0  2  0  0  0  0  0  0
  187.8190  177.8060  140.3680 C   0  0  0  0  0  2  0  0  0  0  0  0
  184.9450  178.8950  144.3070 C   0  0  2  0  0  3  0  0  0  0  0  0
  189.6080  177.3490  142.3720 C   0  0  1  0  0  3  0  0  0  0  0  0
  185.5480  179.3780  142.9850 C   0  0  0  0  0  2  0  0  0  0  0  0
  190.0770  176.5310  143.2940 C   0  0  0  0  0  2  0  0  0  0  0  0
  187.4600  178.4650  141.7080 C   0  0  1  0  0  3  0  0  0  0  0  0
  185.8380  177.9330  145.1040 C   0  0  2  0  0  3  0  0  0  0  0  0
  189.2820  176.6720  144.5600 C   0  0  1  0  0  3  0  0  0  0  0  0
  190.4530  178.7510  145.4180 C   0  0  0  0  0  1  0  0  0  0  0  0
  190.1130  177.2880  145.7270 C   0  0  1  0  0  0  0  0  0  0  0  0
  189.3320  177.1510  147.0270 C   0  0  0  0  0  0  0  0  0  0  0  0
  188.8090  176.0810  147.3060 O   0  0  0  0  0  0  0  0  0  0  0  0
  188.1850  178.0000  148.9200 O   0  0  0  0  0  1  0  0  0  0  0  0
  189.1810  178.2930  147.9880 C   0  0  0  0  0  2  0  0  0  0  0  0
  191.4260  176.4900  145.8650 C   0  0  0  0  0  2  0  0  0  0  0  0
  191.8120  175.0050  147.6980 O   0  0  0  0  0  0  0  0  0  0  0  0
  192.1790  177.2240  148.1340 O   0  0  0  0  0  1  0  0  0  0  0  0
  191.8200  176.1910  147.2790 C   0  0  0  0  0  0  0  0  0  0  0  0
  183.7020  178.3000  144.0760 O   0  0  0  0  0  0  0  0  0  0  0  0
  182.8800  179.3390  143.6350 C   0  0  0  0  0  2  0  0  0  0  0  0
  181.4310  178.8770  143.5970 C   0  0  0  0  0  2  0  0  0  0  0  0
  182.1050  178.6950  141.1970 C   0  0  0  0  0  1  0  0  0  0  0  0
  180.9380  178.7410  142.1640 C   0  0  0  0  0  2  0  0  0  0  0  0
  1 10  1  0  0  0  0
  3 15  1  0  0  0  0
  3  4  1  1  0  0  0
  4 14  1  0  0  0  0
  5 11  1  0  0  0  0
  6  3  1  0  0  0  0
  7  8  1  0  0  0  0
  7  1  1  0  0  0  0
  8 13  1  0  0  0  0
  9 14  1  0  0  0  0
 10  6  1  0  0  0  0
 10 12  1  0  0  0  0
 11  9  1  0  0  0  0
 12 15  1  0  0  0  0
 13  5  1  0  0  0  0
 13  6  1  0  0  0  0
 14  2  1  0  0  0  0
 15 17  1  0  0  0  0
 16 17  1  0  0  0  0
 17 22  1  0  0  0  0
 17 18  1  0  0  0  0
 18 19  2  0  0  0  0
 18 21  1  0  0  0  0
 21 20  1  0  0  0  0
 22 25  1  0  0  0  0
 25 23  2  0  0  0  0
 25 24  1  0  0  0  0
 26  9  1  0  0  0  0
 27 26  1  0  0  0  0
 28 27  1  0  0  0  0
 29 30  1  0  0  0  0
 30 28  1  0  0  0  0
M  END
>  <MODEL>
5

>  <REMARK>
 VINA RESULT:      -6.5      2.985      6.542
  Name = 
  9 active torsions:
  status: ('A' for Active; 'I' for Inactive)
    1  A    between atoms: C_3  and  C_29
    2  A    between atoms: C_3  and  C_30
    3  A    between atoms: C_5  and  C_6
    4  A    between atoms: C_5  and  C_8
    5  A    between atoms: C_6  and  O_15
    6  A    between atoms: O_15  and  C_16
    7  A    between atoms: C_17  and  C_19
    8  A    between atoms: C_19  and  C_30
    9  A    between atoms: C_26  and  C_30
                            x       y       z     vdW  Elec       q    Type
                         _______ _______ _______ _____ _____    ______ ____

>  <TORSDO>
F 9

$$$$
=
 OpenBabel11062413293D

 30 32  0  0  1  0  0  0  0  0999 V2000
  187.7150  178.0150  146.6120 O   0  0  0  0  0  0  0  0  0  0  0  0
  187.5330  178.7040  139.5470 O   0  0  0  0  0  1  0  0  0  0  0  0
  188.1120  178.2330  143.0240 C   0  0  1  0  0  3  0  0  0  0  0  0
  187.7620  177.6450  141.6650 C   0  0  0  0  0  2  0  0  0  0  0  0
  185.2920  179.0170  143.3100 C   0  0  0  0  0  2  0  0  0  0  0  0
  187.3110  177.6220  144.1680 C   0  0  1  0  0  3  0  0  0  0  0  0
  186.3480  177.9980  146.8340 N   0  0  0  0  0  2  0  0  0  0  0  0
  185.7040  178.8260  145.8070 C   0  0  0  0  0  2  0  0  0  0  0  0
  185.5160  178.5250  140.8240 C   0  0  2  0  0  3  0  0  0  0  0  0
  188.2110  177.8770  145.3170 C   0  0  1  0  0  3  0  0  0  0  0  0
  184.9010  178.0990  142.1600 C   0  0  0  0  0  2  0  0  0  0  0  0
  189.4600  178.1270  144.9760 C   0  0  0  0  0  2  0  0  0  0  0  0
  185.8820  178.1690  144.4300 C   0  0  1  0  0  3  0  0  0  0  0  0
  187.0400  178.7090  140.8510 C   0  0  2  0  0  3  0  0  0  0  0  0
  189.5910  178.1400  143.4810 C   0  0  1  0  0  3  0  0  0  0  0  0
  189.7000  175.6320  143.1240 C   0  0  0  0  0  1  0  0  0  0  0  0
  190.4520  176.9570  142.9410 C   0  0  1  0  0  0  0  0  0  0  0  0
  190.8000  177.2120  141.4810 C   0  0  0  0  0  0  0  0  0  0  0  0
  191.6910  178.0040  141.2040 O   0  0  0  0  0  0  0  0  0  0  0  0
  191.0070  176.0760  139.4110 O   0  0  0  0  0  1  0  0  0  0  0  0
  190.0850  176.5200  140.3600 C   0  0  0  0  0  2  0  0  0  0  0  0
  191.7640  176.9000  143.7500 C   0  0  0  0  0  2  0  0  0  0  0  0
  192.2030  174.5850  144.1560 O   0  0  0  0  0  0  0  0  0  0  0  0
  191.6360  175.8190  146.0020 O   0  0  0  0  0  1  0  0  0  0  0  0
  191.8870  175.7010  144.6410 C   0  0  0  0  0  0  0  0  0  0  0  0
  184.9090  179.6990  140.3720 O   0  0  0  0  0  0  0  0  0  0  0  0
  184.1690  179.3160  139.2500 C   0  0  0  0  0  2  0  0  0  0  0  0
  182.6870  179.2860  139.5910 C   0  0  0  0  0  2  0  0  0  0  0  0
  181.4360  180.5740  137.8520 C   0  0  0  0  0  1  0  0  0  0  0  0
  181.8390  179.1930  138.3310 C   0  0  0  0  0  2  0  0  0  0  0  0
  1  7  1  0  0  0  0
  2 14  1  0  0  0  0
  3  4  1  6  0  0  0
  3 15  1  0  0  0  0
  3  6  1  0  0  0  0
  5 13  1  0  0  0  0
  6 13  1  0  0  0  0
  6 10  1  0  0  0  0
  8  7  1  0  0  0  0
  9 14  1  0  0  0  0
  9 11  1  0  0  0  0
 10  1  1  0  0  0  0
 11  5  1  0  0  0  0
 12 10  1  0  0  0  0
 13  8  1  0  0  0  0
 14  4  1  0  0  0  0
 15 12  1  0  0  0  0
 17 16  1  0  0  0  0
 17 15  1  0  0  0  0
 17 22  1  0  0  0  0
 18 17  1  0  0  0  0
 19 18  2  0  0  0  0
 20 21  1  0  0  0  0
 21 18  1  0  0  0  0
 22 25  1  0  0  0  0
 23 25  2  0  0  0  0
 25 24  1  0  0  0  0
 26  9  1  0  0  0  0
 27 28  1  0  0  0  0
 27 26  1  0  0  0  0
 29 30  1  0  0  0  0
 30 28  1  0  0  0  0
M  END
>  <MODEL>
6

>  <REMARK>
 VINA RESULT:      -6.5      2.697      5.258
  Name = 
  9 active torsions:
  status: ('A' for Active; 'I' for Inactive)
    1  A    between atoms: C_3  and  C_29
    2  A    between atoms: C_3  and  C_30
    3  A    between atoms: C_5  and  C_6
    4  A    between atoms: C_5  and  C_8
    5  A    between atoms: C_6  and  O_15
    6  A    between atoms: O_15  and  C_16
    7  A    between atoms: C_17  and  C_19
    8  A    between atoms: C_19  and  C_30
    9  A    between atoms: C_26  and  C_30
                            x       y       z     vdW  Elec       q    Type
                         _______ _______ _______ _____ _____    ______ ____

>  <TORSDO>
F 9

$$$$
=
 OpenBabel11062413293D

 30 32  0  0  1  0  0  0  0  0999 V2000
  188.8370  177.5610  139.5450 O   0  0  0  0  0  0  0  0  0  0  0  0
  186.2610  177.3570  146.1590 O   0  0  0  0  0  1  0  0  0  0  0  0
  187.9670  177.2450  143.0420 C   0  0  1  0  0  3  0  0  0  0  0  0
  187.6900  177.9600  144.3560 C   0  0  0  0  0  2  0  0  0  0  0  0
  185.5050  178.4450  141.9730 C   0  0  0  0  0  2  0  0  0  0  0  0
  188.0900  178.1940  141.8550 C   0  0  1  0  0  3  0  0  0  0  0  0
  187.9130  178.4450  139.0120 N   0  0  0  0  0  2  0  0  0  0  0  0
  186.6360  178.2540  139.7090 C   0  0  0  0  0  2  0  0  0  0  0  0
  185.2650  178.7510  144.4880 C   0  0  2  0  0  3  0  0  0  0  0  0
  188.9150  177.3870  140.9260 C   0  0  1  0  0  3  0  0  0  0  0  0
  185.4610  179.4330  143.1310 C   0  0  0  0  0  2  0  0  0  0  0  0
  189.5730  176.4040  141.5070 C   0  0  0  0  0  2  0  0  0  0  0  0
  186.7810  178.6830  141.1760 C   0  0  1  0  0  3  0  0  0  0  0  0
  186.2700  177.6320  144.7930 C   0  0  2  0  0  3  0  0  0  0  0  0
  189.2350  176.3540  142.9690 C   0  0  1  0  0  3  0  0  0  0  0  0
  191.3270  175.4920  144.1140 C   0  0  0  0  0  1  0  0  0  0  0  0
  190.4450  176.7250  143.8810 C   0  0  1  0  0  0  0  0  0  0  0  0
  191.2250  177.8660  143.2430 C   0  0  0  0  0  0  0  0  0  0  0  0
  192.0560  177.6180  142.3800 O   0  0  0  0  0  0  0  0  0  0  0  0
  192.0940  179.7530  144.3850 O   0  0  0  0  0  1  0  0  0  0  0  0
  191.0070  179.2960  143.6380 C   0  0  0  0  0  2  0  0  0  0  0  0
  189.8990  177.2110  145.2410 C   0  0  0  0  0  2  0  0  0  0  0  0
  190.1810  176.1090  147.3430 O   0  0  0  0  0  1  0  0  0  0  0  0
  192.0550  177.1280  146.5060 O   0  0  0  0  0  0  0  0  0  0  0  0
  190.7140  176.7780  146.4210 C   0  0  0  0  0  0  0  0  0  0  0  0
  183.9630  178.2540  144.5870 O   0  0  0  0  0  0  0  0  0  0  0  0
  183.1370  179.3700  144.4400 C   0  0  0  0  0  2  0  0  0  0  0  0
  181.7820  178.9460  143.8940 C   0  0  0  0  0  2  0  0  0  0  0  0
  180.5930  179.3780  141.7390 C   0  0  0  0  0  1  0  0  0  0  0  0
  181.8290  178.7820  142.3820 C   0  0  0  0  0  2  0  0  0  0  0  0
  1 10  1  0  0  0  0
  3  4  1  1  0  0  0
  4 14  1  0  0  0  0
  5 11  1  0  0  0  0
  6  3  1  0  0  0  0
  7  1  1  0  0  0  0
  7  8  1  0  0  0  0
  8 13  1  0  0  0  0
  9 26  1  0  0  0  0
  9 14  1  0  0  0  0
 10 12  1  0  0  0  0
 10  6  1  0  0  0  0
 11  9  1  0  0  0  0
 12 15  1  0  0  0  0
 13  6  1  0  0  0  0
 13  5  1  0  0  0  0
 14  2  1  0  0  0  0
 15  3  1  0  0  0  0
 15 17  1  0  0  0  0
 17 16  1  0  0  0  0
 17 22  1  0  0  0  0
 18 21  1  0  0  0  0
 18 17  1  0  0  0  0
 19 18  2  0  0  0  0
 21 20  1  0  0  0  0
 22 25  1  0  0  0  0
 25 24  2  0  0  0  0
 25 23  1  0  0  0  0
 27 26  1  0  0  0  0
 28 27  1  0  0  0  0
 29 30  1  0  0  0  0
 30 28  1  0  0  0  0
M  END
>  <MODEL>
7

>  <REMARK>
 VINA RESULT:      -6.5      2.623      5.629
  Name = 
  9 active torsions:
  status: ('A' for Active; 'I' for Inactive)
    1  A    between atoms: C_3  and  C_29
    2  A    between atoms: C_3  and  C_30
    3  A    between atoms: C_5  and  C_6
    4  A    between atoms: C_5  and  C_8
    5  A    between atoms: C_6  and  O_15
    6  A    between atoms: O_15  and  C_16
    7  A    between atoms: C_17  and  C_19
    8  A    between atoms: C_19  and  C_30
    9  A    between atoms: C_26  and  C_30
                            x       y       z     vdW  Elec       q    Type
                         _______ _______ _______ _____ _____    ______ ____

>  <TORSDO>
F 9

$$$$
=
 OpenBabel11062413293D

 30 32  0  0  1  0  0  0  0  0999 V2000
  179.1070  178.0730  141.9590 O   0  0  0  0  0  0  0  0  0  0  0  0
  186.2060  178.1870  141.8420 O   0  0  0  0  0  1  0  0  0  0  0  0
  182.6810  178.0270  141.4040 C   0  0  1  0  0  3  0  0  0  0  0  0
  183.9720  178.8320  141.3440 C   0  0  0  0  0  2  0  0  0  0  0  0
  182.5840  178.5730  144.2920 C   0  0  0  0  0  2  0  0  0  0  0  0
  181.5000  178.8270  141.9430 C   0  0  1  0  0  3  0  0  0  0  0  0
  178.9310  178.6830  143.1900 N   0  0  0  0  0  2  0  0  0  0  0  0
  180.0690  178.3300  144.0460 C   0  0  0  0  0  2  0  0  0  0  0  0
  184.9850  179.1360  143.6680 C   0  0  2  0  0  3  0  0  0  0  0  0
  180.3600  178.0910  141.3480 C   0  0  1  0  0  3  0  0  0  0  0  0
  183.6290  179.6690  144.1400 C   0  0  0  0  0  2  0  0  0  0  0  0
  180.6860  177.3380  140.3160 C   0  0  0  0  0  2  0  0  0  0  0  0
  181.3520  178.9590  143.4830 C   0  0  1  0  0  3  0  0  0  0  0  0
  184.9300  178.2850  142.3920 C   0  0  2  0  0  3  0  0  0  0  0  0
  182.1680  177.4030  140.0810 C   0  0  1  0  0  3  0  0  0  0  0  0
  182.7470  179.6170  138.9870 C   0  0  0  0  0  1  0  0  0  0  0  0
  182.5340  178.1170  138.7430 C   0  0  1  0  0  0  0  0  0  0  0  0
  183.7710  177.4610  138.1440 C   0  0  0  0  0  0  0  0  0  0  0  0
  184.7700  178.1360  137.9360 O   0  0  0  0  0  0  0  0  0  0  0  0
  184.0900  175.8430  136.4420 O   0  0  0  0  0  1  0  0  0  0  0  0
  183.8080  176.0020  137.7990 C   0  0  0  0  0  2  0  0  0  0  0  0
  181.3620  177.9350  137.7560 C   0  0  0  0  0  2  0  0  0  0  0  0
  182.0290  178.2340  135.4800 O   0  0  0  0  0  0  0  0  0  0  0  0
  181.0190  180.0440  136.4570 O   0  0  0  0  0  1  0  0  0  0  0  0
  181.4870  178.7370  136.4970 C   0  0  0  0  0  0  0  0  0  0  0  0
  185.5930  178.4070  144.6930 O   0  0  0  0  0  0  0  0  0  0  0  0
  185.5610  179.2510  145.8060 C   0  0  0  0  0  2  0  0  0  0  0  0
  186.1240  178.5300  147.0220 C   0  0  0  0  0  2  0  0  0  0  0  0
  188.3040  177.5380  147.7340 C   0  0  0  0  0  1  0  0  0  0  0  0
  187.2680  177.6080  146.6290 C   0  0  0  0  0  2  0  0  0  0  0  0
  1  7  1  0  0  0  0
  2 14  1  0  0  0  0
  3  4  1  6  0  0  0
  3  6  1  0  0  0  0
  4 14  1  0  0  0  0
  6 13  1  0  0  0  0
  7  8  1  0  0  0  0
  9 11  1  0  0  0  0
  9 26  1  0  0  0  0
 10  6  1  0  0  0  0
 10  1  1  0  0  0  0
 11  5  1  0  0  0  0
 12 10  1  0  0  0  0
 13  8  1  0  0  0  0
 13  5  1  0  0  0  0
 14  9  1  0  0  0  0
 15 12  1  0  0  0  0
 15  3  1  0  0  0  0
 17 16  1  0  0  0  0
 17 15  1  0  0  0  0
 18 17  1  0  0  0  0
 19 18  2  0  0  0  0
 20 21  1  0  0  0  0
 21 18  1  0  0  0  0
 22 17  1  0  0  0  0
 23 25  2  0  0  0  0
 24 25  1  0  0  0  0
 25 22  1  0  0  0  0
 26 27  1  0  0  0  0
 27 28  1  0  0  0  0
 30 28  1  0  0  0  0
 30 29  1  0  0  0  0
M  END
>  <MODEL>
8

>  <REMARK>
 VINA RESULT:      -6.2      4.899      7.162
  Name = 
  9 active torsions:
  status: ('A' for Active; 'I' for Inactive)
    1  A    between atoms: C_3  and  C_29
    2  A    between atoms: C_3  and  C_30
    3  A    between atoms: C_5  and  C_6
    4  A    between atoms: C_5  and  C_8
    5  A    between atoms: C_6  and  O_15
    6  A    between atoms: O_15  and  C_16
    7  A    between atoms: C_17  and  C_19
    8  A    between atoms: C_19  and  C_30
    9  A    between atoms: C_26  and  C_30
                            x       y       z     vdW  Elec       q    Type
                         _______ _______ _______ _____ _____    ______ ____

>  <TORSDO>
F 9

$$$$
=
 OpenBabel11062413293D

 30 32  0  0  1  0  0  0  0  0999 V2000
  179.8700  178.5210  141.2150 O   0  0  0  0  0  0  0  0  0  0  0  0
  186.7800  177.8070  142.6880 O   0  0  0  0  0  1  0  0  0  0  0  0
  183.4480  178.0590  141.4710 C   0  0  1  0  0  3  0  0  0  0  0  0
  184.8030  178.7080  141.7200 C   0  0  0  0  0  2  0  0  0  0  0  0
  182.7680  178.6150  144.2770 C   0  0  0  0  0  2  0  0  0  0  0  0
  182.2750  178.9920  141.7520 C   0  0  1  0  0  3  0  0  0  0  0  0
  179.4920  179.1490  142.3910 N   0  0  0  0  0  2  0  0  0  0  0  0
  180.3620  178.6670  143.4700 C   0  0  0  0  0  2  0  0  0  0  0  0
  185.2960  178.8940  144.2190 C   0  0  2  0  0  3  0  0  0  0  0  0
  181.2210  178.3930  140.8990 C   0  0  1  0  0  3  0  0  0  0  0  0
  183.9380  179.5820  144.3890 C   0  0  0  0  0  2  0  0  0  0  0  0
  181.6830  177.6060  139.9480 C   0  0  0  0  0  2  0  0  0  0  0  0
  181.8010  179.1410  143.2230 C   0  0  1  0  0  3  0  0  0  0  0  0
  185.4320  178.0540  142.9410 C   0  0  2  0  0  3  0  0  0  0  0  0
  183.1780  177.4990  140.0500 C   0  0  1  0  0  3  0  0  0  0  0  0
  183.6610  177.3610  137.5650 C   0  0  0  0  0  1  0  0  0  0  0  0
  183.9140  178.1640  138.8470 C   0  0  1  0  0  0  0  0  0  0  0  0
  183.4510  179.6080  138.7100 C   0  0  0  0  0  0  0  0  0  0  0  0
  184.1800  180.5130  139.0930 O   0  0  0  0  0  0  0  0  0  0  0  0
  181.6540  181.1530  138.6740 O   0  0  0  0  0  1  0  0  0  0  0  0
  182.1220  179.9640  138.1140 C   0  0  0  0  0  2  0  0  0  0  0  0
  185.4280  178.1660  139.1430 C   0  0  0  0  0  2  0  0  0  0  0  0
  186.5790  176.7520  137.5960 O   0  0  0  0  0  1  0  0  0  0  0  0
  186.7850  179.0030  137.2160 O   0  0  0  0  0  0  0  0  0  0  0  0
  186.2910  177.9270  137.9410 C   0  0  0  0  0  0  0  0  0  0  0  0
  185.5710  178.0990  145.3350 O   0  0  0  0  0  0  0  0  0  0  0  0
  185.9050  179.0010  146.3480 C   0  0  0  0  0  2  0  0  0  0  0  0
  186.8840  178.3570  147.3170 C   0  0  0  0  0  2  0  0  0  0  0  0
  189.0500  177.1300  147.5420 C   0  0  0  0  0  1  0  0  0  0  0  0
  188.0140  177.6620  146.5710 C   0  0  0  0  0  2  0  0  0  0  0  0
  1  7  1  0  0  0  0
  2 14  1  0  0  0  0
  3  4  1  6  0  0  0
  3  6  1  0  0  0  0
  4 14  1  0  0  0  0
  5 11  1  0  0  0  0
  6 13  1  0  0  0  0
  7  8  1  0  0  0  0
  9 11  1  0  0  0  0
  9 26  1  0  0  0  0
 10  1  1  0  0  0  0
 10  6  1  0  0  0  0
 12 15  1  0  0  0  0
 12 10  1  0  0  0  0
 13  8  1  0  0  0  0
 13  5  1  0  0  0  0
 14  9  1  0  0  0  0
 15  3  1  0  0  0  0
 16 17  1  0  0  0  0
 17 22  1  0  0  0  0
 17 15  1  0  0  0  0
 18 17  1  0  0  0  0
 18 19  2  0  0  0  0
 21 20  1  0  0  0  0
 21 18  1  0  0  0  0
 23 25  1  0  0  0  0
 24 25  2  0  0  0  0
 25 22  1  0  0  0  0
 26 27  1  0  0  0  0
 27 28  1  0  0  0  0
 30 28  1  0  0  0  0
 30 29  1  0  0  0  0
M  END
>  <MODEL>
9

>  <REMARK>
 VINA RESULT:      -6.1      3.945      6.245
  Name = 
  9 active torsions:
  status: ('A' for Active; 'I' for Inactive)
    1  A    between atoms: C_3  and  C_29
    2  A    between atoms: C_3  and  C_30
    3  A    between atoms: C_5  and  C_6
    4  A    between atoms: C_5  and  C_8
    5  A    between atoms: C_6  and  O_15
    6  A    between atoms: O_15  and  C_16
    7  A    between atoms: C_17  and  C_19
    8  A    between atoms: C_19  and  C_30
    9  A    between atoms: C_26  and  C_30
                            x       y       z     vdW  Elec       q    Type
                         _______ _______ _______ _____ _____    ______ ____

>  <TORSDO>
F 9

$$$$
