=
 OpenBabel11062413533D

 25 28  0  0  1  0  0  0  0  0999 V2000
  187.5700  178.3420  141.2320 O   0  0  0  0  0  0  0  0  0  0  0  0
  186.2900  178.5710  144.6720 C   0  0  0  0  0  2  0  0  0  0  0  0
  188.8580  176.9150  144.3410 C   0  0  0  0  0  0  0  0  0  0  0  0
  186.0630  178.2590  143.2020 C   0  0  2  0  0  3  0  0  0  0  0  0
  187.9540  176.9750  145.4500 N   0  0  0  0  0  2  0  0  0  0  0  0
  188.5360  177.4190  142.9830 C   0  0  0  0  0  0  0  0  0  0  0  0
  188.7790  177.9830  140.8800 C   0  0  0  0  0  0  0  0  0  0  0  0
  187.3790  178.0280  142.4930 C   0  0  0  0  0  0  0  0  0  0  0  0
  186.5320  177.2660  145.3910 C   0  0  0  0  0  2  0  0  0  0  0  0
  190.0050  176.4380  144.5440 O   0  0  0  0  0  0  0  0  0  0  0  0
  189.4450  177.3950  141.9370 C   0  0  0  0  0  3  0  0  0  0  0  0
  183.3350  177.6280  138.1280 C   0  0  0  0  0  2  0  0  0  0  0  0
  185.3260  178.9170  138.2410 O   0  0  0  0  0  0  0  0  0  0  0  0
  184.3400  178.4440  138.8660 C   0  0  0  0  0  0  0  0  0  0  0  0
  182.9500  178.2250  142.4830 C   0  0  0  0  0  2  0  0  0  0  0  0
  182.7940  176.2480  139.1810 S   0  0  0  0  0  0  0  0  0  0  0  0
  185.2010  179.3450  142.5220 C   0  0  1  0  0  3  0  0  0  0  0  0
  185.2110  179.1660  141.0200 C   0  0  0  0  0  3  0  0  0  0  0  0
  183.7640  179.3710  143.0690 C   0  0  0  0  0  2  0  0  0  0  0  0
  184.1800  178.6790  140.3150 C   0  0  0  0  0  0  0  0  0  0  0  0
  182.8360  178.4340  140.9800 C   0  0  1  0  0  3  0  0  0  0  0  0
  181.9350  177.3720  140.3360 C   0  0  0  0  0  2  0  0  0  0  0  0
  189.3270  178.1870  139.5370 C   0  0  0  0  0  0  0  0  0  0  0  0
  190.4620  177.4910  139.1390 O   0  0  0  0  0  1  0  0  0  0  0  0
  188.7770  178.9910  138.7390 O   0  0  0  0  0  0  0  0  0  0  0  0
  1  8  1  0  0  0  0
  2  9  1  0  0  0  0
  3 10  2  0  0  0  0
  3  5  1  0  0  0  0
  4  2  1  1  0  0  0
  6  3  1  0  0  0  0
  7  1  1  0  0  0  0
  7 11  2  0  0  0  0
  8  6  2  0  0  0  0
  8  4  1  0  0  0  0
  9  5  1  0  0  0  0
 11  6  1  0  0  0  0
 12 14  1  0  0  0  0
 12 16  1  0  0  0  0
 13 14  2  0  0  0  0
 14 20  1  0  0  0  0
 15 19  1  0  0  0  0
 16 22  1  0  0  0  0
 17 18  1  6  0  0  0
 17 19  1  0  0  0  0
 17  4  1  0  0  0  0
 20 21  1  0  0  0  0
 20 18  2  0  0  0  0
 21 22  1  6  0  0  0
 21 15  1  0  0  0  0
 23  7  1  0  0  0  0
 24 23  1  0  0  0  0
 25 23  2  0  0  0  0
M  END
>  <MODEL>
1

>  <REMARK>
 VINA RESULT:      -7.7      0.000      0.000
  Name = 
  2 active torsions:
  status: ('A' for Active; 'I' for Inactive)
    1  A    between atoms: C_2  and  C_16
    2  A    between atoms: C_9  and  C_11
                            x       y       z     vdW  Elec       q    Type
                         _______ _______ _______ _____ _____    ______ ____

>  <TORSDO>
F 2

$$$$
=
 OpenBabel11062413533D

 25 28  0  0  1  0  0  0  0  0999 V2000
  190.0270  176.8890  142.4800 O   0  0  0  0  0  0  0  0  0  0  0  0
  187.3060  178.7160  140.8110 C   0  0  0  0  0  2  0  0  0  0  0  0
  186.6830  177.7650  143.6670 C   0  0  0  0  0  0  0  0  0  0  0  0
  188.3330  177.5950  140.8100 C   0  0  2  0  0  3  0  0  0  0  0  0
  185.7890  178.2360  142.6520 N   0  0  0  0  0  2  0  0  0  0  0  0
  188.0810  177.3400  143.4060 C   0  0  0  0  0  0  0  0  0  0  0  0
  190.1340  176.6690  143.7660 C   0  0  0  0  0  0  0  0  0  0  0  0
  188.8090  177.3010  142.2150 C   0  0  0  0  0  0  0  0  0  0  0  0
  185.9770  178.1260  141.2170 C   0  0  0  0  0  2  0  0  0  0  0  0
  186.2660  177.7470  144.8550 O   0  0  0  0  0  0  0  0  0  0  0  0
  188.9430  176.9340  144.4120 C   0  0  0  0  0  3  0  0  0  0  0  0
  189.5570  174.5120  136.0570 C   0  0  0  0  0  2  0  0  0  0  0  0
  190.9060  174.2700  137.9970 O   0  0  0  0  0  0  0  0  0  0  0  0
  190.1030  175.0000  137.3560 C   0  0  0  0  0  0  0  0  0  0  0  0
  188.2350  178.3830  137.7140 C   0  0  0  0  0  2  0  0  0  0  0  0
  187.8100  175.0010  135.9220 S   0  0  0  0  0  0  0  0  0  0  0  0
  189.4940  177.8970  139.8380 C   0  0  1  0  0  3  0  0  0  0  0  0
  189.9590  176.6270  139.1580 C   0  0  0  0  0  3  0  0  0  0  0  0
  189.1200  178.9730  138.8050 C   0  0  0  0  0  2  0  0  0  0  0  0
  189.6930  176.3170  137.8810 C   0  0  0  0  0  0  0  0  0  0  0  0
  189.0370  177.3320  136.9610 C   0  0  1  0  0  3  0  0  0  0  0  0
  188.2420  176.7690  135.7750 C   0  0  0  0  0  2  0  0  0  0  0  0
  191.3650  176.2010  144.4090 C   0  0  0  0  0  0  0  0  0  0  0  0
  191.8180  176.8180  145.5680 O   0  0  0  0  0  1  0  0  0  0  0  0
  192.0180  175.2430  143.9180 O   0  0  0  0  0  0  0  0  0  0  0  0
  1  7  1  0  0  0  0
  2  9  1  0  0  0  0
  3 10  2  0  0  0  0
  4  2  1  1  0  0  0
  4  8  1  0  0  0  0
  5  3  1  0  0  0  0
  6  3  1  0  0  0  0
  6 11  1  0  0  0  0
  7 23  1  0  0  0  0
  7 11  2  0  0  0  0
  8  1  1  0  0  0  0
  8  6  2  0  0  0  0
  9  5  1  0  0  0  0
 12 14  1  0  0  0  0
 14 20  1  0  0  0  0
 14 13  2  0  0  0  0
 15 19  1  0  0  0  0
 16 12  1  0  0  0  0
 17 19  1  6  0  0  0
 17  4  1  0  0  0  0
 18 17  1  0  0  0  0
 20 18  2  0  0  0  0
 21 22  1  6  0  0  0
 21 15  1  0  0  0  0
 21 20  1  0  0  0  0
 22 16  1  0  0  0  0
 23 24  1  0  0  0  0
 25 23  2  0  0  0  0
M  END
>  <MODEL>
2

>  <REMARK>
 VINA RESULT:      -7.6      3.059      5.464
  Name = 
  2 active torsions:
  status: ('A' for Active; 'I' for Inactive)
    1  A    between atoms: C_2  and  C_16
    2  A    between atoms: C_9  and  C_11
                            x       y       z     vdW  Elec       q    Type
                         _______ _______ _______ _____ _____    ______ ____

>  <TORSDO>
F 2

$$$$
=
 OpenBabel11062413533D

 25 28  0  0  1  0  0  0  0  0999 V2000
  185.3850  178.3460  141.3740 O   0  0  0  0  0  0  0  0  0  0  0  0
  182.5020  179.3630  143.4180 C   0  0  0  0  0  2  0  0  0  0  0  0
  185.0980  178.8510  144.9820 C   0  0  0  0  0  0  0  0  0  0  0  0
  183.1150  178.4480  142.3710 C   0  0  2  0  0  3  0  0  0  0  0  0
  183.7560  178.9770  145.4670 N   0  0  0  0  0  2  0  0  0  0  0  0
  185.4450  178.6250  143.5580 C   0  0  0  0  0  0  0  0  0  0  0  0
  186.6420  178.3810  141.7390 C   0  0  0  0  0  0  0  0  0  0  0  0
  184.6250  178.4950  142.4350 C   0  0  0  0  0  0  0  0  0  0  0  0
  182.5420  178.6430  144.7440 C   0  0  0  0  0  2  0  0  0  0  0  0
  186.0370  178.9770  145.8130 O   0  0  0  0  0  0  0  0  0  0  0  0
  186.7530  178.5560  143.1040 C   0  0  0  0  0  3  0  0  0  0  0  0
  180.4960  174.6040  138.9140 C   0  0  0  0  0  2  0  0  0  0  0  0
  182.7360  175.2560  138.4650 O   0  0  0  0  0  0  0  0  0  0  0  0
  181.6430  175.5510  139.0190 C   0  0  0  0  0  0  0  0  0  0  0  0
  180.1140  178.3060  141.2840 C   0  0  0  0  0  2  0  0  0  0  0  0
  179.6000  174.5720  140.4960 S   0  0  0  0  0  0  0  0  0  0  0  0
  182.5670  178.7590  140.9610 C   0  0  1  0  0  3  0  0  0  0  0  0
  182.5860  177.5160  140.0990 C   0  0  0  0  0  3  0  0  0  0  0  0
  181.1600  179.3790  141.0110 C   0  0  0  0  0  2  0  0  0  0  0  0
  181.4930  176.8100  139.7740 C   0  0  0  0  0  0  0  0  0  0  0  0
  180.1080  177.3320  140.1160 C   0  0  1  0  0  3  0  0  0  0  0  0
  178.9990  176.2810  140.2720 C   0  0  0  0  0  2  0  0  0  0  0  0
  187.7620  178.2480  140.8040 C   0  0  0  0  0  0  0  0  0  0  0  0
  188.9640  177.7020  141.2370 O   0  0  0  0  0  1  0  0  0  0  0  0
  187.6440  178.6270  139.6090 O   0  0  0  0  0  0  0  0  0  0  0  0
  1  7  1  0  0  0  0
  1  8  1  0  0  0  0
  2  9  1  0  0  0  0
  3  5  1  0  0  0  0
  3 10  2  0  0  0  0
  4  8  1  0  0  0  0
  4  2  1  1  0  0  0
  6  3  1  0  0  0  0
  7 11  2  0  0  0  0
  8  6  2  0  0  0  0
  9  5  1  0  0  0  0
 11  6  1  0  0  0  0
 12 14  1  0  0  0  0
 12 16  1  0  0  0  0
 13 14  2  0  0  0  0
 14 20  1  0  0  0  0
 17 18  1  6  0  0  0
 17 19  1  0  0  0  0
 17  4  1  0  0  0  0
 19 15  1  0  0  0  0
 20 18  2  0  0  0  0
 20 21  1  0  0  0  0
 21 22  1  1  0  0  0
 21 15  1  0  0  0  0
 22 16  1  0  0  0  0
 23 24  1  0  0  0  0
 23  7  1  0  0  0  0
 25 23  2  0  0  0  0
M  END
>  <MODEL>
3

>  <REMARK>
 VINA RESULT:      -7.2      2.390      3.461
  Name = 
  2 active torsions:
  status: ('A' for Active; 'I' for Inactive)
    1  A    between atoms: C_2  and  C_16
    2  A    between atoms: C_9  and  C_11
                            x       y       z     vdW  Elec       q    Type
                         _______ _______ _______ _____ _____    ______ ____

>  <TORSDO>
F 2

$$$$
=
 OpenBabel11062413533D

 25 28  0  0  1  0  0  0  0  0999 V2000
  184.2030  178.4630  142.7720 O   0  0  0  0  0  0  0  0  0  0  0  0
  184.4110  177.6510  139.1920 C   0  0  0  0  0  2  0  0  0  0  0  0
  187.0580  178.5170  140.4920 C   0  0  0  0  0  0  0  0  0  0  0  0
  183.7600  178.4170  140.3310 C   0  0  2  0  0  3  0  0  0  0  0  0
  186.7210  178.4090  139.1040 N   0  0  0  0  0  2  0  0  0  0  0  0
  186.0570  178.5320  141.5880 C   0  0  0  0  0  0  0  0  0  0  0  0
  185.2090  178.5410  143.6070 C   0  0  0  0  0  0  0  0  0  0  0  0
  184.6640  178.4490  141.5430 C   0  0  0  0  0  0  0  0  0  0  0  0
  185.4020  178.5710  138.5210 C   0  0  0  0  0  2  0  0  0  0  0  0
  188.2790  178.5640  140.7980 O   0  0  0  0  0  0  0  0  0  0  0  0
  186.4100  178.5880  142.9270 C   0  0  0  0  0  3  0  0  0  0  0  0
  178.9310  181.6110  140.6000 C   0  0  0  0  0  2  0  0  0  0  0  0
  179.9590  180.8610  142.6050 O   0  0  0  0  0  0  0  0  0  0  0  0
  179.8110  180.6840  141.3660 C   0  0  0  0  0  0  0  0  0  0  0  0
  181.1280  178.4000  138.5190 C   0  0  0  0  0  2  0  0  0  0  0  0
  179.6780  181.9380  138.9740 S   0  0  0  0  0  0  0  0  0  0  0  0
  182.3540  177.8650  140.6500 C   0  0  1  0  0  3  0  0  0  0  0  0
  181.4990  178.9330  141.2970 C   0  0  0  0  0  3  0  0  0  0  0  0
  181.6640  177.2820  139.4040 C   0  0  0  0  0  2  0  0  0  0  0  0
  180.5070  179.5820  140.6710 C   0  0  0  0  0  0  0  0  0  0  0  0
  180.0510  179.1490  139.2890 C   0  0  1  0  0  3  0  0  0  0  0  0
  179.3880  180.2240  138.4160 C   0  0  0  0  0  2  0  0  0  0  0  0
  185.0540  178.5760  145.0640 C   0  0  0  0  0  0  0  0  0  0  0  0
  183.8620  179.0220  145.6220 O   0  0  0  0  0  0  0  0  0  0  0  0
  185.9930  178.2040  145.8140 O   0  0  0  0  0  1  0  0  0  0  0  0
  1  7  1  0  0  0  0
  3 10  2  0  0  0  0
  3  6  1  0  0  0  0
  4  2  1  6  0  0  0
  4 17  1  0  0  0  0
  4  8  1  0  0  0  0
  5  3  1  0  0  0  0
  6 11  1  0  0  0  0
  7 23  1  0  0  0  0
  8  6  2  0  0  0  0
  8  1  1  0  0  0  0
  9  5  1  0  0  0  0
  9  2  1  0  0  0  0
 11  7  2  0  0  0  0
 12 14  1  0  0  0  0
 14 13  2  0  0  0  0
 15 21  1  0  0  0  0
 15 19  1  0  0  0  0
 16 12  1  0  0  0  0
 17 19  1  6  0  0  0
 17 18  1  0  0  0  0
 20 18  2  0  0  0  0
 20 14  1  0  0  0  0
 21 22  1  6  0  0  0
 21 20  1  0  0  0  0
 22 16  1  0  0  0  0
 23 24  2  0  0  0  0
 23 25  1  0  0  0  0
M  END
>  <MODEL>
4

>  <REMARK>
 VINA RESULT:      -7.1      3.458      5.377
  Name = 
  2 active torsions:
  status: ('A' for Active; 'I' for Inactive)
    1  A    between atoms: C_2  and  C_16
    2  A    between atoms: C_9  and  C_11
                            x       y       z     vdW  Elec       q    Type
                         _______ _______ _______ _____ _____    ______ ____

>  <TORSDO>
F 2

$$$$
=
 OpenBabel11062413533D

 25 28  0  0  1  0  0  0  0  0999 V2000
  188.0600  177.5470  141.6770 O   0  0  0  0  0  0  0  0  0  0  0  0
  184.6890  177.8780  143.1090 C   0  0  0  0  0  2  0  0  0  0  0  0
  185.1070  179.2880  140.4100 C   0  0  0  0  0  0  0  0  0  0  0  0
  186.1970  178.0030  143.2510 C   0  0  2  0  0  3  0  0  0  0  0  0
  184.0460  179.4420  141.3600 N   0  0  0  0  0  2  0  0  0  0  0  0
  186.4010  178.6280  140.7140 C   0  0  0  0  0  0  0  0  0  0  0  0
  188.3950  177.7690  140.4310 C   0  0  0  0  0  0  0  0  0  0  0  0
  186.8630  178.0420  141.8940 C   0  0  0  0  0  0  0  0  0  0  0  0
  184.1380  179.2480  142.7960 C   0  0  0  0  0  2  0  0  0  0  0  0
  184.9110  179.7050  139.2380 O   0  0  0  0  0  0  0  0  0  0  0  0
  187.3930  178.4460  139.7640 C   0  0  0  0  0  3  0  0  0  0  0  0
  191.8190  176.6730  143.7160 C   0  0  0  0  0  2  0  0  0  0  0  0
  190.3720  175.2530  142.4780 O   0  0  0  0  0  0  0  0  0  0  0  0
  190.4730  176.1300  143.3780 C   0  0  0  0  0  0  0  0  0  0  0  0
  188.2170  178.2530  145.7150 C   0  0  0  0  0  2  0  0  0  0  0  0
  191.6810  178.4560  144.0450 S   0  0  0  0  0  0  0  0  0  0  0  0
  186.7700  176.8990  144.1660 C   0  0  1  0  0  3  0  0  0  0  0  0
  188.0600  176.3520  143.5930 C   0  0  0  0  0  3  0  0  0  0  0  0
  186.9680  177.3880  145.6110 C   0  0  0  0  0  2  0  0  0  0  0  0
  189.2770  176.6300  144.0840 C   0  0  0  0  0  0  0  0  0  0  0  0
  189.4270  177.3910  145.3890 C   0  0  1  0  0  3  0  0  0  0  0  0
  190.7350  178.1720  145.5810 C   0  0  0  0  0  2  0  0  0  0  0  0
  189.6710  177.3460  139.8460 C   0  0  0  0  0  0  0  0  0  0  0  0
  189.6810  176.4540  138.7800 O   0  0  0  0  0  0  0  0  0  0  0  0
  190.7590  177.7840  140.3030 O   0  0  0  0  0  1  0  0  0  0  0  0
  1  8  1  0  0  0  0
  3  6  1  0  0  0  0
  3  5  1  0  0  0  0
  4  2  1  6  0  0  0
  4 17  1  0  0  0  0
  5  9  1  0  0  0  0
  6  8  2  0  0  0  0
  7  1  1  0  0  0  0
  8  4  1  0  0  0  0
  9  2  1  0  0  0  0
 10  3  2  0  0  0  0
 11  7  2  0  0  0  0
 11  6  1  0  0  0  0
 12 16  1  0  0  0  0
 13 14  2  0  0  0  0
 14 12  1  0  0  0  0
 14 20  1  0  0  0  0
 16 22  1  0  0  0  0
 17 18  1  6  0  0  0
 17 19  1  0  0  0  0
 18 20  2  0  0  0  0
 19 15  1  0  0  0  0
 20 21  1  0  0  0  0
 21 22  1  6  0  0  0
 21 15  1  0  0  0  0
 23 25  1  0  0  0  0
 23  7  1  0  0  0  0
 24 23  2  0  0  0  0
M  END
>  <MODEL>
5

>  <REMARK>
 VINA RESULT:      -7.1      2.919      5.770
  Name = 
  2 active torsions:
  status: ('A' for Active; 'I' for Inactive)
    1  A    between atoms: C_2  and  C_16
    2  A    between atoms: C_9  and  C_11
                            x       y       z     vdW  Elec       q    Type
                         _______ _______ _______ _____ _____    ______ ____

>  <TORSDO>
F 2

$$$$
=
 OpenBabel11062413533D

 25 28  0  0  1  0  0  0  0  0999 V2000
  187.1280  178.4840  140.2000 O   0  0  0  0  0  0  0  0  0  0  0  0
  184.7670  179.1270  142.9450 C   0  0  0  0  0  2  0  0  0  0  0  0
  187.5250  178.0810  143.8110 C   0  0  0  0  0  0  0  0  0  0  0  0
  185.0890  178.4690  141.6130 C   0  0  2  0  0  3  0  0  0  0  0  0
  186.3080  178.1620  144.5620 N   0  0  0  0  0  2  0  0  0  0  0  0
  187.5940  178.2000  142.3330 C   0  0  0  0  0  0  0  0  0  0  0  0
  188.4260  178.3490  140.3120 C   0  0  0  0  0  0  0  0  0  0  0  0
  186.5840  178.4060  141.3920 C   0  0  0  0  0  0  0  0  0  0  0  0
  184.9590  178.0950  144.0300 C   0  0  0  0  0  2  0  0  0  0  0  0
  188.6010  177.9370  144.4490 O   0  0  0  0  0  0  0  0  0  0  0  0
  188.7890  178.1680  141.6320 C   0  0  0  0  0  3  0  0  0  0  0  0
  184.0250  176.0390  136.4600 C   0  0  0  0  0  2  0  0  0  0  0  0
  185.7410  177.6690  136.6610 O   0  0  0  0  0  0  0  0  0  0  0  0
  184.6760  177.1950  137.1400 C   0  0  0  0  0  0  0  0  0  0  0  0
  182.3390  177.6560  140.2030 C   0  0  0  0  0  2  0  0  0  0  0  0
  183.3640  174.9010  137.7150 S   0  0  0  0  0  0  0  0  0  0  0  0
  184.3420  179.1580  140.4500 C   0  0  1  0  0  3  0  0  0  0  0  0
  184.8030  178.6010  139.1210 C   0  0  0  0  0  3  0  0  0  0  0  0
  182.8140  179.0480  140.5970 C   0  0  0  0  0  2  0  0  0  0  0  0
  184.0810  177.7610  138.3670 C   0  0  0  0  0  0  0  0  0  0  0  0
  182.6390  177.4450  138.7270 C   0  0  1  0  0  3  0  0  0  0  0  0
  182.0880  176.1000  138.2330 C   0  0  0  0  0  2  0  0  0  0  0  0
  189.3470  178.3880  139.1730 C   0  0  0  0  0  0  0  0  0  0  0  0
  189.0970  179.2470  138.1110 O   0  0  0  0  0  0  0  0  0  0  0  0
  190.3650  177.6470  139.1500 O   0  0  0  0  0  1  0  0  0  0  0  0
  1  7  1  0  0  0  0
  1  8  1  0  0  0  0
  2  9  1  0  0  0  0
  3 10  2  0  0  0  0
  3  5  1  0  0  0  0
  4  2  1  1  0  0  0
  6  3  1  0  0  0  0
  7 11  2  0  0  0  0
  8  4  1  0  0  0  0
  8  6  2  0  0  0  0
  9  5  1  0  0  0  0
 11  6  1  0  0  0  0
 12 14  1  0  0  0  0
 12 16  1  0  0  0  0
 13 14  2  0  0  0  0
 14 20  1  0  0  0  0
 15 19  1  0  0  0  0
 16 22  1  0  0  0  0
 17 18  1  6  0  0  0
 17 19  1  0  0  0  0
 17  4  1  0  0  0  0
 20 21  1  0  0  0  0
 20 18  2  0  0  0  0
 21 22  1  1  0  0  0
 21 15  1  0  0  0  0
 23  7  1  0  0  0  0
 24 23  2  0  0  0  0
 25 23  1  0  0  0  0
M  END
>  <MODEL>
6

>  <REMARK>
 VINA RESULT:      -6.9      1.325      2.022
  Name = 
  2 active torsions:
  status: ('A' for Active; 'I' for Inactive)
    1  A    between atoms: C_2  and  C_16
    2  A    between atoms: C_9  and  C_11
                            x       y       z     vdW  Elec       q    Type
                         _______ _______ _______ _____ _____    ______ ____

>  <TORSDO>
F 2

$$$$
=
 OpenBabel11062413533D

 25 28  0  0  1  0  0  0  0  0999 V2000
  185.1500  178.2530  141.5670 O   0  0  0  0  0  0  0  0  0  0  0  0
  181.6720  179.2700  142.1930 C   0  0  0  0  0  2  0  0  0  0  0  0
  183.3970  178.8960  144.7090 C   0  0  0  0  0  0  0  0  0  0  0  0
  182.6700  178.3300  141.5360 C   0  0  2  0  0  3  0  0  0  0  0  0
  181.9740  179.0030  144.5920 N   0  0  0  0  0  2  0  0  0  0  0  0
  184.3030  178.6220  143.5660 C   0  0  0  0  0  0  0  0  0  0  0  0
  186.1440  178.3380  142.4150 C   0  0  0  0  0  0  0  0  0  0  0  0
  184.0200  178.4230  142.2130 C   0  0  0  0  0  0  0  0  0  0  0  0
  181.1690  178.6060  143.4510 C   0  0  0  0  0  2  0  0  0  0  0  0
  183.9090  179.0830  145.8450 O   0  0  0  0  0  0  0  0  0  0  0  0
  185.6820  178.5720  143.6950 C   0  0  0  0  0  3  0  0  0  0  0  0
  181.5160  174.3360  137.4990 C   0  0  0  0  0  2  0  0  0  0  0  0
  183.7700  174.9220  137.9640 O   0  0  0  0  0  0  0  0  0  0  0  0
  182.5590  175.2680  138.0140 C   0  0  0  0  0  0  0  0  0  0  0  0
  180.3580  178.1770  139.3360 C   0  0  0  0  0  2  0  0  0  0  0  0
  180.0580  174.4120  138.5830 S   0  0  0  0  0  0  0  0  0  0  0  0
  182.7490  178.5680  140.0130 C   0  0  1  0  0  3  0  0  0  0  0  0
  183.0640  177.2760  139.2910 C   0  0  0  0  0  3  0  0  0  0  0  0
  181.4670  179.2140  139.4600 C   0  0  0  0  0  2  0  0  0  0  0  0
  182.1680  176.5720  138.5850 C   0  0  0  0  0  0  0  0  0  0  0  0
  180.7840  177.1360  138.3120 C   0  0  1  0  0  3  0  0  0  0  0  0
  179.6660  176.1160  138.0560 C   0  0  0  0  0  2  0  0  0  0  0  0
  187.5520  178.2000  142.0310 C   0  0  0  0  0  0  0  0  0  0  0  0
  187.9650  178.5900  140.7630 O   0  0  0  0  0  0  0  0  0  0  0  0
  188.3910  177.7280  142.8420 O   0  0  0  0  0  1  0  0  0  0  0  0
  1  8  1  0  0  0  0
  1  7  1  0  0  0  0
  2  9  1  0  0  0  0
  3 10  2  0  0  0  0
  4  2  1  1  0  0  0
  4  8  1  0  0  0  0
  5  3  1  0  0  0  0
  6 11  1  0  0  0  0
  6  3  1  0  0  0  0
  7 11  2  0  0  0  0
  8  6  2  0  0  0  0
  9  5  1  0  0  0  0
 12 14  1  0  0  0  0
 12 16  1  0  0  0  0
 13 14  2  0  0  0  0
 14 20  1  0  0  0  0
 15 19  1  0  0  0  0
 17 18  1  6  0  0  0
 17  4  1  0  0  0  0
 19 17  1  0  0  0  0
 20 18  2  0  0  0  0
 21 22  1  1  0  0  0
 21 20  1  0  0  0  0
 21 15  1  0  0  0  0
 22 16  1  0  0  0  0
 23  7  1  0  0  0  0
 23 25  1  0  0  0  0
 24 23  2  0  0  0  0
M  END
>  <MODEL>
7

>  <REMARK>
 VINA RESULT:      -6.7      2.695      4.261
  Name = 
  2 active torsions:
  status: ('A' for Active; 'I' for Inactive)
    1  A    between atoms: C_2  and  C_16
    2  A    between atoms: C_9  and  C_11
                            x       y       z     vdW  Elec       q    Type
                         _______ _______ _______ _____ _____    ______ ____

>  <TORSDO>
F 2

$$$$
=
 OpenBabel11062413533D

 25 28  0  0  1  0  0  0  0  0999 V2000
  187.1560  178.6600  139.8160 O   0  0  0  0  0  0  0  0  0  0  0  0
  190.4080  177.0690  139.1710 C   0  0  0  0  0  2  0  0  0  0  0  0
  189.6840  177.4070  142.1390 C   0  0  0  0  0  0  0  0  0  0  0  0
  189.4370  178.2160  138.9460 C   0  0  2  0  0  3  0  0  0  0  0  0
  190.9500  177.1020  141.5430 N   0  0  0  0  0  2  0  0  0  0  0  0
  188.5220  177.9420  141.3860 C   0  0  0  0  0  0  0  0  0  0  0  0
  186.4900  178.6280  140.9430 C   0  0  0  0  0  0  0  0  0  0  0  0
  188.3850  178.2500  140.0310 C   0  0  0  0  0  0  0  0  0  0  0  0
  191.4010  177.5020  140.2220 C   0  0  0  0  0  2  0  0  0  0  0  0
  189.5410  177.1700  143.3680 O   0  0  0  0  0  0  0  0  0  0  0  0
  187.2910  178.1830  141.9760 C   0  0  0  0  0  3  0  0  0  0  0  0
  190.6690  174.2050  134.9480 C   0  0  0  0  0  2  0  0  0  0  0  0
  191.5980  176.3820  134.7550 O   0  0  0  0  0  0  0  0  0  0  0  0
  190.6780  175.6670  135.2350 C   0  0  0  0  0  0  0  0  0  0  0  0
  187.6100  175.9700  137.5930 C   0  0  0  0  0  2  0  0  0  0  0  0
  190.1390  173.3050  136.4370 S   0  0  0  0  0  0  0  0  0  0  0  0
  188.8300  178.1690  137.5270 C   0  0  1  0  0  3  0  0  0  0  0  0
  189.7860  177.5010  136.5630 C   0  0  0  0  0  3  0  0  0  0  0  0
  187.4530  177.4830  137.5080 C   0  0  0  0  0  2  0  0  0  0  0  0
  189.6240  176.2590  136.0830 C   0  0  0  0  0  0  0  0  0  0  0  0
  188.3410  175.4910  136.3480 C   0  0  1  0  0  3  0  0  0  0  0  0
  188.4390  173.9590  136.3140 C   0  0  0  0  0  2  0  0  0  0  0  0
  185.0830  179.0190  141.0650 C   0  0  0  0  0  0  0  0  0  0  0  0
  184.4790  179.7530  140.0520 O   0  0  0  0  0  0  0  0  0  0  0  0
  184.4170  178.6950  142.0830 O   0  0  0  0  0  1  0  0  0  0  0  0
  1  8  1  0  0  0  0
  1  7  1  0  0  0  0
  2  9  1  0  0  0  0
  3 10  2  0  0  0  0
  4  2  1  1  0  0  0
  4  8  1  0  0  0  0
  5  3  1  0  0  0  0
  6 11  1  0  0  0  0
  6  3  1  0  0  0  0
  7 23  1  0  0  0  0
  7 11  2  0  0  0  0
  8  6  2  0  0  0  0
  9  5  1  0  0  0  0
 12 14  1  0  0  0  0
 12 16  1  0  0  0  0
 13 14  2  0  0  0  0
 14 20  1  0  0  0  0
 17 18  1  6  0  0  0
 17  4  1  0  0  0  0
 19 17  1  0  0  0  0
 19 15  1  0  0  0  0
 20 21  1  0  0  0  0
 20 18  2  0  0  0  0
 21 22  1  1  0  0  0
 21 15  1  0  0  0  0
 22 16  1  0  0  0  0
 23 25  1  0  0  0  0
 24 23  2  0  0  0  0
M  END
>  <MODEL>
8

>  <REMARK>
 VINA RESULT:      -6.5      3.521      6.028
  Name = 
  2 active torsions:
  status: ('A' for Active; 'I' for Inactive)
    1  A    between atoms: C_2  and  C_16
    2  A    between atoms: C_9  and  C_11
                            x       y       z     vdW  Elec       q    Type
                         _______ _______ _______ _____ _____    ______ ____

>  <TORSDO>
F 2

$$$$
=
 OpenBabel11062413533D

 25 28  0  0  1  0  0  0  0  0999 V2000
  186.5950  178.0280  142.4450 O   0  0  0  0  0  0  0  0  0  0  0  0
  185.2590  177.5080  145.8310 C   0  0  0  0  0  2  0  0  0  0  0  0
  183.7340  179.5600  144.1250 C   0  0  0  0  0  0  0  0  0  0  0  0
  186.4280  177.8180  144.9110 C   0  0  2  0  0  3  0  0  0  0  0  0
  183.6700  179.3270  145.5370 N   0  0  0  0  0  2  0  0  0  0  0  0
  184.8160  179.0470  143.2500 C   0  0  0  0  0  0  0  0  0  0  0  0
  185.9630  178.5850  141.4420 C   0  0  0  0  0  0  0  0  0  0  0  0
  185.9390  178.2740  143.5550 C   0  0  0  0  0  0  0  0  0  0  0  0
  184.7380  178.8150  146.3760 C   0  0  0  0  0  2  0  0  0  0  0  0
  182.7930  180.2080  143.5940 O   0  0  0  0  0  0  0  0  0  0  0  0
  184.8310  179.2430  141.8780 C   0  0  0  0  0  3  0  0  0  0  0  0
  191.7770  178.0830  142.6950 C   0  0  0  0  0  2  0  0  0  0  0  0
  190.0320  177.0710  141.4400 O   0  0  0  0  0  0  0  0  0  0  0  0
  190.4530  177.4080  142.5790 C   0  0  0  0  0  0  0  0  0  0  0  0
  189.2900  177.4370  146.2820 C   0  0  0  0  0  2  0  0  0  0  0  0
  191.6800  179.3770  143.9680 S   0  0  0  0  0  0  0  0  0  0  0  0
  187.4070  176.6270  144.8240 C   0  0  1  0  0  3  0  0  0  0  0  0
  188.3580  176.8070  143.6600 C   0  0  0  0  0  3  0  0  0  0  0  0
  188.1750  176.4090  146.1390 C   0  0  0  0  0  2  0  0  0  0  0  0
  189.6470  177.1530  143.7900 C   0  0  0  0  0  0  0  0  0  0  0  0
  190.2950  177.2150  145.1620 C   0  0  1  0  0  3  0  0  0  0  0  0
  191.5060  178.1470  145.3070 C   0  0  0  0  0  2  0  0  0  0  0  0
  186.4200  178.5050  140.0510 C   0  0  0  0  0  0  0  0  0  0  0  0
  185.5210  178.7250  139.0150 O   0  0  0  0  0  0  0  0  0  0  0  0
  187.6220  178.2390  139.7880 O   0  0  0  0  0  1  0  0  0  0  0  0
  1  8  1  0  0  0  0
  2  9  1  0  0  0  0
  3  5  1  0  0  0  0
  4  2  1  1  0  0  0
  5  9  1  0  0  0  0
  6  8  2  0  0  0  0
  6  3  1  0  0  0  0
  7 11  2  0  0  0  0
  7  1  1  0  0  0  0
  8  4  1  0  0  0  0
 10  3  2  0  0  0  0
 11  6  1  0  0  0  0
 12 16  1  0  0  0  0
 13 14  2  0  0  0  0
 14 12  1  0  0  0  0
 14 20  1  0  0  0  0
 16 22  1  0  0  0  0
 17 18  1  6  0  0  0
 17  4  1  0  0  0  0
 17 19  1  0  0  0  0
 18 20  2  0  0  0  0
 19 15  1  0  0  0  0
 20 21  1  0  0  0  0
 21 22  1  6  0  0  0
 21 15  1  0  0  0  0
 23  7  1  0  0  0  0
 24 23  2  0  0  0  0
 25 23  1  0  0  0  0
M  END
>  <MODEL>
9

>  <REMARK>
 VINA RESULT:      -6.5      3.029      5.973
  Name = 
  2 active torsions:
  status: ('A' for Active; 'I' for Inactive)
    1  A    between atoms: C_2  and  C_16
    2  A    between atoms: C_9  and  C_11
                            x       y       z     vdW  Elec       q    Type
                         _______ _______ _______ _____ _____    ______ ____

>  <TORSDO>
F 2

$$$$
