=
 OpenBabel11062415313D

 37 42  0  0  1  0  0  0  0  0999 V2000
  189.3510  177.2470  137.4670 C   0  0  0  0  0  3  0  0  0  0  0  0
  190.9810  176.9060  139.8600 C   0  0  0  0  0  3  0  0  0  0  0  0
  188.8030  177.5820  138.6350 C   0  0  2  0  0  3  0  0  0  0  0  0
  189.5560  177.4150  139.8990 C   0  0  0  0  0  0  0  0  0  0  0  0
  188.9500  177.7460  141.0610 C   0  0  0  0  0  0  0  0  0  0  0  0
  191.4540  176.5250  138.4830 C   0  0  0  0  0  3  0  0  0  0  0  0
  187.5930  178.2470  141.0390 N   0  0  0  0  0  0  0  0  0  0  0  0
  187.4690  178.0930  138.6640 N   0  0  0  0  0  0  0  0  0  0  0  0
  186.8990  178.4050  139.7850 C   0  0  0  0  0  3  0  0  0  0  0  0
  190.7150  176.7010  137.3840 C   0  0  0  0  0  0  0  0  0  0  0  0
  191.4330  177.6940  144.6400 C   0  0  0  0  0  0  0  0  0  0  0  0
  191.1320  178.9250  143.9070 C   0  0  0  0  0  3  0  0  0  0  0  0
  191.8980  177.5900  145.8550 O   0  0  0  0  0  0  0  0  0  0  0  0
  191.2210  176.4430  144.1550 C   0  0  0  0  0  0  0  0  0  0  0  0
  191.5490  175.5340  145.0890 N   0  0  0  0  0  0  0  0  0  0  0  0
  189.6440  177.6030  142.3950 C   0  0  1  0  0  3  0  0  0  0  0  0
  190.6990  176.0990  142.4760 S   0  0  0  0  0  0  0  0  0  0  0  0
  191.9650  176.3000  146.1300 C   0  0  0  0  0  3  0  0  0  0  0  0
  190.3370  178.8790  142.8310 C   0  0  0  0  0  3  0  0  0  0  0  0
  185.6570  179.3940  142.0750 C   0  0  0  0  0  2  0  0  0  0  0  0
  186.1070  177.4240  142.8360 C   0  0  0  0  0  2  0  0  0  0  0  0
  186.9280  178.5880  142.3040 C   0  0  1  0  0  3  0  0  0  0  0  0
  184.8340  178.2310  142.6080 C   0  0  1  0  0  3  0  0  0  0  0  0
  184.1080  178.5890  143.8430 N   0  0  0  0  0  0  0  0  0  0  0  0
  181.9510  178.9750  142.5960 C   0  0  0  0  0  1  0  0  0  0  0  0
  182.6480  178.3700  143.8130 C   0  0  0  0  0  2  0  0  0  0  0  0
  184.4460  179.9540  144.2360 C   0  0  0  0  0  2  0  0  0  0  0  0
  185.2550  179.9480  145.5250 C   0  0  0  0  0  2  0  0  0  0  0  0
  185.1640  178.6030  146.2370 C   0  0  0  0  0  2  0  0  0  0  0  0
  186.4830  178.1970  146.8040 C   0  0  0  0  0  0  0  0  0  0  0  0
  188.5850  177.0100  146.5830 C   0  0  0  0  0  3  0  0  0  0  0  0
  188.9450  177.4090  147.8740 C   0  0  0  0  0  3  0  0  0  0  0  0
  188.0760  178.2000  148.6320 C   0  0  0  0  0  3  0  0  0  0  0  0
  187.3540  177.4030  146.0490 C   0  0  0  0  0  3  0  0  0  0  0  0
  186.8450  178.5940  148.0970 C   0  0  0  0  0  3  0  0  0  0  0  0
  191.2580  176.2890  136.0620 C   0  0  0  0  0  2  0  0  0  0  0  0
  190.3000  176.6030  135.0160 N   0  0  0  0  0  1  0  0  0  0  0  0
  2  4  1  0  0  0  0
  3  1  1  1  0  0  0
  3  8  1  0  0  0  0
  3  4  1  0  0  0  0
  4  5  2  0  0  0  0
  6  2  2  0  0  0  0
  7  5  1  0  0  0  0
  8  9  2  0  0  0  0
  9  7  1  0  0  0  0
 10  1  2  0  0  0  0
 10  6  1  0  0  0  0
 11 13  1  0  0  0  0
 12 11  1  0  0  0  0
 13 18  1  0  0  0  0
 14 11  2  0  0  0  0
 14 15  1  0  0  0  0
 15 18  2  0  0  0  0
 16  5  1  6  0  0  0
 16 17  1  0  0  0  0
 16 19  1  0  0  0  0
 17 14  1  0  0  0  0
 19 12  2  0  0  0  0
 20 22  1  0  0  0  0
 20 23  1  0  0  0  0
 22  7  1  6  0  0  0
 22 21  1  0  0  0  0
 23 21  1  0  0  0  0
 23 24  1  1  0  0  0
 24 27  1  0  0  0  0
 25 26  1  0  0  0  0
 26 24  1  0  0  0  0
 27 28  1  0  0  0  0
 28 29  1  0  0  0  0
 29 30  1  0  0  0  0
 30 35  1  0  0  0  0
 31 32  2  0  0  0  0
 32 33  1  0  0  0  0
 34 31  1  0  0  0  0
 34 30  2  0  0  0  0
 35 33  2  0  0  0  0
 36 10  1  0  0  0  0
 37 36  1  0  0  0  0
M  END
>  <MODEL>
1

>  <REMARK>
 VINA RESULT:      -8.2      0.000      0.000
  Name = 
  9 active torsions:
  status: ('A' for Active; 'I' for Inactive)
    1  A    between atoms: C_3  and  C_35
    2  A    between atoms: C_3  and  C_37
    3  A    between atoms: C_5  and  C_29
    4  A    between atoms: N_8  and  C_16
    5  A    between atoms: N_8  and  C_34
    6  A    between atoms: N_8  and  C_35
    7  A    between atoms: C_11  and  C_26
    8  A    between atoms: C_14  and  C_37
    9  A    between atoms: N_19  and  C_27
                            x       y       z     vdW  Elec       q    Type
                         _______ _______ _______ _____ _____    ______ ____

>  <TORSDO>
F 9

$$$$
=
 OpenBabel11062415313D

 37 42  0  0  1  0  0  0  0  0999 V2000
  186.5080  178.3290  147.0110 C   0  0  0  0  0  3  0  0  0  0  0  0
  188.5960  177.4720  145.1650 C   0  0  0  0  0  2  0  0  0  0  0  0
  186.1780  178.2080  145.7250 C   0  0  0  0  0  0  0  0  0  0  0  0
  187.1870  177.8030  144.7200 C   0  0  0  0  0  0  0  0  0  0  0  0
  186.8100  177.7170  143.4240 C   0  0  0  0  0  0  0  0  0  0  0  0
  188.8390  177.6950  146.6330 C   0  0  0  0  0  3  0  0  0  0  0  0
  185.4450  178.0240  143.0570 N   0  0  0  0  0  0  0  0  0  0  0  0
  184.8390  178.4880  145.3150 N   0  0  0  0  0  0  0  0  0  0  0  0
  184.4920  178.4040  144.0690 C   0  0  0  0  0  3  0  0  0  0  0  0
  187.8770  178.0670  147.4820 C   0  0  0  0  0  0  0  0  0  0  0  0
  190.0670  176.6450  140.7360 C   0  0  0  0  0  0  0  0  0  0  0  0
  189.9330  176.0770  142.0790 C   0  0  0  0  0  3  0  0  0  0  0  0
  190.8010  176.1940  139.7550 O   0  0  0  0  0  0  0  0  0  0  0  0
  189.3870  177.7350  140.2950 C   0  0  0  0  0  0  0  0  0  0  0  0
  189.6910  177.9670  139.0070 N   0  0  0  0  0  0  0  0  0  0  0  0
  187.7770  177.3140  142.3350 C   0  0  1  0  0  3  0  0  0  0  0  0
  188.3460  178.7520  141.3400 S   0  0  0  0  0  0  0  0  0  0  0  0
  190.5750  176.9790  138.7170 C   0  0  0  0  0  3  0  0  0  0  0  0
  188.8930  176.4240  142.8450 C   0  0  0  0  0  3  0  0  0  0  0  0
  183.5830  177.5450  141.4960 C   0  0  0  0  0  2  0  0  0  0  0  0
  184.7300  179.3260  141.0800 C   0  0  0  0  0  2  0  0  0  0  0  0
  185.0420  177.9500  141.6470 C   0  0  1  0  0  3  0  0  0  0  0  0
  183.2690  178.9210  140.9290 C   0  0  1  0  0  3  0  0  0  0  0  0
  182.7970  178.8470  139.5320 N   0  0  0  0  0  0  0  0  0  0  0  0
  184.2830  177.8720  137.7440 C   0  0  0  0  0  1  0  0  0  0  0  0
  183.8150  179.1160  138.4970 C   0  0  0  0  0  2  0  0  0  0  0  0
  181.6150  179.6890  139.3650 C   0  0  0  0  0  2  0  0  0  0  0  0
  181.9220  180.8500  138.4290 C   0  0  0  0  0  2  0  0  0  0  0  0
  180.9000  181.9720  138.5760 C   0  0  0  0  0  2  0  0  0  0  0  0
  180.8340  182.8120  137.3440 C   0  0  0  0  0  0  0  0  0  0  0  0
  181.0950  184.9620  136.2550 C   0  0  0  0  0  3  0  0  0  0  0  0
  180.6840  184.3980  135.0430 C   0  0  0  0  0  3  0  0  0  0  0  0
  180.3470  183.0420  134.9800 C   0  0  0  0  0  3  0  0  0  0  0  0
  181.1690  184.1700  137.4050 C   0  0  0  0  0  3  0  0  0  0  0  0
  180.4220  182.2490  136.1310 C   0  0  0  0  0  3  0  0  0  0  0  0
  188.2070  178.2730  148.9180 C   0  0  0  0  0  2  0  0  0  0  0  0
  189.6490  178.3050  149.0920 N   0  0  0  0  0  1  0  0  0  0  0  0
  1 10  1  0  0  0  0
  2  6  1  0  0  0  0
  3  1  2  0  0  0  0
  4  2  1  0  0  0  0
  4  3  1  0  0  0  0
  5  4  2  0  0  0  0
  6 10  2  0  0  0  0
  7  5  1  0  0  0  0
  7  9  1  0  0  0  0
  8  3  1  0  0  0  0
  9  8  2  0  0  0  0
 10 36  1  0  0  0  0
 11 12  1  0  0  0  0
 12 19  2  0  0  0  0
 13 11  1  0  0  0  0
 14 11  2  0  0  0  0
 14 17  1  0  0  0  0
 15 14  1  0  0  0  0
 16 19  1  0  0  0  0
 16  5  1  1  0  0  0
 17 16  1  0  0  0  0
 18 15  2  0  0  0  0
 18 13  1  0  0  0  0
 20 22  1  0  0  0  0
 22 21  1  1  0  0  0
 22  7  1  0  0  0  0
 23 24  1  6  0  0  0
 23 21  1  0  0  0  0
 23 20  1  0  0  0  0
 25 26  1  0  0  0  0
 26 24  1  0  0  0  0
 27 24  1  0  0  0  0
 28 29  1  0  0  0  0
 28 27  1  0  0  0  0
 30 34  1  0  0  0  0
 30 29  1  0  0  0  0
 31 34  2  0  0  0  0
 32 31  1  0  0  0  0
 33 32  2  0  0  0  0
 33 35  1  0  0  0  0
 35 30  2  0  0  0  0
 36 37  1  0  0  0  0
M  END
>  <MODEL>
2

>  <REMARK>
 VINA RESULT:      -8.1      4.093      8.493
  Name = 
  9 active torsions:
  status: ('A' for Active; 'I' for Inactive)
    1  A    between atoms: C_3  and  C_35
    2  A    between atoms: C_3  and  C_37
    3  A    between atoms: C_5  and  C_29
    4  A    between atoms: N_8  and  C_16
    5  A    between atoms: N_8  and  C_34
    6  A    between atoms: N_8  and  C_35
    7  A    between atoms: C_11  and  C_26
    8  A    between atoms: C_14  and  C_37
    9  A    between atoms: N_19  and  C_27
                            x       y       z     vdW  Elec       q    Type
                         _______ _______ _______ _____ _____    ______ ____

>  <TORSDO>
F 9

$$$$
=
 OpenBabel11062415313D

 37 42  0  0  1  0  0  0  0  0999 V2000
  188.8320  177.7020  137.3610 C   0  0  0  0  0  3  0  0  0  0  0  0
  186.0680  177.7740  136.4360 C   0  0  0  0  0  2  0  0  0  0  0  0
  187.8900  177.9770  138.2630 C   0  0  0  0  0  0  0  0  0  0  0  0
  186.4650  178.0580  137.8690 C   0  0  0  0  0  0  0  0  0  0  0  0
  185.5480  178.3620  138.8150 C   0  0  0  0  0  0  0  0  0  0  0  0
  187.2350  177.5240  135.5190 C   0  0  0  0  0  3  0  0  0  0  0  0
  185.9810  178.6030  140.1740 N   0  0  0  0  0  0  0  0  0  0  0  0
  188.2660  178.2100  139.6220 N   0  0  0  0  0  0  0  0  0  0  0  0
  187.3770  178.5040  140.5180 C   0  0  0  0  0  3  0  0  0  0  0  0
  188.4990  177.4700  135.9470 C   0  0  0  0  0  0  0  0  0  0  0  0
  181.2360  178.9020  138.5100 C   0  0  0  0  0  0  0  0  0  0  0  0
  182.1290  179.9480  139.0130 C   0  0  0  0  0  3  0  0  0  0  0  0
  180.0050  179.0420  138.0990 O   0  0  0  0  0  0  0  0  0  0  0  0
  181.5940  177.6010  138.3540 C   0  0  0  0  0  0  0  0  0  0  0  0
  180.5700  176.9110  137.8230 N   0  0  0  0  0  0  0  0  0  0  0  0
  184.0750  178.4680  138.4970 C   0  0  1  0  0  3  0  0  0  0  0  0
  183.1600  176.9240  138.8990 S   0  0  0  0  0  0  0  0  0  0  0  0
  179.6040  177.8540  137.6830 C   0  0  0  0  0  3  0  0  0  0  0  0
  183.4480  179.7310  139.0530 C   0  0  0  0  0  3  0  0  0  0  0  0
  184.5220  177.7320  141.9760 C   0  0  0  0  0  2  0  0  0  0  0  0
  185.6450  179.5150  142.4480 C   0  0  0  0  0  2  0  0  0  0  0  0
  184.9870  178.9530  141.1970 C   0  0  1  0  0  3  0  0  0  0  0  0
  185.1790  178.2920  143.2290 C   0  0  1  0  0  3  0  0  0  0  0  0
  184.1910  178.5820  144.2870 N   0  0  0  0  0  0  0  0  0  0  0  0
  181.7250  178.9480  143.9100 C   0  0  0  0  0  1  0  0  0  0  0  0
  183.1310  179.5460  143.9270 C   0  0  0  0  0  2  0  0  0  0  0  0
  184.8820  178.9670  145.5160 C   0  0  0  0  0  2  0  0  0  0  0  0
  185.7090  177.8030  146.0430 C   0  0  0  0  0  2  0  0  0  0  0  0
  186.7410  178.2680  147.0650 C   0  0  0  0  0  2  0  0  0  0  0  0
  188.1140  177.8150  146.6960 C   0  0  0  0  0  0  0  0  0  0  0  0
  189.7840  177.3510  145.0010 C   0  0  0  0  0  3  0  0  0  0  0  0
  190.6770  176.9380  145.9960 C   0  0  0  0  0  3  0  0  0  0  0  0
  190.2900  176.9620  147.3390 C   0  0  0  0  0  3  0  0  0  0  0  0
  188.5030  177.7880  145.3520 C   0  0  0  0  0  3  0  0  0  0  0  0
  189.0080  177.4000  147.6890 C   0  0  0  0  0  3  0  0  0  0  0  0
  189.5940  177.2250  134.9700 C   0  0  0  0  0  2  0  0  0  0  0  0
  190.6210  176.3970  135.5780 N   0  0  0  0  0  1  0  0  0  0  0  0
  1  3  2  0  0  0  0
  2  4  1  0  0  0  0
  3  8  1  0  0  0  0
  4  3  1  0  0  0  0
  4  5  2  0  0  0  0
  5  7  1  0  0  0  0
  6 10  2  0  0  0  0
  6  2  1  0  0  0  0
  7  9  1  0  0  0  0
  8  9  2  0  0  0  0
 10  1  1  0  0  0  0
 11 12  1  0  0  0  0
 12 19  2  0  0  0  0
 13 11  1  0  0  0  0
 14 11  2  0  0  0  0
 14 17  1  0  0  0  0
 15 14  1  0  0  0  0
 16  5  1  1  0  0  0
 16 17  1  0  0  0  0
 16 19  1  0  0  0  0
 18 15  2  0  0  0  0
 18 13  1  0  0  0  0
 20 23  1  0  0  0  0
 21 23  1  0  0  0  0
 22  7  1  6  0  0  0
 22 20  1  0  0  0  0
 22 21  1  0  0  0  0
 23 24  1  1  0  0  0
 24 27  1  0  0  0  0
 25 26  1  0  0  0  0
 26 24  1  0  0  0  0
 27 28  1  0  0  0  0
 28 29  1  0  0  0  0
 30 29  1  0  0  0  0
 30 35  1  0  0  0  0
 31 34  1  0  0  0  0
 31 32  2  0  0  0  0
 32 33  1  0  0  0  0
 33 35  2  0  0  0  0
 34 30  2  0  0  0  0
 36 37  1  0  0  0  0
 36 10  1  0  0  0  0
M  END
>  <MODEL>
3

>  <REMARK>
 VINA RESULT:      -7.9      3.641      6.011
  Name = 
  9 active torsions:
  status: ('A' for Active; 'I' for Inactive)
    1  A    between atoms: C_3  and  C_35
    2  A    between atoms: C_3  and  C_37
    3  A    between atoms: C_5  and  C_29
    4  A    between atoms: N_8  and  C_16
    5  A    between atoms: N_8  and  C_34
    6  A    between atoms: N_8  and  C_35
    7  A    between atoms: C_11  and  C_26
    8  A    between atoms: C_14  and  C_37
    9  A    between atoms: N_19  and  C_27
                            x       y       z     vdW  Elec       q    Type
                         _______ _______ _______ _____ _____    ______ ____

>  <TORSDO>
F 9

$$$$
=
 OpenBabel11062415313D

 37 42  0  0  1  0  0  0  0  0999 V2000
  186.3100  178.3560  146.8980 C   0  0  0  0  0  3  0  0  0  0  0  0
  188.4570  177.4530  145.1430 C   0  0  0  0  0  2  0  0  0  0  0  0
  186.0350  178.2450  145.5980 C   0  0  0  0  0  0  0  0  0  0  0  0
  187.0780  177.8190  144.6370 C   0  0  0  0  0  0  0  0  0  0  0  0
  186.7570  177.7440  143.3260 C   0  0  0  0  0  0  0  0  0  0  0  0
  188.6400  177.6670  146.6220 C   0  0  0  0  0  3  0  0  0  0  0  0
  185.4170  178.0850  142.9000 N   0  0  0  0  0  0  0  0  0  0  0  0
  184.7220  178.5590  145.1300 N   0  0  0  0  0  0  0  0  0  0  0  0
  184.4290  178.4860  143.8700 C   0  0  0  0  0  3  0  0  0  0  0  0
  187.6500  178.0600  147.4290 C   0  0  0  0  0  0  0  0  0  0  0  0
  190.1050  176.6100  140.7790 C   0  0  0  0  0  0  0  0  0  0  0  0
  189.9090  176.0530  142.1190 C   0  0  0  0  0  3  0  0  0  0  0  0
  190.8710  176.1420  139.8320 O   0  0  0  0  0  0  0  0  0  0  0  0
  189.4580  177.7060  140.3040 C   0  0  0  0  0  0  0  0  0  0  0  0
  189.8170  177.9250  139.0280 N   0  0  0  0  0  0  0  0  0  0  0  0
  187.7610  177.3210  142.2800 C   0  0  1  0  0  3  0  0  0  0  0  0
  188.3910  178.7450  141.2990 S   0  0  0  0  0  0  0  0  0  0  0  0
  190.6990  176.9230  138.7800 C   0  0  0  0  0  3  0  0  0  0  0  0
  188.8430  176.4200  142.8410 C   0  0  0  0  0  3  0  0  0  0  0  0
  183.5880  177.7890  141.2570 C   0  0  0  0  0  2  0  0  0  0  0  0
  184.9560  179.4130  140.8660 C   0  0  0  0  0  2  0  0  0  0  0  0
  185.0760  178.0240  141.4720 C   0  0  1  0  0  3  0  0  0  0  0  0
  183.4650  179.1780  140.6490 C   0  0  1  0  0  3  0  0  0  0  0  0
  183.0550  179.1250  139.2320 N   0  0  0  0  0  0  0  0  0  0  0  0
  180.8700  180.3830  139.2780 C   0  0  0  0  0  1  0  0  0  0  0  0
  182.2970  180.2950  138.7410 C   0  0  0  0  0  2  0  0  0  0  0  0
  182.3530  177.8720  138.9670 C   0  0  0  0  0  2  0  0  0  0  0  0
  182.7380  177.3300  137.5970 C   0  0  0  0  0  2  0  0  0  0  0  0
  183.9830  176.4530  137.6720 C   0  0  0  0  0  2  0  0  0  0  0  0
  185.1280  177.0700  136.9400 C   0  0  0  0  0  0  0  0  0  0  0  0
  187.1190  178.4520  136.9440 C   0  0  0  0  0  3  0  0  0  0  0  0
  187.2600  178.2530  135.5670 C   0  0  0  0  0  3  0  0  0  0  0  0
  186.3350  177.4650  134.8750 C   0  0  0  0  0  3  0  0  0  0  0  0
  186.0540  177.8620  137.6300 C   0  0  0  0  0  3  0  0  0  0  0  0
  185.2690  176.8730  135.5620 C   0  0  0  0  0  3  0  0  0  0  0  0
  187.9210  178.2540  148.8780 C   0  0  0  0  0  2  0  0  0  0  0  0
  189.3540  178.2600  149.1150 N   0  0  0  0  0  1  0  0  0  0  0  0
  1 10  1  0  0  0  0
  2  6  1  0  0  0  0
  3  1  2  0  0  0  0
  4  2  1  0  0  0  0
  4  3  1  0  0  0  0
  5  4  2  0  0  0  0
  6 10  2  0  0  0  0
  7  5  1  0  0  0  0
  7  9  1  0  0  0  0
  8  3  1  0  0  0  0
  9  8  2  0  0  0  0
 10 36  1  0  0  0  0
 11 12  1  0  0  0  0
 12 19  2  0  0  0  0
 13 11  1  0  0  0  0
 14 11  2  0  0  0  0
 14 17  1  0  0  0  0
 15 14  1  0  0  0  0
 16 19  1  0  0  0  0
 16  5  1  1  0  0  0
 17 16  1  0  0  0  0
 18 15  2  0  0  0  0
 18 13  1  0  0  0  0
 20 22  1  0  0  0  0
 22 21  1  6  0  0  0
 22  7  1  0  0  0  0
 23 24  1  6  0  0  0
 23 21  1  0  0  0  0
 23 20  1  0  0  0  0
 26 24  1  0  0  0  0
 26 25  1  0  0  0  0
 27 24  1  0  0  0  0
 28 29  1  0  0  0  0
 28 27  1  0  0  0  0
 30 34  1  0  0  0  0
 30 29  1  0  0  0  0
 31 34  2  0  0  0  0
 32 31  1  0  0  0  0
 33 35  1  0  0  0  0
 33 32  2  0  0  0  0
 35 30  2  0  0  0  0
 36 37  1  0  0  0  0
M  END
>  <MODEL>
4

>  <REMARK>
 VINA RESULT:      -7.8      2.857      7.646
  Name = 
  9 active torsions:
  status: ('A' for Active; 'I' for Inactive)
    1  A    between atoms: C_3  and  C_35
    2  A    between atoms: C_3  and  C_37
    3  A    between atoms: C_5  and  C_29
    4  A    between atoms: N_8  and  C_16
    5  A    between atoms: N_8  and  C_34
    6  A    between atoms: N_8  and  C_35
    7  A    between atoms: C_11  and  C_26
    8  A    between atoms: C_14  and  C_37
    9  A    between atoms: N_19  and  C_27
                            x       y       z     vdW  Elec       q    Type
                         _______ _______ _______ _____ _____    ______ ____

>  <TORSDO>
F 9

$$$$
=
 OpenBabel11062415313D

 37 42  0  0  1  0  0  0  0  0999 V2000
  182.4130  178.6990  139.6830 C   0  0  0  0  0  3  0  0  0  0  0  0
  182.9890  178.5910  142.5390 C   0  0  0  0  0  3  0  0  0  0  0  0
  183.6940  178.6580  140.0490 C   0  0  2  0  0  3  0  0  0  0  0  0
  184.0710  178.6280  141.4810 C   0  0  0  0  0  0  0  0  0  0  0  0
  185.3840  178.6110  141.8040 C   0  0  0  0  0  0  0  0  0  0  0  0
  181.5930  178.6870  141.9860 C   0  0  0  0  0  3  0  0  0  0  0  0
  186.3760  178.6270  140.7510 N   0  0  0  0  0  0  0  0  0  0  0  0
  184.7110  178.6590  139.0460 N   0  0  0  0  0  0  0  0  0  0  0  0
  185.9660  178.6450  139.3690 C   0  0  0  0  0  3  0  0  0  0  0  0
  181.3280  178.7150  140.6770 C   0  0  0  0  0  0  0  0  0  0  0  0
  186.4680  177.9360  145.9690 C   0  0  0  0  0  0  0  0  0  0  0  0
  186.7170  176.9470  144.9190 C   0  0  0  0  0  3  0  0  0  0  0  0
  187.0010  177.9780  147.1600 O   0  0  0  0  0  0  0  0  0  0  0  0
  185.6510  179.0130  145.8280 C   0  0  0  0  0  0  0  0  0  0  0  0
  185.6800  179.7520  146.9490 N   0  0  0  0  0  0  0  0  0  0  0  0
  185.8550  178.5840  143.2390 C   0  0  1  0  0  3  0  0  0  0  0  0
  184.6160  179.3000  144.3950 S   0  0  0  0  0  0  0  0  0  0  0  0
  186.5360  179.0650  147.7480 C   0  0  0  0  0  3  0  0  0  0  0  0
  186.3870  177.2270  143.6520 C   0  0  0  0  0  3  0  0  0  0  0  0
  188.3430  177.2180  141.2810 C   0  0  0  0  0  2  0  0  0  0  0  0
  188.6810  178.8240  139.8770 C   0  0  0  0  0  2  0  0  0  0  0  0
  187.8030  178.6290  141.1030 C   0  0  1  0  0  3  0  0  0  0  0  0
  189.2240  177.4100  140.0550 C   0  0  1  0  0  3  0  0  0  0  0  0
  190.6600  177.3450  140.3910 N   0  0  0  0  0  0  0  0  0  0  0  0
  190.9070  175.8910  138.3460 C   0  0  0  0  0  1  0  0  0  0  0  0
  191.5520  176.8900  139.3050 C   0  0  0  0  0  2  0  0  0  0  0  0
  190.8460  176.5640  141.6110 C   0  0  0  0  0  2  0  0  0  0  0  0
  191.6330  177.3670  142.6370 C   0  0  0  0  0  2  0  0  0  0  0  0
  190.7200  177.9580  143.7060 C   0  0  0  0  0  2  0  0  0  0  0  0
  190.9230  177.2890  145.0240 C   0  0  0  0  0  0  0  0  0  0  0  0
  192.0560  175.6310  146.3820 C   0  0  0  0  0  3  0  0  0  0  0  0
  191.2860  176.0100  147.4870 C   0  0  0  0  0  3  0  0  0  0  0  0
  190.3340  177.0260  147.3610 C   0  0  0  0  0  3  0  0  0  0  0  0
  191.8730  176.2690  145.1520 C   0  0  0  0  0  3  0  0  0  0  0  0
  190.1510  177.6650  146.1300 C   0  0  0  0  0  3  0  0  0  0  0  0
  179.9170  178.8200  140.2170 C   0  0  0  0  0  2  0  0  0  0  0  0
  179.1080  177.8120  140.8800 N   0  0  0  0  0  1  0  0  0  0  0  0
  1 10  2  0  0  0  0
  3  1  1  1  0  0  0
  3  4  1  0  0  0  0
  4  5  2  0  0  0  0
  4  2  1  0  0  0  0
  6  2  2  0  0  0  0
  7 22  1  0  0  0  0
  7  5  1  0  0  0  0
  8  9  2  0  0  0  0
  8  3  1  0  0  0  0
  9  7  1  0  0  0  0
 10  6  1  0  0  0  0
 11 13  1  0  0  0  0
 12 11  1  0  0  0  0
 13 18  1  0  0  0  0
 14 11  2  0  0  0  0
 14 15  1  0  0  0  0
 15 18  2  0  0  0  0
 16  5  1  6  0  0  0
 16 19  1  0  0  0  0
 16 17  1  0  0  0  0
 17 14  1  0  0  0  0
 19 12  2  0  0  0  0
 21 23  1  0  0  0  0
 22 21  1  6  0  0  0
 22 20  1  0  0  0  0
 23 24  1  1  0  0  0
 23 20  1  0  0  0  0
 24 27  1  0  0  0  0
 25 26  1  0  0  0  0
 26 24  1  0  0  0  0
 27 28  1  0  0  0  0
 28 29  1  0  0  0  0
 29 30  1  0  0  0  0
 30 34  2  0  0  0  0
 30 35  1  0  0  0  0
 31 32  2  0  0  0  0
 33 32  1  0  0  0  0
 34 31  1  0  0  0  0
 35 33  2  0  0  0  0
 36 10  1  0  0  0  0
 36 37  1  0  0  0  0
M  END
>  <MODEL>
5

>  <REMARK>
 VINA RESULT:      -7.8      2.393      6.607
  Name = 
  9 active torsions:
  status: ('A' for Active; 'I' for Inactive)
    1  A    between atoms: C_3  and  C_35
    2  A    between atoms: C_3  and  C_37
    3  A    between atoms: C_5  and  C_29
    4  A    between atoms: N_8  and  C_16
    5  A    between atoms: N_8  and  C_34
    6  A    between atoms: N_8  and  C_35
    7  A    between atoms: C_11  and  C_26
    8  A    between atoms: C_14  and  C_37
    9  A    between atoms: N_19  and  C_27
                            x       y       z     vdW  Elec       q    Type
                         _______ _______ _______ _____ _____    ______ ____

>  <TORSDO>
F 9

$$$$
=
 OpenBabel11062415313D

 37 42  0  0  1  0  0  0  0  0999 V2000
  191.9230  176.2360  145.6150 C   0  0  0  0  0  3  0  0  0  0  0  0
  189.3710  177.3440  146.4860 C   0  0  0  0  0  3  0  0  0  0  0  0
  191.0620  176.6100  144.6690 C   0  0  2  0  0  3  0  0  0  0  0  0
  189.7340  177.1580  145.0280 C   0  0  0  0  0  0  0  0  0  0  0  0
  188.8850  177.5010  144.0330 C   0  0  0  0  0  0  0  0  0  0  0  0
  190.4160  176.8400  147.4430 C   0  0  0  0  0  3  0  0  0  0  0  0
  189.2920  177.3210  142.6560 N   0  0  0  0  0  0  0  0  0  0  0  0
  191.4220  176.4630  143.2940 N   0  0  0  0  0  0  0  0  0  0  0  0
  190.5980  176.7940  142.3500 C   0  0  0  0  0  3  0  0  0  0  0  0
  191.5940  176.3510  147.0440 C   0  0  0  0  0  0  0  0  0  0  0  0
  184.8620  178.6280  145.2660 C   0  0  0  0  0  0  0  0  0  0  0  0
  185.9260  178.3290  146.2260 C   0  0  0  0  0  3  0  0  0  0  0  0
  183.7380  179.2500  145.4980 O   0  0  0  0  0  0  0  0  0  0  0  0
  184.9190  178.3280  143.9420 C   0  0  0  0  0  0  0  0  0  0  0  0
  183.8130  178.7810  143.3280 N   0  0  0  0  0  0  0  0  0  0  0  0
  187.5110  178.0630  144.3120 C   0  0  1  0  0  3  0  0  0  0  0  0
  186.2300  177.3660  143.1920 S   0  0  0  0  0  0  0  0  0  0  0  0
  183.1090  179.3480  144.3410 C   0  0  0  0  0  3  0  0  0  0  0  0
  187.1500  178.0180  145.7830 C   0  0  0  0  0  3  0  0  0  0  0  0
  188.7270  179.0020  140.9270 C   0  0  0  0  0  2  0  0  0  0  0  0
  188.6950  176.9400  140.2870 C   0  0  0  0  0  2  0  0  0  0  0  0
  188.3620  177.6750  141.5760 C   0  0  1  0  0  3  0  0  0  0  0  0
  189.0600  178.2680  139.6360 C   0  0  1  0  0  3  0  0  0  0  0  0
  188.1720  178.6710  138.5280 N   0  0  0  0  0  0  0  0  0  0  0  0
  185.6860  178.2550  138.5760 C   0  0  0  0  0  1  0  0  0  0  0  0
  187.0750  177.7330  138.2130 C   0  0  0  0  0  2  0  0  0  0  0  0
  188.9700  178.9920  137.3470 C   0  0  0  0  0  2  0  0  0  0  0  0
  188.3950  178.3010  136.1180 C   0  0  0  0  0  2  0  0  0  0  0  0
  189.4670  177.5250  135.3600 C   0  0  0  0  0  2  0  0  0  0  0  0
  189.7560  176.2160  136.0140 C   0  0  0  0  0  0  0  0  0  0  0  0
  191.2670  174.7790  137.2520 C   0  0  0  0  0  3  0  0  0  0  0  0
  190.3170  173.7530  137.2190 C   0  0  0  0  0  3  0  0  0  0  0  0
  189.0880  173.9560  136.5830 C   0  0  0  0  0  3  0  0  0  0  0  0
  190.9870  176.0090  136.6490 C   0  0  0  0  0  3  0  0  0  0  0  0
  188.8080  175.1870  135.9800 C   0  0  0  0  0  3  0  0  0  0  0  0
  192.5680  175.8660  148.0600 C   0  0  0  0  0  2  0  0  0  0  0  0
  192.8420  176.9200  149.0220 N   0  0  0  0  0  1  0  0  0  0  0  0
  1 10  2  0  0  0  0
  2  6  2  0  0  0  0
  3  4  1  0  0  0  0
  3  1  1  6  0  0  0
  4  2  1  0  0  0  0
  5  4  2  0  0  0  0
  7  5  1  0  0  0  0
  8  3  1  0  0  0  0
  9  7  1  0  0  0  0
  9  8  2  0  0  0  0
 10  6  1  0  0  0  0
 10 36  1  0  0  0  0
 11 13  1  0  0  0  0
 11 12  1  0  0  0  0
 14 11  2  0  0  0  0
 15 14  1  0  0  0  0
 15 18  2  0  0  0  0
 16  5  1  1  0  0  0
 16 19  1  0  0  0  0
 17 14  1  0  0  0  0
 17 16  1  0  0  0  0
 18 13  1  0  0  0  0
 19 12  2  0  0  0  0
 20 22  1  0  0  0  0
 22 21  1  6  0  0  0
 22  7  1  0  0  0  0
 23 24  1  6  0  0  0
 23 21  1  0  0  0  0
 23 20  1  0  0  0  0
 26 24  1  0  0  0  0
 26 25  1  0  0  0  0
 27 24  1  0  0  0  0
 28 27  1  0  0  0  0
 29 30  1  0  0  0  0
 29 28  1  0  0  0  0
 30 34  1  0  0  0  0
 32 31  1  0  0  0  0
 33 32  2  0  0  0  0
 34 31  2  0  0  0  0
 35 30  2  0  0  0  0
 35 33  1  0  0  0  0
 36 37  1  0  0  0  0
M  END
>  <MODEL>
6

>  <REMARK>
 VINA RESULT:      -7.6      2.341      8.178
  Name = 
  9 active torsions:
  status: ('A' for Active; 'I' for Inactive)
    1  A    between atoms: C_3  and  C_35
    2  A    between atoms: C_3  and  C_37
    3  A    between atoms: C_5  and  C_29
    4  A    between atoms: N_8  and  C_16
    5  A    between atoms: N_8  and  C_34
    6  A    between atoms: N_8  and  C_35
    7  A    between atoms: C_11  and  C_26
    8  A    between atoms: C_14  and  C_37
    9  A    between atoms: N_19  and  C_27
                            x       y       z     vdW  Elec       q    Type
                         _______ _______ _______ _____ _____    ______ ____

>  <TORSDO>
F 9

$$$$
=
 OpenBabel11062415313D

 37 42  0  0  1  0  0  0  0  0999 V2000
  186.5330  178.2610  146.9010 C   0  0  0  0  0  3  0  0  0  0  0  0
  188.6350  177.3610  145.0910 C   0  0  0  0  0  2  0  0  0  0  0  0
  186.2290  178.1640  145.6070 C   0  0  0  0  0  0  0  0  0  0  0  0
  187.2470  177.7390  144.6190 C   0  0  0  0  0  0  0  0  0  0  0  0
  186.8970  177.6790  143.3150 C   0  0  0  0  0  0  0  0  0  0  0  0
  188.8520  177.5610  146.5670 C   0  0  0  0  0  3  0  0  0  0  0  0
  185.5510  178.0310  142.9210 N   0  0  0  0  0  0  0  0  0  0  0  0
  184.9080  178.4890  145.1700 N   0  0  0  0  0  0  0  0  0  0  0  0
  184.5860  178.4290  143.9160 C   0  0  0  0  0  3  0  0  0  0  0  0
  187.8830  177.9530  147.3990 C   0  0  0  0  0  0  0  0  0  0  0  0
  190.1830  176.5620  140.6800 C   0  0  0  0  0  0  0  0  0  0  0  0
  190.0310  176.0130  142.0290 C   0  0  0  0  0  3  0  0  0  0  0  0
  190.9270  176.0960  139.7140 O   0  0  0  0  0  0  0  0  0  0  0  0
  189.5100  177.6480  140.2160 C   0  0  0  0  0  0  0  0  0  0  0  0
  189.8300  177.8610  138.9290 N   0  0  0  0  0  0  0  0  0  0  0  0
  187.8760  177.2590  142.2430 C   0  0  1  0  0  3  0  0  0  0  0  0
  188.4600  178.6820  141.2340 S   0  0  0  0  0  0  0  0  0  0  0  0
  190.7150  176.8670  138.6630 C   0  0  0  0  0  3  0  0  0  0  0  0
  188.9830  176.3730  142.7780 C   0  0  0  0  0  3  0  0  0  0  0  0
  183.7050  177.6490  141.3150 C   0  0  0  0  0  2  0  0  0  0  0  0
  184.9430  179.3780  140.9380 C   0  0  0  0  0  2  0  0  0  0  0  0
  185.1770  177.9840  141.5010 C   0  0  1  0  0  3  0  0  0  0  0  0
  183.4680  179.0420  140.7500 C   0  0  1  0  0  3  0  0  0  0  0  0
  183.0260  178.9990  139.3430 N   0  0  0  0  0  0  0  0  0  0  0  0
  181.2230  180.6580  138.7470 C   0  0  0  0  0  1  0  0  0  0  0  0
  182.7090  180.3050  138.7300 C   0  0  0  0  0  2  0  0  0  0  0  0
  181.9240  178.0500  139.2000 C   0  0  0  0  0  2  0  0  0  0  0  0
  182.2290  177.0500  138.0940 C   0  0  0  0  0  2  0  0  0  0  0  0
  183.5900  177.3130  137.4590 C   0  0  0  0  0  2  0  0  0  0  0  0
  184.3910  176.0600  137.3500 C   0  0  0  0  0  0  0  0  0  0  0  0
  184.5650  173.6540  137.5950 C   0  0  0  0  0  3  0  0  0  0  0  0
  185.8990  173.7080  137.1760 C   0  0  0  0  0  3  0  0  0  0  0  0
  186.4800  174.9360  136.8450 C   0  0  0  0  0  3  0  0  0  0  0  0
  183.8130  174.8290  137.6830 C   0  0  0  0  0  3  0  0  0  0  0  0
  185.7260  176.1120  136.9330 C   0  0  0  0  0  3  0  0  0  0  0  0
  188.1860  178.1330  148.8440 C   0  0  0  0  0  2  0  0  0  0  0  0
  189.6220  178.2540  149.0340 N   0  0  0  0  0  1  0  0  0  0  0  0
  1 10  1  0  0  0  0
  2  6  1  0  0  0  0
  3  1  2  0  0  0  0
  4  2  1  0  0  0  0
  4  3  1  0  0  0  0
  5  4  2  0  0  0  0
  6 10  2  0  0  0  0
  7  5  1  0  0  0  0
  7  9  1  0  0  0  0
  8  3  1  0  0  0  0
  9  8  2  0  0  0  0
 10 36  1  0  0  0  0
 11 12  1  0  0  0  0
 12 19  2  0  0  0  0
 13 11  1  0  0  0  0
 14 11  2  0  0  0  0
 14 17  1  0  0  0  0
 15 14  1  0  0  0  0
 16 19  1  0  0  0  0
 16  5  1  1  0  0  0
 17 16  1  0  0  0  0
 18 15  2  0  0  0  0
 18 13  1  0  0  0  0
 20 22  1  0  0  0  0
 22 21  1  1  0  0  0
 22  7  1  0  0  0  0
 23 24  1  6  0  0  0
 23 21  1  0  0  0  0
 23 20  1  0  0  0  0
 26 25  1  0  0  0  0
 26 24  1  0  0  0  0
 27 24  1  0  0  0  0
 28 27  1  0  0  0  0
 29 28  1  0  0  0  0
 30 29  1  0  0  0  0
 30 34  1  0  0  0  0
 31 34  2  0  0  0  0
 32 31  1  0  0  0  0
 33 35  1  0  0  0  0
 33 32  2  0  0  0  0
 35 30  2  0  0  0  0
 36 37  1  0  0  0  0
M  END
>  <MODEL>
7

>  <REMARK>
 VINA RESULT:      -7.6      3.144      7.507
  Name = 
  9 active torsions:
  status: ('A' for Active; 'I' for Inactive)
    1  A    between atoms: C_3  and  C_35
    2  A    between atoms: C_3  and  C_37
    3  A    between atoms: C_5  and  C_29
    4  A    between atoms: N_8  and  C_16
    5  A    between atoms: N_8  and  C_34
    6  A    between atoms: N_8  and  C_35
    7  A    between atoms: C_11  and  C_26
    8  A    between atoms: C_14  and  C_37
    9  A    between atoms: N_19  and  C_27
                            x       y       z     vdW  Elec       q    Type
                         _______ _______ _______ _____ _____    ______ ____

>  <TORSDO>
F 9

$$$$
=
 OpenBabel11062415313D

 37 42  0  0  1  0  0  0  0  0999 V2000
  188.0080  177.6440  136.6320 C   0  0  0  0  0  3  0  0  0  0  0  0
  186.2540  175.4050  135.9910 C   0  0  0  0  0  2  0  0  0  0  0  0
  186.8140  177.6100  137.2250 C   0  0  0  0  0  0  0  0  0  0  0  0
  185.8550  176.5200  136.9330 C   0  0  0  0  0  0  0  0  0  0  0  0
  184.6480  176.5410  137.5420 C   0  0  0  0  0  0  0  0  0  0  0  0
  187.6070  175.5950  135.3600 C   0  0  0  0  0  3  0  0  0  0  0  0
  184.3270  177.6200  138.4510 N   0  0  0  0  0  0  0  0  0  0  0  0
  186.4550  178.6470  138.1400 N   0  0  0  0  0  0  0  0  0  0  0  0
  185.2940  178.6560  138.7150 C   0  0  0  0  0  3  0  0  0  0  0  0
  188.4190  176.6100  135.6700 C   0  0  0  0  0  0  0  0  0  0  0  0
  182.1400  173.1210  136.5430 C   0  0  0  0  0  0  0  0  0  0  0  0
  183.4510  172.9790  137.1810 C   0  0  0  0  0  3  0  0  0  0  0  0
  181.1940  172.2250  136.4710 O   0  0  0  0  0  0  0  0  0  0  0  0
  181.6950  174.2620  135.9560 C   0  0  0  0  0  0  0  0  0  0  0  0
  180.4380  174.0830  135.5160 N   0  0  0  0  0  0  0  0  0  0  0  0
  183.6100  175.4700  137.2980 C   0  0  1  0  0  3  0  0  0  0  0  0
  182.7050  175.7220  135.7170 S   0  0  0  0  0  0  0  0  0  0  0  0
  180.1720  172.7980  135.8610 C   0  0  0  0  0  3  0  0  0  0  0  0
  184.1600  174.0710  137.4900 C   0  0  0  0  0  3  0  0  0  0  0  0
  183.0680  177.1540  140.5320 C   0  0  0  0  0  2  0  0  0  0  0  0
  182.6580  179.0500  139.5830 C   0  0  0  0  0  2  0  0  0  0  0  0
  183.0080  177.6530  139.0960 C   0  0  1  0  0  3  0  0  0  0  0  0
  182.7180  178.5520  141.0220 C   0  0  1  0  0  3  0  0  0  0  0  0
  181.4240  178.5780  141.7330 N   0  0  0  0  0  0  0  0  0  0  0  0
  179.2060  178.9540  140.5940 C   0  0  0  0  0  1  0  0  0  0  0  0
  180.4440  179.5700  141.2430 C   0  0  0  0  0  2  0  0  0  0  0  0
  181.6520  178.7030  143.1700 C   0  0  0  0  0  2  0  0  0  0  0  0
  183.1170  179.0090  143.4480 C   0  0  0  0  0  2  0  0  0  0  0  0
  183.4170  178.9980  144.9430 C   0  0  0  0  0  2  0  0  0  0  0  0
  184.8280  178.5930  145.2110 C   0  0  0  0  0  0  0  0  0  0  0  0
  186.6430  178.2260  146.7750 C   0  0  0  0  0  3  0  0  0  0  0  0
  187.4820  177.8640  145.7160 C   0  0  0  0  0  3  0  0  0  0  0  0
  186.9960  177.8670  144.4050 C   0  0  0  0  0  3  0  0  0  0  0  0
  185.3180  178.5920  146.5220 C   0  0  0  0  0  3  0  0  0  0  0  0
  185.6700  178.2330  144.1520 C   0  0  0  0  0  3  0  0  0  0  0  0
  189.7380  176.7260  134.9920 C   0  0  0  0  0  2  0  0  0  0  0  0
  190.7920  176.2750  135.8840 N   0  0  0  0  0  1  0  0  0  0  0  0
  1  3  2  0  0  0  0
  2  4  1  0  0  0  0
  3  8  1  0  0  0  0
  4  3  1  0  0  0  0
  4  5  2  0  0  0  0
  5  7  1  0  0  0  0
  6 10  2  0  0  0  0
  6  2  1  0  0  0  0
  7  9  1  0  0  0  0
  8  9  2  0  0  0  0
 10  1  1  0  0  0  0
 11 12  1  0  0  0  0
 12 19  2  0  0  0  0
 13 11  1  0  0  0  0
 14 11  2  0  0  0  0
 15 18  2  0  0  0  0
 15 14  1  0  0  0  0
 16 19  1  0  0  0  0
 16  5  1  6  0  0  0
 17 14  1  0  0  0  0
 17 16  1  0  0  0  0
 18 13  1  0  0  0  0
 20 23  1  0  0  0  0
 21 23  1  0  0  0  0
 22  7  1  1  0  0  0
 22 21  1  0  0  0  0
 22 20  1  0  0  0  0
 23 24  1  6  0  0  0
 24 27  1  0  0  0  0
 25 26  1  0  0  0  0
 26 24  1  0  0  0  0
 27 28  1  0  0  0  0
 28 29  1  0  0  0  0
 29 30  1  0  0  0  0
 30 34  1  0  0  0  0
 32 31  1  0  0  0  0
 33 32  2  0  0  0  0
 34 31  2  0  0  0  0
 35 33  1  0  0  0  0
 35 30  2  0  0  0  0
 36 10  1  0  0  0  0
 36 37  1  0  0  0  0
M  END
>  <MODEL>
8

>  <REMARK>
 VINA RESULT:      -7.4      4.900      6.987
  Name = 
  9 active torsions:
  status: ('A' for Active; 'I' for Inactive)
    1  A    between atoms: C_3  and  C_35
    2  A    between atoms: C_3  and  C_37
    3  A    between atoms: C_5  and  C_29
    4  A    between atoms: N_8  and  C_16
    5  A    between atoms: N_8  and  C_34
    6  A    between atoms: N_8  and  C_35
    7  A    between atoms: C_11  and  C_26
    8  A    between atoms: C_14  and  C_37
    9  A    between atoms: N_19  and  C_27
                            x       y       z     vdW  Elec       q    Type
                         _______ _______ _______ _____ _____    ______ ____

>  <TORSDO>
F 9

$$$$
=
 OpenBabel11062415313D

 37 42  0  0  1  0  0  0  0  0999 V2000
  183.9290  179.0110  142.2490 C   0  0  0  0  0  3  0  0  0  0  0  0
  185.3490  178.0950  144.6250 C   0  0  0  0  0  3  0  0  0  0  0  0
  185.2180  178.7000  142.1120 C   0  0  2  0  0  3  0  0  0  0  0  0
  186.0170  178.2520  143.2760 C   0  0  0  0  0  0  0  0  0  0  0  0
  187.3260  177.9700  143.0910 C   0  0  0  0  0  0  0  0  0  0  0  0
  183.9070  178.5230  144.6450 C   0  0  0  0  0  3  0  0  0  0  0  0
  187.9080  178.1170  141.7750 N   0  0  0  0  0  0  0  0  0  0  0  0
  185.8360  178.8170  140.8290 N   0  0  0  0  0  0  0  0  0  0  0  0
  187.0930  178.5470  140.6670 C   0  0  0  0  0  3  0  0  0  0  0  0
  183.2510  178.9230  143.5520 C   0  0  0  0  0  0  0  0  0  0  0  0
  189.6040  177.1270  146.7080 C   0  0  0  0  0  0  0  0  0  0  0  0
  188.1510  177.3060  146.7150 C   0  0  0  0  0  3  0  0  0  0  0  0
  190.3390  176.5900  147.6430 O   0  0  0  0  0  0  0  0  0  0  0  0
  190.4120  177.4680  145.6710 C   0  0  0  0  0  0  0  0  0  0  0  0
  191.6800  177.1270  145.9550 N   0  0  0  0  0  0  0  0  0  0  0  0
  188.2130  177.5100  144.2250 C   0  0  1  0  0  3  0  0  0  0  0  0
  189.8510  178.3480  144.2150 S   0  0  0  0  0  0  0  0  0  0  0  0
  191.5820  176.5840  147.1950 C   0  0  0  0  0  3  0  0  0  0  0  0
  187.5050  177.5330  145.5650 C   0  0  0  0  0  3  0  0  0  0  0  0
  189.5730  176.3780  141.1940 C   0  0  0  0  0  2  0  0  0  0  0  0
  189.8160  178.2850  140.2100 C   0  0  0  0  0  2  0  0  0  0  0  0
  189.3360  177.8310  141.5800 C   0  0  1  0  0  3  0  0  0  0  0  0
  190.0550  176.8300  139.8230 C   0  0  1  0  0  3  0  0  0  0  0  0
  191.4710  176.4830  139.5940 N   0  0  0  0  0  0  0  0  0  0  0  0
  193.9120  177.0630  139.8440 C   0  0  0  0  0  1  0  0  0  0  0  0
  192.4600  177.4470  140.1200 C   0  0  0  0  0  2  0  0  0  0  0  0
  191.6880  176.2000  138.1780 C   0  0  0  0  0  2  0  0  0  0  0  0
  190.5780  175.3060  137.6420 C   0  0  0  0  0  2  0  0  0  0  0  0
  189.9880  175.8600  136.3500 C   0  0  0  0  0  2  0  0  0  0  0  0
  188.7540  176.6570  136.6130 C   0  0  0  0  0  0  0  0  0  0  0  0
  186.4090  176.7530  137.2200 C   0  0  0  0  0  3  0  0  0  0  0  0
  186.4300  178.1440  137.0800 C   0  0  0  0  0  3  0  0  0  0  0  0
  187.6110  178.7930  136.7060 C   0  0  0  0  0  3  0  0  0  0  0  0
  187.5700  176.0100  136.9860 C   0  0  0  0  0  3  0  0  0  0  0  0
  188.7730  178.0490  136.4720 C   0  0  0  0  0  3  0  0  0  0  0  0
  181.8260  179.3360  143.6630 C   0  0  0  0  0  2  0  0  0  0  0  0
  181.1200  179.0030  142.4380 N   0  0  0  0  0  1  0  0  0  0  0  0
  1 10  2  0  0  0  0
  2  6  2  0  0  0  0
  3  1  1  1  0  0  0
  3  4  1  0  0  0  0
  4  2  1  0  0  0  0
  5  4  2  0  0  0  0
  7  5  1  0  0  0  0
  8  3  1  0  0  0  0
  9  8  2  0  0  0  0
  9  7  1  0  0  0  0
 10 36  1  0  0  0  0
 10  6  1  0  0  0  0
 11 12  1  0  0  0  0
 11 13  1  0  0  0  0
 14 15  1  0  0  0  0
 14 11  2  0  0  0  0
 15 18  2  0  0  0  0
 16  5  1  6  0  0  0
 16 19  1  0  0  0  0
 17 16  1  0  0  0  0
 17 14  1  0  0  0  0
 18 13  1  0  0  0  0
 19 12  2  0  0  0  0
 20 22  1  0  0  0  0
 22 21  1  6  0  0  0
 22  7  1  0  0  0  0
 23 24  1  1  0  0  0
 23 21  1  0  0  0  0
 23 20  1  0  0  0  0
 24 26  1  0  0  0  0
 25 26  1  0  0  0  0
 27 24  1  0  0  0  0
 28 27  1  0  0  0  0
 29 30  1  0  0  0  0
 29 28  1  0  0  0  0
 30 34  1  0  0  0  0
 32 31  1  0  0  0  0
 33 32  2  0  0  0  0
 34 31  2  0  0  0  0
 35 30  2  0  0  0  0
 35 33  1  0  0  0  0
 37 36  1  0  0  0  0
M  END
>  <MODEL>
9

>  <REMARK>
 VINA RESULT:      -7.2      1.833      7.747
  Name = 
  9 active torsions:
  status: ('A' for Active; 'I' for Inactive)
    1  A    between atoms: C_3  and  C_35
    2  A    between atoms: C_3  and  C_37
    3  A    between atoms: C_5  and  C_29
    4  A    between atoms: N_8  and  C_16
    5  A    between atoms: N_8  and  C_34
    6  A    between atoms: N_8  and  C_35
    7  A    between atoms: C_11  and  C_26
    8  A    between atoms: C_14  and  C_37
    9  A    between atoms: N_19  and  C_27
                            x       y       z     vdW  Elec       q    Type
                         _______ _______ _______ _____ _____    ______ ____

>  <TORSDO>
F 9

$$$$
