=
 OpenBabel11062412453D

 54 61  0  0  1  0  0  0  0  0999 V2000
  181.1750  177.7410  137.6230 C   0  0  0  0  0  0  0  0  0  0  0  0
  181.0410  178.4280  138.7310 C   0  0  0  0  0  0  0  0  0  0  0  0
  181.0080  179.0590  139.8720 C   0  0  0  0  0  0  0  0  0  0  0  0
  182.3560  175.0710  136.5870 C   0  0  0  0  0  0  0  0  0  0  0  0
  182.5390  177.4830  137.1150 C   0  0  0  0  0  0  0  0  0  0  0  0
  184.4780  177.1060  134.5940 O   0  0  0  0  0  0  0  0  0  0  0  0
  183.5070  178.1540  137.5720 O   0  0  0  0  0  0  0  0  0  0  0  0
  184.7330  174.2690  136.6540 C   0  0  0  0  0  0  0  0  0  0  0  0
  179.9870  175.6950  136.6790 N   0  0  0  0  0  2  0  0  0  0  0  0
  182.7710  176.4250  136.0740 C   0  0  1  0  0  3  0  0  0  0  0  0
  179.9950  177.0860  137.0310 C   0  0  0  0  0  0  0  0  0  0  0  0
  183.3330  174.0570  136.8390 N   0  0  0  0  0  2  0  0  0  0  0  0
  185.5320  173.3160  136.8480 O   0  0  0  0  0  0  0  0  0  0  0  0
  185.2620  175.6100  136.2410 C   0  0  1  0  0  3  0  0  0  0  0  0
  178.9310  177.7500  136.8960 O   0  0  0  0  0  0  0  0  0  0  0  0
  180.9790  180.5530  139.8450 C   0  0  0  0  0  1  0  0  0  0  0  0
  184.1880  176.4090  135.5540 C   0  0  0  0  0  0  0  0  0  0  0  0
  181.0730  174.7670  136.7940 C   0  0  0  0  0  3  0  0  0  0  0  0
  182.4990  178.8220  141.7850 N   0  0  2  0  0  0  0  0  0  0  0  0
  180.8350  178.7720  143.5020 C   0  0  0  0  0  2  0  0  0  0  0  0
  184.9210  178.8480  142.1000 C   0  0  0  0  0  2  0  0  0  0  0  0
  185.4860  179.8930  144.1890 O   0  0  0  0  0  0  0  0  0  0  0  0
  182.2940  178.5330  143.1940 C   0  0  2  0  0  3  0  0  0  0  0  0
  181.3140  178.2740  141.1290 C   0  0  1  0  0  3  0  0  0  0  0  0
  180.2610  178.3840  142.1890 C   0  0  0  0  0  0  0  0  0  0  0  0
  179.0810  178.1220  142.0190 O   0  0  0  0  0  0  0  0  0  0  0  0
  184.5860  179.3590  143.4870 C   0  0  0  0  0  0  0  0  0  0  0  0
  183.7330  178.1320  141.4260 C   0  0  0  0  0  2  0  0  0  0  0  0
  183.2370  179.3040  143.9800 N   0  0  0  0  0  2  0  0  0  0  0  0
  185.7930  176.3720  137.4520 C   0  0  2  0  0  3  0  0  0  0  0  0
  186.8060  177.4110  137.0300 C   0  0  1  0  0  0  0  0  0  0  0  0
  186.8830  178.5260  138.0500 C   0  0  0  0  0  1  0  0  0  0  0  0
  187.2690  176.1530  137.6880 C   0  0  2  0  0  3  0  0  0  0  0  0
  188.1480  176.8740  136.7560 N   0  0  0  0  0  0  0  0  0  0  0  0
  188.1310  176.1950  135.4660 C   0  0  0  0  0  2  0  0  0  0  0  0
  190.3920  175.1070  135.6580 N   0  0  0  0  0  2  0  0  0  0  0  0
  188.4540  173.8300  135.4330 O   0  0  0  0  0  0  0  0  0  0  0  0
  188.9760  174.9710  135.5380 C   0  0  0  0  0  0  0  0  0  0  0  0
  191.2580  174.0570  135.3200 N   0  0  0  0  0  2  0  0  0  0  0  0
  194.4150  174.3500  138.3500 O   0  0  0  0  0  1  0  0  0  0  0  0
  192.5340  176.3690  135.7300 S   0  0  0  0  0  0  0  0  0  0  0  0
  193.0520  175.9980  137.3950 N   0  0  0  0  0  0  0  0  0  0  0  0
  193.5540  173.9620  136.1720 C   0  0  2  0  0  3  0  0  0  0  0  0
  193.2990  174.5580  137.5370 C   0  0  1  0  0  3  0  0  0  0  0  0
  192.5940  174.6330  135.2180 C   0  0  1  0  0  3  0  0  0  0  0  0
  190.9470  175.4090  138.6550 C   0  0  0  0  0  1  0  0  0  0  0  0
  192.0030  176.4670  138.3160 C   0  0  1  0  0  3  0  0  0  0  0  0
  192.5900  177.0910  139.5440 C   0  0  0  0  0  0  0  0  0  0  0  0
  193.9580  177.3190  139.6070 O   0  0  0  0  0  0  0  0  0  0  0  0
  191.8620  177.3830  140.5330 O   0  0  0  0  0  1  0  0  0  0  0  0
  193.3760  172.5760  136.1950 O   0  0  0  0  0  0  0  0  0  0  0  0
  194.9630  170.8470  136.3110 C   0  0  0  0  0  2  0  0  0  0  0  0
  195.5860  172.0900  136.5140 O   0  0  0  0  0  0  0  0  0  0  0  0
  194.5250  172.0620  135.5900 C   0  0  2  0  0  3  0  0  0  0  0  0
  1  2  2  0  0  0  0
  2  3  2  0  0  0  0
  4 18  2  0  0  0  0
  4 12  1  0  0  0  0
  5  7  2  0  0  0  0
  5  1  1  0  0  0  0
  6 17  2  0  0  0  0
  8 12  1  0  0  0  0
  8 13  2  0  0  0  0
  9 18  1  0  0  0  0
  9 11  1  0  0  0  0
 10 17  1  1  0  0  0
 10  4  1  0  0  0  0
 10  5  1  0  0  0  0
 11  1  1  0  0  0  0
 14 17  1  1  0  0  0
 14  8  1  0  0  0  0
 15 11  2  0  0  0  0
 16  3  1  0  0  0  0
 19 28  1  6  0  0  0
 19 23  1  0  0  0  0
 21 27  1  0  0  0  0
 23 20  1  1  0  0  0
 23 29  1  0  0  0  0
 24  3  1  6  0  0  0
 24 19  1  0  0  0  0
 24 25  1  0  0  0  0
 25 20  1  0  0  0  0
 26 25  2  0  0  0  0
 27 29  1  0  0  0  0
 27 22  2  0  0  0  0
 28 21  1  0  0  0  0
 30 14  1  6  0  0  0
 30 33  1  0  0  0  0
 31 30  1  0  0  0  0
 31 33  1  0  0  0  0
 31 32  1  1  0  0  0
 33 34  1  6  0  0  0
 34 31  1  0  0  0  0
 35 38  1  0  0  0  0
 35 34  1  0  0  0  0
 37 38  2  0  0  0  0
 38 36  1  0  0  0  0
 39 36  1  0  0  0  0
 41 42  1  0  0  0  0
 42 44  1  0  0  0  0
 42 47  1  0  0  0  0
 43 51  1  1  0  0  0
 43 44  1  0  0  0  0
 44 40  1  1  0  0  0
 45 39  1  1  0  0  0
 45 41  1  0  0  0  0
 45 43  1  0  0  0  0
 47 46  1  1  0  0  0
 47 48  1  0  0  0  0
 48 49  2  0  0  0  0
 48 50  1  0  0  0  0
 52 53  1  0  0  0  0
 54 51  1  1  0  0  0
 54 52  1  0  0  0  0
 54 53  1  0  0  0  0
M  END
>  <MODEL>
1

>  <REMARK>
 VINA RESULT:      -5.7      0.000      0.000
  Name = 
  10 active torsions:
  status: ('A' for Active; 'I' for Inactive)
    1  A    between atoms: N_3  and  N_30
    2  A    between atoms: C_6  and  C_28
    3  A    between atoms: O_10  and  C_17
    4  A    between atoms: O_10  and  C_37
    5  A    between atoms: N_16  and  C_54
    6  A    between atoms: C_26  and  N_30
    7  A    between atoms: C_27  and  C_54
    8  A    between atoms: C_36  and  C_46
    9  A    between atoms: C_38  and  C_40
   10  A    between atoms: C_40  and  N_52
                            x       y       z     vdW  Elec       q    Type
                         _______ _______ _______ _____ _____    ______ ____

>  <TORSDO>
F 10

$$$$
=
 OpenBabel11062412453D

 54 61  0  0  1  0  0  0  0  0999 V2000
  183.8910  174.3070  135.4670 C   0  0  0  0  0  0  0  0  0  0  0  0
  182.7590  174.9540  135.5850 C   0  0  0  0  0  0  0  0  0  0  0  0
  181.6850  175.6700  135.7820 C   0  0  0  0  0  0  0  0  0  0  0  0
  186.4370  173.6150  137.0920 C   0  0  0  0  0  0  0  0  0  0  0  0
  185.1520  175.0730  135.5560 C   0  0  0  0  0  0  0  0  0  0  0  0
  188.1860  175.4410  134.5970 O   0  0  0  0  0  0  0  0  0  0  0  0
  185.1220  176.3310  135.4490 O   0  0  0  0  0  0  0  0  0  0  0  0
  188.1310  175.1680  138.1010 C   0  0  0  0  0  0  0  0  0  0  0  0
  184.7140  172.0520  136.3190 N   0  0  0  0  0  2  0  0  0  0  0  0
  186.4550  174.3600  135.7830 C   0  0  1  0  0  3  0  0  0  0  0  0
  183.8840  172.8330  135.4480 C   0  0  0  0  0  0  0  0  0  0  0  0
  187.2710  174.0300  138.1770 N   0  0  0  0  0  2  0  0  0  0  0  0
  188.8740  175.4460  139.0790 O   0  0  0  0  0  0  0  0  0  0  0  0
  188.1540  176.0370  136.8800 C   0  0  1  0  0  3  0  0  0  0  0  0
  183.0680  172.2360  134.6950 O   0  0  0  0  0  0  0  0  0  0  0  0
  181.0490  176.3190  134.5950 C   0  0  0  0  0  1  0  0  0  0  0  0
  187.6530  175.2730  135.6830 C   0  0  0  0  0  0  0  0  0  0  0  0
  185.6700  172.5380  137.2700 C   0  0  0  0  0  3  0  0  0  0  0  0
  182.0870  177.2450  137.5970 N   0  0  2  0  0  0  0  0  0  0  0  0
  179.8080  177.7890  138.0780 C   0  0  0  0  0  2  0  0  0  0  0  0
  184.0710  178.2610  138.5960 C   0  0  0  0  0  2  0  0  0  0  0  0
  183.6130  180.5230  139.2620 O   0  0  0  0  0  0  0  0  0  0  0  0
  181.2310  177.9010  138.5710 C   0  0  2  0  0  3  0  0  0  0  0  0
  181.3360  176.0550  137.2030 C   0  0  1  0  0  3  0  0  0  0  0  0
  179.9110  176.4780  137.3880 C   0  0  0  0  0  0  0  0  0  0  0  0
  178.9450  175.8030  137.0740 O   0  0  0  0  0  0  0  0  0  0  0  0
  183.1360  179.4070  138.9280 C   0  0  0  0  0  0  0  0  0  0  0  0
  183.3210  176.9430  138.3120 C   0  0  0  0  0  2  0  0  0  0  0  0
  181.7130  179.2490  138.7960 N   0  0  0  0  0  2  0  0  0  0  0  0
  187.3080  177.2880  137.0980 C   0  0  2  0  0  3  0  0  0  0  0  0
  188.1320  178.5370  136.8780 C   0  0  1  0  0  0  0  0  0  0  0  0
  187.2450  179.7030  136.4990 C   0  0  0  0  0  1  0  0  0  0  0  0
  187.7770  178.1220  138.2680 C   0  0  2  0  0  3  0  0  0  0  0  0
  188.9970  178.9000  138.0110 N   0  0  0  0  0  0  0  0  0  0  0  0
  190.1470  178.0030  138.0350 C   0  0  0  0  0  2  0  0  0  0  0  0
  189.4260  177.6940  140.4270 N   0  0  0  0  0  2  0  0  0  0  0  0
  191.6350  177.3310  139.7760 O   0  0  0  0  0  0  0  0  0  0  0  0
  190.4590  177.6340  139.4440 C   0  0  0  0  0  0  0  0  0  0  0  0
  189.7230  177.7690  141.7960 N   0  0  0  0  0  2  0  0  0  0  0  0
  188.1650  177.4390  145.8820 O   0  0  0  0  0  1  0  0  0  0  0  0
  190.2260  175.5960  143.2680 S   0  0  0  0  0  0  0  0  0  0  0  0
  189.9840  176.3860  144.8480 N   0  0  0  0  0  0  0  0  0  0  0  0
  188.0990  177.1560  143.5260 C   0  0  2  0  0  3  0  0  0  0  0  0
  188.9620  177.4330  144.7350 C   0  0  1  0  0  3  0  0  0  0  0  0
  189.0220  176.6620  142.4370 C   0  0  1  0  0  3  0  0  0  0  0  0
  191.5090  178.3950  144.9050 C   0  0  0  0  0  1  0  0  0  0  0  0
  191.2780  176.9300  145.2910 C   0  0  1  0  0  3  0  0  0  0  0  0
  191.5020  176.6890  146.7520 C   0  0  0  0  0  0  0  0  0  0  0  0
  190.6120  177.2200  147.6760 O   0  0  0  0  0  1  0  0  0  0  0  0
  192.5050  176.0370  147.1540 O   0  0  0  0  0  0  0  0  0  0  0  0
  187.4080  178.3070  143.1350 O   0  0  0  0  0  0  0  0  0  0  0  0
  185.3290  178.7340  142.1280 C   0  0  0  0  0  2  0  0  0  0  0  0
  185.2680  179.0230  143.5010 O   0  0  0  0  0  0  0  0  0  0  0  0
  186.0650  177.9260  143.1230 C   0  0  2  0  0  3  0  0  0  0  0  0
  1  5  1  0  0  0  0
  1  2  2  0  0  0  0
  2  3  2  0  0  0  0
  4 18  2  0  0  0  0
  4 12  1  0  0  0  0
  6 17  2  0  0  0  0
  7  5  2  0  0  0  0
  8 12  1  0  0  0  0
  8 13  2  0  0  0  0
  9 18  1  0  0  0  0
 10  5  1  1  0  0  0
 10  4  1  0  0  0  0
 11  1  1  0  0  0  0
 11  9  1  0  0  0  0
 14 17  1  6  0  0  0
 14  8  1  0  0  0  0
 15 11  2  0  0  0  0
 16  3  1  0  0  0  0
 17 10  1  0  0  0  0
 19 28  1  1  0  0  0
 19 23  1  0  0  0  0
 21 27  1  0  0  0  0
 23 20  1  6  0  0  0
 23 29  1  0  0  0  0
 24  3  1  6  0  0  0
 24 25  1  0  0  0  0
 24 19  1  0  0  0  0
 25 20  1  0  0  0  0
 26 25  2  0  0  0  0
 27 22  2  0  0  0  0
 28 21  1  0  0  0  0
 29 27  1  0  0  0  0
 30 14  1  1  0  0  0
 30 33  1  0  0  0  0
 31 32  1  6  0  0  0
 31 30  1  0  0  0  0
 31 34  1  0  0  0  0
 31 33  1  0  0  0  0
 33 34  1  1  0  0  0
 34 35  1  0  0  0  0
 35 38  1  0  0  0  0
 36 39  1  0  0  0  0
 38 37  2  0  0  0  0
 38 36  1  0  0  0  0
 41 42  1  0  0  0  0
 42 47  1  0  0  0  0
 43 51  1  6  0  0  0
 43 44  1  0  0  0  0
 44 42  1  0  0  0  0
 44 40  1  1  0  0  0
 45 39  1  1  0  0  0
 45 41  1  0  0  0  0
 45 43  1  0  0  0  0
 47 46  1  1  0  0  0
 47 48  1  0  0  0  0
 48 50  2  0  0  0  0
 48 49  1  0  0  0  0
 52 54  1  0  0  0  0
 52 53  1  0  0  0  0
 54 51  1  6  0  0  0
 54 53  1  0  0  0  0
M  END
>  <MODEL>
2

>  <REMARK>
 VINA RESULT:      -4.3      3.535      6.515
  Name = 
  10 active torsions:
  status: ('A' for Active; 'I' for Inactive)
    1  A    between atoms: N_3  and  N_30
    2  A    between atoms: C_6  and  C_28
    3  A    between atoms: O_10  and  C_17
    4  A    between atoms: O_10  and  C_37
    5  A    between atoms: N_16  and  C_54
    6  A    between atoms: C_26  and  N_30
    7  A    between atoms: C_27  and  C_54
    8  A    between atoms: C_36  and  C_46
    9  A    between atoms: C_38  and  C_40
   10  A    between atoms: C_40  and  N_52
                            x       y       z     vdW  Elec       q    Type
                         _______ _______ _______ _____ _____    ______ ____

>  <TORSDO>
F 10

$$$$
=
 OpenBabel11062412453D

 54 61  0  0  1  0  0  0  0  0999 V2000
  183.2830  178.8060  141.4800 C   0  0  0  0  0  0  0  0  0  0  0  0
  183.9110  179.0640  142.6000 C   0  0  0  0  0  0  0  0  0  0  0  0
  184.6280  179.2580  143.6730 C   0  0  0  0  0  0  0  0  0  0  0  0
  183.1550  176.6690  139.2420 C   0  0  0  0  0  0  0  0  0  0  0  0
  184.0690  178.7470  140.2300 C   0  0  0  0  0  0  0  0  0  0  0  0
  184.2080  179.2790  137.0740 O   0  0  0  0  0  0  0  0  0  0  0  0
  185.2400  179.2210  140.2120 O   0  0  0  0  0  0  0  0  0  0  0  0
  184.9730  175.9030  137.6890 C   0  0  0  0  0  0  0  0  0  0  0  0
  181.3960  177.2120  140.8590 N   0  0  0  0  0  2  0  0  0  0  0  0
  183.4840  178.1180  138.9980 C   0  0  1  0  0  3  0  0  0  0  0  0
  181.8690  178.3940  141.5220 C   0  0  0  0  0  0  0  0  0  0  0  0
  183.8890  175.6350  138.5790 N   0  0  0  0  0  0  0  0  0  0  0  0
  185.5420  174.9450  137.1040 O   0  0  0  0  0  0  0  0  0  0  0  0
  185.4460  177.3060  137.4520 C   0  0  1  0  0  3  0  0  0  0  0  0
  181.0590  179.0580  142.2240 O   0  0  0  0  0  0  0  0  0  0  0  0
  184.8860  180.6690  144.0970 C   0  0  0  0  0  1  0  0  0  0  0  0
  184.3540  178.2900  137.7760 C   0  0  0  0  0  0  0  0  0  0  0  0
  182.1610  176.3060  140.0540 C   0  0  0  0  0  2  0  0  0  0  0  0
  186.8020  178.1650  143.8100 N   0  0  2  0  0  0  0  0  0  0  0  0
  186.9080  177.9300  146.1880 C   0  0  0  0  0  2  0  0  0  0  0  0
  188.5630  177.6140  142.2090 C   0  0  0  0  0  2  0  0  0  0  0  0
  190.7270  177.8470  143.2260 O   0  0  0  0  0  0  0  0  0  0  0  0
  187.5360  177.5110  144.8800 C   0  0  2  0  0  3  0  0  0  0  0  0
  185.4050  178.0860  144.2320 C   0  0  1  0  0  3  0  0  0  0  0  0
  185.5040  178.0780  145.7270 C   0  0  0  0  0  0  0  0  0  0  0  0
  184.5470  178.1180  146.4820 O   0  0  0  0  0  0  0  0  0  0  0  0
  189.4850  177.7390  143.4060 C   0  0  0  0  0  0  0  0  0  0  0  0
  187.0920  177.3860  142.6120 C   0  0  0  0  0  2  0  0  0  0  0  0
  188.9480  177.8060  144.7370 N   0  0  0  0  0  2  0  0  0  0  0  0
  186.6870  177.6010  138.2890 C   0  0  2  0  0  3  0  0  0  0  0  0
  187.8450  178.0090  137.4070 C   0  0  1  0  0  0  0  0  0  0  0  0
  188.8360  178.8520  138.1810 C   0  0  0  0  0  1  0  0  0  0  0  0
  187.8260  176.6460  138.0160 C   0  0  2  0  0  3  0  0  0  0  0  0
  188.5320  176.8870  136.7480 N   0  0  0  0  0  0  0  0  0  0  0  0
  187.7060  176.4090  135.6460 C   0  0  0  0  0  2  0  0  0  0  0  0
  189.1850  174.3950  135.9480 N   0  0  0  0  0  2  0  0  0  0  0  0
  187.2630  174.2940  134.6320 O   0  0  0  0  0  0  0  0  0  0  0  0
  188.0070  174.9730  135.3870 C   0  0  0  0  0  0  0  0  0  0  0  0
  189.7400  173.2160  135.4280 N   0  0  0  0  0  2  0  0  0  0  0  0
  193.9610  173.4830  136.5860 O   0  0  0  0  0  1  0  0  0  0  0  0
  191.1730  175.3920  134.8340 S   0  0  0  0  0  0  0  0  0  0  0  0
  192.3950  175.1600  136.1120 N   0  0  0  0  0  0  0  0  0  0  0  0
  192.1580  172.9490  135.1370 C   0  0  2  0  0  3  0  0  0  0  0  0
  192.6060  173.7270  136.3530 C   0  0  1  0  0  3  0  0  0  0  0  0
  190.8970  173.6130  134.6350 C   0  0  1  0  0  3  0  0  0  0  0  0
  191.2320  174.9440  138.3410 C   0  0  0  0  0  1  0  0  0  0  0  0
  191.9270  175.8540  137.3240 C   0  0  1  0  0  3  0  0  0  0  0  0
  193.0210  176.6640  137.9480 C   0  0  0  0  0  0  0  0  0  0  0  0
  192.9910  176.9160  139.3130 O   0  0  0  0  0  1  0  0  0  0  0  0
  193.9530  177.1440  137.2440 O   0  0  0  0  0  0  0  0  0  0  0  0
  191.9410  171.6060  135.4590 O   0  0  0  0  0  0  0  0  0  0  0  0
  193.8570  170.5380  134.6170 C   0  0  0  0  0  2  0  0  0  0  0  0
  193.2410  169.7300  135.5870 O   0  0  0  0  0  0  0  0  0  0  0  0
  193.2020  171.1190  135.8090 C   0  0  2  0  0  3  0  0  0  0  0  0
  1 11  1  0  0  0  0
  1  2  2  0  0  0  0
  2  3  2  0  0  0  0
  3 16  1  0  0  0  0
  4 18  1  0  0  0  0
  5  1  1  0  0  0  0
  6 17  2  0  0  0  0
  7  5  2  0  0  0  0
  8 12  1  0  0  0  0
  9 11  1  0  0  0  0
 10 17  1  6  0  0  0
 10  4  1  0  0  0  0
 10  5  1  0  0  0  0
 11 15  2  0  0  0  0
 12  4  2  0  0  0  0
 13  8  2  0  0  0  0
 14  8  1  1  0  0  0
 14 17  1  0  0  0  0
 18  9  1  0  0  0  0
 19 28  1  6  0  0  0
 19 24  1  0  0  0  0
 19 23  1  0  0  0  0
 21 28  1  0  0  0  0
 21 27  1  0  0  0  0
 22 27  2  0  0  0  0
 23 20  1  1  0  0  0
 24  3  1  1  0  0  0
 24 25  1  0  0  0  0
 25 20  1  0  0  0  0
 25 26  2  0  0  0  0
 27 29  1  0  0  0  0
 29 23  1  0  0  0  0
 30 14  1  6  0  0  0
 31 33  1  0  0  0  0
 31 32  1  1  0  0  0
 31 30  1  0  0  0  0
 33 34  1  6  0  0  0
 33 30  1  0  0  0  0
 34 31  1  0  0  0  0
 35 34  1  0  0  0  0
 37 38  2  0  0  0  0
 38 35  1  0  0  0  0
 38 36  1  0  0  0  0
 39 36  1  0  0  0  0
 41 42  1  0  0  0  0
 42 44  1  0  0  0  0
 42 47  1  0  0  0  0
 43 51  1  1  0  0  0
 43 44  1  0  0  0  0
 44 40  1  6  0  0  0
 45 41  1  0  0  0  0
 45 43  1  0  0  0  0
 45 39  1  1  0  0  0
 47 48  1  0  0  0  0
 47 46  1  1  0  0  0
 48 49  1  0  0  0  0
 50 48  2  0  0  0  0
 52 53  1  0  0  0  0
 52 54  1  0  0  0  0
 53 54  1  0  0  0  0
 54 51  1  6  0  0  0
M  END
>  <MODEL>
3

>  <REMARK>
 VINA RESULT:      -4.2      2.247      3.613
  Name = 
  10 active torsions:
  status: ('A' for Active; 'I' for Inactive)
    1  A    between atoms: N_3  and  N_30
    2  A    between atoms: C_6  and  C_28
    3  A    between atoms: O_10  and  C_17
    4  A    between atoms: O_10  and  C_37
    5  A    between atoms: N_16  and  C_54
    6  A    between atoms: C_26  and  N_30
    7  A    between atoms: C_27  and  C_54
    8  A    between atoms: C_36  and  C_46
    9  A    between atoms: C_38  and  C_40
   10  A    between atoms: C_40  and  N_52
                            x       y       z     vdW  Elec       q    Type
                         _______ _______ _______ _____ _____    ______ ____

>  <TORSDO>
F 10

$$$$
=
 OpenBabel11062412453D

 54 61  0  0  1  0  0  0  0  0999 V2000
  191.7590  176.5040  137.6190 C   0  0  0  0  0  0  0  0  0  0  0  0
  191.8670  175.4870  136.8000 C   0  0  0  0  0  0  0  0  0  0  0  0
  191.8590  174.4540  136.0040 C   0  0  0  0  0  0  0  0  0  0  0  0
  190.0930  177.4570  140.0500 C   0  0  0  0  0  0  0  0  0  0  0  0
  190.5020  177.2810  137.6140 C   0  0  0  0  0  0  0  0  0  0  0  0
  189.0550  180.1200  137.9400 O   0  0  0  0  0  0  0  0  0  0  0  0
  189.6950  177.1470  136.6530 O   0  0  0  0  0  0  0  0  0  0  0  0
  187.6190  177.8500  140.2070 C   0  0  0  0  0  0  0  0  0  0  0  0
  192.4780  176.8920  140.0310 N   0  0  0  0  0  2  0  0  0  0  0  0
  190.1840  178.2120  138.7500 C   0  0  1  0  0  3  0  0  0  0  0  0
  192.7960  176.7220  138.6430 C   0  0  0  0  0  0  0  0  0  0  0  0
  188.8400  177.3200  140.7250 N   0  0  0  0  0  2  0  0  0  0  0  0
  186.5610  177.7330  140.8800 O   0  0  0  0  0  0  0  0  0  0  0  0
  187.5800  178.5330  138.8730 C   0  0  1  0  0  3  0  0  0  0  0  0
  194.0100  176.6840  138.3010 O   0  0  0  0  0  0  0  0  0  0  0  0
  192.3130  174.6530  134.5940 C   0  0  0  0  0  1  0  0  0  0  0  0
  188.9480  179.0420  138.5040 C   0  0  0  0  0  0  0  0  0  0  0  0
  191.1730  176.9220  140.6230 C   0  0  0  0  0  3  0  0  0  0  0  0
  189.6910  173.3460  136.1180 N   0  0  2  0  0  0  0  0  0  0  0  0
  190.3370  171.2480  135.1700 C   0  0  0  0  0  2  0  0  0  0  0  0
  187.4290  174.0360  136.7320 C   0  0  0  0  0  2  0  0  0  0  0  0
  185.8070  172.9240  135.3510 O   0  0  0  0  0  0  0  0  0  0  0  0
  189.2450  171.9780  135.9140 C   0  0  2  0  0  3  0  0  0  0  0  0
  191.1080  173.2170  136.4480 C   0  0  1  0  0  3  0  0  0  0  0  0
  191.5100  171.9670  135.7280 C   0  0  0  0  0  0  0  0  0  0  0  0
  192.6540  171.5470  135.6600 O   0  0  0  0  0  0  0  0  0  0  0  0
  186.9960  172.9490  135.7670 C   0  0  0  0  0  0  0  0  0  0  0  0
  188.8810  173.8550  137.2190 C   0  0  0  0  0  2  0  0  0  0  0  0
  187.9460  171.9920  135.2710 N   0  0  0  0  0  2  0  0  0  0  0  0
  187.0650  177.5790  137.7990 C   0  0  2  0  0  3  0  0  0  0  0  0
  186.0370  178.2610  136.9250 C   0  0  1  0  0  0  0  0  0  0  0  0
  185.9690  177.6000  135.5650 C   0  0  0  0  0  1  0  0  0  0  0  0
  185.5950  177.2640  137.9440 C   0  0  2  0  0  3  0  0  0  0  0  0
  184.6950  178.3470  137.5200 N   0  0  0  0  0  0  0  0  0  0  0  0
  184.6950  179.3900  138.5390 C   0  0  0  0  0  2  0  0  0  0  0  0
  182.1940  179.4700  138.8160 N   0  0  0  0  0  2  0  0  0  0  0  0
  183.5940  179.0000  140.6210 O   0  0  0  0  0  0  0  0  0  0  0  0
  183.4810  179.2500  139.3920 C   0  0  0  0  0  0  0  0  0  0  0  0
  181.0770  179.7620  139.6130 N   0  0  0  0  0  2  0  0  0  0  0  0
  178.9970  175.9420  140.1750 O   0  0  0  0  0  1  0  0  0  0  0  0
  180.4710  178.2260  137.5120 S   0  0  0  0  0  0  0  0  0  0  0  0
  180.3610  176.7000  138.4280 N   0  0  0  0  0  0  0  0  0  0  0  0
  179.1330  178.2830  139.8000 C   0  0  2  0  0  3  0  0  0  0  0  0
  179.8680  176.9620  139.7850 C   0  0  1  0  0  3  0  0  0  0  0  0
  179.9150  179.2250  138.9160 C   0  0  1  0  0  3  0  0  0  0  0  0
  182.3220  175.9650  139.8340 C   0  0  0  0  0  1  0  0  0  0  0  0
  181.6940  176.0760  138.4410 C   0  0  1  0  0  3  0  0  0  0  0  0
  181.6940  174.7660  137.7160 C   0  0  0  0  0  0  0  0  0  0  0  0
  182.8680  174.3060  137.1350 O   0  0  0  0  0  0  0  0  0  0  0  0
  180.6350  174.0900  137.6030 O   0  0  0  0  0  1  0  0  0  0  0  0
  179.0180  178.7730  141.1040 O   0  0  0  0  0  0  0  0  0  0  0  0
  179.7010  178.2540  143.2920 C   0  0  0  0  0  2  0  0  0  0  0  0
  180.7560  178.8560  142.5870 O   0  0  0  0  0  0  0  0  0  0  0  0
  179.9130  178.0030  141.8500 C   0  0  2  0  0  3  0  0  0  0  0  0
  1 11  1  0  0  0  0
  2  1  2  0  0  0  0
  3  2  2  0  0  0  0
  4 18  2  0  0  0  0
  4 12  1  0  0  0  0
  5  1  1  0  0  0  0
  6 17  2  0  0  0  0
  7  5  2  0  0  0  0
  8 12  1  0  0  0  0
  8 13  2  0  0  0  0
  9 18  1  0  0  0  0
 10  5  1  6  0  0  0
 10  4  1  0  0  0  0
 11  9  1  0  0  0  0
 14 17  1  6  0  0  0
 14  8  1  0  0  0  0
 15 11  2  0  0  0  0
 16  3  1  0  0  0  0
 17 10  1  0  0  0  0
 19 24  1  0  0  0  0
 19 28  1  1  0  0  0
 20 25  1  0  0  0  0
 21 28  1  0  0  0  0
 22 27  2  0  0  0  0
 23 20  1  6  0  0  0
 23 19  1  0  0  0  0
 24  3  1  6  0  0  0
 25 24  1  0  0  0  0
 26 25  2  0  0  0  0
 27 21  1  0  0  0  0
 29 27  1  0  0  0  0
 29 23  1  0  0  0  0
 30 33  1  0  0  0  0
 30 14  1  1  0  0  0
 31 32  1  6  0  0  0
 31 34  1  0  0  0  0
 31 30  1  0  0  0  0
 31 33  1  0  0  0  0
 33 34  1  1  0  0  0
 34 35  1  0  0  0  0
 35 38  1  0  0  0  0
 36 38  1  0  0  0  0
 36 39  1  0  0  0  0
 38 37  2  0  0  0  0
 41 42  1  0  0  0  0
 41 45  1  0  0  0  0
 42 47  1  0  0  0  0
 42 44  1  0  0  0  0
 43 51  1  1  0  0  0
 44 43  1  0  0  0  0
 44 40  1  6  0  0  0
 45 39  1  1  0  0  0
 45 43  1  0  0  0  0
 47 46  1  1  0  0  0
 48 47  1  0  0  0  0
 49 48  2  0  0  0  0
 50 48  1  0  0  0  0
 53 52  1  0  0  0  0
 54 51  1  6  0  0  0
 54 53  1  0  0  0  0
 54 52  1  0  0  0  0
M  END
>  <MODEL>
4

>  <REMARK>
 VINA RESULT:      -4.1      2.974     11.203
  Name = 
  10 active torsions:
  status: ('A' for Active; 'I' for Inactive)
    1  A    between atoms: N_3  and  N_30
    2  A    between atoms: C_6  and  C_28
    3  A    between atoms: O_10  and  C_17
    4  A    between atoms: O_10  and  C_37
    5  A    between atoms: N_16  and  C_54
    6  A    between atoms: C_26  and  N_30
    7  A    between atoms: C_27  and  C_54
    8  A    between atoms: C_36  and  C_46
    9  A    between atoms: C_38  and  C_40
   10  A    between atoms: C_40  and  N_52
                            x       y       z     vdW  Elec       q    Type
                         _______ _______ _______ _____ _____    ______ ____

>  <TORSDO>
F 10

$$$$
=
 OpenBabel11062412453D

 54 61  0  0  1  0  0  0  0  0999 V2000
  192.0490  174.0160  136.9190 C   0  0  0  0  0  0  0  0  0  0  0  0
  193.2350  173.7840  137.4240 C   0  0  0  0  0  0  0  0  0  0  0  0
  194.4100  173.6610  137.9790 C   0  0  0  0  0  0  0  0  0  0  0  0
  190.2350  176.3690  136.0430 C   0  0  0  0  0  0  0  0  0  0  0  0
  191.0710  174.7660  137.7350 C   0  0  0  0  0  0  0  0  0  0  0  0
  188.0150  175.2340  138.5730 O   0  0  0  0  0  0  0  0  0  0  0  0
  191.2770  174.9100  138.9720 O   0  0  0  0  0  0  0  0  0  0  0  0
  189.3510  178.2740  137.4190 C   0  0  0  0  0  0  0  0  0  0  0  0
  191.2330  174.6620  134.5940 N   0  0  0  0  0  2  0  0  0  0  0  0
  189.8500  175.3620  137.0930 C   0  0  1  0  0  3  0  0  0  0  0  0
  191.7920  173.7020  135.5020 C   0  0  0  0  0  0  0  0  0  0  0  0
  189.9630  177.7600  136.2340 N   0  0  0  0  0  2  0  0  0  0  0  0
  189.0970  179.5040  137.4980 O   0  0  0  0  0  0  0  0  0  0  0  0
  189.0170  177.3700  138.5670 C   0  0  1  0  0  3  0  0  0  0  0  0
  192.1420  172.5770  135.0530 O   0  0  0  0  0  0  0  0  0  0  0  0
  194.6480  172.4730  138.8550 C   0  0  0  0  0  1  0  0  0  0  0  0
  188.8830  175.9470  138.0940 C   0  0  0  0  0  0  0  0  0  0  0  0
  190.8120  175.9980  134.8980 C   0  0  0  0  0  3  0  0  0  0  0  0
  196.2570  174.7920  139.0940 N   0  0  2  0  0  0  0  0  0  0  0  0
  197.6690  175.0860  137.1870 C   0  0  0  0  0  2  0  0  0  0  0  0
  196.8050  175.3330  141.4130 C   0  0  0  0  0  2  0  0  0  0  0  0
  199.1730  175.1610  141.7800 O   0  0  0  0  0  0  0  0  0  0  0  0
  197.4460  175.4840  138.6270 C   0  0  2  0  0  3  0  0  0  0  0  0
  195.3350  174.8580  137.9640 C   0  0  1  0  0  3  0  0  0  0  0  0
  196.2520  174.9050  136.7810 C   0  0  0  0  0  0  0  0  0  0  0  0
  195.8830  174.8670  135.6190 O   0  0  0  0  0  0  0  0  0  0  0  0
  198.2420  175.2520  140.9360 C   0  0  0  0  0  0  0  0  0  0  0  0
  195.8060  175.5470  140.2580 C   0  0  0  0  0  2  0  0  0  0  0  0
  198.5440  175.2080  139.5320 N   0  0  0  0  0  2  0  0  0  0  0  0
  190.0860  177.4660  139.6520 C   0  0  2  0  0  3  0  0  0  0  0  0
  189.4850  177.2310  141.0190 C   0  0  1  0  0  0  0  0  0  0  0  0
  190.5370  176.7340  141.9870 C   0  0  0  0  0  1  0  0  0  0  0  0
  189.8590  178.6160  140.6050 C   0  0  2  0  0  3  0  0  0  0  0  0
  188.7820  178.3950  141.5810 N   0  0  0  0  0  0  0  0  0  0  0  0
  187.4960  178.5400  140.9100 C   0  0  0  0  0  2  0  0  0  0  0  0
  185.0500  178.2760  141.4420 N   0  0  0  0  0  2  0  0  0  0  0  0
  186.6490  178.3800  143.1360 O   0  0  0  0  0  0  0  0  0  0  0  0
  186.3970  178.3740  141.9020 C   0  0  0  0  0  0  0  0  0  0  0  0
  183.9660  178.5330  142.2940 N   0  0  0  0  0  2  0  0  0  0  0  0
  180.2320  177.4450  140.2680 O   0  0  0  0  0  1  0  0  0  0  0  0
  183.4920  179.3500  139.7950 S   0  0  0  0  0  0  0  0  0  0  0  0
  182.3180  178.0670  139.4030 N   0  0  0  0  0  0  0  0  0  0  0  0
  181.6320  178.8180  141.6070 C   0  0  2  0  0  3  0  0  0  0  0  0
  181.5650  177.6890  140.6050 C   0  0  1  0  0  3  0  0  0  0  0  0
  183.0360  179.3710  141.5470 C   0  0  1  0  0  3  0  0  0  0  0  0
  182.4650  175.5570  139.1910 C   0  0  0  0  0  1  0  0  0  0  0  0
  183.0590  176.9250  138.8400 C   0  0  1  0  0  3  0  0  0  0  0  0
  183.2760  177.0850  137.3670 C   0  0  0  0  0  0  0  0  0  0  0  0
  184.4820  176.6860  136.8070 O   0  0  0  0  0  1  0  0  0  0  0  0
  182.3890  177.6040  136.6350 O   0  0  0  0  0  0  0  0  0  0  0  0
  181.3090  178.3640  142.8890 O   0  0  0  0  0  0  0  0  0  0  0  0
  179.8440  178.8580  144.6580 C   0  0  0  0  0  2  0  0  0  0  0  0
  179.1740  178.1210  143.6680 O   0  0  0  0  0  0  0  0  0  0  0  0
  180.1360  179.0450  143.2210 C   0  0  2  0  0  3  0  0  0  0  0  0
  1  2  2  0  0  0  0
  1  5  1  0  0  0  0
  2  3  2  0  0  0  0
  3 16  1  0  0  0  0
  4 12  1  0  0  0  0
  5  7  2  0  0  0  0
  8 13  2  0  0  0  0
  9 18  1  0  0  0  0
  9 11  1  0  0  0  0
 10  4  1  6  0  0  0
 10  5  1  0  0  0  0
 10 17  1  0  0  0  0
 11  1  1  0  0  0  0
 12  8  1  0  0  0  0
 14  8  1  6  0  0  0
 15 11  2  0  0  0  0
 17 14  1  0  0  0  0
 17  6  2  0  0  0  0
 18  4  2  0  0  0  0
 19 28  1  1  0  0  0
 23 20  1  6  0  0  0
 23 19  1  0  0  0  0
 23 29  1  0  0  0  0
 24  3  1  6  0  0  0
 24 19  1  0  0  0  0
 25 20  1  0  0  0  0
 25 24  1  0  0  0  0
 26 25  2  0  0  0  0
 27 21  1  0  0  0  0
 27 22  2  0  0  0  0
 28 21  1  0  0  0  0
 29 27  1  0  0  0  0
 30 14  1  6  0  0  0
 30 33  1  0  0  0  0
 30 31  1  0  0  0  0
 31 34  1  0  0  0  0
 31 32  1  1  0  0  0
 33 31  1  0  0  0  0
 33 34  1  6  0  0  0
 35 34  1  0  0  0  0
 35 38  1  0  0  0  0
 36 38  1  0  0  0  0
 36 39  1  0  0  0  0
 38 37  2  0  0  0  0
 41 45  1  0  0  0  0
 42 41  1  0  0  0  0
 42 44  1  0  0  0  0
 43 51  1  1  0  0  0
 44 40  1  6  0  0  0
 44 43  1  0  0  0  0
 45 43  1  0  0  0  0
 45 39  1  1  0  0  0
 47 46  1  6  0  0  0
 47 42  1  0  0  0  0
 48 47  1  0  0  0  0
 49 48  1  0  0  0  0
 50 48  2  0  0  0  0
 53 52  1  0  0  0  0
 54 51  1  1  0  0  0
 54 53  1  0  0  0  0
 54 52  1  0  0  0  0
M  END
>  <MODEL>
5

>  <REMARK>
 VINA RESULT:      -3.4      3.196     11.923
  Name = 
  10 active torsions:
  status: ('A' for Active; 'I' for Inactive)
    1  A    between atoms: N_3  and  N_30
    2  A    between atoms: C_6  and  C_28
    3  A    between atoms: O_10  and  C_17
    4  A    between atoms: O_10  and  C_37
    5  A    between atoms: N_16  and  C_54
    6  A    between atoms: C_26  and  N_30
    7  A    between atoms: C_27  and  C_54
    8  A    between atoms: C_36  and  C_46
    9  A    between atoms: C_38  and  C_40
   10  A    between atoms: C_40  and  N_52
                            x       y       z     vdW  Elec       q    Type
                         _______ _______ _______ _____ _____    ______ ____

>  <TORSDO>
F 10

$$$$
=
 OpenBabel11062412453D

 54 61  0  0  1  0  0  0  0  0999 V2000
  184.1790  177.1510  136.6430 C   0  0  0  0  0  0  0  0  0  0  0  0
  183.3450  176.1770  136.3740 C   0  0  0  0  0  0  0  0  0  0  0  0
  182.5060  175.1890  136.2240 C   0  0  0  0  0  0  0  0  0  0  0  0
  186.2410  178.0170  138.7860 C   0  0  0  0  0  0  0  0  0  0  0  0
  183.9470  177.9610  137.8570 C   0  0  0  0  0  0  0  0  0  0  0  0
  184.1170  180.8180  139.2960 O   0  0  0  0  0  0  0  0  0  0  0  0
  182.8260  177.9020  138.4360 O   0  0  0  0  0  0  0  0  0  0  0  0
  185.8790  178.4690  141.2290 C   0  0  0  0  0  0  0  0  0  0  0  0
  186.7090  177.3870  136.4640 N   0  0  0  0  0  2  0  0  0  0  0  0
  185.0390  178.8370  138.4010 C   0  0  1  0  0  3  0  0  0  0  0  0
  185.4150  177.2840  135.8520 C   0  0  0  0  0  0  0  0  0  0  0  0
  186.6180  177.8770  140.1590 N   0  0  0  0  0  2  0  0  0  0  0  0
  186.2970  178.3450  142.4090 O   0  0  0  0  0  0  0  0  0  0  0  0
  184.6110  179.2240  140.9640 C   0  0  1  0  0  3  0  0  0  0  0  0
  185.3440  177.2310  134.5940 O   0  0  0  0  0  0  0  0  0  0  0  0
  181.2430  175.4520  135.4690 C   0  0  0  0  0  1  0  0  0  0  0  0
  184.5800  179.7140  139.5410 C   0  0  0  0  0  0  0  0  0  0  0  0
  187.0030  177.4210  137.8660 C   0  0  0  0  0  3  0  0  0  0  0  0
  181.7440  172.9210  136.6840 N   0  0  2  0  0  0  0  0  0  0  0  0
  183.8680  171.8280  136.5850 C   0  0  0  0  0  2  0  0  0  0  0  0
  179.5630  171.8520  136.9500 C   0  0  0  0  0  2  0  0  0  0  0  0
  179.5980  169.6310  136.0350 O   0  0  0  0  0  0  0  0  0  0  0  0
  182.4200  171.6710  136.9850 C   0  0  2  0  0  3  0  0  0  0  0  0
  182.7030  173.9520  137.0720 C   0  0  1  0  0  3  0  0  0  0  0  0
  184.0250  173.2770  136.8690 C   0  0  0  0  0  0  0  0  0  0  0  0
  185.1070  173.8280  136.9860 O   0  0  0  0  0  0  0  0  0  0  0  0
  180.2740  170.6140  136.4400 C   0  0  0  0  0  0  0  0  0  0  0  0
  180.5370  172.9120  137.5030 C   0  0  0  0  0  2  0  0  0  0  0  0
  181.7080  170.5800  136.3500 N   0  0  0  0  0  2  0  0  0  0  0  0
  183.3960  178.3450  141.2460 C   0  0  2  0  0  3  0  0  0  0  0  0
  182.5290  178.9570  142.3220 C   0  0  1  0  0  0  0  0  0  0  0  0
  181.1010  178.4730  142.1980 C   0  0  0  0  0  1  0  0  0  0  0  0
  183.3880  177.7790  142.6470 C   0  0  2  0  0  3  0  0  0  0  0  0
  183.0240  178.7470  143.6920 N   0  0  0  0  0  0  0  0  0  0  0  0
  184.1530  179.6380  143.9290 C   0  0  0  0  0  2  0  0  0  0  0  0
  186.1110  179.3610  145.4870 N   0  0  0  0  0  2  0  0  0  0  0  0
  183.9190  179.1670  146.2580 O   0  0  0  0  0  0  0  0  0  0  0  0
  184.6970  179.3970  145.2950 C   0  0  0  0  0  0  0  0  0  0  0  0
  186.6810  178.7460  146.6120 N   0  0  0  0  0  2  0  0  0  0  0  0
  190.1480  176.0750  146.3460 O   0  0  0  0  0  1  0  0  0  0  0  0
  186.9490  177.0750  144.5440 S   0  0  0  0  0  0  0  0  0  0  0  0
  188.7180  176.8960  144.6830 N   0  0  0  0  0  0  0  0  0  0  0  0
  187.9380  176.6740  146.9710 C   0  0  2  0  0  3  0  0  0  0  0  0
  189.1240  176.9890  146.0900 C   0  0  1  0  0  3  0  0  0  0  0  0
  186.7330  177.3170  146.3250 C   0  0  1  0  0  3  0  0  0  0  0  0
  190.4060  178.7690  144.6000 C   0  0  0  0  0  1  0  0  0  0  0  0
  189.3490  177.9410  143.8600 C   0  0  1  0  0  3  0  0  0  0  0  0
  189.8700  177.3850  142.5710 C   0  0  0  0  0  0  0  0  0  0  0  0
  190.7200  176.2880  142.5950 O   0  0  0  0  0  1  0  0  0  0  0  0
  189.5690  177.9180  141.4680 O   0  0  0  0  0  0  0  0  0  0  0  0
  188.1430  177.1490  148.2700 O   0  0  0  0  0  0  0  0  0  0  0  0
  190.1030  178.1910  149.0420 C   0  0  0  0  0  2  0  0  0  0  0  0
  188.9860  178.9990  149.3150 O   0  0  0  0  0  0  0  0  0  0  0  0
  188.9570  178.2720  148.1100 C   0  0  2  0  0  3  0  0  0  0  0  0
  1  5  1  0  0  0  0
  2  1  2  0  0  0  0
  3  2  2  0  0  0  0
  4 12  1  0  0  0  0
  5  7  2  0  0  0  0
  6 17  2  0  0  0  0
  8 13  2  0  0  0  0
  9 18  1  0  0  0  0
 10  5  1  1  0  0  0
 10  4  1  0  0  0  0
 10 17  1  0  0  0  0
 11  9  1  0  0  0  0
 11  1  1  0  0  0  0
 12  8  1  0  0  0  0
 14 17  1  6  0  0  0
 14  8  1  0  0  0  0
 15 11  2  0  0  0  0
 16  3  1  0  0  0  0
 18  4  2  0  0  0  0
 19 23  1  0  0  0  0
 19 24  1  0  0  0  0
 19 28  1  1  0  0  0
 20 25  1  0  0  0  0
 21 28  1  0  0  0  0
 22 27  2  0  0  0  0
 23 20  1  6  0  0  0
 24  3  1  6  0  0  0
 25 26  2  0  0  0  0
 25 24  1  0  0  0  0
 27 21  1  0  0  0  0
 29 27  1  0  0  0  0
 29 23  1  0  0  0  0
 30 14  1  1  0  0  0
 30 31  1  0  0  0  0
 30 33  1  0  0  0  0
 31 32  1  6  0  0  0
 31 33  1  0  0  0  0
 31 34  1  0  0  0  0
 33 34  1  1  0  0  0
 34 35  1  0  0  0  0
 35 38  1  0  0  0  0
 36 39  1  0  0  0  0
 38 36  1  0  0  0  0
 38 37  2  0  0  0  0
 41 42  1  0  0  0  0
 41 45  1  0  0  0  0
 42 44  1  0  0  0  0
 43 51  1  1  0  0  0
 44 40  1  6  0  0  0
 44 43  1  0  0  0  0
 45 39  1  6  0  0  0
 45 43  1  0  0  0  0
 47 46  1  1  0  0  0
 47 42  1  0  0  0  0
 48 49  1  0  0  0  0
 48 47  1  0  0  0  0
 50 48  2  0  0  0  0
 52 53  1  0  0  0  0
 54 51  1  1  0  0  0
 54 52  1  0  0  0  0
 54 53  1  0  0  0  0
M  END
>  <MODEL>
6

>  <REMARK>
 VINA RESULT:      -3.4      4.285      8.934
  Name = 
  10 active torsions:
  status: ('A' for Active; 'I' for Inactive)
    1  A    between atoms: N_3  and  N_30
    2  A    between atoms: C_6  and  C_28
    3  A    between atoms: O_10  and  C_17
    4  A    between atoms: O_10  and  C_37
    5  A    between atoms: N_16  and  C_54
    6  A    between atoms: C_26  and  N_30
    7  A    between atoms: C_27  and  C_54
    8  A    between atoms: C_36  and  C_46
    9  A    between atoms: C_38  and  C_40
   10  A    between atoms: C_40  and  N_52
                            x       y       z     vdW  Elec       q    Type
                         _______ _______ _______ _____ _____    ______ ____

>  <TORSDO>
F 10

$$$$
=
 OpenBabel11062412453D

 54 61  0  0  1  0  0  0  0  0999 V2000
  192.2930  176.8840  138.4430 C   0  0  0  0  0  0  0  0  0  0  0  0
  192.8120  175.9330  137.7050 C   0  0  0  0  0  0  0  0  0  0  0  0
  193.2170  174.9500  136.9490 C   0  0  0  0  0  0  0  0  0  0  0  0
  189.7920  177.4810  140.1700 C   0  0  0  0  0  0  0  0  0  0  0  0
  191.0120  177.4860  138.0150 C   0  0  0  0  0  0  0  0  0  0  0  0
  189.1520  180.0870  137.8420 O   0  0  0  0  0  0  0  0  0  0  0  0
  190.6010  177.2950  136.8370 O   0  0  0  0  0  0  0  0  0  0  0  0
  187.3780  177.5340  139.4820 C   0  0  0  0  0  0  0  0  0  0  0  0
  192.1010  177.2400  140.9570 N   0  0  0  0  0  2  0  0  0  0  0  0
  190.2040  178.3070  138.9800 C   0  0  1  0  0  3  0  0  0  0  0  0
  192.8850  177.1850  139.7580 C   0  0  0  0  0  0  0  0  0  0  0  0
  188.4180  177.1440  140.3810 N   0  0  0  0  0  0  0  0  0  0  0  0
  186.1850  177.2430  139.7570 O   0  0  0  0  0  0  0  0  0  0  0  0
  187.6910  178.2720  138.2160 C   0  0  1  0  0  3  0  0  0  0  0  0
  194.1350  177.3260  139.8460 O   0  0  0  0  0  0  0  0  0  0  0  0
  194.0840  175.2800  135.7770 C   0  0  0  0  0  1  0  0  0  0  0  0
  189.0160  178.9770  138.3330 C   0  0  0  0  0  0  0  0  0  0  0  0
  190.6820  177.0660  141.0720 C   0  0  0  0  0  2  0  0  0  0  0  0
  191.2460  173.6100  136.4420 N   0  0  2  0  0  0  0  0  0  0  0  0
  192.3660  171.6910  135.5550 C   0  0  0  0  0  2  0  0  0  0  0  0
  188.8340  173.9910  136.5070 C   0  0  0  0  0  2  0  0  0  0  0  0
  187.7520  172.8450  134.6940 O   0  0  0  0  0  0  0  0  0  0  0  0
  191.0410  172.2270  136.0450 C   0  0  2  0  0  3  0  0  0  0  0  0
  192.5450  173.6040  137.1100 C   0  0  1  0  0  3  0  0  0  0  0  0
  193.2670  172.4770  136.4360 C   0  0  0  0  0  0  0  0  0  0  0  0
  194.4360  172.1910  136.6330 O   0  0  0  0  0  0  0  0  0  0  0  0
  188.7910  172.9590  135.3970 C   0  0  0  0  0  0  0  0  0  0  0  0
  190.1350  173.9230  137.3320 C   0  0  0  0  0  2  0  0  0  0  0  0
  189.9470  172.1610  135.0960 N   0  0  0  0  0  2  0  0  0  0  0  0
  187.7060  177.3150  137.0270 C   0  0  2  0  0  3  0  0  0  0  0  0
  186.7680  177.7920  135.9430 C   0  0  1  0  0  0  0  0  0  0  0  0
  187.1910  177.2520  134.5940 C   0  0  0  0  0  1  0  0  0  0  0  0
  186.3770  176.6340  136.8000 C   0  0  2  0  0  3  0  0  0  0  0  0
  185.3490  177.4910  136.1920 N   0  0  0  0  0  0  0  0  0  0  0  0
  184.8410  178.4120  137.2010 C   0  0  0  0  0  2  0  0  0  0  0  0
  182.6890  178.9150  138.4070 N   0  0  0  0  0  2  0  0  0  0  0  0
  182.8130  177.2120  136.8180 O   0  0  0  0  0  0  0  0  0  0  0  0
  183.3940  178.1460  137.4330 C   0  0  0  0  0  0  0  0  0  0  0  0
  181.4830  178.4620  138.9620 N   0  0  0  0  0  2  0  0  0  0  0  0
  178.9320  176.2550  141.7650 O   0  0  0  0  0  1  0  0  0  0  0  0
  182.2770  178.0470  141.4800 S   0  0  0  0  0  0  0  0  0  0  0  0
  180.6420  177.8090  142.1500 N   0  0  0  0  0  0  0  0  0  0  0  0
  180.6290  176.4790  140.1200 C   0  0  2  0  0  3  0  0  0  0  0  0
  179.7730  177.1830  141.1470 C   0  0  1  0  0  3  0  0  0  0  0  0
  181.8230  177.3680  139.8640 C   0  0  1  0  0  3  0  0  0  0  0  0
  179.2280  179.8090  141.5450 C   0  0  0  0  0  1  0  0  0  0  0  0
  180.1280  179.1210  142.5770 C   0  0  1  0  0  3  0  0  0  0  0  0
  179.4820  179.0440  143.9260 C   0  0  0  0  0  0  0  0  0  0  0  0
  179.1980  180.2150  144.6160 O   0  0  0  0  0  1  0  0  0  0  0  0
  179.2200  177.9290  144.4550 O   0  0  0  0  0  0  0  0  0  0  0  0
  179.9030  176.2390  138.9490 O   0  0  0  0  0  0  0  0  0  0  0  0
  179.5000  174.1640  137.9230 C   0  0  0  0  0  2  0  0  0  0  0  0
  180.2170  173.9810  139.1170 O   0  0  0  0  0  0  0  0  0  0  0  0
  180.5250  175.1320  138.3690 C   0  0  2  0  0  3  0  0  0  0  0  0
  1 11  1  0  0  0  0
  2  1  2  0  0  0  0
  3  2  2  0  0  0  0
  4 12  2  0  0  0  0
  4 18  1  0  0  0  0
  5  1  1  0  0  0  0
  6 17  2  0  0  0  0
  7  5  2  0  0  0  0
  8 13  2  0  0  0  0
  8 12  1  0  0  0  0
  9 18  1  0  0  0  0
 10  5  1  6  0  0  0
 10  4  1  0  0  0  0
 11 15  2  0  0  0  0
 11  9  1  0  0  0  0
 14 17  1  1  0  0  0
 14  8  1  0  0  0  0
 16  3  1  0  0  0  0
 17 10  1  0  0  0  0
 19 24  1  0  0  0  0
 19 28  1  1  0  0  0
 20 25  1  0  0  0  0
 21 28  1  0  0  0  0
 22 27  2  0  0  0  0
 23 20  1  6  0  0  0
 23 19  1  0  0  0  0
 24  3  1  6  0  0  0
 25 26  2  0  0  0  0
 25 24  1  0  0  0  0
 27 21  1  0  0  0  0
 29 27  1  0  0  0  0
 29 23  1  0  0  0  0
 30 14  1  1  0  0  0
 31 32  1  6  0  0  0
 31 34  1  0  0  0  0
 31 33  1  0  0  0  0
 31 30  1  0  0  0  0
 33 34  1  1  0  0  0
 33 30  1  0  0  0  0
 34 35  1  0  0  0  0
 35 38  1  0  0  0  0
 36 39  1  0  0  0  0
 37 38  2  0  0  0  0
 38 36  1  0  0  0  0
 41 42  1  0  0  0  0
 42 47  1  0  0  0  0
 43 51  1  6  0  0  0
 43 44  1  0  0  0  0
 44 40  1  1  0  0  0
 44 42  1  0  0  0  0
 45 39  1  6  0  0  0
 45 43  1  0  0  0  0
 45 41  1  0  0  0  0
 47 46  1  6  0  0  0
 47 48  1  0  0  0  0
 48 50  2  0  0  0  0
 48 49  1  0  0  0  0
 52 54  1  0  0  0  0
 52 53  1  0  0  0  0
 54 51  1  1  0  0  0
 54 53  1  0  0  0  0
M  END
>  <MODEL>
7

>  <REMARK>
 VINA RESULT:      -3.2      2.805     11.372
  Name = 
  10 active torsions:
  status: ('A' for Active; 'I' for Inactive)
    1  A    between atoms: N_3  and  N_30
    2  A    between atoms: C_6  and  C_28
    3  A    between atoms: O_10  and  C_17
    4  A    between atoms: O_10  and  C_37
    5  A    between atoms: N_16  and  C_54
    6  A    between atoms: C_26  and  N_30
    7  A    between atoms: C_27  and  C_54
    8  A    between atoms: C_36  and  C_46
    9  A    between atoms: C_38  and  C_40
   10  A    between atoms: C_40  and  N_52
                            x       y       z     vdW  Elec       q    Type
                         _______ _______ _______ _____ _____    ______ ____

>  <TORSDO>
F 10

$$$$
=
 OpenBabel11062412453D

 54 61  0  0  1  0  0  0  0  0999 V2000
  192.0830  176.6740  138.0210 C   0  0  0  0  0  0  0  0  0  0  0  0
  192.5070  175.6900  137.2680 C   0  0  0  0  0  0  0  0  0  0  0  0
  192.8150  174.6760  136.5070 C   0  0  0  0  0  0  0  0  0  0  0  0
  189.7580  177.3980  139.9360 C   0  0  0  0  0  0  0  0  0  0  0  0
  190.7910  177.3090  137.6870 C   0  0  0  0  0  0  0  0  0  0  0  0
  189.0060  179.9680  137.6020 O   0  0  0  0  0  0  0  0  0  0  0  0
  190.2750  177.1050  136.5530 O   0  0  0  0  0  0  0  0  0  0  0  0
  187.2980  177.5160  139.4520 C   0  0  0  0  0  0  0  0  0  0  0  0
  192.1170  177.0960  140.5330 N   0  0  0  0  0  2  0  0  0  0  0  0
  190.0940  178.1800  138.6940 C   0  0  1  0  0  3  0  0  0  0  0  0
  192.7950  176.9860  139.2730 C   0  0  0  0  0  0  0  0  0  0  0  0
  188.3970  177.1130  140.2710 N   0  0  0  0  0  0  0  0  0  0  0  0
  186.1230  177.2730  139.8340 O   0  0  0  0  0  0  0  0  0  0  0  0
  187.5250  178.2130  138.1450 C   0  0  1  0  0  3  0  0  0  0  0  0
  194.0510  177.0870  139.2530 O   0  0  0  0  0  0  0  0  0  0  0  0
  193.5890  174.9480  135.2580 C   0  0  0  0  0  1  0  0  0  0  0  0
  188.8770  178.8750  138.1320 C   0  0  0  0  0  0  0  0  0  0  0  0
  190.7080  176.9730  140.7710 C   0  0  0  0  0  2  0  0  0  0  0  0
  190.7720  173.3870  136.1900 N   0  0  2  0  0  0  0  0  0  0  0  0
  191.7610  171.4080  135.2820 C   0  0  0  0  0  2  0  0  0  0  0  0
  188.3840  173.8490  136.4250 C   0  0  0  0  0  2  0  0  0  0  0  0
  187.1330  172.6880  134.7350 O   0  0  0  0  0  0  0  0  0  0  0  0
  190.4950  172.0010  135.8530 C   0  0  2  0  0  3  0  0  0  0  0  0
  192.1160  173.3570  136.7590 C   0  0  1  0  0  3  0  0  0  0  0  0
  192.7500  172.1890  136.0680 C   0  0  0  0  0  0  0  0  0  0  0  0
  193.9220  171.8700  136.1850 O   0  0  0  0  0  0  0  0  0  0  0  0
  188.2250  172.7880  135.3540 C   0  0  0  0  0  0  0  0  0  0  0  0
  189.7410  173.7610  137.1520 C   0  0  0  0  0  2  0  0  0  0  0  0
  189.3300  171.9440  134.9920 N   0  0  0  0  0  2  0  0  0  0  0  0
  187.4090  177.2280  136.9850 C   0  0  2  0  0  3  0  0  0  0  0  0
  186.4270  177.7310  135.9520 C   0  0  1  0  0  0  0  0  0  0  0  0
  186.7300  177.1350  134.5940 C   0  0  0  0  0  1  0  0  0  0  0  0
  186.0330  176.6170  136.8650 C   0  0  2  0  0  3  0  0  0  0  0  0
  185.0140  177.5160  136.3020 N   0  0  0  0  0  0  0  0  0  0  0  0
  184.6250  178.4880  137.3160 C   0  0  0  0  0  2  0  0  0  0  0  0
  182.3600  177.3970  137.1890 N   0  0  0  0  0  2  0  0  0  0  0  0
  183.1590  178.2880  139.1900 O   0  0  0  0  0  0  0  0  0  0  0  0
  183.3640  178.0430  137.9710 C   0  0  0  0  0  0  0  0  0  0  0  0
  181.0270  177.3310  137.6190 N   0  0  0  0  0  2  0  0  0  0  0  0
  180.0490  173.0600  137.8060 O   0  0  0  0  0  1  0  0  0  0  0  0
  181.5160  175.7350  135.5320 S   0  0  0  0  0  0  0  0  0  0  0  0
  181.5840  174.2220  136.4720 N   0  0  0  0  0  0  0  0  0  0  0  0
  179.6160  175.3470  137.3400 C   0  0  2  0  0  3  0  0  0  0  0  0
  180.6680  174.2970  137.6160 C   0  0  1  0  0  3  0  0  0  0  0  0
  180.3180  176.4970  136.6560 C   0  0  1  0  0  3  0  0  0  0  0  0
  183.3040  174.5890  138.2820 C   0  0  0  0  0  1  0  0  0  0  0  0
  182.9770  174.0110  136.9000 C   0  0  1  0  0  3  0  0  0  0  0  0
  183.3760  172.5730  136.7820 C   0  0  0  0  0  0  0  0  0  0  0  0
  184.6180  172.1670  137.2530 O   0  0  0  0  0  1  0  0  0  0  0  0
  182.6110  171.7330  136.2340 O   0  0  0  0  0  0  0  0  0  0  0  0
  178.9960  175.7520  138.5260 O   0  0  0  0  0  0  0  0  0  0  0  0
  178.9890  175.2510  140.8210 C   0  0  0  0  0  2  0  0  0  0  0  0
  180.1100  176.0350  140.5020 O   0  0  0  0  0  0  0  0  0  0  0  0
  179.7030  175.0960  139.5350 C   0  0  2  0  0  3  0  0  0  0  0  0
  1 11  1  0  0  0  0
  2  1  2  0  0  0  0
  3  2  2  0  0  0  0
  4 12  2  0  0  0  0
  4 18  1  0  0  0  0
  5  1  1  0  0  0  0
  6 17  2  0  0  0  0
  7  5  2  0  0  0  0
  8 13  2  0  0  0  0
  8 12  1  0  0  0  0
  9 18  1  0  0  0  0
 10  5  1  6  0  0  0
 10  4  1  0  0  0  0
 11  9  1  0  0  0  0
 14 17  1  1  0  0  0
 14  8  1  0  0  0  0
 15 11  2  0  0  0  0
 16  3  1  0  0  0  0
 17 10  1  0  0  0  0
 19 24  1  0  0  0  0
 19 28  1  1  0  0  0
 20 25  1  0  0  0  0
 21 28  1  0  0  0  0
 22 27  2  0  0  0  0
 23 20  1  6  0  0  0
 23 19  1  0  0  0  0
 24  3  1  6  0  0  0
 25 26  2  0  0  0  0
 25 24  1  0  0  0  0
 27 21  1  0  0  0  0
 29 27  1  0  0  0  0
 29 23  1  0  0  0  0
 30 14  1  1  0  0  0
 31 32  1  6  0  0  0
 31 34  1  0  0  0  0
 31 33  1  0  0  0  0
 31 30  1  0  0  0  0
 33 34  1  1  0  0  0
 33 30  1  0  0  0  0
 34 35  1  0  0  0  0
 35 38  1  0  0  0  0
 36 39  1  0  0  0  0
 36 38  1  0  0  0  0
 38 37  2  0  0  0  0
 41 42  1  0  0  0  0
 41 45  1  0  0  0  0
 42 47  1  0  0  0  0
 42 44  1  0  0  0  0
 43 44  1  0  0  0  0
 43 51  1  1  0  0  0
 44 40  1  6  0  0  0
 45 43  1  0  0  0  0
 45 39  1  1  0  0  0
 47 46  1  1  0  0  0
 48 47  1  0  0  0  0
 48 49  1  0  0  0  0
 50 48  2  0  0  0  0
 53 52  1  0  0  0  0
 54 51  1  6  0  0  0
 54 53  1  0  0  0  0
 54 52  1  0  0  0  0
M  END
>  <MODEL>
8

>  <REMARK>
 VINA RESULT:      -3.1      3.135     10.924
  Name = 
  10 active torsions:
  status: ('A' for Active; 'I' for Inactive)
    1  A    between atoms: N_3  and  N_30
    2  A    between atoms: C_6  and  C_28
    3  A    between atoms: O_10  and  C_17
    4  A    between atoms: O_10  and  C_37
    5  A    between atoms: N_16  and  C_54
    6  A    between atoms: C_26  and  N_30
    7  A    between atoms: C_27  and  C_54
    8  A    between atoms: C_36  and  C_46
    9  A    between atoms: C_38  and  C_40
   10  A    between atoms: C_40  and  N_52
                            x       y       z     vdW  Elec       q    Type
                         _______ _______ _______ _____ _____    ______ ____

>  <TORSDO>
F 10

$$$$
=
 OpenBabel11062412453D

 54 61  0  0  1  0  0  0  0  0999 V2000
  191.7350  176.6300  137.5320 C   0  0  0  0  0  0  0  0  0  0  0  0
  191.9840  175.6150  136.7410 C   0  0  0  0  0  0  0  0  0  0  0  0
  192.1150  174.5790  135.9590 C   0  0  0  0  0  0  0  0  0  0  0  0
  189.7550  177.5140  139.7450 C   0  0  0  0  0  0  0  0  0  0  0  0
  190.4520  177.3470  137.3740 C   0  0  0  0  0  0  0  0  0  0  0  0
  188.8490  180.1170  137.5040 O   0  0  0  0  0  0  0  0  0  0  0  0
  189.7690  177.1720  136.3270 O   0  0  0  0  0  0  0  0  0  0  0  0
  187.2640  177.7920  139.6100 C   0  0  0  0  0  0  0  0  0  0  0  0
  192.1500  177.0610  140.0080 N   0  0  0  0  0  2  0  0  0  0  0  0
  189.9620  178.2670  138.4570 C   0  0  1  0  0  3  0  0  0  0  0  0
  192.6350  176.9000  138.6680 C   0  0  0  0  0  0  0  0  0  0  0  0
  188.4400  177.3210  140.2710 N   0  0  0  0  0  0  0  0  0  0  0  0
  186.1420  177.6290  140.1560 O   0  0  0  0  0  0  0  0  0  0  0  0
  187.3490  178.4670  138.2740 C   0  0  1  0  0  3  0  0  0  0  0  0
  193.8800  176.9170  138.4690 O   0  0  0  0  0  0  0  0  0  0  0  0
  192.7210  174.7940  134.6090 C   0  0  0  0  0  1  0  0  0  0  0  0
  188.7260  179.0380  138.0610 C   0  0  0  0  0  0  0  0  0  0  0  0
  190.7850  177.0320  140.4440 C   0  0  0  0  0  2  0  0  0  0  0  0
  190.0020  173.3720  135.8300 N   0  0  2  0  0  0  0  0  0  0  0  0
  190.8520  171.3020  134.9860 C   0  0  0  0  0  2  0  0  0  0  0  0
  187.6540  173.9570  136.1670 C   0  0  0  0  0  2  0  0  0  0  0  0
  186.2590  172.7630  134.6170 O   0  0  0  0  0  0  0  0  0  0  0  0
  189.6470  171.9840  135.5900 C   0  0  2  0  0  3  0  0  0  0  0  0
  191.3750  173.3110  136.3260 C   0  0  1  0  0  3  0  0  0  0  0  0
  191.9170  172.0780  135.6700 C   0  0  0  0  0  0  0  0  0  0  0  0
  193.0790  171.7120  135.7410 O   0  0  0  0  0  0  0  0  0  0  0  0
  187.3890  172.8470  135.1690 C   0  0  0  0  0  0  0  0  0  0  0  0
  189.0460  173.8480  136.8230 C   0  0  0  0  0  2  0  0  0  0  0  0
  188.4340  171.9330  134.7980 N   0  0  0  0  0  2  0  0  0  0  0  0
  187.0070  177.4860  137.1560 C   0  0  2  0  0  3  0  0  0  0  0  0
  185.7590  177.9220  136.4240 C   0  0  1  0  0  0  0  0  0  0  0  0
  185.7420  177.3630  135.0170 C   0  0  0  0  0  1  0  0  0  0  0  0
  185.6930  176.7740  137.3760 C   0  0  2  0  0  3  0  0  0  0  0  0
  184.5030  177.5990  137.1190 N   0  0  0  0  0  0  0  0  0  0  0  0
  184.3220  178.5310  138.2250 C   0  0  0  0  0  2  0  0  0  0  0  0
  182.5770  178.8580  140.0090 N   0  0  0  0  0  2  0  0  0  0  0  0
  183.2140  176.7230  139.3220 O   0  0  0  0  0  0  0  0  0  0  0  0
  183.3350  177.9690  139.1900 C   0  0  0  0  0  0  0  0  0  0  0  0
  181.9600  178.4180  141.1890 N   0  0  0  0  0  2  0  0  0  0  0  0
  179.2380  177.6200  137.8440 O   0  0  0  0  0  1  0  0  0  0  0  0
  180.3440  180.3370  140.2690 S   0  0  0  0  0  0  0  0  0  0  0  0
  180.1310  179.6320  138.6450 N   0  0  0  0  0  0  0  0  0  0  0  0
  179.8570  177.7350  140.1340 C   0  0  2  0  0  3  0  0  0  0  0  0
  180.1770  178.1670  138.7210 C   0  0  1  0  0  3  0  0  0  0  0  0
  180.5390  178.7180  141.0550 C   0  0  1  0  0  3  0  0  0  0  0  0
  181.1050  179.6900  136.3170 C   0  0  0  0  0  1  0  0  0  0  0  0
  181.1890  180.1670  137.7710 C   0  0  1  0  0  3  0  0  0  0  0  0
  181.2790  181.6590  137.8700 C   0  0  0  0  0  0  0  0  0  0  0  0
  182.4360  182.2420  138.3710 O   0  0  0  0  0  1  0  0  0  0  0  0
  180.3080  182.3900  137.5320 O   0  0  0  0  0  0  0  0  0  0  0  0
  180.2900  176.4250  140.3620 O   0  0  0  0  0  0  0  0  0  0  0  0
  179.4430  174.2510  140.6360 C   0  0  0  0  0  2  0  0  0  0  0  0
  178.9600  174.8100  139.4410 O   0  0  0  0  0  0  0  0  0  0  0  0
  179.1160  175.6890  140.5300 C   0  0  2  0  0  3  0  0  0  0  0  0
  1 11  1  0  0  0  0
  2  1  2  0  0  0  0
  3  2  2  0  0  0  0
  4 12  2  0  0  0  0
  4 18  1  0  0  0  0
  5  1  1  0  0  0  0
  6 17  2  0  0  0  0
  7  5  2  0  0  0  0
  8 13  2  0  0  0  0
  8 12  1  0  0  0  0
  9 18  1  0  0  0  0
 10  5  1  6  0  0  0
 10  4  1  0  0  0  0
 11  9  1  0  0  0  0
 14 17  1  6  0  0  0
 14  8  1  0  0  0  0
 15 11  2  0  0  0  0
 16  3  1  0  0  0  0
 17 10  1  0  0  0  0
 19 24  1  0  0  0  0
 19 28  1  1  0  0  0
 20 25  1  0  0  0  0
 21 28  1  0  0  0  0
 22 27  2  0  0  0  0
 23 20  1  6  0  0  0
 23 19  1  0  0  0  0
 24  3  1  6  0  0  0
 25 26  2  0  0  0  0
 25 24  1  0  0  0  0
 27 21  1  0  0  0  0
 29 27  1  0  0  0  0
 29 23  1  0  0  0  0
 30 33  1  0  0  0  0
 30 14  1  1  0  0  0
 31 32  1  6  0  0  0
 31 34  1  0  0  0  0
 31 30  1  0  0  0  0
 31 33  1  0  0  0  0
 33 34  1  1  0  0  0
 34 35  1  0  0  0  0
 35 38  1  0  0  0  0
 36 39  1  0  0  0  0
 38 37  2  0  0  0  0
 38 36  1  0  0  0  0
 41 45  1  0  0  0  0
 42 44  1  0  0  0  0
 42 41  1  0  0  0  0
 43 51  1  1  0  0  0
 43 45  1  0  0  0  0
 44 40  1  6  0  0  0
 44 43  1  0  0  0  0
 45 39  1  6  0  0  0
 47 46  1  6  0  0  0
 47 48  1  0  0  0  0
 47 42  1  0  0  0  0
 48 49  1  0  0  0  0
 50 48  2  0  0  0  0
 53 54  1  0  0  0  0
 53 52  1  0  0  0  0
 54 51  1  6  0  0  0
 54 52  1  0  0  0  0
M  END
>  <MODEL>
9

>  <REMARK>
 VINA RESULT:      -3.0      3.150     11.208
  Name = 
  10 active torsions:
  status: ('A' for Active; 'I' for Inactive)
    1  A    between atoms: N_3  and  N_30
    2  A    between atoms: C_6  and  C_28
    3  A    between atoms: O_10  and  C_17
    4  A    between atoms: O_10  and  C_37
    5  A    between atoms: N_16  and  C_54
    6  A    between atoms: C_26  and  N_30
    7  A    between atoms: C_27  and  C_54
    8  A    between atoms: C_36  and  C_46
    9  A    between atoms: C_38  and  C_40
   10  A    between atoms: C_40  and  N_52
                            x       y       z     vdW  Elec       q    Type
                         _______ _______ _______ _____ _____    ______ ____

>  <TORSDO>
F 10

$$$$
