=
 OpenBabel11062415193D

 41 45  0  0  1  0  0  0  0  0999 V2000
  187.1220  178.0840  139.7230 C   0  0  0  0  0  2  0  0  0  0  0  0
  188.9860  178.3990  138.1890 N   0  0  0  0  0  0  0  0  0  0  0  0
  188.9610  178.6620  136.8060 N   0  0  0  0  0  2  0  0  0  0  0  0
  190.1850  177.6200  138.4480 C   0  0  0  0  0  1  0  0  0  0  0  0
  187.8450  177.5410  138.4960 C   0  0  2  0  0  3  0  0  0  0  0  0
  186.9340  177.5400  137.2930 C   0  0  1  0  0  3  0  0  0  0  0  0
  187.5760  178.5490  136.3840 C   0  0  0  0  0  2  0  0  0  0  0  0
  186.9770  176.1600  136.6510 C   0  0  0  0  0  2  0  0  0  0  0  0
  185.3080  176.3800  134.8480 C   0  0  0  0  0  3  0  0  0  0  0  0
  181.5920  179.5010  139.8090 C   0  0  0  0  0  2  0  0  0  0  0  0
  185.5990  175.7270  136.1740 C   0  0  2  0  0  3  0  0  0  0  0  0
  184.5900  176.0250  137.1960 N   0  0  0  0  0  0  0  0  0  0  0  0
  181.4640  177.8870  137.8330 C   0  0  0  0  0  2  0  0  0  0  0  0
  181.8480  178.2920  140.7140 C   0  0  0  0  0  2  0  0  0  0  0  0
  183.3180  177.3130  135.6900 N   0  0  0  0  0  2  0  0  0  0  0  0
  182.5950  176.9890  138.0450 N   0  0  0  0  0  0  0  0  0  0  0  0
  183.1330  177.5500  140.3770 C   0  0  0  0  0  2  0  0  0  0  0  0
  184.2450  177.1000  134.6590 N   0  0  0  0  0  0  0  0  0  0  0  0
  181.8350  179.2840  138.3100 C   0  0  0  0  0  2  0  0  0  0  0  0
  183.5340  176.7500  136.9860 C   0  0  0  0  0  0  0  0  0  0  0  0
  182.8320  176.4400  139.3780 C   0  0  0  0  0  2  0  0  0  0  0  0
  188.0760  178.3650  140.8800 C   0  0  0  0  0  2  0  0  0  0  0  0
  184.1170  179.1520  143.5280 C   0  0  0  0  0  3  0  0  0  0  0  0
  183.4390  179.1590  144.7490 C   0  0  0  0  0  3  0  0  0  0  0  0
  188.0540  177.7360  143.3530 C   0  0  0  0  0  0  0  0  0  0  0  0
  184.0590  178.7210  145.8770 N   0  0  0  0  0  0  0  0  0  0  0  0
  187.3900  178.2410  142.2050 C   0  0  0  0  0  0  0  0  0  0  0  0
  185.4320  178.6880  143.4810 C   0  0  0  0  0  0  0  0  0  0  0  0
  185.3400  178.2640  145.8570 C   0  0  0  0  0  3  0  0  0  0  0  0
  186.1080  178.6870  142.3050 N   0  0  0  0  0  0  0  0  0  0  0  0
  186.0600  178.2350  144.6550 C   0  0  0  0  0  0  0  0  0  0  0  0
  187.3840  177.7690  144.5890 C   0  0  0  0  0  0  0  0  0  0  0  0
  189.3580  177.2130  143.3220 O   0  0  0  0  0  0  0  0  0  0  0  0
  189.6810  175.8750  142.9750 C   0  0  0  0  0  1  0  0  0  0  0  0
  188.0700  177.2450  145.8140 C   0  0  0  0  0  2  0  0  0  0  0  0
  188.7420  178.2940  146.4650 O   0  0  0  0  0  0  0  0  0  0  0  0
  189.3540  177.7890  147.6320 C   0  0  1  0  0  3  0  0  0  0  0  0
  188.4590  177.7400  148.7090 O   0  0  0  0  0  1  0  0  0  0  0  0
  190.0240  176.4360  147.4000 C   0  0  0  0  0  2  0  0  0  0  0  0
  191.8440  177.0740  146.0120 O   0  0  0  0  0  1  0  0  0  0  0  0
  191.5260  176.6070  147.2860 C   0  0  0  0  0  2  0  0  0  0  0  0
  1 22  1  0  0  0  0
  2  4  1  0  0  0  0
  2  5  1  0  0  0  0
  3  2  1  0  0  0  0
  5  1  1  1  0  0  0
  6  8  1  6  0  0  0
  6  5  1  0  0  0  0
  7  3  1  0  0  0  0
  7  6  1  0  0  0  0
  9 11  1  0  0  0  0
 10 14  1  0  0  0  0
 11  8  1  1  0  0  0
 11 12  1  0  0  0  0
 13 16  1  0  0  0  0
 13 19  1  0  0  0  0
 15 20  1  0  0  0  0
 16 21  1  0  0  0  0
 17 14  1  0  0  0  0
 18  9  2  0  0  0  0
 18 15  1  0  0  0  0
 19 10  1  0  0  0  0
 20 12  2  0  0  0  0
 20 16  1  0  0  0  0
 21 17  1  0  0  0  0
 22 27  1  0  0  0  0
 23 24  1  0  0  0  0
 24 26  2  0  0  0  0
 25 32  2  0  0  0  0
 27 30  2  0  0  0  0
 27 25  1  0  0  0  0
 28 23  2  0  0  0  0
 28 31  1  0  0  0  0
 29 26  1  0  0  0  0
 30 28  1  0  0  0  0
 31 29  2  0  0  0  0
 32 31  1  0  0  0  0
 32 35  1  0  0  0  0
 33 25  1  0  0  0  0
 34 33  1  0  0  0  0
 35 36  1  0  0  0  0
 36 37  1  0  0  0  0
 37 38  1  1  0  0  0
 39 37  1  0  0  0  0
 40 41  1  0  0  0  0
 41 39  1  0  0  0  0
M  END
>  <MODEL>
1

>  <REMARK>
 VINA RESULT:      -8.3      0.000      0.000
  Name = 
  11 active torsions:
  status: ('A' for Active; 'I' for Inactive)
    1  A    between atoms: C_1  and  O_7
    2  A    between atoms: C_1  and  C_39
    3  A    between atoms: C_6  and  C_23
    4  A    between atoms: C_6  and  C_41
    5  A    between atoms: O_7  and  C_38
    6  A    between atoms: O_8  and  C_12
    7  A    between atoms: C_9  and  C_36
    8  A    between atoms: C_18  and  C_41
    9  A    between atoms: C_34  and  C_36
   10  A    between atoms: C_35  and  C_39
   11  A    between atoms: C_38  and  C_40
                            x       y       z     vdW  Elec       q    Type
                         _______ _______ _______ _____ _____    ______ ____

>  <TORSDO>
F 11

$$$$
=
 OpenBabel11062415193D

 41 45  0  0  1  0  0  0  0  0999 V2000
  182.2390  178.5530  143.7540 C   0  0  0  0  0  2  0  0  0  0  0  0
  179.9120  178.8170  143.0890 N   0  0  0  0  0  0  0  0  0  0  0  0
  179.2280  178.2330  142.0060 N   0  0  0  0  0  2  0  0  0  0  0  0
  179.3120  180.1210  143.3120 C   0  0  0  0  0  1  0  0  0  0  0  0
  181.2910  179.0490  142.6680 C   0  0  2  0  0  3  0  0  0  0  0  0
  181.5100  178.2940  141.3800 C   0  0  1  0  0  3  0  0  0  0  0  0
  180.2230  177.5370  141.2090 C   0  0  0  0  0  2  0  0  0  0  0  0
  181.6760  179.2990  140.2490 C   0  0  0  0  0  2  0  0  0  0  0  0
  181.5790  178.1770  138.0540 C   0  0  0  0  0  3  0  0  0  0  0  0
  180.6170  184.6430  135.7260 C   0  0  0  0  0  2  0  0  0  0  0  0
  180.7820  178.9570  139.0670 C   0  0  2  0  0  3  0  0  0  0  0  0
  180.1830  180.1770  138.5120 N   0  0  0  0  0  0  0  0  0  0  0  0
  179.8870  182.2110  135.4430 C   0  0  0  0  0  2  0  0  0  0  0  0
  179.4900  184.8090  136.7510 C   0  0  0  0  0  2  0  0  0  0  0  0
  181.0490  179.7310  136.3670 N   0  0  0  0  0  2  0  0  0  0  0  0
  179.6730  181.7520  136.8120 N   0  0  0  0  0  0  0  0  0  0  0  0
  179.6550  183.9180  137.9740 C   0  0  0  0  0  2  0  0  0  0  0  0
  181.6760  178.5590  136.8180 N   0  0  0  0  0  0  0  0  0  0  0  0
  181.0430  183.2020  135.4190 C   0  0  0  0  0  2  0  0  0  0  0  0
  180.2960  180.5420  137.2710 C   0  0  0  0  0  0  0  0  0  0  0  0
  178.9310  182.5980  137.7420 C   0  0  0  0  0  2  0  0  0  0  0  0
  183.3230  179.5750  144.0850 C   0  0  0  0  0  2  0  0  0  0  0  0
  186.5110  178.6350  147.5860 C   0  0  0  0  0  3  0  0  0  0  0  0
  187.7350  178.1260  148.0270 C   0  0  0  0  0  3  0  0  0  0  0  0
  185.4380  178.2490  143.5570 C   0  0  0  0  0  0  0  0  0  0  0  0
  188.5790  177.5210  147.1490 N   0  0  0  0  0  0  0  0  0  0  0  0
  184.6020  178.9120  144.4920 C   0  0  0  0  0  0  0  0  0  0  0  0
  186.1660  178.5110  146.2400 C   0  0  0  0  0  0  0  0  0  0  0  0
  188.2660  177.3880  145.8330 C   0  0  0  0  0  3  0  0  0  0  0  0
  184.9870  179.0110  145.7940 N   0  0  0  0  0  0  0  0  0  0  0  0
  187.0480  177.8800  145.3430 C   0  0  0  0  0  0  0  0  0  0  0  0
  186.6840  177.7620  143.9910 C   0  0  0  0  0  0  0  0  0  0  0  0
  185.0900  178.0640  142.2080 O   0  0  0  0  0  0  0  0  0  0  0  0
  185.3500  179.0010  141.1740 C   0  0  0  0  0  1  0  0  0  0  0  0
  187.5840  177.0630  143.0180 C   0  0  0  0  0  2  0  0  0  0  0  0
  188.5720  177.9530  142.5650 O   0  0  0  0  0  0  0  0  0  0  0  0
  189.6840  177.2090  142.1140 C   0  0  1  0  0  3  0  0  0  0  0  0
  189.7590  177.1820  140.7160 O   0  0  0  0  0  1  0  0  0  0  0  0
  190.9950  177.6840  142.7370 C   0  0  0  0  0  2  0  0  0  0  0  0
  191.6110  176.7720  144.8420 O   0  0  0  0  0  1  0  0  0  0  0  0
  191.6730  176.5430  143.4690 C   0  0  0  0  0  2  0  0  0  0  0  0
  1 22  1  0  0  0  0
  2  4  1  0  0  0  0
  3  2  1  0  0  0  0
  5  2  1  0  0  0  0
  5  1  1  1  0  0  0
  6  8  1  6  0  0  0
  6  5  1  0  0  0  0
  7  6  1  0  0  0  0
  7  3  1  0  0  0  0
  9 11  1  0  0  0  0
 10 14  1  0  0  0  0
 11  8  1  1  0  0  0
 12 11  1  0  0  0  0
 13 16  1  0  0  0  0
 14 17  1  0  0  0  0
 15 18  1  0  0  0  0
 15 20  1  0  0  0  0
 16 20  1  0  0  0  0
 16 21  1  0  0  0  0
 18  9  2  0  0  0  0
 19 13  1  0  0  0  0
 19 10  1  0  0  0  0
 20 12  2  0  0  0  0
 21 17  1  0  0  0  0
 22 27  1  0  0  0  0
 23 24  1  0  0  0  0
 25 32  2  0  0  0  0
 25 27  1  0  0  0  0
 26 24  2  0  0  0  0
 27 30  2  0  0  0  0
 28 23  2  0  0  0  0
 29 26  1  0  0  0  0
 30 28  1  0  0  0  0
 31 29  2  0  0  0  0
 31 28  1  0  0  0  0
 32 31  1  0  0  0  0
 33 25  1  0  0  0  0
 34 33  1  0  0  0  0
 35 32  1  0  0  0  0
 36 35  1  0  0  0  0
 37 38  1  6  0  0  0
 37 36  1  0  0  0  0
 37 39  1  0  0  0  0
 39 41  1  0  0  0  0
 41 40  1  0  0  0  0
M  END
>  <MODEL>
2

>  <REMARK>
 VINA RESULT:      -8.1      3.237      6.041
  Name = 
  11 active torsions:
  status: ('A' for Active; 'I' for Inactive)
    1  A    between atoms: C_1  and  O_7
    2  A    between atoms: C_1  and  C_39
    3  A    between atoms: C_6  and  C_23
    4  A    between atoms: C_6  and  C_41
    5  A    between atoms: O_7  and  C_38
    6  A    between atoms: O_8  and  C_12
    7  A    between atoms: C_9  and  C_36
    8  A    between atoms: C_18  and  C_41
    9  A    between atoms: C_34  and  C_36
   10  A    between atoms: C_35  and  C_39
   11  A    between atoms: C_38  and  C_40
                            x       y       z     vdW  Elec       q    Type
                         _______ _______ _______ _____ _____    ______ ____

>  <TORSDO>
F 11

$$$$
=
 OpenBabel11062415193D

 41 45  0  0  1  0  0  0  0  0999 V2000
  182.2910  178.3830  143.3760 C   0  0  0  0  0  2  0  0  0  0  0  0
  179.8610  178.3150  143.4970 N   0  0  0  0  0  0  0  0  0  0  0  0
  178.9310  177.9960  142.4880 N   0  0  0  0  0  2  0  0  0  0  0  0
  179.2210  179.2890  144.3650 C   0  0  0  0  0  1  0  0  0  0  0  0
  180.9900  178.9880  142.8610 C   0  0  2  0  0  3  0  0  0  0  0  0
  180.8610  178.7910  141.3700 C   0  0  1  0  0  3  0  0  0  0  0  0
  179.6840  177.8640  141.2530 C   0  0  0  0  0  2  0  0  0  0  0  0
  180.5310  180.1320  140.7290 C   0  0  0  0  0  2  0  0  0  0  0  0
  180.7810  181.2370  138.5370 C   0  0  0  0  0  3  0  0  0  0  0  0
  181.9230  174.7540  136.3380 C   0  0  0  0  0  2  0  0  0  0  0  0
  181.5070  180.4670  139.6110 C   0  0  2  0  0  3  0  0  0  0  0  0
  182.1460  179.2450  139.1100 N   0  0  0  0  0  0  0  0  0  0  0  0
  182.6650  177.1870  136.0870 C   0  0  0  0  0  2  0  0  0  0  0  0
  182.9740  174.6010  137.4420 C   0  0  0  0  0  2  0  0  0  0  0  0
  181.4330  179.6710  136.9050 N   0  0  0  0  0  2  0  0  0  0  0  0
  182.7790  177.6570  137.4640 N   0  0  0  0  0  0  0  0  0  0  0  0
  182.7210  175.5010  138.6430 C   0  0  0  0  0  2  0  0  0  0  0  0
  180.7730  180.8440  137.3010 N   0  0  0  0  0  0  0  0  0  0  0  0
  181.5160  176.1920  135.9900 C   0  0  0  0  0  2  0  0  0  0  0  0
  182.1230  178.8690  137.8670 C   0  0  0  0  0  0  0  0  0  0  0  0
  183.4570  176.8220  138.4520 C   0  0  0  0  0  2  0  0  0  0  0  0
  183.2200  179.4350  143.9740 C   0  0  0  0  0  2  0  0  0  0  0  0
  186.4490  178.6520  147.4770 C   0  0  0  0  0  3  0  0  0  0  0  0
  187.7000  178.2120  147.9170 C   0  0  0  0  0  3  0  0  0  0  0  0
  185.4110  178.2420  143.4400 C   0  0  0  0  0  0  0  0  0  0  0  0
  188.5810  177.6670  147.0360 N   0  0  0  0  0  0  0  0  0  0  0  0
  184.5350  178.8450  144.3790 C   0  0  0  0  0  0  0  0  0  0  0  0
  186.1160  178.5210  146.1280 C   0  0  0  0  0  0  0  0  0  0  0  0
  188.2800  177.5280  145.7170 C   0  0  0  0  0  3  0  0  0  0  0  0
  184.9100  178.9540  145.6830 N   0  0  0  0  0  0  0  0  0  0  0  0
  187.0360  177.9520  145.2280 C   0  0  0  0  0  0  0  0  0  0  0  0
  186.6830  177.8250  143.8740 C   0  0  0  0  0  0  0  0  0  0  0  0
  185.0790  178.0490  142.0880 O   0  0  0  0  0  0  0  0  0  0  0  0
  185.2140  179.0370  141.0780 C   0  0  0  0  0  1  0  0  0  0  0  0
  187.6250  177.1900  142.8970 C   0  0  0  0  0  2  0  0  0  0  0  0
  188.3830  178.1850  142.2560 O   0  0  0  0  0  0  0  0  0  0  0  0
  189.6510  177.6550  141.9330 C   0  0  1  0  0  3  0  0  0  0  0  0
  189.9300  176.4930  142.6640 O   0  0  0  0  0  1  0  0  0  0  0  0
  189.8220  177.4270  140.4320 C   0  0  0  0  0  2  0  0  0  0  0  0
  188.9600  179.0870  138.9680 O   0  0  0  0  0  1  0  0  0  0  0  0
  188.6100  177.9430  139.6820 C   0  0  0  0  0  2  0  0  0  0  0  0
  1 22  1  0  0  0  0
  2  4  1  0  0  0  0
  3  2  1  0  0  0  0
  5  1  1  1  0  0  0
  5  2  1  0  0  0  0
  6  8  1  6  0  0  0
  6  5  1  0  0  0  0
  7  6  1  0  0  0  0
  7  3  1  0  0  0  0
  9 11  1  0  0  0  0
 10 14  1  0  0  0  0
 11  8  1  1  0  0  0
 12 11  1  0  0  0  0
 13 16  1  0  0  0  0
 14 17  1  0  0  0  0
 15 18  1  0  0  0  0
 15 20  1  0  0  0  0
 16 20  1  0  0  0  0
 16 21  1  0  0  0  0
 18  9  2  0  0  0  0
 19 13  1  0  0  0  0
 19 10  1  0  0  0  0
 20 12  2  0  0  0  0
 21 17  1  0  0  0  0
 22 27  1  0  0  0  0
 23 24  1  0  0  0  0
 25 32  2  0  0  0  0
 25 27  1  0  0  0  0
 26 24  2  0  0  0  0
 27 30  2  0  0  0  0
 28 23  2  0  0  0  0
 29 26  1  0  0  0  0
 30 28  1  0  0  0  0
 31 29  2  0  0  0  0
 31 28  1  0  0  0  0
 32 31  1  0  0  0  0
 33 25  1  0  0  0  0
 34 33  1  0  0  0  0
 35 32  1  0  0  0  0
 36 35  1  0  0  0  0
 37 36  1  0  0  0  0
 37 38  1  1  0  0  0
 39 37  1  0  0  0  0
 40 41  1  0  0  0  0
 41 39  1  0  0  0  0
M  END
>  <MODEL>
3

>  <REMARK>
 VINA RESULT:      -7.8      2.708      6.020
  Name = 
  11 active torsions:
  status: ('A' for Active; 'I' for Inactive)
    1  A    between atoms: C_1  and  O_7
    2  A    between atoms: C_1  and  C_39
    3  A    between atoms: C_6  and  C_23
    4  A    between atoms: C_6  and  C_41
    5  A    between atoms: O_7  and  C_38
    6  A    between atoms: O_8  and  C_12
    7  A    between atoms: C_9  and  C_36
    8  A    between atoms: C_18  and  C_41
    9  A    between atoms: C_34  and  C_36
   10  A    between atoms: C_35  and  C_39
   11  A    between atoms: C_38  and  C_40
                            x       y       z     vdW  Elec       q    Type
                         _______ _______ _______ _____ _____    ______ ____

>  <TORSDO>
F 11

$$$$
=
 OpenBabel11062415193D

 41 45  0  0  1  0  0  0  0  0999 V2000
  182.3170  178.5290  143.7060 C   0  0  0  0  0  2  0  0  0  0  0  0
  179.9830  178.8120  143.0750 N   0  0  0  0  0  0  0  0  0  0  0  0
  179.2860  178.2570  141.9850 N   0  0  0  0  0  2  0  0  0  0  0  0
  179.3870  180.1110  143.3380 C   0  0  0  0  0  1  0  0  0  0  0  0
  181.3570  179.0530  142.6440 C   0  0  2  0  0  3  0  0  0  0  0  0
  181.5610  178.3310  141.3350 C   0  0  1  0  0  3  0  0  0  0  0  0
  180.2710  177.5810  141.1590 C   0  0  0  0  0  2  0  0  0  0  0  0
  181.7150  179.3650  140.2280 C   0  0  0  0  0  2  0  0  0  0  0  0
  181.6110  178.2590  138.0250 C   0  0  0  0  0  3  0  0  0  0  0  0
  180.7560  184.7530  135.7340 C   0  0  0  0  0  2  0  0  0  0  0  0
  180.8210  179.0440  139.0400 C   0  0  2  0  0  3  0  0  0  0  0  0
  180.2440  180.2760  138.4900 N   0  0  0  0  0  0  0  0  0  0  0  0
  179.9910  182.3340  135.4330 C   0  0  0  0  0  2  0  0  0  0  0  0
  179.6270  184.9290  136.7550 C   0  0  0  0  0  2  0  0  0  0  0  0
  181.1120  179.8300  136.3460 N   0  0  0  0  0  2  0  0  0  0  0  0
  179.7650  181.8700  136.7980 N   0  0  0  0  0  0  0  0  0  0  0  0
  179.7730  184.0280  137.9740 C   0  0  0  0  0  2  0  0  0  0  0  0
  181.7200  178.6470  136.7930 N   0  0  0  0  0  0  0  0  0  0  0  0
  181.1620  183.3070  135.4210 C   0  0  0  0  0  2  0  0  0  0  0  0
  180.3670  180.6480  137.2520 C   0  0  0  0  0  0  0  0  0  0  0  0
  179.0300  182.7200  137.7300 C   0  0  0  0  0  2  0  0  0  0  0  0
  183.4380  179.5190  144.0110 C   0  0  0  0  0  2  0  0  0  0  0  0
  186.7240  178.8010  140.5480 C   0  0  0  0  0  3  0  0  0  0  0  0
  187.9170  178.2400  140.0860 C   0  0  0  0  0  3  0  0  0  0  0  0
  185.5890  178.2530  144.5410 C   0  0  0  0  0  0  0  0  0  0  0  0
  188.6980  177.5090  140.9240 N   0  0  0  0  0  0  0  0  0  0  0  0
  184.7780  178.9730  143.6270 C   0  0  0  0  0  0  0  0  0  0  0  0
  186.3490  178.6050  141.8770 C   0  0  0  0  0  0  0  0  0  0  0  0
  188.3540  177.3030  142.2240 C   0  0  0  0  0  3  0  0  0  0  0  0
  185.1870  179.1320  142.3380 N   0  0  0  0  0  0  0  0  0  0  0  0
  187.1680  177.8480  142.7350 C   0  0  0  0  0  0  0  0  0  0  0  0
  186.7750  177.6620  144.0720 C   0  0  0  0  0  0  0  0  0  0  0  0
  185.2600  178.0860  145.8980 O   0  0  0  0  0  0  0  0  0  0  0  0
  185.5950  179.0070  146.9260 C   0  0  0  0  0  1  0  0  0  0  0  0
  187.6430  176.8930  145.0200 C   0  0  0  0  0  2  0  0  0  0  0  0
  188.5240  177.7710  145.6740 O   0  0  0  0  0  0  0  0  0  0  0  0
  189.7620  177.1190  145.8620 C   0  0  1  0  0  3  0  0  0  0  0  0
  190.7960  177.7540  145.1610 O   0  0  0  0  0  1  0  0  0  0  0  0
  190.1110  176.9460  147.3390 C   0  0  0  0  0  2  0  0  0  0  0  0
  188.3020  177.5030  148.7750 O   0  0  0  0  0  1  0  0  0  0  0  0
  189.4410  178.0260  148.1660 C   0  0  0  0  0  2  0  0  0  0  0  0
  1 22  1  0  0  0  0
  2  4  1  0  0  0  0
  3  2  1  0  0  0  0
  5  2  1  0  0  0  0
  5  1  1  1  0  0  0
  6  8  1  6  0  0  0
  6  5  1  0  0  0  0
  7  6  1  0  0  0  0
  7  3  1  0  0  0  0
  9 11  1  0  0  0  0
 10 14  1  0  0  0  0
 11  8  1  1  0  0  0
 12 11  1  0  0  0  0
 13 16  1  0  0  0  0
 14 17  1  0  0  0  0
 15 18  1  0  0  0  0
 15 20  1  0  0  0  0
 16 20  1  0  0  0  0
 16 21  1  0  0  0  0
 18  9  2  0  0  0  0
 19 13  1  0  0  0  0
 19 10  1  0  0  0  0
 20 12  2  0  0  0  0
 21 17  1  0  0  0  0
 23 28  1  0  0  0  0
 24 23  2  0  0  0  0
 24 26  1  0  0  0  0
 25 33  1  0  0  0  0
 26 29  2  0  0  0  0
 27 22  1  0  0  0  0
 27 25  2  0  0  0  0
 28 30  2  0  0  0  0
 28 31  1  0  0  0  0
 29 31  1  0  0  0  0
 30 27  1  0  0  0  0
 31 32  2  0  0  0  0
 32 25  1  0  0  0  0
 32 35  1  0  0  0  0
 33 34  1  0  0  0  0
 35 36  1  0  0  0  0
 36 37  1  0  0  0  0
 37 38  1  6  0  0  0
 37 39  1  0  0  0  0
 39 41  1  0  0  0  0
 41 40  1  0  0  0  0
M  END
>  <MODEL>
4

>  <REMARK>
 VINA RESULT:      -7.7      2.971      5.892
  Name = 
  11 active torsions:
  status: ('A' for Active; 'I' for Inactive)
    1  A    between atoms: C_1  and  O_7
    2  A    between atoms: C_1  and  C_39
    3  A    between atoms: C_6  and  C_23
    4  A    between atoms: C_6  and  C_41
    5  A    between atoms: O_7  and  C_38
    6  A    between atoms: O_8  and  C_12
    7  A    between atoms: C_9  and  C_36
    8  A    between atoms: C_18  and  C_41
    9  A    between atoms: C_34  and  C_36
   10  A    between atoms: C_35  and  C_39
   11  A    between atoms: C_38  and  C_40
                            x       y       z     vdW  Elec       q    Type
                         _______ _______ _______ _____ _____    ______ ____

>  <TORSDO>
F 11

$$$$
=
 OpenBabel11062415193D

 41 45  0  0  1  0  0  0  0  0999 V2000
  184.9230  178.2660  139.2440 C   0  0  0  0  0  2  0  0  0  0  0  0
  182.5680  178.5900  139.7660 N   0  0  0  0  0  0  0  0  0  0  0  0
  181.5840  177.6260  140.0610 N   0  0  0  0  0  2  0  0  0  0  0  0
  181.8930  179.6870  139.0930 C   0  0  0  0  0  1  0  0  0  0  0  0
  183.4900  178.0000  138.8000 C   0  0  2  0  0  3  0  0  0  0  0  0
  183.2130  176.5170  138.7470 C   0  0  1  0  0  3  0  0  0  0  0  0
  182.1920  176.3260  139.8330 C   0  0  0  0  0  2  0  0  0  0  0  0
  182.5990  176.1850  137.3940 C   0  0  0  0  0  2  0  0  0  0  0  0
  183.6960  173.9750  137.3530 C   0  0  0  0  0  3  0  0  0  0  0  0
  189.4910  177.7760  137.7160 C   0  0  0  0  0  2  0  0  0  0  0  0
  183.4980  175.2590  136.5890 C   0  0  2  0  0  3  0  0  0  0  0  0
  184.7600  175.9330  136.2620 N   0  0  0  0  0  0  0  0  0  0  0  0
  188.4280  175.7200  136.6350 C   0  0  0  0  0  2  0  0  0  0  0  0
  188.9850  178.6000  136.5270 C   0  0  0  0  0  2  0  0  0  0  0  0
  186.0340  174.2290  137.2700 N   0  0  0  0  0  2  0  0  0  0  0  0
  187.1170  176.1940  136.2020 N   0  0  0  0  0  0  0  0  0  0  0  0
  187.4670  178.6190  136.4110 C   0  0  0  0  0  2  0  0  0  0  0  0
  184.8780  173.5280  137.6450 N   0  0  0  0  0  0  0  0  0  0  0  0
  188.8120  176.4180  137.9320 C   0  0  0  0  0  2  0  0  0  0  0  0
  185.9330  175.4680  136.5650 C   0  0  0  0  0  0  0  0  0  0  0  0
  187.0130  177.4760  135.5110 C   0  0  0  0  0  2  0  0  0  0  0  0
  184.9880  179.1340  140.4980 C   0  0  0  0  0  2  0  0  0  0  0  0
  189.5020  177.5670  141.1880 C   0  0  0  0  0  3  0  0  0  0  0  0
  190.5000  177.0170  141.9970 C   0  0  0  0  0  3  0  0  0  0  0  0
  185.7420  178.4150  142.8270 C   0  0  0  0  0  0  0  0  0  0  0  0
  190.2470  176.7460  143.3060 N   0  0  0  0  0  0  0  0  0  0  0  0
  186.0280  178.6440  141.4560 C   0  0  0  0  0  0  0  0  0  0  0  0
  188.2490  177.8370  141.7410 C   0  0  0  0  0  0  0  0  0  0  0  0
  189.0340  176.9990  143.8660 C   0  0  0  0  0  3  0  0  0  0  0  0
  187.2660  178.3590  140.9660 N   0  0  0  0  0  0  0  0  0  0  0  0
  188.0020  177.5530  143.0960 C   0  0  0  0  0  0  0  0  0  0  0  0
  186.7350  177.8340  143.6360 C   0  0  0  0  0  0  0  0  0  0  0  0
  184.5070  178.7270  143.4200 O   0  0  0  0  0  0  0  0  0  0  0  0
  184.1940  179.9780  144.0150 C   0  0  0  0  0  1  0  0  0  0  0  0
  186.4510  177.5790  145.0850 C   0  0  0  0  0  2  0  0  0  0  0  0
  186.8150  178.7050  145.8440 O   0  0  0  0  0  0  0  0  0  0  0  0
  186.3060  178.5560  147.1520 C   0  0  1  0  0  3  0  0  0  0  0  0
  184.9420  178.2390  147.1480 O   0  0  0  0  0  1  0  0  0  0  0  0
  187.1120  177.5560  147.9800 C   0  0  0  0  0  2  0  0  0  0  0  0
  189.4700  177.4410  147.7170 O   0  0  0  0  0  1  0  0  0  0  0  0
  188.4550  178.1480  148.3580 C   0  0  0  0  0  2  0  0  0  0  0  0
  1 22  1  0  0  0  0
  2  3  1  0  0  0  0
  4  2  1  0  0  0  0
  5  1  1  1  0  0  0
  5  2  1  0  0  0  0
  6  8  1  6  0  0  0
  6  5  1  0  0  0  0
  6  7  1  0  0  0  0
  7  3  1  0  0  0  0
  9 18  2  0  0  0  0
 10 19  1  0  0  0  0
 11  9  1  0  0  0  0
 11  8  1  1  0  0  0
 12 20  2  0  0  0  0
 12 11  1  0  0  0  0
 13 19  1  0  0  0  0
 14 10  1  0  0  0  0
 15 18  1  0  0  0  0
 16 20  1  0  0  0  0
 16 13  1  0  0  0  0
 17 14  1  0  0  0  0
 20 15  1  0  0  0  0
 21 16  1  0  0  0  0
 21 17  1  0  0  0  0
 22 27  1  0  0  0  0
 23 28  2  0  0  0  0
 23 24  1  0  0  0  0
 24 26  2  0  0  0  0
 25 33  1  0  0  0  0
 25 32  2  0  0  0  0
 26 29  1  0  0  0  0
 27 25  1  0  0  0  0
 28 31  1  0  0  0  0
 30 27  2  0  0  0  0
 30 28  1  0  0  0  0
 31 32  1  0  0  0  0
 31 29  2  0  0  0  0
 32 35  1  0  0  0  0
 33 34  1  0  0  0  0
 35 36  1  0  0  0  0
 36 37  1  0  0  0  0
 37 38  1  6  0  0  0
 37 39  1  0  0  0  0
 39 41  1  0  0  0  0
 40 41  1  0  0  0  0
M  END
>  <MODEL>
5

>  <REMARK>
 VINA RESULT:      -7.7      2.033      5.062
  Name = 
  11 active torsions:
  status: ('A' for Active; 'I' for Inactive)
    1  A    between atoms: C_1  and  O_7
    2  A    between atoms: C_1  and  C_39
    3  A    between atoms: C_6  and  C_23
    4  A    between atoms: C_6  and  C_41
    5  A    between atoms: O_7  and  C_38
    6  A    between atoms: O_8  and  C_12
    7  A    between atoms: C_9  and  C_36
    8  A    between atoms: C_18  and  C_41
    9  A    between atoms: C_34  and  C_36
   10  A    between atoms: C_35  and  C_39
   11  A    between atoms: C_38  and  C_40
                            x       y       z     vdW  Elec       q    Type
                         _______ _______ _______ _____ _____    ______ ____

>  <TORSDO>
F 11

$$$$
=
 OpenBabel11062415193D

 41 45  0  0  1  0  0  0  0  0999 V2000
  183.0130  176.8720  139.8460 C   0  0  0  0  0  2  0  0  0  0  0  0
  183.7390  179.0810  139.1250 N   0  0  0  0  0  0  0  0  0  0  0  0
  184.9300  179.7670  139.4300 N   0  0  0  0  0  2  0  0  0  0  0  0
  182.7050  180.0890  138.9630 C   0  0  0  0  0  1  0  0  0  0  0  0
  183.3770  178.2830  140.2930 C   0  0  2  0  0  3  0  0  0  0  0  0
  184.5660  178.2610  141.2210 C   0  0  1  0  0  3  0  0  0  0  0  0
  185.6260  178.9710  140.4270 C   0  0  0  0  0  2  0  0  0  0  0  0
  184.2260  179.0660  142.4690 C   0  0  0  0  0  2  0  0  0  0  0  0
  184.2760  179.1450  144.9340 C   0  0  0  0  0  3  0  0  0  0  0  0
  191.0360  177.8820  144.0050 C   0  0  0  0  0  2  0  0  0  0  0  0
  184.4550  178.2520  143.7330 C   0  0  2  0  0  3  0  0  0  0  0  0
  185.7710  177.6040  143.6900 N   0  0  0  0  0  0  0  0  0  0  0  0
  189.0050  177.3240  145.4510 C   0  0  0  0  0  2  0  0  0  0  0  0
  190.6580  176.6990  143.1070 C   0  0  0  0  0  2  0  0  0  0  0  0
  186.4240  178.5980  145.7230 N   0  0  0  0  0  2  0  0  0  0  0  0
  187.9450  177.0750  144.4790 N   0  0  0  0  0  0  0  0  0  0  0  0
  189.2990  176.8620  142.4390 C   0  0  0  0  0  2  0  0  0  0  0  0
  185.2020  179.2760  145.8330 N   0  0  0  0  0  0  0  0  0  0  0  0
  189.9270  178.4140  144.9220 C   0  0  0  0  0  2  0  0  0  0  0  0
  186.6850  177.7510  144.6010 C   0  0  0  0  0  0  0  0  0  0  0  0
  188.2230  176.2360  143.3170 C   0  0  0  0  0  2  0  0  0  0  0  0
  182.7220  176.7970  138.3500 C   0  0  0  0  0  2  0  0  0  0  0  0
  182.6630  172.1710  136.9690 C   0  0  0  0  0  3  0  0  0  0  0  0
  183.2960  171.0330  136.4630 C   0  0  0  0  0  3  0  0  0  0  0  0
  184.7940  175.7620  137.2790 C   0  0  0  0  0  0  0  0  0  0  0  0
  184.6020  171.0880  136.0870 N   0  0  0  0  0  0  0  0  0  0  0  0
  183.4450  175.6570  137.7030 C   0  0  0  0  0  0  0  0  0  0  0  0
  183.3840  173.3610  137.0780 C   0  0  0  0  0  0  0  0  0  0  0  0
  185.3250  172.2360  136.1840 C   0  0  0  0  0  3  0  0  0  0  0  0
  182.7870  174.4710  137.5790 N   0  0  0  0  0  0  0  0  0  0  0  0
  184.7330  173.4040  136.6830 C   0  0  0  0  0  0  0  0  0  0  0  0
  185.4430  174.6120  136.7970 C   0  0  0  0  0  0  0  0  0  0  0  0
  185.5260  176.9610  137.3280 O   0  0  0  0  0  0  0  0  0  0  0  0
  185.6440  177.8770  136.2500 C   0  0  0  0  0  1  0  0  0  0  0  0
  186.8710  174.7010  136.3500 C   0  0  0  0  0  2  0  0  0  0  0  0
  187.7160  174.7430  137.4720 O   0  0  0  0  0  0  0  0  0  0  0  0
  188.7740  175.6420  137.2120 C   0  0  1  0  0  3  0  0  0  0  0  0
  188.6890  176.1860  135.9240 O   0  0  0  0  0  1  0  0  0  0  0  0
  188.8850  176.7330  138.2750 C   0  0  0  0  0  2  0  0  0  0  0  0
  188.7390  179.1040  138.3230 O   0  0  0  0  0  1  0  0  0  0  0  0
  189.3250  178.0390  137.6430 C   0  0  0  0  0  2  0  0  0  0  0  0
  2  3  1  0  0  0  0
  2  5  1  0  0  0  0
  3  7  1  0  0  0  0
  4  2  1  0  0  0  0
  5  1  1  6  0  0  0
  5  6  1  0  0  0  0
  6  8  1  1  0  0  0
  7  6  1  0  0  0  0
  9 18  2  0  0  0  0
 10 19  1  0  0  0  0
 11  8  1  6  0  0  0
 11  9  1  0  0  0  0
 12 11  1  0  0  0  0
 12 20  2  0  0  0  0
 14 10  1  0  0  0  0
 15 18  1  0  0  0  0
 16 20  1  0  0  0  0
 16 13  1  0  0  0  0
 17 14  1  0  0  0  0
 17 21  1  0  0  0  0
 19 13  1  0  0  0  0
 20 15  1  0  0  0  0
 21 16  1  0  0  0  0
 22  1  1  0  0  0  0
 23 28  1  0  0  0  0
 24 23  2  0  0  0  0
 25 33  1  0  0  0  0
 25 27  1  0  0  0  0
 26 29  2  0  0  0  0
 26 24  1  0  0  0  0
 27 22  1  0  0  0  0
 28 30  1  0  0  0  0
 29 31  1  0  0  0  0
 30 27  2  0  0  0  0
 31 32  1  0  0  0  0
 31 28  2  0  0  0  0
 32 25  2  0  0  0  0
 34 33  1  0  0  0  0
 35 32  1  0  0  0  0
 35 36  1  0  0  0  0
 37 38  1  6  0  0  0
 37 36  1  0  0  0  0
 37 39  1  0  0  0  0
 41 39  1  0  0  0  0
 41 40  1  0  0  0  0
M  END
>  <MODEL>
6

>  <REMARK>
 VINA RESULT:      -7.6      3.307      8.747
  Name = 
  11 active torsions:
  status: ('A' for Active; 'I' for Inactive)
    1  A    between atoms: C_1  and  O_7
    2  A    between atoms: C_1  and  C_39
    3  A    between atoms: C_6  and  C_23
    4  A    between atoms: C_6  and  C_41
    5  A    between atoms: O_7  and  C_38
    6  A    between atoms: O_8  and  C_12
    7  A    between atoms: C_9  and  C_36
    8  A    between atoms: C_18  and  C_41
    9  A    between atoms: C_34  and  C_36
   10  A    between atoms: C_35  and  C_39
   11  A    between atoms: C_38  and  C_40
                            x       y       z     vdW  Elec       q    Type
                         _______ _______ _______ _____ _____    ______ ____

>  <TORSDO>
F 11

$$$$
=
 OpenBabel11062415193D

 41 45  0  0  1  0  0  0  0  0999 V2000
  183.6490  177.7880  141.5830 C   0  0  0  0  0  2  0  0  0  0  0  0
  181.3540  178.2960  140.9510 N   0  0  0  0  0  0  0  0  0  0  0  0
  180.4580  177.5350  140.1760 N   0  0  0  0  0  2  0  0  0  0  0  0
  181.0360  179.6930  140.7100 C   0  0  0  0  0  1  0  0  0  0  0  0
  182.6970  178.0680  140.4260 C   0  0  2  0  0  3  0  0  0  0  0  0
  182.6300  176.8870  139.4900 C   0  0  1  0  0  3  0  0  0  0  0  0
  181.2130  176.4120  139.6480 C   0  0  0  0  0  2  0  0  0  0  0  0
  182.8560  177.3800  138.0670 C   0  0  0  0  0  2  0  0  0  0  0  0
  183.1420  174.9360  137.8970 C   0  0  0  0  0  3  0  0  0  0  0  0
  189.7130  176.6460  136.4630 C   0  0  0  0  0  2  0  0  0  0  0  0
  183.1630  176.2280  137.1230 C   0  0  2  0  0  3  0  0  0  0  0  0
  184.4350  176.4630  136.4300 N   0  0  0  0  0  0  0  0  0  0  0  0
  187.8030  175.0650  135.8450 C   0  0  0  0  0  2  0  0  0  0  0  0
  189.1930  177.6110  135.3920 C   0  0  0  0  0  2  0  0  0  0  0  0
  185.3260  174.4190  137.1880 N   0  0  0  0  0  2  0  0  0  0  0  0
  186.6450  175.9470  135.7370 N   0  0  0  0  0  0  0  0  0  0  0  0
  187.7880  178.1220  135.6750 C   0  0  0  0  0  2  0  0  0  0  0  0
  184.1540  174.1240  137.9010 N   0  0  0  0  0  0  0  0  0  0  0  0
  188.7240  175.5760  136.9440 C   0  0  0  0  0  2  0  0  0  0  0  0
  185.4370  175.6370  136.4480 C   0  0  0  0  0  0  0  0  0  0  0  0
  186.7690  177.2060  135.0090 C   0  0  0  0  0  2  0  0  0  0  0  0
  184.5740  178.9680  141.8700 C   0  0  0  0  0  2  0  0  0  0  0  0
  188.8910  178.1660  139.8650 C   0  0  0  0  0  3  0  0  0  0  0  0
  190.2010  177.6840  139.9240 C   0  0  0  0  0  3  0  0  0  0  0  0
  186.4780  178.0270  143.2840 C   0  0  0  0  0  0  0  0  0  0  0  0
  190.6850  177.1600  141.0810 N   0  0  0  0  0  0  0  0  0  0  0  0
  185.9930  178.5270  142.0480 C   0  0  0  0  0  0  0  0  0  0  0  0
  188.0910  178.1060  141.0060 C   0  0  0  0  0  0  0  0  0  0  0  0
  189.9250  177.0910  142.2070 C   0  0  0  0  0  3  0  0  0  0  0  0
  186.8140  178.5590  140.9620 N   0  0  0  0  0  0  0  0  0  0  0  0
  188.6060  177.5640  142.1980 C   0  0  0  0  0  0  0  0  0  0  0  0
  187.7860  177.5140  143.3390 C   0  0  0  0  0  0  0  0  0  0  0  0
  185.7110  178.0060  144.4620 O   0  0  0  0  0  0  0  0  0  0  0  0
  185.4240  179.1470  145.2560 C   0  0  0  0  0  1  0  0  0  0  0  0
  188.3160  176.9770  144.6340 C   0  0  0  0  0  2  0  0  0  0  0  0
  188.8400  178.0300  145.4040 O   0  0  0  0  0  0  0  0  0  0  0  0
  189.6370  177.4880  146.4350 C   0  0  1  0  0  3  0  0  0  0  0  0
  188.8990  176.6400  147.2710 O   0  0  0  0  0  1  0  0  0  0  0  0
  190.8900  176.7960  145.9000 C   0  0  0  0  0  2  0  0  0  0  0  0
  192.0220  177.1210  147.9640 O   0  0  0  0  0  1  0  0  0  0  0  0
  191.6560  176.1480  147.0370 C   0  0  0  0  0  2  0  0  0  0  0  0
  1 22  1  0  0  0  0
  3  2  1  0  0  0  0
  4  2  1  0  0  0  0
  5  2  1  0  0  0  0
  5  1  1  1  0  0  0
  6  8  1  6  0  0  0
  6  7  1  0  0  0  0
  6  5  1  0  0  0  0
  7  3  1  0  0  0  0
  9 18  2  0  0  0  0
 10 19  1  0  0  0  0
 11  9  1  0  0  0  0
 11  8  1  1  0  0  0
 12 20  2  0  0  0  0
 12 11  1  0  0  0  0
 13 19  1  0  0  0  0
 14 17  1  0  0  0  0
 14 10  1  0  0  0  0
 15 18  1  0  0  0  0
 16 13  1  0  0  0  0
 16 20  1  0  0  0  0
 20 15  1  0  0  0  0
 21 17  1  0  0  0  0
 21 16  1  0  0  0  0
 22 27  1  0  0  0  0
 23 24  2  0  0  0  0
 23 28  1  0  0  0  0
 24 26  1  0  0  0  0
 25 32  1  0  0  0  0
 25 33  1  0  0  0  0
 26 29  2  0  0  0  0
 27 25  2  0  0  0  0
 28 31  1  0  0  0  0
 30 28  2  0  0  0  0
 30 27  1  0  0  0  0
 31 29  1  0  0  0  0
 31 32  2  0  0  0  0
 32 35  1  0  0  0  0
 33 34  1  0  0  0  0
 35 36  1  0  0  0  0
 36 37  1  0  0  0  0
 37 38  1  6  0  0  0
 39 37  1  0  0  0  0
 39 41  1  0  0  0  0
 41 40  1  0  0  0  0
M  END
>  <MODEL>
7

>  <REMARK>
 VINA RESULT:      -7.6      1.837      5.331
  Name = 
  11 active torsions:
  status: ('A' for Active; 'I' for Inactive)
    1  A    between atoms: C_1  and  O_7
    2  A    between atoms: C_1  and  C_39
    3  A    between atoms: C_6  and  C_23
    4  A    between atoms: C_6  and  C_41
    5  A    between atoms: O_7  and  C_38
    6  A    between atoms: O_8  and  C_12
    7  A    between atoms: C_9  and  C_36
    8  A    between atoms: C_18  and  C_41
    9  A    between atoms: C_34  and  C_36
   10  A    between atoms: C_35  and  C_39
   11  A    between atoms: C_38  and  C_40
                            x       y       z     vdW  Elec       q    Type
                         _______ _______ _______ _____ _____    ______ ____

>  <TORSDO>
F 11

$$$$
=
 OpenBabel11062415193D

 41 45  0  0  1  0  0  0  0  0999 V2000
  187.3200  178.2160  138.6070 C   0  0  0  0  0  2  0  0  0  0  0  0
  188.4540  177.8600  136.4820 N   0  0  0  0  0  0  0  0  0  0  0  0
  187.9010  177.5680  135.2200 N   0  0  0  0  0  2  0  0  0  0  0  0
  189.7510  177.2080  136.5340 C   0  0  0  0  0  1  0  0  0  0  0  0
  187.6150  177.2200  137.4910 C   0  0  2  0  0  3  0  0  0  0  0  0
  186.3390  176.7800  136.8160 C   0  0  1  0  0  3  0  0  0  0  0  0
  186.4820  177.3400  135.4280 C   0  0  0  0  0  2  0  0  0  0  0  0
  186.3170  175.2580  136.7610 C   0  0  0  0  0  2  0  0  0  0  0  0
  184.2610  174.1510  135.9650 C   0  0  0  0  0  3  0  0  0  0  0  0
  181.3230  180.1830  137.7370 C   0  0  0  0  0  2  0  0  0  0  0  0
  184.9610  174.7080  137.1780 C   0  0  2  0  0  3  0  0  0  0  0  0
  184.1810  175.7430  137.8660 N   0  0  0  0  0  0  0  0  0  0  0  0
  181.0180  177.6460  137.7580 C   0  0  0  0  0  2  0  0  0  0  0  0
  181.9860  180.0630  139.1130 C   0  0  0  0  0  2  0  0  0  0  0  0
  182.3920  175.5280  136.3500 N   0  0  0  0  0  2  0  0  0  0  0  0
  182.3040  177.1460  138.2350 N   0  0  0  0  0  0  0  0  0  0  0  0
  183.2660  179.2380  139.0950 C   0  0  0  0  0  2  0  0  0  0  0  0
  183.0760  174.5470  135.6160 N   0  0  0  0  0  0  0  0  0  0  0  0
  181.2450  178.8920  136.9120 C   0  0  0  0  0  2  0  0  0  0  0  0
  182.9970  176.1270  137.4980 C   0  0  0  0  0  0  0  0  0  0  0  0
  182.9350  177.7800  139.3880 C   0  0  0  0  0  2  0  0  0  0  0  0
  188.3920  178.2000  139.6930 C   0  0  0  0  0  2  0  0  0  0  0  0
  184.7420  179.2130  142.6870 C   0  0  0  0  0  3  0  0  0  0  0  0
  184.1580  179.2060  143.9560 C   0  0  0  0  0  3  0  0  0  0  0  0
  188.4780  177.4080  142.1170 C   0  0  0  0  0  0  0  0  0  0  0  0
  184.8060  178.6290  145.0040 N   0  0  0  0  0  0  0  0  0  0  0  0
  187.7930  178.0570  141.0580 C   0  0  0  0  0  0  0  0  0  0  0  0
  185.9920  178.6180  142.5090 C   0  0  0  0  0  0  0  0  0  0  0  0
  186.0240  178.0440  144.8550 C   0  0  0  0  0  3  0  0  0  0  0  0
  186.5780  178.6270  141.2860 N   0  0  0  0  0  0  0  0  0  0  0  0
  186.6500  178.0220  143.6010 C   0  0  0  0  0  0  0  0  0  0  0  0
  187.9070  177.4260  143.4020 C   0  0  0  0  0  0  0  0  0  0  0  0
  189.7120  176.7560  141.9530 O   0  0  0  0  0  0  0  0  0  0  0  0
  190.9760  177.4010  141.9950 C   0  0  0  0  0  1  0  0  0  0  0  0
  188.6170  176.7500  144.5360 C   0  0  0  0  0  2  0  0  0  0  0  0
  189.5090  177.6530  145.1400 O   0  0  0  0  0  0  0  0  0  0  0  0
  190.4280  176.9270  145.9280 C   0  0  1  0  0  3  0  0  0  0  0  0
  191.7060  177.5000  145.8960 O   0  0  0  0  0  1  0  0  0  0  0  0
  189.9380  176.7300  147.3610 C   0  0  0  0  0  2  0  0  0  0  0  0
  188.0070  177.5040  148.5080 O   0  0  0  0  0  1  0  0  0  0  0  0
  189.1350  177.9340  147.8120 C   0  0  0  0  0  2  0  0  0  0  0  0
  1 22  1  0  0  0  0
  2  4  1  0  0  0  0
  2  5  1  0  0  0  0
  3  7  1  0  0  0  0
  3  2  1  0  0  0  0
  5  1  1  1  0  0  0
  6  8  1  6  0  0  0
  6  5  1  0  0  0  0
  7  6  1  0  0  0  0
  9 11  1  0  0  0  0
 10 14  1  0  0  0  0
 11  8  1  6  0  0  0
 11 12  1  0  0  0  0
 13 16  1  0  0  0  0
 15 20  1  0  0  0  0
 16 21  1  0  0  0  0
 17 14  1  0  0  0  0
 17 21  1  0  0  0  0
 18  9  2  0  0  0  0
 18 15  1  0  0  0  0
 19 10  1  0  0  0  0
 19 13  1  0  0  0  0
 20 12  2  0  0  0  0
 20 16  1  0  0  0  0
 22 27  1  0  0  0  0
 23 24  1  0  0  0  0
 24 26  2  0  0  0  0
 25 32  2  0  0  0  0
 27 30  2  0  0  0  0
 27 25  1  0  0  0  0
 28 23  2  0  0  0  0
 28 31  1  0  0  0  0
 29 26  1  0  0  0  0
 30 28  1  0  0  0  0
 31 29  2  0  0  0  0
 32 31  1  0  0  0  0
 32 35  1  0  0  0  0
 33 34  1  0  0  0  0
 33 25  1  0  0  0  0
 35 36  1  0  0  0  0
 36 37  1  0  0  0  0
 37 38  1  1  0  0  0
 37 39  1  0  0  0  0
 39 41  1  0  0  0  0
 41 40  1  0  0  0  0
M  END
>  <MODEL>
8

>  <REMARK>
 VINA RESULT:      -7.6      1.305      1.883
  Name = 
  11 active torsions:
  status: ('A' for Active; 'I' for Inactive)
    1  A    between atoms: C_1  and  O_7
    2  A    between atoms: C_1  and  C_39
    3  A    between atoms: C_6  and  C_23
    4  A    between atoms: C_6  and  C_41
    5  A    between atoms: O_7  and  C_38
    6  A    between atoms: O_8  and  C_12
    7  A    between atoms: C_9  and  C_36
    8  A    between atoms: C_18  and  C_41
    9  A    between atoms: C_34  and  C_36
   10  A    between atoms: C_35  and  C_39
   11  A    between atoms: C_38  and  C_40
                            x       y       z     vdW  Elec       q    Type
                         _______ _______ _______ _____ _____    ______ ____

>  <TORSDO>
F 11

$$$$
=
 OpenBabel11062415193D

 41 45  0  0  1  0  0  0  0  0999 V2000
  189.0260  178.5830  139.1060 C   0  0  0  0  0  2  0  0  0  0  0  0
  189.6510  177.8410  136.8740 N   0  0  0  0  0  0  0  0  0  0  0  0
  188.9000  177.8780  135.6840 N   0  0  0  0  0  2  0  0  0  0  0  0
  190.5140  176.6740  136.7890 C   0  0  0  0  0  1  0  0  0  0  0  0
  188.7230  177.6060  137.9760 C   0  0  2  0  0  3  0  0  0  0  0  0
  187.3240  177.8130  137.4500 C   0  0  1  0  0  3  0  0  0  0  0  0
  187.5600  178.3040  136.0490 C   0  0  0  0  0  2  0  0  0  0  0  0
  186.6130  176.4660  137.4150 C   0  0  0  0  0  2  0  0  0  0  0  0
  184.2110  177.0240  137.4980 C   0  0  0  0  0  3  0  0  0  0  0  0
  183.4490  170.2200  136.3670 C   0  0  0  0  0  2  0  0  0  0  0  0
  185.3260  176.5390  136.6080 C   0  0  2  0  0  3  0  0  0  0  0  0
  185.0410  175.2410  135.9850 N   0  0  0  0  0  0  0  0  0  0  0  0
  182.5400  172.5320  135.7710 C   0  0  0  0  0  2  0  0  0  0  0  0
  184.4040  170.3440  135.1760 C   0  0  0  0  0  2  0  0  0  0  0  0
  182.9160  175.1240  136.9940 N   0  0  0  0  0  2  0  0  0  0  0  0
  183.7400  173.3170  135.5000 N   0  0  0  0  0  0  0  0  0  0  0  0
  185.3860  171.5000  135.3110 C   0  0  0  0  0  2  0  0  0  0  0  0
  183.1130  176.3490  137.6490 N   0  0  0  0  0  0  0  0  0  0  0  0
  182.8340  171.5290  136.8780 C   0  0  0  0  0  2  0  0  0  0  0  0
  183.9360  174.5810  136.1520 C   0  0  0  0  0  0  0  0  0  0  0  0
  184.7940  172.7470  134.6650 C   0  0  0  0  0  2  0  0  0  0  0  0
  189.6470  177.8920  140.3160 C   0  0  0  0  0  2  0  0  0  0  0  0
  185.2120  178.7720  142.0070 C   0  0  0  0  0  3  0  0  0  0  0  0
  184.2870  178.8340  143.0520 C   0  0  0  0  0  3  0  0  0  0  0  0
  189.0930  177.3890  142.7560 C   0  0  0  0  0  0  0  0  0  0  0  0
  184.6490  178.4600  144.3090 N   0  0  0  0  0  0  0  0  0  0  0  0
  188.6920  177.8280  141.4680 C   0  0  0  0  0  0  0  0  0  0  0  0
  186.5060  178.3200  142.2680 C   0  0  0  0  0  0  0  0  0  0  0  0
  185.9040  178.0160  144.5880 C   0  0  0  0  0  3  0  0  0  0  0  0
  187.4190  178.2650  141.2670 N   0  0  0  0  0  0  0  0  0  0  0  0
  186.8660  177.9340  143.5720 C   0  0  0  0  0  0  0  0  0  0  0  0
  188.1730  177.4780  143.8160 C   0  0  0  0  0  0  0  0  0  0  0  0
  190.3730  176.8790  143.0330 O   0  0  0  0  0  0  0  0  0  0  0  0
  191.5260  177.6770  143.2590 C   0  0  0  0  0  1  0  0  0  0  0  0
  188.5790  177.0250  145.1860 C   0  0  0  0  0  2  0  0  0  0  0  0
  189.1110  178.1080  145.9040 O   0  0  0  0  0  0  0  0  0  0  0  0
  189.3260  177.7080  147.2410 C   0  0  1  0  0  3  0  0  0  0  0  0
  188.1230  177.5950  147.9490 O   0  0  0  0  0  1  0  0  0  0  0  0
  190.1560  176.4290  147.3390 C   0  0  0  0  0  2  0  0  0  0  0  0
  192.3770  175.5970  147.4810 O   0  0  0  0  0  1  0  0  0  0  0  0
  191.6350  176.7580  147.2720 C   0  0  0  0  0  2  0  0  0  0  0  0
  1 22  1  0  0  0  0
  2  5  1  0  0  0  0
  3  7  1  0  0  0  0
  3  2  1  0  0  0  0
  4  2  1  0  0  0  0
  5  1  1  1  0  0  0
  6  8  1  6  0  0  0
  6  5  1  0  0  0  0
  7  6  1  0  0  0  0
  9 18  2  0  0  0  0
 10 19  1  0  0  0  0
 11  8  1  1  0  0  0
 11  9  1  0  0  0  0
 12 20  2  0  0  0  0
 12 11  1  0  0  0  0
 13 19  1  0  0  0  0
 14 17  1  0  0  0  0
 14 10  1  0  0  0  0
 15 18  1  0  0  0  0
 16 13  1  0  0  0  0
 16 20  1  0  0  0  0
 20 15  1  0  0  0  0
 21 17  1  0  0  0  0
 21 16  1  0  0  0  0
 22 27  1  0  0  0  0
 23 28  2  0  0  0  0
 23 24  1  0  0  0  0
 24 26  2  0  0  0  0
 25 33  1  0  0  0  0
 25 32  2  0  0  0  0
 26 29  1  0  0  0  0
 27 25  1  0  0  0  0
 28 31  1  0  0  0  0
 30 27  2  0  0  0  0
 30 28  1  0  0  0  0
 31 32  1  0  0  0  0
 31 29  2  0  0  0  0
 32 35  1  0  0  0  0
 33 34  1  0  0  0  0
 35 36  1  0  0  0  0
 36 37  1  0  0  0  0
 37 39  1  0  0  0  0
 37 38  1  6  0  0  0
 41 39  1  0  0  0  0
 41 40  1  0  0  0  0
M  END
>  <MODEL>
9

>  <REMARK>
 VINA RESULT:      -7.6      2.257      3.560
  Name = 
  11 active torsions:
  status: ('A' for Active; 'I' for Inactive)
    1  A    between atoms: C_1  and  O_7
    2  A    between atoms: C_1  and  C_39
    3  A    between atoms: C_6  and  C_23
    4  A    between atoms: C_6  and  C_41
    5  A    between atoms: O_7  and  C_38
    6  A    between atoms: O_8  and  C_12
    7  A    between atoms: C_9  and  C_36
    8  A    between atoms: C_18  and  C_41
    9  A    between atoms: C_34  and  C_36
   10  A    between atoms: C_35  and  C_39
   11  A    between atoms: C_38  and  C_40
                            x       y       z     vdW  Elec       q    Type
                         _______ _______ _______ _____ _____    ______ ____

>  <TORSDO>
F 11

$$$$
