=
 OpenBabel11062417423D

 39 43  0  0  1  0  0  0  0  0999 V2000
  189.3250  176.2660  137.7750 C   0  0  1  0  0  3  0  0  0  0  0  0
  188.1480  175.7130  137.1140 N   0  0  0  0  0  2  0  0  0  0  0  0
  186.4170  177.4020  137.3970 C   0  0  0  0  0  0  0  0  0  0  0  0
  188.2390  178.2160  138.9270 C   0  0  2  0  0  3  0  0  0  0  0  0
  186.8020  178.0260  138.5230 C   0  0  0  0  0  3  0  0  0  0  0  0
  188.9460  176.8780  139.1200 C   0  0  0  0  0  2  0  0  0  0  0  0
  190.2940  175.2070  137.9890 N   0  0  0  0  0  1  0  0  0  0  0  0
  187.4430  176.8040  136.4540 C   0  0  2  0  0  3  0  0  0  0  0  0
  186.8380  176.3000  135.1530 C   0  0  0  0  0  1  0  0  0  0  0  0
  184.9440  177.3100  137.1180 C   0  0  0  0  0  2  0  0  0  0  0  0
  183.8480  175.0530  137.0820 C   0  0  0  0  0  1  0  0  0  0  0  0
  184.2900  176.2160  137.9550 C   0  0  2  0  0  3  0  0  0  0  0  0
  182.2350  175.9200  139.2320 C   0  0  0  0  0  2  0  0  0  0  0  0
  183.1320  176.7680  138.7300 C   0  0  0  0  0  0  0  0  0  0  0  0
  183.1040  178.2190  139.1290 C   0  0  0  0  0  2  0  0  0  0  0  0
  183.1690  178.3810  140.6150 C   0  0  0  0  0  0  0  0  0  0  0  0
  182.1680  178.9760  142.7250 C   0  0  0  0  0  0  0  0  0  0  0  0
  184.4200  178.2500  142.6770 N   0  0  0  0  0  0  0  0  0  0  0  0
  180.2760  179.2340  139.6570 C   0  0  0  0  0  1  0  0  0  0  0  0
  184.3570  178.0890  141.3180 C   0  0  0  0  0  3  0  0  0  0  0  0
  180.2090  179.5500  142.1340 C   0  0  0  0  0  3  0  0  0  0  0  0
  181.0080  179.4270  143.2310 N   0  0  0  0  0  0  0  0  0  0  0  0
  182.0810  178.8270  141.3750 C   0  0  0  0  0  0  0  0  0  0  0  0
  180.8400  179.1810  140.9960 N   0  0  0  0  0  0  0  0  0  0  0  0
  183.3490  178.6930  143.4060 C   0  0  0  0  0  0  0  0  0  0  0  0
  184.6690  179.0490  145.4520 C   0  0  0  0  0  1  0  0  0  0  0  0
  183.4280  178.8600  144.7890 O   0  0  0  0  0  0  0  0  0  0  0  0
  188.2870  178.9370  140.1180 O   0  0  0  0  0  0  0  0  0  0  0  0
  188.3820  177.9700  141.1220 C   0  0  0  0  0  2  0  0  0  0  0  0
  188.9720  178.5880  142.3800 C   0  0  0  0  0  2  0  0  0  0  0  0
  190.9790  177.6670  144.0720 P   0  0  2  0  0  0  0  0  0  0  0  0
  191.8760  179.0990  143.9970 O   0  0  0  0  0  0  0  0  0  0  0  0
  191.5990  176.5270  144.8520 O   0  0  0  0  0  1  0  0  0  0  0  0
  189.3170  177.5350  143.4290 C   0  0  1  0  0  0  0  0  0  0  0  0
  189.3320  178.0670  144.7490 N   0  0  1  0  0  0  0  0  0  0  0  0
  188.8220  176.1000  143.2210 C   0  0  0  0  0  1  0  0  0  0  0  0
  189.0140  177.0850  145.7860 C   0  0  0  0  0  3  0  0  0  0  0  0
  187.7960  177.5510  146.5630 C   0  0  0  0  0  2  0  0  0  0  0  0
  189.1800  177.7270  147.1500 C   0  0  0  0  0  2  0  0  0  0  0  0
  1  7  1  1  0  0  0
  1  6  1  0  0  0  0
  2  1  1  0  0  0  0
  3  5  2  0  0  0  0
  4  6  1  0  0  0  0
  4 28  1  1  0  0  0
  5  4  1  0  0  0  0
  8  9  1  6  0  0  0
  8  2  1  0  0  0  0
  8  3  1  0  0  0  0
 10  3  1  0  0  0  0
 10 12  1  0  0  0  0
 12 11  1  6  0  0  0
 12 14  1  0  0  0  0
 14 15  1  0  0  0  0
 14 13  2  0  0  0  0
 15 16  1  0  0  0  0
 16 20  2  0  0  0  0
 16 23  1  0  0  0  0
 17 22  1  0  0  0  0
 17 25  1  0  0  0  0
 18 25  2  0  0  0  0
 19 24  1  0  0  0  0
 20 18  1  0  0  0  0
 21 22  2  0  0  0  0
 23 17  2  0  0  0  0
 24 23  1  0  0  0  0
 24 21  1  0  0  0  0
 25 27  1  0  0  0  0
 27 26  1  0  0  0  0
 28 29  1  0  0  0  0
 29 30  1  0  0  0  0
 30 34  1  0  0  0  0
 31 32  2  6  0  0  0
 31 35  1  0  0  0  0
 31 33  1  0  0  0  0
 34 36  1  6  0  0  0
 34 31  1  0  0  0  0
 34 35  1  0  0  0  0
 35 37  1  1  0  0  0
 37 38  1  0  0  0  0
 37 39  1  0  0  0  0
 38 39  1  0  0  0  0
M  END
>  <MODEL>
1

>  <REMARK>
 VINA RESULT:      -7.7      0.000      0.000
  Name = 
  11 active torsions:
  status: ('A' for Active; 'I' for Inactive)
    1  A    between atoms: C_3  and  C_11
    2  A    between atoms: C_5  and  C_7
    3  A    between atoms: C_7  and  C_34
    4  A    between atoms: C_10  and  O_26
    5  A    between atoms: C_11  and  C_37
    6  A    between atoms: O_16  and  C_38
    7  A    between atoms: C_22  and  O_26
    8  A    between atoms: C_22  and  C_27
    9  A    between atoms: C_27  and  C_30
   10  A    between atoms: N_31  and  C_32
   11  A    between atoms: C_34  and  C_37
                            x       y       z     vdW  Elec       q    Type
                         _______ _______ _______ _____ _____    ______ ____

>  <TORSDO>
F 11

$$$$
=
 OpenBabel11062417423D

 39 43  0  0  1  0  0  0  0  0999 V2000
  190.7650  178.0840  143.9430 C   0  0  1  0  0  3  0  0  0  0  0  0
  189.9260  178.3160  145.1120 N   0  0  0  0  0  2  0  0  0  0  0  0
  187.8260  177.1900  144.6120 C   0  0  0  0  0  0  0  0  0  0  0  0
  189.0250  177.1300  142.4030 C   0  0  2  0  0  3  0  0  0  0  0  0
  187.7970  177.2130  143.2690 C   0  0  0  0  0  3  0  0  0  0  0  0
  189.9680  178.3010  142.6600 C   0  0  0  0  0  2  0  0  0  0  0  0
  191.8870  179.0050  143.9690 N   0  0  0  0  0  1  0  0  0  0  0  0
  189.1440  177.1110  145.3570 C   0  0  2  0  0  3  0  0  0  0  0  0
  188.9750  176.9150  146.8550 C   0  0  0  0  0  1  0  0  0  0  0  0
  186.5140  177.2560  145.3400 C   0  0  0  0  0  2  0  0  0  0  0  0
  186.1300  179.1910  146.8920 C   0  0  0  0  0  1  0  0  0  0  0  0
  186.0210  178.6950  145.4590 C   0  0  2  0  0  3  0  0  0  0  0  0
  183.6600  178.0980  145.5680 C   0  0  0  0  0  2  0  0  0  0  0  0
  184.6120  178.8100  144.9640 C   0  0  0  0  0  0  0  0  0  0  0  0
  184.2380  179.8720  143.9650 C   0  0  0  0  0  2  0  0  0  0  0  0
  184.3540  179.3700  142.5600 C   0  0  0  0  0  0  0  0  0  0  0  0
  183.3830  178.4490  140.5560 C   0  0  0  0  0  0  0  0  0  0  0  0
  185.7120  178.8660  140.6270 N   0  0  0  0  0  0  0  0  0  0  0  0
  181.3230  179.1420  143.4430 C   0  0  0  0  0  1  0  0  0  0  0  0
  185.6050  179.3370  141.9090 C   0  0  0  0  0  3  0  0  0  0  0  0
  181.3340  178.2850  141.0970 C   0  0  0  0  0  3  0  0  0  0  0  0
  182.1960  178.0500  140.0680 N   0  0  0  0  0  0  0  0  0  0  0  0
  183.2510  178.9100  141.8290 C   0  0  0  0  0  0  0  0  0  0  0  0
  181.9540  178.8160  142.1750 N   0  0  0  0  0  0  0  0  0  0  0  0
  184.6250  178.4130  139.9280 C   0  0  0  0  0  0  0  0  0  0  0  0
  185.9070  178.1670  137.8430 C   0  0  0  0  0  1  0  0  0  0  0  0
  184.7470  177.9280  138.6260 O   0  0  0  0  0  0  0  0  0  0  0  0
  188.6410  177.1350  141.0640 O   0  0  0  0  0  0  0  0  0  0  0  0
  189.8170  176.8870  140.3500 C   0  0  0  0  0  2  0  0  0  0  0  0
  189.9970  177.9420  139.2690 C   0  0  0  0  0  2  0  0  0  0  0  0
  191.2820  176.3850  137.3550 P   0  0  2  0  0  0  0  0  0  0  0  0
  192.3650  175.6980  138.4570 O   0  0  0  0  0  1  0  0  0  0  0  0
  191.4790  176.0140  135.9010 O   0  0  0  0  0  0  0  0  0  0  0  0
  189.8690  177.3530  137.8670 C   0  0  1  0  0  0  0  0  0  0  0  0
  189.5890  175.9580  137.8870 N   0  0  1  0  0  0  0  0  0  0  0  0
  189.2470  178.2120  136.7620 C   0  0  0  0  0  1  0  0  0  0  0  0
  188.8480  175.4870  136.7170 C   0  0  0  0  0  3  0  0  0  0  0  0
  187.5110  174.9210  137.1620 C   0  0  0  0  0  2  0  0  0  0  0  0
  188.6510  173.9860  136.8200 C   0  0  0  0  0  2  0  0  0  0  0  0
  1  7  1  6  0  0  0
  1  2  1  0  0  0  0
  2  8  1  0  0  0  0
  3 10  1  0  0  0  0
  3  8  1  0  0  0  0
  4 28  1  6  0  0  0
  4  6  1  0  0  0  0
  4  5  1  0  0  0  0
  5  3  2  0  0  0  0
  6  1  1  0  0  0  0
  8  9  1  1  0  0  0
 10 12  1  0  0  0  0
 12 11  1  1  0  0  0
 14 12  1  0  0  0  0
 14 13  2  0  0  0  0
 15 14  1  0  0  0  0
 16 15  1  0  0  0  0
 17 23  2  0  0  0  0
 18 20  1  0  0  0  0
 20 16  2  0  0  0  0
 21 24  1  0  0  0  0
 22 17  1  0  0  0  0
 22 21  2  0  0  0  0
 23 24  1  0  0  0  0
 23 16  1  0  0  0  0
 24 19  1  0  0  0  0
 25 17  1  0  0  0  0
 25 18  2  0  0  0  0
 26 27  1  0  0  0  0
 27 25  1  0  0  0  0
 29 28  1  0  0  0  0
 30 29  1  0  0  0  0
 31 33  2  6  0  0  0
 31 34  1  0  0  0  0
 31 35  1  0  0  0  0
 31 32  1  0  0  0  0
 34 36  1  6  0  0  0
 34 35  1  0  0  0  0
 34 30  1  0  0  0  0
 35 37  1  6  0  0  0
 37 39  1  0  0  0  0
 37 38  1  0  0  0  0
 39 38  1  0  0  0  0
M  END
>  <MODEL>
2

>  <REMARK>
 VINA RESULT:      -7.7      2.464      6.542
  Name = 
  11 active torsions:
  status: ('A' for Active; 'I' for Inactive)
    1  A    between atoms: C_3  and  C_11
    2  A    between atoms: C_5  and  C_7
    3  A    between atoms: C_7  and  C_34
    4  A    between atoms: C_10  and  O_26
    5  A    between atoms: C_11  and  C_37
    6  A    between atoms: O_16  and  C_38
    7  A    between atoms: C_22  and  O_26
    8  A    between atoms: C_22  and  C_27
    9  A    between atoms: C_27  and  C_30
   10  A    between atoms: N_31  and  C_32
   11  A    between atoms: C_34  and  C_37
                            x       y       z     vdW  Elec       q    Type
                         _______ _______ _______ _____ _____    ______ ____

>  <TORSDO>
F 11

$$$$
=
 OpenBabel11062417423D

 39 43  0  0  1  0  0  0  0  0999 V2000
  188.2440  177.2270  137.0920 C   0  0  1  0  0  3  0  0  0  0  0  0
  187.8220  177.2300  138.4880 N   0  0  0  0  0  2  0  0  0  0  0  0
  189.8670  176.8750  139.7630 C   0  0  0  0  0  0  0  0  0  0  0  0
  190.5990  176.4100  137.4030 C   0  0  2  0  0  3  0  0  0  0  0  0
  190.6380  176.2020  138.8920 C   0  0  0  0  0  3  0  0  0  0  0  0
  189.2230  176.0860  136.8300 C   0  0  0  0  0  2  0  0  0  0  0  0
  187.0800  177.0610  136.2410 N   0  0  0  0  0  1  0  0  0  0  0  0
  188.8550  177.8930  139.2740 C   0  0  2  0  0  3  0  0  0  0  0  0
  188.2040  178.6790  140.4000 C   0  0  0  0  0  1  0  0  0  0  0  0
  190.0360  176.5740  141.2240 C   0  0  0  0  0  2  0  0  0  0  0  0
  192.3560  177.3190  141.8250 C   0  0  0  0  0  1  0  0  0  0  0  0
  190.8740  177.6450  141.9140 C   0  0  2  0  0  3  0  0  0  0  0  0
  190.6400  178.9810  143.9400 C   0  0  0  0  0  2  0  0  0  0  0  0
  190.4510  177.8040  143.3430 C   0  0  0  0  0  0  0  0  0  0  0  0
  189.6260  176.7420  144.0160 C   0  0  0  0  0  2  0  0  0  0  0  0
  188.3340  177.2930  144.5310 C   0  0  0  0  0  0  0  0  0  0  0  0
  186.9290  178.0650  146.3300 C   0  0  0  0  0  0  0  0  0  0  0  0
  186.0740  178.0450  144.1240 N   0  0  0  0  0  0  0  0  0  0  0  0
  190.2860  176.9020  146.9910 C   0  0  0  0  0  1  0  0  0  0  0  0
  187.2620  177.5520  143.6500 C   0  0  0  0  0  3  0  0  0  0  0  0
  188.2060  177.8310  148.0140 C   0  0  0  0  0  3  0  0  0  0  0  0
  186.9550  178.2400  147.6630 N   0  0  0  0  0  0  0  0  0  0  0  0
  188.1170  177.5730  145.8860 C   0  0  0  0  0  0  0  0  0  0  0  0
  188.9330  177.4300  146.9460 N   0  0  0  0  0  0  0  0  0  0  0  0
  185.8760  178.3070  145.4530 C   0  0  0  0  0  0  0  0  0  0  0  0
  183.5450  178.9920  145.0660 C   0  0  0  0  0  1  0  0  0  0  0  0
  184.6600  178.8030  145.9240 O   0  0  0  0  0  0  0  0  0  0  0  0
  191.5520  175.5900  136.8010 O   0  0  0  0  0  0  0  0  0  0  0  0
  192.7810  176.1840  137.1030 C   0  0  0  0  0  2  0  0  0  0  0  0
  193.6680  176.1900  135.8680 C   0  0  0  0  0  2  0  0  0  0  0  0
  196.3590  175.6550  135.4080 P   0  0  2  0  0  0  0  0  0  0  0  0
  196.8150  177.2830  135.4150 O   0  0  0  0  0  1  0  0  0  0  0  0
  197.4470  174.6550  135.0820 O   0  0  0  0  0  0  0  0  0  0  0  0
  194.7390  175.1050  135.9260 C   0  0  1  0  0  0  0  0  0  0  0  0
  195.6190  175.2690  137.0320 N   0  0  1  0  0  0  0  0  0  0  0  0
  194.3720  173.6850  135.4820 C   0  0  0  0  0  1  0  0  0  0  0  0
  196.2040  174.0170  137.5130 C   0  0  0  0  0  3  0  0  0  0  0  0
  195.7320  173.7550  138.9320 C   0  0  0  0  0  2  0  0  0  0  0  0
  197.1180  174.3110  138.6870 C   0  0  0  0  0  2  0  0  0  0  0  0
  1  7  1  6  0  0  0
  1  2  1  0  0  0  0
  2  8  1  0  0  0  0
  3 10  1  0  0  0  0
  4 28  1  6  0  0  0
  4  5  1  0  0  0  0
  5  3  2  0  0  0  0
  6  1  1  0  0  0  0
  6  4  1  0  0  0  0
  8  3  1  0  0  0  0
  8  9  1  1  0  0  0
 10 12  1  0  0  0  0
 12 11  1  1  0  0  0
 12 14  1  0  0  0  0
 14 13  2  0  0  0  0
 14 15  1  0  0  0  0
 15 16  1  0  0  0  0
 16 23  1  0  0  0  0
 17 22  1  0  0  0  0
 18 25  2  0  0  0  0
 20 18  1  0  0  0  0
 20 16  2  0  0  0  0
 22 21  2  0  0  0  0
 23 17  2  0  0  0  0
 23 24  1  0  0  0  0
 24 19  1  0  0  0  0
 24 21  1  0  0  0  0
 25 27  1  0  0  0  0
 25 17  1  0  0  0  0
 26 27  1  0  0  0  0
 28 29  1  0  0  0  0
 30 34  1  0  0  0  0
 30 29  1  0  0  0  0
 31 33  2  6  0  0  0
 31 32  1  0  0  0  0
 31 34  1  0  0  0  0
 31 35  1  0  0  0  0
 34 36  1  6  0  0  0
 34 35  1  0  0  0  0
 35 37  1  6  0  0  0
 37 39  1  0  0  0  0
 37 38  1  0  0  0  0
 39 38  1  0  0  0  0
M  END
>  <MODEL>
3

>  <REMARK>
 VINA RESULT:      -7.6      4.404      7.776
  Name = 
  11 active torsions:
  status: ('A' for Active; 'I' for Inactive)
    1  A    between atoms: C_3  and  C_11
    2  A    between atoms: C_5  and  C_7
    3  A    between atoms: C_7  and  C_34
    4  A    between atoms: C_10  and  O_26
    5  A    between atoms: C_11  and  C_37
    6  A    between atoms: O_16  and  C_38
    7  A    between atoms: C_22  and  O_26
    8  A    between atoms: C_22  and  C_27
    9  A    between atoms: C_27  and  C_30
   10  A    between atoms: N_31  and  C_32
   11  A    between atoms: C_34  and  C_37
                            x       y       z     vdW  Elec       q    Type
                         _______ _______ _______ _____ _____    ______ ____

>  <TORSDO>
F 11

$$$$
=
 OpenBabel11062417423D

 39 43  0  0  1  0  0  0  0  0999 V2000
  190.7220  177.8810  144.2590 C   0  0  1  0  0  3  0  0  0  0  0  0
  189.7720  178.3190  145.2750 N   0  0  0  0  0  2  0  0  0  0  0  0
  187.7230  177.0960  144.7880 C   0  0  0  0  0  0  0  0  0  0  0  0
  189.1370  176.6370  142.7600 C   0  0  2  0  0  3  0  0  0  0  0  0
  187.8300  176.8670  143.4680 C   0  0  0  0  0  3  0  0  0  0  0  0
  190.0590  177.8460  142.8850 C   0  0  0  0  0  2  0  0  0  0  0  0
  191.8430  178.8030  144.2240 N   0  0  0  0  0  1  0  0  0  0  0  0
  188.9600  177.1730  145.6620 C   0  0  2  0  0  3  0  0  0  0  0  0
  188.6400  177.2590  147.1460 C   0  0  0  0  0  1  0  0  0  0  0  0
  186.3450  177.2840  145.3560 C   0  0  0  0  0  2  0  0  0  0  0  0
  185.7520  179.0390  147.0490 C   0  0  0  0  0  1  0  0  0  0  0  0
  186.0380  178.7600  145.5820 C   0  0  2  0  0  3  0  0  0  0  0  0
  184.8010  180.4770  144.3720 C   0  0  0  0  0  2  0  0  0  0  0  0
  184.8880  179.1950  144.7260 C   0  0  0  0  0  0  0  0  0  0  0  0
  183.9820  178.1750  144.0900 C   0  0  0  0  0  2  0  0  0  0  0  0
  183.7940  178.4410  142.6300 C   0  0  0  0  0  0  0  0  0  0  0  0
  182.4000  178.9750  140.7390 C   0  0  0  0  0  0  0  0  0  0  0  0
  184.7160  178.6210  140.4040 N   0  0  0  0  0  0  0  0  0  0  0  0
  180.9720  178.6670  144.0440 C   0  0  0  0  0  1  0  0  0  0  0  0
  184.8900  178.3890  141.7430 C   0  0  0  0  0  3  0  0  0  0  0  0
  180.4830  179.1470  141.6420 C   0  0  0  0  0  3  0  0  0  0  0  0
  181.1150  179.2310  140.4380 N   0  0  0  0  0  0  0  0  0  0  0  0
  182.5460  178.7460  142.0720 C   0  0  0  0  0  0  0  0  0  0  0  0
  181.3380  178.8620  142.6510 N   0  0  0  0  0  0  0  0  0  0  0  0
  183.4880  178.9110  139.8730 C   0  0  0  0  0  0  0  0  0  0  0  0
  182.8400  178.1280  137.6320 C   0  0  0  0  0  1  0  0  0  0  0  0
  183.3200  179.1380  138.5060 O   0  0  0  0  0  0  0  0  0  0  0  0
  188.8890  176.3870  141.4120 O   0  0  0  0  0  0  0  0  0  0  0  0
  189.1460  177.5990  140.7660 C   0  0  0  0  0  2  0  0  0  0  0  0
  188.1380  177.8130  139.6480 C   0  0  0  0  0  2  0  0  0  0  0  0
  188.8400  178.4520  137.0330 P   0  0  2  0  0  0  0  0  0  0  0  0
  189.0660  180.0960  137.3610 O   0  0  0  0  0  1  0  0  0  0  0  0
  188.9820  178.0310  135.5860 O   0  0  0  0  0  0  0  0  0  0  0  0
  188.6200  177.2330  138.3220 C   0  0  1  0  0  0  0  0  0  0  0  0
  189.9960  177.5040  138.0800 N   0  0  1  0  0  0  0  0  0  0  0  0
  188.0390  175.8970  137.8480 C   0  0  0  0  0  1  0  0  0  0  0  0
  190.6570  176.5040  137.2390 C   0  0  0  0  0  3  0  0  0  0  0  0
  191.3800  175.5040  138.1220 C   0  0  0  0  0  2  0  0  0  0  0  0
  192.1580  176.6020  137.4310 C   0  0  0  0  0  2  0  0  0  0  0  0
  1  7  1  6  0  0  0
  1  2  1  0  0  0  0
  2  8  1  0  0  0  0
  3 10  1  0  0  0  0
  3  8  1  0  0  0  0
  4 28  1  6  0  0  0
  4  6  1  0  0  0  0
  4  5  1  0  0  0  0
  5  3  2  0  0  0  0
  6  1  1  0  0  0  0
  8  9  1  1  0  0  0
 10 12  1  0  0  0  0
 12 11  1  1  0  0  0
 13 14  2  0  0  0  0
 14 12  1  0  0  0  0
 15 14  1  0  0  0  0
 16 15  1  0  0  0  0
 17 23  2  0  0  0  0
 18 20  1  0  0  0  0
 20 16  2  0  0  0  0
 21 24  1  0  0  0  0
 22 17  1  0  0  0  0
 22 21  2  0  0  0  0
 23 16  1  0  0  0  0
 23 24  1  0  0  0  0
 24 19  1  0  0  0  0
 25 18  2  0  0  0  0
 25 17  1  0  0  0  0
 26 27  1  0  0  0  0
 27 25  1  0  0  0  0
 29 28  1  0  0  0  0
 30 29  1  0  0  0  0
 31 33  2  6  0  0  0
 31 32  1  0  0  0  0
 31 35  1  0  0  0  0
 31 34  1  0  0  0  0
 34 36  1  6  0  0  0
 34 30  1  0  0  0  0
 35 37  1  6  0  0  0
 35 34  1  0  0  0  0
 37 39  1  0  0  0  0
 37 38  1  0  0  0  0
 39 38  1  0  0  0  0
M  END
>  <MODEL>
4

>  <REMARK>
 VINA RESULT:      -7.6      2.466      6.535
  Name = 
  11 active torsions:
  status: ('A' for Active; 'I' for Inactive)
    1  A    between atoms: C_3  and  C_11
    2  A    between atoms: C_5  and  C_7
    3  A    between atoms: C_7  and  C_34
    4  A    between atoms: C_10  and  O_26
    5  A    between atoms: C_11  and  C_37
    6  A    between atoms: O_16  and  C_38
    7  A    between atoms: C_22  and  O_26
    8  A    between atoms: C_22  and  C_27
    9  A    between atoms: C_27  and  C_30
   10  A    between atoms: N_31  and  C_32
   11  A    between atoms: C_34  and  C_37
                            x       y       z     vdW  Elec       q    Type
                         _______ _______ _______ _____ _____    ______ ____

>  <TORSDO>
F 11

$$$$
=
 OpenBabel11062417423D

 39 43  0  0  1  0  0  0  0  0999 V2000
  188.5670  177.6130  137.0180 C   0  0  1  0  0  3  0  0  0  0  0  0
  189.8960  177.5590  137.6150 N   0  0  0  0  0  2  0  0  0  0  0  0
  189.5060  177.5400  140.0190 C   0  0  0  0  0  0  0  0  0  0  0  0
  187.2320  178.0820  139.0930 C   0  0  2  0  0  3  0  0  0  0  0  0
  188.3230  178.1690  140.1250 C   0  0  0  0  0  3  0  0  0  0  0  0
  187.6930  178.6300  137.7460 C   0  0  0  0  0  2  0  0  0  0  0  0
  188.6840  177.9970  135.6230 N   0  0  0  0  0  1  0  0  0  0  0  0
  189.8310  176.7060  138.7950 C   0  0  2  0  0  3  0  0  0  0  0  0
  191.1310  175.9290  138.9270 C   0  0  0  0  0  1  0  0  0  0  0  0
  190.4880  177.7020  141.1430 C   0  0  0  0  0  2  0  0  0  0  0  0
  190.5680  178.9940  143.2940 C   0  0  0  0  0  1  0  0  0  0  0  0
  189.7750  178.0010  142.4580 C   0  0  2  0  0  3  0  0  0  0  0  0
  190.1700  175.6270  142.8450 C   0  0  0  0  0  2  0  0  0  0  0  0
  189.5350  176.7360  143.2250 C   0  0  0  0  0  0  0  0  0  0  0  0
  188.7810  176.7640  144.5260 C   0  0  0  0  0  2  0  0  0  0  0  0
  187.4510  177.4330  144.3760 C   0  0  0  0  0  0  0  0  0  0  0  0
  185.5420  178.5770  145.2990 C   0  0  0  0  0  0  0  0  0  0  0  0
  185.6120  178.1330  142.9750 N   0  0  0  0  0  0  0  0  0  0  0  0
  188.2480  177.5020  147.4380 C   0  0  0  0  0  1  0  0  0  0  0  0
  186.8350  177.5320  143.1100 C   0  0  0  0  0  3  0  0  0  0  0  0
  186.0360  178.6590  147.3650 C   0  0  0  0  0  3  0  0  0  0  0  0
  185.0650  179.0140  146.4770 N   0  0  0  0  0  0  0  0  0  0  0  0
  186.7540  177.9830  145.4600 C   0  0  0  0  0  0  0  0  0  0  0  0
  187.0770  178.0380  146.7650 N   0  0  0  0  0  0  0  0  0  0  0  0
  184.9400  178.6600  144.0460 C   0  0  0  0  0  0  0  0  0  0  0  0
  182.4960  178.6300  144.3270 C   0  0  0  0  0  1  0  0  0  0  0  0
  183.6910  179.2640  143.8970 O   0  0  0  0  0  0  0  0  0  0  0  0
  186.1290  178.8120  139.5320 O   0  0  0  0  0  0  0  0  0  0  0  0
  185.0740  178.4010  138.7120 C   0  0  0  0  0  2  0  0  0  0  0  0
  183.8320  178.1510  139.5540 C   0  0  0  0  0  2  0  0  0  0  0  0
  181.0540  178.0690  139.6790 P   0  0  2  0  0  0  0  0  0  0  0  0
  181.0100  177.8490  141.3550 O   0  0  0  0  0  1  0  0  0  0  0  0
  179.7220  178.0300  138.9620 O   0  0  0  0  0  0  0  0  0  0  0  0
  182.5510  178.5020  138.8030 C   0  0  1  0  0  0  0  0  0  0  0  0
  181.9030  179.6490  139.3400 N   0  0  1  0  0  0  0  0  0  0  0  0
  182.4980  178.2680  137.2890 C   0  0  0  0  0  1  0  0  0  0  0  0
  181.1090  180.3920  138.3610 C   0  0  0  0  0  3  0  0  0  0  0  0
  181.5850  181.8330  138.3180 C   0  0  0  0  0  2  0  0  0  0  0  0
  180.3240  181.4770  139.0740 C   0  0  0  0  0  2  0  0  0  0  0  0
  1  7  1  6  0  0  0
  1  2  1  0  0  0  0
  1  6  1  0  0  0  0
  2  8  1  0  0  0  0
  3  5  2  0  0  0  0
  3 10  1  0  0  0  0
  4 28  1  1  0  0  0
  4  5  1  0  0  0  0
  6  4  1  0  0  0  0
  8  9  1  1  0  0  0
  8  3  1  0  0  0  0
 10 12  1  0  0  0  0
 12 14  1  0  0  0  0
 12 11  1  1  0  0  0
 13 14  2  0  0  0  0
 14 15  1  0  0  0  0
 16 15  1  0  0  0  0
 16 23  1  0  0  0  0
 17 23  2  0  0  0  0
 17 22  1  0  0  0  0
 18 20  1  0  0  0  0
 18 25  2  0  0  0  0
 20 16  2  0  0  0  0
 22 21  2  0  0  0  0
 23 24  1  0  0  0  0
 24 21  1  0  0  0  0
 24 19  1  0  0  0  0
 25 17  1  0  0  0  0
 27 25  1  0  0  0  0
 27 26  1  0  0  0  0
 29 28  1  0  0  0  0
 29 30  1  0  0  0  0
 31 33  2  6  0  0  0
 31 32  1  0  0  0  0
 34 36  1  6  0  0  0
 34 35  1  0  0  0  0
 34 30  1  0  0  0  0
 34 31  1  0  0  0  0
 35 37  1  6  0  0  0
 35 31  1  0  0  0  0
 37 39  1  0  0  0  0
 38 37  1  0  0  0  0
 38 39  1  0  0  0  0
M  END
>  <MODEL>
5

>  <REMARK>
 VINA RESULT:      -7.3      3.093      7.208
  Name = 
  11 active torsions:
  status: ('A' for Active; 'I' for Inactive)
    1  A    between atoms: C_3  and  C_11
    2  A    between atoms: C_5  and  C_7
    3  A    between atoms: C_7  and  C_34
    4  A    between atoms: C_10  and  O_26
    5  A    between atoms: C_11  and  C_37
    6  A    between atoms: O_16  and  C_38
    7  A    between atoms: C_22  and  O_26
    8  A    between atoms: C_22  and  C_27
    9  A    between atoms: C_27  and  C_30
   10  A    between atoms: N_31  and  C_32
   11  A    between atoms: C_34  and  C_37
                            x       y       z     vdW  Elec       q    Type
                         _______ _______ _______ _____ _____    ______ ____

>  <TORSDO>
F 11

$$$$
=
 OpenBabel11062417423D

 39 43  0  0  1  0  0  0  0  0999 V2000
  191.9170  177.0000  138.4420 C   0  0  1  0  0  3  0  0  0  0  0  0
  191.6530  175.7970  137.6610 N   0  0  0  0  0  2  0  0  0  0  0  0
  189.2580  175.8420  137.2260 C   0  0  0  0  0  0  0  0  0  0  0  0
  189.5460  177.6710  138.9270 C   0  0  2  0  0  3  0  0  0  0  0  0
  188.7880  176.5530  138.2650 C   0  0  0  0  0  3  0  0  0  0  0  0
  190.8590  177.1780  139.5270 C   0  0  0  0  0  2  0  0  0  0  0  0
  193.2240  176.8890  139.0640 N   0  0  0  0  0  1  0  0  0  0  0  0
  190.6390  176.1150  136.6640 C   0  0  2  0  0  3  0  0  0  0  0  0
  190.9290  175.3430  135.3870 C   0  0  0  0  0  1  0  0  0  0  0  0
  188.3740  174.7700  136.6560 C   0  0  0  0  0  2  0  0  0  0  0  0
  186.1490  173.7470  137.2070 C   0  0  0  0  0  1  0  0  0  0  0  0
  186.9060  175.0440  136.9650 C   0  0  2  0  0  3  0  0  0  0  0  0
  186.8320  175.7940  134.6470 C   0  0  0  0  0  2  0  0  0  0  0  0
  186.2730  175.8280  135.8560 C   0  0  0  0  0  0  0  0  0  0  0  0
  184.9150  176.4510  136.0410 C   0  0  0  0  0  2  0  0  0  0  0  0
  184.8320  177.2160  137.3240 C   0  0  0  0  0  0  0  0  0  0  0  0
  183.8120  177.6560  139.4630 C   0  0  0  0  0  0  0  0  0  0  0  0
  185.6460  178.9770  138.7630 N   0  0  0  0  0  0  0  0  0  0  0  0
  182.5300  175.0430  137.3200 C   0  0  0  0  0  1  0  0  0  0  0  0
  185.7310  178.2690  137.5930 C   0  0  0  0  0  3  0  0  0  0  0  0
  182.2560  176.2070  139.5130 C   0  0  0  0  0  3  0  0  0  0  0  0
  182.8070  177.2180  140.2410 N   0  0  0  0  0  0  0  0  0  0  0  0
  183.8730  176.9390  138.3080 C   0  0  0  0  0  0  0  0  0  0  0  0
  182.8970  176.0150  138.3370 N   0  0  0  0  0  0  0  0  0  0  0  0
  184.6990  178.6990  139.7120 C   0  0  0  0  0  0  0  0  0  0  0  0
  185.3410  179.0600  142.0590 C   0  0  0  0  0  1  0  0  0  0  0  0
  184.6170  179.4320  140.8960 O   0  0  0  0  0  0  0  0  0  0  0  0
  188.7590  178.2230  139.9360 O   0  0  0  0  0  0  0  0  0  0  0  0
  188.9370  177.3780  141.0350 C   0  0  0  0  0  2  0  0  0  0  0  0
  188.9500  178.1950  142.3180 C   0  0  0  0  0  2  0  0  0  0  0  0
  190.9460  177.8590  144.2270 P   0  0  2  0  0  0  0  0  0  0  0  0
  191.6030  179.4010  143.9960 O   0  0  0  0  0  0  0  0  0  0  0  0
  191.6820  176.9550  145.1920 O   0  0  0  0  0  1  0  0  0  0  0  0
  189.3800  177.3630  143.5220 C   0  0  1  0  0  0  0  0  0  0  0  0
  189.2090  178.0590  144.7520 N   0  0  1  0  0  0  0  0  0  0  0  0
  189.1410  175.8500  143.4950 C   0  0  0  0  0  1  0  0  0  0  0  0
  188.9770  177.1820  145.9010 C   0  0  0  0  0  3  0  0  0  0  0  0
  187.5980  177.4580  146.4720 C   0  0  0  0  0  2  0  0  0  0  0  0
  188.8250  178.0270  147.1510 C   0  0  0  0  0  2  0  0  0  0  0  0
  1  7  1  1  0  0  0
  1  6  1  0  0  0  0
  2  1  1  0  0  0  0
  3  5  2  0  0  0  0
  4  6  1  0  0  0  0
  4 28  1  1  0  0  0
  5  4  1  0  0  0  0
  8  9  1  6  0  0  0
  8  3  1  0  0  0  0
  8  2  1  0  0  0  0
 10 12  1  0  0  0  0
 10  3  1  0  0  0  0
 12 11  1  6  0  0  0
 13 14  2  0  0  0  0
 14 15  1  0  0  0  0
 14 12  1  0  0  0  0
 15 16  1  0  0  0  0
 16 20  2  0  0  0  0
 16 23  1  0  0  0  0
 17 25  1  0  0  0  0
 17 22  1  0  0  0  0
 18 25  2  0  0  0  0
 19 24  1  0  0  0  0
 20 18  1  0  0  0  0
 21 22  2  0  0  0  0
 23 24  1  0  0  0  0
 23 17  2  0  0  0  0
 24 21  1  0  0  0  0
 25 27  1  0  0  0  0
 27 26  1  0  0  0  0
 28 29  1  0  0  0  0
 29 30  1  0  0  0  0
 30 34  1  0  0  0  0
 31 32  2  6  0  0  0
 31 35  1  0  0  0  0
 31 33  1  0  0  0  0
 34 36  1  6  0  0  0
 34 31  1  0  0  0  0
 34 35  1  0  0  0  0
 35 37  1  1  0  0  0
 37 38  1  0  0  0  0
 37 39  1  0  0  0  0
 38 39  1  0  0  0  0
M  END
>  <MODEL>
6

>  <REMARK>
 VINA RESULT:      -7.3      2.028      3.246
  Name = 
  11 active torsions:
  status: ('A' for Active; 'I' for Inactive)
    1  A    between atoms: C_3  and  C_11
    2  A    between atoms: C_5  and  C_7
    3  A    between atoms: C_7  and  C_34
    4  A    between atoms: C_10  and  O_26
    5  A    between atoms: C_11  and  C_37
    6  A    between atoms: O_16  and  C_38
    7  A    between atoms: C_22  and  O_26
    8  A    between atoms: C_22  and  C_27
    9  A    between atoms: C_27  and  C_30
   10  A    between atoms: N_31  and  C_32
   11  A    between atoms: C_34  and  C_37
                            x       y       z     vdW  Elec       q    Type
                         _______ _______ _______ _____ _____    ______ ____

>  <TORSDO>
F 11

$$$$
=
 OpenBabel11062417423D

 39 43  0  0  1  0  0  0  0  0999 V2000
  188.7040  175.5590  136.0190 C   0  0  1  0  0  3  0  0  0  0  0  0
  188.3280  176.5820  136.9880 N   0  0  0  0  0  2  0  0  0  0  0  0
  190.3340  176.9580  138.3150 C   0  0  0  0  0  0  0  0  0  0  0  0
  190.9210  174.8990  136.9960 C   0  0  2  0  0  3  0  0  0  0  0  0
  190.9720  175.7800  138.2150 C   0  0  0  0  0  3  0  0  0  0  0  0
  189.4960  174.4450  136.6970 C   0  0  0  0  0  2  0  0  0  0  0  0
  187.5030  174.9980  135.4270 N   0  0  0  0  0  1  0  0  0  0  0  0
  189.4690  177.4680  137.1790 C   0  0  2  0  0  3  0  0  0  0  0  0
  188.9730  178.8890  137.3950 C   0  0  0  0  0  1  0  0  0  0  0  0
  190.5000  177.7370  139.5880 C   0  0  0  0  0  2  0  0  0  0  0  0
  188.3950  178.2050  140.8720 C   0  0  0  0  0  1  0  0  0  0  0  0
  189.5490  177.2360  140.6700 C   0  0  2  0  0  3  0  0  0  0  0  0
  191.2310  177.8840  142.3110 C   0  0  0  0  0  2  0  0  0  0  0  0
  190.2860  177.0130  141.9550 C   0  0  0  0  0  0  0  0  0  0  0  0
  189.8180  175.9690  142.9320 C   0  0  0  0  0  2  0  0  0  0  0  0
  188.8620  176.5410  143.9310 C   0  0  0  0  0  0  0  0  0  0  0  0
  188.3540  177.3810  146.1320 C   0  0  0  0  0  0  0  0  0  0  0  0
  186.6350  177.2780  144.5080 N   0  0  0  0  0  0  0  0  0  0  0  0
  191.6870  176.2410  145.3270 C   0  0  0  0  0  1  0  0  0  0  0  0
  187.5120  176.7660  143.5880 C   0  0  0  0  0  3  0  0  0  0  0  0
  190.2330  177.2100  147.1110 C   0  0  0  0  0  3  0  0  0  0  0  0
  188.9450  177.6060  147.3180 N   0  0  0  0  0  0  0  0  0  0  0  0
  189.2440  176.8720  145.2380 C   0  0  0  0  0  0  0  0  0  0  0  0
  190.4370  176.7680  145.8490 N   0  0  0  0  0  0  0  0  0  0  0  0
  187.0220  177.5910  145.7830 C   0  0  0  0  0  0  0  0  0  0  0  0
  184.8590  178.6300  146.3230 C   0  0  0  0  0  1  0  0  0  0  0  0
  186.1180  178.1040  146.7140 O   0  0  0  0  0  0  0  0  0  0  0  0
  191.7250  173.7810  137.2060 O   0  0  0  0  0  0  0  0  0  0  0  0
  192.2330  173.4590  135.9440 C   0  0  0  0  0  2  0  0  0  0  0  0
  193.6870  173.0320  136.0660 C   0  0  0  0  0  2  0  0  0  0  0  0
  195.0850  174.0520  138.2460 P   0  0  2  0  0  0  0  0  0  0  0  0
  195.0820  172.5880  139.0930 O   0  0  0  0  0  1  0  0  0  0  0  0
  195.6810  175.2420  138.9650 O   0  0  0  0  0  0  0  0  0  0  0  0
  194.5830  174.1750  136.5340 C   0  0  1  0  0  0  0  0  0  0  0  0
  195.9450  173.7820  136.6580 N   0  0  1  0  0  0  0  0  0  0  0  0
  194.2690  175.5980  136.0600 C   0  0  0  0  0  1  0  0  0  0  0  0
  196.8970  174.8770  136.4640 C   0  0  0  0  0  3  0  0  0  0  0  0
  197.7960  174.5580  135.2840 C   0  0  0  0  0  2  0  0  0  0  0  0
  198.3050  174.3630  136.6960 C   0  0  0  0  0  2  0  0  0  0  0  0
  1  7  1  1  0  0  0
  1  6  1  0  0  0  0
  1  2  1  0  0  0  0
  2  8  1  0  0  0  0
  3 10  1  0  0  0  0
  4 28  1  1  0  0  0
  4  5  1  0  0  0  0
  5  3  2  0  0  0  0
  6  4  1  0  0  0  0
  8  9  1  1  0  0  0
  8  3  1  0  0  0  0
 10 12  1  0  0  0  0
 12 11  1  1  0  0  0
 12 14  1  0  0  0  0
 14 13  2  0  0  0  0
 14 15  1  0  0  0  0
 15 16  1  0  0  0  0
 16 23  1  0  0  0  0
 17 22  1  0  0  0  0
 18 25  2  0  0  0  0
 19 24  1  0  0  0  0
 20 16  2  0  0  0  0
 20 18  1  0  0  0  0
 21 22  2  0  0  0  0
 23 24  1  0  0  0  0
 23 17  2  0  0  0  0
 24 21  1  0  0  0  0
 25 17  1  0  0  0  0
 25 27  1  0  0  0  0
 26 27  1  0  0  0  0
 29 30  1  0  0  0  0
 29 28  1  0  0  0  0
 30 34  1  0  0  0  0
 31 33  2  1  0  0  0
 31 32  1  0  0  0  0
 34 36  1  6  0  0  0
 34 35  1  0  0  0  0
 34 31  1  0  0  0  0
 35 37  1  6  0  0  0
 35 31  1  0  0  0  0
 37 39  1  0  0  0  0
 38 37  1  0  0  0  0
 38 39  1  0  0  0  0
M  END
>  <MODEL>
7

>  <REMARK>
 VINA RESULT:      -7.2      4.353      7.961
  Name = 
  11 active torsions:
  status: ('A' for Active; 'I' for Inactive)
    1  A    between atoms: C_3  and  C_11
    2  A    between atoms: C_5  and  C_7
    3  A    between atoms: C_7  and  C_34
    4  A    between atoms: C_10  and  O_26
    5  A    between atoms: C_11  and  C_37
    6  A    between atoms: O_16  and  C_38
    7  A    between atoms: C_22  and  O_26
    8  A    between atoms: C_22  and  C_27
    9  A    between atoms: C_27  and  C_30
   10  A    between atoms: N_31  and  C_32
   11  A    between atoms: C_34  and  C_37
                            x       y       z     vdW  Elec       q    Type
                         _______ _______ _______ _____ _____    ______ ____

>  <TORSDO>
F 11

$$$$
=
 OpenBabel11062417423D

 39 43  0  0  1  0  0  0  0  0999 V2000
  185.7170  178.5350  146.2250 C   0  0  1  0  0  3  0  0  0  0  0  0
  186.7580  177.7280  146.8520 N   0  0  0  0  0  2  0  0  0  0  0  0
  188.5350  177.5960  145.1920 C   0  0  0  0  0  0  0  0  0  0  0  0
  186.6320  178.5970  143.8880 C   0  0  2  0  0  3  0  0  0  0  0  0
  187.8640  177.7470  144.0370 C   0  0  0  0  0  3  0  0  0  0  0  0
  185.4990  178.0990  144.7790 C   0  0  0  0  0  2  0  0  0  0  0  0
  184.4780  178.3720  146.9640 N   0  0  0  0  0  1  0  0  0  0  0  0
  188.0520  178.2720  146.4600 C   0  0  2  0  0  3  0  0  0  0  0  0
  189.0260  178.1380  147.6200 C   0  0  0  0  0  1  0  0  0  0  0  0
  189.7630  176.7330  145.1800 C   0  0  0  0  0  2  0  0  0  0  0  0
  190.6880  178.9050  144.3290 C   0  0  0  0  0  1  0  0  0  0  0  0
  190.9010  177.4030  144.4180 C   0  0  2  0  0  3  0  0  0  0  0  0
  190.5880  175.5700  142.8420 C   0  0  0  0  0  2  0  0  0  0  0  0
  191.0420  176.8060  143.0510 C   0  0  0  0  0  0  0  0  0  0  0  0
  191.4710  177.6580  141.8870 C   0  0  0  0  0  2  0  0  0  0  0  0
  190.5520  177.4930  140.7170 C   0  0  0  0  0  0  0  0  0  0  0  0
  190.1460  176.9340  138.4080 C   0  0  0  0  0  0  0  0  0  0  0  0
  188.3360  177.6310  139.7650 N   0  0  0  0  0  0  0  0  0  0  0  0
  193.4850  176.7610  139.7780 C   0  0  0  0  0  1  0  0  0  0  0  0
  189.1750  177.7710  140.8400 C   0  0  0  0  0  3  0  0  0  0  0  0
  192.0950  176.4230  137.7310 C   0  0  0  0  0  3  0  0  0  0  0  0
  190.8040  176.5290  137.3090 N   0  0  0  0  0  0  0  0  0  0  0  0
  190.9990  177.0670  139.4590 C   0  0  0  0  0  0  0  0  0  0  0  0
  192.2340  176.7370  139.0390 N   0  0  0  0  0  0  0  0  0  0  0  0
  188.7900  177.2210  138.5400 C   0  0  0  0  0  0  0  0  0  0  0  0
  187.6280  178.1830  136.5970 C   0  0  0  0  0  1  0  0  0  0  0  0
  187.9280  177.0900  137.4510 O   0  0  0  0  0  0  0  0  0  0  0  0
  186.2170  178.5690  142.5580 O   0  0  0  0  0  0  0  0  0  0  0  0
  184.8790  178.9740  142.5890 C   0  0  0  0  0  2  0  0  0  0  0  0
  183.9930  177.8730  142.0280 C   0  0  0  0  0  2  0  0  0  0  0  0
  183.7160  179.2720  139.6400 P   0  0  2  0  0  0  0  0  0  0  0  0
  185.3220  179.0350  139.1670 O   0  0  0  0  0  1  0  0  0  0  0  0
  182.8740  180.1480  138.7380 O   0  0  0  0  0  0  0  0  0  0  0  0
  182.9800  178.4090  141.0220 C   0  0  1  0  0  0  0  0  0  0  0  0
  182.9360  177.6330  139.8300 N   0  0  1  0  0  0  0  0  0  0  0  0
  181.6800  179.0280  141.5450 C   0  0  0  0  0  1  0  0  0  0  0  0
  181.6400  177.6640  139.1510 C   0  0  0  0  0  3  0  0  0  0  0  0
  180.9580  176.3170  139.3090 C   0  0  0  0  0  2  0  0  0  0  0  0
  181.6490  176.6660  138.0090 C   0  0  0  0  0  2  0  0  0  0  0  0
  1  2  1  0  0  0  0
  1  7  1  1  0  0  0
  3  8  1  0  0  0  0
  4 28  1  6  0  0  0
  4  5  1  0  0  0  0
  4  6  1  0  0  0  0
  5  3  2  0  0  0  0
  6  1  1  0  0  0  0
  8  2  1  0  0  0  0
  8  9  1  1  0  0  0
 10  3  1  0  0  0  0
 12 11  1  6  0  0  0
 12 10  1  0  0  0  0
 13 14  2  0  0  0  0
 14 12  1  0  0  0  0
 15 14  1  0  0  0  0
 16 20  2  0  0  0  0
 16 15  1  0  0  0  0
 17 25  1  0  0  0  0
 17 23  2  0  0  0  0
 18 20  1  0  0  0  0
 21 24  1  0  0  0  0
 22 21  2  0  0  0  0
 22 17  1  0  0  0  0
 23 16  1  0  0  0  0
 24 23  1  0  0  0  0
 24 19  1  0  0  0  0
 25 18  2  0  0  0  0
 26 27  1  0  0  0  0
 27 25  1  0  0  0  0
 28 29  1  0  0  0  0
 30 29  1  0  0  0  0
 31 33  2  6  0  0  0
 31 35  1  0  0  0  0
 31 34  1  0  0  0  0
 32 31  1  0  0  0  0
 34 36  1  1  0  0  0
 34 30  1  0  0  0  0
 35 37  1  6  0  0  0
 35 34  1  0  0  0  0
 37 38  1  0  0  0  0
 39 37  1  0  0  0  0
 39 38  1  0  0  0  0
M  END
>  <MODEL>
8

>  <REMARK>
 VINA RESULT:      -7.1      2.798      9.119
  Name = 
  11 active torsions:
  status: ('A' for Active; 'I' for Inactive)
    1  A    between atoms: C_3  and  C_11
    2  A    between atoms: C_5  and  C_7
    3  A    between atoms: C_7  and  C_34
    4  A    between atoms: C_10  and  O_26
    5  A    between atoms: C_11  and  C_37
    6  A    between atoms: O_16  and  C_38
    7  A    between atoms: C_22  and  O_26
    8  A    between atoms: C_22  and  C_27
    9  A    between atoms: C_27  and  C_30
   10  A    between atoms: N_31  and  C_32
   11  A    between atoms: C_34  and  C_37
                            x       y       z     vdW  Elec       q    Type
                         _______ _______ _______ _____ _____    ______ ____

>  <TORSDO>
F 11

$$$$
=
 OpenBabel11062417423D

 39 43  0  0  1  0  0  0  0  0999 V2000
  185.5770  178.7230  145.6020 C   0  0  1  0  0  3  0  0  0  0  0  0
  186.3980  177.5460  145.8610 N   0  0  0  0  0  2  0  0  0  0  0  0
  187.5450  177.1060  143.7580 C   0  0  0  0  0  0  0  0  0  0  0  0
  185.8410  178.8370  143.1080 C   0  0  2  0  0  3  0  0  0  0  0  0
  186.7000  177.6280  142.8530 C   0  0  0  0  0  3  0  0  0  0  0  0
  184.8680  178.5970  144.2570 C   0  0  0  0  0  2  0  0  0  0  0  0
  184.5850  178.8540  146.6540 N   0  0  0  0  0  1  0  0  0  0  0  0
  187.6580  177.7050  145.1460 C   0  0  2  0  0  3  0  0  0  0  0  0
  188.7840  177.1010  145.9700 C   0  0  0  0  0  1  0  0  0  0  0  0
  188.3560  175.9100  143.3490 C   0  0  0  0  0  2  0  0  0  0  0  0
  190.8470  176.1220  143.5650 C   0  0  0  0  0  1  0  0  0  0  0  0
  189.6470  176.3300  142.6550 C   0  0  2  0  0  3  0  0  0  0  0  0
  190.1940  178.6900  142.9190 C   0  0  0  0  0  2  0  0  0  0  0  0
  189.5630  177.7570  142.2070 C   0  0  0  0  0  0  0  0  0  0  0  0
  188.9770  178.1020  140.8650 C   0  0  0  0  0  2  0  0  0  0  0  0
  189.8290  177.5900  139.7460 C   0  0  0  0  0  0  0  0  0  0  0  0
  190.1320  176.9300  137.4480 C   0  0  0  0  0  0  0  0  0  0  0  0
  191.9600  176.7820  138.9450 N   0  0  0  0  0  0  0  0  0  0  0  0
  186.9140  178.0860  138.6170 C   0  0  0  0  0  1  0  0  0  0  0  0
  191.1840  177.2630  139.9660 C   0  0  0  0  0  3  0  0  0  0  0  0
  188.1940  177.2560  136.6390 C   0  0  0  0  0  3  0  0  0  0  0  0
  189.4410  176.8260  136.3000 N   0  0  0  0  0  0  0  0  0  0  0  0
  189.3400  177.4060  138.4460 C   0  0  0  0  0  0  0  0  0  0  0  0
  188.1130  177.6220  137.9390 N   0  0  0  0  0  0  0  0  0  0  0  0
  191.4650  176.6020  137.6810 C   0  0  0  0  0  0  0  0  0  0  0  0
  193.5990  175.6820  136.8740 C   0  0  0  0  0  1  0  0  0  0  0  0
  192.2630  176.1050  136.6500 O   0  0  0  0  0  0  0  0  0  0  0  0
  185.1220  179.1380  141.9520 O   0  0  0  0  0  0  0  0  0  0  0  0
  184.2060  178.0910  141.8140 C   0  0  0  0  0  2  0  0  0  0  0  0
  182.8060  178.6520  141.6170 C   0  0  0  0  0  2  0  0  0  0  0  0
  182.7650  179.4460  138.9510 P   0  0  2  0  0  0  0  0  0  0  0  0
  184.1540  180.4020  139.0810 O   0  0  0  0  0  1  0  0  0  0  0  0
  182.0530  179.4760  137.6150 O   0  0  0  0  0  0  0  0  0  0  0  0
  182.2440  178.3200  140.2380 C   0  0  1  0  0  0  0  0  0  0  0  0
  183.2170  177.7310  139.3830 N   0  0  1  0  0  0  0  0  0  0  0  0
  180.7890  177.8520  140.1300 C   0  0  0  0  0  1  0  0  0  0  0  0
  182.6510  176.8410  138.3680 C   0  0  0  0  0  3  0  0  0  0  0  0
  183.1490  175.4270  138.6050 C   0  0  0  0  0  2  0  0  0  0  0  0
  183.7720  176.2750  137.5180 C   0  0  0  0  0  2  0  0  0  0  0  0
  1  2  1  0  0  0  0
  1  7  1  1  0  0  0
  3  8  1  0  0  0  0
  4 28  1  6  0  0  0
  4  6  1  0  0  0  0
  5  4  1  0  0  0  0
  5  3  2  0  0  0  0
  6  1  1  0  0  0  0
  8  2  1  0  0  0  0
  8  9  1  1  0  0  0
 10  3  1  0  0  0  0
 12 10  1  0  0  0  0
 12 11  1  1  0  0  0
 14 12  1  0  0  0  0
 14 13  2  0  0  0  0
 15 14  1  0  0  0  0
 16 20  2  0  0  0  0
 16 15  1  0  0  0  0
 17 25  1  0  0  0  0
 17 23  2  0  0  0  0
 18 20  1  0  0  0  0
 21 24  1  0  0  0  0
 22 21  2  0  0  0  0
 22 17  1  0  0  0  0
 23 16  1  0  0  0  0
 24 23  1  0  0  0  0
 24 19  1  0  0  0  0
 25 18  2  0  0  0  0
 27 26  1  0  0  0  0
 27 25  1  0  0  0  0
 29 28  1  0  0  0  0
 30 29  1  0  0  0  0
 31 33  2  6  0  0  0
 31 32  1  0  0  0  0
 31 35  1  0  0  0  0
 31 34  1  0  0  0  0
 34 36  1  6  0  0  0
 34 30  1  0  0  0  0
 35 37  1  6  0  0  0
 35 34  1  0  0  0  0
 37 38  1  0  0  0  0
 39 37  1  0  0  0  0
 39 38  1  0  0  0  0
M  END
>  <MODEL>
9

>  <REMARK>
 VINA RESULT:      -7.1      2.945      8.750
  Name = 
  11 active torsions:
  status: ('A' for Active; 'I' for Inactive)
    1  A    between atoms: C_3  and  C_11
    2  A    between atoms: C_5  and  C_7
    3  A    between atoms: C_7  and  C_34
    4  A    between atoms: C_10  and  O_26
    5  A    between atoms: C_11  and  C_37
    6  A    between atoms: O_16  and  C_38
    7  A    between atoms: C_22  and  O_26
    8  A    between atoms: C_22  and  C_27
    9  A    between atoms: C_27  and  C_30
   10  A    between atoms: N_31  and  C_32
   11  A    between atoms: C_34  and  C_37
                            x       y       z     vdW  Elec       q    Type
                         _______ _______ _______ _____ _____    ______ ____

>  <TORSDO>
F 11

$$$$
