=
 OpenBabel11062412353D

 51 57  0  0  1  0  0  0  0  0999 V2000
  190.4390  176.1200  140.2400 O   0  0  0  0  0  1  0  0  0  0  0  0
  191.0500  177.7550  138.2980 O   0  0  0  0  0  0  0  0  0  0  0  0
  190.2970  174.7840  135.4140 C   0  0  0  0  0  2  0  0  0  0  0  0
  191.3980  175.1200  137.7410 C   0  0  1  0  0  3  0  0  0  0  0  0
  190.4190  176.4090  138.5740 P   0  0  1  0  0  0  0  0  0  0  0  0
  188.6870  176.4230  137.9950 C   0  0  2  0  0  3  0  0  0  0  0  0
  188.6250  176.3770  136.4530 C   0  0  1  0  0  3  0  0  0  0  0  0
  188.9230  174.9340  136.0570 C   0  0  0  0  0  2  0  0  0  0  0  0
  187.9670  177.6010  138.6340 C   0  0  0  0  0  1  0  0  0  0  0  0
  190.9010  173.8620  138.0350 F   0  0  0  0  0  0  0  0  0  0  0  0
  191.4490  175.3810  136.2310 C   0  0  1  0  0  3  0  0  0  0  0  0
  187.2910  176.9100  135.8540 C   0  0  1  0  0  3  0  0  0  0  0  0
  187.6010  177.7160  134.5940 C   0  0  0  0  0  1  0  0  0  0  0  0
  184.1560  176.5150  136.7390 C   0  0  2  0  0  0  0  0  0  0  0  0
  185.2640  176.3990  134.6200 O   0  0  0  0  0  0  0  0  0  0  0  0
  186.8070  174.6170  134.9320 C   0  0  0  0  0  1  0  0  0  0  0  0
  186.1730  175.8640  135.5550 C   0  0  1  0  0  0  0  0  0  0  0  0
  183.9490  173.9980  137.9340 O   0  0  0  0  0  0  0  0  0  0  0  0
  185.3540  175.5670  136.8280 C   0  0  2  0  0  3  0  0  0  0  0  0
  182.7490  175.8410  136.7940 C   0  0  1  0  0  3  0  0  0  0  0  0
  184.9150  174.1040  136.9360 C   0  0  0  0  0  2  0  0  0  0  0  0
  184.2930  177.1090  135.3500 C   0  0  0  0  0  2  0  0  0  0  0  0
  182.7340  174.3930  137.3430 C   0  0  2  0  0  3  0  0  0  0  0  0
  182.0890  175.5190  138.1460 C   0  0  1  0  0  0  0  0  0  0  0  0
  182.7650  175.8400  139.4800 C   0  0  0  0  0  1  0  0  0  0  0  0
  180.0690  175.0570  139.4080 O   0  0  0  0  0  0  0  0  0  0  0  0
  179.7640  176.3590  138.9590 C   0  0  0  0  0  2  0  0  0  0  0  0
  180.5670  175.4220  138.1450 C   0  0  1  0  0  0  0  0  0  0  0  0
  179.9220  174.7300  137.1370 F   0  0  0  0  0  0  0  0  0  0  0  0
  184.2570  177.6580  137.7590 C   0  0  0  0  0  2  0  0  0  0  0  0
  183.1490  178.5080  137.7140 O   0  0  0  0  0  1  0  0  0  0  0  0
  192.8010  175.0240  135.6100 C   0  0  2  0  0  3  0  0  0  0  0  0
  193.6180  176.2500  135.1250 C   0  0  2  0  0  3  0  0  0  0  0  0
  195.0690  176.2300  135.4940 C   0  0  1  0  0  3  0  0  0  0  0  0
  194.1260  176.9830  136.2180 O   0  0  0  0  0  0  0  0  0  0  0  0
  195.5220  175.0400  136.3420 C   0  0  1  0  0  3  0  0  0  0  0  0
  197.0260  174.7880  136.1980 C   0  0  2  0  0  3  0  0  0  0  0  0
  197.7100  176.0050  136.2220 O   0  0  0  0  0  1  0  0  0  0  0  0
  197.3920  174.0270  134.9250 C   0  0  0  0  0  2  0  0  0  0  0  0
  198.1170  172.8410  135.2280 O   0  0  0  0  0  0  0  0  0  0  0  0
  198.3970  171.5740  137.2540 O   0  0  0  0  0  1  0  0  0  0  0  0
  196.5480  171.2940  135.9310 O   0  0  0  0  0  0  0  0  0  0  0  0
  197.6480  171.8810  136.1260 C   0  0  0  0  0  0  0  0  0  0  0  0
  195.1460  175.2340  137.7380 N   0  0  0  0  0  2  0  0  0  0  0  0
  195.1010  173.9200  138.3640 C   0  0  0  0  0  2  0  0  0  0  0  0
  195.8180  173.9300  139.5900 O   0  0  0  0  0  0  0  0  0  0  0  0
  196.7790  174.8750  139.8270 C   0  0  0  0  0  0  0  0  0  0  0  0
  197.5930  175.6740  140.0300 N   0  0  0  0  0  0  0  0  0  0  0  0
  193.7810  172.8890  134.5940 C   0  0  0  0  0  2  0  0  0  0  0  0
  192.6260  173.8750  134.5970 C   0  0  0  0  0  3  0  0  0  0  0  0
  192.4780  172.5300  135.2840 C   0  0  0  0  0  2  0  0  0  0  0  0
  3  8  1  0  0  0  0
  3 11  1  0  0  0  0
  4 10  1  6  0  0  0
  4  5  1  0  0  0  0
  5  2  2  6  0  0  0
  5  1  1  0  0  0  0
  6  5  1  0  0  0  0
  6  9  1  6  0  0  0
  7 12  1  1  0  0  0
  7  6  1  0  0  0  0
  8  7  1  0  0  0  0
 11 32  1  6  0  0  0
 11  4  1  0  0  0  0
 12 13  1  6  0  0  0
 14 20  1  0  0  0  0
 14 19  1  0  0  0  0
 14 30  1  1  0  0  0
 15 22  1  0  0  0  0
 15 17  1  0  0  0  0
 17 16  1  6  0  0  0
 17 12  1  0  0  0  0
 17 19  1  0  0  0  0
 19 21  1  6  0  0  0
 20 23  1  0  0  0  0
 20 24  1  0  0  0  0
 21 18  1  0  0  0  0
 22 14  1  0  0  0  0
 23 18  1  0  0  0  0
 23 24  1  0  0  0  0
 24 25  1  0  0  0  0
 27 26  1  0  0  0  0
 28 24  1  0  0  0  0
 28 27  1  0  0  0  0
 28 26  1  0  0  0  0
 29 28  1  0  0  0  0
 31 30  1  0  0  0  0
 33 34  1  0  0  0  0
 33 32  1  0  0  0  0
 33 35  1  0  0  0  0
 34 35  1  0  0  0  0
 34 36  1  0  0  0  0
 36 44  1  0  0  0  0
 37 38  1  0  0  0  0
 37 36  1  0  0  0  0
 39 40  1  0  0  0  0
 39 37  1  0  0  0  0
 40 43  1  0  0  0  0
 42 43  2  0  0  0  0
 43 41  1  0  0  0  0
 44 45  1  0  0  0  0
 45 46  1  0  0  0  0
 46 47  1  0  0  0  0
 47 48  3  0  0  0  0
 49 50  1  0  0  0  0
 49 51  1  0  0  0  0
 50 51  1  0  0  0  0
 50 32  1  0  0  0  0
M  END
>  <MODEL>
1

>  <REMARK>
 VINA RESULT:      -5.1      0.000      0.000
  Name = 
  16 active torsions:
  status: ('A' for Active; 'I' for Inactive)
    1  A    between atoms: C_1  and  C_15
    2  A    between atoms: C_2  and  C_7
    3  A    between atoms: C_4  and  O_34
    4  A    between atoms: C_8  and  C_23
    5  A    between atoms: C_11  and  O_34
    6  A    between atoms: C_11  and  N_38
    7  A    between atoms: C_15  and  C_28
    8  A    between atoms: C_15  and  C_43
    9  A    between atoms: C_18  and  C_23
   10  A    between atoms: C_18  and  C_47
   11  A    between atoms: C_19  and  C_27
   12  A    between atoms: C_21  and  C_50
   13  A    between atoms: C_23  and  N_38
   14  A    between atoms: C_27  and  C_29
   15  A    between atoms: O_35  and  C_36
   16  A    between atoms: O_35  and  C_47
                            x       y       z     vdW  Elec       q    Type
                         _______ _______ _______ _____ _____    ______ ____

>  <TORSDO>
F 16

$$$$
=
 OpenBabel11062412353D

 51 57  0  0  1  0  0  0  0  0999 V2000
  191.7600  175.5730  135.7040 O   0  0  0  0  0  0  0  0  0  0  0  0
  190.5100  174.0470  137.4140 O   0  0  0  0  0  1  0  0  0  0  0  0
  187.6080  177.0150  138.1080 C   0  0  0  0  0  2  0  0  0  0  0  0
  190.1670  176.7150  137.7830 C   0  0  1  0  0  3  0  0  0  0  0  0
  190.3620  175.3260  136.6220 P   0  0  1  0  0  0  0  0  0  0  0  0
  188.9320  175.1790  135.4970 C   0  0  2  0  0  3  0  0  0  0  0  0
  187.6050  175.2590  136.2830 C   0  0  1  0  0  3  0  0  0  0  0  0
  187.4000  176.7310  136.6250 C   0  0  0  0  0  2  0  0  0  0  0  0
  189.1030  173.9280  134.6490 C   0  0  0  0  0  1  0  0  0  0  0  0
  190.1080  177.9180  137.1010 F   0  0  0  0  0  0  0  0  0  0  0  0
  188.9360  176.4970  138.6730 C   0  0  1  0  0  3  0  0  0  0  0  0
  186.3890  174.6280  135.5450 C   0  0  1  0  0  3  0  0  0  0  0  0
  186.8620  173.4010  134.7680 C   0  0  0  0  0  1  0  0  0  0  0  0
  183.3040  175.7230  135.7770 C   0  0  2  0  0  0  0  0  0  0  0  0
  184.2300  173.5200  135.6280 O   0  0  0  0  0  0  0  0  0  0  0  0
  185.5800  173.3860  137.5810 C   0  0  0  0  0  1  0  0  0  0  0  0
  185.1400  174.2650  136.4070 C   0  0  1  0  0  0  0  0  0  0  0  0
  182.9030  176.4960  138.4320 O   0  0  0  0  0  0  0  0  0  0  0  0
  184.3900  175.5410  136.8400 C   0  0  2  0  0  3  0  0  0  0  0  0
  181.8380  175.7950  136.3080 C   0  0  1  0  0  3  0  0  0  0  0  0
  183.7970  175.4440  138.2490 C   0  0  0  0  0  2  0  0  0  0  0  0
  183.4030  174.4460  134.9660 C   0  0  0  0  0  2  0  0  0  0  0  0
  181.7000  176.0950  137.8220 C   0  0  2  0  0  3  0  0  0  0  0  0
  181.2480  177.1310  136.7950 C   0  0  1  0  0  0  0  0  0  0  0  0
  182.0540  178.4310  136.7820 C   0  0  0  0  0  1  0  0  0  0  0  0
  179.1460  177.0630  138.0050 O   0  0  0  0  0  0  0  0  0  0  0  0
  179.0490  178.3570  137.4530 C   0  0  0  0  0  2  0  0  0  0  0  0
  179.7290  177.2550  136.7400 C   0  0  1  0  0  0  0  0  0  0  0  0
  179.0190  176.5890  135.7590 F   0  0  0  0  0  0  0  0  0  0  0  0
  183.6100  176.9050  134.8470 C   0  0  0  0  0  2  0  0  0  0  0  0
  184.8740  177.4490  135.0800 O   0  0  0  0  0  1  0  0  0  0  0  0
  189.1460  176.9850  140.1080 C   0  0  2  0  0  3  0  0  0  0  0  0
  188.8450  178.4920  140.3140 C   0  0  2  0  0  3  0  0  0  0  0  0
  187.9560  178.8060  141.4780 C   0  0  1  0  0  3  0  0  0  0  0  0
  187.4690  178.7570  140.1580 O   0  0  0  0  0  0  0  0  0  0  0  0
  187.4280  177.5980  142.2540 C   0  0  1  0  0  3  0  0  0  0  0  0
  188.4310  177.1300  143.3140 C   0  0  2  0  0  3  0  0  0  0  0  0
  188.4640  175.7360  143.3460 O   0  0  0  0  0  1  0  0  0  0  0  0
  188.1230  177.6610  144.7130 C   0  0  0  0  0  2  0  0  0  0  0  0
  188.7440  176.8620  145.7130 O   0  0  0  0  0  0  0  0  0  0  0  0
  187.7830  177.5160  147.8190 O   0  0  0  0  0  1  0  0  0  0  0  0
  190.0520  177.4840  147.5160 O   0  0  0  0  0  0  0  0  0  0  0  0
  188.9030  177.2960  147.0300 C   0  0  0  0  0  0  0  0  0  0  0  0
  186.1290  177.8990  142.8470 N   0  0  0  0  0  2  0  0  0  0  0  0
  185.5520  179.0040  142.0950 C   0  0  0  0  0  2  0  0  0  0  0  0
  184.5640  179.6680  142.8690 O   0  0  0  0  0  0  0  0  0  0  0  0
  184.4070  179.3760  144.1970 C   0  0  0  0  0  0  0  0  0  0  0  0
  184.2760  179.1320  145.3220 N   0  0  0  0  0  0  0  0  0  0  0  0
  191.6650  177.3990  140.3050 C   0  0  0  0  0  2  0  0  0  0  0  0
  190.5020  176.4790  140.6400 C   0  0  0  0  0  3  0  0  0  0  0  0
  191.0740  177.3990  141.7030 C   0  0  0  0  0  2  0  0  0  0  0  0
  3 11  1  0  0  0  0
  4 10  1  6  0  0  0
  4 11  1  0  0  0  0
  5  1  2  6  0  0  0
  5  2  1  0  0  0  0
  5  4  1  0  0  0  0
  6  9  1  1  0  0  0
  6  7  1  0  0  0  0
  6  5  1  0  0  0  0
  7 12  1  6  0  0  0
  7  8  1  0  0  0  0
  8  3  1  0  0  0  0
 11 32  1  1  0  0  0
 12 13  1  1  0  0  0
 12 17  1  0  0  0  0
 14 30  1  6  0  0  0
 14 20  1  0  0  0  0
 14 19  1  0  0  0  0
 15 17  1  0  0  0  0
 17 19  1  0  0  0  0
 17 16  1  1  0  0  0
 19 21  1  1  0  0  0
 20 24  1  0  0  0  0
 20 23  1  0  0  0  0
 21 18  1  0  0  0  0
 22 15  1  0  0  0  0
 22 14  1  0  0  0  0
 23 18  1  0  0  0  0
 24 23  1  0  0  0  0
 25 24  1  0  0  0  0
 27 26  1  0  0  0  0
 28 24  1  0  0  0  0
 28 27  1  0  0  0  0
 28 26  1  0  0  0  0
 29 28  1  0  0  0  0
 30 31  1  0  0  0  0
 32 33  1  0  0  0  0
 32 50  1  0  0  0  0
 33 34  1  0  0  0  0
 34 36  1  0  0  0  0
 35 33  1  0  0  0  0
 35 34  1  0  0  0  0
 36 44  1  0  0  0  0
 36 37  1  0  0  0  0
 37 38  1  0  0  0  0
 37 39  1  0  0  0  0
 39 40  1  0  0  0  0
 40 43  1  0  0  0  0
 43 42  2  0  0  0  0
 43 41  1  0  0  0  0
 45 44  1  0  0  0  0
 45 46  1  0  0  0  0
 46 47  1  0  0  0  0
 47 48  3  0  0  0  0
 49 50  1  0  0  0  0
 49 51  1  0  0  0  0
 50 51  1  0  0  0  0
M  END
>  <MODEL>
2

>  <REMARK>
 VINA RESULT:      -4.5      4.452      7.690
  Name = 
  16 active torsions:
  status: ('A' for Active; 'I' for Inactive)
    1  A    between atoms: C_1  and  C_15
    2  A    between atoms: C_2  and  C_7
    3  A    between atoms: C_4  and  O_34
    4  A    between atoms: C_8  and  C_23
    5  A    between atoms: C_11  and  O_34
    6  A    between atoms: C_11  and  N_38
    7  A    between atoms: C_15  and  C_28
    8  A    between atoms: C_15  and  C_43
    9  A    between atoms: C_18  and  C_23
   10  A    between atoms: C_18  and  C_47
   11  A    between atoms: C_19  and  C_27
   12  A    between atoms: C_21  and  C_50
   13  A    between atoms: C_23  and  N_38
   14  A    between atoms: C_27  and  C_29
   15  A    between atoms: O_35  and  C_36
   16  A    between atoms: O_35  and  C_47
                            x       y       z     vdW  Elec       q    Type
                         _______ _______ _______ _____ _____    ______ ____

>  <TORSDO>
F 16

$$$$
=
 OpenBabel11062412353D

 51 57  0  0  1  0  0  0  0  0999 V2000
  192.0820  177.5240  139.8540 O   0  0  0  0  0  0  0  0  0  0  0  0
  190.3110  175.6720  140.3530 O   0  0  0  0  0  1  0  0  0  0  0  0
  187.1570  178.2510  139.2970 C   0  0  0  0  0  2  0  0  0  0  0  0
  189.4110  178.2230  140.5870 C   0  0  1  0  0  3  0  0  0  0  0  0
  190.4710  177.0310  139.7100 P   0  0  1  0  0  0  0  0  0  0  0  0
  190.0410  176.9180  137.9390 C   0  0  2  0  0  3  0  0  0  0  0  0
  188.5160  176.7720  137.7540 C   0  0  1  0  0  3  0  0  0  0  0  0
  187.9230  178.1600  137.9830 C   0  0  0  0  0  2  0  0  0  0  0  0
  190.8750  175.8160  137.3020 C   0  0  0  0  0  1  0  0  0  0  0  0
  189.5880  179.4990  140.0820 F   0  0  0  0  0  0  0  0  0  0  0  0
  187.9440  177.7780  140.5250 C   0  0  1  0  0  3  0  0  0  0  0  0
  188.0970  176.1470  136.3910 C   0  0  1  0  0  3  0  0  0  0  0  0
  189.1930  176.4190  135.3630 C   0  0  0  0  0  1  0  0  0  0  0  0
  185.3690  174.4090  135.8380 C   0  0  2  0  0  0  0  0  0  0  0  0
  187.6190  174.1790  135.0530 O   0  0  0  0  0  0  0  0  0  0  0  0
  188.8430  173.8380  137.0640 C   0  0  0  0  0  1  0  0  0  0  0  0
  187.7240  174.6330  136.3850 C   0  0  1  0  0  0  0  0  0  0  0  0
  184.9070  172.8570  138.1150 O   0  0  0  0  0  0  0  0  0  0  0  0
  186.3380  174.4120  137.0230 C   0  0  2  0  0  3  0  0  0  0  0  0
  184.4780  173.1360  135.6910 C   0  0  1  0  0  3  0  0  0  0  0  0
  186.2460  173.1180  137.8370 C   0  0  0  0  0  2  0  0  0  0  0  0
  186.2970  174.4230  134.6390 C   0  0  0  0  0  2  0  0  0  0  0  0
  184.3790  172.2520  136.9590 C   0  0  2  0  0  3  0  0  0  0  0  0
  183.1530  173.0160  136.4650 C   0  0  1  0  0  0  0  0  0  0  0  0
  182.6520  174.1190  137.3990 C   0  0  0  0  0  1  0  0  0  0  0  0
  180.8030  172.4560  136.2460 O   0  0  0  0  0  0  0  0  0  0  0  0
  181.1290  172.6060  134.8820 C   0  0  0  0  0  2  0  0  0  0  0  0
  182.1050  172.0860  135.8630 C   0  0  1  0  0  0  0  0  0  0  0  0
  182.2750  170.7160  135.9380 F   0  0  0  0  0  0  0  0  0  0  0  0
  184.5150  175.6850  135.7960 C   0  0  0  0  0  2  0  0  0  0  0  0
  183.8160  175.8150  134.5950 O   0  0  0  0  0  1  0  0  0  0  0  0
  187.1760  178.0770  141.8140 C   0  0  2  0  0  3  0  0  0  0  0  0
  186.6980  179.5470  141.9380 C   0  0  2  0  0  3  0  0  0  0  0  0
  185.2480  179.7150  142.2750 C   0  0  1  0  0  3  0  0  0  0  0  0
  185.7290  179.8470  140.9590 O   0  0  0  0  0  0  0  0  0  0  0  0
  184.4400  178.4210  142.3890 C   0  0  1  0  0  3  0  0  0  0  0  0
  183.8610  178.2440  143.7960 C   0  0  2  0  0  3  0  0  0  0  0  0
  182.4910  178.5100  143.7770 O   0  0  0  0  0  1  0  0  0  0  0  0
  184.5340  179.1300  144.8420 C   0  0  0  0  0  2  0  0  0  0  0  0
  184.7390  178.4220  146.0590 O   0  0  0  0  0  0  0  0  0  0  0  0
  186.4840  177.8500  147.6140 O   0  0  0  0  0  1  0  0  0  0  0  0
  185.8420  180.0270  147.3070 O   0  0  0  0  0  0  0  0  0  0  0  0
  185.6900  178.8120  147.0050 C   0  0  0  0  0  0  0  0  0  0  0  0
  183.3930  178.3810  141.3740 N   0  0  0  0  0  2  0  0  0  0  0  0
  183.4920  177.0960  140.6960 C   0  0  0  0  0  2  0  0  0  0  0  0
  182.5440  177.0180  139.6420 O   0  0  0  0  0  0  0  0  0  0  0  0
  181.2010  177.0320  139.9100 C   0  0  0  0  0  0  0  0  0  0  0  0
  180.0650  177.0460  140.1340 N   0  0  0  0  0  0  0  0  0  0  0  0
  187.0330  176.8740  144.0690 C   0  0  0  0  0  2  0  0  0  0  0  0
  187.9400  177.5020  143.0240 C   0  0  0  0  0  3  0  0  0  0  0  0
  187.8110  175.9920  143.1110 C   0  0  0  0  0  2  0  0  0  0  0  0
  3 11  1  0  0  0  0
  4 10  1  6  0  0  0
  5  1  2  1  0  0  0
  5  2  1  0  0  0  0
  5  4  1  0  0  0  0
  6  9  1  1  0  0  0
  6  5  1  0  0  0  0
  7 12  1  6  0  0  0
  7  6  1  0  0  0  0
  7  8  1  0  0  0  0
  8  3  1  0  0  0  0
 11  4  1  0  0  0  0
 11 32  1  1  0  0  0
 12 13  1  6  0  0  0
 14 30  1  1  0  0  0
 14 19  1  0  0  0  0
 15 17  1  0  0  0  0
 17 12  1  0  0  0  0
 17 19  1  0  0  0  0
 17 16  1  1  0  0  0
 19 21  1  6  0  0  0
 20 14  1  0  0  0  0
 20 24  1  0  0  0  0
 20 23  1  0  0  0  0
 21 18  1  0  0  0  0
 22 15  1  0  0  0  0
 22 14  1  0  0  0  0
 23 18  1  0  0  0  0
 24 23  1  0  0  0  0
 24 25  1  0  0  0  0
 27 28  1  0  0  0  0
 27 26  1  0  0  0  0
 28 29  1  0  0  0  0
 28 26  1  0  0  0  0
 28 24  1  0  0  0  0
 31 30  1  0  0  0  0
 32 33  1  0  0  0  0
 32 50  1  0  0  0  0
 33 34  1  0  0  0  0
 34 36  1  0  0  0  0
 35 33  1  0  0  0  0
 35 34  1  0  0  0  0
 36 37  1  0  0  0  0
 37 39  1  0  0  0  0
 38 37  1  0  0  0  0
 39 40  1  0  0  0  0
 40 43  1  0  0  0  0
 43 42  2  0  0  0  0
 43 41  1  0  0  0  0
 44 36  1  0  0  0  0
 45 44  1  0  0  0  0
 46 47  1  0  0  0  0
 46 45  1  0  0  0  0
 47 48  3  0  0  0  0
 50 51  1  0  0  0  0
 50 49  1  0  0  0  0
 51 49  1  0  0  0  0
M  END
>  <MODEL>
3

>  <REMARK>
 VINA RESULT:      -4.3      4.808      9.375
  Name = 
  16 active torsions:
  status: ('A' for Active; 'I' for Inactive)
    1  A    between atoms: C_1  and  C_15
    2  A    between atoms: C_2  and  C_7
    3  A    between atoms: C_4  and  O_34
    4  A    between atoms: C_8  and  C_23
    5  A    between atoms: C_11  and  O_34
    6  A    between atoms: C_11  and  N_38
    7  A    between atoms: C_15  and  C_28
    8  A    between atoms: C_15  and  C_43
    9  A    between atoms: C_18  and  C_23
   10  A    between atoms: C_18  and  C_47
   11  A    between atoms: C_19  and  C_27
   12  A    between atoms: C_21  and  C_50
   13  A    between atoms: C_23  and  N_38
   14  A    between atoms: C_27  and  C_29
   15  A    between atoms: O_35  and  C_36
   16  A    between atoms: O_35  and  C_47
                            x       y       z     vdW  Elec       q    Type
                         _______ _______ _______ _____ _____    ______ ____

>  <TORSDO>
F 16

$$$$
=
 OpenBabel11062412353D

 51 57  0  0  1  0  0  0  0  0999 V2000
  189.1960  179.3820  138.7030 O   0  0  0  0  0  0  0  0  0  0  0  0
  188.2440  177.0610  139.4300 O   0  0  0  0  0  1  0  0  0  0  0  0
  187.6670  175.9210  135.4190 C   0  0  0  0  0  2  0  0  0  0  0  0
  187.3890  177.9540  137.0120 C   0  0  1  0  0  3  0  0  0  0  0  0
  188.7420  177.8250  138.2230 P   0  0  1  0  0  0  0  0  0  0  0  0
  190.1970  176.9720  137.5250 C   0  0  2  0  0  3  0  0  0  0  0  0
  189.7760  175.6760  136.7990 C   0  0  1  0  0  3  0  0  0  0  0  0
  189.1780  176.1100  135.4640 C   0  0  0  0  0  2  0  0  0  0  0  0
  191.2310  176.7870  138.6250 C   0  0  0  0  0  1  0  0  0  0  0  0
  187.7780  178.7170  135.9240 F   0  0  0  0  0  0  0  0  0  0  0  0
  186.9130  176.5570  136.5940 C   0  0  1  0  0  3  0  0  0  0  0  0
  190.9210  174.6320  136.6440 C   0  0  1  0  0  3  0  0  0  0  0  0
  190.3070  173.2620  136.3660 C   0  0  0  0  0  1  0  0  0  0  0  0
  194.1360  174.0250  136.3890 C   0  0  2  0  0  0  0  0  0  0  0  0
  192.3160  173.7770  134.8520 O   0  0  0  0  0  0  0  0  0  0  0  0
  191.5190  176.0050  134.6190 C   0  0  0  0  0  1  0  0  0  0  0  0
  192.0320  174.9420  135.5940 C   0  0  1  0  0  0  0  0  0  0  0  0
  195.4160  176.4890  136.0810 O   0  0  0  0  0  0  0  0  0  0  0  0
  193.3480  175.3350  136.2960 C   0  0  2  0  0  3  0  0  0  0  0  0
  195.5570  174.0390  135.7430 C   0  0  1  0  0  3  0  0  0  0  0  0
  194.1310  176.4180  135.5500 C   0  0  0  0  0  2  0  0  0  0  0  0
  193.2990  173.0660  135.5640 C   0  0  0  0  0  2  0  0  0  0  0  0
  196.1450  175.4470  135.4780 C   0  0  2  0  0  3  0  0  0  0  0  0
  196.7710  174.5460  136.5390 C   0  0  1  0  0  0  0  0  0  0  0  0
  196.6500  175.0520  137.9780 C   0  0  0  0  0  1  0  0  0  0  0  0
  199.1800  174.6170  136.8190 O   0  0  0  0  0  0  0  0  0  0  0  0
  198.9640  173.2440  137.0540 C   0  0  0  0  0  2  0  0  0  0  0  0
  198.1320  174.0110  136.1040 C   0  0  1  0  0  0  0  0  0  0  0  0
  198.4360  173.9160  134.7600 F   0  0  0  0  0  0  0  0  0  0  0  0
  194.1910  173.4940  137.8280 C   0  0  0  0  0  2  0  0  0  0  0  0
  194.5350  172.1410  137.8800 O   0  0  0  0  0  1  0  0  0  0  0  0
  185.4000  176.4850  136.3750 C   0  0  2  0  0  3  0  0  0  0  0  0
  184.7200  175.2720  137.0620 C   0  0  2  0  0  3  0  0  0  0  0  0
  183.6630  175.6230  138.0640 C   0  0  1  0  0  3  0  0  0  0  0  0
  184.9700  175.2710  138.4490 O   0  0  0  0  0  0  0  0  0  0  0  0
  183.4510  177.1180  138.3090 C   0  0  1  0  0  3  0  0  0  0  0  0
  181.9610  177.4730  138.3510 C   0  0  2  0  0  3  0  0  0  0  0  0
  181.7740  178.7690  137.8680 O   0  0  0  0  0  1  0  0  0  0  0  0
  181.3530  177.3600  139.7470 C   0  0  0  0  0  2  0  0  0  0  0  0
  179.9950  177.7850  139.7500 O   0  0  0  0  0  0  0  0  0  0  0  0
  178.9310  179.0020  141.5330 O   0  0  0  0  0  1  0  0  0  0  0  0
  179.8170  180.0910  139.7230 O   0  0  0  0  0  0  0  0  0  0  0  0
  179.5880  178.9980  140.3100 C   0  0  0  0  0  0  0  0  0  0  0  0
  184.1330  177.5390  139.5270 N   0  0  0  0  0  2  0  0  0  0  0  0
  184.9050  178.7310  139.2050 C   0  0  0  0  0  2  0  0  0  0  0  0
  185.0510  179.5520  140.3540 O   0  0  0  0  0  0  0  0  0  0  0  0
  185.4580  179.0160  141.5460 C   0  0  0  0  0  0  0  0  0  0  0  0
  185.8020  178.5650  142.5560 N   0  0  0  0  0  0  0  0  0  0  0  0
  183.5930  176.8820  134.6060 C   0  0  0  0  0  2  0  0  0  0  0  0
  185.0760  176.6970  134.8830 C   0  0  0  0  0  3  0  0  0  0  0  0
  184.5200  178.0840  134.6140 C   0  0  0  0  0  2  0  0  0  0  0  0
  3  8  1  0  0  0  0
  3 11  1  0  0  0  0
  4 10  1  6  0  0  0
  4  5  1  0  0  0  0
  5  1  2  1  0  0  0
  5  2  1  0  0  0  0
  6  5  1  0  0  0  0
  6  9  1  1  0  0  0
  7 12  1  6  0  0  0
  7  6  1  0  0  0  0
  8  7  1  0  0  0  0
 11 32  1  6  0  0  0
 11  4  1  0  0  0  0
 12 13  1  6  0  0  0
 14 30  1  1  0  0  0
 15 22  1  0  0  0  0
 15 17  1  0  0  0  0
 17 16  1  6  0  0  0
 17 19  1  0  0  0  0
 17 12  1  0  0  0  0
 19 21  1  6  0  0  0
 19 14  1  0  0  0  0
 20 14  1  0  0  0  0
 20 24  1  0  0  0  0
 21 18  1  0  0  0  0
 22 14  1  0  0  0  0
 23 20  1  0  0  0  0
 23 18  1  0  0  0  0
 23 24  1  0  0  0  0
 24 25  1  0  0  0  0
 26 27  1  0  0  0  0
 28 24  1  0  0  0  0
 28 26  1  0  0  0  0
 28 27  1  0  0  0  0
 29 28  1  0  0  0  0
 30 31  1  0  0  0  0
 32 33  1  0  0  0  0
 33 34  1  0  0  0  0
 33 35  1  0  0  0  0
 34 36  1  0  0  0  0
 34 35  1  0  0  0  0
 36 37  1  0  0  0  0
 36 44  1  0  0  0  0
 37 39  1  0  0  0  0
 38 37  1  0  0  0  0
 39 40  1  0  0  0  0
 40 43  1  0  0  0  0
 42 43  2  0  0  0  0
 43 41  1  0  0  0  0
 45 44  1  0  0  0  0
 45 46  1  0  0  0  0
 46 47  1  0  0  0  0
 47 48  3  0  0  0  0
 49 51  1  0  0  0  0
 49 50  1  0  0  0  0
 50 32  1  0  0  0  0
 51 50  1  0  0  0  0
M  END
>  <MODEL>
4

>  <REMARK>
 VINA RESULT:      -4.0      3.297     11.862
  Name = 
  16 active torsions:
  status: ('A' for Active; 'I' for Inactive)
    1  A    between atoms: C_1  and  C_15
    2  A    between atoms: C_2  and  C_7
    3  A    between atoms: C_4  and  O_34
    4  A    between atoms: C_8  and  C_23
    5  A    between atoms: C_11  and  O_34
    6  A    between atoms: C_11  and  N_38
    7  A    between atoms: C_15  and  C_28
    8  A    between atoms: C_15  and  C_43
    9  A    between atoms: C_18  and  C_23
   10  A    between atoms: C_18  and  C_47
   11  A    between atoms: C_19  and  C_27
   12  A    between atoms: C_21  and  C_50
   13  A    between atoms: C_23  and  N_38
   14  A    between atoms: C_27  and  C_29
   15  A    between atoms: O_35  and  C_36
   16  A    between atoms: O_35  and  C_47
                            x       y       z     vdW  Elec       q    Type
                         _______ _______ _______ _____ _____    ______ ____

>  <TORSDO>
F 16

$$$$
=
 OpenBabel11062412353D

 51 57  0  0  1  0  0  0  0  0999 V2000
  189.1150  179.3940  138.6470 O   0  0  0  0  0  0  0  0  0  0  0  0
  188.1960  177.0590  139.3690 O   0  0  0  0  0  1  0  0  0  0  0  0
  187.5460  175.9550  135.3600 C   0  0  0  0  0  2  0  0  0  0  0  0
  187.2860  177.9690  136.9780 C   0  0  1  0  0  3  0  0  0  0  0  0
  188.6640  177.8390  138.1600 P   0  0  1  0  0  0  0  0  0  0  0  0
  190.1110  177.0040  137.4240 C   0  0  2  0  0  3  0  0  0  0  0  0
  189.6850  175.7120  136.6940 C   0  0  1  0  0  3  0  0  0  0  0  0
  189.0570  176.1540  135.3760 C   0  0  0  0  0  2  0  0  0  0  0  0
  191.1680  176.8160  138.5020 C   0  0  0  0  0  1  0  0  0  0  0  0
  187.6470  178.7460  135.8900 F   0  0  0  0  0  0  0  0  0  0  0  0
  186.8120  176.5730  136.5550 C   0  0  1  0  0  3  0  0  0  0  0  0
  190.8340  174.6790  136.5060 C   0  0  1  0  0  3  0  0  0  0  0  0
  190.2270  173.3180  136.1710 C   0  0  0  0  0  1  0  0  0  0  0  0
  193.9930  173.8810  136.1080 C   0  0  2  0  0  0  0  0  0  0  0  0
  192.1380  173.9470  134.5940 O   0  0  0  0  0  0  0  0  0  0  0  0
  191.5020  176.2380  134.6440 C   0  0  0  0  0  1  0  0  0  0  0  0
  191.9500  175.0320  135.4750 C   0  0  1  0  0  0  0  0  0  0  0  0
  195.4450  176.2680  136.0650 O   0  0  0  0  0  0  0  0  0  0  0  0
  193.3010  175.2450  136.1880 C   0  0  2  0  0  3  0  0  0  0  0  0
  195.4010  173.8710  135.4370 C   0  0  1  0  0  3  0  0  0  0  0  0
  194.1500  176.3510  135.5580 C   0  0  0  0  0  2  0  0  0  0  0  0
  193.0770  173.0880  135.1940 C   0  0  0  0  0  2  0  0  0  0  0  0
  196.0870  175.2560  135.3270 C   0  0  2  0  0  3  0  0  0  0  0  0
  196.6610  174.1930  136.2600 C   0  0  1  0  0  0  0  0  0  0  0  0
  196.5960  174.5310  137.7500 C   0  0  0  0  0  1  0  0  0  0  0  0
  198.5110  172.6650  136.6150 O   0  0  0  0  0  0  0  0  0  0  0  0
  198.0610  172.1900  135.3660 C   0  0  0  0  0  2  0  0  0  0  0  0
  197.9720  173.6190  135.7340 C   0  0  1  0  0  0  0  0  0  0  0  0
  198.9550  174.4680  135.2590 F   0  0  0  0  0  0  0  0  0  0  0  0
  194.0300  173.1790  137.4730 C   0  0  0  0  0  2  0  0  0  0  0  0
  194.5310  171.8790  137.3860 O   0  0  0  0  0  1  0  0  0  0  0  0
  185.2950  176.4910  136.3670 C   0  0  2  0  0  3  0  0  0  0  0  0
  184.8580  176.0420  134.9480 C   0  0  2  0  0  3  0  0  0  0  0  0
  183.7560  175.0280  134.9170 C   0  0  1  0  0  3  0  0  0  0  0  0
  185.1070  174.6680  134.7550 O   0  0  0  0  0  0  0  0  0  0  0  0
  183.2650  174.5400  136.2810 C   0  0  1  0  0  3  0  0  0  0  0  0
  181.7920  174.1220  136.2290 C   0  0  2  0  0  3  0  0  0  0  0  0
  181.2940  174.3140  134.9400 O   0  0  0  0  0  1  0  0  0  0  0  0
  180.9150  174.8760  137.2280 C   0  0  0  0  0  2  0  0  0  0  0  0
  181.4610  174.8120  138.5400 O   0  0  0  0  0  0  0  0  0  0  0  0
  180.8820  176.5780  140.0670 O   0  0  0  0  0  0  0  0  0  0  0  0
  180.0250  174.4700  140.3200 O   0  0  0  0  0  1  0  0  0  0  0  0
  180.7650  175.2550  139.6660 C   0  0  0  0  0  0  0  0  0  0  0  0
  184.1090  173.4560  136.7710 N   0  0  0  0  0  2  0  0  0  0  0  0
  183.2760  172.2640  136.8650 C   0  0  0  0  0  2  0  0  0  0  0  0
  184.0330  171.1050  136.5470 O   0  0  0  0  0  0  0  0  0  0  0  0
  184.9680  171.1360  135.5480 C   0  0  0  0  0  0  0  0  0  0  0  0
  185.7590  171.1590  134.7030 N   0  0  0  0  0  0  0  0  0  0  0  0
  183.3120  177.5090  137.6250 C   0  0  0  0  0  2  0  0  0  0  0  0
  184.6300  177.7690  136.9150 C   0  0  0  0  0  3  0  0  0  0  0  0
  184.5690  177.7720  138.4320 C   0  0  0  0  0  2  0  0  0  0  0  0
  3  8  1  0  0  0  0
  3 11  1  0  0  0  0
  4 10  1  6  0  0  0
  4  5  1  0  0  0  0
  5  1  2  1  0  0  0
  5  2  1  0  0  0  0
  6  5  1  0  0  0  0
  6  9  1  1  0  0  0
  7 12  1  6  0  0  0
  7  6  1  0  0  0  0
  8  7  1  0  0  0  0
 11 32  1  6  0  0  0
 11  4  1  0  0  0  0
 12 13  1  6  0  0  0
 14 19  1  0  0  0  0
 14 30  1  1  0  0  0
 15 22  1  0  0  0  0
 15 17  1  0  0  0  0
 17 16  1  6  0  0  0
 17 19  1  0  0  0  0
 17 12  1  0  0  0  0
 19 21  1  6  0  0  0
 20 14  1  0  0  0  0
 20 24  1  0  0  0  0
 21 18  1  0  0  0  0
 22 14  1  0  0  0  0
 23 20  1  0  0  0  0
 23 18  1  0  0  0  0
 23 24  1  0  0  0  0
 24 25  1  0  0  0  0
 27 28  1  0  0  0  0
 27 26  1  0  0  0  0
 28 24  1  0  0  0  0
 28 26  1  0  0  0  0
 29 28  1  0  0  0  0
 31 30  1  0  0  0  0
 32 50  1  0  0  0  0
 33 32  1  0  0  0  0
 34 33  1  0  0  0  0
 34 36  1  0  0  0  0
 35 34  1  0  0  0  0
 35 33  1  0  0  0  0
 36 44  1  0  0  0  0
 37 36  1  0  0  0  0
 37 39  1  0  0  0  0
 38 37  1  0  0  0  0
 39 40  1  0  0  0  0
 40 43  1  0  0  0  0
 43 41  2  0  0  0  0
 43 42  1  0  0  0  0
 44 45  1  0  0  0  0
 46 45  1  0  0  0  0
 47 46  1  0  0  0  0
 48 47  3  0  0  0  0
 49 51  1  0  0  0  0
 50 49  1  0  0  0  0
 50 51  1  0  0  0  0
M  END
>  <MODEL>
5

>  <REMARK>
 VINA RESULT:      -3.9      3.291     11.623
  Name = 
  16 active torsions:
  status: ('A' for Active; 'I' for Inactive)
    1  A    between atoms: C_1  and  C_15
    2  A    between atoms: C_2  and  C_7
    3  A    between atoms: C_4  and  O_34
    4  A    between atoms: C_8  and  C_23
    5  A    between atoms: C_11  and  O_34
    6  A    between atoms: C_11  and  N_38
    7  A    between atoms: C_15  and  C_28
    8  A    between atoms: C_15  and  C_43
    9  A    between atoms: C_18  and  C_23
   10  A    between atoms: C_18  and  C_47
   11  A    between atoms: C_19  and  C_27
   12  A    between atoms: C_21  and  C_50
   13  A    between atoms: C_23  and  N_38
   14  A    between atoms: C_27  and  C_29
   15  A    between atoms: O_35  and  C_36
   16  A    between atoms: O_35  and  C_47
                            x       y       z     vdW  Elec       q    Type
                         _______ _______ _______ _____ _____    ______ ____

>  <TORSDO>
F 16

$$$$
=
 OpenBabel11062412353D

 51 57  0  0  1  0  0  0  0  0999 V2000
  191.8550  177.5260  138.4280 O   0  0  0  0  0  0  0  0  0  0  0  0
  190.2840  175.6560  139.3520 O   0  0  0  0  0  1  0  0  0  0  0  0
  186.9380  178.1980  139.1130 C   0  0  0  0  0  2  0  0  0  0  0  0
  189.4420  178.1980  139.8030 C   0  0  1  0  0  3  0  0  0  0  0  0
  190.2640  177.0150  138.6890 P   0  0  1  0  0  0  0  0  0  0  0  0
  189.4090  176.8930  137.0810 C   0  0  2  0  0  3  0  0  0  0  0  0
  187.8870  176.7300  137.2810 C   0  0  1  0  0  3  0  0  0  0  0  0
  187.3550  178.1110  137.6500 C   0  0  0  0  0  2  0  0  0  0  0  0
  190.0710  175.7980  136.2570 C   0  0  0  0  0  1  0  0  0  0  0  0
  189.4740  179.4750  139.2690 F   0  0  0  0  0  0  0  0  0  0  0  0
  188.0110  177.7370  140.1070 C   0  0  1  0  0  3  0  0  0  0  0  0
  187.1490  176.0970  136.0650 C   0  0  1  0  0  3  0  0  0  0  0  0
  188.1580  175.8540  134.9450 C   0  0  0  0  0  1  0  0  0  0  0  0
  183.9960  175.2310  135.7820 C   0  0  2  0  0  0  0  0  0  0  0  0
  186.0320  174.1700  135.1000 O   0  0  0  0  0  0  0  0  0  0  0  0
  187.1630  173.8300  137.1650 C   0  0  0  0  0  1  0  0  0  0  0  0
  186.3220  174.8000  136.3280 C   0  0  1  0  0  0  0  0  0  0  0  0
  183.1590  174.3390  138.2940 O   0  0  0  0  0  0  0  0  0  0  0  0
  184.9620  175.1440  136.9670 C   0  0  2  0  0  3  0  0  0  0  0  0
  182.7480  174.2970  135.8510 C   0  0  1  0  0  3  0  0  0  0  0  0
  184.5010  174.1130  138.0010 C   0  0  0  0  0  2  0  0  0  0  0  0
  184.8370  174.7370  134.6200 C   0  0  0  0  0  2  0  0  0  0  0  0
  182.4260  173.7320  137.2580 C   0  0  2  0  0  3  0  0  0  0  0  0
  181.4820  174.7400  136.6060 C   0  0  1  0  0  0  0  0  0  0  0  0
  181.3860  176.0930  137.3120 C   0  0  0  0  0  1  0  0  0  0  0  0
  179.1490  175.0440  136.0150 O   0  0  0  0  0  0  0  0  0  0  0  0
  179.6010  174.4130  134.8380 C   0  0  0  0  0  2  0  0  0  0  0  0
  180.1740  174.0930  136.1630 C   0  0  1  0  0  0  0  0  0  0  0  0
  179.7120  172.9610  136.8070 F   0  0  0  0  0  0  0  0  0  0  0  0
  183.5820  176.6810  135.4900 C   0  0  0  0  0  2  0  0  0  0  0  0
  184.2980  177.6010  136.2580 O   0  0  0  0  0  1  0  0  0  0  0  0
  187.5850  178.0310  141.5470 C   0  0  2  0  0  3  0  0  0  0  0  0
  187.1250  179.4930  141.7830 C   0  0  2  0  0  3  0  0  0  0  0  0
  185.8990  179.6420  142.6310 C   0  0  1  0  0  3  0  0  0  0  0  0
  185.8500  179.7180  141.2260 O   0  0  0  0  0  0  0  0  0  0  0  0
  185.2460  178.3360  143.0880 C   0  0  1  0  0  3  0  0  0  0  0  0
  185.3170  178.1780  144.6100 C   0  0  2  0  0  3  0  0  0  0  0  0
  184.8150  179.3250  145.2260 O   0  0  0  0  0  1  0  0  0  0  0  0
  186.7290  177.9040  145.1240 C   0  0  0  0  0  2  0  0  0  0  0  0
  186.8810  178.3500  146.4670 O   0  0  0  0  0  0  0  0  0  0  0  0
  188.6590  176.7870  146.8950 O   0  0  0  0  0  0  0  0  0  0  0  0
  187.8680  178.1580  148.5500 O   0  0  0  0  0  1  0  0  0  0  0  0
  187.8010  177.7790  147.3490 C   0  0  0  0  0  0  0  0  0  0  0  0
  183.8710  178.2560  142.6080 N   0  0  0  0  0  2  0  0  0  0  0  0
  183.9210  177.8400  141.2130 C   0  0  0  0  0  2  0  0  0  0  0  0
  182.8760  178.4570  140.4750 O   0  0  0  0  0  0  0  0  0  0  0  0
  181.7690  178.9490  141.1120 C   0  0  0  0  0  0  0  0  0  0  0  0
  180.8340  179.3650  141.6540 N   0  0  0  0  0  0  0  0  0  0  0  0
  188.1230  176.3340  143.3870 C   0  0  0  0  0  2  0  0  0  0  0  0
  188.6370  177.4780  142.5280 C   0  0  0  0  0  3  0  0  0  0  0  0
  189.0240  176.0470  142.2000 C   0  0  0  0  0  2  0  0  0  0  0  0
  3 11  1  0  0  0  0
  4 10  1  6  0  0  0
  4 11  1  0  0  0  0
  5  1  2  6  0  0  0
  5  2  1  0  0  0  0
  5  4  1  0  0  0  0
  6  9  1  1  0  0  0
  6  7  1  0  0  0  0
  6  5  1  0  0  0  0
  7 12  1  6  0  0  0
  7  8  1  0  0  0  0
  8  3  1  0  0  0  0
 11 32  1  1  0  0  0
 12 13  1  6  0  0  0
 12 17  1  0  0  0  0
 14 30  1  6  0  0  0
 14 20  1  0  0  0  0
 14 19  1  0  0  0  0
 15 17  1  0  0  0  0
 17 19  1  0  0  0  0
 17 16  1  1  0  0  0
 19 21  1  1  0  0  0
 20 24  1  0  0  0  0
 20 23  1  0  0  0  0
 21 18  1  0  0  0  0
 22 15  1  0  0  0  0
 22 14  1  0  0  0  0
 23 18  1  0  0  0  0
 24 23  1  0  0  0  0
 24 25  1  0  0  0  0
 26 28  1  0  0  0  0
 27 26  1  0  0  0  0
 27 28  1  0  0  0  0
 28 24  1  0  0  0  0
 28 29  1  0  0  0  0
 30 31  1  0  0  0  0
 32 33  1  0  0  0  0
 32 50  1  0  0  0  0
 33 34  1  0  0  0  0
 34 36  1  0  0  0  0
 35 33  1  0  0  0  0
 35 34  1  0  0  0  0
 36 37  1  0  0  0  0
 37 39  1  0  0  0  0
 37 38  1  0  0  0  0
 39 40  1  0  0  0  0
 40 43  1  0  0  0  0
 41 43  2  0  0  0  0
 43 42  1  0  0  0  0
 44 36  1  0  0  0  0
 45 44  1  0  0  0  0
 46 47  1  0  0  0  0
 46 45  1  0  0  0  0
 47 48  3  0  0  0  0
 50 49  1  0  0  0  0
 51 50  1  0  0  0  0
 51 49  1  0  0  0  0
M  END
>  <MODEL>
6

>  <REMARK>
 VINA RESULT:      -3.9      4.813      8.758
  Name = 
  16 active torsions:
  status: ('A' for Active; 'I' for Inactive)
    1  A    between atoms: C_1  and  C_15
    2  A    between atoms: C_2  and  C_7
    3  A    between atoms: C_4  and  O_34
    4  A    between atoms: C_8  and  C_23
    5  A    between atoms: C_11  and  O_34
    6  A    between atoms: C_11  and  N_38
    7  A    between atoms: C_15  and  C_28
    8  A    between atoms: C_15  and  C_43
    9  A    between atoms: C_18  and  C_23
   10  A    between atoms: C_18  and  C_47
   11  A    between atoms: C_19  and  C_27
   12  A    between atoms: C_21  and  C_50
   13  A    between atoms: C_23  and  N_38
   14  A    between atoms: C_27  and  C_29
   15  A    between atoms: O_35  and  C_36
   16  A    between atoms: O_35  and  C_47
                            x       y       z     vdW  Elec       q    Type
                         _______ _______ _______ _____ _____    ______ ____

>  <TORSDO>
F 16

$$$$
=
 OpenBabel11062412353D

 51 57  0  0  1  0  0  0  0  0999 V2000
  191.8890  177.1590  145.5780 O   0  0  0  0  0  1  0  0  0  0  0  0
  191.1230  179.0190  143.9130 O   0  0  0  0  0  0  0  0  0  0  0  0
  188.9580  176.2290  141.6230 C   0  0  0  0  0  2  0  0  0  0  0  0
  191.2140  176.5100  142.8790 C   0  0  1  0  0  3  0  0  0  0  0  0
  190.8580  177.5830  144.3060 P   0  0  1  0  0  0  0  0  0  0  0  0
  189.1280  177.4170  144.8630 C   0  0  2  0  0  3  0  0  0  0  0  0
  188.1570  177.4940  143.6660 C   0  0  1  0  0  3  0  0  0  0  0  0
  188.2380  176.1420  142.9630 C   0  0  0  0  0  2  0  0  0  0  0  0
  188.8700  178.4310  145.9670 C   0  0  0  0  0  1  0  0  0  0  0  0
  191.0620  175.1770  143.2200 F   0  0  0  0  0  0  0  0  0  0  0  0
  190.3350  176.9020  141.6850 C   0  0  1  0  0  3  0  0  0  0  0  0
  186.7030  177.8950  144.0500 C   0  0  1  0  0  3  0  0  0  0  0  0
  186.7360  178.6900  145.3540 C   0  0  0  0  0  1  0  0  0  0  0  0
  183.6100  178.9700  143.8200 C   0  0  2  0  0  0  0  0  0  0  0  0
  185.7210  180.0100  143.3730 O   0  0  0  0  0  0  0  0  0  0  0  0
  186.6220  178.6450  141.6460 C   0  0  0  0  0  1  0  0  0  0  0  0
  185.8680  178.6630  142.9790 C   0  0  1  0  0  0  0  0  0  0  0  0
  182.5130  177.8320  141.5160 O   0  0  0  0  0  0  0  0  0  0  0  0
  184.4410  178.0850  142.8860 C   0  0  2  0  0  3  0  0  0  0  0  0
  182.3730  179.6680  143.1730 C   0  0  1  0  0  3  0  0  0  0  0  0
  183.8820  178.0810  141.4600 C   0  0  0  0  0  2  0  0  0  0  0  0
  184.5800  180.0750  144.1930 C   0  0  0  0  0  2  0  0  0  0  0  0
  181.9060  179.0630  141.8260 C   0  0  2  0  0  3  0  0  0  0  0  0
  181.0270  178.9300  143.0670 C   0  0  1  0  0  0  0  0  0  0  0  0
  180.8380  177.5020  143.5820 C   0  0  0  0  0  1  0  0  0  0  0  0
  179.9720  180.8910  142.1060 O   0  0  0  0  0  0  0  0  0  0  0  0
  179.0350  179.9140  141.7130 C   0  0  0  0  0  2  0  0  0  0  0  0
  179.7840  179.8090  142.9830 C   0  0  1  0  0  0  0  0  0  0  0  0
  179.1460  180.2120  144.1410 F   0  0  0  0  0  0  0  0  0  0  0  0
  183.2140  178.2280  145.1040 C   0  0  0  0  0  2  0  0  0  0  0  0
  183.8210  178.7720  146.2380 O   0  0  0  0  0  1  0  0  0  0  0  0
  191.0630  176.7810  140.3440 C   0  0  2  0  0  3  0  0  0  0  0  0
  192.0430  177.9460  140.0490 C   0  0  2  0  0  3  0  0  0  0  0  0
  193.3790  177.5300  139.5170 C   0  0  1  0  0  3  0  0  0  0  0  0
  193.1860  177.8640  140.8710 O   0  0  0  0  0  0  0  0  0  0  0  0
  193.6060  176.0210  139.3990 C   0  0  1  0  0  3  0  0  0  0  0  0
  193.6770  175.5780  137.9340 C   0  0  2  0  0  3  0  0  0  0  0  0
  193.4520  176.6740  137.1010 O   0  0  0  0  0  1  0  0  0  0  0  0
  192.6860  174.4680  137.5900 C   0  0  0  0  0  2  0  0  0  0  0  0
  192.1640  174.6360  136.2770 O   0  0  0  0  0  0  0  0  0  0  0  0
  190.4750  174.3070  134.5950 O   0  0  0  0  0  0  0  0  0  0  0  0
  190.0830  173.7640  136.7850 O   0  0  0  0  0  1  0  0  0  0  0  0
  190.8790  174.2220  135.9200 C   0  0  0  0  0  0  0  0  0  0  0  0
  194.8020  175.6240  140.1340 N   0  0  0  0  0  2  0  0  0  0  0  0
  195.6360  174.8520  139.2240 C   0  0  0  0  0  2  0  0  0  0  0  0
  197.0030  175.2010  139.3880 O   0  0  0  0  0  0  0  0  0  0  0  0
  197.5690  175.2320  140.6340 C   0  0  0  0  0  0  0  0  0  0  0  0
  198.0490  175.2610  141.6880 N   0  0  0  0  0  0  0  0  0  0  0  0
  189.1700  177.6050  138.8310 C   0  0  0  0  0  2  0  0  0  0  0  0
  190.0550  176.4360  139.2300 C   0  0  0  0  0  3  0  0  0  0  0  0
  190.3380  177.2020  137.9510 C   0  0  0  0  0  2  0  0  0  0  0  0
  3 11  1  0  0  0  0
  3  8  1  0  0  0  0
  4 10  1  1  0  0  0
  4  5  1  0  0  0  0
  5  2  2  6  0  0  0
  5  6  1  0  0  0  0
  5  1  1  0  0  0  0
  6  9  1  1  0  0  0
  7 12  1  1  0  0  0
  7  6  1  0  0  0  0
  8  7  1  0  0  0  0
 11 32  1  6  0  0  0
 11  4  1  0  0  0  0
 12 13  1  1  0  0  0
 14 22  1  0  0  0  0
 14 30  1  1  0  0  0
 15 22  1  0  0  0  0
 17 16  1  6  0  0  0
 17 15  1  0  0  0  0
 17 12  1  0  0  0  0
 18 23  1  0  0  0  0
 19 21  1  6  0  0  0
 19 17  1  0  0  0  0
 19 14  1  0  0  0  0
 20 14  1  0  0  0  0
 21 18  1  0  0  0  0
 23 24  1  0  0  0  0
 23 20  1  0  0  0  0
 24 20  1  0  0  0  0
 24 25  1  0  0  0  0
 26 28  1  0  0  0  0
 27 26  1  0  0  0  0
 27 28  1  0  0  0  0
 28 24  1  0  0  0  0
 28 29  1  0  0  0  0
 30 31  1  0  0  0  0
 33 32  1  0  0  0  0
 33 35  1  0  0  0  0
 34 33  1  0  0  0  0
 34 35  1  0  0  0  0
 36 34  1  0  0  0  0
 36 44  1  0  0  0  0
 37 36  1  0  0  0  0
 38 37  1  0  0  0  0
 39 37  1  0  0  0  0
 40 39  1  0  0  0  0
 41 43  2  0  0  0  0
 43 40  1  0  0  0  0
 43 42  1  0  0  0  0
 45 46  1  0  0  0  0
 45 44  1  0  0  0  0
 46 47  1  0  0  0  0
 47 48  3  0  0  0  0
 49 50  1  0  0  0  0
 50 32  1  0  0  0  0
 51 49  1  0  0  0  0
 51 50  1  0  0  0  0
M  END
>  <MODEL>
7

>  <REMARK>
 VINA RESULT:      -3.8      4.631      6.428
  Name = 
  16 active torsions:
  status: ('A' for Active; 'I' for Inactive)
    1  A    between atoms: C_1  and  C_15
    2  A    between atoms: C_2  and  C_7
    3  A    between atoms: C_4  and  O_34
    4  A    between atoms: C_8  and  C_23
    5  A    between atoms: C_11  and  O_34
    6  A    between atoms: C_11  and  N_38
    7  A    between atoms: C_15  and  C_28
    8  A    between atoms: C_15  and  C_43
    9  A    between atoms: C_18  and  C_23
   10  A    between atoms: C_18  and  C_47
   11  A    between atoms: C_19  and  C_27
   12  A    between atoms: C_21  and  C_50
   13  A    between atoms: C_23  and  N_38
   14  A    between atoms: C_27  and  C_29
   15  A    between atoms: O_35  and  C_36
   16  A    between atoms: O_35  and  C_47
                            x       y       z     vdW  Elec       q    Type
                         _______ _______ _______ _____ _____    ______ ____

>  <TORSDO>
F 16

$$$$
=
 OpenBabel11062412353D

 51 57  0  0  1  0  0  0  0  0999 V2000
  192.2650  177.6360  139.8060 O   0  0  0  0  0  0  0  0  0  0  0  0
  190.5700  175.6830  140.1650 O   0  0  0  0  0  1  0  0  0  0  0  0
  187.3010  178.2560  139.5230 C   0  0  0  0  0  2  0  0  0  0  0  0
  189.6070  178.1610  140.7140 C   0  0  1  0  0  3  0  0  0  0  0  0
  190.6640  177.1080  139.6700 P   0  0  1  0  0  0  0  0  0  0  0  0
  190.1630  177.1760  137.9160 C   0  0  2  0  0  3  0  0  0  0  0  0
  188.6360  177.0000  137.7750 C   0  0  1  0  0  3  0  0  0  0  0  0
  188.0140  178.3340  138.1780 C   0  0  0  0  0  2  0  0  0  0  0  0
  191.0010  176.1790  137.1300 C   0  0  0  0  0  1  0  0  0  0  0  0
  189.7260  179.4910  140.3470 F   0  0  0  0  0  0  0  0  0  0  0  0
  188.1520  177.6770  140.6600 C   0  0  1  0  0  3  0  0  0  0  0  0
  188.1780  176.5150  136.3680 C   0  0  1  0  0  3  0  0  0  0  0  0
  189.2980  176.7800  135.3640 C   0  0  0  0  0  1  0  0  0  0  0  0
  185.2970  175.0330  135.8490 C   0  0  2  0  0  0  0  0  0  0  0  0
  187.4690  174.7250  134.8890 O   0  0  0  0  0  0  0  0  0  0  0  0
  188.7880  174.1040  136.7680 C   0  0  0  0  0  1  0  0  0  0  0  0
  187.6920  175.0380  136.2460 C   0  0  1  0  0  0  0  0  0  0  0  0
  184.8630  173.3000  137.9980 O   0  0  0  0  0  0  0  0  0  0  0  0
  186.3370  174.8520  136.9580 C   0  0  2  0  0  3  0  0  0  0  0  0
  184.3040  173.8460  135.6460 C   0  0  1  0  0  3  0  0  0  0  0  0
  186.1980  173.4940  137.6510 C   0  0  0  0  0  2  0  0  0  0  0  0
  186.1460  175.1010  134.5940 C   0  0  0  0  0  2  0  0  0  0  0  0
  184.2190  172.8500  136.8300 C   0  0  2  0  0  3  0  0  0  0  0  0
  183.0260  173.7420  136.4970 C   0  0  1  0  0  0  0  0  0  0  0  0
  182.6710  174.7790  137.5630 C   0  0  0  0  0  1  0  0  0  0  0  0
  180.6260  173.4620  136.2840 O   0  0  0  0  0  0  0  0  0  0  0  0
  180.9610  173.5980  134.9210 C   0  0  0  0  0  2  0  0  0  0  0  0
  181.8740  172.9510  135.8860 C   0  0  1  0  0  0  0  0  0  0  0  0
  181.8850  171.5700  135.9350 F   0  0  0  0  0  0  0  0  0  0  0  0
  184.5420  176.3620  135.9870 C   0  0  0  0  0  2  0  0  0  0  0  0
  184.8470  177.2540  134.9570 O   0  0  0  0  0  1  0  0  0  0  0  0
  187.4310  177.8080  142.0030 C   0  0  2  0  0  3  0  0  0  0  0  0
  187.1250  176.4530  142.6910 C   0  0  2  0  0  3  0  0  0  0  0  0
  187.7870  176.2530  144.0190 C   0  0  1  0  0  3  0  0  0  0  0  0
  188.2980  175.6850  142.8380 O   0  0  0  0  0  0  0  0  0  0  0  0
  188.7120  177.3830  144.4760 C   0  0  1  0  0  3  0  0  0  0  0  0
  188.1200  178.1450  145.6660 C   0  0  2  0  0  3  0  0  0  0  0  0
  189.0930  178.9770  146.2220 O   0  0  0  0  0  1  0  0  0  0  0  0
  187.5570  177.2290  146.7510 C   0  0  0  0  0  2  0  0  0  0  0  0
  186.5570  177.8930  147.5150 O   0  0  0  0  0  0  0  0  0  0  0  0
  184.6340  178.3100  146.1300 O   0  0  0  0  0  0  0  0  0  0  0  0
  185.7350  180.0270  147.1710 O   0  0  0  0  0  1  0  0  0  0  0  0
  185.6490  178.7890  146.9470 C   0  0  0  0  0  0  0  0  0  0  0  0
  190.0400  176.8640  144.7840 N   0  0  0  0  0  2  0  0  0  0  0  0
  190.6870  176.5440  143.5190 C   0  0  0  0  0  2  0  0  0  0  0  0
  191.6140  177.5610  143.1670 O   0  0  0  0  0  0  0  0  0  0  0  0
  191.6740  178.7270  143.8800 C   0  0  0  0  0  0  0  0  0  0  0  0
  191.7240  179.7150  144.4820 N   0  0  0  0  0  0  0  0  0  0  0  0
  184.8970  178.1490  142.1280 C   0  0  0  0  0  2  0  0  0  0  0  0
  186.2500  178.7900  141.8700 C   0  0  0  0  0  3  0  0  0  0  0  0
  185.5440  179.0120  143.1950 C   0  0  0  0  0  2  0  0  0  0  0  0
  3 11  1  0  0  0  0
  4 10  1  6  0  0  0
  5  1  2  1  0  0  0
  5  2  1  0  0  0  0
  5  4  1  0  0  0  0
  6  9  1  6  0  0  0
  6  5  1  0  0  0  0
  7 12  1  6  0  0  0
  7  6  1  0  0  0  0
  7  8  1  0  0  0  0
  8  3  1  0  0  0  0
 11  4  1  0  0  0  0
 11 32  1  1  0  0  0
 12 13  1  6  0  0  0
 14 30  1  1  0  0  0
 14 19  1  0  0  0  0
 15 17  1  0  0  0  0
 17 12  1  0  0  0  0
 17 16  1  1  0  0  0
 17 19  1  0  0  0  0
 19 21  1  6  0  0  0
 20 14  1  0  0  0  0
 20 24  1  0  0  0  0
 20 23  1  0  0  0  0
 21 18  1  0  0  0  0
 22 15  1  0  0  0  0
 22 14  1  0  0  0  0
 23 18  1  0  0  0  0
 24 23  1  0  0  0  0
 24 25  1  0  0  0  0
 27 28  1  0  0  0  0
 27 26  1  0  0  0  0
 28 29  1  0  0  0  0
 28 26  1  0  0  0  0
 28 24  1  0  0  0  0
 31 30  1  0  0  0  0
 32 33  1  0  0  0  0
 33 35  1  0  0  0  0
 33 34  1  0  0  0  0
 34 36  1  0  0  0  0
 35 34  1  0  0  0  0
 36 44  1  0  0  0  0
 36 37  1  0  0  0  0
 37 38  1  0  0  0  0
 37 39  1  0  0  0  0
 39 40  1  0  0  0  0
 41 43  2  0  0  0  0
 43 42  1  0  0  0  0
 43 40  1  0  0  0  0
 45 44  1  0  0  0  0
 46 45  1  0  0  0  0
 46 47  1  0  0  0  0
 47 48  3  0  0  0  0
 49 51  1  0  0  0  0
 50 32  1  0  0  0  0
 50 49  1  0  0  0  0
 50 51  1  0  0  0  0
M  END
>  <MODEL>
8

>  <REMARK>
 VINA RESULT:      -3.6      4.429      8.204
  Name = 
  16 active torsions:
  status: ('A' for Active; 'I' for Inactive)
    1  A    between atoms: C_1  and  C_15
    2  A    between atoms: C_2  and  C_7
    3  A    between atoms: C_4  and  O_34
    4  A    between atoms: C_8  and  C_23
    5  A    between atoms: C_11  and  O_34
    6  A    between atoms: C_11  and  N_38
    7  A    between atoms: C_15  and  C_28
    8  A    between atoms: C_15  and  C_43
    9  A    between atoms: C_18  and  C_23
   10  A    between atoms: C_18  and  C_47
   11  A    between atoms: C_19  and  C_27
   12  A    between atoms: C_21  and  C_50
   13  A    between atoms: C_23  and  N_38
   14  A    between atoms: C_27  and  C_29
   15  A    between atoms: O_35  and  C_36
   16  A    between atoms: O_35  and  C_47
                            x       y       z     vdW  Elec       q    Type
                         _______ _______ _______ _____ _____    ______ ____

>  <TORSDO>
F 16

$$$$
=
 OpenBabel11062412353D

 51 57  0  0  1  0  0  0  0  0999 V2000
  181.3410  178.9360  140.6350 O   0  0  0  0  0  0  0  0  0  0  0  0
  182.6820  176.7210  140.9670 O   0  0  0  0  0  1  0  0  0  0  0  0
  185.6900  178.0180  138.3230 C   0  0  0  0  0  2  0  0  0  0  0  0
  183.1080  177.9840  138.6010 C   0  0  1  0  0  3  0  0  0  0  0  0
  182.7980  178.1140  140.3910 P   0  0  1  0  0  0  0  0  0  0  0  0
  184.1370  179.0130  141.2450 C   0  0  2  0  0  3  0  0  0  0  0  0
  185.5200  178.4840  140.8070 C   0  0  1  0  0  3  0  0  0  0  0  0
  185.7810  179.0700  139.4220 C   0  0  0  0  0  2  0  0  0  0  0  0
  183.8770  178.9700  142.7440 C   0  0  0  0  0  1  0  0  0  0  0  0
  183.1410  179.2400  138.0180 F   0  0  0  0  0  0  0  0  0  0  0  0
  184.3970  177.1950  138.3390 C   0  0  1  0  0  3  0  0  0  0  0  0
  186.6650  178.7780  141.8190 C   0  0  1  0  0  3  0  0  0  0  0  0
  186.1260  178.6110  143.2390 C   0  0  0  0  0  1  0  0  0  0  0  0
  188.7340  177.2310  143.8430 C   0  0  2  0  0  0  0  0  0  0  0  0
  187.7190  176.5920  141.7710 O   0  0  0  0  0  0  0  0  0  0  0  0
  188.5570  178.2200  140.2530 C   0  0  0  0  0  1  0  0  0  0  0  0
  187.9890  177.9710  141.6540 C   0  0  1  0  0  0  0  0  0  0  0  0
  191.2620  178.3530  143.4510 O   0  0  0  0  0  0  0  0  0  0  0  0
  188.9780  178.3120  142.7870 C   0  0  2  0  0  3  0  0  0  0  0  0
  189.9820  176.3930  144.2610 C   0  0  1  0  0  3  0  0  0  0  0  0
  190.4390  178.3380  142.3280 C   0  0  0  0  0  2  0  0  0  0  0  0
  187.7910  176.2740  143.1390 C   0  0  0  0  0  2  0  0  0  0  0  0
  191.3490  177.0180  143.8880 C   0  0  2  0  0  3  0  0  0  0  0  0
  190.9370  176.9050  145.3530 C   0  0  1  0  0  0  0  0  0  0  0  0
  190.7140  178.2370  146.0720 C   0  0  0  0  0  1  0  0  0  0  0  0
  192.6480  176.4190  147.0030 O   0  0  0  0  0  0  0  0  0  0  0  0
  191.5840  175.6750  147.5530 C   0  0  0  0  0  2  0  0  0  0  0  0
  191.7440  175.8430  146.0930 C   0  0  1  0  0  0  0  0  0  0  0  0
  192.3360  174.8120  145.3880 F   0  0  0  0  0  0  0  0  0  0  0  0
  188.0110  177.7920  145.0770 C   0  0  0  0  0  2  0  0  0  0  0  0
  187.4410  176.7870  145.8590 O   0  0  0  0  0  1  0  0  0  0  0  0
  184.3040  176.2990  137.1010 C   0  0  2  0  0  3  0  0  0  0  0  0
  184.4750  174.7870  137.4010 C   0  0  2  0  0  3  0  0  0  0  0  0
  183.2530  173.9540  137.1670 C   0  0  1  0  0  3  0  0  0  0  0  0
  183.6290  174.3820  138.4530 O   0  0  0  0  0  0  0  0  0  0  0  0
  182.0020  174.7180  136.7270 C   0  0  1  0  0  3  0  0  0  0  0  0
  181.6790  174.4620  135.2520 C   0  0  2  0  0  3  0  0  0  0  0  0
  180.9930  175.5570  134.7240 O   0  0  0  0  0  1  0  0  0  0  0  0
  180.8580  173.1940  135.0250 C   0  0  0  0  0  2  0  0  0  0  0  0
  181.6520  172.0280  135.2180 O   0  0  0  0  0  0  0  0  0  0  0  0
  181.5860  169.6510  135.5820 O   0  0  0  0  0  0  0  0  0  0  0  0
  180.4790  171.0910  136.9770 O   0  0  0  0  0  1  0  0  0  0  0  0
  181.2100  170.9320  135.9610 C   0  0  0  0  0  0  0  0  0  0  0  0
  180.8710  174.3860  137.5860 N   0  0  0  0  0  2  0  0  0  0  0  0
  180.5490  175.5750  138.3620 C   0  0  0  0  0  2  0  0  0  0  0  0
  179.2510  175.4620  138.9270 O   0  0  0  0  0  0  0  0  0  0  0  0
  179.0900  175.0690  140.2280 C   0  0  0  0  0  0  0  0  0  0  0  0
  178.9510  174.7360  141.3290 N   0  0  0  0  0  0  0  0  0  0  0  0
  184.9850  176.1760  134.6360 C   0  0  0  0  0  2  0  0  0  0  0  0
  185.1800  176.8760  135.9710 C   0  0  0  0  0  3  0  0  0  0  0  0
  184.3470  177.5300  134.8840 C   0  0  0  0  0  2  0  0  0  0  0  0
  3 11  1  0  0  0  0
  3  8  1  0  0  0  0
  4 10  1  1  0  0  0
  4  5  1  0  0  0  0
  5  1  2  1  0  0  0
  5  2  1  0  0  0  0
  5  6  1  0  0  0  0
  6  9  1  1  0  0  0
  7  6  1  0  0  0  0
  7 12  1  1  0  0  0
  8  7  1  0  0  0  0
 11 32  1  6  0  0  0
 11  4  1  0  0  0  0
 12 13  1  1  0  0  0
 14 20  1  0  0  0  0
 14 30  1  1  0  0  0
 15 22  1  0  0  0  0
 17 16  1  6  0  0  0
 17 15  1  0  0  0  0
 17 12  1  0  0  0  0
 17 19  1  0  0  0  0
 18 23  1  0  0  0  0
 19 21  1  6  0  0  0
 19 14  1  0  0  0  0
 20 24  1  0  0  0  0
 21 18  1  0  0  0  0
 22 14  1  0  0  0  0
 23 20  1  0  0  0  0
 23 24  1  0  0  0  0
 24 25  1  0  0  0  0
 24 28  1  0  0  0  0
 26 27  1  0  0  0  0
 28 26  1  0  0  0  0
 28 27  1  0  0  0  0
 29 28  1  0  0  0  0
 30 31  1  0  0  0  0
 32 33  1  0  0  0  0
 33 35  1  0  0  0  0
 34 33  1  0  0  0  0
 34 35  1  0  0  0  0
 36 34  1  0  0  0  0
 36 44  1  0  0  0  0
 37 36  1  0  0  0  0
 38 37  1  0  0  0  0
 39 40  1  0  0  0  0
 39 37  1  0  0  0  0
 40 43  1  0  0  0  0
 41 43  2  0  0  0  0
 43 42  1  0  0  0  0
 44 45  1  0  0  0  0
 45 46  1  0  0  0  0
 46 47  1  0  0  0  0
 47 48  3  0  0  0  0
 49 51  1  0  0  0  0
 49 50  1  0  0  0  0
 50 32  1  0  0  0  0
 51 50  1  0  0  0  0
M  END
>  <MODEL>
9

>  <REMARK>
 VINA RESULT:      -3.5      6.894     11.608
  Name = 
  16 active torsions:
  status: ('A' for Active; 'I' for Inactive)
    1  A    between atoms: C_1  and  C_15
    2  A    between atoms: C_2  and  C_7
    3  A    between atoms: C_4  and  O_34
    4  A    between atoms: C_8  and  C_23
    5  A    between atoms: C_11  and  O_34
    6  A    between atoms: C_11  and  N_38
    7  A    between atoms: C_15  and  C_28
    8  A    between atoms: C_15  and  C_43
    9  A    between atoms: C_18  and  C_23
   10  A    between atoms: C_18  and  C_47
   11  A    between atoms: C_19  and  C_27
   12  A    between atoms: C_21  and  C_50
   13  A    between atoms: C_23  and  N_38
   14  A    between atoms: C_27  and  C_29
   15  A    between atoms: O_35  and  C_36
   16  A    between atoms: O_35  and  C_47
                            x       y       z     vdW  Elec       q    Type
                         _______ _______ _______ _____ _____    ______ ____

>  <TORSDO>
F 16

$$$$
