=
 OpenBabel11062412403D

 32 36  0  0  1  0  0  0  0  0999 V2000
  187.8410  177.7520  146.1860 C   0  0  0  0  0  0  0  0  0  0  0  0
  187.6200  178.7410  148.4150 O   0  0  0  0  0  1  0  0  0  0  0  0
  187.2460  177.4780  144.9230 C   0  0  0  0  0  0  0  0  0  0  0  0
  185.9360  177.8980  144.6670 C   0  0  0  0  0  3  0  0  0  0  0  0
  189.2850  176.3560  144.1820 C   0  0  0  0  0  0  0  0  0  0  0  0
  189.8560  176.6350  145.4300 C   0  0  0  0  0  0  0  0  0  0  0  0
  189.1620  177.3120  146.4040 C   0  0  2  0  0  3  0  0  0  0  0  0
  187.3800  176.5180  142.6960 O   0  0  0  0  0  1  0  0  0  0  0  0
  191.2230  176.2710  145.8680 C   0  0  0  0  0  3  0  0  0  0  0  0
  187.9680  176.7820  143.9300 C   0  0  0  0  0  0  0  0  0  0  0  0
  187.0920  178.4470  147.1630 C   0  0  0  0  0  0  0  0  0  0  0  0
  189.9830  177.4820  147.6290 C   0  0  0  0  0  3  0  0  0  0  0  0
  185.2090  178.5880  145.6380 C   0  0  0  0  0  0  0  0  0  0  0  0
  185.7860  178.8550  146.8810 C   0  0  0  0  0  3  0  0  0  0  0  0
  191.3160  176.8030  147.2990 C   0  0  0  0  0  3  0  0  0  0  0  0
  190.0480  175.5920  143.1450 C   0  0  0  0  0  2  0  0  0  0  0  0
  191.8320  178.0700  140.9490 N   0  0  0  0  0  0  0  0  0  0  0  0
  191.5940  177.3930  142.1120 C   0  0  0  0  0  0  0  0  0  0  0  0
  191.0060  177.7640  139.9510 N   0  0  0  0  0  0  0  0  0  0  0  0
  192.3470  177.5870  143.2210 F   0  0  0  0  0  0  0  0  0  0  0  0
  189.9410  176.6180  140.5070 S   0  0  0  0  0  0  0  0  0  0  0  0
  190.5270  176.5030  142.0630 C   0  0  0  0  0  0  0  0  0  0  0  0
  183.8100  179.0100  145.3600 C   0  0  0  0  0  2  0  0  0  0  0  0
  183.6750  179.4400  143.9080 C   0  0  0  0  0  2  0  0  0  0  0  0
  181.8540  178.1880  140.7940 C   0  0  0  0  0  2  0  0  0  0  0  0
  180.6120  179.6760  143.1770 C   0  0  0  0  0  3  0  0  0  0  0  0
  180.3730  179.5990  139.5910 O   0  0  0  0  0  0  0  0  0  0  0  0
  180.3580  180.0140  141.9080 C   0  0  0  0  0  3  0  0  0  0  0  0
  183.0440  178.6460  141.6270 C   0  0  0  0  0  2  0  0  0  0  0  0
  180.8310  179.2800  140.7180 C   0  0  0  0  0  0  0  0  0  0  0  0
  182.8380  178.4350  143.1320 C   0  0  2  0  0  3  0  0  0  0  0  0
  181.3690  178.4470  143.5880 C   0  0  0  0  0  2  0  0  0  0  0  0
  1  7  1  0  0  0  0
  1 11  2  0  0  0  0
  3  1  1  0  0  0  0
  4  3  2  0  0  0  0
  4 13  1  0  0  0  0
  5  6  1  0  0  0  0
  6  9  2  0  0  0  0
  6  7  1  0  0  0  0
  7 12  1  1  0  0  0
  8 10  1  0  0  0  0
  9 15  1  0  0  0  0
 10  5  2  0  0  0  0
 10  3  1  0  0  0  0
 11  2  1  0  0  0  0
 13 14  2  0  0  0  0
 14 11  1  0  0  0  0
 15 12  2  0  0  0  0
 16  5  1  0  0  0  0
 17 18  1  0  0  0  0
 18 20  1  0  0  0  0
 19 21  1  0  0  0  0
 19 17  2  0  0  0  0
 21 22  1  0  0  0  0
 22 18  2  0  0  0  0
 22 16  1  0  0  0  0
 23 13  1  0  0  0  0
 24 23  1  0  0  0  0
 25 29  1  0  0  0  0
 26 32  1  0  0  0  0
 27 30  2  0  0  0  0
 28 26  2  0  0  0  0
 29 31  1  0  0  0  0
 30 25  1  0  0  0  0
 30 28  1  0  0  0  0
 31 32  1  0  0  0  0
 31 24  1  1  0  0  0
M  END
>  <MODEL>
1

>  <REMARK>
 VINA RESULT:      -9.7      0.000      0.000
  Name = 
  5 active torsions:
  status: ('A' for Active; 'I' for Inactive)
    1  A    between atoms: C_4  and  C_12
    2  A    between atoms: C_4  and  C_32
    3  A    between atoms: C_6  and  C_23
    4  A    between atoms: C_6  and  C_25
    5  A    between atoms: C_25  and  C_28
                            x       y       z     vdW  Elec       q    Type
                         _______ _______ _______ _____ _____    ______ ____

>  <TORSDO>
F 5

$$$$
=
 OpenBabel11062412403D

 32 36  0  0  1  0  0  0  0  0999 V2000
  182.6800  178.8190  142.2930 C   0  0  0  0  0  0  0  0  0  0  0  0
  180.6750  178.6460  143.6880 O   0  0  0  0  0  1  0  0  0  0  0  0
  184.1000  178.8740  142.2220 C   0  0  0  0  0  0  0  0  0  0  0  0
  184.8560  178.8120  143.3980 C   0  0  0  0  0  3  0  0  0  0  0  0
  183.9920  179.0600  139.7900 C   0  0  0  0  0  0  0  0  0  0  0  0
  182.5960  179.0030  139.8770 C   0  0  0  0  0  0  0  0  0  0  0  0
  181.9550  178.8850  141.0870 C   0  0  2  0  0  3  0  0  0  0  0  0
  186.1380  179.0470  140.9130 O   0  0  0  0  0  1  0  0  0  0  0  0
  181.6450  179.0510  138.7420 C   0  0  0  0  0  3  0  0  0  0  0  0
  184.7480  178.9950  140.9750 C   0  0  0  0  0  0  0  0  0  0  0  0
  182.0580  178.7020  143.5580 C   0  0  0  0  0  0  0  0  0  0  0  0
  180.4810  178.8450  140.9120 C   0  0  0  0  0  3  0  0  0  0  0  0
  184.2310  178.6900  144.6390 C   0  0  0  0  0  0  0  0  0  0  0  0
  182.8370  178.6420  144.7150 C   0  0  0  0  0  3  0  0  0  0  0  0
  180.2670  178.9630  139.3990 C   0  0  0  0  0  3  0  0  0  0  0  0
  184.6710  179.2180  138.4640 C   0  0  0  0  0  2  0  0  0  0  0  0
  186.5320  176.1790  137.2580 N   0  0  0  0  0  0  0  0  0  0  0  0
  186.4190  177.4680  137.6980 C   0  0  0  0  0  0  0  0  0  0  0  0
  185.3750  175.5330  137.1340 N   0  0  0  0  0  0  0  0  0  0  0  0
  187.5020  178.2610  137.8800 F   0  0  0  0  0  0  0  0  0  0  0  0
  184.1620  176.5740  137.5820 S   0  0  0  0  0  0  0  0  0  0  0  0
  185.1170  177.8930  137.9380 C   0  0  0  0  0  0  0  0  0  0  0  0
  185.0470  178.6460  145.8830 C   0  0  0  0  0  2  0  0  0  0  0  0
  186.5220  178.7820  145.5420 C   0  0  0  0  0  2  0  0  0  0  0  0
  189.5080  176.7900  146.8430 C   0  0  0  0  0  2  0  0  0  0  0  0
  188.9050  177.5000  143.9160 C   0  0  0  0  0  3  0  0  0  0  0  0
  191.7180  177.2990  146.1460 O   0  0  0  0  0  0  0  0  0  0  0  0
  190.1150  177.6660  144.4610 C   0  0  0  0  0  3  0  0  0  0  0  0
  188.3450  177.7710  146.9140 C   0  0  0  0  0  2  0  0  0  0  0  0
  190.5040  177.2480  145.8230 C   0  0  0  0  0  0  0  0  0  0  0  0
  187.2630  177.4940  145.8650 C   0  0  2  0  0  3  0  0  0  0  0  0
  187.7650  176.7940  144.5920 C   0  0  0  0  0  2  0  0  0  0  0  0
  1 11  2  0  0  0  0
  3  1  1  0  0  0  0
  3  4  2  0  0  0  0
  4 13  1  0  0  0  0
  5  6  1  0  0  0  0
  5 10  2  0  0  0  0
  6  7  1  0  0  0  0
  7 12  1  1  0  0  0
  7  1  1  0  0  0  0
  8 10  1  0  0  0  0
  9 15  1  0  0  0  0
  9  6  2  0  0  0  0
 10  3  1  0  0  0  0
 11  2  1  0  0  0  0
 11 14  1  0  0  0  0
 13 14  2  0  0  0  0
 13 23  1  0  0  0  0
 15 12  2  0  0  0  0
 16  5  1  0  0  0  0
 17 18  1  0  0  0  0
 18 20  1  0  0  0  0
 18 22  2  0  0  0  0
 19 17  2  0  0  0  0
 19 21  1  0  0  0  0
 21 22  1  0  0  0  0
 22 16  1  0  0  0  0
 24 23  1  0  0  0  0
 25 29  1  0  0  0  0
 26 28  2  0  0  0  0
 26 32  1  0  0  0  0
 28 30  1  0  0  0  0
 30 27  2  0  0  0  0
 30 25  1  0  0  0  0
 31 24  1  6  0  0  0
 31 29  1  0  0  0  0
 32 31  1  0  0  0  0
M  END
>  <MODEL>
2

>  <REMARK>
 VINA RESULT:      -9.6      3.136      7.891
  Name = 
  5 active torsions:
  status: ('A' for Active; 'I' for Inactive)
    1  A    between atoms: C_4  and  C_12
    2  A    between atoms: C_4  and  C_32
    3  A    between atoms: C_6  and  C_23
    4  A    between atoms: C_6  and  C_25
    5  A    between atoms: C_25  and  C_28
                            x       y       z     vdW  Elec       q    Type
                         _______ _______ _______ _____ _____    ______ ____

>  <TORSDO>
F 5

$$$$
=
 OpenBabel11062412403D

 32 36  0  0  1  0  0  0  0  0999 V2000
  186.5610  178.1600  145.5760 C   0  0  0  0  0  0  0  0  0  0  0  0
  185.3370  179.3540  147.3290 O   0  0  0  0  0  1  0  0  0  0  0  0
  186.5860  177.6740  144.2380 C   0  0  0  0  0  0  0  0  0  0  0  0
  185.4870  177.8930  143.4000 C   0  0  0  0  0  3  0  0  0  0  0  0
  188.8170  176.7470  144.5950 C   0  0  0  0  0  0  0  0  0  0  0  0
  188.7760  177.2330  145.9090 C   0  0  0  0  0  0  0  0  0  0  0  0
  187.6870  177.9190  146.3880 C   0  0  0  0  0  0  0  0  0  0  0  0
  187.7280  176.4990  142.4460 O   0  0  0  0  0  1  0  0  0  0  0  0
  189.8440  177.0970  146.9250 C   0  0  0  0  0  2  0  0  0  0  0  0
  187.7100  176.9710  143.7560 C   0  0  0  0  0  0  0  0  0  0  0  0
  185.4190  178.8580  146.0330 C   0  0  0  0  0  0  0  0  0  0  0  0
  187.8890  178.3270  147.8010 C   0  0  0  0  0  3  0  0  0  0  0  0
  184.3690  178.5880  143.8620 C   0  0  0  0  0  0  0  0  0  0  0  0
  184.3360  179.0630  145.1750 C   0  0  0  0  0  3  0  0  0  0  0  0
  189.2770  177.7910  148.1650 C   0  0  0  0  0  3  0  0  0  0  0  0
  190.0020  175.9760  144.1010 C   0  0  0  0  0  2  0  0  0  0  0  0
  192.2190  178.3000  142.1440 N   0  0  0  0  0  0  0  0  0  0  0  0
  191.6490  177.7960  143.2790 C   0  0  0  0  0  0  0  0  0  0  0  0
  191.8250  177.7110  141.0170 N   0  0  0  0  0  0  0  0  0  0  0  0
  191.9460  178.2840  144.5080 F   0  0  0  0  0  0  0  0  0  0  0  0
  190.7350  176.5240  141.4200 S   0  0  0  0  0  0  0  0  0  0  0  0
  190.7470  176.7580  143.0700 C   0  0  0  0  0  0  0  0  0  0  0  0
  183.1990  178.7950  142.9660 C   0  0  0  0  0  2  0  0  0  0  0  0
  183.6230  178.6430  141.5140 C   0  0  0  0  0  2  0  0  0  0  0  0
  180.0280  177.8950  140.4650 C   0  0  0  0  0  2  0  0  0  0  0  0
  182.5680  176.4910  139.4580 C   0  0  0  0  0  3  0  0  0  0  0  0
  179.2030  175.6710  140.4210 O   0  0  0  0  0  0  0  0  0  0  0  0
  181.4830  175.8170  139.8530 C   0  0  0  0  0  3  0  0  0  0  0  0
  181.1410  178.4170  141.3640 C   0  0  0  0  0  2  0  0  0  0  0  0
  180.1950  176.4230  140.2440 C   0  0  0  0  0  0  0  0  0  0  0  0
  182.4190  178.7680  140.5930 C   0  0  2  0  0  3  0  0  0  0  0  0
  182.6190  177.9810  139.2870 C   0  0  0  0  0  2  0  0  0  0  0  0
  1 11  1  0  0  0  0
  1  7  1  0  0  0  0
  3  1  2  0  0  0  0
  4 13  2  0  0  0  0
  4  3  1  0  0  0  0
  5  6  1  0  0  0  0
  6  7  2  0  0  0  0
  6  9  1  0  0  0  0
  7 12  1  0  0  0  0
  8 10  1  0  0  0  0
  9 15  1  0  0  0  0
 10  3  1  0  0  0  0
 10  5  2  0  0  0  0
 11  2  1  0  0  0  0
 12 15  2  0  0  0  0
 13 14  1  0  0  0  0
 14 11  2  0  0  0  0
 16  5  1  0  0  0  0
 17 18  1  0  0  0  0
 18 20  1  0  0  0  0
 19 21  1  0  0  0  0
 19 17  2  0  0  0  0
 21 22  1  0  0  0  0
 22 18  2  0  0  0  0
 22 16  1  0  0  0  0
 23 13  1  0  0  0  0
 24 23  1  0  0  0  0
 25 29  1  0  0  0  0
 26 28  2  0  0  0  0
 28 30  1  0  0  0  0
 30 27  2  0  0  0  0
 30 25  1  0  0  0  0
 31 29  1  0  0  0  0
 31 24  1  1  0  0  0
 32 26  1  0  0  0  0
 32 31  1  0  0  0  0
M  END
>  <MODEL>
3

>  <REMARK>
 VINA RESULT:      -9.5      1.461      2.369
  Name = 
  5 active torsions:
  status: ('A' for Active; 'I' for Inactive)
    1  A    between atoms: C_4  and  C_12
    2  A    between atoms: C_4  and  C_32
    3  A    between atoms: C_6  and  C_23
    4  A    between atoms: C_6  and  C_25
    5  A    between atoms: C_25  and  C_28
                            x       y       z     vdW  Elec       q    Type
                         _______ _______ _______ _____ _____    ______ ____

>  <TORSDO>
F 5

$$$$
=
 OpenBabel11062412403D

 32 36  0  0  1  0  0  0  0  0999 V2000
  186.6020  178.1710  145.5270 C   0  0  0  0  0  0  0  0  0  0  0  0
  185.3050  179.3510  147.2360 O   0  0  0  0  0  1  0  0  0  0  0  0
  186.6820  177.6900  144.1900 C   0  0  0  0  0  0  0  0  0  0  0  0
  185.6160  177.9070  143.3110 C   0  0  0  0  0  3  0  0  0  0  0  0
  188.9020  176.7720  144.6300 C   0  0  0  0  0  0  0  0  0  0  0  0
  188.8080  177.2520  145.9430 C   0  0  0  0  0  0  0  0  0  0  0  0
  187.6970  177.9310  146.3820 C   0  0  0  0  0  0  0  0  0  0  0  0
  187.8990  176.5280  142.4390 O   0  0  0  0  0  1  0  0  0  0  0  0
  189.8360  177.1180  147.0000 C   0  0  0  0  0  2  0  0  0  0  0  0
  187.8270  176.9940  143.7490 C   0  0  0  0  0  0  0  0  0  0  0  0
  185.4400  178.8610  145.9420 C   0  0  0  0  0  0  0  0  0  0  0  0
  187.8420  178.3350  147.8040 C   0  0  0  0  0  3  0  0  0  0  0  0
  184.4770  178.5950  143.7310 C   0  0  0  0  0  0  0  0  0  0  0  0
  184.3900  179.0640  145.0430 C   0  0  0  0  0  3  0  0  0  0  0  0
  189.2180  177.8040  148.2190 C   0  0  0  0  0  3  0  0  0  0  0  0
  190.1090  176.0090  144.1790 C   0  0  0  0  0  2  0  0  0  0  0  0
  192.2180  178.2530  142.0190 N   0  0  0  0  0  0  0  0  0  0  0  0
  191.6800  177.8170  143.1980 C   0  0  0  0  0  0  0  0  0  0  0  0
  191.8300  177.5670  140.9460 N   0  0  0  0  0  0  0  0  0  0  0  0
  191.9760  178.4060  144.3810 F   0  0  0  0  0  0  0  0  0  0  0  0
  190.7880  176.3780  141.4540 S   0  0  0  0  0  0  0  0  0  0  0  0
  190.8130  176.7360  143.0810 C   0  0  0  0  0  0  0  0  0  0  0  0
  183.3420  178.8000  142.7910 C   0  0  0  0  0  2  0  0  0  0  0  0
  183.4870  177.8780  141.5910 C   0  0  0  0  0  2  0  0  0  0  0  0
  182.3720  177.9250  137.9400 C   0  0  0  0  0  2  0  0  0  0  0  0
  185.1650  178.6080  139.0180 C   0  0  0  0  0  3  0  0  0  0  0  0
  183.6640  176.8730  136.2500 O   0  0  0  0  0  0  0  0  0  0  0  0
  184.9780  177.7960  137.9720 C   0  0  0  0  0  3  0  0  0  0  0  0
  182.3280  177.5250  139.4090 C   0  0  0  0  0  2  0  0  0  0  0  0
  183.6770  177.5100  137.3340 C   0  0  0  0  0  0  0  0  0  0  0  0
  182.9810  178.5620  140.3300 C   0  0  2  0  0  3  0  0  0  0  0  0
  184.0770  179.4130  139.6670 C   0  0  0  0  0  2  0  0  0  0  0  0
  1 11  1  0  0  0  0
  1  7  1  0  0  0  0
  3  1  2  0  0  0  0
  4 13  2  0  0  0  0
  4  3  1  0  0  0  0
  5  6  1  0  0  0  0
  6  7  2  0  0  0  0
  6  9  1  0  0  0  0
  7 12  1  0  0  0  0
  8 10  1  0  0  0  0
  9 15  1  0  0  0  0
 10  3  1  0  0  0  0
 10  5  2  0  0  0  0
 11  2  1  0  0  0  0
 12 15  2  0  0  0  0
 13 14  1  0  0  0  0
 14 11  2  0  0  0  0
 16  5  1  0  0  0  0
 17 18  1  0  0  0  0
 18 20  1  0  0  0  0
 19 21  1  0  0  0  0
 19 17  2  0  0  0  0
 21 22  1  0  0  0  0
 22 18  2  0  0  0  0
 22 16  1  0  0  0  0
 23 13  1  0  0  0  0
 24 23  1  0  0  0  0
 25 29  1  0  0  0  0
 26 32  1  0  0  0  0
 27 30  2  0  0  0  0
 28 26  2  0  0  0  0
 29 31  1  0  0  0  0
 30 25  1  0  0  0  0
 30 28  1  0  0  0  0
 31 24  1  1  0  0  0
 32 31  1  0  0  0  0
M  END
>  <MODEL>
4

>  <REMARK>
 VINA RESULT:      -9.4      1.934      2.805
  Name = 
  5 active torsions:
  status: ('A' for Active; 'I' for Inactive)
    1  A    between atoms: C_4  and  C_12
    2  A    between atoms: C_4  and  C_32
    3  A    between atoms: C_6  and  C_23
    4  A    between atoms: C_6  and  C_25
    5  A    between atoms: C_25  and  C_28
                            x       y       z     vdW  Elec       q    Type
                         _______ _______ _______ _____ _____    ______ ____

>  <TORSDO>
F 5

$$$$
=
 OpenBabel11062412403D

 32 36  0  0  1  0  0  0  0  0999 V2000
  183.1950  178.6920  143.0410 C   0  0  0  0  0  0  0  0  0  0  0  0
  183.2920  179.0030  145.4680 O   0  0  0  0  0  1  0  0  0  0  0  0
  183.8810  178.3700  141.8380 C   0  0  0  0  0  0  0  0  0  0  0  0
  185.2450  178.0590  141.8780 C   0  0  0  0  0  3  0  0  0  0  0  0
  181.8240  178.6780  140.5580 C   0  0  0  0  0  0  0  0  0  0  0  0
  181.1630  178.9920  141.7520 C   0  0  0  0  0  0  0  0  0  0  0  0
  181.8220  179.0000  142.9580 C   0  0  1  0  0  3  0  0  0  0  0  0
  183.8730  178.0470  139.4300 O   0  0  0  0  0  1  0  0  0  0  0  0
  179.7300  179.3390  141.8950 C   0  0  0  0  0  3  0  0  0  0  0  0
  183.1950  178.3650  140.6050 C   0  0  0  0  0  0  0  0  0  0  0  0
  183.9090  178.6930  144.2620 C   0  0  0  0  0  0  0  0  0  0  0  0
  180.9050  179.3610  144.0690 C   0  0  0  0  0  3  0  0  0  0  0  0
  185.9370  178.0580  143.0900 C   0  0  0  0  0  0  0  0  0  0  0  0
  185.2700  178.3800  144.2740 C   0  0  0  0  0  3  0  0  0  0  0  0
  179.5500  179.5940  143.3920 C   0  0  0  0  0  3  0  0  0  0  0  0
  181.0950  178.7030  139.2500 C   0  0  0  0  0  2  0  0  0  0  0  0
  181.2610  182.2890  138.1240 N   0  0  0  0  0  0  0  0  0  0  0  0
  181.7810  181.1010  138.5560 C   0  0  0  0  0  0  0  0  0  0  0  0
  179.9340  182.3040  138.0140 N   0  0  0  0  0  0  0  0  0  0  0  0
  183.1140  180.9200  138.7180 F   0  0  0  0  0  0  0  0  0  0  0  0
  179.3710  180.8070  138.4590 S   0  0  0  0  0  0  0  0  0  0  0  0
  180.8420  180.1090  138.8140 C   0  0  0  0  0  0  0  0  0  0  0  0
  187.3920  177.7470  143.1150 C   0  0  0  0  0  2  0  0  0  0  0  0
  187.7940  177.2500  144.4940 C   0  0  0  0  0  2  0  0  0  0  0  0
  191.5050  177.2890  145.3890 C   0  0  0  0  0  2  0  0  0  0  0  0
  189.1460  177.0440  147.3400 C   0  0  0  0  0  3  0  0  0  0  0  0
  192.4300  175.6660  146.8520 O   0  0  0  0  0  0  0  0  0  0  0  0
  190.2150  176.2430  147.4010 C   0  0  0  0  0  3  0  0  0  0  0  0
  190.2850  177.0960  144.4980 C   0  0  0  0  0  2  0  0  0  0  0  0
  191.4280  176.3710  146.5700 C   0  0  0  0  0  0  0  0  0  0  0  0
  189.0770  177.9260  144.9500 C   0  0  2  0  0  3  0  0  0  0  0  0
  189.0460  178.2510  146.4530 C   0  0  0  0  0  2  0  0  0  0  0  0
  1 11  2  0  0  0  0
  3  4  2  0  0  0  0
  3  1  1  0  0  0  0
  4 13  1  0  0  0  0
  5 10  2  0  0  0  0
  5  6  1  0  0  0  0
  6  9  2  0  0  0  0
  6  7  1  0  0  0  0
  7  1  1  0  0  0  0
  7 12  1  1  0  0  0
  8 10  1  0  0  0  0
  9 15  1  0  0  0  0
 10  3  1  0  0  0  0
 11 14  1  0  0  0  0
 11  2  1  0  0  0  0
 13 23  1  0  0  0  0
 13 14  2  0  0  0  0
 15 12  2  0  0  0  0
 16  5  1  0  0  0  0
 17 18  1  0  0  0  0
 18 20  1  0  0  0  0
 18 22  2  0  0  0  0
 19 17  2  0  0  0  0
 19 21  1  0  0  0  0
 21 22  1  0  0  0  0
 22 16  1  0  0  0  0
 23 24  1  0  0  0  0
 25 30  1  0  0  0  0
 26 28  2  0  0  0  0
 29 31  1  0  0  0  0
 29 25  1  0  0  0  0
 30 27  2  0  0  0  0
 30 28  1  0  0  0  0
 31 24  1  1  0  0  0
 31 32  1  0  0  0  0
 32 26  1  0  0  0  0
M  END
>  <MODEL>
5

>  <REMARK>
 VINA RESULT:      -9.3      4.463      9.110
  Name = 
  5 active torsions:
  status: ('A' for Active; 'I' for Inactive)
    1  A    between atoms: C_4  and  C_12
    2  A    between atoms: C_4  and  C_32
    3  A    between atoms: C_6  and  C_23
    4  A    between atoms: C_6  and  C_25
    5  A    between atoms: C_25  and  C_28
                            x       y       z     vdW  Elec       q    Type
                         _______ _______ _______ _____ _____    ______ ____

>  <TORSDO>
F 5

$$$$
=
 OpenBabel11062412403D

 32 36  0  0  1  0  0  0  0  0999 V2000
  185.3210  178.3240  144.3720 C   0  0  0  0  0  0  0  0  0  0  0  0
  183.3690  179.2920  145.4890 O   0  0  0  0  0  1  0  0  0  0  0  0
  185.9380  177.9180  143.1560 C   0  0  0  0  0  0  0  0  0  0  0  0
  185.2540  178.0750  141.9450 C   0  0  0  0  0  3  0  0  0  0  0  0
  187.9230  177.1940  144.3800 C   0  0  0  0  0  0  0  0  0  0  0  0
  187.3020  177.5990  145.5680 C   0  0  0  0  0  0  0  0  0  0  0  0
  186.0420  178.1480  145.5700 C   0  0  0  0  0  0  0  0  0  0  0  0
  187.8300  176.9620  141.9710 O   0  0  0  0  0  1  0  0  0  0  0  0
  187.8770  177.5120  146.9310 C   0  0  0  0  0  2  0  0  0  0  0  0
  187.2320  177.3560  143.1650 C   0  0  0  0  0  0  0  0  0  0  0  0
  184.0220  178.8800  144.3330 C   0  0  0  0  0  0  0  0  0  0  0  0
  185.6100  178.4940  146.9480 C   0  0  0  0  0  3  0  0  0  0  0  0
  183.9750  178.6310  141.9190 C   0  0  0  0  0  0  0  0  0  0  0  0
  183.3620  179.0260  143.1100 C   0  0  0  0  0  3  0  0  0  0  0  0
  186.7840  178.0770  147.8390 C   0  0  0  0  0  3  0  0  0  0  0  0
  189.2850  176.5710  144.4020 C   0  0  0  0  0  2  0  0  0  0  0  0
  192.3880  178.6730  144.7250 N   0  0  0  0  0  0  0  0  0  0  0  0
  191.6020  177.5800  144.9640 C   0  0  0  0  0  0  0  0  0  0  0  0
  191.8270  179.6010  143.9530 N   0  0  0  0  0  0  0  0  0  0  0  0
  192.0270  176.5450  145.7280 F   0  0  0  0  0  0  0  0  0  0  0  0
  190.3090  179.0680  143.5420 S   0  0  0  0  0  0  0  0  0  0  0  0
  190.3460  177.6210  144.3680 C   0  0  0  0  0  0  0  0  0  0  0  0
  183.2510  178.7730  140.6260 C   0  0  0  0  0  2  0  0  0  0  0  0
  182.3470  177.5720  140.4030 C   0  0  0  0  0  2  0  0  0  0  0  0
  179.6190  180.1890  139.8620 C   0  0  0  0  0  2  0  0  0  0  0  0
  179.9300  178.3300  142.2880 C   0  0  0  0  0  3  0  0  0  0  0  0
  179.0570  181.7420  141.5650 O   0  0  0  0  0  0  0  0  0  0  0  0
  179.7000  179.6420  142.4120 C   0  0  0  0  0  3  0  0  0  0  0  0
  180.9770  179.5260  139.6710 C   0  0  0  0  0  2  0  0  0  0  0  0
  179.4340  180.5730  141.2980 C   0  0  0  0  0  0  0  0  0  0  0  0
  180.9590  178.0240  139.9760 C   0  0  2  0  0  3  0  0  0  0  0  0
  179.8850  177.5860  140.9850 C   0  0  0  0  0  2  0  0  0  0  0  0
  1  7  1  0  0  0  0
  3 10  1  0  0  0  0
  3  1  2  0  0  0  0
  4  3  1  0  0  0  0
  5 16  1  0  0  0  0
  5  6  1  0  0  0  0
  6  7  2  0  0  0  0
  6  9  1  0  0  0  0
  7 12  1  0  0  0  0
  8 10  1  0  0  0  0
  9 15  1  0  0  0  0
 10  5  2  0  0  0  0
 11  1  1  0  0  0  0
 11  2  1  0  0  0  0
 12 15  2  0  0  0  0
 13  4  2  0  0  0  0
 13 14  1  0  0  0  0
 14 11  2  0  0  0  0
 17 18  1  0  0  0  0
 18 20  1  0  0  0  0
 19 17  2  0  0  0  0
 21 19  1  0  0  0  0
 21 22  1  0  0  0  0
 22 16  1  0  0  0  0
 22 18  2  0  0  0  0
 23 13  1  0  0  0  0
 24 23  1  0  0  0  0
 25 30  1  0  0  0  0
 26 28  2  0  0  0  0
 29 25  1  0  0  0  0
 29 31  1  0  0  0  0
 30 27  2  0  0  0  0
 30 28  1  0  0  0  0
 31 24  1  1  0  0  0
 31 32  1  0  0  0  0
 32 26  1  0  0  0  0
M  END
>  <MODEL>
6

>  <REMARK>
 VINA RESULT:      -9.3      2.100      3.353
  Name = 
  5 active torsions:
  status: ('A' for Active; 'I' for Inactive)
    1  A    between atoms: C_4  and  C_12
    2  A    between atoms: C_4  and  C_32
    3  A    between atoms: C_6  and  C_23
    4  A    between atoms: C_6  and  C_25
    5  A    between atoms: C_25  and  C_28
                            x       y       z     vdW  Elec       q    Type
                         _______ _______ _______ _____ _____    ______ ____

>  <TORSDO>
F 5

$$$$
=
 OpenBabel11062412403D

 32 36  0  0  1  0  0  0  0  0999 V2000
  187.8290  177.8140  143.4510 C   0  0  0  0  0  0  0  0  0  0  0  0
  188.3420  177.1230  145.7430 O   0  0  0  0  0  1  0  0  0  0  0  0
  186.8660  178.3040  142.5250 C   0  0  0  0  0  0  0  0  0  0  0  0
  185.5610  178.5690  142.9560 C   0  0  0  0  0  3  0  0  0  0  0  0
  188.5290  178.2550  140.7370 C   0  0  0  0  0  0  0  0  0  0  0  0
  189.4650  177.7730  141.6610 C   0  0  0  0  0  0  0  0  0  0  0  0
  189.1310  177.5590  142.9770 C   0  0  2  0  0  3  0  0  0  0  0  0
  186.2710  179.0030  140.2760 O   0  0  0  0  0  1  0  0  0  0  0  0
  190.8810  177.4460  141.3820 C   0  0  0  0  0  3  0  0  0  0  0  0
  187.2180  178.5210  141.1760 C   0  0  0  0  0  0  0  0  0  0  0  0
  187.4450  177.6020  144.7960 C   0  0  0  0  0  0  0  0  0  0  0  0
  190.2930  177.0510  143.7490 C   0  0  0  0  0  3  0  0  0  0  0  0
  185.1970  178.3620  144.2870 C   0  0  0  0  0  0  0  0  0  0  0  0
  186.1360  177.8750  145.1990 C   0  0  0  0  0  3  0  0  0  0  0  0
  191.4300  176.9620  142.7260 C   0  0  0  0  0  3  0  0  0  0  0  0
  188.9040  178.4550  139.3010 C   0  0  0  0  0  2  0  0  0  0  0  0
  187.7240  175.5670  137.1990 N   0  0  0  0  0  0  0  0  0  0  0  0
  187.5830  176.7510  137.8680 C   0  0  0  0  0  0  0  0  0  0  0  0
  188.9370  175.0250  137.2820 N   0  0  0  0  0  0  0  0  0  0  0  0
  186.4120  177.4320  137.8800 F   0  0  0  0  0  0  0  0  0  0  0  0
  189.8800  176.0300  138.2080 S   0  0  0  0  0  0  0  0  0  0  0  0
  188.7250  177.1890  138.5290 C   0  0  0  0  0  0  0  0  0  0  0  0
  183.8010  178.6280  144.7270 C   0  0  0  0  0  2  0  0  0  0  0  0
  183.0530  179.3940  143.6480 C   0  0  0  0  0  2  0  0  0  0  0  0
  180.7150  178.3490  140.8160 C   0  0  0  0  0  2  0  0  0  0  0  0
  180.0120  180.1280  143.2180 C   0  0  0  0  0  3  0  0  0  0  0  0
  179.3700  179.9430  139.6860 O   0  0  0  0  0  0  0  0  0  0  0  0
  179.6810  180.4510  141.9640 C   0  0  0  0  0  3  0  0  0  0  0  0
  182.0500  178.6270  141.4950 C   0  0  0  0  0  2  0  0  0  0  0  0
  179.8890  179.5980  140.7780 C   0  0  0  0  0  0  0  0  0  0  0  0
  181.9780  178.5180  143.0220 C   0  0  2  0  0  3  0  0  0  0  0  0
  180.5920  178.8040  143.6230 C   0  0  0  0  0  2  0  0  0  0  0  0
  1 11  2  0  0  0  0
  3  4  2  0  0  0  0
  3  1  1  0  0  0  0
  4 13  1  0  0  0  0
  5 10  2  0  0  0  0
  5  6  1  0  0  0  0
  6  7  1  0  0  0  0
  7  1  1  0  0  0  0
  7 12  1  6  0  0  0
  8 10  1  0  0  0  0
  9  6  2  0  0  0  0
  9 15  1  0  0  0  0
 10  3  1  0  0  0  0
 11 14  1  0  0  0  0
 11  2  1  0  0  0  0
 13 23  1  0  0  0  0
 13 14  2  0  0  0  0
 15 12  2  0  0  0  0
 16  5  1  0  0  0  0
 17 19  2  0  0  0  0
 17 18  1  0  0  0  0
 18 20  1  0  0  0  0
 18 22  2  0  0  0  0
 19 21  1  0  0  0  0
 21 22  1  0  0  0  0
 22 16  1  0  0  0  0
 24 23  1  0  0  0  0
 25 29  1  0  0  0  0
 26 32  1  0  0  0  0
 27 30  2  0  0  0  0
 28 26  2  0  0  0  0
 29 31  1  0  0  0  0
 30 25  1  0  0  0  0
 30 28  1  0  0  0  0
 31 32  1  0  0  0  0
 31 24  1  1  0  0  0
M  END
>  <MODEL>
7

>  <REMARK>
 VINA RESULT:      -9.2      2.737      3.421
  Name = 
  5 active torsions:
  status: ('A' for Active; 'I' for Inactive)
    1  A    between atoms: C_4  and  C_12
    2  A    between atoms: C_4  and  C_32
    3  A    between atoms: C_6  and  C_23
    4  A    between atoms: C_6  and  C_25
    5  A    between atoms: C_25  and  C_28
                            x       y       z     vdW  Elec       q    Type
                         _______ _______ _______ _____ _____    ______ ____

>  <TORSDO>
F 5

$$$$
=
 OpenBabel11062412403D

 32 36  0  0  1  0  0  0  0  0999 V2000
  184.5080  178.4890  144.0270 C   0  0  0  0  0  0  0  0  0  0  0  0
  183.7680  178.4510  146.3610 O   0  0  0  0  0  1  0  0  0  0  0  0
  185.5780  178.3630  143.0980 C   0  0  0  0  0  0  0  0  0  0  0  0
  186.8700  178.0890  143.5610 C   0  0  0  0  0  3  0  0  0  0  0  0
  184.0480  178.7920  141.2440 C   0  0  0  0  0  0  0  0  0  0  0  0
  183.0050  178.9130  142.1720 C   0  0  0  0  0  0  0  0  0  0  0  0
  183.2220  178.7660  143.5200 C   0  0  2  0  0  3  0  0  0  0  0  0
  186.3970  178.3890  140.8120 O   0  0  0  0  0  1  0  0  0  0  0  0
  181.5850  179.1940  141.8600 C   0  0  0  0  0  3  0  0  0  0  0  0
  185.3450  178.5150  141.7150 C   0  0  0  0  0  0  0  0  0  0  0  0
  184.7730  178.3360  145.4070 C   0  0  0  0  0  0  0  0  0  0  0  0
  181.9630  178.9380  144.2880 C   0  0  0  0  0  3  0  0  0  0  0  0
  187.1170  177.9340  144.9260 C   0  0  0  0  0  0  0  0  0  0  0  0
  186.0720  178.0630  145.8420 C   0  0  0  0  0  3  0  0  0  0  0  0
  180.8980  179.2270  143.2260 C   0  0  0  0  0  3  0  0  0  0  0  0
  183.7960  178.9850  139.7800 C   0  0  0  0  0  2  0  0  0  0  0  0
  184.1010  175.9290  137.6080 N   0  0  0  0  0  0  0  0  0  0  0  0
  184.4050  177.2010  138.0060 C   0  0  0  0  0  0  0  0  0  0  0  0
  183.1510  175.3360  138.3270 N   0  0  0  0  0  0  0  0  0  0  0  0
  185.3510  177.9400  137.3790 F   0  0  0  0  0  0  0  0  0  0  0  0
  182.6600  176.4050  139.4990 S   0  0  0  0  0  0  0  0  0  0  0  0
  183.6680  177.6670  139.0890 C   0  0  0  0  0  0  0  0  0  0  0  0
  188.5000  177.6640  145.4060 C   0  0  0  0  0  2  0  0  0  0  0  0
  189.5070  178.3670  144.5110 C   0  0  0  0  0  2  0  0  0  0  0  0
  192.2080  177.2310  142.0630 C   0  0  0  0  0  2  0  0  0  0  0  0
  189.2120  176.5670  141.9340 C   0  0  0  0  0  3  0  0  0  0  0  0
  191.9040  177.4430  139.7190 O   0  0  0  0  0  0  0  0  0  0  0  0
  189.9010  176.9880  140.8680 C   0  0  0  0  0  3  0  0  0  0  0  0
  191.5700  178.1120  143.1290 C   0  0  0  0  0  2  0  0  0  0  0  0
  191.3580  177.2220  140.8300 C   0  0  0  0  0  0  0  0  0  0  0  0
  190.5210  177.3720  143.9670 C   0  0  2  0  0  3  0  0  0  0  0  0
  189.8350  176.1980  143.2490 C   0  0  0  0  0  2  0  0  0  0  0  0
  1 11  2  0  0  0  0
  3  4  2  0  0  0  0
  3  1  1  0  0  0  0
  4 13  1  0  0  0  0
  5 10  2  0  0  0  0
  5  6  1  0  0  0  0
  6  7  1  0  0  0  0
  7  1  1  0  0  0  0
  7 12  1  1  0  0  0
  8 10  1  0  0  0  0
  9  6  2  0  0  0  0
  9 15  1  0  0  0  0
 10  3  1  0  0  0  0
 11 14  1  0  0  0  0
 11  2  1  0  0  0  0
 13 23  1  0  0  0  0
 13 14  2  0  0  0  0
 15 12  2  0  0  0  0
 16  5  1  0  0  0  0
 17 18  1  0  0  0  0
 17 19  2  0  0  0  0
 18 22  2  0  0  0  0
 19 21  1  0  0  0  0
 20 18  1  0  0  0  0
 22 21  1  0  0  0  0
 22 16  1  0  0  0  0
 24 23  1  0  0  0  0
 25 29  1  0  0  0  0
 26 32  1  0  0  0  0
 27 30  2  0  0  0  0
 28 26  2  0  0  0  0
 29 31  1  0  0  0  0
 30 28  1  0  0  0  0
 30 25  1  0  0  0  0
 31 24  1  6  0  0  0
 32 31  1  0  0  0  0
M  END
>  <MODEL>
8

>  <REMARK>
 VINA RESULT:      -9.1      3.490      7.605
  Name = 
  5 active torsions:
  status: ('A' for Active; 'I' for Inactive)
    1  A    between atoms: C_4  and  C_12
    2  A    between atoms: C_4  and  C_32
    3  A    between atoms: C_6  and  C_23
    4  A    between atoms: C_6  and  C_25
    5  A    between atoms: C_25  and  C_28
                            x       y       z     vdW  Elec       q    Type
                         _______ _______ _______ _____ _____    ______ ____

>  <TORSDO>
F 5

$$$$
=
 OpenBabel11062412403D

 32 36  0  0  1  0  0  0  0  0999 V2000
  183.2620  178.7180  142.5540 C   0  0  0  0  0  0  0  0  0  0  0  0
  181.6120  178.6570  144.3620 O   0  0  0  0  0  1  0  0  0  0  0  0
  184.6320  178.7040  142.1700 C   0  0  0  0  0  0  0  0  0  0  0  0
  185.6270  178.6180  143.1500 C   0  0  0  0  0  3  0  0  0  0  0  0
  183.9950  178.8700  139.8180 C   0  0  0  0  0  0  0  0  0  0  0  0
  182.6510  178.8820  140.2130 C   0  0  0  0  0  0  0  0  0  0  0  0
  182.2910  178.8070  141.5370 C   0  0  2  0  0  3  0  0  0  0  0  0
  186.3340  178.7650  140.4380 O   0  0  0  0  0  1  0  0  0  0  0  0
  181.4760  178.9640  139.3170 C   0  0  0  0  0  3  0  0  0  0  0  0
  184.9910  178.7810  140.8070 C   0  0  0  0  0  0  0  0  0  0  0  0
  182.9320  178.6450  143.9270 C   0  0  0  0  0  0  0  0  0  0  0  0
  180.8140  178.8360  141.6940 C   0  0  0  0  0  3  0  0  0  0  0  0
  185.2880  178.5390  144.5010 C   0  0  0  0  0  0  0  0  0  0  0  0
  183.9460  178.5590  144.8850 C   0  0  0  0  0  3  0  0  0  0  0  0
  180.2750  178.9490  140.2640 C   0  0  0  0  0  3  0  0  0  0  0  0
  184.3680  178.9810  138.3720 C   0  0  0  0  0  2  0  0  0  0  0  0
  184.8220  175.4500  137.1580 N   0  0  0  0  0  0  0  0  0  0  0  0
  184.1290  176.4890  137.7120 C   0  0  0  0  0  0  0  0  0  0  0  0
  186.0800  175.7360  136.8300 N   0  0  0  0  0  0  0  0  0  0  0  0
  182.8360  176.3640  138.0980 F   0  0  0  0  0  0  0  0  0  0  0  0
  186.3610  177.3220  137.2320 S   0  0  0  0  0  0  0  0  0  0  0  0
  184.8520  177.6690  137.8490 C   0  0  0  0  0  0  0  0  0  0  0  0
  186.3570  178.4690  145.5340 C   0  0  0  0  0  2  0  0  0  0  0  0
  187.2500  177.2660  145.2770 C   0  0  0  0  0  2  0  0  0  0  0  0
  190.2840  176.4700  143.0990 C   0  0  0  0  0  2  0  0  0  0  0  0
  190.3160  177.5340  145.9800 C   0  0  0  0  0  3  0  0  0  0  0  0
  192.0810  175.1650  143.9320 O   0  0  0  0  0  0  0  0  0  0  0  0
  191.0790  176.5100  145.5840 C   0  0  0  0  0  3  0  0  0  0  0  0
  188.8340  176.3900  143.5580 C   0  0  0  0  0  2  0  0  0  0  0  0
  191.1950  176.0160  144.1980 C   0  0  0  0  0  0  0  0  0  0  0  0
  188.3790  177.6360  144.3270 C   0  0  2  0  0  3  0  0  0  0  0  0
  189.5050  178.3910  145.0520 C   0  0  0  0  0  2  0  0  0  0  0  0
  1 11  2  0  0  0  0
  3  1  1  0  0  0  0
  3  4  2  0  0  0  0
  4 13  1  0  0  0  0
  5  6  1  0  0  0  0
  5 10  2  0  0  0  0
  6  7  1  0  0  0  0
  7 12  1  1  0  0  0
  7  1  1  0  0  0  0
  8 10  1  0  0  0  0
  9  6  2  0  0  0  0
  9 15  1  0  0  0  0
 10  3  1  0  0  0  0
 11  2  1  0  0  0  0
 11 14  1  0  0  0  0
 13 14  2  0  0  0  0
 13 23  1  0  0  0  0
 15 12  2  0  0  0  0
 16  5  1  0  0  0  0
 17 18  1  0  0  0  0
 18 22  2  0  0  0  0
 18 20  1  0  0  0  0
 19 17  2  0  0  0  0
 19 21  1  0  0  0  0
 21 22  1  0  0  0  0
 22 16  1  0  0  0  0
 24 23  1  0  0  0  0
 25 29  1  0  0  0  0
 25 30  1  0  0  0  0
 27 30  2  0  0  0  0
 28 26  2  0  0  0  0
 29 31  1  0  0  0  0
 30 28  1  0  0  0  0
 31 32  1  0  0  0  0
 31 24  1  1  0  0  0
 32 26  1  0  0  0  0
M  END
>  <MODEL>
9

>  <REMARK>
 VINA RESULT:      -9.1      3.428      8.055
  Name = 
  5 active torsions:
  status: ('A' for Active; 'I' for Inactive)
    1  A    between atoms: C_4  and  C_12
    2  A    between atoms: C_4  and  C_32
    3  A    between atoms: C_6  and  C_23
    4  A    between atoms: C_6  and  C_25
    5  A    between atoms: C_25  and  C_28
                            x       y       z     vdW  Elec       q    Type
                         _______ _______ _______ _____ _____    ______ ____

>  <TORSDO>
F 5

$$$$
