=
 OpenBabel11062416113D

 67 74  0  0  1  0  0  0  0  0999 V2000
  190.0390  177.5780  145.1130 C   0  0  1  0  0  3  0  0  0  0  0  0
  191.8160  176.7360  143.6230 O   0  0  0  0  0  0  0  0  0  0  0  0
  191.1080  179.1290  143.8040 C   0  0  0  0  0  2  0  0  0  0  0  0
  190.8910  178.7340  145.2020 N   0  0  0  0  0  2  0  0  0  0  0  0
  190.8320  176.3720  144.6010 C   0  0  0  0  0  2  0  0  0  0  0  0
  191.5020  177.9310  142.9120 C   0  0  2  0  0  3  0  0  0  0  0  0
  188.9800  177.4460  146.2290 C   0  0  1  0  0  0  0  0  0  0  0  0
  189.4490  177.2560  147.6100 C   0  0  0  0  0  2  0  0  0  0  0  0
  188.9710  178.5050  147.1430 O   0  0  0  0  0  0  0  0  0  0  0  0
  187.6700  176.9650  145.9610 O   0  0  0  0  0  0  0  0  0  0  0  0
  186.9880  177.8880  145.1400 C   0  0  2  0  0  3  0  0  0  0  0  0
  184.4940  178.4210  142.9070 C   0  0  2  0  0  3  0  0  0  0  0  0
  183.9970  179.3350  144.0350 C   0  0  1  0  0  3  0  0  0  0  0  0
  185.5260  177.9610  145.5150 C   0  0  2  0  0  3  0  0  0  0  0  0
  185.9600  177.2300  144.2270 C   0  0  1  0  0  3  0  0  0  0  0  0
  185.8540  178.0400  143.0640 O   0  0  0  0  0  0  0  0  0  0  0  0
  182.6390  178.8480  144.4930 C   0  0  0  0  0  1  0  0  0  0  0  0
  184.9740  179.3580  145.2120 C   0  0  0  0  0  2  0  0  0  0  0  0
  184.1890  178.9570  141.6330 O   0  0  0  0  0  0  0  0  0  0  0  0
  183.1760  178.0510  139.5870 C   0  0  2  0  0  3  0  0  0  0  0  0
  182.4470  179.1150  140.1400 O   0  0  0  0  0  0  0  0  0  0  0  0
  183.0900  178.2660  141.0670 C   0  0  2  0  0  3  0  0  0  0  0  0
  184.4400  178.5870  138.9300 C   0  0  0  0  0  2  0  0  0  0  0  0
  184.6940  177.8370  137.6330 C   0  0  1  0  0  3  0  0  0  0  0  0
  186.0890  177.2190  137.6360 C   0  0  0  0  0  1  0  0  0  0  0  0
  183.6630  176.7740  137.3950 C   0  0  0  0  0  0  0  0  0  0  0  0
  182.4900  177.0440  136.7640 N   0  0  0  0  0  0  0  0  0  0  0  0
  181.7030  173.5450  136.9090 N   0  0  0  0  0  2  0  0  0  0  0  0
  181.7400  175.9540  136.5700 N   0  0  0  0  0  0  0  0  0  0  0  0
  182.3120  174.8270  137.0430 C   0  0  0  0  0  0  0  0  0  0  0  0
  183.8250  175.1190  137.7250 S   0  0  0  0  0  0  0  0  0  0  0  0
  182.3520  172.4060  137.3050 O   0  0  0  0  0  0  0  0  0  0  0  0
  185.0490  170.8520  135.3150 C   0  0  0  0  0  3  0  0  0  0  0  0
  184.4010  171.6910  136.2230 C   0  0  0  0  0  3  0  0  0  0  0  0
  182.9770  169.8310  134.7310 C   0  0  0  0  0  3  0  0  0  0  0  0
  180.8210  170.5030  135.7780 C   0  0  0  0  0  1  0  0  0  0  0  0
  183.0100  171.5960  136.3780 C   0  0  0  0  0  0  0  0  0  0  0  0
  182.2890  170.6590  135.6210 C   0  0  0  0  0  0  0  0  0  0  0  0
  184.3320  169.9430  134.5960 N   0  0  0  0  0  0  0  0  0  0  0  0
  190.7040  177.7720  141.5850 C   0  0  2  0  0  3  0  0  0  0  0  0
  189.2720  177.2110  141.7840 C   0  0  2  0  0  3  0  0  0  0  0  0
  188.7970  176.6330  140.4600 C   0  0  0  0  0  1  0  0  0  0  0  0
  188.3350  179.0950  141.0510 C   0  0  0  0  0  1  0  0  0  0  0  0
  188.3940  178.2460  142.1470 O   0  0  0  0  0  0  0  0  0  0  0  0
  191.3970  177.2760  140.3200 C   0  0  2  0  0  3  0  0  0  0  0  0
  192.8770  177.6470  140.3500 C   0  0  0  0  0  2  0  0  0  0  0  0
  193.8280  176.4750  140.1940 C   0  0  0  0  0  1  0  0  0  0  0  0
  190.6460  177.8780  139.1350 C   0  0  0  0  0  2  0  0  0  0  0  0
  190.7620  177.0550  137.8620 C   0  0  0  0  0  2  0  0  0  0  0  0
  189.0750  176.5950  135.9670 N   0  0  0  0  0  2  0  0  0  0  0  0
  189.3060  175.1800  135.8270 C   0  0  0  0  0  0  0  0  0  0  0  0
  189.7230  177.5030  136.8820 C   0  0  0  0  0  0  0  0  0  0  0  0
  189.3860  178.7160  136.8580 O   0  0  0  0  0  0  0  0  0  0  0  0
  188.3760  174.4650  135.3630 O   0  0  0  0  0  0  0  0  0  0  0  0
  190.5530  174.5260  136.3120 C   0  0  1  0  0  3  0  0  0  0  0  0
  190.2310  173.1640  136.9150 C   0  0  0  0  0  1  0  0  0  0  0  0
  191.9330  175.6040  134.6050 O   0  0  0  0  0  1  0  0  0  0  0  0
  191.6620  174.3950  135.2640 C   0  0  1  0  0  3  0  0  0  0  0  0
  192.9380  173.7200  135.8030 C   0  0  2  0  0  3  0  0  0  0  0  0
  194.6720  172.0770  134.7620 C   0  0  0  0  0  2  0  0  0  0  0  0
  194.3760  171.4760  136.1190 C   0  0  0  0  0  2  0  0  0  0  0  0
  193.3070  172.2690  135.4010 C   0  0  0  0  0  0  0  0  0  0  0  0
  192.3190  171.4760  134.8320 O   0  0  0  0  0  1  0  0  0  0  0  0
  193.3530  174.2430  137.1990 C   0  0  0  0  0  2  0  0  0  0  0  0
  194.2610  176.4830  136.5860 O   0  0  0  0  0  0  0  0  0  0  0  0
  195.6170  174.9080  137.5850 O   0  0  0  0  0  1  0  0  0  0  0  0
  194.4720  175.2350  137.1750 C   0  0  0  0  0  0  0  0  0  0  0  0
  1  5  1  1  0  0  0
  1  4  1  0  0  0  0
  1  7  1  0  0  0  0
  2  5  1  0  0  0  0
  3  4  1  0  0  0  0
  6 40  1  6  0  0  0
  6  2  1  0  0  0  0
  6  3  1  0  0  0  0
  7 10  1  6  0  0  0
  7  9  1  0  0  0  0
  7  8  1  0  0  0  0
  9  8  1  0  0  0  0
 11 14  1  0  0  0  0
 11 10  1  1  0  0  0
 12 19  1  6  0  0  0
 12 16  1  0  0  0  0
 12 13  1  0  0  0  0
 13 17  1  1  0  0  0
 13 18  1  0  0  0  0
 14 18  1  6  0  0  0
 15 16  1  6  0  0  0
 15 11  1  0  0  0  0
 15 14  1  0  0  0  0
 20 23  1  6  0  0  0
 20 21  1  0  0  0  0
 20 22  1  0  0  0  0
 21 22  1  0  0  0  0
 22 19  1  6  0  0  0
 24 25  1  1  0  0  0
 24 23  1  0  0  0  0
 26 24  1  0  0  0  0
 26 31  1  0  0  0  0
 27 26  2  0  0  0  0
 28 30  1  0  0  0  0
 28 32  1  0  0  0  0
 29 27  1  0  0  0  0
 29 30  2  0  0  0  0
 30 31  1  0  0  0  0
 33 34  1  0  0  0  0
 34 37  2  0  0  0  0
 35 38  2  0  0  0  0
 37 32  1  0  0  0  0
 38 36  1  0  0  0  0
 38 37  1  0  0  0  0
 39 35  1  0  0  0  0
 39 33  2  0  0  0  0
 40 45  1  6  0  0  0
 40 41  1  0  0  0  0
 41 42  1  6  0  0  0
 41 44  1  0  0  0  0
 43 44  1  0  0  0  0
 45 48  1  6  0  0  0
 45 46  1  0  0  0  0
 47 46  1  0  0  0  0
 49 48  1  0  0  0  0
 50 52  1  0  0  0  0
 51 50  1  0  0  0  0
 51 55  1  0  0  0  0
 52 49  1  0  0  0  0
 53 52  2  0  0  0  0
 54 51  2  0  0  0  0
 55 56  1  6  0  0  0
 58 57  1  1  0  0  0
 58 59  1  0  0  0  0
 58 55  1  0  0  0  0
 59 64  1  1  0  0  0
 60 62  1  0  0  0  0
 60 61  1  0  0  0  0
 62 59  1  0  0  0  0
 62 61  1  0  0  0  0
 63 62  1  0  0  0  0
 65 67  2  0  0  0  0
 67 64  1  0  0  0  0
 67 66  1  0  0  0  0
M  END
>  <MODEL>
1

>  <REMARK>
 VINA RESULT:      -5.9      0.000      0.000
  Name = 
  24 active torsions:
  status: ('A' for Active; 'I' for Inactive)
    1  A    between atoms: C_1  and  C_18
    2  A    between atoms: C_3  and  C_31
    3  A    between atoms: C_3  and  C_55
    4  A    between atoms: C_5  and  C_30
    5  A    between atoms: C_5  and  C_33
    6  A    between atoms: C_5  and  C_40
    7  A    between atoms: C_6  and  C_12
    8  A    between atoms: C_6  and  C_42
    9  A    between atoms: C_6  and  C_44
   10  A    between atoms: C_7  and  O_17
   11  A    between atoms: C_10  and  C_31
   12  A    between atoms: C_11  and  O_54
   13  A    between atoms: C_12  and  C_26
   14  A    between atoms: C_12  and  C_67
   15  A    between atoms: N_15  and  O_62
   16  A    between atoms: O_17  and  C_18
   17  A    between atoms: C_26  and  O_61
   18  A    between atoms: C_30  and  C_35
   19  A    between atoms: C_33  and  C_34
   20  A    between atoms: C_35  and  C_39
   21  A    between atoms: C_41  and  C_42
   22  A    between atoms: C_41  and  C_59
   23  A    between atoms: C_46  and  O_62
   24  A    between atoms: O_54  and  C_63
                            x       y       z     vdW  Elec       q    Type
                         _______ _______ _______ _____ _____    ______ ____

>  <TORSDO>
F 24

$$$$
=
 OpenBabel11062416113D

 67 74  0  0  1  0  0  0  0  0999 V2000
  188.6490  177.2700  143.2060 C   0  0  1  0  0  3  0  0  0  0  0  0
  187.4460  177.8990  145.2650 O   0  0  0  0  0  0  0  0  0  0  0  0
  186.6190  176.2630  143.5620 C   0  0  0  0  0  2  0  0  0  0  0  0
  188.0570  175.9820  143.4510 N   0  0  0  0  0  2  0  0  0  0  0  0
  188.6280  178.1160  144.4820 C   0  0  0  0  0  2  0  0  0  0  0  0
  186.3270  177.4540  144.5030 C   0  0  2  0  0  3  0  0  0  0  0  0
  189.8570  177.2720  142.2440 C   0  0  1  0  0  0  0  0  0  0  0  0
  191.0860  176.5860  142.6720 C   0  0  0  0  0  2  0  0  0  0  0  0
  190.1920  176.0140  141.7350 O   0  0  0  0  0  0  0  0  0  0  0  0
  190.0410  178.3010  141.2800 O   0  0  0  0  0  0  0  0  0  0  0  0
  189.8660  177.7680  139.9840 C   0  0  2  0  0  3  0  0  0  0  0  0
  187.7010  176.6650  137.6210 C   0  0  2  0  0  3  0  0  0  0  0  0
  188.2990  177.8530  136.8550 C   0  0  1  0  0  3  0  0  0  0  0  0
  189.0070  178.6810  139.1410 C   0  0  2  0  0  3  0  0  0  0  0  0
  188.4260  177.3620  139.6950 C   0  0  1  0  0  3  0  0  0  0  0  0
  188.4730  176.2970  138.7560 O   0  0  0  0  0  0  0  0  0  0  0  0
  187.1880  178.8280  136.5260 C   0  0  0  0  0  1  0  0  0  0  0  0
  189.3920  178.5520  137.6640 C   0  0  0  0  0  2  0  0  0  0  0  0
  187.3990  175.5870  136.7550 O   0  0  0  0  0  0  0  0  0  0  0  0
  185.2380  174.4800  136.3900 C   0  0  2  0  0  3  0  0  0  0  0  0
  185.8970  174.8120  135.1960 O   0  0  0  0  0  0  0  0  0  0  0  0
  186.0760  175.7160  136.2660 C   0  0  2  0  0  3  0  0  0  0  0  0
  185.9320  173.2930  137.0420 C   0  0  0  0  0  2  0  0  0  0  0  0
  185.9700  172.1290  136.0650 C   0  0  1  0  0  3  0  0  0  0  0  0
  185.1790  172.4620  134.8040 C   0  0  0  0  0  1  0  0  0  0  0  0
  187.3760  171.7530  135.7040 C   0  0  0  0  0  0  0  0  0  0  0  0
  187.7130  170.4800  135.3680 N   0  0  0  0  0  0  0  0  0  0  0  0
  191.0330  171.6370  134.6450 N   0  0  0  0  0  2  0  0  0  0  0  0
  188.9920  170.3600  134.9960 N   0  0  0  0  0  0  0  0  0  0  0  0
  189.6670  171.5280  135.0360 C   0  0  0  0  0  0  0  0  0  0  0  0
  188.6890  172.8110  135.5240 S   0  0  0  0  0  0  0  0  0  0  0  0
  191.6630  172.8520  134.5960 O   0  0  0  0  0  0  0  0  0  0  0  0
  195.1840  172.9010  135.7170 C   0  0  0  0  0  3  0  0  0  0  0  0
  194.0500  172.6160  134.9530 C   0  0  0  0  0  3  0  0  0  0  0  0
  193.8660  174.1410  137.2670 C   0  0  0  0  0  3  0  0  0  0  0  0
  191.4090  174.4310  136.9920 C   0  0  0  0  0  1  0  0  0  0  0  0
  192.8000  173.1020  135.3660 C   0  0  0  0  0  0  0  0  0  0  0  0
  192.7060  173.8690  136.5380 C   0  0  0  0  0  0  0  0  0  0  0  0
  195.0720  173.6560  136.8470 N   0  0  0  0  0  0  0  0  0  0  0  0
  185.3720  178.5490  143.9460 C   0  0  2  0  0  3  0  0  0  0  0  0
  184.8350  179.5160  145.0320 C   0  0  2  0  0  3  0  0  0  0  0  0
  185.8390  179.5580  146.1740 C   0  0  0  0  0  1  0  0  0  0  0  0
  183.9450  177.9990  146.4010 C   0  0  0  0  0  1  0  0  0  0  0  0
  183.6160  179.0380  145.5420 O   0  0  0  0  0  0  0  0  0  0  0  0
  184.3590  178.2110  142.8560 C   0  0  2  0  0  3  0  0  0  0  0  0
  184.9450  178.5130  141.4800 C   0  0  0  0  0  2  0  0  0  0  0  0
  186.1830  179.3900  141.4960 C   0  0  0  0  0  1  0  0  0  0  0  0
  183.0930  179.0070  143.1620 C   0  0  0  0  0  2  0  0  0  0  0  0
  182.0380  178.9110  142.0720 C   0  0  0  0  0  2  0  0  0  0  0  0
  179.7000  177.8360  142.2380 N   0  0  0  0  0  2  0  0  0  0  0  0
  179.8270  176.9010  141.1490 C   0  0  0  0  0  0  0  0  0  0  0  0
  180.6840  178.7860  142.6980 C   0  0  0  0  0  0  0  0  0  0  0  0
  180.3890  179.5260  143.6730 O   0  0  0  0  0  0  0  0  0  0  0  0
  179.1220  175.8560  141.1730 O   0  0  0  0  0  0  0  0  0  0  0  0
  180.8350  177.0740  140.0660 C   0  0  1  0  0  3  0  0  0  0  0  0
  181.5590  175.7580  139.8090 C   0  0  0  0  0  1  0  0  0  0  0  0
  178.9320  178.0100  138.8490 O   0  0  0  0  0  1  0  0  0  0  0  0
  180.2840  177.6430  138.7560 C   0  0  1  0  0  3  0  0  0  0  0  0
  181.1570  178.7620  138.1580 C   0  0  2  0  0  3  0  0  0  0  0  0
  179.7020  180.8890  137.7730 C   0  0  0  0  0  2  0  0  0  0  0  0
  179.6760  180.7020  139.2750 C   0  0  0  0  0  2  0  0  0  0  0  0
  180.8840  180.2530  138.4840 C   0  0  0  0  0  0  0  0  0  0  0  0
  181.9730  181.1060  138.6060 O   0  0  0  0  0  1  0  0  0  0  0  0
  181.7520  178.3900  136.7780 C   0  0  0  0  0  2  0  0  0  0  0  0
  179.4710  177.7510  136.0010 O   0  0  0  0  0  1  0  0  0  0  0  0
  181.3260  176.6160  135.2330 O   0  0  0  0  0  0  0  0  0  0  0  0
  180.8510  177.5540  135.9270 C   0  0  0  0  0  0  0  0  0  0  0  0
  1  4  1  0  0  0  0
  1  5  1  1  0  0  0
  3  6  1  0  0  0  0
  4  3  1  0  0  0  0
  5  2  1  0  0  0  0
  6 40  1  6  0  0  0
  6  2  1  0  0  0  0
  7 10  1  6  0  0  0
  7  8  1  0  0  0  0
  7  1  1  0  0  0  0
  9  7  1  0  0  0  0
  9  8  1  0  0  0  0
 11 10  1  1  0  0  0
 12 19  1  6  0  0  0
 12 16  1  0  0  0  0
 13 17  1  1  0  0  0
 13 12  1  0  0  0  0
 13 18  1  0  0  0  0
 14 18  1  6  0  0  0
 14 15  1  0  0  0  0
 14 11  1  0  0  0  0
 15 16  1  6  0  0  0
 15 11  1  0  0  0  0
 20 23  1  1  0  0  0
 21 22  1  0  0  0  0
 21 20  1  0  0  0  0
 22 20  1  0  0  0  0
 22 19  1  1  0  0  0
 24 25  1  6  0  0  0
 24 23  1  0  0  0  0
 26 24  1  0  0  0  0
 27 26  2  0  0  0  0
 28 30  1  0  0  0  0
 29 30  2  0  0  0  0
 29 27  1  0  0  0  0
 30 31  1  0  0  0  0
 31 26  1  0  0  0  0
 32 28  1  0  0  0  0
 32 37  1  0  0  0  0
 33 39  1  0  0  0  0
 34 37  1  0  0  0  0
 34 33  2  0  0  0  0
 37 38  2  0  0  0  0
 38 36  1  0  0  0  0
 38 35  1  0  0  0  0
 39 35  2  0  0  0  0
 40 45  1  1  0  0  0
 40 41  1  0  0  0  0
 41 44  1  0  0  0  0
 41 42  1  1  0  0  0
 44 43  1  0  0  0  0
 45 46  1  6  0  0  0
 45 48  1  0  0  0  0
 46 47  1  0  0  0  0
 49 52  1  0  0  0  0
 49 48  1  0  0  0  0
 50 52  1  0  0  0  0
 51 54  2  0  0  0  0
 51 50  1  0  0  0  0
 52 53  2  0  0  0  0
 55 56  1  6  0  0  0
 55 51  1  0  0  0  0
 58 57  1  1  0  0  0
 58 55  1  0  0  0  0
 59 64  1  6  0  0  0
 59 62  1  0  0  0  0
 59 58  1  0  0  0  0
 60 62  1  0  0  0  0
 60 61  1  0  0  0  0
 62 63  1  0  0  0  0
 62 61  1  0  0  0  0
 66 67  2  0  0  0  0
 67 65  1  0  0  0  0
 67 64  1  0  0  0  0
M  END
>  <MODEL>
2

>  <REMARK>
 VINA RESULT:      -4.2      2.920      9.444
  Name = 
  24 active torsions:
  status: ('A' for Active; 'I' for Inactive)
    1  A    between atoms: C_1  and  C_18
    2  A    between atoms: C_3  and  C_31
    3  A    between atoms: C_3  and  C_55
    4  A    between atoms: C_5  and  C_30
    5  A    between atoms: C_5  and  C_33
    6  A    between atoms: C_5  and  C_40
    7  A    between atoms: C_6  and  C_12
    8  A    between atoms: C_6  and  C_42
    9  A    between atoms: C_6  and  C_44
   10  A    between atoms: C_7  and  O_17
   11  A    between atoms: C_10  and  C_31
   12  A    between atoms: C_11  and  O_54
   13  A    between atoms: C_12  and  C_26
   14  A    between atoms: C_12  and  C_67
   15  A    between atoms: N_15  and  O_62
   16  A    between atoms: O_17  and  C_18
   17  A    between atoms: C_26  and  O_61
   18  A    between atoms: C_30  and  C_35
   19  A    between atoms: C_33  and  C_34
   20  A    between atoms: C_35  and  C_39
   21  A    between atoms: C_41  and  C_42
   22  A    between atoms: C_41  and  C_59
   23  A    between atoms: C_46  and  O_62
   24  A    between atoms: O_54  and  C_63
                            x       y       z     vdW  Elec       q    Type
                         _______ _______ _______ _____ _____    ______ ____

>  <TORSDO>
F 24

$$$$
=
 OpenBabel11062416113D

 67 74  0  0  1  0  0  0  0  0999 V2000
  185.8140  178.7330  141.7360 C   0  0  1  0  0  3  0  0  0  0  0  0
  187.4860  179.2110  143.4860 O   0  0  0  0  0  0  0  0  0  0  0  0
  188.0180  178.5430  141.1340 C   0  0  0  0  0  2  0  0  0  0  0  0
  186.8000  179.3190  140.8670 N   0  0  0  0  0  2  0  0  0  0  0  0
  186.0850  179.1310  143.1900 C   0  0  0  0  0  2  0  0  0  0  0  0
  188.2960  178.3910  142.6470 C   0  0  2  0  0  3  0  0  0  0  0  0
  184.3820  178.6620  141.1620 C   0  0  1  0  0  0  0  0  0  0  0  0
  183.4110  177.7810  141.8270 C   0  0  0  0  0  2  0  0  0  0  0  0
  183.3960  179.1850  142.0030 O   0  0  0  0  0  0  0  0  0  0  0  0
  184.1130  178.9380  139.7930 O   0  0  0  0  0  0  0  0  0  0  0  0
  184.4590  177.8150  139.0100 C   0  0  2  0  0  3  0  0  0  0  0  0
  184.5880  176.4210  135.9230 C   0  0  2  0  0  3  0  0  0  0  0  0
  186.0910  176.4390  136.2360 C   0  0  1  0  0  3  0  0  0  0  0  0
  185.4820  178.1880  137.9630 C   0  0  2  0  0  3  0  0  0  0  0  0
  184.0130  177.9400  137.5580 C   0  0  1  0  0  3  0  0  0  0  0  0
  183.7830  176.6240  137.0770 O   0  0  0  0  0  0  0  0  0  0  0  0
  186.7940  177.2880  135.1990 C   0  0  0  0  0  1  0  0  0  0  0  0
  186.3670  176.9800  137.6380 C   0  0  0  0  0  2  0  0  0  0  0  0
  184.2300  175.2830  135.1620 O   0  0  0  0  0  0  0  0  0  0  0  0
  184.1130  172.8840  135.6720 C   0  0  2  0  0  3  0  0  0  0  0  0
  184.2910  173.6830  136.8120 O   0  0  0  0  0  0  0  0  0  0  0  0
  184.9230  174.1440  135.6370 C   0  0  2  0  0  3  0  0  0  0  0  0
  182.6830  173.0230  135.1710 C   0  0  0  0  0  2  0  0  0  0  0  0
  181.7660  172.1450  136.0060 C   0  0  1  0  0  3  0  0  0  0  0  0
  182.5820  171.2190  136.9030 C   0  0  0  0  0  1  0  0  0  0  0  0
  180.8200  172.9600  136.8350 C   0  0  0  0  0  0  0  0  0  0  0  0
  179.8450  172.3820  137.5870 N   0  0  0  0  0  0  0  0  0  0  0  0
  179.0200  175.6320  138.8670 N   0  0  0  0  0  2  0  0  0  0  0  0
  179.1600  173.2650  138.3200 N   0  0  0  0  0  0  0  0  0  0  0  0
  179.5860  174.5350  138.1540 C   0  0  0  0  0  0  0  0  0  0  0  0
  180.8800  174.6370  137.0790 S   0  0  0  0  0  0  0  0  0  0  0  0
  179.5390  176.8950  138.7560 O   0  0  0  0  0  0  0  0  0  0  0  0
  179.7830  177.9910  142.2770 C   0  0  0  0  0  3  0  0  0  0  0  0
  179.6160  177.1620  141.1650 C   0  0  0  0  0  3  0  0  0  0  0  0
  180.0720  179.8850  140.8590 C   0  0  0  0  0  3  0  0  0  0  0  0
  179.9990  179.7120  138.3770 C   0  0  0  0  0  1  0  0  0  0  0  0
  179.6720  177.7160  139.8780 C   0  0  0  0  0  0  0  0  0  0  0  0
  179.8980  179.0920  139.7220 C   0  0  0  0  0  0  0  0  0  0  0  0
  180.0110  179.3240  142.1040 N   0  0  0  0  0  0  0  0  0  0  0  0
  188.5970  176.9490  143.1470 C   0  0  2  0  0  3  0  0  0  0  0  0
  188.6340  176.8220  144.6910 C   0  0  2  0  0  3  0  0  0  0  0  0
  187.2690  177.2140  145.2370 C   0  0  0  0  0  1  0  0  0  0  0  0
  189.9350  177.1860  146.4640 C   0  0  0  0  0  1  0  0  0  0  0  0
  189.5860  177.7070  145.2260 O   0  0  0  0  0  0  0  0  0  0  0  0
  189.6210  176.0780  142.4250 C   0  0  2  0  0  3  0  0  0  0  0  0
  190.4120  175.2490  143.4330 C   0  0  0  0  0  2  0  0  0  0  0  0
  191.8540  175.6830  143.6190 C   0  0  0  0  0  1  0  0  0  0  0  0
  190.4950  177.0140  141.5940 C   0  0  0  0  0  2  0  0  0  0  0  0
  190.9800  176.3940  140.2930 C   0  0  0  0  0  2  0  0  0  0  0  0
  192.5930  177.0720  138.3980 N   0  0  0  0  0  2  0  0  0  0  0  0
  192.0760  176.2040  137.3710 C   0  0  0  0  0  0  0  0  0  0  0  0
  192.1290  177.1920  139.7590 C   0  0  0  0  0  0  0  0  0  0  0  0
  192.7110  178.0120  140.5180 O   0  0  0  0  0  0  0  0  0  0  0  0
  192.2420  176.5390  136.1660 O   0  0  0  0  0  0  0  0  0  0  0  0
  191.2650  174.9950  137.6850 C   0  0  1  0  0  3  0  0  0  0  0  0
  189.7790  175.3210  137.5850 C   0  0  0  0  0  1  0  0  0  0  0  0
  190.8830  173.7160  135.6360 O   0  0  0  0  0  1  0  0  0  0  0  0
  191.5960  173.7590  136.8440 C   0  0  1  0  0  3  0  0  0  0  0  0
  193.1080  173.5430  136.6430 C   0  0  2  0  0  3  0  0  0  0  0  0
  194.8640  173.2560  134.7400 C   0  0  0  0  0  2  0  0  0  0  0  0
  194.9650  171.9640  135.5210 C   0  0  0  0  0  2  0  0  0  0  0  0
  193.6460  172.7010  135.4580 C   0  0  0  0  0  0  0  0  0  0  0  0
  192.7250  172.1140  134.6000 O   0  0  0  0  0  1  0  0  0  0  0  0
  193.9020  173.5660  137.9720 C   0  0  0  0  0  2  0  0  0  0  0  0
  195.4150  175.0650  139.2680 O   0  0  0  0  0  1  0  0  0  0  0  0
  195.4070  175.1260  136.9620 O   0  0  0  0  0  0  0  0  0  0  0  0
  194.9780  174.6030  138.0250 C   0  0  0  0  0  0  0  0  0  0  0  0
  1  5  1  1  0  0  0
  3  6  1  0  0  0  0
  4  3  1  0  0  0  0
  4  1  1  0  0  0  0
  5  2  1  0  0  0  0
  6 40  1  1  0  0  0
  6  2  1  0  0  0  0
  7 10  1  6  0  0  0
  7  1  1  0  0  0  0
  7  8  1  0  0  0  0
  7  9  1  0  0  0  0
  8  9  1  0  0  0  0
 11 10  1  1  0  0  0
 12 19  1  1  0  0  0
 12 13  1  0  0  0  0
 12 16  1  0  0  0  0
 13 17  1  6  0  0  0
 13 18  1  0  0  0  0
 14 18  1  6  0  0  0
 14 11  1  0  0  0  0
 15 16  1  6  0  0  0
 15 14  1  0  0  0  0
 15 11  1  0  0  0  0
 20 23  1  6  0  0  0
 20 21  1  0  0  0  0
 22 19  1  6  0  0  0
 22 20  1  0  0  0  0
 22 21  1  0  0  0  0
 23 24  1  0  0  0  0
 24 26  1  0  0  0  0
 24 25  1  1  0  0  0
 26 31  1  0  0  0  0
 26 27  2  0  0  0  0
 27 29  1  0  0  0  0
 30 29  2  0  0  0  0
 30 28  1  0  0  0  0
 31 30  1  0  0  0  0
 32 28  1  0  0  0  0
 32 37  1  0  0  0  0
 34 33  2  0  0  0  0
 35 39  2  0  0  0  0
 36 38  1  0  0  0  0
 37 34  1  0  0  0  0
 38 37  2  0  0  0  0
 38 35  1  0  0  0  0
 39 33  1  0  0  0  0
 40 45  1  6  0  0  0
 40 41  1  0  0  0  0
 41 44  1  0  0  0  0
 41 42  1  1  0  0  0
 44 43  1  0  0  0  0
 45 48  1  1  0  0  0
 45 46  1  0  0  0  0
 46 47  1  0  0  0  0
 49 48  1  0  0  0  0
 50 52  1  0  0  0  0
 51 55  1  0  0  0  0
 51 50  1  0  0  0  0
 52 49  1  0  0  0  0
 52 53  2  0  0  0  0
 54 51  2  0  0  0  0
 55 56  1  6  0  0  0
 58 57  1  6  0  0  0
 58 55  1  0  0  0  0
 59 58  1  0  0  0  0
 59 64  1  1  0  0  0
 60 62  1  0  0  0  0
 60 61  1  0  0  0  0
 62 61  1  0  0  0  0
 62 59  1  0  0  0  0
 63 62  1  0  0  0  0
 64 67  1  0  0  0  0
 66 67  2  0  0  0  0
 67 65  1  0  0  0  0
M  END
>  <MODEL>
3

>  <REMARK>
 VINA RESULT:      -4.1      2.401      5.948
  Name = 
  24 active torsions:
  status: ('A' for Active; 'I' for Inactive)
    1  A    between atoms: C_1  and  C_18
    2  A    between atoms: C_3  and  C_31
    3  A    between atoms: C_3  and  C_55
    4  A    between atoms: C_5  and  C_30
    5  A    between atoms: C_5  and  C_33
    6  A    between atoms: C_5  and  C_40
    7  A    between atoms: C_6  and  C_12
    8  A    between atoms: C_6  and  C_42
    9  A    between atoms: C_6  and  C_44
   10  A    between atoms: C_7  and  O_17
   11  A    between atoms: C_10  and  C_31
   12  A    between atoms: C_11  and  O_54
   13  A    between atoms: C_12  and  C_26
   14  A    between atoms: C_12  and  C_67
   15  A    between atoms: N_15  and  O_62
   16  A    between atoms: O_17  and  C_18
   17  A    between atoms: C_26  and  O_61
   18  A    between atoms: C_30  and  C_35
   19  A    between atoms: C_33  and  C_34
   20  A    between atoms: C_35  and  C_39
   21  A    between atoms: C_41  and  C_42
   22  A    between atoms: C_41  and  C_59
   23  A    between atoms: C_46  and  O_62
   24  A    between atoms: O_54  and  C_63
                            x       y       z     vdW  Elec       q    Type
                         _______ _______ _______ _____ _____    ______ ____

>  <TORSDO>
F 24

$$$$
=
 OpenBabel11062416113D

 67 74  0  0  1  0  0  0  0  0999 V2000
  184.7100  178.6020  141.4280 C   0  0  1  0  0  3  0  0  0  0  0  0
  185.9680  179.6640  143.2650 O   0  0  0  0  0  0  0  0  0  0  0  0
  186.9960  178.4330  141.3450 C   0  0  0  0  0  2  0  0  0  0  0  0
  185.8420  179.0090  140.6400 N   0  0  0  0  0  2  0  0  0  0  0  0
  184.6620  179.3960  142.7370 C   0  0  0  0  0  2  0  0  0  0  0  0
  186.9540  178.7170  142.8630 C   0  0  2  0  0  3  0  0  0  0  0  0
  183.4320  178.2640  140.6300 C   0  0  1  0  0  0  0  0  0  0  0  0
  182.5550  177.2010  141.1420 C   0  0  0  0  0  2  0  0  0  0  0  0
  182.2400  178.5740  141.2920 O   0  0  0  0  0  0  0  0  0  0  0  0
  183.3400  178.5050  139.2320 O   0  0  0  0  0  0  0  0  0  0  0  0
  184.0660  177.5140  138.5350 C   0  0  2  0  0  3  0  0  0  0  0  0
  184.8830  176.1520  135.5410 C   0  0  2  0  0  3  0  0  0  0  0  0
  186.2810  176.6080  135.9810 C   0  0  1  0  0  3  0  0  0  0  0  0
  185.0360  178.1430  137.5640 C   0  0  2  0  0  3  0  0  0  0  0  0
  183.7450  177.4750  137.0460 C   0  0  1  0  0  3  0  0  0  0  0  0
  183.9460  176.1380  136.6100 O   0  0  0  0  0  0  0  0  0  0  0  0
  186.8090  177.6020  134.9690 C   0  0  0  0  0  1  0  0  0  0  0  0
  186.2560  177.2360  137.3750 C   0  0  0  0  0  2  0  0  0  0  0  0
  184.9380  174.9440  134.8060 O   0  0  0  0  0  0  0  0  0  0  0  0
  185.1120  172.5820  135.4540 C   0  0  2  0  0  3  0  0  0  0  0  0
  184.8390  173.4320  136.5360 O   0  0  0  0  0  0  0  0  0  0  0  0
  185.6700  173.9700  135.5290 C   0  0  2  0  0  3  0  0  0  0  0  0
  183.8640  172.4330  134.5950 C   0  0  0  0  0  2  0  0  0  0  0  0
  182.8870  171.4910  135.2790 C   0  0  1  0  0  3  0  0  0  0  0  0
  183.6330  170.4960  136.1640 C   0  0  0  0  0  1  0  0  0  0  0  0
  181.8720  172.2380  136.0910 C   0  0  0  0  0  0  0  0  0  0  0  0
  181.2550  171.6730  137.1620 N   0  0  0  0  0  0  0  0  0  0  0  0
  179.6580  174.8240  137.8000 N   0  0  0  0  0  2  0  0  0  0  0  0
  180.4480  172.5220  137.8060 N   0  0  0  0  0  0  0  0  0  0  0  0
  180.4230  173.7530  137.2530 C   0  0  0  0  0  0  0  0  0  0  0  0
  181.4400  173.8680  135.9140 S   0  0  0  0  0  0  0  0  0  0  0  0
  179.7320  176.0880  137.2790 O   0  0  0  0  0  0  0  0  0  0  0  0
  178.9410  178.1970  140.2080 C   0  0  0  0  0  3  0  0  0  0  0  0
  179.0610  177.0700  139.3920 C   0  0  0  0  0  3  0  0  0  0  0  0
  179.8390  179.5780  138.4870 C   0  0  0  0  0  3  0  0  0  0  0  0
  180.5460  178.6650  136.2820 C   0  0  0  0  0  1  0  0  0  0  0  0
  179.5760  177.2100  138.0950 C   0  0  0  0  0  0  0  0  0  0  0  0
  179.9650  178.4780  137.6350 C   0  0  0  0  0  0  0  0  0  0  0  0
  179.3330  179.4180  139.7460 N   0  0  0  0  0  0  0  0  0  0  0  0
  187.1770  177.4910  143.7960 C   0  0  2  0  0  3  0  0  0  0  0  0
  186.4010  177.5800  145.1350 C   0  0  2  0  0  3  0  0  0  0  0  0
  184.9170  177.7020  144.8210 C   0  0  0  0  0  1  0  0  0  0  0  0
  185.6150  179.3850  146.1800 C   0  0  0  0  0  1  0  0  0  0  0  0
  186.7910  178.7290  145.8440 O   0  0  0  0  0  0  0  0  0  0  0  0
  188.5570  176.8520  143.9160 C   0  0  2  0  0  3  0  0  0  0  0  0
  188.8930  176.5970  145.3830 C   0  0  0  0  0  2  0  0  0  0  0  0
  189.1140  177.8500  146.2100 C   0  0  0  0  0  1  0  0  0  0  0  0
  189.5440  177.7880  143.2230 C   0  0  0  0  0  2  0  0  0  0  0  0
  190.0210  177.2750  141.8740 C   0  0  0  0  0  2  0  0  0  0  0  0
  192.3080  177.0230  140.7090 N   0  0  0  0  0  2  0  0  0  0  0  0
  191.8510  177.0950  139.3450 C   0  0  0  0  0  0  0  0  0  0  0  0
  191.5060  177.0940  141.9080 C   0  0  0  0  0  0  0  0  0  0  0  0
  192.0890  177.0110  143.0210 O   0  0  0  0  0  0  0  0  0  0  0  0
  192.6600  177.4930  138.4640 O   0  0  0  0  0  0  0  0  0  0  0  0
  190.4360  176.8230  138.9650 C   0  0  1  0  0  3  0  0  0  0  0  0
  189.9210  177.9240  138.0460 C   0  0  0  0  0  1  0  0  0  0  0  0
  188.8370  175.2220  138.0380 O   0  0  0  0  0  1  0  0  0  0  0  0
  190.1890  175.4480  138.3400 C   0  0  1  0  0  3  0  0  0  0  0  0
  191.1170  175.1400  137.1500 C   0  0  2  0  0  3  0  0  0  0  0  0
  190.8770  173.8650  134.8890 C   0  0  0  0  0  2  0  0  0  0  0  0
  189.4510  174.2030  135.2660 C   0  0  0  0  0  2  0  0  0  0  0  0
  190.5760  175.1160  135.6970 C   0  0  0  0  0  0  0  0  0  0  0  0
  190.6590  176.2840  134.9490 O   0  0  0  0  0  1  0  0  0  0  0  0
  192.2960  174.2110  137.5290 C   0  0  0  0  0  2  0  0  0  0  0  0
  194.4940  175.3140  137.9410 O   0  0  0  0  0  1  0  0  0  0  0  0
  193.9220  174.6070  135.8210 O   0  0  0  0  0  0  0  0  0  0  0  0
  193.6300  174.6840  137.0440 C   0  0  0  0  0  0  0  0  0  0  0  0
  1  5  1  1  0  0  0
  3  6  1  0  0  0  0
  4  3  1  0  0  0  0
  4  1  1  0  0  0  0
  5  2  1  0  0  0  0
  6  2  1  0  0  0  0
  6 40  1  1  0  0  0
  7 10  1  6  0  0  0
  7  8  1  0  0  0  0
  7  9  1  0  0  0  0
  7  1  1  0  0  0  0
  8  9  1  0  0  0  0
 11 10  1  1  0  0  0
 12 19  1  1  0  0  0
 12 13  1  0  0  0  0
 12 16  1  0  0  0  0
 13 17  1  6  0  0  0
 13 18  1  0  0  0  0
 14 18  1  6  0  0  0
 14 11  1  0  0  0  0
 15 16  1  6  0  0  0
 15 14  1  0  0  0  0
 15 11  1  0  0  0  0
 20 23  1  6  0  0  0
 20 22  1  0  0  0  0
 20 21  1  0  0  0  0
 22 19  1  6  0  0  0
 22 21  1  0  0  0  0
 23 24  1  0  0  0  0
 24 26  1  0  0  0  0
 24 25  1  1  0  0  0
 26 27  2  0  0  0  0
 27 29  1  0  0  0  0
 30 28  1  0  0  0  0
 30 29  2  0  0  0  0
 31 26  1  0  0  0  0
 31 30  1  0  0  0  0
 32 28  1  0  0  0  0
 32 37  1  0  0  0  0
 34 33  2  0  0  0  0
 35 39  2  0  0  0  0
 36 38  1  0  0  0  0
 37 34  1  0  0  0  0
 38 37  2  0  0  0  0
 38 35  1  0  0  0  0
 39 33  1  0  0  0  0
 40 45  1  1  0  0  0
 40 41  1  0  0  0  0
 41 42  1  6  0  0  0
 41 44  1  0  0  0  0
 44 43  1  0  0  0  0
 45 48  1  1  0  0  0
 45 46  1  0  0  0  0
 46 47  1  0  0  0  0
 49 52  1  0  0  0  0
 49 48  1  0  0  0  0
 50 52  1  0  0  0  0
 51 50  1  0  0  0  0
 52 53  2  0  0  0  0
 54 51  2  0  0  0  0
 55 56  1  6  0  0  0
 55 51  1  0  0  0  0
 58 57  1  6  0  0  0
 58 55  1  0  0  0  0
 59 64  1  1  0  0  0
 59 58  1  0  0  0  0
 60 61  1  0  0  0  0
 60 62  1  0  0  0  0
 61 62  1  0  0  0  0
 62 59  1  0  0  0  0
 63 62  1  0  0  0  0
 66 67  2  0  0  0  0
 67 64  1  0  0  0  0
 67 65  1  0  0  0  0
M  END
>  <MODEL>
4

>  <REMARK>
 VINA RESULT:      -3.3      2.348      6.480
  Name = 
  24 active torsions:
  status: ('A' for Active; 'I' for Inactive)
    1  A    between atoms: C_1  and  C_18
    2  A    between atoms: C_3  and  C_31
    3  A    between atoms: C_3  and  C_55
    4  A    between atoms: C_5  and  C_30
    5  A    between atoms: C_5  and  C_33
    6  A    between atoms: C_5  and  C_40
    7  A    between atoms: C_6  and  C_12
    8  A    between atoms: C_6  and  C_42
    9  A    between atoms: C_6  and  C_44
   10  A    between atoms: C_7  and  O_17
   11  A    between atoms: C_10  and  C_31
   12  A    between atoms: C_11  and  O_54
   13  A    between atoms: C_12  and  C_26
   14  A    between atoms: C_12  and  C_67
   15  A    between atoms: N_15  and  O_62
   16  A    between atoms: O_17  and  C_18
   17  A    between atoms: C_26  and  O_61
   18  A    between atoms: C_30  and  C_35
   19  A    between atoms: C_33  and  C_34
   20  A    between atoms: C_35  and  C_39
   21  A    between atoms: C_41  and  C_42
   22  A    between atoms: C_41  and  C_59
   23  A    between atoms: C_46  and  O_62
   24  A    between atoms: O_54  and  C_63
                            x       y       z     vdW  Elec       q    Type
                         _______ _______ _______ _____ _____    ______ ____

>  <TORSDO>
F 24

$$$$
=
 OpenBabel11062416113D

 67 74  0  0  1  0  0  0  0  0999 V2000
  186.9920  177.8980  146.3200 C   0  0  1  0  0  3  0  0  0  0  0  0
  188.5380  176.3700  147.4850 O   0  0  0  0  0  0  0  0  0  0  0  0
  189.0650  178.7300  146.8410 C   0  0  0  0  0  2  0  0  0  0  0  0
  187.6340  178.8990  147.1300 N   0  0  0  0  0  2  0  0  0  0  0  0
  187.2320  176.5050  146.9080 C   0  0  0  0  0  2  0  0  0  0  0  0
  189.5070  177.2520  146.9230 C   0  0  2  0  0  3  0  0  0  0  0  0
  185.6310  178.3070  145.7160 C   0  0  1  0  0  0  0  0  0  0  0  0
  184.5560  178.7060  146.6360 C   0  0  0  0  0  2  0  0  0  0  0  0
  185.3010  179.6540  145.8940 O   0  0  0  0  0  0  0  0  0  0  0  0
  185.1980  177.8170  144.4540 O   0  0  0  0  0  0  0  0  0  0  0  0
  184.2290  178.6920  143.9160 C   0  0  2  0  0  3  0  0  0  0  0  0
  181.8790  179.2310  141.5340 C   0  0  2  0  0  3  0  0  0  0  0  0
  180.9730  179.2810  142.7720 C   0  0  1  0  0  3  0  0  0  0  0  0
  182.8620  178.0500  143.9250 C   0  0  2  0  0  3  0  0  0  0  0  0
  183.6410  178.1970  142.6000 C   0  0  1  0  0  3  0  0  0  0  0  0
  183.2590  179.3450  141.8550 O   0  0  0  0  0  0  0  0  0  0  0  0
  179.9370  178.1830  142.6620 C   0  0  0  0  0  1  0  0  0  0  0  0
  181.7760  179.1210  144.0630 C   0  0  0  0  0  2  0  0  0  0  0  0
  181.4430  180.1340  140.5350 O   0  0  0  0  0  0  0  0  0  0  0  0
  181.6160  179.2840  138.2380 C   0  0  2  0  0  3  0  0  0  0  0  0
  182.4850  178.6400  139.1320 O   0  0  0  0  0  0  0  0  0  0  0  0
  182.2560  180.0100  139.3820 C   0  0  2  0  0  3  0  0  0  0  0  0
  180.1900  178.8160  138.4870 C   0  0  0  0  0  2  0  0  0  0  0  0
  180.1800  177.3110  138.7010 C   0  0  1  0  0  3  0  0  0  0  0  0
  178.9310  176.8880  139.4690 C   0  0  0  0  0  1  0  0  0  0  0  0
  180.2620  176.5650  137.4030 C   0  0  0  0  0  0  0  0  0  0  0  0
  180.4210  177.2080  136.2160 N   0  0  0  0  0  0  0  0  0  0  0  0
  180.6690  174.0080  134.6100 N   0  0  0  0  0  2  0  0  0  0  0  0
  180.5580  176.3700  135.1840 N   0  0  0  0  0  0  0  0  0  0  0  0
  180.5080  175.0710  135.5460 C   0  0  0  0  0  0  0  0  0  0  0  0
  180.3090  174.8820  137.2090 S   0  0  0  0  0  0  0  0  0  0  0  0
  180.7180  172.7020  135.0200 O   0  0  0  0  0  0  0  0  0  0  0  0
  184.3540  172.1400  135.3610 C   0  0  0  0  0  3  0  0  0  0  0  0
  183.1410  172.7680  135.0680 C   0  0  0  0  0  3  0  0  0  0  0  0
  183.2030  170.1790  136.0730 C   0  0  0  0  0  3  0  0  0  0  0  0
  180.7190  170.0130  136.0500 C   0  0  0  0  0  1  0  0  0  0  0  0
  181.9390  172.0770  135.2780 C   0  0  0  0  0  0  0  0  0  0  0  0
  181.9690  170.7670  135.7810 C   0  0  0  0  0  0  0  0  0  0  0  0
  184.3610  170.8710  135.8580 N   0  0  0  0  0  0  0  0  0  0  0  0
  190.3330  176.7160  145.7180 C   0  0  2  0  0  3  0  0  0  0  0  0
  191.8240  176.4540  146.0530 C   0  0  2  0  0  3  0  0  0  0  0  0
  192.0890  174.9620  145.9170 C   0  0  0  0  0  1  0  0  0  0  0  0
  192.7950  175.7630  147.9360 C   0  0  0  0  0  1  0  0  0  0  0  0
  192.0920  176.8230  147.3820 O   0  0  0  0  0  0  0  0  0  0  0  0
  190.0970  177.2650  144.3140 C   0  0  2  0  0  3  0  0  0  0  0  0
  188.6040  177.4510  144.0640 C   0  0  0  0  0  2  0  0  0  0  0  0
  187.9010  176.2350  143.4890 C   0  0  0  0  0  1  0  0  0  0  0  0
  190.7570  176.2930  143.3390 C   0  0  0  0  0  2  0  0  0  0  0  0
  190.3690  176.5330  141.8890 C   0  0  0  0  0  2  0  0  0  0  0  0
  191.3070  177.8500  139.8800 N   0  0  0  0  0  2  0  0  0  0  0  0
  190.1420  177.7940  139.0360 C   0  0  0  0  0  0  0  0  0  0  0  0
  191.4650  177.2800  141.1970 C   0  0  0  0  0  0  0  0  0  0  0  0
  192.5690  177.4340  141.7850 O   0  0  0  0  0  0  0  0  0  0  0  0
  189.9830  178.7010  138.1740 O   0  0  0  0  0  0  0  0  0  0  0  0
  189.0730  176.7730  139.2230 C   0  0  1  0  0  3  0  0  0  0  0  0
  187.9210  177.3610  140.0280 C   0  0  0  0  0  1  0  0  0  0  0  0
  188.0980  177.0940  137.0030 O   0  0  0  0  0  1  0  0  0  0  0  0
  188.5510  176.1420  137.9290 C   0  0  1  0  0  3  0  0  0  0  0  0
  189.5290  175.1300  137.3020 C   0  0  2  0  0  3  0  0  0  0  0  0
  187.6680  173.3870  136.7670 C   0  0  0  0  0  2  0  0  0  0  0  0
  187.8450  174.1370  135.4640 C   0  0  0  0  0  2  0  0  0  0  0  0
  189.0200  173.9760  136.4020 C   0  0  0  0  0  0  0  0  0  0  0  0
  189.9370  173.0210  135.9810 O   0  0  0  0  0  1  0  0  0  0  0  0
  190.8020  174.9140  138.1560 C   0  0  0  0  0  2  0  0  0  0  0  0
  193.1060  174.1530  137.5830 O   0  0  0  0  0  1  0  0  0  0  0  0
  192.2700  176.1110  136.6970 O   0  0  0  0  0  0  0  0  0  0  0  0
  192.0830  175.0840  137.4020 C   0  0  0  0  0  0  0  0  0  0  0  0
  1  5  1  1  0  0  0
  1  4  1  0  0  0  0
  3  6  1  0  0  0  0
  3  4  1  0  0  0  0
  5  2  1  0  0  0  0
  6 40  1  6  0  0  0
  6  2  1  0  0  0  0
  7 10  1  6  0  0  0
  7  9  1  0  0  0  0
  7  1  1  0  0  0  0
  7  8  1  0  0  0  0
  9  8  1  0  0  0  0
 11 14  1  0  0  0  0
 11 10  1  1  0  0  0
 12 19  1  6  0  0  0
 12 16  1  0  0  0  0
 12 13  1  0  0  0  0
 13 17  1  6  0  0  0
 13 18  1  0  0  0  0
 14 18  1  6  0  0  0
 15 16  1  6  0  0  0
 15 11  1  0  0  0  0
 15 14  1  0  0  0  0
 20 23  1  1  0  0  0
 20 21  1  0  0  0  0
 20 22  1  0  0  0  0
 21 22  1  0  0  0  0
 22 19  1  1  0  0  0
 23 24  1  0  0  0  0
 24 25  1  6  0  0  0
 26 24  1  0  0  0  0
 27 26  2  0  0  0  0
 28 32  1  0  0  0  0
 28 30  1  0  0  0  0
 29 30  2  0  0  0  0
 29 27  1  0  0  0  0
 30 31  1  0  0  0  0
 31 26  1  0  0  0  0
 32 37  1  0  0  0  0
 33 39  1  0  0  0  0
 34 37  1  0  0  0  0
 34 33  2  0  0  0  0
 37 38  2  0  0  0  0
 38 36  1  0  0  0  0
 38 35  1  0  0  0  0
 39 35  2  0  0  0  0
 40 45  1  6  0  0  0
 40 41  1  0  0  0  0
 41 42  1  1  0  0  0
 41 44  1  0  0  0  0
 44 43  1  0  0  0  0
 45 48  1  6  0  0  0
 46 45  1  0  0  0  0
 47 46  1  0  0  0  0
 49 48  1  0  0  0  0
 50 52  1  0  0  0  0
 51 55  1  0  0  0  0
 51 50  1  0  0  0  0
 52 53  2  0  0  0  0
 52 49  1  0  0  0  0
 54 51  2  0  0  0  0
 55 56  1  6  0  0  0
 58 57  1  6  0  0  0
 58 55  1  0  0  0  0
 59 58  1  0  0  0  0
 59 64  1  1  0  0  0
 61 62  1  0  0  0  0
 61 60  1  0  0  0  0
 62 60  1  0  0  0  0
 62 59  1  0  0  0  0
 63 62  1  0  0  0  0
 66 67  2  0  0  0  0
 67 65  1  0  0  0  0
 67 64  1  0  0  0  0
M  END
>  <MODEL>
5

>  <REMARK>
 VINA RESULT:      -3.1      2.204      4.195
  Name = 
  24 active torsions:
  status: ('A' for Active; 'I' for Inactive)
    1  A    between atoms: C_1  and  C_18
    2  A    between atoms: C_3  and  C_31
    3  A    between atoms: C_3  and  C_55
    4  A    between atoms: C_5  and  C_30
    5  A    between atoms: C_5  and  C_33
    6  A    between atoms: C_5  and  C_40
    7  A    between atoms: C_6  and  C_12
    8  A    between atoms: C_6  and  C_42
    9  A    between atoms: C_6  and  C_44
   10  A    between atoms: C_7  and  O_17
   11  A    between atoms: C_10  and  C_31
   12  A    between atoms: C_11  and  O_54
   13  A    between atoms: C_12  and  C_26
   14  A    between atoms: C_12  and  C_67
   15  A    between atoms: N_15  and  O_62
   16  A    between atoms: O_17  and  C_18
   17  A    between atoms: C_26  and  O_61
   18  A    between atoms: C_30  and  C_35
   19  A    between atoms: C_33  and  C_34
   20  A    between atoms: C_35  and  C_39
   21  A    between atoms: C_41  and  C_42
   22  A    between atoms: C_41  and  C_59
   23  A    between atoms: C_46  and  O_62
   24  A    between atoms: O_54  and  C_63
                            x       y       z     vdW  Elec       q    Type
                         _______ _______ _______ _____ _____    ______ ____

>  <TORSDO>
F 24

$$$$
