=
 OpenBabel11062413153D

 42 45  0  0  1  0  0  0  0  0999 V2000
  184.6910  178.6860  145.5160 C   0  0  0  0  0  0  0  0  0  0  0  0
  185.7300  178.0790  143.4090 C   0  0  0  0  0  3  0  0  0  0  0  0
  184.5290  178.3240  142.7420 C   0  0  0  0  0  3  0  0  0  0  0  0
  185.8330  178.2620  144.7980 C   0  0  0  0  0  0  0  0  0  0  0  0
  183.4870  178.9210  144.8410 C   0  0  0  0  0  3  0  0  0  0  0  0
  184.7340  178.8750  146.8920 O   0  0  0  0  0  1  0  0  0  0  0  0
  183.4000  178.7470  143.4530 C   0  0  0  0  0  0  0  0  0  0  0  0
  180.7040  178.5420  140.7020 C   0  0  0  0  0  0  0  0  0  0  0  0
  181.8500  178.3410  141.5340 N   0  0  0  0  0  2  0  0  0  0  0  0
  182.1600  179.0650  142.7310 C   0  0  0  0  0  0  0  0  0  0  0  0
  179.7440  179.2560  141.1040 O   0  0  0  0  0  0  0  0  0  0  0  0
  181.4040  179.9930  143.1370 O   0  0  0  0  0  0  0  0  0  0  0  0
  181.0870  176.0080  138.1610 C   0  0  0  0  0  2  0  0  0  0  0  0
  181.8590  178.7150  138.4420 C   0  0  1  0  0  3  0  0  0  0  0  0
  178.9770  179.4940  138.7330 C   0  0  0  0  0  2  0  0  0  0  0  0
  182.3390  176.4450  137.4160 C   0  0  2  0  0  3  0  0  0  0  0  0
  183.5280  176.1200  138.1860 N   0  0  0  0  0  1  0  0  0  0  0  0
  180.7200  178.0280  139.2710 C   0  0  1  0  0  0  0  0  0  0  0  0
  181.0110  176.6460  139.4150 O   0  0  0  0  0  0  0  0  0  0  0  0
  180.9450  181.3230  136.2910 O   0  0  0  0  0  0  0  0  0  0  0  0
  182.2630  177.9430  137.1670 C   0  0  1  0  0  3  0  0  0  0  0  0
  181.6320  180.9360  139.3900 F   0  0  0  0  0  0  0  0  0  0  0  0
  179.4560  178.1710  138.6290 O   0  0  0  0  0  0  0  0  0  0  0  0
  179.2110  180.2540  137.4440 C   0  0  0  0  0  2  0  0  0  0  0  0
  180.6490  180.6430  137.2570 C   0  0  0  0  0  0  0  0  0  0  0  0
  181.3760  178.1730  136.1180 O   0  0  0  0  0  1  0  0  0  0  0  0
  181.7440  180.2370  138.2060 C   0  0  2  0  0  3  0  0  0  0  0  0
  187.3280  178.3270  146.6520 O   0  0  0  0  0  0  0  0  0  0  0  0
  188.2210  177.4860  144.6720 N   0  0  0  0  0  2  0  0  0  0  0  0
  187.1460  178.0340  145.4420 C   0  0  0  0  0  0  0  0  0  0  0  0
  189.5930  177.3910  145.1500 C   0  0  0  0  0  2  0  0  0  0  0  0
  190.5140  177.1540  144.0480 N   0  0  0  0  0  2  0  0  0  0  0  0
  190.2280  175.1320  142.9430 O   0  0  0  0  0  0  0  0  0  0  0  0
  190.1510  176.3900  142.8970 C   0  0  0  0  0  0  0  0  0  0  0  0
  188.0880  178.2820  140.3020 C   0  0  0  0  0  2  0  0  0  0  0  0
  189.7390  177.0630  141.6470 C   0  0  0  0  0  0  0  0  0  0  0  0
  188.5480  177.5210  139.2110 O   0  0  0  0  0  0  0  0  0  0  0  0
  190.5910  176.9560  140.3930 C   0  0  1  0  0  3  0  0  0  0  0  0
  188.5360  177.6500  141.5880 C   0  0  0  0  0  3  0  0  0  0  0  0
  189.9460  177.6810  139.1980 C   0  0  0  0  0  2  0  0  0  0  0  0
  191.9720  177.5450  140.6320 C   0  0  0  0  0  2  0  0  0  0  0  0
  192.8850  177.1220  139.5830 N   0  0  0  0  0  1  0  0  0  0  0  0
  1  6  1  0  0  0  0
  2  4  1  0  0  0  0
  3  2  2  0  0  0  0
  3  7  1  0  0  0  0
  4 30  1  0  0  0  0
  4  1  2  0  0  0  0
  5  1  1  0  0  0  0
  7  5  2  0  0  0  0
  8 11  2  0  0  0  0
  8  9  1  0  0  0  0
  9 10  1  0  0  0  0
 10 12  2  0  0  0  0
 10  7  1  0  0  0  0
 13 19  1  0  0  0  0
 14 18  1  0  0  0  0
 16 13  1  0  0  0  0
 16 17  1  0  0  0  0
 18 19  1  0  0  0  0
 18  8  1  0  0  0  0
 20 25  2  0  0  0  0
 21 16  1  0  0  0  0
 21 14  1  0  0  0  0
 23 15  1  0  0  0  0
 23 18  1  0  0  0  0
 24 15  1  0  0  0  0
 25 24  1  0  0  0  0
 25 27  1  0  0  0  0
 26 21  1  0  0  0  0
 27 14  1  0  0  0  0
 27 22  1  0  0  0  0
 29 31  1  0  0  0  0
 29 30  1  0  0  0  0
 30 28  2  0  0  0  0
 32 31  1  0  0  0  0
 34 33  2  0  0  0  0
 34 32  1  0  0  0  0
 35 39  1  0  0  0  0
 36 34  1  0  0  0  0
 37 35  1  0  0  0  0
 38 41  1  0  0  0  0
 38 36  1  0  0  0  0
 39 36  2  0  0  0  0
 40 37  1  0  0  0  0
 40 38  1  0  0  0  0
 42 41  1  0  0  0  0
M  END
>  <MODEL>
1

>  <REMARK>
 VINA RESULT:      -9.6      0.000      0.000
  Name = 
  7 active torsions:
  status: ('A' for Active; 'I' for Inactive)
    1  A    between atoms: C_2  and  N_3
    2  A    between atoms: C_2  and  N_36
    3  A    between atoms: C_5  and  C_16
    4  A    between atoms: C_6  and  C_40
    5  A    between atoms: C_15  and  C_33
    6  A    between atoms: C_19  and  C_23
    7  A    between atoms: C_24  and  C_41
                            x       y       z     vdW  Elec       q    Type
                         _______ _______ _______ _____ _____    ______ ____

>  <TORSDO>
F 7

$$$$
=
 OpenBabel11062413153D

 42 45  0  0  1  0  0  0  0  0999 V2000
  184.2710  178.7950  144.6140 C   0  0  0  0  0  0  0  0  0  0  0  0
  186.5080  178.2820  143.8290 C   0  0  0  0  0  3  0  0  0  0  0  0
  186.0690  178.3660  142.5080 C   0  0  0  0  0  3  0  0  0  0  0  0
  185.6240  178.5010  144.8980 C   0  0  0  0  0  0  0  0  0  0  0  0
  183.8350  178.8690  143.2850 C   0  0  0  0  0  3  0  0  0  0  0  0
  183.3510  179.0120  145.6310 O   0  0  0  0  0  1  0  0  0  0  0  0
  184.7300  178.6610  142.2270 C   0  0  0  0  0  0  0  0  0  0  0  0
  182.3950  178.4650  139.1620 C   0  0  0  0  0  0  0  0  0  0  0  0
  182.9660  178.4090  140.4720 N   0  0  0  0  0  2  0  0  0  0  0  0
  184.2940  178.8120  140.8310 C   0  0  0  0  0  0  0  0  0  0  0  0
  182.9800  179.1000  138.2410 O   0  0  0  0  0  0  0  0  0  0  0  0
  185.0930  179.2500  139.9560 O   0  0  0  0  0  0  0  0  0  0  0  0
  178.9310  177.5120  139.4870 C   0  0  0  0  0  2  0  0  0  0  0  0
  181.3890  176.1310  139.2760 C   0  0  1  0  0  3  0  0  0  0  0  0
  181.8820  177.4390  136.6220 C   0  0  0  0  0  2  0  0  0  0  0  0
  179.0030  176.1380  140.1360 C   0  0  2  0  0  3  0  0  0  0  0  0
  179.2980  176.2620  141.5540 N   0  0  0  0  0  1  0  0  0  0  0  0
  181.1710  177.6220  138.8440 C   0  0  1  0  0  0  0  0  0  0  0  0
  180.1500  178.1980  139.6440 O   0  0  0  0  0  0  0  0  0  0  0  0
  182.2190  173.8280  136.7710 O   0  0  0  0  0  0  0  0  0  0  0  0
  180.0830  175.3250  139.4410 C   0  0  1  0  0  3  0  0  0  0  0  0
  183.7190  175.9610  138.6210 F   0  0  0  0  0  0  0  0  0  0  0  0
  180.7910  177.7120  137.4740 O   0  0  0  0  0  0  0  0  0  0  0  0
  181.8050  176.0260  136.0830 C   0  0  0  0  0  2  0  0  0  0  0  0
  182.1730  174.9960  137.1120 C   0  0  0  0  0  0  0  0  0  0  0  0
  179.5860  174.8860  138.2150 O   0  0  0  0  0  1  0  0  0  0  0  0
  182.4920  175.3360  138.5420 C   0  0  2  0  0  3  0  0  0  0  0  0
  185.7070  179.2050  147.1730 O   0  0  0  0  0  0  0  0  0  0  0  0
  187.2130  177.5280  146.5860 N   0  0  0  0  0  2  0  0  0  0  0  0
  186.1600  178.4470  146.2770 C   0  0  0  0  0  0  0  0  0  0  0  0
  187.9330  177.5180  147.8520 C   0  0  0  0  0  2  0  0  0  0  0  0
  189.3340  177.8640  147.6580 N   0  0  0  0  0  2  0  0  0  0  0  0
  190.7740  176.0550  147.4470 O   0  0  0  0  0  0  0  0  0  0  0  0
  190.2250  177.0490  146.8960 C   0  0  0  0  0  0  0  0  0  0  0  0
  190.6760  179.0000  143.6470 C   0  0  0  0  0  2  0  0  0  0  0  0
  190.5460  177.3900  145.4940 C   0  0  0  0  0  0  0  0  0  0  0  0
  190.2420  177.9470  142.8180 O   0  0  0  0  0  0  0  0  0  0  0  0
  190.8700  176.3000  144.4860 C   0  0  1  0  0  3  0  0  0  0  0  0
  190.4090  178.6580  145.0840 C   0  0  0  0  0  3  0  0  0  0  0  0
  191.1150  176.8740  143.0790 C   0  0  0  0  0  2  0  0  0  0  0  0
  192.1050  175.5240  144.9170 C   0  0  0  0  0  2  0  0  0  0  0  0
  192.1170  174.2140  144.2860 N   0  0  0  0  0  1  0  0  0  0  0  0
  1  4  1  0  0  0  0
  1  6  1  0  0  0  0
  2  4  2  0  0  0  0
  3  2  1  0  0  0  0
  4 30  1  0  0  0  0
  5  1  2  0  0  0  0
  7  3  2  0  0  0  0
  7  5  1  0  0  0  0
  8  9  1  0  0  0  0
  9 10  1  0  0  0  0
 10  7  1  0  0  0  0
 11  8  2  0  0  0  0
 12 10  2  0  0  0  0
 13 19  1  0  0  0  0
 13 16  1  0  0  0  0
 14 21  1  0  0  0  0
 15 23  1  0  0  0  0
 16 17  1  0  0  0  0
 18  8  1  0  0  0  0
 18 14  1  0  0  0  0
 18 19  1  0  0  0  0
 20 25  2  0  0  0  0
 21 16  1  0  0  0  0
 23 18  1  0  0  0  0
 24 15  1  0  0  0  0
 24 25  1  0  0  0  0
 25 27  1  0  0  0  0
 26 21  1  0  0  0  0
 27 22  1  0  0  0  0
 27 14  1  0  0  0  0
 29 31  1  0  0  0  0
 30 29  1  0  0  0  0
 30 28  2  0  0  0  0
 32 31  1  0  0  0  0
 34 33  2  0  0  0  0
 34 32  1  0  0  0  0
 35 39  1  0  0  0  0
 36 34  1  0  0  0  0
 37 40  1  0  0  0  0
 37 35  1  0  0  0  0
 38 41  1  0  0  0  0
 38 36  1  0  0  0  0
 39 36  2  0  0  0  0
 40 38  1  0  0  0  0
 42 41  1  0  0  0  0
M  END
>  <MODEL>
2

>  <REMARK>
 VINA RESULT:      -9.4      2.474      3.770
  Name = 
  7 active torsions:
  status: ('A' for Active; 'I' for Inactive)
    1  A    between atoms: C_2  and  N_3
    2  A    between atoms: C_2  and  N_36
    3  A    between atoms: C_5  and  C_16
    4  A    between atoms: C_6  and  C_40
    5  A    between atoms: C_15  and  C_33
    6  A    between atoms: C_19  and  C_23
    7  A    between atoms: C_24  and  C_41
                            x       y       z     vdW  Elec       q    Type
                         _______ _______ _______ _____ _____    ______ ____

>  <TORSDO>
F 7

$$$$
=
 OpenBabel11062413153D

 42 45  0  0  1  0  0  0  0  0999 V2000
  190.2120  176.3160  138.9380 C   0  0  0  0  0  0  0  0  0  0  0  0
  188.8640  177.9020  140.1850 C   0  0  0  0  0  3  0  0  0  0  0  0
  187.9320  177.9320  139.1480 C   0  0  0  0  0  3  0  0  0  0  0  0
  190.0090  177.0930  140.1020 C   0  0  0  0  0  0  0  0  0  0  0  0
  189.2770  176.3580  137.8970 C   0  0  0  0  0  3  0  0  0  0  0  0
  191.3310  175.5060  138.7990 O   0  0  0  0  0  1  0  0  0  0  0  0
  188.1320  177.1600  137.9970 C   0  0  0  0  0  0  0  0  0  0  0  0
  184.6150  177.1810  136.4130 C   0  0  0  0  0  0  0  0  0  0  0  0
  185.7280  177.2070  137.3110 N   0  0  0  0  0  2  0  0  0  0  0  0
  187.1110  177.1490  136.9390 C   0  0  0  0  0  0  0  0  0  0  0  0
  184.7940  177.3250  135.1720 O   0  0  0  0  0  0  0  0  0  0  0  0
  187.4490  177.0460  135.7260 O   0  0  0  0  0  0  0  0  0  0  0  0
  181.4950  177.8490  138.0990 C   0  0  0  0  0  2  0  0  0  0  0  0
  183.3380  175.7050  138.0470 C   0  0  1  0  0  3  0  0  0  0  0  0
  182.9050  175.4200  135.0920 C   0  0  0  0  0  2  0  0  0  0  0  0
  181.5790  176.9860  139.3490 C   0  0  2  0  0  3  0  0  0  0  0  0
  182.4580  177.5990  140.3310 N   0  0  0  0  0  1  0  0  0  0  0  0
  183.2380  176.8130  136.9430 C   0  0  1  0  0  0  0  0  0  0  0  0
  182.7710  178.0190  137.5290 O   0  0  0  0  0  0  0  0  0  0  0  0
  182.6030  172.4130  137.1030 O   0  0  0  0  0  0  0  0  0  0  0  0
  182.0980  175.6110  138.9610 C   0  0  1  0  0  3  0  0  0  0  0  0
  185.1040  174.4020  137.0120 F   0  0  0  0  0  0  0  0  0  0  0  0
  182.3420  176.4270  135.9040 O   0  0  0  0  0  0  0  0  0  0  0  0
  182.3510  174.0590  135.4590 C   0  0  0  0  0  2  0  0  0  0  0  0
  182.9190  173.5330  136.7450 C   0  0  0  0  0  0  0  0  0  0  0  0
  181.0620  174.9010  138.3580 O   0  0  0  0  0  1  0  0  0  0  0  0
  183.8660  174.3190  137.6120 C   0  0  2  0  0  3  0  0  0  0  0  0
  192.0430  177.6620  141.2060 O   0  0  0  0  0  0  0  0  0  0  0  0
  190.5690  176.3420  142.4360 N   0  0  0  0  0  2  0  0  0  0  0  0
  190.9360  177.0660  141.2560 C   0  0  0  0  0  0  0  0  0  0  0  0
  191.4740  176.0990  143.5500 C   0  0  0  0  0  2  0  0  0  0  0  0
  191.0330  176.8060  144.7440 N   0  0  0  0  0  2  0  0  0  0  0  0
  190.6230  179.0720  144.4500 O   0  0  0  0  0  0  0  0  0  0  0  0
  190.1500  177.9270  144.6870 C   0  0  0  0  0  0  0  0  0  0  0  0
  186.4100  177.3490  144.1910 C   0  0  0  0  0  2  0  0  0  0  0  0
  188.7050  177.7620  144.9530 C   0  0  0  0  0  0  0  0  0  0  0  0
  186.0170  178.3090  145.1440 O   0  0  0  0  0  0  0  0  0  0  0  0
  188.1270  178.0880  146.3210 C   0  0  1  0  0  3  0  0  0  0  0  0
  187.8850  177.4590  143.9380 C   0  0  0  0  0  3  0  0  0  0  0  0
  186.6000  177.9000  146.3580 C   0  0  0  0  0  2  0  0  0  0  0  0
  188.7520  177.2050  147.3890 C   0  0  0  0  0  2  0  0  0  0  0  0
  188.7330  177.8850  148.6740 N   0  0  0  0  0  1  0  0  0  0  0  0
  1  4  1  0  0  0  0
  3  2  1  0  0  0  0
  4  2  2  0  0  0  0
  4 30  1  0  0  0  0
  5  7  1  0  0  0  0
  5  1  2  0  0  0  0
  6  1  1  0  0  0  0
  7  3  2  0  0  0  0
  8 18  1  0  0  0  0
  8  9  1  0  0  0  0
 10  9  1  0  0  0  0
 10  7  1  0  0  0  0
 11  8  2  0  0  0  0
 12 10  2  0  0  0  0
 13 16  1  0  0  0  0
 14 21  1  0  0  0  0
 15 24  1  0  0  0  0
 15 23  1  0  0  0  0
 16 17  1  0  0  0  0
 18 19  1  0  0  0  0
 18 14  1  0  0  0  0
 19 13  1  0  0  0  0
 21 16  1  0  0  0  0
 22 27  1  0  0  0  0
 23 18  1  0  0  0  0
 24 25  1  0  0  0  0
 25 20  2  0  0  0  0
 25 27  1  0  0  0  0
 26 21  1  0  0  0  0
 27 14  1  0  0  0  0
 28 30  2  0  0  0  0
 29 31  1  0  0  0  0
 30 29  1  0  0  0  0
 31 32  1  0  0  0  0
 33 34  2  0  0  0  0
 34 32  1  0  0  0  0
 34 36  1  0  0  0  0
 35 37  1  0  0  0  0
 36 38  1  0  0  0  0
 37 40  1  0  0  0  0
 38 40  1  0  0  0  0
 38 41  1  0  0  0  0
 39 35  1  0  0  0  0
 39 36  2  0  0  0  0
 41 42  1  0  0  0  0
M  END
>  <MODEL>
3

>  <REMARK>
 VINA RESULT:      -9.3      2.796      6.218
  Name = 
  7 active torsions:
  status: ('A' for Active; 'I' for Inactive)
    1  A    between atoms: C_2  and  N_3
    2  A    between atoms: C_2  and  N_36
    3  A    between atoms: C_5  and  C_16
    4  A    between atoms: C_6  and  C_40
    5  A    between atoms: C_15  and  C_33
    6  A    between atoms: C_19  and  C_23
    7  A    between atoms: C_24  and  C_41
                            x       y       z     vdW  Elec       q    Type
                         _______ _______ _______ _____ _____    ______ ____

>  <TORSDO>
F 7

$$$$
=
 OpenBabel11062413153D

 42 45  0  0  1  0  0  0  0  0999 V2000
  183.3530  178.6600  143.2710 C   0  0  0  0  0  0  0  0  0  0  0  0
  185.6640  178.5050  142.5510 C   0  0  0  0  0  3  0  0  0  0  0  0
  185.2480  178.3980  141.2240 C   0  0  0  0  0  3  0  0  0  0  0  0
  184.7300  178.6450  143.5900 C   0  0  0  0  0  0  0  0  0  0  0  0
  182.9420  178.5430  141.9370 C   0  0  0  0  0  3  0  0  0  0  0  0
  182.3850  178.7860  144.2590 O   0  0  0  0  0  1  0  0  0  0  0  0
  183.8850  178.4170  140.9080 C   0  0  0  0  0  0  0  0  0  0  0  0
  183.5090  177.0410  137.3230 C   0  0  0  0  0  0  0  0  0  0  0  0
  183.8180  177.2320  138.7070 N   0  0  0  0  0  2  0  0  0  0  0  0
  183.4610  178.3700  139.5000 C   0  0  0  0  0  0  0  0  0  0  0  0
  182.6820  177.8000  136.7460 O   0  0  0  0  0  0  0  0  0  0  0  0
  182.8300  179.3400  138.9910 O   0  0  0  0  0  0  0  0  0  0  0  0
  184.1630  173.7640  135.9610 C   0  0  0  0  0  2  0  0  0  0  0  0
  185.7270  175.8100  137.1290 C   0  0  1  0  0  3  0  0  0  0  0  0
  184.8480  177.6980  134.9700 C   0  0  0  0  0  2  0  0  0  0  0  0
  185.4320  173.3310  136.6800 C   0  0  2  0  0  3  0  0  0  0  0  0
  185.1280  172.9130  138.0380 N   0  0  0  0  0  1  0  0  0  0  0  0
  184.3020  176.0270  136.5140 C   0  0  1  0  0  0  0  0  0  0  0  0
  183.5480  174.8310  136.6430 O   0  0  0  0  0  0  0  0  0  0  0  0
  188.4160  177.4430  135.5900 O   0  0  0  0  0  0  0  0  0  0  0  0
  186.4090  174.4950  136.6920 C   0  0  1  0  0  3  0  0  0  0  0  0
  186.1500  178.1190  137.7420 F   0  0  0  0  0  0  0  0  0  0  0  0
  184.3820  176.3760  135.1350 O   0  0  0  0  0  0  0  0  0  0  0  0
  186.3150  177.7080  134.5940 C   0  0  0  0  0  2  0  0  0  0  0  0
  187.2110  177.3910  135.7560 C   0  0  0  0  0  0  0  0  0  0  0  0
  186.9830  174.6050  135.4270 O   0  0  0  0  0  1  0  0  0  0  0  0
  186.6930  177.0160  137.1180 C   0  0  2  0  0  3  0  0  0  0  0  0
  184.8730  179.7790  145.6800 O   0  0  0  0  0  0  0  0  0  0  0  0
  186.1520  177.8400  145.5020 N   0  0  0  0  0  2  0  0  0  0  0  0
  185.2340  178.8040  144.9720 C   0  0  0  0  0  0  0  0  0  0  0  0
  186.8460  177.9960  146.7720 C   0  0  0  0  0  2  0  0  0  0  0  0
  188.2710  178.2110  146.5650 N   0  0  0  0  0  2  0  0  0  0  0  0
  189.6300  176.4190  147.1420 O   0  0  0  0  0  0  0  0  0  0  0  0
  189.1630  177.1500  146.2250 C   0  0  0  0  0  0  0  0  0  0  0  0
  189.0870  176.3140  142.5020 C   0  0  0  0  0  2  0  0  0  0  0  0
  189.5810  176.9360  144.8230 C   0  0  0  0  0  0  0  0  0  0  0  0
  190.3430  175.6790  142.4990 O   0  0  0  0  0  0  0  0  0  0  0  0
  191.0520  176.9470  144.4430 C   0  0  1  0  0  3  0  0  0  0  0  0
  188.6600  176.5900  143.9140 C   0  0  0  0  0  3  0  0  0  0  0  0
  191.2610  176.6480  142.9470 C   0  0  0  0  0  2  0  0  0  0  0  0
  191.6760  178.2970  144.7600 C   0  0  0  0  0  2  0  0  0  0  0  0
  191.0560  179.3360  143.9550 N   0  0  0  0  0  1  0  0  0  0  0  0
  1  4  1  0  0  0  0
  1  6  1  0  0  0  0
  2  4  2  0  0  0  0
  3  2  1  0  0  0  0
  4 30  1  0  0  0  0
  5  1  2  0  0  0  0
  7  3  2  0  0  0  0
  7  5  1  0  0  0  0
  8  9  1  0  0  0  0
  9 10  1  0  0  0  0
 10  7  1  0  0  0  0
 11  8  2  0  0  0  0
 12 10  2  0  0  0  0
 13 19  1  0  0  0  0
 13 16  1  0  0  0  0
 15 23  1  0  0  0  0
 16 21  1  0  0  0  0
 16 17  1  0  0  0  0
 18 19  1  0  0  0  0
 18 14  1  0  0  0  0
 18  8  1  0  0  0  0
 20 25  2  0  0  0  0
 21 14  1  0  0  0  0
 23 18  1  0  0  0  0
 24 15  1  0  0  0  0
 24 25  1  0  0  0  0
 25 27  1  0  0  0  0
 26 21  1  0  0  0  0
 27 14  1  0  0  0  0
 27 22  1  0  0  0  0
 29 31  1  0  0  0  0
 30 29  1  0  0  0  0
 30 28  2  0  0  0  0
 32 31  1  0  0  0  0
 34 32  1  0  0  0  0
 34 33  2  0  0  0  0
 35 39  1  0  0  0  0
 36 34  1  0  0  0  0
 37 35  1  0  0  0  0
 37 40  1  0  0  0  0
 38 41  1  0  0  0  0
 38 36  1  0  0  0  0
 39 36  2  0  0  0  0
 40 38  1  0  0  0  0
 42 41  1  0  0  0  0
M  END
>  <MODEL>
4

>  <REMARK>
 VINA RESULT:      -9.3      2.793      4.573
  Name = 
  7 active torsions:
  status: ('A' for Active; 'I' for Inactive)
    1  A    between atoms: C_2  and  N_3
    2  A    between atoms: C_2  and  N_36
    3  A    between atoms: C_5  and  C_16
    4  A    between atoms: C_6  and  C_40
    5  A    between atoms: C_15  and  C_33
    6  A    between atoms: C_19  and  C_23
    7  A    between atoms: C_24  and  C_41
                            x       y       z     vdW  Elec       q    Type
                         _______ _______ _______ _____ _____    ______ ____

>  <TORSDO>
F 7

$$$$
=
 OpenBabel11062413153D

 42 45  0  0  1  0  0  0  0  0999 V2000
  189.6060  176.4650  138.8240 C   0  0  0  0  0  0  0  0  0  0  0  0
  188.6510  178.1760  140.2550 C   0  0  0  0  0  3  0  0  0  0  0  0
  187.5380  178.2600  139.4180 C   0  0  0  0  0  3  0  0  0  0  0  0
  189.6940  177.2760  139.9780 C   0  0  0  0  0  0  0  0  0  0  0  0
  188.4900  176.5620  137.9830 C   0  0  0  0  0  3  0  0  0  0  0  0
  190.6120  175.5650  138.4970 O   0  0  0  0  0  1  0  0  0  0  0  0
  187.4500  177.4540  138.2770 C   0  0  0  0  0  0  0  0  0  0  0  0
  183.6950  177.3790  137.3960 C   0  0  0  0  0  0  0  0  0  0  0  0
  184.9600  177.3760  138.0640 N   0  0  0  0  0  2  0  0  0  0  0  0
  186.2430  177.5050  137.4390 C   0  0  0  0  0  0  0  0  0  0  0  0
  183.6170  177.7230  136.1850 O   0  0  0  0  0  0  0  0  0  0  0  0
  186.3410  177.6150  136.1840 O   0  0  0  0  0  0  0  0  0  0  0  0
  181.1020  174.9310  137.9440 C   0  0  0  0  0  2  0  0  0  0  0  0
  181.2370  177.7550  137.9370 C   0  0  1  0  0  3  0  0  0  0  0  0
  183.2720  177.6520  140.1370 C   0  0  0  0  0  2  0  0  0  0  0  0
  179.8300  175.6770  137.5730 C   0  0  2  0  0  3  0  0  0  0  0  0
  179.6990  175.7690  136.1280 N   0  0  0  0  0  1  0  0  0  0  0  0
  182.4760  176.8100  138.1040 C   0  0  1  0  0  0  0  0  0  0  0  0
  182.2320  175.5890  137.4220 O   0  0  0  0  0  0  0  0  0  0  0  0
  180.4160  179.8380  140.6300 O   0  0  0  0  0  0  0  0  0  0  0  0
  179.8790  177.0650  138.1890 C   0  0  1  0  0  3  0  0  0  0  0  0
  182.4270  179.8590  138.1440 F   0  0  0  0  0  0  0  0  0  0  0  0
  182.7280  176.5290  139.4790 O   0  0  0  0  0  0  0  0  0  0  0  0
  182.2110  178.3700  140.9450 C   0  0  0  0  0  2  0  0  0  0  0  0
  181.2670  179.1590  140.0850 C   0  0  0  0  0  0  0  0  0  0  0  0
  179.5980  176.9570  139.5490 O   0  0  0  0  0  1  0  0  0  0  0  0
  181.3240  179.1570  138.5810 C   0  0  2  0  0  3  0  0  0  0  0  0
  191.9730  177.5900  140.5980 O   0  0  0  0  0  0  0  0  0  0  0  0
  190.6070  176.6550  142.2370 N   0  0  0  0  0  2  0  0  0  0  0  0
  190.8250  177.1970  140.9300 C   0  0  0  0  0  0  0  0  0  0  0  0
  191.6770  176.3640  143.1810 C   0  0  0  0  0  2  0  0  0  0  0  0
  191.6110  177.2510  144.3330 N   0  0  0  0  0  2  0  0  0  0  0  0
  190.5140  179.2640  143.9640 O   0  0  0  0  0  0  0  0  0  0  0  0
  190.5190  178.1460  144.5490 C   0  0  0  0  0  0  0  0  0  0  0  0
  187.0540  177.4680  145.9990 C   0  0  0  0  0  2  0  0  0  0  0  0
  189.4320  177.7940  145.4860 C   0  0  0  0  0  0  0  0  0  0  0  0
  187.3390  178.0430  147.2520 O   0  0  0  0  0  0  0  0  0  0  0  0
  189.7120  177.6240  146.9700 C   0  0  1  0  0  3  0  0  0  0  0  0
  188.1690  177.7670  145.0390 C   0  0  0  0  0  3  0  0  0  0  0  0
  188.4300  177.3170  147.7650 C   0  0  0  0  0  2  0  0  0  0  0  0
  190.7090  176.4990  147.2000 C   0  0  0  0  0  2  0  0  0  0  0  0
  191.8610  176.9940  147.9340 N   0  0  0  0  0  1  0  0  0  0  0  0
  1  4  1  0  0  0  0
  3  2  1  0  0  0  0
  4  2  2  0  0  0  0
  4 30  1  0  0  0  0
  5  7  1  0  0  0  0
  5  1  2  0  0  0  0
  6  1  1  0  0  0  0
  7  3  2  0  0  0  0
  8  9  1  0  0  0  0
  8 18  1  0  0  0  0
 10  9  1  0  0  0  0
 10  7  1  0  0  0  0
 11  8  2  0  0  0  0
 12 10  2  0  0  0  0
 14 18  1  0  0  0  0
 14 21  1  0  0  0  0
 14 27  1  0  0  0  0
 15 24  1  0  0  0  0
 16 13  1  0  0  0  0
 16 21  1  0  0  0  0
 17 16  1  0  0  0  0
 18 23  1  0  0  0  0
 19 13  1  0  0  0  0
 19 18  1  0  0  0  0
 21 26  1  0  0  0  0
 22 27  1  0  0  0  0
 23 15  1  0  0  0  0
 25 20  2  0  0  0  0
 25 24  1  0  0  0  0
 27 25  1  0  0  0  0
 28 30  2  0  0  0  0
 29 31  1  0  0  0  0
 30 29  1  0  0  0  0
 31 32  1  0  0  0  0
 32 34  1  0  0  0  0
 33 34  2  0  0  0  0
 34 36  1  0  0  0  0
 35 37  1  0  0  0  0
 36 38  1  0  0  0  0
 37 40  1  0  0  0  0
 38 41  1  0  0  0  0
 38 40  1  0  0  0  0
 39 36  2  0  0  0  0
 39 35  1  0  0  0  0
 41 42  1  0  0  0  0
M  END
>  <MODEL>
5

>  <REMARK>
 VINA RESULT:      -9.3      2.269      5.501
  Name = 
  7 active torsions:
  status: ('A' for Active; 'I' for Inactive)
    1  A    between atoms: C_2  and  N_3
    2  A    between atoms: C_2  and  N_36
    3  A    between atoms: C_5  and  C_16
    4  A    between atoms: C_6  and  C_40
    5  A    between atoms: C_15  and  C_33
    6  A    between atoms: C_19  and  C_23
    7  A    between atoms: C_24  and  C_41
                            x       y       z     vdW  Elec       q    Type
                         _______ _______ _______ _____ _____    ______ ____

>  <TORSDO>
F 7

$$$$
=
 OpenBabel11062413153D

 42 45  0  0  1  0  0  0  0  0999 V2000
  183.3700  178.6870  143.4200 C   0  0  0  0  0  0  0  0  0  0  0  0
  185.6220  178.7520  142.5200 C   0  0  0  0  0  3  0  0  0  0  0  0
  185.1080  178.7870  141.2240 C   0  0  0  0  0  3  0  0  0  0  0  0
  184.7670  178.7100  143.6330 C   0  0  0  0  0  0  0  0  0  0  0  0
  182.8610  178.7130  142.1150 C   0  0  0  0  0  3  0  0  0  0  0  0
  182.4780  178.6360  144.4830 O   0  0  0  0  0  1  0  0  0  0  0  0
  183.7240  178.7680  141.0130 C   0  0  0  0  0  0  0  0  0  0  0  0
  181.6580  177.8350  137.8910 C   0  0  0  0  0  0  0  0  0  0  0  0
  182.2500  177.8940  139.1920 N   0  0  0  0  0  2  0  0  0  0  0  0
  183.1930  178.8720  139.6450 C   0  0  0  0  0  0  0  0  0  0  0  0
  181.7750  178.8080  137.0960 O   0  0  0  0  0  0  0  0  0  0  0  0
  183.5980  179.7850  138.8710 O   0  0  0  0  0  0  0  0  0  0  0  0
  179.0350  175.3640  137.7040 C   0  0  0  0  0  2  0  0  0  0  0  0
  181.8540  175.2980  137.9190 C   0  0  1  0  0  3  0  0  0  0  0  0
  182.0740  176.8050  135.3350 C   0  0  0  0  0  2  0  0  0  0  0  0
  179.6410  174.1550  138.3980 C   0  0  2  0  0  3  0  0  0  0  0  0
  179.6260  174.3360  139.8400 N   0  0  0  0  0  1  0  0  0  0  0  0
  181.0330  176.5340  137.4130 C   0  0  1  0  0  0  0  0  0  0  0  0
  179.7530  176.5320  138.0270 O   0  0  0  0  0  0  0  0  0  0  0  0
  184.0310  173.7640  135.6450 O   0  0  0  0  0  0  0  0  0  0  0  0
  181.0670  173.9700  137.9040 C   0  0  1  0  0  3  0  0  0  0  0  0
  184.0620  176.2620  137.6390 F   0  0  0  0  0  0  0  0  0  0  0  0
  180.8670  176.4990  135.9980 O   0  0  0  0  0  0  0  0  0  0  0  0
  182.7490  175.5450  134.8350 C   0  0  0  0  0  2  0  0  0  0  0  0
  183.3940  174.7590  135.9390 C   0  0  0  0  0  0  0  0  0  0  0  0
  181.0250  173.4070  136.6310 O   0  0  0  0  0  1  0  0  0  0  0  0
  183.2970  175.1430  137.3900 C   0  0  2  0  0  3  0  0  0  0  0  0
  185.2320  179.7210  145.7400 O   0  0  0  0  0  0  0  0  0  0  0  0
  186.1300  177.5950  145.4290 N   0  0  0  0  0  2  0  0  0  0  0  0
  185.3710  178.7250  144.9850 C   0  0  0  0  0  0  0  0  0  0  0  0
  186.9130  177.5770  146.6550 C   0  0  0  0  0  2  0  0  0  0  0  0
  188.2790  178.0150  146.4090 N   0  0  0  0  0  2  0  0  0  0  0  0
  189.9170  176.4340  146.8680 O   0  0  0  0  0  0  0  0  0  0  0  0
  189.3090  177.1140  145.9970 C   0  0  0  0  0  0  0  0  0  0  0  0
  189.1620  176.5600  142.2240 C   0  0  0  0  0  2  0  0  0  0  0  0
  189.6980  177.0150  144.5750 C   0  0  0  0  0  0  0  0  0  0  0  0
  190.4290  175.9510  142.1460 O   0  0  0  0  0  0  0  0  0  0  0  0
  191.1590  177.0840  144.1640 C   0  0  1  0  0  3  0  0  0  0  0  0
  188.7620  176.7200  143.6620 C   0  0  0  0  0  3  0  0  0  0  0  0
  191.3390  176.9020  142.6470 C   0  0  0  0  0  2  0  0  0  0  0  0
  191.7660  178.4180  144.5690 C   0  0  0  0  0  2  0  0  0  0  0  0
  191.1090  179.5020  143.8570 N   0  0  0  0  0  1  0  0  0  0  0  0
  1  4  1  0  0  0  0
  1  6  1  0  0  0  0
  2  4  2  0  0  0  0
  3  2  1  0  0  0  0
  4 30  1  0  0  0  0
  5  1  2  0  0  0  0
  7  3  2  0  0  0  0
  7  5  1  0  0  0  0
  8  9  1  0  0  0  0
  9 10  1  0  0  0  0
 10  7  1  0  0  0  0
 11  8  2  0  0  0  0
 12 10  2  0  0  0  0
 13 19  1  0  0  0  0
 13 16  1  0  0  0  0
 15 23  1  0  0  0  0
 16 17  1  0  0  0  0
 18  8  1  0  0  0  0
 18 14  1  0  0  0  0
 18 19  1  0  0  0  0
 20 25  2  0  0  0  0
 21 14  1  0  0  0  0
 21 16  1  0  0  0  0
 23 18  1  0  0  0  0
 24 15  1  0  0  0  0
 24 25  1  0  0  0  0
 25 27  1  0  0  0  0
 26 21  1  0  0  0  0
 27 22  1  0  0  0  0
 27 14  1  0  0  0  0
 29 31  1  0  0  0  0
 30 29  1  0  0  0  0
 30 28  2  0  0  0  0
 32 31  1  0  0  0  0
 34 32  1  0  0  0  0
 34 33  2  0  0  0  0
 35 39  1  0  0  0  0
 36 34  1  0  0  0  0
 37 35  1  0  0  0  0
 37 40  1  0  0  0  0
 38 41  1  0  0  0  0
 38 36  1  0  0  0  0
 39 36  2  0  0  0  0
 40 38  1  0  0  0  0
 42 41  1  0  0  0  0
M  END
>  <MODEL>
6

>  <REMARK>
 VINA RESULT:      -9.1      2.371      3.887
  Name = 
  7 active torsions:
  status: ('A' for Active; 'I' for Inactive)
    1  A    between atoms: C_2  and  N_3
    2  A    between atoms: C_2  and  N_36
    3  A    between atoms: C_5  and  C_16
    4  A    between atoms: C_6  and  C_40
    5  A    between atoms: C_15  and  C_33
    6  A    between atoms: C_19  and  C_23
    7  A    between atoms: C_24  and  C_41
                            x       y       z     vdW  Elec       q    Type
                         _______ _______ _______ _____ _____    ______ ____

>  <TORSDO>
F 7

$$$$
=
 OpenBabel11062413153D

 42 45  0  0  1  0  0  0  0  0999 V2000
  186.2920  178.5070  140.2860 C   0  0  0  0  0  0  0  0  0  0  0  0
  186.0670  178.0980  142.6670 C   0  0  0  0  0  3  0  0  0  0  0  0
  184.6900  178.2980  142.5760 C   0  0  0  0  0  3  0  0  0  0  0  0
  186.8860  178.1910  141.5300 C   0  0  0  0  0  0  0  0  0  0  0  0
  184.9100  178.7150  140.2040 C   0  0  0  0  0  3  0  0  0  0  0  0
  187.0550  178.6210  139.1310 O   0  0  0  0  0  1  0  0  0  0  0  0
  184.1020  178.6070  141.3440 C   0  0  0  0  0  0  0  0  0  0  0  0
  180.6250  178.8270  139.6870 C   0  0  0  0  0  0  0  0  0  0  0  0
  182.0220  178.6840  139.9580 N   0  0  0  0  0  2  0  0  0  0  0  0
  182.6410  178.7500  141.2480 C   0  0  0  0  0  0  0  0  0  0  0  0
  179.7890  178.8090  140.6330 O   0  0  0  0  0  0  0  0  0  0  0  0
  181.9520  178.9730  142.2840 O   0  0  0  0  0  0  0  0  0  0  0  0
  179.5720  178.0270  136.3300 C   0  0  0  0  0  2  0  0  0  0  0  0
  181.2810  179.9520  137.5010 C   0  0  1  0  0  3  0  0  0  0  0  0
  178.9770  180.9990  139.1110 C   0  0  0  0  0  2  0  0  0  0  0  0
  180.7180  178.5400  135.4710 C   0  0  2  0  0  3  0  0  0  0  0  0
  181.8480  177.6290  135.5350 N   0  0  0  0  0  1  0  0  0  0  0  0
  180.1690  179.1660  138.2770 C   0  0  1  0  0  0  0  0  0  0  0  0
  179.9800  177.8960  137.6710 O   0  0  0  0  0  0  0  0  0  0  0  0
  180.9180  183.4250  137.2330 O   0  0  0  0  0  0  0  0  0  0  0  0
  181.1210  179.9190  135.9660 C   0  0  1  0  0  3  0  0  0  0  0  0
  182.0420  181.3170  139.3570 F   0  0  0  0  0  0  0  0  0  0  0  0
  178.9310  179.8730  138.2620 O   0  0  0  0  0  0  0  0  0  0  0  0
  179.1940  182.2680  138.3130 C   0  0  0  0  0  2  0  0  0  0  0  0
  180.6070  182.4070  137.8230 C   0  0  0  0  0  0  0  0  0  0  0  0
  180.1760  180.8430  135.5240 O   0  0  0  0  0  1  0  0  0  0  0  0
  181.6600  181.3520  138.0330 C   0  0  2  0  0  3  0  0  0  0  0  0
  189.1850  178.6130  141.0660 O   0  0  0  0  0  0  0  0  0  0  0  0
  188.7630  176.8480  142.5280 N   0  0  0  0  0  2  0  0  0  0  0  0
  188.3330  177.9200  141.6810 C   0  0  0  0  0  0  0  0  0  0  0  0
  190.1400  176.3820  142.6060 C   0  0  0  0  0  2  0  0  0  0  0  0
  190.7280  176.7060  143.8980 N   0  0  0  0  0  2  0  0  0  0  0  0
  190.8400  178.9740  144.3860 O   0  0  0  0  0  0  0  0  0  0  0  0
  190.3310  177.8510  144.6540 C   0  0  0  0  0  0  0  0  0  0  0  0
  187.0950  177.8170  146.6780 C   0  0  0  0  0  2  0  0  0  0  0  0
  189.3740  177.7190  145.7720 C   0  0  0  0  0  0  0  0  0  0  0  0
  187.6750  178.3760  147.8330 O   0  0  0  0  0  0  0  0  0  0  0  0
  189.8690  177.5530  147.2000 C   0  0  1  0  0  3  0  0  0  0  0  0
  188.0660  177.8910  145.5360 C   0  0  0  0  0  3  0  0  0  0  0  0
  188.7060  177.4930  148.2070 C   0  0  0  0  0  2  0  0  0  0  0  0
  190.6950  176.2830  147.3350 C   0  0  0  0  0  2  0  0  0  0  0  0
  192.0410  176.6070  147.7770 N   0  0  0  0  0  1  0  0  0  0  0  0
  1  4  1  0  0  0  0
  3  2  1  0  0  0  0
  4 30  1  0  0  0  0
  4  2  2  0  0  0  0
  5  1  2  0  0  0  0
  5  7  1  0  0  0  0
  6  1  1  0  0  0  0
  7  3  2  0  0  0  0
  8  9  1  0  0  0  0
  8 11  2  0  0  0  0
  9 10  1  0  0  0  0
 10  7  1  0  0  0  0
 10 12  2  0  0  0  0
 13 19  1  0  0  0  0
 14 27  1  0  0  0  0
 14 18  1  0  0  0  0
 16 17  1  0  0  0  0
 16 21  1  0  0  0  0
 16 13  1  0  0  0  0
 18  8  1  0  0  0  0
 19 18  1  0  0  0  0
 20 25  2  0  0  0  0
 21 14  1  0  0  0  0
 23 18  1  0  0  0  0
 23 15  1  0  0  0  0
 24 15  1  0  0  0  0
 25 27  1  0  0  0  0
 25 24  1  0  0  0  0
 26 21  1  0  0  0  0
 27 22  1  0  0  0  0
 28 30  2  0  0  0  0
 29 31  1  0  0  0  0
 30 29  1  0  0  0  0
 31 32  1  0  0  0  0
 32 34  1  0  0  0  0
 33 34  2  0  0  0  0
 34 36  1  0  0  0  0
 35 37  1  0  0  0  0
 36 38  1  0  0  0  0
 37 40  1  0  0  0  0
 38 41  1  0  0  0  0
 38 40  1  0  0  0  0
 39 36  2  0  0  0  0
 39 35  1  0  0  0  0
 41 42  1  0  0  0  0
M  END
>  <MODEL>
7

>  <REMARK>
 VINA RESULT:      -9.0      2.074      4.109
  Name = 
  7 active torsions:
  status: ('A' for Active; 'I' for Inactive)
    1  A    between atoms: C_2  and  N_3
    2  A    between atoms: C_2  and  N_36
    3  A    between atoms: C_5  and  C_16
    4  A    between atoms: C_6  and  C_40
    5  A    between atoms: C_15  and  C_33
    6  A    between atoms: C_19  and  C_23
    7  A    between atoms: C_24  and  C_41
                            x       y       z     vdW  Elec       q    Type
                         _______ _______ _______ _____ _____    ______ ____

>  <TORSDO>
F 7

$$$$
=
 OpenBabel11062413153D

 42 45  0  0  1  0  0  0  0  0999 V2000
  192.7510  176.4210  138.4530 C   0  0  0  0  0  0  0  0  0  0  0  0
  191.1580  176.3510  136.6250 C   0  0  0  0  0  3  0  0  0  0  0  0
  190.1810  176.9100  137.4490 C   0  0  0  0  0  3  0  0  0  0  0  0
  192.4530  176.1060  137.1080 C   0  0  0  0  0  0  0  0  0  0  0  0
  191.7630  176.9730  139.2780 C   0  0  0  0  0  3  0  0  0  0  0  0
  194.0130  176.1900  138.9860 O   0  0  0  0  0  1  0  0  0  0  0  0
  190.4770  177.2250  138.7810 C   0  0  0  0  0  0  0  0  0  0  0  0
  188.4990  178.1110  141.9720 C   0  0  0  0  0  0  0  0  0  0  0  0
  189.4330  177.5870  141.0240 N   0  0  0  0  0  2  0  0  0  0  0  0
  189.4590  177.8740  139.6200 C   0  0  0  0  0  0  0  0  0  0  0  0
  187.7390  179.0670  141.6540 O   0  0  0  0  0  0  0  0  0  0  0  0
  188.5960  178.6380  139.1020 O   0  0  0  0  0  0  0  0  0  0  0  0
  186.5490  176.6930  144.6570 C   0  0  0  0  0  2  0  0  0  0  0  0
  188.8940  178.2630  144.4810 C   0  0  1  0  0  3  0  0  0  0  0  0
  190.2070  176.1000  142.8700 C   0  0  0  0  0  2  0  0  0  0  0  0
  186.8490  177.6100  145.8320 C   0  0  2  0  0  3  0  0  0  0  0  0
  186.1130  178.8570  145.7030 N   0  0  0  0  0  1  0  0  0  0  0  0
  188.3130  177.4040  143.3060 C   0  0  1  0  0  0  0  0  0  0  0  0
  186.9040  177.3120  143.4430 O   0  0  0  0  0  0  0  0  0  0  0  0
  192.0390  177.3690  145.7350 O   0  0  0  0  0  0  0  0  0  0  0  0
  188.3440  177.8810  145.8720 C   0  0  1  0  0  3  0  0  0  0  0  0
  190.8550  179.0900  143.3160 F   0  0  0  0  0  0  0  0  0  0  0  0
  188.8650  176.0900  143.3050 O   0  0  0  0  0  0  0  0  0  0  0  0
  191.1560  176.0110  144.0470 C   0  0  0  0  0  2  0  0  0  0  0  0
  191.2490  177.2990  144.8120 C   0  0  0  0  0  0  0  0  0  0  0  0
  188.9840  176.7580  146.3920 O   0  0  0  0  0  1  0  0  0  0  0  0
  190.4190  178.5120  144.4890 C   0  0  2  0  0  3  0  0  0  0  0  0
  193.2850  174.4400  135.6200 O   0  0  0  0  0  0  0  0  0  0  0  0
  194.6510  176.3060  135.9000 N   0  0  0  0  0  2  0  0  0  0  0  0
  193.4600  175.5570  136.1710 C   0  0  0  0  0  0  0  0  0  0  0  0
  195.7800  175.7840  135.1450 C   0  0  0  0  0  2  0  0  0  0  0  0
  196.9030  175.4870  136.0230 N   0  0  0  0  0  2  0  0  0  0  0  0
  196.3250  174.9010  138.1950 O   0  0  0  0  0  0  0  0  0  0  0  0
  196.8120  174.5400  137.0880 C   0  0  0  0  0  0  0  0  0  0  0  0
  199.1360  171.5130  137.0620 C   0  0  0  0  0  2  0  0  0  0  0  0
  197.3280  173.1650  136.9190 C   0  0  0  0  0  0  0  0  0  0  0  0
  198.6310  170.9890  135.8570 O   0  0  0  0  0  0  0  0  0  0  0  0
  196.5070  172.1130  136.1920 C   0  0  1  0  0  3  0  0  0  0  0  0
  198.5870  172.8920  137.2860 C   0  0  0  0  0  3  0  0  0  0  0  0
  197.2580  170.7740  136.0810 C   0  0  0  0  0  2  0  0  0  0  0  0
  195.1890  171.8730  136.9110 C   0  0  0  0  0  2  0  0  0  0  0  0
  195.4270  171.6300  138.3240 N   0  0  0  0  0  1  0  0  0  0  0  0
  1  6  1  0  0  0  0
  1  5  1  0  0  0  0
  2  4  1  0  0  0  0
  2  3  2  0  0  0  0
  3  7  1  0  0  0  0
  4  1  2  0  0  0  0
  7  5  2  0  0  0  0
  7 10  1  0  0  0  0
  8 18  1  0  0  0  0
  9  8  1  0  0  0  0
 10  9  1  0  0  0  0
 11  8  2  0  0  0  0
 12 10  2  0  0  0  0
 13 16  1  0  0  0  0
 14 27  1  0  0  0  0
 14 21  1  0  0  0  0
 15 23  1  0  0  0  0
 15 24  1  0  0  0  0
 16 21  1  0  0  0  0
 17 16  1  0  0  0  0
 18 19  1  0  0  0  0
 18 14  1  0  0  0  0
 19 13  1  0  0  0  0
 21 26  1  0  0  0  0
 22 27  1  0  0  0  0
 23 18  1  0  0  0  0
 24 25  1  0  0  0  0
 25 20  2  0  0  0  0
 27 25  1  0  0  0  0
 28 30  2  0  0  0  0
 29 30  1  0  0  0  0
 30  4  1  0  0  0  0
 31 29  1  0  0  0  0
 31 32  1  0  0  0  0
 32 34  1  0  0  0  0
 34 33  2  0  0  0  0
 35 39  1  0  0  0  0
 36 34  1  0  0  0  0
 36 39  2  0  0  0  0
 37 40  1  0  0  0  0
 37 35  1  0  0  0  0
 38 41  1  0  0  0  0
 38 36  1  0  0  0  0
 40 38  1  0  0  0  0
 41 42  1  0  0  0  0
M  END
>  <MODEL>
8

>  <REMARK>
 VINA RESULT:      -9.0      5.838     10.371
  Name = 
  7 active torsions:
  status: ('A' for Active; 'I' for Inactive)
    1  A    between atoms: C_2  and  N_3
    2  A    between atoms: C_2  and  N_36
    3  A    between atoms: C_5  and  C_16
    4  A    between atoms: C_6  and  C_40
    5  A    between atoms: C_15  and  C_33
    6  A    between atoms: C_19  and  C_23
    7  A    between atoms: C_24  and  C_41
                            x       y       z     vdW  Elec       q    Type
                         _______ _______ _______ _____ _____    ______ ____

>  <TORSDO>
F 7

$$$$
=
 OpenBabel11062413153D

 42 45  0  0  1  0  0  0  0  0999 V2000
  185.7080  178.2690  144.2570 C   0  0  0  0  0  0  0  0  0  0  0  0
  184.2680  178.8260  146.1270 C   0  0  0  0  0  3  0  0  0  0  0  0
  183.1950  179.0020  145.2540 C   0  0  0  0  0  3  0  0  0  0  0  0
  185.5330  178.4510  145.6470 C   0  0  0  0  0  0  0  0  0  0  0  0
  184.6290  178.4570  143.3850 C   0  0  0  0  0  3  0  0  0  0  0  0
  186.9400  177.9070  143.7260 O   0  0  0  0  0  1  0  0  0  0  0  0
  183.3680  178.8190  143.8770 C   0  0  0  0  0  0  0  0  0  0  0  0
  181.4160  178.9070  140.5510 C   0  0  0  0  0  0  0  0  0  0  0  0
  182.4190  178.7930  141.5630 N   0  0  0  0  0  2  0  0  0  0  0  0
  182.2140  178.9430  142.9740 C   0  0  0  0  0  0  0  0  0  0  0  0
  180.1940  178.9400  140.8670 O   0  0  0  0  0  0  0  0  0  0  0  0
  181.0700  179.2220  143.4330 O   0  0  0  0  0  0  0  0  0  0  0  0
  181.1820  180.5130  137.3280 C   0  0  0  0  0  2  0  0  0  0  0  0
  181.6240  177.8720  138.2360 C   0  0  1  0  0  3  0  0  0  0  0  0
  184.0690  178.7990  139.7050 C   0  0  0  0  0  2  0  0  0  0  0  0
  180.7380  179.3880  136.4060 C   0  0  2  0  0  3  0  0  0  0  0  0
  179.3210  179.1160  136.5830 N   0  0  0  0  0  1  0  0  0  0  0  0
  181.8340  179.1560  139.1100 C   0  0  1  0  0  0  0  0  0  0  0  0
  180.9450  180.1720  138.6730 O   0  0  0  0  0  0  0  0  0  0  0  0
  184.4450  175.9220  137.5240 O   0  0  0  0  0  0  0  0  0  0  0  0
  181.5580  178.1470  136.7180 C   0  0  1  0  0  3  0  0  0  0  0  0
  182.3290  176.2510  139.8980 F   0  0  0  0  0  0  0  0  0  0  0  0
  183.1720  179.6360  139.0090 O   0  0  0  0  0  0  0  0  0  0  0  0
  184.8040  177.8820  138.7500 C   0  0  0  0  0  2  0  0  0  0  0  0
  183.9390  176.7650  138.2420 C   0  0  0  0  0  0  0  0  0  0  0  0
  182.8270  178.3030  136.1640 O   0  0  0  0  0  1  0  0  0  0  0  0
  182.4790  176.6330  138.5810 C   0  0  2  0  0  3  0  0  0  0  0  0
  186.8210  179.0510  147.5600 O   0  0  0  0  0  0  0  0  0  0  0  0
  187.4550  177.0740  146.5040 N   0  0  0  0  0  2  0  0  0  0  0  0
  186.6200  178.2300  146.6280 C   0  0  0  0  0  0  0  0  0  0  0  0
  188.6570  176.8550  147.2970 C   0  0  0  0  0  2  0  0  0  0  0  0
  189.8080  177.5080  146.6900 N   0  0  0  0  0  2  0  0  0  0  0  0
  191.6560  176.1400  146.3640 O   0  0  0  0  0  0  0  0  0  0  0  0
  190.7240  176.8130  145.8430 C   0  0  0  0  0  0  0  0  0  0  0  0
  189.5130  176.3760  142.2500 C   0  0  0  0  0  2  0  0  0  0  0  0
  190.6190  176.9180  144.3730 C   0  0  0  0  0  0  0  0  0  0  0  0
  190.8070  176.2960  141.7010 O   0  0  0  0  0  0  0  0  0  0  0  0
  191.7360  177.5500  143.5590 C   0  0  1  0  0  3  0  0  0  0  0  0
  189.5940  176.3230  143.7480 C   0  0  0  0  0  3  0  0  0  0  0  0
  191.4430  177.5030  142.0490 C   0  0  0  0  0  2  0  0  0  0  0  0
  191.9410  179.0000  143.9690 C   0  0  0  0  0  2  0  0  0  0  0  0
  190.6720  179.7070  143.9590 N   0  0  0  0  0  1  0  0  0  0  0  0
  1  4  1  0  0  0  0
  3  2  1  0  0  0  0
  4  2  2  0  0  0  0
  4 30  1  0  0  0  0
  5  7  1  0  0  0  0
  5  1  2  0  0  0  0
  6  1  1  0  0  0  0
  7  3  2  0  0  0  0
  8 11  2  0  0  0  0
  8  9  1  0  0  0  0
  9 10  1  0  0  0  0
 10 12  2  0  0  0  0
 10  7  1  0  0  0  0
 13 19  1  0  0  0  0
 14 27  1  0  0  0  0
 14 18  1  0  0  0  0
 16 17  1  0  0  0  0
 16 21  1  0  0  0  0
 16 13  1  0  0  0  0
 18  8  1  0  0  0  0
 19 18  1  0  0  0  0
 20 25  2  0  0  0  0
 21 14  1  0  0  0  0
 23 18  1  0  0  0  0
 23 15  1  0  0  0  0
 24 15  1  0  0  0  0
 25 27  1  0  0  0  0
 25 24  1  0  0  0  0
 26 21  1  0  0  0  0
 27 22  1  0  0  0  0
 29 30  1  0  0  0  0
 29 31  1  0  0  0  0
 30 28  2  0  0  0  0
 32 31  1  0  0  0  0
 34 33  2  0  0  0  0
 34 32  1  0  0  0  0
 35 39  1  0  0  0  0
 36 34  1  0  0  0  0
 37 40  1  0  0  0  0
 37 35  1  0  0  0  0
 38 41  1  0  0  0  0
 38 36  1  0  0  0  0
 39 36  2  0  0  0  0
 40 38  1  0  0  0  0
 42 41  1  0  0  0  0
M  END
>  <MODEL>
9

>  <REMARK>
 VINA RESULT:      -9.0      2.155      3.321
  Name = 
  7 active torsions:
  status: ('A' for Active; 'I' for Inactive)
    1  A    between atoms: C_2  and  N_3
    2  A    between atoms: C_2  and  N_36
    3  A    between atoms: C_5  and  C_16
    4  A    between atoms: C_6  and  C_40
    5  A    between atoms: C_15  and  C_33
    6  A    between atoms: C_19  and  C_23
    7  A    between atoms: C_24  and  C_41
                            x       y       z     vdW  Elec       q    Type
                         _______ _______ _______ _____ _____    ______ ____

>  <TORSDO>
F 7

$$$$
