=
 OpenBabel11062415043D

 31 34  0  0  1  0  0  0  0  0999 V2000
  183.5170  179.0080  143.4270 C   0  0  0  0  0  3  0  0  0  0  0  0
  183.2040  178.8420  144.7200 C   0  0  0  0  0  3  0  0  0  0  0  0
  185.5720  178.2910  145.2080 C   0  0  0  0  0  0  0  0  0  0  0  0
  185.8390  178.4570  143.9440 N   0  0  0  0  0  0  0  0  0  0  0  0
  184.2880  178.8570  145.7710 C   0  0  0  0  0  2  0  0  0  0  0  0
  184.9590  179.2140  143.0420 C   0  0  1  0  0  3  0  0  0  0  0  0
  185.1860  178.8230  141.5820 C   0  0  0  0  0  2  0  0  0  0  0  0
  186.5930  178.5360  141.3330 N   0  0  0  0  0  2  0  0  0  0  0  0
  187.0820  178.3340  140.0040 C   0  0  0  0  0  0  0  0  0  0  0  0
  186.4080  178.7270  139.0120 O   0  0  0  0  0  0  0  0  0  0  0  0
  190.3920  176.5450  139.0230 C   0  0  0  0  0  0  0  0  0  0  0  0
  190.4700  177.0210  140.3280 C   0  0  0  0  0  3  0  0  0  0  0  0
  188.3850  177.6990  139.8010 C   0  0  0  0  0  0  0  0  0  0  0  0
  189.3410  177.6550  140.7530 N   0  0  0  0  0  0  0  0  0  0  0  0
  188.8780  176.9260  138.3900 S   0  0  0  0  0  0  0  0  0  0  0  0
  191.3170  174.6180  138.0080 O   0  0  0  0  0  1  0  0  0  0  0  0
  191.4570  175.8330  138.3090 C   0  0  0  0  0  0  0  0  0  0  0  0
  192.6370  176.4870  137.9780 O   0  0  0  0  0  0  0  0  0  0  0  0
  186.5050  177.6020  146.0010 O   0  0  0  0  0  0  0  0  0  0  0  0
  192.2090  176.5990  146.6700 O   0  0  0  0  0  0  0  0  0  0  0  0
  190.8300  177.0720  144.7440 C   0  0  0  0  0  0  0  0  0  0  0  0
  189.7730  176.6550  146.8410 C   0  0  2  0  0  3  0  0  0  0  0  0
  191.0770  176.7700  146.1420 C   0  0  0  0  0  0  0  0  0  0  0  0
  188.1850  178.2590  147.7410 C   0  0  1  0  0  3  0  0  0  0  0  0
  188.8280  177.0210  145.8000 N   0  0  0  0  0  0  0  0  0  0  0  0
  187.8580  177.9920  146.2650 C   0  0  1  0  0  3  0  0  0  0  0  0
  189.5300  177.2260  144.5710 C   0  0  0  0  0  3  0  0  0  0  0  0
  187.2410  177.5630  148.7080 C   0  0  0  0  0  1  0  0  0  0  0  0
  189.5920  177.6980  147.9350 C   0  0  0  0  0  2  0  0  0  0  0  0
  191.8520  177.1960  143.6690 C   0  0  0  0  0  2  0  0  0  0  0  0
  191.8200  178.5370  143.1170 N   0  0  0  0  0  1  0  0  0  0  0  0
  1  2  2  0  0  0  0
  2  5  1  0  0  0  0
  3  5  1  0  0  0  0
  3 19  1  0  0  0  0
  4  3  2  0  0  0  0
  6  7  1  6  0  0  0
  6  1  1  0  0  0  0
  6  4  1  0  0  0  0
  8  7  1  0  0  0  0
  9  8  1  0  0  0  0
 10  9  2  0  0  0  0
 11 12  2  0  0  0  0
 12 14  1  0  0  0  0
 13  9  1  0  0  0  0
 13 14  2  0  0  0  0
 15 11  1  0  0  0  0
 15 13  1  0  0  0  0
 16 17  1  0  0  0  0
 17 11  1  0  0  0  0
 18 17  2  0  0  0  0
 21 23  1  0  0  0  0
 22 29  1  1  0  0  0
 23 20  2  0  0  0  0
 23 22  1  0  0  0  0
 24 29  1  0  0  0  0
 24 28  1  1  0  0  0
 25 26  1  0  0  0  0
 25 22  1  0  0  0  0
 26 19  1  1  0  0  0
 26 24  1  0  0  0  0
 27 21  2  0  0  0  0
 27 25  1  0  0  0  0
 30 21  1  0  0  0  0
 31 30  1  0  0  0  0
M  END
>  <MODEL>
1

>  <REMARK>
 VINA RESULT:      -8.9      0.000      0.000
  Name = 
  7 active torsions:
  status: ('A' for Active; 'I' for Inactive)
    1  A    between atoms: C_1  and  C_13
    2  A    between atoms: C_7  and  C_22
    3  A    between atoms: C_8  and  C_10
    4  A    between atoms: N_14  and  C_24
    5  A    between atoms: C_20  and  O_29
    6  A    between atoms: C_23  and  O_29
    7  A    between atoms: C_24  and  C_31
                            x       y       z     vdW  Elec       q    Type
                         _______ _______ _______ _____ _____    ______ ____

>  <TORSDO>
F 7

$$$$
=
 OpenBabel11062415043D

 31 34  0  0  1  0  0  0  0  0999 V2000
  191.5940  176.5660  145.6210 C   0  0  0  0  0  3  0  0  0  0  0  0
  190.9710  176.7820  146.7880 C   0  0  0  0  0  3  0  0  0  0  0  0
  188.9700  177.5780  145.5570 C   0  0  0  0  0  0  0  0  0  0  0  0
  189.6080  177.3590  144.4420 N   0  0  0  0  0  0  0  0  0  0  0  0
  189.4690  176.9320  146.8300 C   0  0  0  0  0  2  0  0  0  0  0  0
  190.7760  176.4710  144.3590 C   0  0  1  0  0  3  0  0  0  0  0  0
  191.6340  176.7910  143.1370 C   0  0  0  0  0  2  0  0  0  0  0  0
  190.8670  176.6380  141.9070 N   0  0  0  0  0  2  0  0  0  0  0  0
  191.2810  177.2720  140.6940 C   0  0  0  0  0  0  0  0  0  0  0  0
  192.4670  177.6850  140.5640 O   0  0  0  0  0  0  0  0  0  0  0  0
  188.4530  177.8220  138.0820 C   0  0  0  0  0  0  0  0  0  0  0  0
  189.5800  177.2860  137.4660 C   0  0  0  0  0  3  0  0  0  0  0  0
  190.3310  177.4110  139.5890 C   0  0  0  0  0  0  0  0  0  0  0  0
  190.6180  177.0540  138.3190 N   0  0  0  0  0  0  0  0  0  0  0  0
  188.7630  178.0070  139.7270 S   0  0  0  0  0  0  0  0  0  0  0  0
  187.0420  179.3280  136.9260 O   0  0  0  0  0  0  0  0  0  0  0  0
  187.2000  178.1760  137.4080 C   0  0  0  0  0  0  0  0  0  0  0  0
  186.1700  177.2480  137.3130 O   0  0  0  0  0  1  0  0  0  0  0  0
  187.8290  178.3970  145.5240 O   0  0  0  0  0  0  0  0  0  0  0  0
  182.5620  179.2980  143.1920 O   0  0  0  0  0  0  0  0  0  0  0  0
  184.6830  178.6060  142.2640 C   0  0  0  0  0  0  0  0  0  0  0  0
  184.6050  179.3450  144.5300 C   0  0  2  0  0  3  0  0  0  0  0  0
  183.8000  179.0920  143.3100 C   0  0  0  0  0  0  0  0  0  0  0  0
  185.4910  177.9340  146.2990 C   0  0  1  0  0  3  0  0  0  0  0  0
  185.9210  178.8690  144.1410 N   0  0  0  0  0  0  0  0  0  0  0  0
  186.5040  178.0040  145.1470 C   0  0  1  0  0  3  0  0  0  0  0  0
  185.8960  178.4720  142.7680 C   0  0  0  0  0  3  0  0  0  0  0  0
  185.8740  178.7890  147.4970 C   0  0  0  0  0  1  0  0  0  0  0  0
  184.1900  178.4710  145.7050 C   0  0  0  0  0  2  0  0  0  0  0  0
  184.3070  178.3010  140.8570 C   0  0  0  0  0  2  0  0  0  0  0  0
  184.7370  179.3830  139.9900 N   0  0  0  0  0  1  0  0  0  0  0  0
  1  2  2  0  0  0  0
  2  5  1  0  0  0  0
  3  5  1  0  0  0  0
  4  3  2  0  0  0  0
  6  7  1  6  0  0  0
  6  4  1  0  0  0  0
  6  1  1  0  0  0  0
  8  7  1  0  0  0  0
  9  8  1  0  0  0  0
 10  9  2  0  0  0  0
 11 15  1  0  0  0  0
 12 11  2  0  0  0  0
 12 14  1  0  0  0  0
 13 15  1  0  0  0  0
 13  9  1  0  0  0  0
 14 13  2  0  0  0  0
 16 17  2  0  0  0  0
 17 11  1  0  0  0  0
 18 17  1  0  0  0  0
 19  3  1  0  0  0  0
 20 23  2  0  0  0  0
 21 27  2  0  0  0  0
 21 23  1  0  0  0  0
 22 29  1  1  0  0  0
 23 22  1  0  0  0  0
 24 28  1  1  0  0  0
 25 22  1  0  0  0  0
 25 26  1  0  0  0  0
 26 19  1  1  0  0  0
 26 24  1  0  0  0  0
 27 25  1  0  0  0  0
 29 24  1  0  0  0  0
 30 21  1  0  0  0  0
 31 30  1  0  0  0  0
M  END
>  <MODEL>
2

>  <REMARK>
 VINA RESULT:      -8.8      1.936      5.665
  Name = 
  7 active torsions:
  status: ('A' for Active; 'I' for Inactive)
    1  A    between atoms: C_1  and  C_13
    2  A    between atoms: C_7  and  C_22
    3  A    between atoms: C_8  and  C_10
    4  A    between atoms: N_14  and  C_24
    5  A    between atoms: C_20  and  O_29
    6  A    between atoms: C_23  and  O_29
    7  A    between atoms: C_24  and  C_31
                            x       y       z     vdW  Elec       q    Type
                         _______ _______ _______ _____ _____    ______ ____

>  <TORSDO>
F 7

$$$$
=
 OpenBabel11062415043D

 31 34  0  0  1  0  0  0  0  0999 V2000
  183.3920  178.8500  140.7560 C   0  0  0  0  0  3  0  0  0  0  0  0
  182.7450  178.7010  141.9200 C   0  0  0  0  0  3  0  0  0  0  0  0
  184.9110  178.2650  143.0490 C   0  0  0  0  0  0  0  0  0  0  0  0
  185.5040  178.4140  141.8990 N   0  0  0  0  0  0  0  0  0  0  0  0
  183.5020  178.7880  143.2250 C   0  0  0  0  0  2  0  0  0  0  0  0
  184.8750  179.1090  140.7680 C   0  0  1  0  0  3  0  0  0  0  0  0
  185.5040  178.6950  139.4380 C   0  0  0  0  0  2  0  0  0  0  0  0
  186.9260  178.4170  139.5990 N   0  0  0  0  0  2  0  0  0  0  0  0
  187.7900  178.3050  138.4650 C   0  0  0  0  0  0  0  0  0  0  0  0
  187.4350  178.7700  137.3470 O   0  0  0  0  0  0  0  0  0  0  0  0
  191.2970  176.6280  138.3850 C   0  0  0  0  0  0  0  0  0  0  0  0
  190.8950  176.8420  139.7000 C   0  0  0  0  0  3  0  0  0  0  0  0
  189.1040  177.6770  138.6150 C   0  0  0  0  0  0  0  0  0  0  0  0
  189.6670  177.4210  139.8150 N   0  0  0  0  0  0  0  0  0  0  0  0
  190.0880  177.1730  137.3460 S   0  0  0  0  0  0  0  0  0  0  0  0
  193.5680  176.7610  137.7350 O   0  0  0  0  0  0  0  0  0  0  0  0
  192.5700  176.0300  137.9690 C   0  0  0  0  0  0  0  0  0  0  0  0
  192.6790  174.6540  137.8100 O   0  0  0  0  0  1  0  0  0  0  0  0
  185.6160  177.6370  144.0890 O   0  0  0  0  0  0  0  0  0  0  0  0
  189.9900  177.5000  147.9420 O   0  0  0  0  0  0  0  0  0  0  0  0
  189.9100  177.3920  145.5300 C   0  0  0  0  0  0  0  0  0  0  0  0
  187.8660  177.2910  146.7540 C   0  0  2  0  0  3  0  0  0  0  0  0
  189.3400  177.4180  146.8640 C   0  0  0  0  0  0  0  0  0  0  0  0
  186.0660  178.8400  146.2410 C   0  0  1  0  0  3  0  0  0  0  0  0
  187.6570  177.3150  145.3160 N   0  0  0  0  0  0  0  0  0  0  0  0
  186.6040  178.2360  144.9370 C   0  0  1  0  0  3  0  0  0  0  0  0
  188.9230  177.3460  144.6530 C   0  0  0  0  0  3  0  0  0  0  0  0
  184.7350  178.2490  146.6810 C   0  0  0  0  0  1  0  0  0  0  0  0
  187.1240  178.5080  147.2900 C   0  0  0  0  0  2  0  0  0  0  0  0
  191.3570  177.4150  145.1820 C   0  0  0  0  0  2  0  0  0  0  0  0
  191.5780  178.3210  144.0700 N   0  0  0  0  0  1  0  0  0  0  0  0
  1  6  1  0  0  0  0
  1  2  2  0  0  0  0
  2  5  1  0  0  0  0
  3  5  1  0  0  0  0
  3 19  1  0  0  0  0
  4  3  2  0  0  0  0
  6  7  1  6  0  0  0
  6  4  1  0  0  0  0
  7  8  1  0  0  0  0
  9 13  1  0  0  0  0
  9  8  1  0  0  0  0
 10  9  2  0  0  0  0
 11 12  2  0  0  0  0
 12 14  1  0  0  0  0
 13 14  2  0  0  0  0
 15 11  1  0  0  0  0
 15 13  1  0  0  0  0
 16 17  2  0  0  0  0
 17 11  1  0  0  0  0
 18 17  1  0  0  0  0
 21 23  1  0  0  0  0
 22 23  1  0  0  0  0
 22 29  1  1  0  0  0
 23 20  2  0  0  0  0
 24 28  1  1  0  0  0
 24 29  1  0  0  0  0
 25 22  1  0  0  0  0
 26 19  1  1  0  0  0
 26 25  1  0  0  0  0
 26 24  1  0  0  0  0
 27 25  1  0  0  0  0
 27 21  2  0  0  0  0
 30 21  1  0  0  0  0
 31 30  1  0  0  0  0
M  END
>  <MODEL>
3

>  <REMARK>
 VINA RESULT:      -8.6      1.361      2.040
  Name = 
  7 active torsions:
  status: ('A' for Active; 'I' for Inactive)
    1  A    between atoms: C_1  and  C_13
    2  A    between atoms: C_7  and  C_22
    3  A    between atoms: C_8  and  C_10
    4  A    between atoms: N_14  and  C_24
    5  A    between atoms: C_20  and  O_29
    6  A    between atoms: C_23  and  O_29
    7  A    between atoms: C_24  and  C_31
                            x       y       z     vdW  Elec       q    Type
                         _______ _______ _______ _____ _____    ______ ____

>  <TORSDO>
F 7

$$$$
=
 OpenBabel11062415043D

 31 34  0  0  1  0  0  0  0  0999 V2000
  182.8860  178.9830  143.8010 C   0  0  0  0  0  3  0  0  0  0  0  0
  183.2980  178.9550  145.0770 C   0  0  0  0  0  3  0  0  0  0  0  0
  185.5400  178.2080  144.3210 C   0  0  0  0  0  0  0  0  0  0  0  0
  185.1030  178.2430  143.0950 N   0  0  0  0  0  0  0  0  0  0  0  0
  184.7740  178.9450  145.3970 C   0  0  0  0  0  2  0  0  0  0  0  0
  183.9130  179.0100  142.6990 C   0  0  1  0  0  3  0  0  0  0  0  0
  183.3160  178.4810  141.3960 C   0  0  0  0  0  2  0  0  0  0  0  0
  184.3650  178.0710  140.4710 N   0  0  0  0  0  2  0  0  0  0  0  0
  184.7110  178.8780  139.3420 C   0  0  0  0  0  0  0  0  0  0  0  0
  184.3760  180.0930  139.3020 O   0  0  0  0  0  0  0  0  0  0  0  0
  186.3740  177.0840  136.3190 C   0  0  0  0  0  0  0  0  0  0  0  0
  187.2820  177.9460  136.9260 C   0  0  0  0  0  3  0  0  0  0  0  0
  185.4870  178.2940  138.2460 C   0  0  0  0  0  0  0  0  0  0  0  0
  186.7770  178.6090  138.0050 N   0  0  0  0  0  0  0  0  0  0  0  0
  184.9110  177.1530  137.1510 S   0  0  0  0  0  0  0  0  0  0  0  0
  185.7180  175.5860  134.6100 O   0  0  0  0  0  0  0  0  0  0  0  0
  186.6440  176.2530  135.1410 C   0  0  0  0  0  0  0  0  0  0  0  0
  187.9280  176.1810  134.6140 O   0  0  0  0  0  1  0  0  0  0  0  0
  186.7200  177.4950  144.5890 O   0  0  0  0  0  0  0  0  0  0  0  0
  192.0710  176.5360  142.4830 O   0  0  0  0  0  0  0  0  0  0  0  0
  189.9760  177.1550  141.4510 C   0  0  0  0  0  0  0  0  0  0  0  0
  189.9850  176.5340  143.7530 C   0  0  2  0  0  3  0  0  0  0  0  0
  190.8270  176.7340  142.5490 C   0  0  0  0  0  0  0  0  0  0  0  0
  189.0260  178.0230  145.4170 C   0  0  1  0  0  3  0  0  0  0  0  0
  188.6780  176.9750  143.2970 N   0  0  0  0  0  0  0  0  0  0  0  0
  188.0540  177.8830  144.2370 C   0  0  1  0  0  3  0  0  0  0  0  0
  188.7450  177.3010  141.9070 C   0  0  0  0  0  3  0  0  0  0  0  0
  188.6110  177.2270  146.6440 C   0  0  0  0  0  1  0  0  0  0  0  0
  190.3510  177.4720  144.8950 C   0  0  0  0  0  2  0  0  0  0  0  0
  190.3960  177.3920  140.0430 C   0  0  0  0  0  2  0  0  0  0  0  0
  190.4080  176.1350  139.3180 N   0  0  0  0  0  1  0  0  0  0  0  0
  1  2  2  0  0  0  0
  2  5  1  0  0  0  0
  3 19  1  0  0  0  0
  3  5  1  0  0  0  0
  4  3  2  0  0  0  0
  6  7  1  6  0  0  0
  6  4  1  0  0  0  0
  6  1  1  0  0  0  0
  8  7  1  0  0  0  0
  9  8  1  0  0  0  0
 10  9  2  0  0  0  0
 11 12  2  0  0  0  0
 11 15  1  0  0  0  0
 12 14  1  0  0  0  0
 13  9  1  0  0  0  0
 14 13  2  0  0  0  0
 15 13  1  0  0  0  0
 16 17  2  0  0  0  0
 17 11  1  0  0  0  0
 18 17  1  0  0  0  0
 20 23  2  0  0  0  0
 21 27  2  0  0  0  0
 21 23  1  0  0  0  0
 22 29  1  1  0  0  0
 23 22  1  0  0  0  0
 24 28  1  1  0  0  0
 25 22  1  0  0  0  0
 25 26  1  0  0  0  0
 26 19  1  1  0  0  0
 26 24  1  0  0  0  0
 27 25  1  0  0  0  0
 29 24  1  0  0  0  0
 30 21  1  0  0  0  0
 31 30  1  0  0  0  0
M  END
>  <MODEL>
4

>  <REMARK>
 VINA RESULT:      -8.3      2.626      3.402
  Name = 
  7 active torsions:
  status: ('A' for Active; 'I' for Inactive)
    1  A    between atoms: C_1  and  C_13
    2  A    between atoms: C_7  and  C_22
    3  A    between atoms: C_8  and  C_10
    4  A    between atoms: N_14  and  C_24
    5  A    between atoms: C_20  and  O_29
    6  A    between atoms: C_23  and  O_29
    7  A    between atoms: C_24  and  C_31
                            x       y       z     vdW  Elec       q    Type
                         _______ _______ _______ _____ _____    ______ ____

>  <TORSDO>
F 7

$$$$
=
 OpenBabel11062415043D

 31 34  0  0  1  0  0  0  0  0999 V2000
  185.6680  178.4240  147.1110 C   0  0  0  0  0  3  0  0  0  0  0  0
  186.7560  177.9100  147.7000 C   0  0  0  0  0  3  0  0  0  0  0  0
  187.8600  177.7440  145.4850 C   0  0  0  0  0  0  0  0  0  0  0  0
  186.7840  178.2430  144.9470 N   0  0  0  0  0  0  0  0  0  0  0  0
  188.0800  177.9010  146.9730 C   0  0  0  0  0  2  0  0  0  0  0  0
  185.7860  178.9940  145.7210 C   0  0  1  0  0  3  0  0  0  0  0  0
  184.4260  178.9980  145.0240 C   0  0  0  0  0  2  0  0  0  0  0  0
  184.5790  179.1680  143.5850 N   0  0  0  0  0  2  0  0  0  0  0  0
  183.5360  178.7930  142.6810 C   0  0  0  0  0  0  0  0  0  0  0  0
  182.3570  178.6340  143.1020 O   0  0  0  0  0  0  0  0  0  0  0  0
  183.9860  178.0240  138.8960 C   0  0  0  0  0  0  0  0  0  0  0  0
  184.8760  179.0160  139.2960 C   0  0  0  0  0  3  0  0  0  0  0  0
  183.8360  178.6280  141.2580 C   0  0  0  0  0  0  0  0  0  0  0  0
  184.7880  179.3380  140.6170 N   0  0  0  0  0  0  0  0  0  0  0  0
  183.0710  177.5410  140.2260 S   0  0  0  0  0  0  0  0  0  0  0  0
  182.7900  177.6540  136.8880 O   0  0  0  0  0  0  0  0  0  0  0  0
  183.8570  177.4900  137.5360 C   0  0  0  0  0  0  0  0  0  0  0  0
  184.9050  176.7810  136.9610 O   0  0  0  0  0  1  0  0  0  0  0  0
  188.7840  177.0920  144.6510 O   0  0  0  0  0  0  0  0  0  0  0  0
  191.4550  177.0540  139.4690 O   0  0  0  0  0  0  0  0  0  0  0  0
  189.1820  177.5030  140.1520 C   0  0  0  0  0  0  0  0  0  0  0  0
  190.7200  176.6510  141.7630 C   0  0  2  0  0  3  0  0  0  0  0  0
  190.5560  177.0820  140.3530 C   0  0  0  0  0  0  0  0  0  0  0  0
  191.0490  177.8240  143.8660 C   0  0  1  0  0  3  0  0  0  0  0  0
  189.4230  176.9660  142.3380 N   0  0  0  0  0  0  0  0  0  0  0  0
  189.5450  177.6840  143.5910 C   0  0  1  0  0  3  0  0  0  0  0  0
  188.5500  177.4410  141.3110 C   0  0  0  0  0  3  0  0  0  0  0  0
  191.5660  176.8570  144.9200 C   0  0  0  0  0  1  0  0  0  0  0  0
  191.7190  177.5040  142.5320 C   0  0  0  0  0  2  0  0  0  0  0  0
  188.5650  177.9370  138.8690 C   0  0  0  0  0  2  0  0  0  0  0  0
  189.0520  179.2570  138.5150 N   0  0  0  0  0  1  0  0  0  0  0  0
  1  2  2  0  0  0  0
  3  5  1  0  0  0  0
  4  3  2  0  0  0  0
  4  6  1  0  0  0  0
  5  2  1  0  0  0  0
  6  7  1  6  0  0  0
  6  1  1  0  0  0  0
  8  7  1  0  0  0  0
  9 10  2  0  0  0  0
  9  8  1  0  0  0  0
 11 12  2  0  0  0  0
 11 15  1  0  0  0  0
 12 14  1  0  0  0  0
 13  9  1  0  0  0  0
 14 13  2  0  0  0  0
 15 13  1  0  0  0  0
 16 17  2  0  0  0  0
 17 11  1  0  0  0  0
 18 17  1  0  0  0  0
 19  3  1  0  0  0  0
 20 23  2  0  0  0  0
 21 23  1  0  0  0  0
 21 27  2  0  0  0  0
 22 25  1  0  0  0  0
 22 29  1  1  0  0  0
 23 22  1  0  0  0  0
 24 28  1  1  0  0  0
 25 26  1  0  0  0  0
 26 24  1  0  0  0  0
 26 19  1  1  0  0  0
 27 25  1  0  0  0  0
 29 24  1  0  0  0  0
 30 21  1  0  0  0  0
 31 30  1  0  0  0  0
M  END
>  <MODEL>
5

>  <REMARK>
 VINA RESULT:      -8.3      2.385      5.238
  Name = 
  7 active torsions:
  status: ('A' for Active; 'I' for Inactive)
    1  A    between atoms: C_1  and  C_13
    2  A    between atoms: C_7  and  C_22
    3  A    between atoms: C_8  and  C_10
    4  A    between atoms: N_14  and  C_24
    5  A    between atoms: C_20  and  O_29
    6  A    between atoms: C_23  and  O_29
    7  A    between atoms: C_24  and  C_31
                            x       y       z     vdW  Elec       q    Type
                         _______ _______ _______ _____ _____    ______ ____

>  <TORSDO>
F 7

$$$$
=
 OpenBabel11062415043D

 31 34  0  0  1  0  0  0  0  0999 V2000
  184.1630  178.3120  141.4110 C   0  0  0  0  0  3  0  0  0  0  0  0
  184.6010  177.9410  142.6230 C   0  0  0  0  0  3  0  0  0  0  0  0
  186.9180  178.5040  141.9420 C   0  0  0  0  0  0  0  0  0  0  0  0
  186.4580  178.8510  140.7750 N   0  0  0  0  0  0  0  0  0  0  0  0
  185.9610  178.3840  143.1070 C   0  0  0  0  0  2  0  0  0  0  0  0
  185.0420  179.1770  140.5470 C   0  0  1  0  0  3  0  0  0  0  0  0
  184.6650  179.0240  139.0740 C   0  0  0  0  0  2  0  0  0  0  0  0
  185.7960  178.5380  138.2940 N   0  0  0  0  0  2  0  0  0  0  0  0
  185.7230  177.3010  137.5790 C   0  0  0  0  0  0  0  0  0  0  0  0
  184.6030  176.7790  137.3230 O   0  0  0  0  0  0  0  0  0  0  0  0
  189.1920  175.7470  136.7580 C   0  0  0  0  0  0  0  0  0  0  0  0
  188.2910  175.4850  135.7300 C   0  0  0  0  0  3  0  0  0  0  0  0
  186.9550  176.6600  137.1150 C   0  0  0  0  0  0  0  0  0  0  0  0
  187.0490  176.0070  135.9380 N   0  0  0  0  0  0  0  0  0  0  0  0
  188.4170  176.6510  137.9500 S   0  0  0  0  0  0  0  0  0  0  0  0
  191.4000  175.6690  135.9110 O   0  0  0  0  0  0  0  0  0  0  0  0
  190.5890  175.3020  136.8020 C   0  0  0  0  0  0  0  0  0  0  0  0
  191.0230  174.4570  137.8160 O   0  0  0  0  0  1  0  0  0  0  0  0
  188.2970  178.2690  142.0730 O   0  0  0  0  0  0  0  0  0  0  0  0
  191.9500  176.6600  146.3220 O   0  0  0  0  0  0  0  0  0  0  0  0
  189.6680  177.4510  146.3180 C   0  0  0  0  0  0  0  0  0  0  0  0
  190.9090  177.5110  144.2830 C   0  0  2  0  0  3  0  0  0  0  0  0
  190.9520  177.1380  145.7180 C   0  0  0  0  0  0  0  0  0  0  0  0
  190.0160  176.4560  142.2840 C   0  0  1  0  0  3  0  0  0  0  0  0
  189.5270  177.9220  144.1080 N   0  0  0  0  0  0  0  0  0  0  0  0
  188.9250  177.3140  142.9390 C   0  0  1  0  0  3  0  0  0  0  0  0
  188.8580  177.8890  145.3710 C   0  0  0  0  0  3  0  0  0  0  0  0
  190.6300  177.0940  141.0470 C   0  0  0  0  0  1  0  0  0  0  0  0
  191.0960  176.3180  143.3550 C   0  0  0  0  0  2  0  0  0  0  0  0
  189.3010  177.3100  147.7530 C   0  0  0  0  0  2  0  0  0  0  0  0
  188.3270  178.3250  148.1120 N   0  0  0  0  0  1  0  0  0  0  0  0
  1  2  2  0  0  0  0
  2  5  1  0  0  0  0
  3 19  1  0  0  0  0
  3  5  1  0  0  0  0
  4  3  2  0  0  0  0
  6  7  1  6  0  0  0
  6  4  1  0  0  0  0
  6  1  1  0  0  0  0
  8  7  1  0  0  0  0
  9  8  1  0  0  0  0
 10  9  2  0  0  0  0
 11 17  1  0  0  0  0
 11 15  1  0  0  0  0
 12 14  1  0  0  0  0
 12 11  2  0  0  0  0
 13  9  1  0  0  0  0
 13 15  1  0  0  0  0
 14 13  2  0  0  0  0
 16 17  2  0  0  0  0
 17 18  1  0  0  0  0
 21 30  1  0  0  0  0
 22 29  1  6  0  0  0
 22 23  1  0  0  0  0
 23 21  1  0  0  0  0
 23 20  2  0  0  0  0
 24 28  1  6  0  0  0
 24 26  1  0  0  0  0
 24 29  1  0  0  0  0
 25 22  1  0  0  0  0
 25 27  1  0  0  0  0
 26 19  1  6  0  0  0
 26 25  1  0  0  0  0
 27 21  2  0  0  0  0
 30 31  1  0  0  0  0
M  END
>  <MODEL>
6

>  <REMARK>
 VINA RESULT:      -8.1      2.252      3.692
  Name = 
  7 active torsions:
  status: ('A' for Active; 'I' for Inactive)
    1  A    between atoms: C_1  and  C_13
    2  A    between atoms: C_7  and  C_22
    3  A    between atoms: C_8  and  C_10
    4  A    between atoms: N_14  and  C_24
    5  A    between atoms: C_20  and  O_29
    6  A    between atoms: C_23  and  O_29
    7  A    between atoms: C_24  and  C_31
                            x       y       z     vdW  Elec       q    Type
                         _______ _______ _______ _____ _____    ______ ____

>  <TORSDO>
F 7

$$$$
=
 OpenBabel11062415043D

 31 34  0  0  1  0  0  0  0  0999 V2000
  186.7250  178.0820  146.2050 C   0  0  0  0  0  3  0  0  0  0  0  0
  185.6070  178.7440  146.5360 C   0  0  0  0  0  3  0  0  0  0  0  0
  184.8600  178.6320  144.1730 C   0  0  0  0  0  0  0  0  0  0  0  0
  185.9590  177.9940  143.8890 N   0  0  0  0  0  0  0  0  0  0  0  0
  184.4100  178.7200  145.6140 C   0  0  0  0  0  2  0  0  0  0  0  0
  186.7670  177.3130  144.9110 C   0  0  1  0  0  3  0  0  0  0  0  0
  188.2090  177.1210  144.4460 C   0  0  0  0  0  2  0  0  0  0  0  0
  188.2790  177.0150  142.9940 N   0  0  0  0  0  2  0  0  0  0  0  0
  189.5330  176.8640  142.3230 C   0  0  0  0  0  0  0  0  0  0  0  0
  190.5530  176.4810  142.9600 O   0  0  0  0  0  0  0  0  0  0  0  0
  189.4250  177.8830  138.5720 C   0  0  0  0  0  0  0  0  0  0  0  0
  190.3800  176.8920  138.7750 C   0  0  0  0  0  3  0  0  0  0  0  0
  189.6200  177.1240  140.8850 C   0  0  0  0  0  0  0  0  0  0  0  0
  190.4740  176.4710  140.0670 N   0  0  0  0  0  0  0  0  0  0  0  0
  188.6820  178.2380  140.0420 S   0  0  0  0  0  0  0  0  0  0  0  0
  188.6860  179.7050  137.2550 O   0  0  0  0  0  1  0  0  0  0  0  0
  189.1170  178.5220  137.2880 C   0  0  0  0  0  0  0  0  0  0  0  0
  189.2790  177.8200  136.1000 O   0  0  0  0  0  0  0  0  0  0  0  0
  184.1260  179.2010  143.1190 O   0  0  0  0  0  0  0  0  0  0  0  0
  182.4180  178.7800  137.5600 O   0  0  0  0  0  0  0  0  0  0  0  0
  184.5410  178.4490  138.6650 C   0  0  0  0  0  0  0  0  0  0  0  0
  182.7280  179.3720  139.9100 C   0  0  2  0  0  3  0  0  0  0  0  0
  183.1460  178.8430  138.5880 C   0  0  0  0  0  0  0  0  0  0  0  0
  182.0480  178.3490  142.0060 C   0  0  1  0  0  3  0  0  0  0  0  0
  183.9060  179.1380  140.7260 N   0  0  0  0  0  0  0  0  0  0  0  0
  183.5740  178.5110  141.9900 C   0  0  1  0  0  3  0  0  0  0  0  0
  184.9550  178.6140  139.9090 C   0  0  0  0  0  3  0  0  0  0  0  0
  181.3370  179.3750  142.8740 C   0  0  0  0  0  1  0  0  0  0  0  0
  181.6210  178.5500  140.5540 C   0  0  0  0  0  2  0  0  0  0  0  0
  185.3820  177.9380  137.5490 C   0  0  0  0  0  2  0  0  0  0  0  0
  185.1040  176.5310  137.3310 N   0  0  0  0  0  1  0  0  0  0  0  0
  1  2  2  0  0  0  0
  3  5  1  0  0  0  0
  4  3  2  0  0  0  0
  4  6  1  0  0  0  0
  5  2  1  0  0  0  0
  6  7  1  6  0  0  0
  6  1  1  0  0  0  0
  8  7  1  0  0  0  0
  9 10  2  0  0  0  0
  9  8  1  0  0  0  0
 11 12  2  0  0  0  0
 11 15  1  0  0  0  0
 12 14  1  0  0  0  0
 13  9  1  0  0  0  0
 14 13  2  0  0  0  0
 15 13  1  0  0  0  0
 16 17  1  0  0  0  0
 17 11  1  0  0  0  0
 18 17  2  0  0  0  0
 19  3  1  0  0  0  0
 20 23  2  0  0  0  0
 21 27  2  0  0  0  0
 22 29  1  1  0  0  0
 22 25  1  0  0  0  0
 23 21  1  0  0  0  0
 23 22  1  0  0  0  0
 24 28  1  1  0  0  0
 25 26  1  0  0  0  0
 26 24  1  0  0  0  0
 26 19  1  1  0  0  0
 27 25  1  0  0  0  0
 29 24  1  0  0  0  0
 30 21  1  0  0  0  0
 31 30  1  0  0  0  0
M  END
>  <MODEL>
7

>  <REMARK>
 VINA RESULT:      -8.0      2.625      6.394
  Name = 
  7 active torsions:
  status: ('A' for Active; 'I' for Inactive)
    1  A    between atoms: C_1  and  C_13
    2  A    between atoms: C_7  and  C_22
    3  A    between atoms: C_8  and  C_10
    4  A    between atoms: N_14  and  C_24
    5  A    between atoms: C_20  and  O_29
    6  A    between atoms: C_23  and  O_29
    7  A    between atoms: C_24  and  C_31
                            x       y       z     vdW  Elec       q    Type
                         _______ _______ _______ _____ _____    ______ ____

>  <TORSDO>
F 7

$$$$
=
 OpenBabel11062415043D

 31 34  0  0  1  0  0  0  0  0999 V2000
  191.2600  176.8460  143.0160 C   0  0  0  0  0  3  0  0  0  0  0  0
  191.1800  176.7620  144.3510 C   0  0  0  0  0  3  0  0  0  0  0  0
  188.8370  177.5700  144.2480 C   0  0  0  0  0  0  0  0  0  0  0  0
  188.9530  177.6420  142.9530 N   0  0  0  0  0  0  0  0  0  0  0  0
  189.8310  176.7420  145.0310 C   0  0  0  0  0  2  0  0  0  0  0  0
  189.9900  176.9150  142.2080 C   0  0  1  0  0  3  0  0  0  0  0  0
  190.2540  177.5560  140.8460 C   0  0  0  0  0  2  0  0  0  0  0  0
  189.2690  177.1190  139.8660 N   0  0  0  0  0  2  0  0  0  0  0  0
  188.5910  178.0600  139.0290 C   0  0  0  0  0  0  0  0  0  0  0  0
  189.0550  179.2230  138.8730 O   0  0  0  0  0  0  0  0  0  0  0  0
  185.6100  176.6350  136.9770 C   0  0  0  0  0  0  0  0  0  0  0  0
  185.2020  177.7410  137.7160 C   0  0  0  0  0  3  0  0  0  0  0  0
  187.3710  177.6570  138.3270 C   0  0  0  0  0  0  0  0  0  0  0  0
  186.1940  178.3070  138.4580 N   0  0  0  0  0  0  0  0  0  0  0  0
  187.2490  176.3620  137.2600 S   0  0  0  0  0  0  0  0  0  0  0  0
  183.7420  175.2430  136.5650 O   0  0  0  0  0  1  0  0  0  0  0  0
  184.7530  175.8310  136.1000 C   0  0  0  0  0  0  0  0  0  0  0  0
  185.0630  175.6960  134.7520 O   0  0  0  0  0  0  0  0  0  0  0  0
  187.7760  178.2550  144.8630 O   0  0  0  0  0  0  0  0  0  0  0  0
  182.2120  179.2870  143.4630 O   0  0  0  0  0  0  0  0  0  0  0  0
  184.0740  178.3490  142.2440 C   0  0  0  0  0  0  0  0  0  0  0  0
  184.4740  179.3260  144.3830 C   0  0  2  0  0  3  0  0  0  0  0  0
  183.4370  179.0050  143.3720 C   0  0  0  0  0  0  0  0  0  0  0  0
  185.6110  178.0480  146.1080 C   0  0  1  0  0  3  0  0  0  0  0  0
  185.6640  178.7170  143.8140 N   0  0  0  0  0  0  0  0  0  0  0  0
  186.3840  177.9220  144.7880 C   0  0  1  0  0  3  0  0  0  0  0  0
  185.3540  178.1810  142.5250 C   0  0  0  0  0  3  0  0  0  0  0  0
  186.2620  178.9940  147.1060 C   0  0  0  0  0  1  0  0  0  0  0  0
  184.2500  178.6130  145.7090 C   0  0  0  0  0  2  0  0  0  0  0  0
  183.4190  177.9260  140.9770 C   0  0  0  0  0  2  0  0  0  0  0  0
  183.0250  179.0960  140.2150 N   0  0  0  0  0  1  0  0  0  0  0  0
  1  2  2  0  0  0  0
  2  5  1  0  0  0  0
  3 19  1  0  0  0  0
  3  5  1  0  0  0  0
  4  3  2  0  0  0  0
  6  7  1  6  0  0  0
  6  4  1  0  0  0  0
  6  1  1  0  0  0  0
  8  7  1  0  0  0  0
  9  8  1  0  0  0  0
 10  9  2  0  0  0  0
 11 15  1  0  0  0  0
 11 12  2  0  0  0  0
 12 14  1  0  0  0  0
 13 14  2  0  0  0  0
 13  9  1  0  0  0  0
 15 13  1  0  0  0  0
 17 16  1  0  0  0  0
 17 11  1  0  0  0  0
 18 17  2  0  0  0  0
 21 27  2  0  0  0  0
 21 23  1  0  0  0  0
 22 29  1  1  0  0  0
 23 20  2  0  0  0  0
 23 22  1  0  0  0  0
 24 28  1  1  0  0  0
 25 22  1  0  0  0  0
 25 26  1  0  0  0  0
 26 19  1  1  0  0  0
 26 24  1  0  0  0  0
 27 25  1  0  0  0  0
 29 24  1  0  0  0  0
 30 21  1  0  0  0  0
 31 30  1  0  0  0  0
M  END
>  <MODEL>
8

>  <REMARK>
 VINA RESULT:      -7.9      2.557      5.905
  Name = 
  7 active torsions:
  status: ('A' for Active; 'I' for Inactive)
    1  A    between atoms: C_1  and  C_13
    2  A    between atoms: C_7  and  C_22
    3  A    between atoms: C_8  and  C_10
    4  A    between atoms: N_14  and  C_24
    5  A    between atoms: C_20  and  O_29
    6  A    between atoms: C_23  and  O_29
    7  A    between atoms: C_24  and  C_31
                            x       y       z     vdW  Elec       q    Type
                         _______ _______ _______ _____ _____    ______ ____

>  <TORSDO>
F 7

$$$$
=
 OpenBabel11062415043D

 31 34  0  0  1  0  0  0  0  0999 V2000
  190.7240  177.4710  139.8620 C   0  0  0  0  0  3  0  0  0  0  0  0
  191.5040  177.2550  140.9310 C   0  0  0  0  0  3  0  0  0  0  0  0
  189.5540  177.6400  142.4140 C   0  0  0  0  0  0  0  0  0  0  0  0
  188.8280  177.8480  141.3530 N   0  0  0  0  0  0  0  0  0  0  0  0
  190.8840  176.9350  142.2700 C   0  0  0  0  0  2  0  0  0  0  0  0
  189.2280  177.3860  140.0160 C   0  0  1  0  0  3  0  0  0  0  0  0
  188.5280  178.1830  138.9170 C   0  0  0  0  0  2  0  0  0  0  0  0
  187.1140  178.3600  139.2210 N   0  0  0  0  0  2  0  0  0  0  0  0
  186.1100  178.1300  138.2290 C   0  0  0  0  0  0  0  0  0  0  0  0
  186.3790  177.4570  137.1960 O   0  0  0  0  0  0  0  0  0  0  0  0
  182.3630  179.1000  138.6030 C   0  0  0  0  0  0  0  0  0  0  0  0
  183.1760  180.1420  139.0380 C   0  0  0  0  0  3  0  0  0  0  0  0
  184.7580  178.6540  138.4330 C   0  0  0  0  0  0  0  0  0  0  0  0
  184.5100  179.8840  138.9310 N   0  0  0  0  0  0  0  0  0  0  0  0
  183.3350  177.8310  138.0720 S   0  0  0  0  0  0  0  0  0  0  0  0
  180.2560  178.8990  137.5470 O   0  0  0  0  0  0  0  0  0  0  0  0
  180.8960  179.1020  138.6110 C   0  0  0  0  0  0  0  0  0  0  0  0
  180.2030  179.3460  139.7900 O   0  0  0  0  0  1  0  0  0  0  0  0
  189.0580  178.0690  143.6570 O   0  0  0  0  0  0  0  0  0  0  0  0
  183.9960  178.7170  146.4750 O   0  0  0  0  0  0  0  0  0  0  0  0
  184.5800  178.6060  144.1340 C   0  0  0  0  0  0  0  0  0  0  0  0
  186.3280  178.7370  145.7500 C   0  0  2  0  0  3  0  0  0  0  0  0
  184.8580  178.6770  145.5560 C   0  0  0  0  0  0  0  0  0  0  0  0
  188.1050  177.0810  145.7540 C   0  0  1  0  0  3  0  0  0  0  0  0
  186.8280  178.5770  144.3960 N   0  0  0  0  0  0  0  0  0  0  0  0
  187.8830  177.5860  144.3220 C   0  0  1  0  0  3  0  0  0  0  0  0
  185.7280  178.5350  143.4840 C   0  0  0  0  0  3  0  0  0  0  0  0
  189.3460  177.6580  146.4170 C   0  0  0  0  0  1  0  0  0  0  0  0
  186.8720  177.5460  146.5260 C   0  0  0  0  0  2  0  0  0  0  0  0
  183.2370  178.6070  143.4910 C   0  0  0  0  0  2  0  0  0  0  0  0
  183.3840  178.4850  142.0520 N   0  0  0  0  0  1  0  0  0  0  0  0
  1  6  1  0  0  0  0
  1  2  2  0  0  0  0
  2  5  1  0  0  0  0
  3 19  1  0  0  0  0
  4  3  2  0  0  0  0
  5  3  1  0  0  0  0
  6  7  1  6  0  0  0
  6  4  1  0  0  0  0
  7  8  1  0  0  0  0
  9 13  1  0  0  0  0
  9  8  1  0  0  0  0
 10  9  2  0  0  0  0
 11 17  1  0  0  0  0
 11 12  2  0  0  0  0
 13 14  2  0  0  0  0
 14 12  1  0  0  0  0
 15 13  1  0  0  0  0
 15 11  1  0  0  0  0
 16 17  2  0  0  0  0
 17 18  1  0  0  0  0
 21 23  1  0  0  0  0
 22 29  1  1  0  0  0
 23 22  1  0  0  0  0
 23 20  2  0  0  0  0
 24 28  1  1  0  0  0
 24 29  1  0  0  0  0
 25 22  1  0  0  0  0
 26 19  1  1  0  0  0
 26 25  1  0  0  0  0
 26 24  1  0  0  0  0
 27 21  2  0  0  0  0
 27 25  1  0  0  0  0
 30 21  1  0  0  0  0
 31 30  1  0  0  0  0
M  END
>  <MODEL>
9

>  <REMARK>
 VINA RESULT:      -7.8      2.873      6.596
  Name = 
  7 active torsions:
  status: ('A' for Active; 'I' for Inactive)
    1  A    between atoms: C_1  and  C_13
    2  A    between atoms: C_7  and  C_22
    3  A    between atoms: C_8  and  C_10
    4  A    between atoms: N_14  and  C_24
    5  A    between atoms: C_20  and  O_29
    6  A    between atoms: C_23  and  O_29
    7  A    between atoms: C_24  and  C_31
                            x       y       z     vdW  Elec       q    Type
                         _______ _______ _______ _____ _____    ______ ____

>  <TORSDO>
F 7

$$$$
