=
 OpenBabel11062413183D

 30 31  0  0  1  0  0  0  0  0999 V2000
  187.9020  177.5950  142.3110 C   0  0  2  0  0  3  0  0  0  0  0  0
  184.3760  179.0100  142.8460 C   0  0  0  0  0  2  0  0  0  0  0  0
  183.8990  178.6100  144.2360 C   0  0  1  0  0  3  0  0  0  0  0  0
  185.4400  178.0610  142.3060 C   0  0  0  0  0  2  0  0  0  0  0  0
  184.9170  179.0980  145.2610 C   0  0  0  0  0  2  0  0  0  0  0  0
  186.4920  177.2300  144.4070 C   0  0  0  0  0  2  0  0  0  0  0  0
  186.7110  178.0740  143.1520 C   0  0  1  0  0  3  0  0  0  0  0  0
  185.9800  178.0470  145.5960 C   0  0  0  0  0  2  0  0  0  0  0  0
  182.5480  179.2670  144.4930 C   0  0  0  0  0  2  0  0  0  0  0  0
  180.4950  178.1110  144.0090 O   0  0  0  0  0  1  0  0  0  0  0  0
  180.9480  180.0390  142.8680 O   0  0  0  0  0  1  0  0  0  0  0  0
  181.5030  178.8950  143.4440 C   0  0  0  0  0  3  0  0  0  0  0  0
  189.3490  175.8540  143.0430 O   0  0  0  0  0  0  0  0  0  0  0  0
  189.0710  177.0430  143.0850 C   0  0  0  0  0  0  0  0  0  0  0  0
  190.0750  178.1480  144.0740 S   0  0  0  0  0  0  0  0  0  0  0  0
  189.3710  177.8640  146.6510 N   0  0  0  0  0  1  0  0  0  0  0  0
  189.9430  177.1010  145.5540 C   0  0  2  0  0  3  0  0  0  0  0  0
  191.9760  175.9510  145.0950 O   0  0  0  0  0  0  0  0  0  0  0  0
  191.2880  176.5840  145.9380 C   0  0  0  0  0  0  0  0  0  0  0  0
  191.8170  176.8340  147.2370 N   0  0  0  0  0  1  0  0  0  0  0  0
  188.2900  178.5520  141.1830 C   0  0  0  0  0  2  0  0  0  0  0  0
  189.6530  177.9310  140.1450 S   0  0  0  0  0  0  0  0  0  0  0  0
  189.2730  176.4700  137.8660 C   0  0  0  0  0  2  0  0  0  0  0  0
  188.3330  177.6380  137.6940 C   0  0  2  0  0  0  0  0  0  0  0  0
  188.9820  178.9700  137.3410 C   0  0  0  0  0  1  0  0  0  0  0  0
  188.5060  177.0120  139.0700 C   0  0  2  0  0  3  0  0  0  0  0  0
  185.8130  177.8310  137.4420 C   0  0  0  0  0  0  0  0  0  0  0  0
  185.7210  178.7430  138.5310 N   0  0  0  0  0  1  0  0  0  0  0  0
  187.0760  177.2950  137.0410 N   0  0  0  0  0  2  0  0  0  0  0  0
  184.7710  177.4950  136.8230 O   0  0  0  0  0  0  0  0  0  0  0  0
  1 21  1  1  0  0  0
  1 14  1  0  0  0  0
  2  3  1  0  0  0  0
  3  9  1  1  0  0  0
  3  5  1  0  0  0  0
  4  2  1  0  0  0  0
  4  7  1  0  0  0  0
  5  8  1  0  0  0  0
  6  8  1  0  0  0  0
  7  1  1  6  0  0  0
  7  6  1  0  0  0  0
 11 12  1  0  0  0  0
 12 10  1  0  0  0  0
 12  9  1  0  0  0  0
 13 14  2  0  0  0  0
 14 15  1  0  0  0  0
 15 17  1  0  0  0  0
 17 19  1  0  0  0  0
 17 16  1  1  0  0  0
 18 19  2  0  0  0  0
 19 20  1  0  0  0  0
 22 21  1  0  0  0  0
 23 26  1  0  0  0  0
 24 25  1  6  0  0  0
 24 23  1  0  0  0  0
 24 26  1  0  0  0  0
 26 22  1  1  0  0  0
 27 28  1  0  0  0  0
 29 27  1  0  0  0  0
 29 24  1  0  0  0  0
 30 27  2  0  0  0  0
M  END
>  <MODEL>
1

>  <REMARK>
 VINA RESULT:      -7.5      0.000      0.000
  Name = 
  11 active torsions:
  status: ('A' for Active; 'I' for Inactive)
    1  A    between atoms: C_4  and  S_6
    2  A    between atoms: C_4  and  C_29
    3  A    between atoms: S_6  and  C_27
    4  A    between atoms: C_8  and  N_24
    5  A    between atoms: C_9  and  C_19
    6  A    between atoms: C_11  and  C_23
    7  A    between atoms: S_12  and  C_23
    8  A    between atoms: S_12  and  C_25
    9  A    between atoms: C_19  and  C_30
   10  A    between atoms: C_22  and  C_29
   11  A    between atoms: C_25  and  C_29
                            x       y       z     vdW  Elec       q    Type
                         _______ _______ _______ _____ _____    ______ ____

>  <TORSDO>
F 11

$$$$
=
 OpenBabel11062413183D

 30 31  0  0  1  0  0  0  0  0999 V2000
  187.9690  177.6610  142.4610 C   0  0  2  0  0  3  0  0  0  0  0  0
  184.4310  179.0700  142.9360 C   0  0  0  0  0  2  0  0  0  0  0  0
  183.9150  178.6330  144.3000 C   0  0  1  0  0  3  0  0  0  0  0  0
  185.5090  178.1340  142.3990 C   0  0  0  0  0  2  0  0  0  0  0  0
  184.9050  179.0900  145.3660 C   0  0  0  0  0  2  0  0  0  0  0  0
  186.4990  177.2420  144.5050 C   0  0  0  0  0  2  0  0  0  0  0  0
  186.7550  178.1200  143.2810 C   0  0  1  0  0  3  0  0  0  0  0  0
  185.9560  178.0270  145.7010 C   0  0  0  0  0  2  0  0  0  0  0  0
  182.5590  179.2870  144.5370 C   0  0  0  0  0  2  0  0  0  0  0  0
  180.4780  178.1680  144.0870 O   0  0  0  0  0  1  0  0  0  0  0  0
  181.0120  180.0060  142.8390 O   0  0  0  0  0  1  0  0  0  0  0  0
  181.5200  178.8830  143.4940 C   0  0  0  0  0  3  0  0  0  0  0  0
  189.4220  175.9240  143.1910 O   0  0  0  0  0  0  0  0  0  0  0  0
  189.1250  177.1080  143.2530 C   0  0  0  0  0  0  0  0  0  0  0  0
  190.0840  178.2050  144.2940 S   0  0  0  0  0  0  0  0  0  0  0  0
  189.3410  177.8270  146.8480 N   0  0  0  0  0  1  0  0  0  0  0  0
  189.9490  177.1100  145.7400 C   0  0  2  0  0  3  0  0  0  0  0  0
  192.0070  176.0050  145.2860 O   0  0  0  0  0  0  0  0  0  0  0  0
  191.2970  176.6100  146.1310 C   0  0  0  0  0  0  0  0  0  0  0  0
  191.8050  176.8440  147.4430 N   0  0  0  0  0  1  0  0  0  0  0  0
  188.3740  178.6350  141.3530 C   0  0  0  0  0  2  0  0  0  0  0  0
  187.9960  178.0230  139.6790 S   0  0  0  0  0  0  0  0  0  0  0  0
  190.2570  177.7380  138.1680 C   0  0  0  0  0  2  0  0  0  0  0  0
  189.7650  176.3210  138.3320 C   0  0  2  0  0  0  0  0  0  0  0  0
  188.5480  175.9370  137.5020 C   0  0  0  0  0  1  0  0  0  0  0  0
  189.6540  177.2930  139.4980 C   0  0  2  0  0  3  0  0  0  0  0  0
  191.7650  175.0340  137.4400 C   0  0  0  0  0  0  0  0  0  0  0  0
  191.6910  175.6920  136.1790 N   0  0  0  0  0  1  0  0  0  0  0  0
  190.8300  175.3380  138.4790 N   0  0  0  0  0  2  0  0  0  0  0  0
  192.6640  174.1790  137.6440 O   0  0  0  0  0  0  0  0  0  0  0  0
  1 21  1  1  0  0  0
  1 14  1  0  0  0  0
  2  3  1  0  0  0  0
  3  9  1  1  0  0  0
  3  5  1  0  0  0  0
  4  2  1  0  0  0  0
  4  7  1  0  0  0  0
  5  8  1  0  0  0  0
  6  8  1  0  0  0  0
  7  1  1  6  0  0  0
  7  6  1  0  0  0  0
 11 12  1  0  0  0  0
 12 10  1  0  0  0  0
 12  9  1  0  0  0  0
 13 14  2  0  0  0  0
 14 15  1  0  0  0  0
 15 17  1  0  0  0  0
 17 19  1  0  0  0  0
 17 16  1  1  0  0  0
 18 19  2  0  0  0  0
 19 20  1  0  0  0  0
 22 21  1  0  0  0  0
 23 24  1  0  0  0  0
 23 26  1  0  0  0  0
 24 25  1  6  0  0  0
 24 29  1  0  0  0  0
 24 26  1  0  0  0  0
 26 22  1  6  0  0  0
 27 30  2  0  0  0  0
 27 29  1  0  0  0  0
 28 27  1  0  0  0  0
M  END
>  <MODEL>
2

>  <REMARK>
 VINA RESULT:      -7.3      2.143      2.640
  Name = 
  11 active torsions:
  status: ('A' for Active; 'I' for Inactive)
    1  A    between atoms: C_4  and  S_6
    2  A    between atoms: C_4  and  C_29
    3  A    between atoms: S_6  and  C_27
    4  A    between atoms: C_8  and  N_24
    5  A    between atoms: C_9  and  C_19
    6  A    between atoms: C_11  and  C_23
    7  A    between atoms: S_12  and  C_23
    8  A    between atoms: S_12  and  C_25
    9  A    between atoms: C_19  and  C_30
   10  A    between atoms: C_22  and  C_29
   11  A    between atoms: C_25  and  C_29
                            x       y       z     vdW  Elec       q    Type
                         _______ _______ _______ _____ _____    ______ ____

>  <TORSDO>
F 11

$$$$
=
 OpenBabel11062413183D

 30 31  0  0  1  0  0  0  0  0999 V2000
  188.6290  176.9580  144.1670 C   0  0  2  0  0  3  0  0  0  0  0  0
  185.3100  178.6610  143.2680 C   0  0  0  0  0  2  0  0  0  0  0  0
  184.4350  178.7050  144.5140 C   0  0  1  0  0  3  0  0  0  0  0  0
  186.3420  177.5390  143.3260 C   0  0  0  0  0  2  0  0  0  0  0  0
  185.2040  179.4090  145.6260 C   0  0  0  0  0  2  0  0  0  0  0  0
  186.6820  177.2910  145.7830 C   0  0  0  0  0  2  0  0  0  0  0  0
  187.3350  177.7250  144.4710 C   0  0  1  0  0  3  0  0  0  0  0  0
  185.9900  178.4420  146.5160 C   0  0  0  0  0  2  0  0  0  0  0  0
  183.1660  179.4820  144.1880 C   0  0  0  0  0  2  0  0  0  0  0  0
  180.8880  178.7100  144.1690 O   0  0  0  0  0  1  0  0  0  0  0  0
  181.9480  179.0070  142.1670 O   0  0  0  0  0  1  0  0  0  0  0  0
  182.1090  178.6220  143.4980 C   0  0  0  0  0  3  0  0  0  0  0  0
  190.0370  178.7820  144.7590 O   0  0  0  0  0  0  0  0  0  0  0  0
  189.8960  177.5700  144.7070 C   0  0  0  0  0  0  0  0  0  0  0  0
  191.2110  176.5030  145.2900 S   0  0  0  0  0  0  0  0  0  0  0  0
  192.1970  176.5840  147.7880 N   0  0  0  0  0  1  0  0  0  0  0  0
  191.2050  177.2390  146.9520 C   0  0  2  0  0  3  0  0  0  0  0  0
  189.2730  175.9910  147.5650 O   0  0  0  0  0  0  0  0  0  0  0  0
  189.8520  177.1090  147.5650 C   0  0  0  0  0  0  0  0  0  0  0  0
  189.2250  178.2290  148.1840 N   0  0  0  0  0  1  0  0  0  0  0  0
  188.7340  176.4660  142.7220 C   0  0  0  0  0  2  0  0  0  0  0  0
  189.3480  177.7370  141.5690 S   0  0  0  0  0  0  0  0  0  0  0  0
  191.7260  177.3740  140.2690 C   0  0  0  0  0  2  0  0  0  0  0  0
  190.7160  176.7660  139.3270 C   0  0  2  0  0  0  0  0  0  0  0  0
  189.8560  177.7500  138.5460 C   0  0  0  0  0  1  0  0  0  0  0  0
  190.5460  176.5820  140.8280 C   0  0  2  0  0  3  0  0  0  0  0  0
  192.4190  175.5360  137.9000 C   0  0  0  0  0  0  0  0  0  0  0  0
  193.2490  176.6900  137.8040 N   0  0  0  0  0  1  0  0  0  0  0  0
  191.1930  175.5760  138.6350 N   0  0  0  0  0  2  0  0  0  0  0  0
  192.7700  174.4690  137.3350 O   0  0  0  0  0  0  0  0  0  0  0  0
  1 21  1  6  0  0  0
  1 14  1  0  0  0  0
  2  4  1  0  0  0  0
  2  3  1  0  0  0  0
  3  9  1  6  0  0  0
  3  5  1  0  0  0  0
  4  7  1  0  0  0  0
  5  8  1  0  0  0  0
  6  8  1  0  0  0  0
  7  1  1  6  0  0  0
  7  6  1  0  0  0  0
 11 12  1  0  0  0  0
 12 10  1  0  0  0  0
 12  9  1  0  0  0  0
 14 13  2  0  0  0  0
 14 15  1  0  0  0  0
 15 17  1  0  0  0  0
 17 19  1  0  0  0  0
 17 16  1  1  0  0  0
 18 19  2  0  0  0  0
 19 20  1  0  0  0  0
 22 21  1  0  0  0  0
 23 26  1  0  0  0  0
 24 25  1  6  0  0  0
 24 23  1  0  0  0  0
 24 26  1  0  0  0  0
 26 22  1  1  0  0  0
 27 29  1  0  0  0  0
 28 27  1  0  0  0  0
 29 24  1  0  0  0  0
 30 27  2  0  0  0  0
M  END
>  <MODEL>
3

>  <REMARK>
 VINA RESULT:      -7.2      2.571      3.314
  Name = 
  11 active torsions:
  status: ('A' for Active; 'I' for Inactive)
    1  A    between atoms: C_4  and  S_6
    2  A    between atoms: C_4  and  C_29
    3  A    between atoms: S_6  and  C_27
    4  A    between atoms: C_8  and  N_24
    5  A    between atoms: C_9  and  C_19
    6  A    between atoms: C_11  and  C_23
    7  A    between atoms: S_12  and  C_23
    8  A    between atoms: S_12  and  C_25
    9  A    between atoms: C_19  and  C_30
   10  A    between atoms: C_22  and  C_29
   11  A    between atoms: C_25  and  C_29
                            x       y       z     vdW  Elec       q    Type
                         _______ _______ _______ _____ _____    ______ ____

>  <TORSDO>
F 11

$$$$
=
 OpenBabel11062413183D

 30 31  0  0  1  0  0  0  0  0999 V2000
  184.0840  178.4550  143.3490 C   0  0  2  0  0  3  0  0  0  0  0  0
  187.4290  176.9740  144.5070 C   0  0  0  0  0  2  0  0  0  0  0  0
  187.9060  177.7490  145.7280 C   0  0  1  0  0  3  0  0  0  0  0  0
  186.4840  177.7940  143.6350 C   0  0  0  0  0  2  0  0  0  0  0  0
  186.8140  177.7020  146.7910 C   0  0  0  0  0  2  0  0  0  0  0  0
  185.4650  179.3370  145.3070 C   0  0  0  0  0  2  0  0  0  0  0  0
  185.1950  178.1620  144.3670 C   0  0  1  0  0  3  0  0  0  0  0  0
  185.8560  178.8950  146.7190 C   0  0  0  0  0  2  0  0  0  0  0  0
  189.1730  177.0890  146.2570 C   0  0  0  0  0  2  0  0  0  0  0  0
  190.8910  176.5500  144.6610 O   0  0  0  0  0  1  0  0  0  0  0  0
  190.1790  178.7170  144.7960 O   0  0  0  0  0  1  0  0  0  0  0  0
  190.4290  177.5500  145.5190 C   0  0  0  0  0  3  0  0  0  0  0  0
  185.4160  179.7620  141.8740 O   0  0  0  0  0  0  0  0  0  0  0  0
  184.5440  178.9140  141.9900 C   0  0  0  0  0  0  0  0  0  0  0  0
  183.8070  178.1990  140.5220 S   0  0  0  0  0  0  0  0  0  0  0  0
  184.1060  180.3260  138.9080 N   0  0  0  0  0  1  0  0  0  0  0  0
  184.8510  179.1800  139.4020 C   0  0  2  0  0  3  0  0  0  0  0  0
  186.4030  178.6000  137.6940 O   0  0  0  0  0  0  0  0  0  0  0  0
  185.3100  178.3380  138.2610 C   0  0  0  0  0  0  0  0  0  0  0  0
  184.5420  177.2170  137.8320 N   0  0  0  0  0  1  0  0  0  0  0  0
  182.9140  179.2560  143.9220 C   0  0  0  0  0  2  0  0  0  0  0  0
  181.3090  178.4080  143.7620 S   0  0  0  0  0  0  0  0  0  0  0  0
  179.0130  179.8910  143.7200 C   0  0  0  0  0  2  0  0  0  0  0  0
  179.3490  179.7250  142.2580 C   0  0  2  0  0  0  0  0  0  0  0  0
  179.0760  178.3510  141.6630 C   0  0  0  0  0  1  0  0  0  0  0  0
  180.4690  179.9450  143.2650 C   0  0  2  0  0  3  0  0  0  0  0  0
  179.7110  181.1900  140.2150 C   0  0  0  0  0  0  0  0  0  0  0  0
  180.7350  180.3340  139.7180 N   0  0  0  0  0  1  0  0  0  0  0  0
  179.0450  180.8950  141.4450 N   0  0  0  0  0  2  0  0  0  0  0  0
  179.3870  182.2150  139.5630 O   0  0  0  0  0  0  0  0  0  0  0  0
  1 21  1  1  0  0  0
  2  3  1  0  0  0  0
  3  9  1  1  0  0  0
  3  5  1  0  0  0  0
  4  7  1  0  0  0  0
  4  2  1  0  0  0  0
  6  8  1  0  0  0  0
  7  1  1  6  0  0  0
  7  6  1  0  0  0  0
  8  5  1  0  0  0  0
 10 12  1  0  0  0  0
 11 12  1  0  0  0  0
 12  9  1  0  0  0  0
 13 14  2  0  0  0  0
 14  1  1  0  0  0  0
 15 14  1  0  0  0  0
 17 16  1  6  0  0  0
 17 15  1  0  0  0  0
 18 19  2  0  0  0  0
 19 17  1  0  0  0  0
 20 19  1  0  0  0  0
 22 21  1  0  0  0  0
 24 25  1  6  0  0  0
 24 26  1  0  0  0  0
 24 23  1  0  0  0  0
 26 23  1  0  0  0  0
 26 22  1  1  0  0  0
 27 29  1  0  0  0  0
 28 27  1  0  0  0  0
 29 24  1  0  0  0  0
 30 27  2  0  0  0  0
M  END
>  <MODEL>
4

>  <REMARK>
 VINA RESULT:      -6.8      4.007      7.837
  Name = 
  11 active torsions:
  status: ('A' for Active; 'I' for Inactive)
    1  A    between atoms: C_4  and  S_6
    2  A    between atoms: C_4  and  C_29
    3  A    between atoms: S_6  and  C_27
    4  A    between atoms: C_8  and  N_24
    5  A    between atoms: C_9  and  C_19
    6  A    between atoms: C_11  and  C_23
    7  A    between atoms: S_12  and  C_23
    8  A    between atoms: S_12  and  C_25
    9  A    between atoms: C_19  and  C_30
   10  A    between atoms: C_22  and  C_29
   11  A    between atoms: C_25  and  C_29
                            x       y       z     vdW  Elec       q    Type
                         _______ _______ _______ _____ _____    ______ ____

>  <TORSDO>
F 11

$$$$
=
 OpenBabel11062413183D

 30 31  0  0  1  0  0  0  0  0999 V2000
  187.9510  177.7170  142.4910 C   0  0  2  0  0  3  0  0  0  0  0  0
  184.3390  178.9450  142.8990 C   0  0  0  0  0  2  0  0  0  0  0  0
  183.8610  178.5880  144.3000 C   0  0  1  0  0  3  0  0  0  0  0  0
  185.4670  178.0350  142.4240 C   0  0  0  0  0  2  0  0  0  0  0  0
  184.8300  179.1860  145.3130 C   0  0  0  0  0  2  0  0  0  0  0  0
  186.5270  177.3750  144.5810 C   0  0  0  0  0  2  0  0  0  0  0  0
  186.7190  178.1670  143.2880 C   0  0  1  0  0  3  0  0  0  0  0  0
  185.9460  178.2190  145.7180 C   0  0  0  0  0  2  0  0  0  0  0  0
  182.4700  179.1760  144.5020 C   0  0  0  0  0  2  0  0  0  0  0  0
  180.3730  178.0850  144.0570 O   0  0  0  0  0  1  0  0  0  0  0  0
  181.0400  179.7630  142.6570 O   0  0  0  0  0  1  0  0  0  0  0  0
  181.4700  178.6990  143.4510 C   0  0  0  0  0  3  0  0  0  0  0  0
  187.1460  178.8850  140.5800 O   0  0  0  0  0  0  0  0  0  0  0  0
  187.9630  178.0970  141.0330 C   0  0  0  0  0  0  0  0  0  0  0  0
  189.2000  177.3900  139.9470 S   0  0  0  0  0  0  0  0  0  0  0  0
  187.8790  176.2630  137.8970 N   0  0  0  0  0  1  0  0  0  0  0  0
  188.1500  177.5690  138.4740 C   0  0  2  0  0  3  0  0  0  0  0  0
  188.9740  179.6680  137.7120 O   0  0  0  0  0  0  0  0  0  0  0  0
  188.8220  178.4420  137.4690 C   0  0  0  0  0  0  0  0  0  0  0  0
  189.3280  177.8950  136.2550 N   0  0  0  0  0  1  0  0  0  0  0  0
  188.3780  176.2750  142.7680 C   0  0  0  0  0  2  0  0  0  0  0  0
  190.1510  176.1090  143.1570 S   0  0  0  0  0  0  0  0  0  0  0  0
  191.4520  178.1630  144.4080 C   0  0  0  0  0  2  0  0  0  0  0  0
  191.0050  177.2840  145.5510 C   0  0  2  0  0  0  0  0  0  0  0  0
  191.7900  175.9940  145.7450 C   0  0  0  0  0  1  0  0  0  0  0  0
  190.0870  177.4810  144.3540 C   0  0  2  0  0  3  0  0  0  0  0  0
  189.5190  177.6090  147.5850 C   0  0  0  0  0  0  0  0  0  0  0  0
  188.7720  176.4320  147.2920 N   0  0  0  0  0  1  0  0  0  0  0  0
  190.5960  178.0200  146.7390 N   0  0  0  0  0  2  0  0  0  0  0  0
  189.2300  178.2930  148.6000 O   0  0  0  0  0  0  0  0  0  0  0  0
  1 21  1  6  0  0  0
  2  3  1  0  0  0  0
  3  9  1  1  0  0  0
  3  5  1  0  0  0  0
  4  2  1  0  0  0  0
  4  7  1  0  0  0  0
  5  8  1  0  0  0  0
  6  8  1  0  0  0  0
  7  1  1  6  0  0  0
  7  6  1  0  0  0  0
 11 12  1  0  0  0  0
 12 10  1  0  0  0  0
 12  9  1  0  0  0  0
 13 14  2  0  0  0  0
 14  1  1  0  0  0  0
 15 14  1  0  0  0  0
 17 16  1  6  0  0  0
 17 15  1  0  0  0  0
 19 18  2  0  0  0  0
 19 17  1  0  0  0  0
 20 19  1  0  0  0  0
 21 22  1  0  0  0  0
 23 24  1  0  0  0  0
 24 25  1  1  0  0  0
 24 29  1  0  0  0  0
 26 22  1  6  0  0  0
 26 23  1  0  0  0  0
 26 24  1  0  0  0  0
 27 30  2  0  0  0  0
 28 27  1  0  0  0  0
 29 27  1  0  0  0  0
M  END
>  <MODEL>
5

>  <REMARK>
 VINA RESULT:      -6.8      1.879      6.322
  Name = 
  11 active torsions:
  status: ('A' for Active; 'I' for Inactive)
    1  A    between atoms: C_4  and  S_6
    2  A    between atoms: C_4  and  C_29
    3  A    between atoms: S_6  and  C_27
    4  A    between atoms: C_8  and  N_24
    5  A    between atoms: C_9  and  C_19
    6  A    between atoms: C_11  and  C_23
    7  A    between atoms: S_12  and  C_23
    8  A    between atoms: S_12  and  C_25
    9  A    between atoms: C_19  and  C_30
   10  A    between atoms: C_22  and  C_29
   11  A    between atoms: C_25  and  C_29
                            x       y       z     vdW  Elec       q    Type
                         _______ _______ _______ _____ _____    ______ ____

>  <TORSDO>
F 11

$$$$
=
 OpenBabel11062413183D

 30 31  0  0  1  0  0  0  0  0999 V2000
  188.7840  177.9810  140.6150 C   0  0  2  0  0  3  0  0  0  0  0  0
  186.6110  177.7920  143.7720 C   0  0  0  0  0  2  0  0  0  0  0  0
  185.3400  178.5960  143.5350 C   0  0  1  0  0  3  0  0  0  0  0  0
  187.7620  178.2570  142.8860 C   0  0  0  0  0  2  0  0  0  0  0  0
  184.6510  178.0620  142.2840 C   0  0  0  0  0  2  0  0  0  0  0  0
  186.5450  179.1710  140.9130 C   0  0  0  0  0  2  0  0  0  0  0  0
  187.4670  178.0550  141.4020 C   0  0  1  0  0  3  0  0  0  0  0  0
  185.0620  178.8060  141.0100 C   0  0  0  0  0  2  0  0  0  0  0  0
  184.4260  178.4260  144.7420 C   0  0  0  0  0  2  0  0  0  0  0  0
  185.6460  179.8380  146.2600 O   0  0  0  0  0  1  0  0  0  0  0  0
  184.3540  178.1680  147.1350 O   0  0  0  0  0  1  0  0  0  0  0  0
  185.1750  178.5380  146.0680 C   0  0  0  0  0  3  0  0  0  0  0  0
  188.9570  179.2010  138.5790 O   0  0  0  0  0  0  0  0  0  0  0  0
  188.6650  178.1460  139.1220 C   0  0  0  0  0  0  0  0  0  0  0  0
  188.0970  176.7700  138.1260 S   0  0  0  0  0  0  0  0  0  0  0  0
  189.8630  176.9710  136.1120 N   0  0  0  0  0  1  0  0  0  0  0  0
  189.7560  176.4400  137.4600 C   0  0  2  0  0  3  0  0  0  0  0  0
  191.0970  174.5340  137.9430 O   0  0  0  0  0  0  0  0  0  0  0  0
  190.0230  174.9730  137.4560 C   0  0  0  0  0  0  0  0  0  0  0  0
  189.0570  174.0610  136.9390 N   0  0  0  0  0  1  0  0  0  0  0  0
  189.7040  176.8410  141.0510 C   0  0  0  0  0  2  0  0  0  0  0  0
  191.3520  177.4060  141.5850 S   0  0  0  0  0  0  0  0  0  0  0  0
  191.8830  178.2390  144.1350 C   0  0  0  0  0  2  0  0  0  0  0  0
  191.0190  177.0180  144.3380 C   0  0  2  0  0  0  0  0  0  0  0  0
  191.6930  175.6750  144.0920 C   0  0  0  0  0  1  0  0  0  0  0  0
  190.7110  177.9720  143.1940 C   0  0  2  0  0  3  0  0  0  0  0  0
  190.5060  176.9780  146.8250 C   0  0  0  0  0  0  0  0  0  0  0  0
  191.8650  176.7060  147.1550 N   0  0  0  0  0  1  0  0  0  0  0  0
  190.0990  177.1250  145.4630 N   0  0  0  0  0  2  0  0  0  0  0  0
  189.6550  177.0930  147.7440 O   0  0  0  0  0  0  0  0  0  0  0  0
  1 21  1  6  0  0  0
  3  2  1  0  0  0  0
  3  9  1  1  0  0  0
  4  2  1  0  0  0  0
  5  3  1  0  0  0  0
  6  8  1  0  0  0  0
  6  7  1  0  0  0  0
  7  1  1  6  0  0  0
  7  4  1  0  0  0  0
  8  5  1  0  0  0  0
  9 12  1  0  0  0  0
 12 10  1  0  0  0  0
 12 11  1  0  0  0  0
 13 14  2  0  0  0  0
 14  1  1  0  0  0  0
 15 14  1  0  0  0  0
 17 16  1  6  0  0  0
 17 15  1  0  0  0  0
 19 17  1  0  0  0  0
 19 18  2  0  0  0  0
 20 19  1  0  0  0  0
 21 22  1  0  0  0  0
 23 24  1  0  0  0  0
 24 25  1  6  0  0  0
 24 29  1  0  0  0  0
 26 22  1  6  0  0  0
 26 23  1  0  0  0  0
 26 24  1  0  0  0  0
 27 28  1  0  0  0  0
 27 30  2  0  0  0  0
 29 27  1  0  0  0  0
M  END
>  <MODEL>
6

>  <REMARK>
 VINA RESULT:      -6.7      2.696      6.662
  Name = 
  11 active torsions:
  status: ('A' for Active; 'I' for Inactive)
    1  A    between atoms: C_4  and  S_6
    2  A    between atoms: C_4  and  C_29
    3  A    between atoms: S_6  and  C_27
    4  A    between atoms: C_8  and  N_24
    5  A    between atoms: C_9  and  C_19
    6  A    between atoms: C_11  and  C_23
    7  A    between atoms: S_12  and  C_23
    8  A    between atoms: S_12  and  C_25
    9  A    between atoms: C_19  and  C_30
   10  A    between atoms: C_22  and  C_29
   11  A    between atoms: C_25  and  C_29
                            x       y       z     vdW  Elec       q    Type
                         _______ _______ _______ _____ _____    ______ ____

>  <TORSDO>
F 11

$$$$
=
 OpenBabel11062413183D

 30 31  0  0  1  0  0  0  0  0999 V2000
  187.5550  178.0650  141.1130 C   0  0  2  0  0  3  0  0  0  0  0  0
  188.3820  177.5650  144.8260 C   0  0  0  0  0  2  0  0  0  0  0  0
  189.8290  177.1060  144.9430 C   0  0  1  0  0  3  0  0  0  0  0  0
  187.7790  177.2330  143.4650 C   0  0  0  0  0  2  0  0  0  0  0  0
  190.7220  178.1280  144.2480 C   0  0  0  0  0  2  0  0  0  0  0  0
  189.7970  177.2330  142.0030 C   0  0  0  0  0  2  0  0  0  0  0  0
  188.4900  177.9570  142.3250 C   0  0  1  0  0  3  0  0  0  0  0  0
  190.9940  177.7860  142.7800 C   0  0  0  0  0  2  0  0  0  0  0  0
  190.1930  177.0190  146.4200 C   0  0  0  0  0  2  0  0  0  0  0  0
  191.9800  176.7570  148.0080 O   0  0  0  0  0  1  0  0  0  0  0  0
  192.0550  175.5310  146.0810 O   0  0  0  0  0  1  0  0  0  0  0  0
  191.6800  176.7510  146.6450 C   0  0  0  0  0  3  0  0  0  0  0  0
  188.8240  179.2860  139.5130 O   0  0  0  0  0  0  0  0  0  0  0  0
  188.2290  178.2520  139.7780 C   0  0  0  0  0  0  0  0  0  0  0  0
  188.1650  176.9350  138.5660 S   0  0  0  0  0  0  0  0  0  0  0  0
  189.8170  177.2350  136.4680 N   0  0  0  0  0  1  0  0  0  0  0  0
  189.8210  177.3180  137.9190 C   0  0  2  0  0  3  0  0  0  0  0  0
  190.6560  175.1300  138.3430 O   0  0  0  0  0  0  0  0  0  0  0  0
  190.8230  176.3700  138.4840 C   0  0  0  0  0  0  0  0  0  0  0  0
  191.9870  176.8550  139.1470 N   0  0  0  0  0  1  0  0  0  0  0  0
  186.3470  178.9760  141.3400 C   0  0  0  0  0  2  0  0  0  0  0  0
  185.1340  178.9210  139.9820 S   0  0  0  0  0  0  0  0  0  0  0  0
  183.0430  177.1830  140.2760 C   0  0  0  0  0  2  0  0  0  0  0  0
  182.4350  178.5220  140.6120 C   0  0  2  0  0  0  0  0  0  0  0  0
  182.1640  179.4460  139.4320 C   0  0  0  0  0  1  0  0  0  0  0  0
  183.8530  178.2090  141.0650 C   0  0  2  0  0  3  0  0  0  0  0  0
  180.1120  177.9940  141.4930 C   0  0  0  0  0  0  0  0  0  0  0  0
  179.6740  177.5390  140.2170 N   0  0  0  0  0  1  0  0  0  0  0  0
  181.4460  178.4720  141.6810 N   0  0  0  0  0  2  0  0  0  0  0  0
  179.3170  177.9730  142.4680 O   0  0  0  0  0  0  0  0  0  0  0  0
  1 21  1  1  0  0  0
  2  3  1  0  0  0  0
  3  9  1  1  0  0  0
  4  2  1  0  0  0  0
  5  3  1  0  0  0  0
  6  7  1  0  0  0  0
  6  8  1  0  0  0  0
  7  1  1  6  0  0  0
  7  4  1  0  0  0  0
  8  5  1  0  0  0  0
  9 12  1  0  0  0  0
 11 12  1  0  0  0  0
 12 10  1  0  0  0  0
 13 14  2  0  0  0  0
 14  1  1  0  0  0  0
 15 14  1  0  0  0  0
 17 16  1  6  0  0  0
 17 19  1  0  0  0  0
 17 15  1  0  0  0  0
 18 19  2  0  0  0  0
 19 20  1  0  0  0  0
 22 21  1  0  0  0  0
 23 24  1  0  0  0  0
 23 26  1  0  0  0  0
 24 25  1  6  0  0  0
 24 26  1  0  0  0  0
 24 29  1  0  0  0  0
 26 22  1  6  0  0  0
 27 29  1  0  0  0  0
 27 30  2  0  0  0  0
 28 27  1  0  0  0  0
M  END
>  <MODEL>
7

>  <REMARK>
 VINA RESULT:      -6.6      3.396      6.957
  Name = 
  11 active torsions:
  status: ('A' for Active; 'I' for Inactive)
    1  A    between atoms: C_4  and  S_6
    2  A    between atoms: C_4  and  C_29
    3  A    between atoms: S_6  and  C_27
    4  A    between atoms: C_8  and  N_24
    5  A    between atoms: C_9  and  C_19
    6  A    between atoms: C_11  and  C_23
    7  A    between atoms: S_12  and  C_23
    8  A    between atoms: S_12  and  C_25
    9  A    between atoms: C_19  and  C_30
   10  A    between atoms: C_22  and  C_29
   11  A    between atoms: C_25  and  C_29
                            x       y       z     vdW  Elec       q    Type
                         _______ _______ _______ _____ _____    ______ ____

>  <TORSDO>
F 11

$$$$
=
 OpenBabel11062413183D

 30 31  0  0  1  0  0  0  0  0999 V2000
  187.8410  177.5610  141.8420 C   0  0  2  0  0  3  0  0  0  0  0  0
  184.7900  178.1220  144.1000 C   0  0  0  0  0  2  0  0  0  0  0  0
  183.8230  179.0570  143.3850 C   0  0  1  0  0  3  0  0  0  0  0  0
  186.2250  178.2920  143.6120 C   0  0  0  0  0  2  0  0  0  0  0  0
  183.4790  178.4560  142.0270 C   0  0  0  0  0  2  0  0  0  0  0  0
  185.8740  179.0840  141.2750 C   0  0  0  0  0  2  0  0  0  0  0  0
  186.3800  177.9290  142.1370 C   0  0  1  0  0  3  0  0  0  0  0  0
  184.3950  178.9500  140.9040 C   0  0  0  0  0  2  0  0  0  0  0  0
  182.5620  179.1880  144.2300 C   0  0  0  0  0  2  0  0  0  0  0  0
  180.3680  178.2050  144.1450 O   0  0  0  0  0  1  0  0  0  0  0  0
  180.7100  180.1860  143.0580 O   0  0  0  0  0  1  0  0  0  0  0  0
  181.2860  178.9670  143.4200 C   0  0  0  0  0  3  0  0  0  0  0  0
  188.5390  175.8960  143.3930 O   0  0  0  0  0  0  0  0  0  0  0  0
  188.6390  177.0550  143.0160 C   0  0  0  0  0  0  0  0  0  0  0  0
  189.7590  178.1650  143.8660 S   0  0  0  0  0  0  0  0  0  0  0  0
  189.3650  177.8820  146.5080 N   0  0  0  0  0  1  0  0  0  0  0  0
  189.8180  177.1230  145.3540 C   0  0  2  0  0  3  0  0  0  0  0  0
  191.8470  176.1140  144.6260 O   0  0  0  0  0  0  0  0  0  0  0  0
  191.2060  176.6300  145.5790 C   0  0  0  0  0  0  0  0  0  0  0  0
  191.8290  176.7710  146.8540 N   0  0  0  0  0  1  0  0  0  0  0  0
  188.5770  178.5840  140.9760 C   0  0  0  0  0  2  0  0  0  0  0  0
  189.9370  177.8630  140.0030 S   0  0  0  0  0  0  0  0  0  0  0  0
  189.5560  176.1300  137.9220 C   0  0  0  0  0  2  0  0  0  0  0  0
  188.6100  177.2640  137.6110 C   0  0  2  0  0  0  0  0  0  0  0  0
  189.2510  178.5450  137.0940 C   0  0  0  0  0  1  0  0  0  0  0  0
  188.7910  176.8130  139.0530 C   0  0  2  0  0  3  0  0  0  0  0  0
  186.1370  177.5800  137.1270 C   0  0  0  0  0  0  0  0  0  0  0  0
  186.0950  178.7990  137.8620 N   0  0  0  0  0  1  0  0  0  0  0  0
  187.3530  176.8380  137.0100 N   0  0  0  0  0  2  0  0  0  0  0  0
  185.0920  177.1520  136.5730 O   0  0  0  0  0  0  0  0  0  0  0  0
  1 21  1  1  0  0  0
  1 14  1  0  0  0  0
  3  2  1  0  0  0  0
  3  9  1  1  0  0  0
  4  2  1  0  0  0  0
  5  3  1  0  0  0  0
  6  7  1  0  0  0  0
  7  1  1  6  0  0  0
  7  4  1  0  0  0  0
  8  6  1  0  0  0  0
  8  5  1  0  0  0  0
 11 12  1  0  0  0  0
 12 10  1  0  0  0  0
 12  9  1  0  0  0  0
 14 13  2  0  0  0  0
 14 15  1  0  0  0  0
 15 17  1  0  0  0  0
 17 19  1  0  0  0  0
 17 16  1  1  0  0  0
 18 19  2  0  0  0  0
 19 20  1  0  0  0  0
 22 21  1  0  0  0  0
 23 26  1  0  0  0  0
 24 25  1  6  0  0  0
 24 23  1  0  0  0  0
 24 26  1  0  0  0  0
 26 22  1  1  0  0  0
 27 28  1  0  0  0  0
 29 27  1  0  0  0  0
 29 24  1  0  0  0  0
 30 27  2  0  0  0  0
M  END
>  <MODEL>
8

>  <REMARK>
 VINA RESULT:      -6.5      0.723      1.457
  Name = 
  11 active torsions:
  status: ('A' for Active; 'I' for Inactive)
    1  A    between atoms: C_4  and  S_6
    2  A    between atoms: C_4  and  C_29
    3  A    between atoms: S_6  and  C_27
    4  A    between atoms: C_8  and  N_24
    5  A    between atoms: C_9  and  C_19
    6  A    between atoms: C_11  and  C_23
    7  A    between atoms: S_12  and  C_23
    8  A    between atoms: S_12  and  C_25
    9  A    between atoms: C_19  and  C_30
   10  A    between atoms: C_22  and  C_29
   11  A    between atoms: C_25  and  C_29
                            x       y       z     vdW  Elec       q    Type
                         _______ _______ _______ _____ _____    ______ ____

>  <TORSDO>
F 11

$$$$
=
 OpenBabel11062413183D

 30 31  0  0  1  0  0  0  0  0999 V2000
  189.0740  178.1450  140.7810 C   0  0  2  0  0  3  0  0  0  0  0  0
  185.5270  179.3430  141.6250 C   0  0  0  0  0  2  0  0  0  0  0  0
  184.9860  178.4890  142.7640 C   0  0  1  0  0  3  0  0  0  0  0  0
  186.6150  178.6260  140.8320 C   0  0  0  0  0  2  0  0  0  0  0  0
  185.9550  178.5700  143.9380 C   0  0  0  0  0  2  0  0  0  0  0  0
  187.5670  177.0930  142.5530 C   0  0  0  0  0  2  0  0  0  0  0  0
  187.8450  178.3200  141.6840 C   0  0  1  0  0  3  0  0  0  0  0  0
  187.0000  177.4500  143.9290 C   0  0  0  0  0  2  0  0  0  0  0  0
  183.6250  179.0380  143.1760 C   0  0  0  0  0  2  0  0  0  0  0  0
  181.2630  179.0250  142.7230 O   0  0  0  0  0  1  0  0  0  0  0  0
  182.7060  178.9910  140.9520 O   0  0  0  0  0  1  0  0  0  0  0  0
  182.4970  178.5620  142.2630 C   0  0  0  0  0  3  0  0  0  0  0  0
  188.9000  179.3300  138.7250 O   0  0  0  0  0  0  0  0  0  0  0  0
  188.8200  178.2550  139.3000 C   0  0  0  0  0  0  0  0  0  0  0  0
  188.4030  176.7850  138.3660 S   0  0  0  0  0  0  0  0  0  0  0  0
  189.6150  176.5570  135.9790 N   0  0  0  0  0  1  0  0  0  0  0  0
  189.9180  176.8720  137.3650 C   0  0  2  0  0  3  0  0  0  0  0  0
  190.6680  174.6950  137.9670 O   0  0  0  0  0  0  0  0  0  0  0  0
  190.9380  175.9220  137.8960 C   0  0  0  0  0  0  0  0  0  0  0  0
  192.2270  176.3860  138.2870 N   0  0  0  0  0  1  0  0  0  0  0  0
  189.9760  176.9770  141.1800 C   0  0  0  0  0  2  0  0  0  0  0  0
  191.6070  177.5010  141.8010 S   0  0  0  0  0  0  0  0  0  0  0  0
  192.0110  178.3070  144.3830 C   0  0  0  0  0  2  0  0  0  0  0  0
  191.0680  177.1380  144.5250 C   0  0  2  0  0  0  0  0  0  0  0  0
  191.6800  175.7590  144.3220 C   0  0  0  0  0  1  0  0  0  0  0  0
  190.8920  178.1060  143.3640 C   0  0  2  0  0  3  0  0  0  0  0  0
  190.3840  177.1170  146.9700 C   0  0  0  0  0  0  0  0  0  0  0  0
  191.6960  176.7550  147.3890 N   0  0  0  0  0  1  0  0  0  0  0  0
  190.0810  177.2980  145.5850 N   0  0  0  0  0  2  0  0  0  0  0  0
  189.4810  177.2820  147.8300 O   0  0  0  0  0  0  0  0  0  0  0  0
  1 21  1  6  0  0  0
  2  3  1  0  0  0  0
  3  9  1  1  0  0  0
  3  5  1  0  0  0  0
  4  2  1  0  0  0  0
  4  7  1  0  0  0  0
  6  8  1  0  0  0  0
  7  1  1  6  0  0  0
  7  6  1  0  0  0  0
  8  5  1  0  0  0  0
 11 12  1  0  0  0  0
 12 10  1  0  0  0  0
 12  9  1  0  0  0  0
 13 14  2  0  0  0  0
 14  1  1  0  0  0  0
 15 14  1  0  0  0  0
 17 16  1  6  0  0  0
 17 19  1  0  0  0  0
 17 15  1  0  0  0  0
 19 18  2  0  0  0  0
 19 20  1  0  0  0  0
 21 22  1  0  0  0  0
 23 24  1  0  0  0  0
 24 25  1  6  0  0  0
 24 29  1  0  0  0  0
 26 22  1  6  0  0  0
 26 23  1  0  0  0  0
 26 24  1  0  0  0  0
 27 28  1  0  0  0  0
 27 30  2  0  0  0  0
 29 27  1  0  0  0  0
M  END
>  <MODEL>
9

>  <REMARK>
 VINA RESULT:      -6.5      2.382      6.271
  Name = 
  11 active torsions:
  status: ('A' for Active; 'I' for Inactive)
    1  A    between atoms: C_4  and  S_6
    2  A    between atoms: C_4  and  C_29
    3  A    between atoms: S_6  and  C_27
    4  A    between atoms: C_8  and  N_24
    5  A    between atoms: C_9  and  C_19
    6  A    between atoms: C_11  and  C_23
    7  A    between atoms: S_12  and  C_23
    8  A    between atoms: S_12  and  C_25
    9  A    between atoms: C_19  and  C_30
   10  A    between atoms: C_22  and  C_29
   11  A    between atoms: C_25  and  C_29
                            x       y       z     vdW  Elec       q    Type
                         _______ _______ _______ _____ _____    ______ ____

>  <TORSDO>
F 11

$$$$
