=
 OpenBabel11062415523D

 44 49  0  0  1  0  0  0  0  0999 V2000
  188.1600  177.0290  135.0210 C   0  0  0  0  0  2  0  0  0  0  0  0
  183.6330  177.4030  141.3740 O   0  0  0  0  0  1  0  0  0  0  0  0
  184.7880  174.9440  136.4810 C   0  0  0  0  0  2  0  0  0  0  0  0
  180.8800  177.0730  137.5030 C   0  0  0  0  0  3  0  0  0  0  0  0
  184.4250  179.3540  138.3990 C   0  0  0  0  0  2  0  0  0  0  0  0
  189.6660  177.5660  137.1140 O   0  0  0  0  0  0  0  0  0  0  0  0
  182.4850  177.4040  139.3020 C   0  0  0  0  0  0  0  0  0  0  0  0
  189.6830  176.8340  135.0550 C   0  0  0  0  0  2  0  0  0  0  0  0
  185.3500  179.3630  140.6430 O   0  0  0  0  0  0  0  0  0  0  0  0
  182.8070  173.4290  136.3730 C   0  0  0  0  0  2  0  0  0  0  0  0
  183.5950  174.3940  137.2570 C   0  0  2  0  0  3  0  0  0  0  0  0
  190.1370  176.5820  136.3650 O   0  0  0  0  0  0  0  0  0  0  0  0
  188.3810  177.1630  137.5480 C   0  0  2  0  0  3  0  0  0  0  0  0
  186.4120  177.8670  138.9180 C   0  0  2  0  0  3  0  0  0  0  0  0
  183.0780  178.2570  140.4150 C   0  0  2  0  0  0  0  0  0  0  0  0
  187.5050  176.6920  136.3670 C   0  0  2  0  0  3  0  0  0  0  0  0
  186.0520  174.8710  137.3220 C   0  0  0  0  0  2  0  0  0  0  0  0
  181.3470  177.8170  138.5880 C   0  0  0  0  0  3  0  0  0  0  0  0
  180.9930  175.1210  135.9420 C   0  0  1  0  0  3  0  0  0  0  0  0
  183.1650  176.2510  138.8770 C   0  0  0  0  0  3  0  0  0  0  0  0
  186.1580  178.2210  140.4200 C   0  0  1  0  0  3  0  0  0  0  0  0
  181.5630  175.9270  137.0830 C   0  0  0  0  0  0  0  0  0  0  0  0
  187.2640  175.1920  136.4600 C   0  0  0  0  0  2  0  0  0  0  0  0
  184.1480  179.2760  139.8990 C   0  0  2  0  0  3  0  0  0  0  0  0
  181.9870  179.0580  141.1170 C   0  0  0  0  0  1  0  0  0  0  0  0
  182.0230  174.1890  135.3060 C   0  0  0  0  0  2  0  0  0  0  0  0
  187.7250  178.3220  138.2930 C   0  0  0  0  0  2  0  0  0  0  0  0
  185.2460  178.1480  137.9760 C   0  0  0  0  0  2  0  0  0  0  0  0
  182.7280  175.5150  137.7690 C   0  0  0  0  0  0  0  0  0  0  0  0
  178.9330  173.9800  135.4990 O   0  0  0  0  0  0  0  0  0  0  0  0
  179.7720  174.3640  136.3580 C   0  0  0  0  0  0  0  0  0  0  0  0
  179.5630  174.0950  137.7070 O   0  0  0  0  0  1  0  0  0  0  0  0
  187.3960  178.0620  142.5960 C   0  0  0  0  0  3  0  0  0  0  0  0
  187.4120  178.3080  141.2710 C   0  0  0  0  0  0  0  0  0  0  0  0
  186.6020  177.0360  144.6770 C   0  0  0  0  0  2  0  0  0  0  0  0
  186.1760  177.6890  143.3830 C   0  0  1  0  0  3  0  0  0  0  0  0
  185.8720  177.5940  145.7430 O   0  0  0  0  0  0  0  0  0  0  0  0
  185.4810  178.9380  143.8250 C   0  0  0  0  0  2  0  0  0  0  0  0
  185.4740  178.8770  145.3340 C   0  0  1  0  0  3  0  0  0  0  0  0
  183.3480  179.0800  144.6910 C   0  0  0  0  0  1  0  0  0  0  0  0
  184.1830  179.1320  145.8120 O   0  0  0  0  0  0  0  0  0  0  0  0
  188.6740  178.8750  140.6840 C   0  0  0  0  0  2  0  0  0  0  0  0
  189.8830  178.0650  141.1350 C   0  0  0  0  0  2  0  0  0  0  0  0
  189.7970  176.7590  140.6550 O   0  0  0  0  0  1  0  0  0  0  0  0
  1  8  1  0  0  0  0
  3 11  1  0  0  0  0
  3 17  1  0  0  0  0
  4 18  1  0  0  0  0
  6 13  1  0  0  0  0
  7 15  1  0  0  0  0
  8 12  1  0  0  0  0
 11 10  1  6  0  0  0
 11 29  1  0  0  0  0
 12  6  1  0  0  0  0
 13 27  1  6  0  0  0
 14 28  1  6  0  0  0
 14 21  1  0  0  0  0
 15 25  1  1  0  0  0
 15  2  1  0  0  0  0
 16  1  1  6  0  0  0
 16 23  1  0  0  0  0
 16 13  1  0  0  0  0
 18  7  2  0  0  0  0
 19 31  1  1  0  0  0
 19 22  1  0  0  0  0
 20  7  1  0  0  0  0
 21  9  1  0  0  0  0
 21 34  1  1  0  0  0
 22  4  2  0  0  0  0
 22 29  1  0  0  0  0
 23 17  1  0  0  0  0
 24  5  1  6  0  0  0
 24 15  1  0  0  0  0
 24  9  1  0  0  0  0
 26 19  1  0  0  0  0
 26 10  1  0  0  0  0
 27 14  1  0  0  0  0
 28  5  1  0  0  0  0
 29 20  2  0  0  0  0
 30 31  2  0  0  0  0
 31 32  1  0  0  0  0
 34 33  2  0  0  0  0
 35 37  1  0  0  0  0
 36 33  1  6  0  0  0
 36 38  1  0  0  0  0
 36 35  1  0  0  0  0
 38 39  1  0  0  0  0
 39 37  1  0  0  0  0
 39 41  1  6  0  0  0
 40 41  1  0  0  0  0
 42 43  1  0  0  0  0
 42 34  1  0  0  0  0
 44 43  1  0  0  0  0
M  END
>  <MODEL>
1

>  <REMARK>
 VINA RESULT:      -6.9      0.000      0.000
  Name = 
  6 active torsions:
  status: ('A' for Active; 'I' for Inactive)
    1  A    between atoms: C_6  and  C_30
    2  A    between atoms: C_17  and  C_24
    3  A    between atoms: O_18  and  C_41
    4  A    between atoms: C_25  and  C_27
    5  A    between atoms: C_28  and  C_30
    6  A    between atoms: C_28  and  C_32
                            x       y       z     vdW  Elec       q    Type
                         _______ _______ _______ _____ _____    ______ ____

>  <TORSDO>
F 6

$$$$
=
 OpenBabel11062415523D

 44 49  0  0  1  0  0  0  0  0999 V2000
  184.3210  175.5150  137.2820 C   0  0  0  0  0  2  0  0  0  0  0  0
  180.1820  180.8440  141.2140 O   0  0  0  0  0  1  0  0  0  0  0  0
  185.0700  178.2310  140.4300 C   0  0  0  0  0  2  0  0  0  0  0  0
  182.6450  178.1810  144.2990 C   0  0  0  0  0  3  0  0  0  0  0  0
  180.3640  177.2320  140.7680 C   0  0  0  0  0  2  0  0  0  0  0  0
  182.7000  176.7430  135.6090 O   0  0  0  0  0  0  0  0  0  0  0  0
  181.3650  179.2840  142.5470 C   0  0  0  0  0  0  0  0  0  0  0  0
  184.4990  175.5120  135.7560 C   0  0  0  0  0  2  0  0  0  0  0  0
  179.0670  178.9460  139.6410 O   0  0  0  0  0  0  0  0  0  0  0  0
  186.3090  179.2190  142.3580 C   0  0  0  0  0  2  0  0  0  0  0  0
  185.0300  179.2910  141.5270 C   0  0  2  0  0  3  0  0  0  0  0  0
  183.9480  176.6710  135.1750 O   0  0  0  0  0  0  0  0  0  0  0  0
  182.7390  177.4520  136.8340 C   0  0  2  0  0  3  0  0  0  0  0  0
  181.3160  178.3310  138.6910 C   0  0  2  0  0  3  0  0  0  0  0  0
  180.0380  179.6250  141.8850 C   0  0  2  0  0  0  0  0  0  0  0  0
  183.7900  176.8590  137.7970 C   0  0  2  0  0  3  0  0  0  0  0  0
  184.6680  178.8320  139.0920 C   0  0  0  0  0  2  0  0  0  0  0  0
  181.4190  178.5760  143.7610 C   0  0  0  0  0  3  0  0  0  0  0  0
  185.1430  178.0550  144.2620 C   0  0  1  0  0  3  0  0  0  0  0  0
  182.5650  179.5510  141.8700 C   0  0  0  0  0  3  0  0  0  0  0  0
  180.1430  179.3580  138.8170 C   0  0  1  0  0  3  0  0  0  0  0  0
  183.8370  178.4480  143.6190 C   0  0  0  0  0  0  0  0  0  0  0  0
  184.9450  177.8340  137.9770 C   0  0  0  0  0  2  0  0  0  0  0  0
  179.5410  178.5120  140.9030 C   0  0  2  0  0  3  0  0  0  0  0  0
  178.9490  179.8260  142.9330 C   0  0  0  0  0  1  0  0  0  0  0  0
  186.2980  177.9890  143.2630 C   0  0  0  0  0  2  0  0  0  0  0  0
  181.3470  177.4360  137.4580 C   0  0  0  0  0  2  0  0  0  0  0  0
  181.6100  177.5180  139.9480 C   0  0  0  0  0  2  0  0  0  0  0  0
  183.7990  179.1310  142.3810 C   0  0  0  0  0  0  0  0  0  0  0  0
  184.9760  180.1000  145.5010 O   0  0  0  0  0  0  0  0  0  0  0  0
  185.4820  178.9490  145.4130 C   0  0  0  0  0  0  0  0  0  0  0  0
  186.3720  178.5020  146.3840 O   0  0  0  0  0  1  0  0  0  0  0  0
  179.5510  181.1890  137.2090 C   0  0  0  0  0  3  0  0  0  0  0  0
  179.6070  179.8730  137.4950 C   0  0  0  0  0  0  0  0  0  0  0  0
  181.4620  182.5480  137.9240 C   0  0  0  0  0  2  0  0  0  0  0  0
  179.9890  182.2840  138.1320 C   0  0  1  0  0  3  0  0  0  0  0  0
  181.6780  183.9350  137.8230 O   0  0  0  0  0  0  0  0  0  0  0  0
  179.3340  183.5640  137.7170 C   0  0  0  0  0  2  0  0  0  0  0  0
  180.4700  184.5030  137.3840 C   0  0  1  0  0  3  0  0  0  0  0  0
  178.9310  185.7450  138.4140 C   0  0  0  0  0  1  0  0  0  0  0  0
  180.2750  185.7280  138.0310 O   0  0  0  0  0  0  0  0  0  0  0  0
  178.9310  178.9250  136.5440 C   0  0  0  0  0  2  0  0  0  0  0  0
  179.1030  179.3990  135.1060 C   0  0  0  0  0  2  0  0  0  0  0  0
  180.4450  179.3380  134.7340 O   0  0  0  0  0  1  0  0  0  0  0  0
  2 15  1  0  0  0  0
  6 13  1  0  0  0  0
  7 18  2  0  0  0  0
  8  1  1  0  0  0  0
  9 24  1  0  0  0  0
 10 26  1  0  0  0  0
 11  3  1  6  0  0  0
 11 10  1  0  0  0  0
 11 29  1  0  0  0  0
 12  6  1  0  0  0  0
 12  8  1  0  0  0  0
 13 27  1  1  0  0  0
 13 16  1  0  0  0  0
 14 27  1  6  0  0  0
 14 21  1  0  0  0  0
 14 28  1  0  0  0  0
 15  7  1  0  0  0  0
 15 25  1  1  0  0  0
 16  1  1  6  0  0  0
 16 23  1  0  0  0  0
 17  3  1  0  0  0  0
 18  4  1  0  0  0  0
 19 31  1  1  0  0  0
 20 29  2  0  0  0  0
 20  7  1  0  0  0  0
 21 34  1  6  0  0  0
 21  9  1  0  0  0  0
 22 19  1  0  0  0  0
 22  4  2  0  0  0  0
 23 17  1  0  0  0  0
 24  5  1  6  0  0  0
 24 15  1  0  0  0  0
 26 19  1  0  0  0  0
 28  5  1  0  0  0  0
 29 22  1  0  0  0  0
 31 30  2  0  0  0  0
 31 32  1  0  0  0  0
 33 34  2  0  0  0  0
 35 36  1  0  0  0  0
 36 33  1  6  0  0  0
 37 35  1  0  0  0  0
 38 36  1  0  0  0  0
 39 38  1  0  0  0  0
 39 37  1  0  0  0  0
 39 41  1  1  0  0  0
 41 40  1  0  0  0  0
 42 34  1  0  0  0  0
 43 42  1  0  0  0  0
 44 43  1  0  0  0  0
M  END
>  <MODEL>
2

>  <REMARK>
 VINA RESULT:      -6.8      3.550      7.995
  Name = 
  6 active torsions:
  status: ('A' for Active; 'I' for Inactive)
    1  A    between atoms: C_6  and  C_30
    2  A    between atoms: C_17  and  C_24
    3  A    between atoms: O_18  and  C_41
    4  A    between atoms: C_25  and  C_27
    5  A    between atoms: C_28  and  C_30
    6  A    between atoms: C_28  and  C_32
                            x       y       z     vdW  Elec       q    Type
                         _______ _______ _______ _____ _____    ______ ____

>  <TORSDO>
F 6

$$$$
=
 OpenBabel11062415523D

 44 49  0  0  1  0  0  0  0  0999 V2000
  189.2290  173.3830  134.7920 C   0  0  0  0  0  2  0  0  0  0  0  0
  185.3210  177.7700  139.9380 O   0  0  0  0  0  1  0  0  0  0  0  0
  185.4590  173.2130  136.6910 C   0  0  0  0  0  2  0  0  0  0  0  0
  182.4200  176.6040  136.3460 C   0  0  0  0  0  3  0  0  0  0  0  0
  186.5230  177.9130  136.5000 C   0  0  0  0  0  2  0  0  0  0  0  0
  190.9230  174.3140  136.5820 O   0  0  0  0  0  0  0  0  0  0  0  0
  184.1320  177.2030  137.9690 C   0  0  0  0  0  0  0  0  0  0  0  0
  190.6240  172.7910  135.0440 C   0  0  0  0  0  2  0  0  0  0  0  0
  187.5110  178.6280  138.5980 O   0  0  0  0  0  0  0  0  0  0  0  0
  183.1130  172.4470  137.0620 C   0  0  0  0  0  2  0  0  0  0  0  0
  184.1940  173.4260  137.5150 C   0  0  2  0  0  3  0  0  0  0  0  0
  191.0420  173.0140  136.3710 O   0  0  0  0  0  0  0  0  0  0  0  0
  189.5970  174.5310  137.0280 C   0  0  2  0  0  3  0  0  0  0  0  0
  187.9950  176.2960  137.7820 C   0  0  2  0  0  3  0  0  0  0  0  0
  185.0040  178.2430  138.6600 C   0  0  2  0  0  0  0  0  0  0  0  0
  188.5670  173.8690  136.0880 C   0  0  2  0  0  3  0  0  0  0  0  0
  186.6810  173.1510  137.5930 C   0  0  0  0  0  2  0  0  0  0  0  0
  183.1380  177.5750  137.0480 C   0  0  0  0  0  3  0  0  0  0  0  0
  181.8710  174.2280  135.7870 C   0  0  1  0  0  3  0  0  0  0  0  0
  184.4150  175.8390  138.1410 C   0  0  0  0  0  3  0  0  0  0  0  0
  187.9290  177.3230  138.9590 C   0  0  1  0  0  3  0  0  0  0  0  0
  182.7080  175.2470  136.5200 C   0  0  0  0  0  0  0  0  0  0  0  0
  187.8920  172.7000  136.7900 C   0  0  0  0  0  2  0  0  0  0  0  0
  186.3050  178.5790  137.8570 C   0  0  2  0  0  3  0  0  0  0  0  0
  184.2370  179.5460  138.8500 C   0  0  0  0  0  1  0  0  0  0  0  0
  182.5440  172.8590  135.7060 C   0  0  0  0  0  2  0  0  0  0  0  0
  189.3540  176.0330  137.1440 C   0  0  0  0  0  2  0  0  0  0  0  0
  186.9250  176.4640  136.7090 C   0  0  0  0  0  2  0  0  0  0  0  0
  183.7270  174.8560  137.4190 C   0  0  0  0  0  0  0  0  0  0  0  0
  179.4920  173.9810  135.6270 O   0  0  0  0  0  0  0  0  0  0  0  0
  180.5000  174.1160  136.3740 C   0  0  0  0  0  0  0  0  0  0  0  0
  180.3420  174.1730  137.7550 O   0  0  0  0  0  1  0  0  0  0  0  0
  189.1680  177.2390  141.1380 C   0  0  0  0  0  3  0  0  0  0  0  0
  189.1890  177.4040  139.8010 C   0  0  0  0  0  0  0  0  0  0  0  0
  188.3040  176.1200  143.1410 C   0  0  0  0  0  2  0  0  0  0  0  0
  187.9370  176.9700  141.9480 C   0  0  1  0  0  3  0  0  0  0  0  0
  187.7130  176.6600  144.2990 O   0  0  0  0  0  0  0  0  0  0  0  0
  187.4620  178.2530  142.5550 C   0  0  0  0  0  2  0  0  0  0  0  0
  187.5040  178.0260  144.0480 C   0  0  1  0  0  3  0  0  0  0  0  0
  186.3090  177.9260  145.9290 C   0  0  0  0  0  1  0  0  0  0  0  0
  186.2880  178.4180  144.6200 O   0  0  0  0  0  0  0  0  0  0  0  0
  190.4720  177.8780  139.1780 C   0  0  0  0  0  2  0  0  0  0  0  0
  191.6600  177.1280  139.7690 C   0  0  0  0  0  2  0  0  0  0  0  0
  192.5320  176.7290  138.7580 O   0  0  0  0  0  1  0  0  0  0  0  0
  1  8  1  0  0  0  0
  3 17  1  0  0  0  0
  4 22  2  0  0  0  0
  4 18  1  0  0  0  0
  5 28  1  0  0  0  0
  6 13  1  0  0  0  0
  7 20  1  0  0  0  0
  7 15  1  0  0  0  0
  8 12  1  0  0  0  0
  9 21  1  0  0  0  0
 10 11  1  0  0  0  0
 11  3  1  6  0  0  0
 12  6  1  0  0  0  0
 13 27  1  6  0  0  0
 14 28  1  6  0  0  0
 14 21  1  0  0  0  0
 15 25  1  1  0  0  0
 15  2  1  0  0  0  0
 16  1  1  6  0  0  0
 16 23  1  0  0  0  0
 16 13  1  0  0  0  0
 18  7  2  0  0  0  0
 19 31  1  1  0  0  0
 19 22  1  0  0  0  0
 21 34  1  6  0  0  0
 22 29  1  0  0  0  0
 23 17  1  0  0  0  0
 24  5  1  6  0  0  0
 24  9  1  0  0  0  0
 24 15  1  0  0  0  0
 26 19  1  0  0  0  0
 26 10  1  0  0  0  0
 27 14  1  0  0  0  0
 29 11  1  0  0  0  0
 29 20  2  0  0  0  0
 30 31  2  0  0  0  0
 31 32  1  0  0  0  0
 34 33  2  0  0  0  0
 35 37  1  0  0  0  0
 36 33  1  6  0  0  0
 36 38  1  0  0  0  0
 36 35  1  0  0  0  0
 38 39  1  0  0  0  0
 39 37  1  0  0  0  0
 39 41  1  1  0  0  0
 41 40  1  0  0  0  0
 42 43  1  0  0  0  0
 42 34  1  0  0  0  0
 44 43  1  0  0  0  0
M  END
>  <MODEL>
3

>  <REMARK>
 VINA RESULT:      -6.7      1.870      2.529
  Name = 
  6 active torsions:
  status: ('A' for Active; 'I' for Inactive)
    1  A    between atoms: C_6  and  C_30
    2  A    between atoms: C_17  and  C_24
    3  A    between atoms: O_18  and  C_41
    4  A    between atoms: C_25  and  C_27
    5  A    between atoms: C_28  and  C_30
    6  A    between atoms: C_28  and  C_32
                            x       y       z     vdW  Elec       q    Type
                         _______ _______ _______ _____ _____    ______ ____

>  <TORSDO>
F 6

$$$$
=
 OpenBabel11062415523D

 44 49  0  0  1  0  0  0  0  0999 V2000
  181.2470  173.8810  136.1180 C   0  0  0  0  0  2  0  0  0  0  0  0
  184.2420  180.2910  139.4240 O   0  0  0  0  0  1  0  0  0  0  0  0
  184.6370  176.3240  135.4950 C   0  0  0  0  0  2  0  0  0  0  0  0
  187.7070  177.0880  138.7880 C   0  0  0  0  0  3  0  0  0  0  0  0
  183.6460  176.7790  140.1930 C   0  0  0  0  0  2  0  0  0  0  0  0
  179.2780  175.4960  136.7880 O   0  0  0  0  0  0  0  0  0  0  0  0
  185.7460  178.4810  139.1610 C   0  0  0  0  0  0  0  0  0  0  0  0
  179.8270  173.7890  135.5390 C   0  0  0  0  0  2  0  0  0  0  0  0
  182.3170  178.7740  140.5730 O   0  0  0  0  0  0  0  0  0  0  0  0
  186.8810  176.9440  134.5960 C   0  0  0  0  0  2  0  0  0  0  0  0
  185.7440  177.3730  135.5210 C   0  0  2  0  0  3  0  0  0  0  0  0
  179.1890  175.0460  135.5470 O   0  0  0  0  0  0  0  0  0  0  0  0
  180.5090  176.1890  136.8790 C   0  0  2  0  0  3  0  0  0  0  0  0
  181.9680  177.4950  138.4330 C   0  0  2  0  0  3  0  0  0  0  0  0
  184.7750  179.1870  140.0960 C   0  0  2  0  0  0  0  0  0  0  0  0
  181.6810  175.3330  136.3520 C   0  0  2  0  0  3  0  0  0  0  0  0
  183.2790  176.9850  135.3230 C   0  0  0  0  0  2  0  0  0  0  0  0
  186.8860  177.8180  139.6490 C   0  0  0  0  0  3  0  0  0  0  0  0
  188.3310  176.2240  136.5240 C   0  0  1  0  0  3  0  0  0  0  0  0
  185.4310  178.3630  137.7970 C   0  0  0  0  0  3  0  0  0  0  0  0
  181.8370  178.8270  139.2410 C   0  0  1  0  0  3  0  0  0  0  0  0
  187.3870  176.9720  137.4310 C   0  0  0  0  0  0  0  0  0  0  0  0
  182.2200  175.9240  135.0570 C   0  0  0  0  0  2  0  0  0  0  0  0
  183.6310  178.2480  140.6090 C   0  0  2  0  0  3  0  0  0  0  0  0
  185.5050  179.7260  141.3210 C   0  0  0  0  0  1  0  0  0  0  0  0
  187.6760  175.7940  135.2130 C   0  0  0  0  0  2  0  0  0  0  0  0
  180.7370  176.6030  138.3290 C   0  0  0  0  0  2  0  0  0  0  0  0
  183.2060  176.6620  138.7440 C   0  0  0  0  0  2  0  0  0  0  0  0
  186.2280  177.6070  136.9280 C   0  0  0  0  0  0  0  0  0  0  0  0
  189.5960  178.2570  136.4010 O   0  0  0  0  0  1  0  0  0  0  0  0
  189.5820  177.0030  136.2660 C   0  0  0  0  0  0  0  0  0  0  0  0
  190.7330  176.3320  135.8640 O   0  0  0  0  0  0  0  0  0  0  0  0
  180.1240  180.4380  138.3680 C   0  0  0  0  0  3  0  0  0  0  0  0
  180.4520  179.4480  139.2220 C   0  0  0  0  0  0  0  0  0  0  0  0
  180.6690  180.5710  135.9820 C   0  0  0  0  0  2  0  0  0  0  0  0
  181.0540  181.0450  137.3630 C   0  0  1  0  0  3  0  0  0  0  0  0
  180.6370  181.6710  135.1030 O   0  0  0  0  0  0  0  0  0  0  0  0
  180.8210  182.5220  137.3130 C   0  0  0  0  0  2  0  0  0  0  0  0
  180.4050  182.8110  135.8900 C   0  0  1  0  0  3  0  0  0  0  0  0
  180.9830  184.9270  136.2930 C   0  0  0  0  0  1  0  0  0  0  0  0
  181.1570  183.8780  135.3850 O   0  0  0  0  0  0  0  0  0  0  0  0
  179.4670  179.1060  140.3040 C   0  0  0  0  0  2  0  0  0  0  0  0
  179.0320  180.3640  141.0450 C   0  0  0  0  0  2  0  0  0  0  0  0
  180.0700  180.8360  141.8470 O   0  0  0  0  0  1  0  0  0  0  0  0
  1 16  1  0  0  0  0
  2 15  1  0  0  0  0
  3 11  1  0  0  0  0
  4 18  1  0  0  0  0
  6 13  1  0  0  0  0
  7 18  2  0  0  0  0
  7 15  1  0  0  0  0
  8 12  1  0  0  0  0
  8  1  1  0  0  0  0
  9 24  1  0  0  0  0
 10 26  1  0  0  0  0
 11 10  1  6  0  0  0
 11 29  1  0  0  0  0
 12  6  1  0  0  0  0
 13 27  1  1  0  0  0
 14 27  1  1  0  0  0
 14 28  1  0  0  0  0
 14 21  1  0  0  0  0
 15 24  1  0  0  0  0
 15 25  1  1  0  0  0
 16 23  1  6  0  0  0
 16 13  1  0  0  0  0
 17  3  1  0  0  0  0
 19 31  1  6  0  0  0
 19 22  1  0  0  0  0
 20  7  1  0  0  0  0
 21 34  1  1  0  0  0
 21  9  1  0  0  0  0
 22  4  2  0  0  0  0
 23 17  1  0  0  0  0
 24  5  1  6  0  0  0
 26 19  1  0  0  0  0
 28  5  1  0  0  0  0
 29 22  1  0  0  0  0
 29 20  2  0  0  0  0
 31 30  1  0  0  0  0
 32 31  2  0  0  0  0
 33 34  2  0  0  0  0
 34 42  1  0  0  0  0
 35 36  1  0  0  0  0
 36 33  1  1  0  0  0
 37 39  1  0  0  0  0
 37 35  1  0  0  0  0
 38 36  1  0  0  0  0
 39 41  1  6  0  0  0
 39 38  1  0  0  0  0
 41 40  1  0  0  0  0
 42 43  1  0  0  0  0
 43 44  1  0  0  0  0
M  END
>  <MODEL>
4

>  <REMARK>
 VINA RESULT:      -6.2      2.889      7.722
  Name = 
  6 active torsions:
  status: ('A' for Active; 'I' for Inactive)
    1  A    between atoms: C_6  and  C_30
    2  A    between atoms: C_17  and  C_24
    3  A    between atoms: O_18  and  C_41
    4  A    between atoms: C_25  and  C_27
    5  A    between atoms: C_28  and  C_30
    6  A    between atoms: C_28  and  C_32
                            x       y       z     vdW  Elec       q    Type
                         _______ _______ _______ _____ _____    ______ ____

>  <TORSDO>
F 6

$$$$
=
 OpenBabel11062415523D

 44 49  0  0  1  0  0  0  0  0999 V2000
  188.5930  172.8100  135.0790 C   0  0  0  0  0  2  0  0  0  0  0  0
  182.4610  176.8780  137.6950 O   0  0  0  0  0  1  0  0  0  0  0  0
  184.7600  171.8930  136.6030 C   0  0  0  0  0  2  0  0  0  0  0  0
  180.9440  173.5110  134.6890 C   0  0  0  0  0  3  0  0  0  0  0  0
  184.2690  176.2500  134.5940 C   0  0  0  0  0  2  0  0  0  0  0  0
  189.4640  174.8810  136.4520 O   0  0  0  0  0  0  0  0  0  0  0  0
  181.9750  175.2470  136.0470 C   0  0  0  0  0  0  0  0  0  0  0  0
  190.0140  172.9240  135.6510 C   0  0  0  0  0  2  0  0  0  0  0  0
  184.4930  177.9760  136.2850 O   0  0  0  0  0  0  0  0  0  0  0  0
  182.7650  170.4730  137.0820 C   0  0  0  0  0  2  0  0  0  0  0  0
  183.3460  171.8820  137.1750 C   0  0  2  0  0  3  0  0  0  0  0  0
  190.0390  173.7410  136.7990 O   0  0  0  0  0  0  0  0  0  0  0  0
  188.0760  174.7170  136.6750 C   0  0  2  0  0  3  0  0  0  0  0  0
  185.8680  175.8800  136.5260 C   0  0  2  0  0  3  0  0  0  0  0  0
  182.2930  176.7110  136.3160 C   0  0  2  0  0  0  0  0  0  0  0  0
  187.5440  173.4280  136.0130 C   0  0  2  0  0  3  0  0  0  0  0  0
  185.7100  172.6240  137.5390 C   0  0  0  0  0  2  0  0  0  0  0  0
  181.1400  174.8610  134.9850 C   0  0  0  0  0  3  0  0  0  0  0  0
  181.3240  171.0740  135.1070 C   0  0  1  0  0  3  0  0  0  0  0  0
  182.6380  174.2490  136.7790 C   0  0  0  0  0  3  0  0  0  0  0  0
  185.2200  177.1470  137.1750 C   0  0  1  0  0  3  0  0  0  0  0  0
  181.6080  172.5210  135.4200 C   0  0  0  0  0  0  0  0  0  0  0  0
  187.1460  172.4180  137.0790 C   0  0  0  0  0  2  0  0  0  0  0  0
  183.5590  177.2130  135.5430 C   0  0  2  0  0  3  0  0  0  0  0  0
  181.1260  177.6000  135.9030 C   0  0  0  0  0  1  0  0  0  0  0  0
  182.4030  170.1310  135.6390 C   0  0  0  0  0  2  0  0  0  0  0  0
  187.3430  175.9490  136.1510 C   0  0  0  0  0  2  0  0  0  0  0  0
  185.0610  175.2370  135.4030 C   0  0  0  0  0  2  0  0  0  0  0  0
  182.4770  172.8920  136.4720 C   0  0  0  0  0  0  0  0  0  0  0  0
  179.3690  169.6890  135.0530 O   0  0  0  0  0  0  0  0  0  0  0  0
  179.9690  170.6600  135.5870 C   0  0  0  0  0  0  0  0  0  0  0  0
  179.3690  171.3670  136.6250 O   0  0  0  0  0  1  0  0  0  0  0  0
  185.9180  178.3100  139.2850 C   0  0  0  0  0  3  0  0  0  0  0  0
  186.1720  177.9930  138.0000 C   0  0  0  0  0  0  0  0  0  0  0  0
  185.0030  177.9040  141.5230 C   0  0  0  0  0  2  0  0  0  0  0  0
  184.6960  177.8890  140.0440 C   0  0  1  0  0  3  0  0  0  0  0  0
  183.9610  178.5550  142.2100 O   0  0  0  0  0  0  0  0  0  0  0  0
  183.6400  178.9370  139.8870 C   0  0  0  0  0  2  0  0  0  0  0  0
  183.3470  179.4200  141.2890 C   0  0  1  0  0  3  0  0  0  0  0  0
  181.4600  178.3580  140.7530 C   0  0  0  0  0  1  0  0  0  0  0  0
  181.9650  179.4200  141.5090 O   0  0  0  0  0  0  0  0  0  0  0  0
  187.3340  178.6740  137.3320 C   0  0  0  0  0  2  0  0  0  0  0  0
  188.5960  178.5190  138.1720 C   0  0  0  0  0  2  0  0  0  0  0  0
  189.1410  179.7690  138.4620 O   0  0  0  0  0  1  0  0  0  0  0  0
  1  8  1  0  0  0  0
  3 17  1  0  0  0  0
  4 18  2  0  0  0  0
  4 22  1  0  0  0  0
  5 28  1  0  0  0  0
  6 13  1  0  0  0  0
  6 12  1  0  0  0  0
  7 15  1  0  0  0  0
  7 20  2  0  0  0  0
  8 12  1  0  0  0  0
  9 21  1  0  0  0  0
 10 11  1  0  0  0  0
 11  3  1  6  0  0  0
 13 27  1  6  0  0  0
 14 28  1  6  0  0  0
 14 21  1  0  0  0  0
 15 25  1  6  0  0  0
 15  2  1  0  0  0  0
 16  1  1  6  0  0  0
 16 13  1  0  0  0  0
 16 23  1  0  0  0  0
 18  7  1  0  0  0  0
 19 22  1  0  0  0  0
 19 31  1  1  0  0  0
 19 26  1  0  0  0  0
 21 34  1  6  0  0  0
 22 29  2  0  0  0  0
 23 17  1  0  0  0  0
 24  5  1  1  0  0  0
 24  9  1  0  0  0  0
 24 15  1  0  0  0  0
 26 10  1  0  0  0  0
 27 14  1  0  0  0  0
 29 20  1  0  0  0  0
 29 11  1  0  0  0  0
 30 31  2  0  0  0  0
 31 32  1  0  0  0  0
 34 33  2  0  0  0  0
 35 37  1  0  0  0  0
 36 33  1  6  0  0  0
 36 35  1  0  0  0  0
 38 36  1  0  0  0  0
 38 39  1  0  0  0  0
 39 41  1  1  0  0  0
 39 37  1  0  0  0  0
 40 41  1  0  0  0  0
 42 34  1  0  0  0  0
 42 43  1  0  0  0  0
 43 44  1  0  0  0  0
M  END
>  <MODEL>
5

>  <REMARK>
 VINA RESULT:      -4.4      2.276      3.825
  Name = 
  6 active torsions:
  status: ('A' for Active; 'I' for Inactive)
    1  A    between atoms: C_6  and  C_30
    2  A    between atoms: C_17  and  C_24
    3  A    between atoms: O_18  and  C_41
    4  A    between atoms: C_25  and  C_27
    5  A    between atoms: C_28  and  C_30
    6  A    between atoms: C_28  and  C_32
                            x       y       z     vdW  Elec       q    Type
                         _______ _______ _______ _____ _____    ______ ____

>  <TORSDO>
F 6

$$$$
=
 OpenBabel11062415523D

 44 49  0  0  1  0  0  0  0  0999 V2000
  186.1810  174.8560  136.7310 C   0  0  0  0  0  2  0  0  0  0  0  0
  182.1190  180.3490  140.5150 O   0  0  0  0  0  1  0  0  0  0  0  0
  186.9490  177.6000  139.8490 C   0  0  0  0  0  2  0  0  0  0  0  0
  184.4630  177.6710  143.6780 C   0  0  0  0  0  3  0  0  0  0  0  0
  182.2140  176.7270  140.1260 C   0  0  0  0  0  2  0  0  0  0  0  0
  184.6180  176.0990  135.0130 O   0  0  0  0  0  0  0  0  0  0  0  0
  183.2400  178.7800  141.8900 C   0  0  0  0  0  0  0  0  0  0  0  0
  186.3820  174.8250  135.2080 C   0  0  0  0  0  2  0  0  0  0  0  0
  180.9800  178.4560  138.9520 O   0  0  0  0  0  0  0  0  0  0  0  0
  188.1830  178.5860  141.7820 C   0  0  0  0  0  2  0  0  0  0  0  0
  186.9190  178.6770  140.9290 C   0  0  2  0  0  3  0  0  0  0  0  0
  185.8710  175.9880  134.6000 O   0  0  0  0  0  0  0  0  0  0  0  0
  184.6560  176.8250  136.2280 C   0  0  2  0  0  3  0  0  0  0  0  0
  183.2270  177.7690  138.0480 C   0  0  2  0  0  3  0  0  0  0  0  0
  181.9320  179.1450  141.2010 C   0  0  2  0  0  0  0  0  0  0  0  0
  185.6760  176.2200  137.2170 C   0  0  2  0  0  3  0  0  0  0  0  0
  186.5850  178.1900  138.4960 C   0  0  0  0  0  2  0  0  0  0  0  0
  183.2560  178.0890  143.1140 C   0  0  0  0  0  3  0  0  0  0  0  0
  186.9570  177.4810  143.6840 C   0  0  1  0  0  3  0  0  0  0  0  0
  184.4570  179.0050  141.2280 C   0  0  0  0  0  3  0  0  0  0  0  0
  182.0800  178.8270  138.1400 C   0  0  1  0  0  3  0  0  0  0  0  0
  185.6720  177.8970  143.0140 C   0  0  0  0  0  0  0  0  0  0  0  0
  186.8520  177.1680  137.4000 C   0  0  0  0  0  2  0  0  0  0  0  0
  181.4230  178.0290  140.2280 C   0  0  2  0  0  3  0  0  0  0  0  0
  180.8330  179.3890  142.2290 C   0  0  0  0  0  1  0  0  0  0  0  0
  188.1260  177.3700  142.7050 C   0  0  0  0  0  2  0  0  0  0  0  0
  183.2550  176.8550  136.8290 C   0  0  0  0  0  2  0  0  0  0  0  0
  183.4800  176.9680  139.3220 C   0  0  0  0  0  2  0  0  0  0  0  0
  185.6720  178.5620  141.7660 C   0  0  0  0  0  0  0  0  0  0  0  0
  186.3920  178.9040  145.5280 O   0  0  0  0  0  1  0  0  0  0  0  0
  187.3010  178.3830  144.8260 C   0  0  0  0  0  0  0  0  0  0  0  0
  188.6380  178.6540  145.1030 O   0  0  0  0  0  0  0  0  0  0  0  0
  181.0040  180.5480  136.6650 C   0  0  0  0  0  3  0  0  0  0  0  0
  181.5780  179.3350  136.8010 C   0  0  0  0  0  0  0  0  0  0  0  0
  181.9400  182.4940  137.8260 C   0  0  0  0  0  2  0  0  0  0  0  0
  180.7850  181.5210  137.7830 C   0  0  1  0  0  3  0  0  0  0  0  0
  181.4420  183.8040  137.9480 O   0  0  0  0  0  0  0  0  0  0  0  0
  179.6050  182.3800  137.4570 C   0  0  0  0  0  2  0  0  0  0  0  0
  180.1390  183.7930  137.4220 C   0  0  1  0  0  3  0  0  0  0  0  0
  178.9310  185.6660  137.3480 C   0  0  0  0  0  1  0  0  0  0  0  0
  179.3240  184.6260  138.1960 O   0  0  0  0  0  0  0  0  0  0  0  0
  181.5250  178.4040  135.6230 C   0  0  0  0  0  2  0  0  0  0  0  0
  180.0890  177.9750  135.3470 C   0  0  0  0  0  2  0  0  0  0  0  0
  180.0070  176.5870  135.2550 O   0  0  0  0  0  1  0  0  0  0  0  0
  2 15  1  0  0  0  0
  6 13  1  0  0  0  0
  7 18  2  0  0  0  0
  8  1  1  0  0  0  0
  9 24  1  0  0  0  0
 10 26  1  0  0  0  0
 11  3  1  6  0  0  0
 11 29  1  0  0  0  0
 11 10  1  0  0  0  0
 12  6  1  0  0  0  0
 12  8  1  0  0  0  0
 13 27  1  1  0  0  0
 13 16  1  0  0  0  0
 14 27  1  6  0  0  0
 14 21  1  0  0  0  0
 14 28  1  0  0  0  0
 15  7  1  0  0  0  0
 15 25  1  1  0  0  0
 16  1  1  6  0  0  0
 16 23  1  0  0  0  0
 17  3  1  0  0  0  0
 18  4  1  0  0  0  0
 19 31  1  1  0  0  0
 20 29  2  0  0  0  0
 20  7  1  0  0  0  0
 21 34  1  6  0  0  0
 21  9  1  0  0  0  0
 22  4  2  0  0  0  0
 22 19  1  0  0  0  0
 23 17  1  0  0  0  0
 24  5  1  6  0  0  0
 24 15  1  0  0  0  0
 26 19  1  0  0  0  0
 28  5  1  0  0  0  0
 29 22  1  0  0  0  0
 31 32  2  0  0  0  0
 31 30  1  0  0  0  0
 33 34  2  0  0  0  0
 35 37  1  0  0  0  0
 36 33  1  6  0  0  0
 36 35  1  0  0  0  0
 38 36  1  0  0  0  0
 39 38  1  0  0  0  0
 39 37  1  0  0  0  0
 39 41  1  1  0  0  0
 40 41  1  0  0  0  0
 42 34  1  0  0  0  0
 43 42  1  0  0  0  0
 44 43  1  0  0  0  0
M  END
>  <MODEL>
6

>  <REMARK>
 VINA RESULT:      -4.1      3.181      7.483
  Name = 
  6 active torsions:
  status: ('A' for Active; 'I' for Inactive)
    1  A    between atoms: C_6  and  C_30
    2  A    between atoms: C_17  and  C_24
    3  A    between atoms: O_18  and  C_41
    4  A    between atoms: C_25  and  C_27
    5  A    between atoms: C_28  and  C_30
    6  A    between atoms: C_28  and  C_32
                            x       y       z     vdW  Elec       q    Type
                         _______ _______ _______ _____ _____    ______ ____

>  <TORSDO>
F 6

$$$$
=
 OpenBabel11062415523D

 44 49  0  0  1  0  0  0  0  0999 V2000
  184.3110  180.1420  140.2620 C   0  0  0  0  0  2  0  0  0  0  0  0
  190.1090  175.2000  138.5450 O   0  0  0  0  0  1  0  0  0  0  0  0
  186.9770  177.7020  142.4510 C   0  0  0  0  0  2  0  0  0  0  0  0
  191.5080  178.1030  142.0500 C   0  0  0  0  0  3  0  0  0  0  0  0
  189.3430  178.7590  138.3830 C   0  0  0  0  0  2  0  0  0  0  0  0
  183.6650  178.7850  138.0990 O   0  0  0  0  0  0  0  0  0  0  0  0
  190.6270  176.8610  140.1510 C   0  0  0  0  0  0  0  0  0  0  0  0
  182.8770  180.0130  139.7260 C   0  0  0  0  0  2  0  0  0  0  0  0
  189.0720  176.9630  136.7730 O   0  0  0  0  0  0  0  0  0  0  0  0
  188.2000  176.8760  144.4630 C   0  0  0  0  0  2  0  0  0  0  0  0
  188.0520  176.7410  142.9490 C   0  0  2  0  0  3  0  0  0  0  0  0
  182.7060  178.8110  139.0100 O   0  0  0  0  0  0  0  0  0  0  0  0
  184.7900  178.1850  138.7150 C   0  0  2  0  0  3  0  0  0  0  0  0
  187.1550  177.4790  138.3220 C   0  0  2  0  0  3  0  0  0  0  0  0
  190.6720  176.4730  138.6800 C   0  0  2  0  0  0  0  0  0  0  0  0
  185.1170  178.8510  140.0690 C   0  0  2  0  0  3  0  0  0  0  0  0
  186.0220  176.9920  141.5050 C   0  0  0  0  0  2  0  0  0  0  0  0
  191.6210  177.6710  140.7280 C   0  0  0  0  0  3  0  0  0  0  0  0
  190.3260  178.2080  144.2530 C   0  0  1  0  0  3  0  0  0  0  0  0
  189.5000  176.5290  140.9210 C   0  0  0  0  0  3  0  0  0  0  0  0
  187.8840  176.4740  137.3700 C   0  0  1  0  0  3  0  0  0  0  0  0
  190.3830  177.7700  142.8110 C   0  0  0  0  0  0  0  0  0  0  0  0
  184.8280  177.8880  141.2100 C   0  0  0  0  0  2  0  0  0  0  0  0
  189.9390  177.5010  137.7550 C   0  0  2  0  0  3  0  0  0  0  0  0
  192.1140  176.3710  138.1950 C   0  0  0  0  0  1  0  0  0  0  0  0
  188.9090  178.1800  144.8240 C   0  0  0  0  0  2  0  0  0  0  0  0
  185.9770  178.2630  137.7590 C   0  0  0  0  0  2  0  0  0  0  0  0
  188.0700  178.3950  139.1280 C   0  0  0  0  0  2  0  0  0  0  0  0
  189.3580  176.9830  142.2370 C   0  0  0  0  0  0  0  0  0  0  0  0
  191.6800  177.8790  146.2030 O   0  0  0  0  0  1  0  0  0  0  0  0
  191.2630  177.4150  145.1070 C   0  0  0  0  0  0  0  0  0  0  0  0
  191.6810  176.1590  144.6770 O   0  0  0  0  0  0  0  0  0  0  0  0
  187.1650  174.5800  135.8920 C   0  0  0  0  0  3  0  0  0  0  0  0
  186.9970  175.8510  136.3090 C   0  0  0  0  0  0  0  0  0  0  0  0
  187.7170  172.2250  136.2950 C   0  0  0  0  0  2  0  0  0  0  0  0
  188.2210  173.6460  136.3990 C   0  0  1  0  0  3  0  0  0  0  0  0
  188.7160  171.4170  135.7220 O   0  0  0  0  0  0  0  0  0  0  0  0
  189.3900  173.6800  135.4660 C   0  0  0  0  0  2  0  0  0  0  0  0
  189.5360  172.2640  134.9580 C   0  0  1  0  0  3  0  0  0  0  0  0
  191.6090  173.0210  135.2760 C   0  0  0  0  0  1  0  0  0  0  0  0
  190.8670  171.8520  135.0830 O   0  0  0  0  0  0  0  0  0  0  0  0
  186.0300  176.7120  135.5450 C   0  0  0  0  0  2  0  0  0  0  0  0
  184.8210  175.8950  135.1060 C   0  0  0  0  0  2  0  0  0  0  0  0
  183.8540  175.8840  136.1110 O   0  0  0  0  0  1  0  0  0  0  0  0
  2 15  1  0  0  0  0
  4 22  1  0  0  0  0
  5 28  1  0  0  0  0
  6 13  1  0  0  0  0
  6 12  1  0  0  0  0
  7 18  1  0  0  0  0
  7 20  2  0  0  0  0
  8  1  1  0  0  0  0
  9 21  1  0  0  0  0
  9 24  1  0  0  0  0
 10 26  1  0  0  0  0
 11  3  1  6  0  0  0
 11 10  1  0  0  0  0
 12  8  1  0  0  0  0
 13 27  1  6  0  0  0
 13 16  1  0  0  0  0
 14 27  1  6  0  0  0
 14 28  1  0  0  0  0
 15 25  1  6  0  0  0
 15  7  1  0  0  0  0
 16  1  1  1  0  0  0
 16 23  1  0  0  0  0
 17  3  1  0  0  0  0
 18  4  2  0  0  0  0
 19 26  1  0  0  0  0
 19 31  1  1  0  0  0
 20 29  1  0  0  0  0
 21 34  1  6  0  0  0
 21 14  1  0  0  0  0
 22 19  1  0  0  0  0
 23 17  1  0  0  0  0
 24  5  1  1  0  0  0
 24 15  1  0  0  0  0
 29 22  2  0  0  0  0
 29 11  1  0  0  0  0
 31 30  1  0  0  0  0
 32 31  2  0  0  0  0
 33 34  2  0  0  0  0
 35 36  1  0  0  0  0
 36 33  1  6  0  0  0
 37 35  1  0  0  0  0
 38 36  1  0  0  0  0
 39 41  1  1  0  0  0
 39 38  1  0  0  0  0
 39 37  1  0  0  0  0
 41 40  1  0  0  0  0
 42 34  1  0  0  0  0
 43 42  1  0  0  0  0
 43 44  1  0  0  0  0
M  END
>  <MODEL>
7

>  <REMARK>
 VINA RESULT:      -3.9      2.949      9.201
  Name = 
  6 active torsions:
  status: ('A' for Active; 'I' for Inactive)
    1  A    between atoms: C_6  and  C_30
    2  A    between atoms: C_17  and  C_24
    3  A    between atoms: O_18  and  C_41
    4  A    between atoms: C_25  and  C_27
    5  A    between atoms: C_28  and  C_30
    6  A    between atoms: C_28  and  C_32
                            x       y       z     vdW  Elec       q    Type
                         _______ _______ _______ _____ _____    ______ ____

>  <TORSDO>
F 6

$$$$
