=
 OpenBabel11062416463D

 28 31  0  0  1  0  0  0  0  0999 V2000
  185.1130  177.1810  136.4200 C   0  0  0  0  0  3  0  0  0  0  0  0
  185.1780  177.5000  137.7750 C   0  0  0  0  0  3  0  0  0  0  0  0
  184.0280  178.1550  140.5470 C   0  0  0  0  0  1  0  0  0  0  0  0
  188.6870  177.2980  140.4520 C   0  0  1  0  0  3  0  0  0  0  0  0
  186.4060  178.2890  139.7930 C   0  0  0  0  0  0  0  0  0  0  0  0
  186.2510  177.3380  135.6310 C   0  0  0  0  0  3  0  0  0  0  0  0
  185.3060  179.0030  140.5250 C   0  0  2  0  0  3  0  0  0  0  0  0
  187.4840  178.1440  137.4990 C   0  0  0  0  0  0  0  0  0  0  0  0
  185.8710  179.3140  141.8650 N   0  0  0  0  0  0  0  0  0  0  0  0
  189.0310  178.7840  138.1220 S   0  0  0  0  0  0  0  0  0  0  0  0
  187.4010  178.0810  140.6490 C   0  0  0  0  0  0  0  0  0  0  0  0
  187.4000  177.8120  136.1820 N   0  0  0  0  0  0  0  0  0  0  0  0
  189.2720  177.2370  139.0330 C   0  0  0  0  0  2  0  0  0  0  0  0
  187.0710  178.6370  141.8680 O   0  0  0  0  0  0  0  0  0  0  0  0
  186.3690  177.9690  138.3430 C   0  0  0  0  0  0  0  0  0  0  0  0
  191.1670  177.5030  141.0120 C   0  0  0  0  0  1  0  0  0  0  0  0
  189.7370  177.6490  141.5160 C   0  0  2  0  0  3  0  0  0  0  0  0
  189.9230  177.3750  143.8740 O   0  0  0  0  0  1  0  0  0  0  0  0
  188.8740  175.6610  142.7740 O   0  0  0  0  0  0  0  0  0  0  0  0
  189.5270  176.8880  142.7840 C   0  0  0  0  0  0  0  0  0  0  0  0
  185.0900  178.8090  142.9950 C   0  0  0  0  0  2  0  0  0  0  0  0
  187.0310  177.0510  145.8800 C   0  0  0  0  0  2  0  0  0  0  0  0
  185.6690  179.0030  146.6550 C   0  0  0  0  0  3  0  0  0  0  0  0
  185.9560  178.7330  144.2400 C   0  0  1  0  0  3  0  0  0  0  0  0
  186.9750  178.2770  146.8040 C   0  0  1  0  0  3  0  0  0  0  0  0
  185.1830  179.2220  145.4290 C   0  0  0  0  0  3  0  0  0  0  0  0
  186.4440  177.2940  144.4730 C   0  0  0  0  0  2  0  0  0  0  0  0
  187.1530  177.8870  148.1170 F   0  0  0  0  0  0  0  0  0  0  0  0
  1  2  1  0  0  0  0
  2 15  2  0  0  0  0
  4 11  1  0  0  0  0
  4 17  1  1  0  0  0
  5  7  1  0  0  0  0
  5 11  2  0  0  0  0
  6 12  1  0  0  0  0
  6  1  2  0  0  0  0
  7  3  1  1  0  0  0
  7  9  1  0  0  0  0
  8 10  1  0  0  0  0
  8 15  1  0  0  0  0
  9 14  1  0  0  0  0
  9 21  1  0  0  0  0
 10 13  1  0  0  0  0
 11 14  1  0  0  0  0
 12  8  2  0  0  0  0
 13  4  1  0  0  0  0
 15  5  1  0  0  0  0
 17 16  1  6  0  0  0
 17 20  1  0  0  0  0
 19 20  2  0  0  0  0
 20 18  1  0  0  0  0
 22 25  1  0  0  0  0
 23 25  1  0  0  0  0
 24 21  1  6  0  0  0
 24 27  1  0  0  0  0
 24 26  1  0  0  0  0
 25 28  1  1  0  0  0
 26 23  2  0  0  0  0
 27 22  1  0  0  0  0
M  END
>  <MODEL>
1

>  <REMARK>
 VINA RESULT:      -7.7      0.000      0.000
  Name = 
  4 active torsions:
  status: ('A' for Active; 'I' for Inactive)
    1  A    between atoms: C_6  and  C_11
    2  A    between atoms: C_7  and  C_8
    3  A    between atoms: C_7  and  N_20
    4  A    between atoms: C_11  and  C_18
                            x       y       z     vdW  Elec       q    Type
                         _______ _______ _______ _____ _____    ______ ____

>  <TORSDO>
F 4

$$$$
=
 OpenBabel11062416463D

 28 31  0  0  1  0  0  0  0  0999 V2000
  190.6740  177.4820  147.2250 C   0  0  0  0  0  3  0  0  0  0  0  0
  189.5700  177.7140  146.4060 C   0  0  0  0  0  3  0  0  0  0  0  0
  186.7190  178.6590  145.7660 C   0  0  0  0  0  1  0  0  0  0  0  0
  189.3920  177.6240  141.9930 C   0  0  1  0  0  3  0  0  0  0  0  0
  188.2830  177.3750  144.3010 C   0  0  0  0  0  0  0  0  0  0  0  0
  191.6780  176.6230  146.7830 C   0  0  0  0  0  3  0  0  0  0  0  0
  186.8770  177.4620  144.8190 C   0  0  2  0  0  3  0  0  0  0  0  0
  190.4920  176.2110  144.7630 C   0  0  0  0  0  0  0  0  0  0  0  0
  186.0190  177.5090  143.6050 N   0  0  0  0  0  0  0  0  0  0  0  0
  190.4240  175.3390  143.2050 S   0  0  0  0  0  0  0  0  0  0  0  0
  188.2430  177.5130  142.9800 C   0  0  0  0  0  0  0  0  0  0  0  0
  191.5660  176.0120  145.5740 N   0  0  0  0  0  0  0  0  0  0  0  0
  190.7050  176.9100  142.3460 C   0  0  0  0  0  2  0  0  0  0  0  0
  186.9290  177.6390  142.5790 O   0  0  0  0  0  0  0  0  0  0  0  0
  189.4680  177.0970  145.1530 C   0  0  0  0  0  0  0  0  0  0  0  0
  190.0160  176.7080  139.6960 C   0  0  0  0  0  1  0  0  0  0  0  0
  188.9330  177.3510  140.5530 C   0  0  2  0  0  3  0  0  0  0  0  0
  189.1090  179.2610  139.1410 O   0  0  0  0  0  0  0  0  0  0  0  0
  187.0520  178.9430  140.0980 O   0  0  0  0  0  1  0  0  0  0  0  0
  188.3780  178.5730  139.9000 C   0  0  0  0  0  0  0  0  0  0  0  0
  185.1200  178.6620  143.5310 C   0  0  0  0  0  2  0  0  0  0  0  0
  182.4890  178.5200  140.6610 C   0  0  0  0  0  2  0  0  0  0  0  0
  181.4790  178.9970  142.9010 C   0  0  0  0  0  3  0  0  0  0  0  0
  183.8140  178.2670  142.8630 C   0  0  1  0  0  3  0  0  0  0  0  0
  181.3140  178.2450  141.6120 C   0  0  1  0  0  3  0  0  0  0  0  0
  182.6740  179.0060  143.5000 C   0  0  0  0  0  3  0  0  0  0  0  0
  183.8670  178.5600  141.3560 C   0  0  0  0  0  2  0  0  0  0  0  0
  180.1240  178.6000  141.0060 F   0  0  0  0  0  0  0  0  0  0  0  0
  2  1  2  0  0  0  0
  4 17  1  6  0  0  0
  4 13  1  0  0  0  0
  4 11  1  0  0  0  0
  5  7  1  0  0  0  0
  5 15  1  0  0  0  0
  6  1  1  0  0  0  0
  7  3  1  6  0  0  0
  8 15  2  0  0  0  0
  8 12  1  0  0  0  0
  9  7  1  0  0  0  0
 10  8  1  0  0  0  0
 11  5  2  0  0  0  0
 12  6  2  0  0  0  0
 13 10  1  0  0  0  0
 14 11  1  0  0  0  0
 14  9  1  0  0  0  0
 15  2  1  0  0  0  0
 17 16  1  6  0  0  0
 18 20  2  0  0  0  0
 20 19  1  0  0  0  0
 20 17  1  0  0  0  0
 21  9  1  0  0  0  0
 22 27  1  0  0  0  0
 22 25  1  0  0  0  0
 23 26  2  0  0  0  0
 24 26  1  0  0  0  0
 24 21  1  1  0  0  0
 25 28  1  6  0  0  0
 25 23  1  0  0  0  0
 27 24  1  0  0  0  0
M  END
>  <MODEL>
2

>  <REMARK>
 VINA RESULT:      -7.7      3.411      6.329
  Name = 
  4 active torsions:
  status: ('A' for Active; 'I' for Inactive)
    1  A    between atoms: C_6  and  C_11
    2  A    between atoms: C_7  and  C_8
    3  A    between atoms: C_7  and  N_20
    4  A    between atoms: C_11  and  C_18
                            x       y       z     vdW  Elec       q    Type
                         _______ _______ _______ _____ _____    ______ ____

>  <TORSDO>
F 4

$$$$
=
 OpenBabel11062416463D

 28 31  0  0  1  0  0  0  0  0999 V2000
  193.9400  176.1650  137.4490 C   0  0  0  0  0  3  0  0  0  0  0  0
  192.9360  176.5260  138.3460 C   0  0  0  0  0  3  0  0  0  0  0  0
  191.8140  177.5430  141.0180 C   0  0  0  0  0  1  0  0  0  0  0  0
  188.6510  177.2000  137.5070 C   0  0  1  0  0  3  0  0  0  0  0  0
  190.5620  176.5450  139.1000 C   0  0  0  0  0  0  0  0  0  0  0  0
  193.6070  175.4050  136.3300 C   0  0  0  0  0  3  0  0  0  0  0  0
  190.7450  176.5290  140.5900 C   0  0  2  0  0  3  0  0  0  0  0  0
  191.3260  175.3380  137.0020 C   0  0  0  0  0  0  0  0  0  0  0  0
  189.3900  176.7780  141.1500 N   0  0  0  0  0  0  0  0  0  0  0  0
  189.6730  174.7490  136.6690 S   0  0  0  0  0  0  0  0  0  0  0  0
  189.3110  176.9100  138.8440 C   0  0  0  0  0  0  0  0  0  0  0  0
  192.3220  175.0110  136.1330 N   0  0  0  0  0  0  0  0  0  0  0  0
  189.1770  176.4460  136.2770 C   0  0  0  0  0  2  0  0  0  0  0  0
  188.6400  177.0920  140.0370 O   0  0  0  0  0  0  0  0  0  0  0  0
  191.6090  176.1350  138.1300 C   0  0  0  0  0  0  0  0  0  0  0  0
  186.4620  176.3370  136.5230 C   0  0  0  0  0  1  0  0  0  0  0  0
  187.1190  177.1760  137.6110 C   0  0  2  0  0  3  0  0  0  0  0  0
  187.0540  179.4700  136.9730 O   0  0  0  0  0  0  0  0  0  0  0  0
  185.4180  178.8210  138.4380 O   0  0  0  0  0  1  0  0  0  0  0  0
  186.5390  178.5520  137.6610 C   0  0  0  0  0  0  0  0  0  0  0  0
  189.3010  177.9190  142.0630 C   0  0  0  0  0  2  0  0  0  0  0  0
  187.1380  177.5840  145.2860 C   0  0  0  0  0  2  0  0  0  0  0  0
  189.5510  178.0510  145.7630 C   0  0  0  0  0  3  0  0  0  0  0  0
  188.9650  177.4440  143.4650 C   0  0  1  0  0  3  0  0  0  0  0  0
  188.3420  177.2670  146.1850 C   0  0  1  0  0  3  0  0  0  0  0  0
  189.8490  178.1340  144.4620 C   0  0  0  0  0  3  0  0  0  0  0  0
  187.4860  177.7100  143.7870 C   0  0  0  0  0  2  0  0  0  0  0  0
  188.0340  177.5460  147.5030 F   0  0  0  0  0  0  0  0  0  0  0  0
  1  2  1  0  0  0  0
  4 17  1  1  0  0  0
  4 11  1  0  0  0  0
  5  7  1  0  0  0  0
  6  1  2  0  0  0  0
  7  3  1  6  0  0  0
  7  9  1  0  0  0  0
  8 15  1  0  0  0  0
  9 21  1  0  0  0  0
 10  8  1  0  0  0  0
 11  5  2  0  0  0  0
 11 14  1  0  0  0  0
 12  6  1  0  0  0  0
 12  8  2  0  0  0  0
 13 10  1  0  0  0  0
 13  4  1  0  0  0  0
 14  9  1  0  0  0  0
 15  2  2  0  0  0  0
 15  5  1  0  0  0  0
 17 16  1  6  0  0  0
 17 20  1  0  0  0  0
 18 20  2  0  0  0  0
 20 19  1  0  0  0  0
 22 25  1  0  0  0  0
 23 25  1  0  0  0  0
 24 21  1  6  0  0  0
 24 27  1  0  0  0  0
 24 26  1  0  0  0  0
 25 28  1  1  0  0  0
 26 23  2  0  0  0  0
 27 22  1  0  0  0  0
M  END
>  <MODEL>
3

>  <REMARK>
 VINA RESULT:      -7.6      2.904      5.203
  Name = 
  4 active torsions:
  status: ('A' for Active; 'I' for Inactive)
    1  A    between atoms: C_6  and  C_11
    2  A    between atoms: C_7  and  C_8
    3  A    between atoms: C_7  and  N_20
    4  A    between atoms: C_11  and  C_18
                            x       y       z     vdW  Elec       q    Type
                         _______ _______ _______ _____ _____    ______ ____

>  <TORSDO>
F 4

$$$$
=
 OpenBabel11062416463D

 28 31  0  0  1  0  0  0  0  0999 V2000
  190.4340  177.2490  147.8220 C   0  0  0  0  0  3  0  0  0  0  0  0
  189.4820  177.5180  146.8400 C   0  0  0  0  0  3  0  0  0  0  0  0
  186.7060  178.2960  145.7810 C   0  0  0  0  0  1  0  0  0  0  0  0
  190.1410  178.1710  142.5200 C   0  0  1  0  0  3  0  0  0  0  0  0
  188.6610  177.4290  144.4900 C   0  0  0  0  0  0  0  0  0  0  0  0
  191.6010  176.5740  147.4690 C   0  0  0  0  0  3  0  0  0  0  0  0
  187.1830  177.2980  144.7180 C   0  0  2  0  0  3  0  0  0  0  0  0
  190.8710  176.4080  145.2110 C   0  0  0  0  0  0  0  0  0  0  0  0
  186.5670  177.4750  143.3760 N   0  0  0  0  0  0  0  0  0  0  0  0
  191.2020  175.8150  143.5590 S   0  0  0  0  0  0  0  0  0  0  0  0
  188.8510  177.7890  143.2250 C   0  0  0  0  0  0  0  0  0  0  0  0
  191.7920  176.1710  146.1850 N   0  0  0  0  0  0  0  0  0  0  0  0
  191.4420  177.5280  143.0210 C   0  0  0  0  0  2  0  0  0  0  0  0
  187.6290  177.8620  142.5870 O   0  0  0  0  0  0  0  0  0  0  0  0
  189.6910  177.1180  145.5130 C   0  0  0  0  0  0  0  0  0  0  0  0
  188.5680  177.8320  140.5410 C   0  0  0  0  0  1  0  0  0  0  0  0
  189.9950  178.1080  140.9920 C   0  0  2  0  0  3  0  0  0  0  0  0
  190.5560  176.0060  140.0240 O   0  0  0  0  0  0  0  0  0  0  0  0
  192.2820  177.5050  140.1620 O   0  0  0  0  0  1  0  0  0  0  0  0
  190.9560  177.1450  140.3760 C   0  0  0  0  0  0  0  0  0  0  0  0
  185.5630  178.5380  143.2950 C   0  0  0  0  0  2  0  0  0  0  0  0
  183.8450  179.0440  139.8340 C   0  0  0  0  0  2  0  0  0  0  0  0
  182.2160  178.6780  141.6990 C   0  0  0  0  0  3  0  0  0  0  0  0
  184.5760  178.2430  142.1790 C   0  0  1  0  0  3  0  0  0  0  0  0
  182.5390  178.3610  140.2680 C   0  0  1  0  0  3  0  0  0  0  0  0
  183.1900  178.6200  142.6130 C   0  0  0  0  0  3  0  0  0  0  0  0
  184.9620  179.0030  140.9000 C   0  0  0  0  0  2  0  0  0  0  0  0
  181.5010  178.7650  139.4480 F   0  0  0  0  0  0  0  0  0  0  0  0
  2  1  2  0  0  0  0
  4 17  1  6  0  0  0
  4 13  1  0  0  0  0
  4 11  1  0  0  0  0
  5  7  1  0  0  0  0
  5 15  1  0  0  0  0
  6  1  1  0  0  0  0
  7  3  1  1  0  0  0
  8 15  2  0  0  0  0
  8 12  1  0  0  0  0
  9  7  1  0  0  0  0
 10  8  1  0  0  0  0
 11  5  2  0  0  0  0
 12  6  2  0  0  0  0
 13 10  1  0  0  0  0
 14 11  1  0  0  0  0
 14  9  1  0  0  0  0
 15  2  1  0  0  0  0
 17 16  1  1  0  0  0
 18 20  2  0  0  0  0
 19 20  1  0  0  0  0
 20 17  1  0  0  0  0
 21  9  1  0  0  0  0
 22 25  1  0  0  0  0
 22 27  1  0  0  0  0
 23 26  2  0  0  0  0
 24 26  1  0  0  0  0
 24 21  1  1  0  0  0
 25 28  1  6  0  0  0
 25 23  1  0  0  0  0
 27 24  1  0  0  0  0
M  END
>  <MODEL>
4

>  <REMARK>
 VINA RESULT:      -7.5      3.485      6.575
  Name = 
  4 active torsions:
  status: ('A' for Active; 'I' for Inactive)
    1  A    between atoms: C_6  and  C_11
    2  A    between atoms: C_7  and  C_8
    3  A    between atoms: C_7  and  N_20
    4  A    between atoms: C_11  and  C_18
                            x       y       z     vdW  Elec       q    Type
                         _______ _______ _______ _____ _____    ______ ____

>  <TORSDO>
F 4

$$$$
=
 OpenBabel11062416463D

 28 31  0  0  1  0  0  0  0  0999 V2000
  186.7420  177.4980  146.7290 C   0  0  0  0  0  3  0  0  0  0  0  0
  187.0460  177.5110  145.3680 C   0  0  0  0  0  3  0  0  0  0  0  0
  188.8090  177.0440  142.8970 C   0  0  0  0  0  1  0  0  0  0  0  0
  184.2840  178.1010  141.9710 C   0  0  1  0  0  3  0  0  0  0  0  0
  186.6250  178.2500  143.0280 C   0  0  0  0  0  0  0  0  0  0  0  0
  185.6660  178.2530  147.1900 C   0  0  0  0  0  3  0  0  0  0  0  0
  188.0280  178.3030  142.4970 C   0  0  2  0  0  3  0  0  0  0  0  0
  185.2220  179.0410  144.9900 C   0  0  0  0  0  0  0  0  0  0  0  0
  187.8810  178.5070  141.0310 N   0  0  0  0  0  0  0  0  0  0  0  0
  184.2220  180.0760  143.9330 S   0  0  0  0  0  0  0  0  0  0  0  0
  185.7930  178.2620  141.9910 C   0  0  0  0  0  0  0  0  0  0  0  0
  184.9370  179.0010  146.3210 N   0  0  0  0  0  0  0  0  0  0  0  0
  183.5010  178.5840  143.2010 C   0  0  0  0  0  2  0  0  0  0  0  0
  186.5260  178.3640  140.8260 O   0  0  0  0  0  0  0  0  0  0  0  0
  186.2810  178.2680  144.4720 C   0  0  0  0  0  0  0  0  0  0  0  0
  182.3080  179.2350  140.8230 C   0  0  0  0  0  1  0  0  0  0  0  0
  183.6760  178.5890  140.6480 C   0  0  2  0  0  3  0  0  0  0  0  0
  182.9700  176.4660  139.8310 O   0  0  0  0  0  1  0  0  0  0  0  0
  184.3120  177.6600  138.4090 O   0  0  0  0  0  0  0  0  0  0  0  0
  183.6390  177.5100  139.6160 C   0  0  0  0  0  0  0  0  0  0  0  0
  188.5500  177.5040  140.2010 C   0  0  0  0  0  2  0  0  0  0  0  0
  188.1150  176.4340  136.4790 C   0  0  0  0  0  2  0  0  0  0  0  0
  189.0320  178.7490  136.7380 C   0  0  0  0  0  3  0  0  0  0  0  0
  188.1420  177.6710  138.7470 C   0  0  1  0  0  3  0  0  0  0  0  0
  188.0880  177.8800  135.9590 C   0  0  1  0  0  3  0  0  0  0  0  0
  189.0570  178.6500  138.0710 C   0  0  0  0  0  3  0  0  0  0  0  0
  188.1730  176.3180  138.0180 C   0  0  0  0  0  2  0  0  0  0  0  0
  188.4190  177.9050  134.6180 F   0  0  0  0  0  0  0  0  0  0  0  0
  1  6  1  0  0  0  0
  2  1  2  0  0  0  0
  4 17  1  6  0  0  0
  4 11  1  0  0  0  0
  4 13  1  0  0  0  0
  5 15  1  0  0  0  0
  7  3  1  6  0  0  0
  7  5  1  0  0  0  0
  8 12  1  0  0  0  0
  9  7  1  0  0  0  0
 10  8  1  0  0  0  0
 11  5  2  0  0  0  0
 12  6  2  0  0  0  0
 13 10  1  0  0  0  0
 14  9  1  0  0  0  0
 14 11  1  0  0  0  0
 15  8  2  0  0  0  0
 15  2  1  0  0  0  0
 17 16  1  1  0  0  0
 19 20  2  0  0  0  0
 20 18  1  0  0  0  0
 20 17  1  0  0  0  0
 21  9  1  0  0  0  0
 22 27  1  0  0  0  0
 23 26  2  0  0  0  0
 24 21  1  1  0  0  0
 25 28  1  6  0  0  0
 25 22  1  0  0  0  0
 25 23  1  0  0  0  0
 26 24  1  0  0  0  0
 27 24  1  0  0  0  0
M  END
>  <MODEL>
5

>  <REMARK>
 VINA RESULT:      -7.4      3.607      7.702
  Name = 
  4 active torsions:
  status: ('A' for Active; 'I' for Inactive)
    1  A    between atoms: C_6  and  C_11
    2  A    between atoms: C_7  and  C_8
    3  A    between atoms: C_7  and  N_20
    4  A    between atoms: C_11  and  C_18
                            x       y       z     vdW  Elec       q    Type
                         _______ _______ _______ _____ _____    ______ ____

>  <TORSDO>
F 4

$$$$
=
 OpenBabel11062416463D

 28 31  0  0  1  0  0  0  0  0999 V2000
  184.7400  178.9550  145.6720 C   0  0  0  0  0  3  0  0  0  0  0  0
  185.6480  178.7420  144.6360 C   0  0  0  0  0  3  0  0  0  0  0  0
  186.5450  178.5620  141.7040 C   0  0  0  0  0  1  0  0  0  0  0  0
  190.0490  178.4530  144.8920 C   0  0  1  0  0  3  0  0  0  0  0  0
  187.8130  177.8900  143.7490 C   0  0  0  0  0  0  0  0  0  0  0  0
  185.0570  178.5070  146.9530 C   0  0  0  0  0  3  0  0  0  0  0  0
  187.4020  177.4750  142.3660 C   0  0  2  0  0  3  0  0  0  0  0  0
  187.1270  177.6270  146.1790 C   0  0  0  0  0  0  0  0  0  0  0  0
  188.6740  177.1670  141.6600 N   0  0  0  0  0  0  0  0  0  0  0  0
  188.6280  176.7420  146.5670 S   0  0  0  0  0  0  0  0  0  0  0  0
  189.1400  177.9630  143.7780 C   0  0  0  0  0  0  0  0  0  0  0  0
  186.2300  177.8590  147.1770 N   0  0  0  0  0  0  0  0  0  0  0  0
  189.5600  178.2780  146.3370 C   0  0  0  0  0  2  0  0  0  0  0  0
  189.6400  177.5880  142.5480 O   0  0  0  0  0  0  0  0  0  0  0  0
  186.8650  178.0910  144.8740 C   0  0  0  0  0  0  0  0  0  0  0  0
  192.0330  178.2850  143.2980 C   0  0  0  0  0  1  0  0  0  0  0  0
  191.4980  177.9860  144.6920 C   0  0  2  0  0  3  0  0  0  0  0  0
  191.4980  175.6630  144.1680 O   0  0  0  0  0  0  0  0  0  0  0  0
  192.0680  176.1740  146.3270 O   0  0  0  0  0  1  0  0  0  0  0  0
  191.6770  176.5460  145.0450 C   0  0  0  0  0  0  0  0  0  0  0  0
  188.8830  177.9110  140.4160 C   0  0  0  0  0  2  0  0  0  0  0  0
  191.9720  176.5820  138.4490 C   0  0  0  0  0  2  0  0  0  0  0  0
  189.9900  177.0230  136.9870 C   0  0  0  0  0  3  0  0  0  0  0  0
  189.6190  177.0480  139.4060 C   0  0  1  0  0  3  0  0  0  0  0  0
  191.1340  176.0900  137.2600 C   0  0  1  0  0  3  0  0  0  0  0  0
  189.2650  177.4800  138.0130 C   0  0  0  0  0  3  0  0  0  0  0  0
  191.1380  177.1360  139.6240 C   0  0  0  0  0  2  0  0  0  0  0  0
  191.9300  175.9760  136.1360 F   0  0  0  0  0  0  0  0  0  0  0  0
  1  6  1  0  0  0  0
  2 15  1  0  0  0  0
  2  1  2  0  0  0  0
  4 17  1  1  0  0  0
  4 13  1  0  0  0  0
  5 11  2  0  0  0  0
  5 15  1  0  0  0  0
  6 12  2  0  0  0  0
  7  3  1  6  0  0  0
  7  5  1  0  0  0  0
  8 10  1  0  0  0  0
  8 12  1  0  0  0  0
  9  7  1  0  0  0  0
  9 14  1  0  0  0  0
 11  4  1  0  0  0  0
 13 10  1  0  0  0  0
 14 11  1  0  0  0  0
 15  8  2  0  0  0  0
 17 16  1  6  0  0  0
 17 20  1  0  0  0  0
 18 20  2  0  0  0  0
 20 19  1  0  0  0  0
 21  9  1  0  0  0  0
 22 27  1  0  0  0  0
 23 25  1  0  0  0  0
 23 26  2  0  0  0  0
 24 27  1  0  0  0  0
 24 21  1  1  0  0  0
 25 28  1  6  0  0  0
 25 22  1  0  0  0  0
 26 24  1  0  0  0  0
M  END
>  <MODEL>
6

>  <REMARK>
 VINA RESULT:      -7.2      3.775      7.199
  Name = 
  4 active torsions:
  status: ('A' for Active; 'I' for Inactive)
    1  A    between atoms: C_6  and  C_11
    2  A    between atoms: C_7  and  C_8
    3  A    between atoms: C_7  and  N_20
    4  A    between atoms: C_11  and  C_18
                            x       y       z     vdW  Elec       q    Type
                         _______ _______ _______ _____ _____    ______ ____

>  <TORSDO>
F 4

$$$$
=
 OpenBabel11062416463D

 28 31  0  0  1  0  0  0  0  0999 V2000
  185.6470  178.0180  137.2280 C   0  0  0  0  0  3  0  0  0  0  0  0
  185.4410  178.2440  138.5880 C   0  0  0  0  0  3  0  0  0  0  0  0
  186.2910  178.8350  141.4800 C   0  0  0  0  0  1  0  0  0  0  0  0
  181.6320  179.0920  140.6590 C   0  0  1  0  0  3  0  0  0  0  0  0
  184.0330  178.1700  140.6420 C   0  0  0  0  0  0  0  0  0  0  0  0
  184.6230  177.4490  136.4730 C   0  0  0  0  0  3  0  0  0  0  0  0
  185.0810  177.9150  141.6870 C   0  0  2  0  0  3  0  0  0  0  0  0
  183.2290  177.3030  138.3950 C   0  0  0  0  0  0  0  0  0  0  0  0
  184.3810  178.0880  142.9870 N   0  0  0  0  0  0  0  0  0  0  0  0
  181.6640  176.7940  139.0870 S   0  0  0  0  0  0  0  0  0  0  0  0
  182.9320  178.5860  141.2580 C   0  0  0  0  0  0  0  0  0  0  0  0
  183.4500  177.1070  137.0660 N   0  0  0  0  0  0  0  0  0  0  0  0
  181.2170  178.5380  139.2880 C   0  0  0  0  0  2  0  0  0  0  0  0
  183.1480  178.5830  142.6210 O   0  0  0  0  0  0  0  0  0  0  0  0
  184.2230  177.9070  139.1930 C   0  0  0  0  0  0  0  0  0  0  0  0
  179.3470  178.1430  141.2800 C   0  0  0  0  0  1  0  0  0  0  0  0
  180.4860  179.0700  141.6820 C   0  0  2  0  0  3  0  0  0  0  0  0
  180.0550  180.8780  143.1720 O   0  0  0  0  0  1  0  0  0  0  0  0
  179.4710  181.2540  140.9890 O   0  0  0  0  0  0  0  0  0  0  0  0
  179.9860  180.4420  141.9930 C   0  0  0  0  0  0  0  0  0  0  0  0
  184.9880  179.0700  143.8870 C   0  0  0  0  0  2  0  0  0  0  0  0
  186.6120  178.8140  147.4200 C   0  0  0  0  0  2  0  0  0  0  0  0
  187.8380  177.5030  145.6750 C   0  0  0  0  0  3  0  0  0  0  0  0
  185.6300  178.3700  145.0730 C   0  0  1  0  0  3  0  0  0  0  0  0
  187.3560  177.5090  147.0970 C   0  0  1  0  0  3  0  0  0  0  0  0
  187.0110  177.9130  144.7070 C   0  0  0  0  0  3  0  0  0  0  0  0
  185.6790  179.3050  146.2910 C   0  0  0  0  0  2  0  0  0  0  0  0
  188.4240  177.3490  147.9590 F   0  0  0  0  0  0  0  0  0  0  0  0
  1  2  1  0  0  0  0
  2 15  2  0  0  0  0
  4 11  1  0  0  0  0
  4 17  1  1  0  0  0
  5 11  2  0  0  0  0
  5  7  1  0  0  0  0
  6 12  1  0  0  0  0
  6  1  2  0  0  0  0
  7  3  1  6  0  0  0
  7  9  1  0  0  0  0
  8 10  1  0  0  0  0
  8 15  1  0  0  0  0
  9 21  1  0  0  0  0
 10 13  1  0  0  0  0
 11 14  1  0  0  0  0
 12  8  2  0  0  0  0
 13  4  1  0  0  0  0
 14  9  1  0  0  0  0
 15  5  1  0  0  0  0
 17 16  1  6  0  0  0
 17 20  1  0  0  0  0
 19 20  2  0  0  0  0
 20 18  1  0  0  0  0
 23 25  1  0  0  0  0
 24 21  1  6  0  0  0
 24 27  1  0  0  0  0
 25 22  1  0  0  0  0
 25 28  1  1  0  0  0
 26 24  1  0  0  0  0
 26 23  2  0  0  0  0
 27 22  1  0  0  0  0
M  END
>  <MODEL>
7

>  <REMARK>
 VINA RESULT:      -7.1      3.366      5.608
  Name = 
  4 active torsions:
  status: ('A' for Active; 'I' for Inactive)
    1  A    between atoms: C_6  and  C_11
    2  A    between atoms: C_7  and  C_8
    3  A    between atoms: C_7  and  N_20
    4  A    between atoms: C_11  and  C_18
                            x       y       z     vdW  Elec       q    Type
                         _______ _______ _______ _____ _____    ______ ____

>  <TORSDO>
F 4

$$$$
=
 OpenBabel11062416463D

 28 31  0  0  1  0  0  0  0  0999 V2000
  187.0080  178.6870  146.9150 C   0  0  0  0  0  3  0  0  0  0  0  0
  186.3960  178.7230  145.6640 C   0  0  0  0  0  3  0  0  0  0  0  0
  184.1420  179.3600  143.6760 C   0  0  0  0  0  1  0  0  0  0  0  0
  188.2410  178.0230  141.7110 C   0  0  1  0  0  3  0  0  0  0  0  0
  186.2070  178.0080  143.2860 C   0  0  0  0  0  0  0  0  0  0  0  0
  188.1070  177.8520  147.1080 C   0  0  0  0  0  3  0  0  0  0  0  0
  184.7180  178.0600  143.0980 C   0  0  2  0  0  3  0  0  0  0  0  0
  187.9700  177.0830  144.8610 C   0  0  0  0  0  0  0  0  0  0  0  0
  184.5050  177.8790  141.6380 N   0  0  0  0  0  0  0  0  0  0  0  0
  188.6200  176.0060  143.5940 S   0  0  0  0  0  0  0  0  0  0  0  0
  186.7700  177.9630  142.0830 C   0  0  0  0  0  0  0  0  0  0  0  0
  188.5590  177.0760  146.0880 N   0  0  0  0  0  0  0  0  0  0  0  0
  189.2530  177.4620  142.7210 C   0  0  0  0  0  2  0  0  0  0  0  0
  185.7810  177.9350  141.1210 O   0  0  0  0  0  0  0  0  0  0  0  0
  186.8760  177.9360  144.6090 C   0  0  0  0  0  0  0  0  0  0  0  0
  189.8900  176.9650  140.0780 C   0  0  0  0  0  1  0  0  0  0  0  0
  188.4880  177.5240  140.2800 C   0  0  2  0  0  3  0  0  0  0  0  0
  189.0560  179.3780  138.8980 O   0  0  0  0  0  1  0  0  0  0  0  0
  186.9020  178.6280  138.6840 O   0  0  0  0  0  0  0  0  0  0  0  0
  188.1660  178.5660  139.2600 C   0  0  0  0  0  0  0  0  0  0  0  0
  183.7330  178.9420  140.9920 C   0  0  0  0  0  2  0  0  0  0  0  0
  180.0720  177.6090  141.0450 C   0  0  0  0  0  2  0  0  0  0  0  0
  181.6140  176.1970  139.6700 C   0  0  0  0  0  3  0  0  0  0  0  0
  182.4530  178.3770  140.4010 C   0  0  1  0  0  3  0  0  0  0  0  0
  180.2400  176.7960  139.7530 C   0  0  1  0  0  3  0  0  0  0  0  0
  182.6720  176.9540  139.9780 C   0  0  0  0  0  3  0  0  0  0  0  0
  181.3040  178.4620  141.4190 C   0  0  0  0  0  2  0  0  0  0  0  0
  179.2850  175.7980  139.6970 F   0  0  0  0  0  0  0  0  0  0  0  0
  1  6  1  0  0  0  0
  2  1  2  0  0  0  0
  4 17  1  6  0  0  0
  4 11  1  0  0  0  0
  4 13  1  0  0  0  0
  5 15  1  0  0  0  0
  7  5  1  0  0  0  0
  7  3  1  6  0  0  0
  8 12  1  0  0  0  0
  9  7  1  0  0  0  0
 10  8  1  0  0  0  0
 11  5  2  0  0  0  0
 12  6  2  0  0  0  0
 13 10  1  0  0  0  0
 14  9  1  0  0  0  0
 14 11  1  0  0  0  0
 15  8  2  0  0  0  0
 15  2  1  0  0  0  0
 17 16  1  1  0  0  0
 18 20  1  0  0  0  0
 19 20  2  0  0  0  0
 20 17  1  0  0  0  0
 21  9  1  0  0  0  0
 22 27  1  0  0  0  0
 23 25  1  0  0  0  0
 23 26  2  0  0  0  0
 24 21  1  1  0  0  0
 24 27  1  0  0  0  0
 25 28  1  1  0  0  0
 25 22  1  0  0  0  0
 26 24  1  0  0  0  0
M  END
>  <MODEL>
8

>  <REMARK>
 VINA RESULT:      -6.9      3.498      6.489
  Name = 
  4 active torsions:
  status: ('A' for Active; 'I' for Inactive)
    1  A    between atoms: C_6  and  C_11
    2  A    between atoms: C_7  and  C_8
    3  A    between atoms: C_7  and  N_20
    4  A    between atoms: C_11  and  C_18
                            x       y       z     vdW  Elec       q    Type
                         _______ _______ _______ _____ _____    ______ ____

>  <TORSDO>
F 4

$$$$
=
 OpenBabel11062416463D

 28 31  0  0  1  0  0  0  0  0999 V2000
  179.7400  179.0850  144.1570 C   0  0  0  0  0  3  0  0  0  0  0  0
  181.1030  178.8820  143.9490 C   0  0  0  0  0  3  0  0  0  0  0  0
  184.0410  178.5830  144.7910 C   0  0  0  0  0  1  0  0  0  0  0  0
  183.1060  177.4070  140.2980 C   0  0  1  0  0  3  0  0  0  0  0  0
  183.1110  178.7690  142.4800 C   0  0  0  0  0  0  0  0  0  0  0  0
  178.9310  179.4170  143.0720 C   0  0  0  0  0  3  0  0  0  0  0  0
  184.1710  179.2630  143.4220 C   0  0  2  0  0  3  0  0  0  0  0  0
  180.8050  179.3730  141.6080 C   0  0  0  0  0  0  0  0  0  0  0  0
  185.4590  179.0130  142.7210 N   0  0  0  0  0  0  0  0  0  0  0  0
  181.4280  179.6020  139.9500 S   0  0  0  0  0  0  0  0  0  0  0  0
  183.7160  178.1770  141.4560 C   0  0  0  0  0  0  0  0  0  0  0  0
  179.4750  179.5530  141.8340 N   0  0  0  0  0  0  0  0  0  0  0  0
  181.7000  177.8140  139.8350 C   0  0  0  0  0  2  0  0  0  0  0  0
  185.0830  178.2770  141.6190 O   0  0  0  0  0  0  0  0  0  0  0  0
  181.6570  179.0040  142.6690 C   0  0  0  0  0  0  0  0  0  0  0  0
  184.6100  178.5850  138.6080 C   0  0  0  0  0  1  0  0  0  0  0  0
  184.0950  177.2510  139.1330 C   0  0  2  0  0  3  0  0  0  0  0  0
  183.4310  175.1690  138.1880 O   0  0  0  0  0  1  0  0  0  0  0  0
  183.1040  176.9960  136.8450 O   0  0  0  0  0  0  0  0  0  0  0  0
  183.5360  176.4130  138.0310 C   0  0  0  0  0  0  0  0  0  0  0  0
  186.4210  178.2030  143.4710 C   0  0  0  0  0  2  0  0  0  0  0  0
  189.6460  176.2610  142.4680 C   0  0  0  0  0  2  0  0  0  0  0  0
  189.1980  178.2450  141.0100 C   0  0  0  0  0  3  0  0  0  0  0  0
  187.4050  177.5440  142.5210 C   0  0  1  0  0  3  0  0  0  0  0  0
  189.6600  176.8170  141.0360 C   0  0  1  0  0  3  0  0  0  0  0  0
  188.1190  178.5920  141.7190 C   0  0  0  0  0  3  0  0  0  0  0  0
  188.4140  176.6840  143.2970 C   0  0  0  0  0  2  0  0  0  0  0  0
  190.9320  176.7220  140.5060 F   0  0  0  0  0  0  0  0  0  0  0  0
  2  1  1  0  0  0  0
  4 17  1  6  0  0  0
  4 11  1  0  0  0  0
  5 15  1  0  0  0  0
  5  7  1  0  0  0  0
  6  1  2  0  0  0  0
  7  3  1  1  0  0  0
  8 12  2  0  0  0  0
  8 15  1  0  0  0  0
  9  7  1  0  0  0  0
  9 21  1  0  0  0  0
 10  8  1  0  0  0  0
 11 14  1  0  0  0  0
 11  5  2  0  0  0  0
 12  6  1  0  0  0  0
 13 10  1  0  0  0  0
 13  4  1  0  0  0  0
 14  9  1  0  0  0  0
 15  2  2  0  0  0  0
 17 16  1  6  0  0  0
 19 20  2  0  0  0  0
 20 18  1  0  0  0  0
 20 17  1  0  0  0  0
 22 27  1  0  0  0  0
 23 25  1  0  0  0  0
 23 26  2  0  0  0  0
 24 27  1  0  0  0  0
 24 21  1  1  0  0  0
 25 28  1  1  0  0  0
 25 22  1  0  0  0  0
 26 24  1  0  0  0  0
M  END
>  <MODEL>
9

>  <REMARK>
 VINA RESULT:      -6.7      3.800      6.534
  Name = 
  4 active torsions:
  status: ('A' for Active; 'I' for Inactive)
    1  A    between atoms: C_6  and  C_11
    2  A    between atoms: C_7  and  C_8
    3  A    between atoms: C_7  and  N_20
    4  A    between atoms: C_11  and  C_18
                            x       y       z     vdW  Elec       q    Type
                         _______ _______ _______ _____ _____    ______ ____

>  <TORSDO>
F 4

$$$$
