=
 OpenBabel11062417133D

 36 38  0  0  1  0  0  0  0  0999 V2000
  188.6630  177.7600  140.0340 C   0  0  0  0  0  0  0  0  0  0  0  0
  189.5390  177.5770  141.1400 N   0  0  0  0  0  0  0  0  0  0  0  0
  184.8720  179.1590  141.6940 O   0  0  0  0  0  0  0  0  0  0  0  0
  186.2370  178.6310  139.8660 N   0  0  0  0  0  2  0  0  0  0  0  0
  188.8650  177.9920  142.1690 C   0  0  0  0  0  0  0  0  0  0  0  0
  188.9530  177.4300  138.7570 C   0  0  0  0  0  0  0  0  0  0  0  0
  185.0130  179.0890  140.4460 C   0  0  0  0  0  0  0  0  0  0  0  0
  187.5530  178.4680  141.8680 N   0  0  0  0  0  0  0  0  0  0  0  0
  187.4350  178.3290  140.5910 C   0  0  0  0  0  0  0  0  0  0  0  0
  188.0330  177.7660  137.6510 C   0  0  0  0  0  0  0  0  0  0  0  0
  188.0340  178.9280  137.1580 O   0  0  0  0  0  0  0  0  0  0  0  0
  187.2060  176.7750  137.1200 O   0  0  0  0  0  0  0  0  0  0  0  0
  185.8620  177.0410  136.7470 C   0  0  0  0  0  1  0  0  0  0  0  0
  191.1390  177.3380  137.8180 O   0  0  0  0  0  0  0  0  0  0  0  0
  190.2140  176.7190  138.4120 C   0  0  0  0  0  0  0  0  0  0  0  0
  191.2760  174.6210  138.0630 O   0  0  0  0  0  1  0  0  0  0  0  0
  190.3880  175.3720  138.7260 O   0  0  0  0  0  0  0  0  0  0  0  0
  189.4320  178.0180  143.5550 C   0  0  2  0  0  3  0  0  0  0  0  0
  190.8270  177.9320  143.4880 O   0  0  0  0  0  0  0  0  0  0  0  0
  191.2850  179.1490  143.9980 C   0  0  0  0  0  1  0  0  0  0  0  0
  188.0720  176.0310  143.6240 O   0  0  0  0  0  1  0  0  0  0  0  0
  188.8630  176.8770  144.4070 C   0  0  2  0  0  3  0  0  0  0  0  0
  189.6950  177.1930  147.3090 O   0  0  0  0  0  0  0  0  0  0  0  0
  185.3410  178.9110  147.0460 O   0  0  0  0  0  0  0  0  0  0  0  0
  186.8310  177.8980  145.4600 C   0  0  0  0  0  3  0  0  0  0  0  0
  188.5530  177.5500  146.9200 C   0  0  0  0  0  0  0  0  0  0  0  0
  186.4490  178.3730  146.7890 C   0  0  0  0  0  0  0  0  0  0  0  0
  188.0580  177.4060  145.5560 C   0  0  0  0  0  0  0  0  0  0  0  0
  187.5270  178.1700  147.7960 C   0  0  0  0  0  2  0  0  0  0  0  0
  183.8740  179.4500  139.5570 C   0  0  0  0  0  2  0  0  0  0  0  0
  182.9800  177.1130  139.4240 C   0  0  0  0  0  3  0  0  0  0  0  0
  180.6790  176.6210  140.0040 C   0  0  0  0  0  3  0  0  0  0  0  0
  180.4620  177.9730  140.2880 C   0  0  0  0  0  3  0  0  0  0  0  0
  181.5030  178.8950  140.1400 C   0  0  0  0  0  3  0  0  0  0  0  0
  181.9380  176.1910  139.5730 C   0  0  0  0  0  3  0  0  0  0  0  0
  182.7620  178.4670  139.7040 C   0  0  0  0  0  0  0  0  0  0  0  0
  1  9  1  0  0  0  0
  1  2  1  0  0  0  0
  2  5  2  0  0  0  0
  4  7  1  0  0  0  0
  4  9  1  0  0  0  0
  5 18  1  0  0  0  0
  6  1  2  0  0  0  0
  7  3  2  0  0  0  0
  8  5  1  0  0  0  0
  9  8  2  0  0  0  0
 10  6  1  0  0  0  0
 11 10  2  0  0  0  0
 12 10  1  0  0  0  0
 13 12  1  0  0  0  0
 14 15  2  0  0  0  0
 15 17  1  0  0  0  0
 15  6  1  0  0  0  0
 16 17  1  0  0  0  0
 18 19  1  6  0  0  0
 18 22  1  0  0  0  0
 19 20  1  0  0  0  0
 22 21  1  6  0  0  0
 22 28  1  0  0  0  0
 25 28  2  0  0  0  0
 25 27  1  0  0  0  0
 26 23  2  0  0  0  0
 26 29  1  0  0  0  0
 27 24  2  0  0  0  0
 27 29  1  0  0  0  0
 28 26  1  0  0  0  0
 30 36  1  0  0  0  0
 30  7  1  0  0  0  0
 31 35  2  0  0  0  0
 31 36  1  0  0  0  0
 32 33  2  0  0  0  0
 34 33  1  0  0  0  0
 35 32  1  0  0  0  0
 36 34  2  0  0  0  0
M  END
>  <MODEL>
1

>  <REMARK>
 VINA RESULT:      -8.7      0.000      0.000
  Name = 
  10 active torsions:
  status: ('A' for Active; 'I' for Inactive)
    1  A    between atoms: C_3  and  O_8
    2  A    between atoms: C_3  and  C_25
    3  A    between atoms: O_11  and  C_15
    4  A    between atoms: C_15  and  C_22
    5  A    between atoms: C_15  and  C_30
    6  A    between atoms: C_20  and  C_29
    7  A    between atoms: C_20  and  C_32
    8  A    between atoms: C_25  and  C_35
    9  A    between atoms: O_27  and  C_35
   10  A    between atoms: C_28  and  C_30
                            x       y       z     vdW  Elec       q    Type
                         _______ _______ _______ _____ _____    ______ ____

>  <TORSDO>
F 10

$$$$
=
 OpenBabel11062417133D

 36 38  0  0  1  0  0  0  0  0999 V2000
  187.5170  178.0910  140.2900 C   0  0  0  0  0  0  0  0  0  0  0  0
  187.5510  178.3160  141.6940 N   0  0  0  0  0  0  0  0  0  0  0  0
  191.5740  176.9620  139.1320 O   0  0  0  0  0  0  0  0  0  0  0  0
  189.3170  177.3070  138.6120 N   0  0  0  0  0  2  0  0  0  0  0  0
  188.7580  178.0010  142.0510 C   0  0  0  0  0  0  0  0  0  0  0  0
  186.4460  178.3200  139.4980 C   0  0  0  0  0  0  0  0  0  0  0  0
  190.6560  176.9390  138.2720 C   0  0  0  0  0  0  0  0  0  0  0  0
  189.5970  177.5580  140.9830 N   0  0  0  0  0  0  0  0  0  0  0  0
  188.8520  177.6110  139.9320 C   0  0  0  0  0  0  0  0  0  0  0  0
  186.4580  177.9430  138.0690 C   0  0  0  0  0  0  0  0  0  0  0  0
  186.0300  176.8110  137.7090 O   0  0  0  0  0  0  0  0  0  0  0  0
  186.8900  178.8690  137.1180 O   0  0  0  0  0  0  0  0  0  0  0  0
  187.4380  178.4640  135.8730 C   0  0  0  0  0  1  0  0  0  0  0  0
  184.7620  180.0020  139.4930 O   0  0  0  0  0  0  0  0  0  0  0  0
  185.2130  178.9540  140.0340 C   0  0  0  0  0  0  0  0  0  0  0  0
  184.4110  179.1220  142.2650 O   0  0  0  0  0  1  0  0  0  0  0  0
  184.5480  178.4170  141.1360 O   0  0  0  0  0  0  0  0  0  0  0  0
  189.2250  178.0500  143.4730 C   0  0  2  0  0  3  0  0  0  0  0  0
  190.6230  178.0070  143.5050 O   0  0  0  0  0  0  0  0  0  0  0  0
  191.0080  179.2530  144.0040 C   0  0  0  0  0  1  0  0  0  0  0  0
  187.9020  176.0370  143.4640 O   0  0  0  0  0  1  0  0  0  0  0  0
  188.6330  176.8940  144.2900 C   0  0  2  0  0  3  0  0  0  0  0  0
  189.3800  177.4760  147.1740 O   0  0  0  0  0  0  0  0  0  0  0  0
  184.8720  178.6960  146.7620 O   0  0  0  0  0  0  0  0  0  0  0  0
  186.4870  177.7530  145.2570 C   0  0  0  0  0  3  0  0  0  0  0  0
  188.2130  177.6840  146.7530 C   0  0  0  0  0  0  0  0  0  0  0  0
  186.0360  178.2660  146.5500 C   0  0  0  0  0  0  0  0  0  0  0  0
  187.7580  177.4040  145.3960 C   0  0  0  0  0  0  0  0  0  0  0  0
  187.1120  178.2420  147.5780 C   0  0  0  0  0  2  0  0  0  0  0  0
  190.9750  176.5620  136.8670 C   0  0  0  0  0  2  0  0  0  0  0  0
  192.0150  174.2870  137.0230 C   0  0  0  0  0  3  0  0  0  0  0  0
  194.3980  173.9800  136.7180 C   0  0  0  0  0  3  0  0  0  0  0  0
  194.5490  175.3550  136.5150 C   0  0  0  0  0  3  0  0  0  0  0  0
  193.4340  176.1970  136.5660 C   0  0  0  0  0  3  0  0  0  0  0  0
  193.1310  173.4450  136.9710 C   0  0  0  0  0  3  0  0  0  0  0  0
  192.1660  175.6640  136.8230 C   0  0  0  0  0  0  0  0  0  0  0  0
  1  2  1  0  0  0  0
  2  5  2  0  0  0  0
  4  9  1  0  0  0  0
  5 18  1  0  0  0  0
  6 15  1  0  0  0  0
  6  1  2  0  0  0  0
  7  4  1  0  0  0  0
  7  3  2  0  0  0  0
  8  5  1  0  0  0  0
  9  1  1  0  0  0  0
  9  8  2  0  0  0  0
 10  6  1  0  0  0  0
 11 10  2  0  0  0  0
 12 10  1  0  0  0  0
 13 12  1  0  0  0  0
 14 15  2  0  0  0  0
 15 17  1  0  0  0  0
 17 16  1  0  0  0  0
 18 19  1  6  0  0  0
 18 22  1  0  0  0  0
 19 20  1  0  0  0  0
 22 21  1  6  0  0  0
 22 28  1  0  0  0  0
 25 28  2  0  0  0  0
 25 27  1  0  0  0  0
 26 23  2  0  0  0  0
 26 29  1  0  0  0  0
 27 24  2  0  0  0  0
 27 29  1  0  0  0  0
 28 26  1  0  0  0  0
 30  7  1  0  0  0  0
 32 35  2  0  0  0  0
 33 34  2  0  0  0  0
 33 32  1  0  0  0  0
 34 36  1  0  0  0  0
 35 31  1  0  0  0  0
 36 30  1  0  0  0  0
 36 31  2  0  0  0  0
M  END
>  <MODEL>
2

>  <REMARK>
 VINA RESULT:      -7.9      1.966      6.162
  Name = 
  10 active torsions:
  status: ('A' for Active; 'I' for Inactive)
    1  A    between atoms: C_3  and  O_8
    2  A    between atoms: C_3  and  C_25
    3  A    between atoms: O_11  and  C_15
    4  A    between atoms: C_15  and  C_22
    5  A    between atoms: C_15  and  C_30
    6  A    between atoms: C_20  and  C_29
    7  A    between atoms: C_20  and  C_32
    8  A    between atoms: C_25  and  C_35
    9  A    between atoms: O_27  and  C_35
   10  A    between atoms: C_28  and  C_30
                            x       y       z     vdW  Elec       q    Type
                         _______ _______ _______ _____ _____    ______ ____

>  <TORSDO>
F 10

$$$$
=
 OpenBabel11062417133D

 36 38  0  0  1  0  0  0  0  0999 V2000
  186.4940  178.5250  141.1450 C   0  0  0  0  0  0  0  0  0  0  0  0
  187.2340  178.3660  142.3490 N   0  0  0  0  0  0  0  0  0  0  0  0
  189.3970  178.3210  137.8870 O   0  0  0  0  0  0  0  0  0  0  0  0
  187.1920  178.4770  138.6580 N   0  0  0  0  0  2  0  0  0  0  0  0
  188.4520  178.1360  141.9620 C   0  0  0  0  0  0  0  0  0  0  0  0
  185.1740  178.8080  141.0820 C   0  0  0  0  0  0  0  0  0  0  0  0
  188.1710  178.4030  137.6190 C   0  0  0  0  0  0  0  0  0  0  0  0
  188.6310  178.1170  140.5450 N   0  0  0  0  0  0  0  0  0  0  0  0
  187.4590  178.3480  140.0590 C   0  0  0  0  0  0  0  0  0  0  0  0
  184.4590  178.8360  139.7890 C   0  0  0  0  0  0  0  0  0  0  0  0
  184.0380  177.7610  139.2760 O   0  0  0  0  0  0  0  0  0  0  0  0
  184.2010  180.0610  139.1730 O   0  0  0  0  0  0  0  0  0  0  0  0
  182.8890  180.4460  138.7910 C   0  0  0  0  0  1  0  0  0  0  0  0
  183.2070  178.6690  142.4150 O   0  0  0  0  0  0  0  0  0  0  0  0
  184.3890  179.0990  142.3110 C   0  0  0  0  0  0  0  0  0  0  0  0
  184.7250  179.5080  144.6280 O   0  0  0  0  0  1  0  0  0  0  0  0
  184.9350  179.8500  143.3510 O   0  0  0  0  0  0  0  0  0  0  0  0
  189.5710  177.8640  142.9190 C   0  0  2  0  0  3  0  0  0  0  0  0
  190.7580  177.6720  142.2020 O   0  0  0  0  0  0  0  0  0  0  0  0
  191.7330  177.4500  143.1770 C   0  0  0  0  0  1  0  0  0  0  0  0
  188.3310  175.8150  143.1680 O   0  0  0  0  0  1  0  0  0  0  0  0
  189.2680  176.6420  143.7930 C   0  0  2  0  0  3  0  0  0  0  0  0
  190.8040  176.8480  146.4040 O   0  0  0  0  0  0  0  0  0  0  0  0
  186.4520  178.2910  147.3780 O   0  0  0  0  0  0  0  0  0  0  0  0
  187.5290  177.4670  145.3980 C   0  0  0  0  0  3  0  0  0  0  0  0
  189.5840  177.1510  146.3440 C   0  0  0  0  0  0  0  0  0  0  0  0
  187.4810  177.8420  146.8100 C   0  0  0  0  0  0  0  0  0  0  0  0
  188.7620  177.0530  145.1440 C   0  0  0  0  0  0  0  0  0  0  0  0
  188.7900  177.6530  147.4930 C   0  0  0  0  0  2  0  0  0  0  0  0
  187.7330  178.4660  136.1970 C   0  0  0  0  0  2  0  0  0  0  0  0
  187.6920  176.0060  135.7210 C   0  0  0  0  0  3  0  0  0  0  0  0
  185.6280  174.8840  135.1280 C   0  0  0  0  0  3  0  0  0  0  0  0
  184.9400  176.0960  135.2270 C   0  0  0  0  0  3  0  0  0  0  0  0
  185.6260  177.2640  135.5730 C   0  0  0  0  0  3  0  0  0  0  0  0
  187.0040  174.8380  135.3750 C   0  0  0  0  0  3  0  0  0  0  0  0
  187.0040  177.2210  135.8180 C   0  0  0  0  0  0  0  0  0  0  0  0
  1  2  1  0  0  0  0
  4  9  1  0  0  0  0
  5  2  2  0  0  0  0
  5 18  1  0  0  0  0
  6  1  2  0  0  0  0
  6 15  1  0  0  0  0
  7  3  2  0  0  0  0
  7  4  1  0  0  0  0
  8  5  1  0  0  0  0
  9  8  2  0  0  0  0
  9  1  1  0  0  0  0
 10  6  1  0  0  0  0
 11 10  2  0  0  0  0
 12 10  1  0  0  0  0
 13 12  1  0  0  0  0
 15 14  2  0  0  0  0
 15 17  1  0  0  0  0
 17 16  1  0  0  0  0
 18 19  1  6  0  0  0
 18 22  1  0  0  0  0
 19 20  1  0  0  0  0
 22 21  1  6  0  0  0
 22 28  1  0  0  0  0
 25 27  1  0  0  0  0
 26 23  2  0  0  0  0
 26 29  1  0  0  0  0
 27 24  2  0  0  0  0
 27 29  1  0  0  0  0
 28 25  2  0  0  0  0
 28 26  1  0  0  0  0
 30  7  1  0  0  0  0
 31 36  1  0  0  0  0
 32 33  2  0  0  0  0
 32 35  1  0  0  0  0
 33 34  1  0  0  0  0
 34 36  2  0  0  0  0
 35 31  2  0  0  0  0
 36 30  1  0  0  0  0
M  END
>  <MODEL>
3

>  <REMARK>
 VINA RESULT:      -7.9      1.982      4.739
  Name = 
  10 active torsions:
  status: ('A' for Active; 'I' for Inactive)
    1  A    between atoms: C_3  and  O_8
    2  A    between atoms: C_3  and  C_25
    3  A    between atoms: O_11  and  C_15
    4  A    between atoms: C_15  and  C_22
    5  A    between atoms: C_15  and  C_30
    6  A    between atoms: C_20  and  C_29
    7  A    between atoms: C_20  and  C_32
    8  A    between atoms: C_25  and  C_35
    9  A    between atoms: O_27  and  C_35
   10  A    between atoms: C_28  and  C_30
                            x       y       z     vdW  Elec       q    Type
                         _______ _______ _______ _____ _____    ______ ____

>  <TORSDO>
F 10

$$$$
=
 OpenBabel11062417133D

 36 38  0  0  1  0  0  0  0  0999 V2000
  187.8510  178.1100  140.2550 C   0  0  0  0  0  0  0  0  0  0  0  0
  187.8360  178.3440  141.6580 N   0  0  0  0  0  0  0  0  0  0  0  0
  191.8820  176.7360  139.2850 O   0  0  0  0  0  0  0  0  0  0  0  0
  189.6740  177.2080  138.6640 N   0  0  0  0  0  2  0  0  0  0  0  0
  189.0060  177.9620  142.0710 C   0  0  0  0  0  0  0  0  0  0  0  0
  186.8310  178.3940  139.4140 C   0  0  0  0  0  0  0  0  0  0  0  0
  191.0030  176.7600  138.3860 C   0  0  0  0  0  0  0  0  0  0  0  0
  189.8640  177.4620  141.0440 N   0  0  0  0  0  0  0  0  0  0  0  0
  189.1700  177.5500  139.9600 C   0  0  0  0  0  0  0  0  0  0  0  0
  186.8840  178.0060  137.9900 C   0  0  0  0  0  0  0  0  0  0  0  0
  187.2350  178.8480  137.1170 O   0  0  0  0  0  0  0  0  0  0  0  0
  186.6000  176.6880  137.6260 O   0  0  0  0  0  0  0  0  0  0  0  0
  185.6560  176.3780  136.6130 C   0  0  0  0  0  1  0  0  0  0  0  0
  185.5350  179.4690  141.0970 O   0  0  0  0  0  0  0  0  0  0  0  0
  185.6150  179.1040  139.8920 C   0  0  0  0  0  0  0  0  0  0  0  0
  184.0470  180.6000  138.9150 O   0  0  0  0  0  1  0  0  0  0  0  0
  184.5500  179.3660  139.0300 O   0  0  0  0  0  0  0  0  0  0  0  0
  189.4110  177.9950  143.5120 C   0  0  2  0  0  3  0  0  0  0  0  0
  190.8050  177.9280  143.6030 O   0  0  0  0  0  0  0  0  0  0  0  0
  191.2000  179.2070  144.0030 C   0  0  0  0  0  1  0  0  0  0  0  0
  187.9480  176.0830  143.4570 O   0  0  0  0  0  1  0  0  0  0  0  0
  188.7650  176.8460  144.2950 C   0  0  2  0  0  3  0  0  0  0  0  0
  189.6190  177.1530  147.1920 O   0  0  0  0  0  0  0  0  0  0  0  0
  185.2470  178.8310  146.9750 O   0  0  0  0  0  0  0  0  0  0  0  0
  186.7330  177.8410  145.3710 C   0  0  0  0  0  3  0  0  0  0  0  0
  188.4700  177.5020  146.8150 C   0  0  0  0  0  0  0  0  0  0  0  0
  186.3580  178.3060  146.7060 C   0  0  0  0  0  0  0  0  0  0  0  0
  187.9650  177.3610  145.4540 C   0  0  0  0  0  0  0  0  0  0  0  0
  187.4450  178.1070  147.7030 C   0  0  0  0  0  2  0  0  0  0  0  0
  191.3620  176.3530  136.9980 C   0  0  0  0  0  2  0  0  0  0  0  0
  190.1910  174.1380  137.0370 C   0  0  0  0  0  3  0  0  0  0  0  0
  188.4390  173.6240  135.4440 C   0  0  0  0  0  3  0  0  0  0  0  0
  188.5960  174.8860  134.8640 C   0  0  0  0  0  3  0  0  0  0  0  0
  189.5500  175.7750  135.3690 C   0  0  0  0  0  3  0  0  0  0  0  0
  189.2350  173.2500  136.5310 C   0  0  0  0  0  3  0  0  0  0  0  0
  190.3510  175.4000  136.4540 C   0  0  0  0  0  0  0  0  0  0  0  0
  1  2  1  0  0  0  0
  2  5  2  0  0  0  0
  4  9  1  0  0  0  0
  5 18  1  0  0  0  0
  6 15  1  0  0  0  0
  6  1  2  0  0  0  0
  7  4  1  0  0  0  0
  7  3  2  0  0  0  0
  8  5  1  0  0  0  0
  9  1  1  0  0  0  0
  9  8  2  0  0  0  0
 10  6  1  0  0  0  0
 11 10  2  0  0  0  0
 12 10  1  0  0  0  0
 13 12  1  0  0  0  0
 15 14  2  0  0  0  0
 16 17  1  0  0  0  0
 17 15  1  0  0  0  0
 18 19  1  6  0  0  0
 18 22  1  0  0  0  0
 19 20  1  0  0  0  0
 22 21  1  6  0  0  0
 22 28  1  0  0  0  0
 25 28  2  0  0  0  0
 25 27  1  0  0  0  0
 26 23  2  0  0  0  0
 26 29  1  0  0  0  0
 27 24  2  0  0  0  0
 27 29  1  0  0  0  0
 28 26  1  0  0  0  0
 30  7  1  0  0  0  0
 32 35  2  0  0  0  0
 33 34  2  0  0  0  0
 33 32  1  0  0  0  0
 34 36  1  0  0  0  0
 35 31  1  0  0  0  0
 36 30  1  0  0  0  0
 36 31  2  0  0  0  0
M  END
>  <MODEL>
4

>  <REMARK>
 VINA RESULT:      -7.8      2.030      5.113
  Name = 
  10 active torsions:
  status: ('A' for Active; 'I' for Inactive)
    1  A    between atoms: C_3  and  O_8
    2  A    between atoms: C_3  and  C_25
    3  A    between atoms: O_11  and  C_15
    4  A    between atoms: C_15  and  C_22
    5  A    between atoms: C_15  and  C_30
    6  A    between atoms: C_20  and  C_29
    7  A    between atoms: C_20  and  C_32
    8  A    between atoms: C_25  and  C_35
    9  A    between atoms: O_27  and  C_35
   10  A    between atoms: C_28  and  C_30
                            x       y       z     vdW  Elec       q    Type
                         _______ _______ _______ _____ _____    ______ ____

>  <TORSDO>
F 10

$$$$
=
 OpenBabel11062417133D

 36 38  0  0  1  0  0  0  0  0999 V2000
  186.4200  178.4920  140.6050 C   0  0  0  0  0  0  0  0  0  0  0  0
  187.3150  178.5130  139.5000 N   0  0  0  0  0  0  0  0  0  0  0  0
  188.5690  176.5670  143.8850 O   0  0  0  0  0  0  0  0  0  0  0  0
  186.6870  177.6750  143.0410 N   0  0  0  0  0  2  0  0  0  0  0  0
  188.4270  178.0310  139.9650 C   0  0  0  0  0  0  0  0  0  0  0  0
  185.1280  178.8860  140.5600 C   0  0  0  0  0  0  0  0  0  0  0  0
  187.4230  177.0430  144.0910 C   0  0  0  0  0  0  0  0  0  0  0  0
  188.3860  177.6660  141.3450 N   0  0  0  0  0  0  0  0  0  0  0  0
  187.1850  177.9440  141.7260 C   0  0  0  0  0  0  0  0  0  0  0  0
  184.3030  178.9460  141.7840 C   0  0  0  0  0  0  0  0  0  0  0  0
  183.2740  178.2220  141.8900 O   0  0  0  0  0  0  0  0  0  0  0  0
  184.7030  179.7630  142.8430 O   0  0  0  0  0  0  0  0  0  0  0  0
  184.1160  179.6610  144.1310 C   0  0  0  0  0  1  0  0  0  0  0  0
  184.2800  180.5000  139.0280 O   0  0  0  0  0  0  0  0  0  0  0  0
  184.4870  179.2790  139.2760 C   0  0  0  0  0  0  0  0  0  0  0  0
  183.6100  177.1380  138.7360 O   0  0  0  0  0  1  0  0  0  0  0  0
  184.0990  178.3190  138.3420 O   0  0  0  0  0  0  0  0  0  0  0  0
  189.6690  177.9110  139.1380 C   0  0  2  0  0  3  0  0  0  0  0  0
  189.3200  177.6140  137.8160 O   0  0  0  0  0  0  0  0  0  0  0  0
  189.3060  178.8490  137.1630 C   0  0  0  0  0  1  0  0  0  0  0  0
  191.3160  177.3310  140.7960 O   0  0  0  0  0  1  0  0  0  0  0  0
  190.6070  176.8350  139.7000 C   0  0  2  0  0  3  0  0  0  0  0  0
  190.3430  174.4250  137.8730 O   0  0  0  0  0  0  0  0  0  0  0  0
  194.3470  176.5220  136.6320 O   0  0  0  0  0  0  0  0  0  0  0  0
  192.6870  176.9610  138.3090 C   0  0  0  0  0  3  0  0  0  0  0  0
  191.3390  175.1890  137.7970 C   0  0  0  0  0  0  0  0  0  0  0  0
  193.2740  176.2020  137.2050 C   0  0  0  0  0  0  0  0  0  0  0  0
  191.5640  176.3480  138.6530 C   0  0  0  0  0  0  0  0  0  0  0  0
  192.4470  175.0240  136.8230 C   0  0  0  0  0  2  0  0  0  0  0  0
  186.8040  176.9100  145.4400 C   0  0  0  0  0  2  0  0  0  0  0  0
  189.1190  176.9710  146.3970 C   0  0  0  0  0  3  0  0  0  0  0  0
  189.5770  178.1150  148.4830 C   0  0  0  0  0  3  0  0  0  0  0  0
  188.2280  178.4680  148.5850 C   0  0  0  0  0  3  0  0  0  0  0  0
  187.3240  178.0730  147.5950 C   0  0  0  0  0  3  0  0  0  0  0  0
  190.0230  177.3670  147.3890 C   0  0  0  0  0  3  0  0  0  0  0  0
  187.7680  177.3210  146.5010 C   0  0  0  0  0  0  0  0  0  0  0  0
  1  9  1  0  0  0  0
  2  5  2  0  0  0  0
  2  1  1  0  0  0  0
  3  7  2  0  0  0  0
  4  7  1  0  0  0  0
  5  8  1  0  0  0  0
  6  1  2  0  0  0  0
  6 10  1  0  0  0  0
  7 30  1  0  0  0  0
  8  9  2  0  0  0  0
  9  4  1  0  0  0  0
 10 11  2  0  0  0  0
 10 12  1  0  0  0  0
 12 13  1  0  0  0  0
 14 15  2  0  0  0  0
 15  6  1  0  0  0  0
 17 16  1  0  0  0  0
 17 15  1  0  0  0  0
 18 19  1  6  0  0  0
 18 22  1  0  0  0  0
 18  5  1  0  0  0  0
 20 19  1  0  0  0  0
 22 21  1  1  0  0  0
 24 27  2  0  0  0  0
 25 28  2  0  0  0  0
 26 23  2  0  0  0  0
 26 28  1  0  0  0  0
 27 25  1  0  0  0  0
 28 22  1  0  0  0  0
 29 27  1  0  0  0  0
 29 26  1  0  0  0  0
 30 36  1  0  0  0  0
 31 36  2  0  0  0  0
 31 35  1  0  0  0  0
 32 33  1  0  0  0  0
 34 33  2  0  0  0  0
 35 32  2  0  0  0  0
 36 34  1  0  0  0  0
M  END
>  <MODEL>
5

>  <REMARK>
 VINA RESULT:      -7.6      2.289      7.815
  Name = 
  10 active torsions:
  status: ('A' for Active; 'I' for Inactive)
    1  A    between atoms: C_3  and  O_8
    2  A    between atoms: C_3  and  C_25
    3  A    between atoms: O_11  and  C_15
    4  A    between atoms: C_15  and  C_22
    5  A    between atoms: C_15  and  C_30
    6  A    between atoms: C_20  and  C_29
    7  A    between atoms: C_20  and  C_32
    8  A    between atoms: C_25  and  C_35
    9  A    between atoms: O_27  and  C_35
   10  A    between atoms: C_28  and  C_30
                            x       y       z     vdW  Elec       q    Type
                         _______ _______ _______ _____ _____    ______ ____

>  <TORSDO>
F 10

$$$$
=
 OpenBabel11062417133D

 36 38  0  0  1  0  0  0  0  0999 V2000
  188.9390  177.6880  141.7000 C   0  0  0  0  0  0  0  0  0  0  0  0
  189.7610  177.7150  140.5390 N   0  0  0  0  0  0  0  0  0  0  0  0
  185.1750  179.6010  140.5800 O   0  0  0  0  0  0  0  0  0  0  0  0
  186.5110  178.4600  142.1280 N   0  0  0  0  0  2  0  0  0  0  0  0
  189.0060  178.2180  139.6100 C   0  0  0  0  0  0  0  0  0  0  0  0
  189.3380  177.2590  142.9180 C   0  0  0  0  0  0  0  0  0  0  0  0
  185.2930  179.0900  141.7240 C   0  0  0  0  0  0  0  0  0  0  0  0
  187.6840  178.5520  140.0350 N   0  0  0  0  0  0  0  0  0  0  0  0
  187.6460  178.2330  141.2840 C   0  0  0  0  0  0  0  0  0  0  0  0
  188.3840  177.1510  144.0410 C   0  0  0  0  0  0  0  0  0  0  0  0
  187.4870  176.2610  144.0260 O   0  0  0  0  0  0  0  0  0  0  0  0
  188.5180  177.9990  145.1410 O   0  0  0  0  0  0  0  0  0  0  0  0
  189.0090  177.5350  146.3890 C   0  0  0  0  0  1  0  0  0  0  0  0
  191.0620  175.6560  143.2700 O   0  0  0  0  0  0  0  0  0  0  0  0
  190.7520  176.8760  143.1750 C   0  0  0  0  0  0  0  0  0  0  0  0
  191.4980  178.9840  143.9820 O   0  0  0  0  0  1  0  0  0  0  0  0
  191.7440  177.8450  143.3240 O   0  0  0  0  0  0  0  0  0  0  0  0
  189.4640  178.3900  138.1950 C   0  0  2  0  0  3  0  0  0  0  0  0
  188.6760  179.3600  137.5670 O   0  0  0  0  0  0  0  0  0  0  0  0
  188.0880  178.6990  136.4870 C   0  0  0  0  0  1  0  0  0  0  0  0
  188.6740  176.1150  138.1520 O   0  0  0  0  0  1  0  0  0  0  0  0
  189.3990  177.0650  137.4270 C   0  0  2  0  0  3  0  0  0  0  0  0
  190.4590  175.8880  134.8370 O   0  0  0  0  0  0  0  0  0  0  0  0
  194.1000  175.9370  137.7890 O   0  0  0  0  0  0  0  0  0  0  0  0
  191.7930  176.5710  137.9790 C   0  0  0  0  0  3  0  0  0  0  0  0
  191.2040  176.0160  135.8430 C   0  0  0  0  0  0  0  0  0  0  0  0
  192.9570  176.0370  137.2730 C   0  0  0  0  0  0  0  0  0  0  0  0
  190.7730  176.5390  137.1340 C   0  0  0  0  0  0  0  0  0  0  0  0
  192.6420  175.6460  135.8710 C   0  0  0  0  0  2  0  0  0  0  0  0
  184.1610  179.1770  142.6880 C   0  0  0  0  0  2  0  0  0  0  0  0
  181.6630  178.9910  142.6330 C   0  0  0  0  0  3  0  0  0  0  0  0
  180.5410  177.7570  140.8760 C   0  0  0  0  0  3  0  0  0  0  0  0
  181.7780  177.4470  140.3040 C   0  0  0  0  0  3  0  0  0  0  0  0
  182.9580  177.9070  140.8960 C   0  0  0  0  0  3  0  0  0  0  0  0
  180.4830  178.5300  142.0400 C   0  0  0  0  0  3  0  0  0  0  0  0
  182.9020  178.6780  142.0630 C   0  0  0  0  0  0  0  0  0  0  0  0
  1  6  2  0  0  0  0
  2  1  1  0  0  0  0
  3  7  2  0  0  0  0
  5  8  1  0  0  0  0
  5  2  2  0  0  0  0
  6 15  1  0  0  0  0
  6 10  1  0  0  0  0
  7  4  1  0  0  0  0
  7 30  1  0  0  0  0
  8  9  2  0  0  0  0
  9  1  1  0  0  0  0
  9  4  1  0  0  0  0
 10 12  1  0  0  0  0
 11 10  2  0  0  0  0
 12 13  1  0  0  0  0
 15 14  2  0  0  0  0
 15 17  1  0  0  0  0
 17 16  1  0  0  0  0
 18 19  1  6  0  0  0
 18  5  1  0  0  0  0
 20 19  1  0  0  0  0
 22 21  1  1  0  0  0
 22 18  1  0  0  0  0
 23 26  2  0  0  0  0
 26 29  1  0  0  0  0
 26 28  1  0  0  0  0
 27 24  2  0  0  0  0
 27 25  1  0  0  0  0
 28 22  1  0  0  0  0
 28 25  2  0  0  0  0
 29 27  1  0  0  0  0
 32 35  1  0  0  0  0
 33 32  2  0  0  0  0
 33 34  1  0  0  0  0
 34 36  2  0  0  0  0
 35 31  2  0  0  0  0
 36 31  1  0  0  0  0
 36 30  1  0  0  0  0
M  END
>  <MODEL>
6

>  <REMARK>
 VINA RESULT:      -7.5      1.827      6.770
  Name = 
  10 active torsions:
  status: ('A' for Active; 'I' for Inactive)
    1  A    between atoms: C_3  and  O_8
    2  A    between atoms: C_3  and  C_25
    3  A    between atoms: O_11  and  C_15
    4  A    between atoms: C_15  and  C_22
    5  A    between atoms: C_15  and  C_30
    6  A    between atoms: C_20  and  C_29
    7  A    between atoms: C_20  and  C_32
    8  A    between atoms: C_25  and  C_35
    9  A    between atoms: O_27  and  C_35
   10  A    between atoms: C_28  and  C_30
                            x       y       z     vdW  Elec       q    Type
                         _______ _______ _______ _____ _____    ______ ____

>  <TORSDO>
F 10

$$$$
=
 OpenBabel11062417133D

 36 38  0  0  1  0  0  0  0  0999 V2000
  189.7660  177.1340  139.5080 C   0  0  0  0  0  0  0  0  0  0  0  0
  190.7130  176.8510  140.5320 N   0  0  0  0  0  0  0  0  0  0  0  0
  186.1970  178.6420  141.5240 O   0  0  0  0  0  0  0  0  0  0  0  0
  187.3870  178.1360  139.5720 N   0  0  0  0  0  2  0  0  0  0  0  0
  190.1440  177.2490  141.6290 C   0  0  0  0  0  0  0  0  0  0  0  0
  189.9400  176.8520  138.1980 C   0  0  0  0  0  0  0  0  0  0  0  0
  186.2380  178.6270  140.2660 C   0  0  0  0  0  0  0  0  0  0  0  0
  188.8400  177.8060  141.4540 N   0  0  0  0  0  0  0  0  0  0  0  0
  188.6180  177.7370  140.1850 C   0  0  0  0  0  0  0  0  0  0  0  0
  188.9570  177.2900  137.1850 C   0  0  0  0  0  0  0  0  0  0  0  0
  188.8640  178.5120  136.8800 O   0  0  0  0  0  0  0  0  0  0  0  0
  188.1760  176.3370  136.5290 O   0  0  0  0  0  0  0  0  0  0  0  0
  187.4990  175.3090  137.2350 C   0  0  0  0  0  1  0  0  0  0  0  0
  192.0350  176.6930  137.0790 O   0  0  0  0  0  0  0  0  0  0  0  0
  191.1290  176.0950  137.7240 C   0  0  0  0  0  0  0  0  0  0  0  0
  190.7840  173.8280  137.1010 O   0  0  0  0  0  1  0  0  0  0  0  0
  191.2560  174.7290  137.9700 O   0  0  0  0  0  0  0  0  0  0  0  0
  190.8150  177.1770  142.9650 C   0  0  2  0  0  3  0  0  0  0  0  0
  190.4820  175.9690  143.5870 O   0  0  0  0  0  0  0  0  0  0  0  0
  191.6780  175.2500  143.6370 C   0  0  0  0  0  1  0  0  0  0  0  0
  191.5390  179.1320  144.1720 O   0  0  0  0  0  1  0  0  0  0  0  0
  190.4160  178.3650  143.8500 C   0  0  2  0  0  3  0  0  0  0  0  0
  191.6750  177.2300  146.3680 O   0  0  0  0  0  0  0  0  0  0  0  0
  187.0760  177.4590  147.2440 O   0  0  0  0  0  0  0  0  0  0  0  0
  188.4370  177.9850  145.3390 C   0  0  0  0  0  3  0  0  0  0  0  0
  190.4310  177.3950  146.2840 C   0  0  0  0  0  0  0  0  0  0  0  0
  188.2090  177.5030  146.7000 C   0  0  0  0  0  0  0  0  0  0  0  0
  189.7390  177.9030  145.1050 C   0  0  0  0  0  0  0  0  0  0  0  0
  189.4710  177.0930  147.3760 C   0  0  0  0  0  2  0  0  0  0  0  0
  185.0560  179.0900  139.4870 C   0  0  0  0  0  2  0  0  0  0  0  0
  183.2180  177.5050  140.1140 C   0  0  0  0  0  3  0  0  0  0  0  0
  182.4520  175.8080  138.5640 C   0  0  0  0  0  3  0  0  0  0  0  0
  183.3850  176.2480  137.6210 C   0  0  0  0  0  3  0  0  0  0  0  0
  184.2350  177.3160  137.9230 C   0  0  0  0  0  3  0  0  0  0  0  0
  182.3680  176.4370  139.8110 C   0  0  0  0  0  3  0  0  0  0  0  0
  184.1550  177.9440  139.1710 C   0  0  0  0  0  0  0  0  0  0  0  0
  1  9  1  0  0  0  0
  1  2  1  0  0  0  0
  2  5  2  0  0  0  0
  4  9  1  0  0  0  0
  4  7  1  0  0  0  0
  5 18  1  0  0  0  0
  6  1  2  0  0  0  0
  7  3  2  0  0  0  0
  8  5  1  0  0  0  0
  9  8  2  0  0  0  0
 10  6  1  0  0  0  0
 11 10  2  0  0  0  0
 12 10  1  0  0  0  0
 12 13  1  0  0  0  0
 14 15  2  0  0  0  0
 15 17  1  0  0  0  0
 15  6  1  0  0  0  0
 16 17  1  0  0  0  0
 18 19  1  1  0  0  0
 18 22  1  0  0  0  0
 19 20  1  0  0  0  0
 22 21  1  1  0  0  0
 22 28  1  0  0  0  0
 25 27  1  0  0  0  0
 26 23  2  0  0  0  0
 26 29  1  0  0  0  0
 27 24  2  0  0  0  0
 27 29  1  0  0  0  0
 28 25  2  0  0  0  0
 28 26  1  0  0  0  0
 30  7  1  0  0  0  0
 32 35  2  0  0  0  0
 33 34  2  0  0  0  0
 33 32  1  0  0  0  0
 34 36  1  0  0  0  0
 35 31  1  0  0  0  0
 36 30  1  0  0  0  0
 36 31  2  0  0  0  0
M  END
>  <MODEL>
7

>  <REMARK>
 VINA RESULT:      -7.4      1.496      2.088
  Name = 
  10 active torsions:
  status: ('A' for Active; 'I' for Inactive)
    1  A    between atoms: C_3  and  O_8
    2  A    between atoms: C_3  and  C_25
    3  A    between atoms: O_11  and  C_15
    4  A    between atoms: C_15  and  C_22
    5  A    between atoms: C_15  and  C_30
    6  A    between atoms: C_20  and  C_29
    7  A    between atoms: C_20  and  C_32
    8  A    between atoms: C_25  and  C_35
    9  A    between atoms: O_27  and  C_35
   10  A    between atoms: C_28  and  C_30
                            x       y       z     vdW  Elec       q    Type
                         _______ _______ _______ _____ _____    ______ ____

>  <TORSDO>
F 10

$$$$
=
 OpenBabel11062417133D

 36 38  0  0  1  0  0  0  0  0999 V2000
  188.8130  177.8230  141.0320 C   0  0  0  0  0  0  0  0  0  0  0  0
  189.4110  177.5100  142.2840 N   0  0  0  0  0  0  0  0  0  0  0  0
  184.6520  178.8410  141.8820 O   0  0  0  0  0  0  0  0  0  0  0  0
  186.4450  178.6290  140.3910 N   0  0  0  0  0  2  0  0  0  0  0  0
  188.4860  177.7500  143.1620 C   0  0  0  0  0  0  0  0  0  0  0  0
  189.4210  177.6910  139.8320 C   0  0  0  0  0  0  0  0  0  0  0  0
  185.0900  178.9580  140.7080 C   0  0  0  0  0  0  0  0  0  0  0  0
  187.2540  178.2200  142.6140 N   0  0  0  0  0  0  0  0  0  0  0  0
  187.4530  178.2640  141.3400 C   0  0  0  0  0  0  0  0  0  0  0  0
  188.7700  178.1530  138.5890 C   0  0  0  0  0  0  0  0  0  0  0  0
  188.9570  179.3320  138.1780 O   0  0  0  0  0  0  0  0  0  0  0  0
  187.9950  177.2610  137.8460 O   0  0  0  0  0  0  0  0  0  0  0  0
  187.1400  177.7010  136.8020 C   0  0  0  0  0  1  0  0  0  0  0  0
  190.8890  175.8960  139.2910 O   0  0  0  0  0  0  0  0  0  0  0  0
  190.7720  177.0790  139.7160 C   0  0  0  0  0  0  0  0  0  0  0  0
  192.6860  177.3720  141.0940 O   0  0  0  0  0  1  0  0  0  0  0  0
  191.9160  177.7870  140.0810 O   0  0  0  0  0  0  0  0  0  0  0  0
  188.7030  177.5930  144.6350 C   0  0  2  0  0  3  0  0  0  0  0  0
  187.6670  178.2300  145.3270 O   0  0  0  0  0  0  0  0  0  0  0  0
  186.9910  177.2010  145.9870 C   0  0  0  0  0  1  0  0  0  0  0  0
  190.7450  178.6690  143.9500 O   0  0  0  0  0  1  0  0  0  0  0  0
  190.0620  178.1630  145.0590 C   0  0  2  0  0  3  0  0  0  0  0  0
  191.6070  175.8680  143.8090 O   0  0  0  0  0  0  0  0  0  0  0  0
  192.5170  175.6540  148.4030 O   0  0  0  0  0  0  0  0  0  0  0  0
  191.1530  177.0830  147.0400 C   0  0  0  0  0  3  0  0  0  0  0  0
  191.6340  176.0660  145.0520 C   0  0  0  0  0  0  0  0  0  0  0  0
  192.0650  175.9640  147.2700 C   0  0  0  0  0  0  0  0  0  0  0  0
  190.8990  177.1210  145.7390 C   0  0  0  0  0  0  0  0  0  0  0  0
  192.4160  175.2490  146.0130 C   0  0  0  0  0  2  0  0  0  0  0  0
  184.1740  179.4070  139.6230 C   0  0  0  0  0  2  0  0  0  0  0  0
  183.0510  177.1740  139.4470 C   0  0  0  0  0  3  0  0  0  0  0  0
  180.6390  176.9770  139.5570 C   0  0  0  0  0  3  0  0  0  0  0  0
  180.5330  178.3630  139.7060 C   0  0  0  0  0  3  0  0  0  0  0  0
  181.6850  179.1550  139.7250 C   0  0  0  0  0  3  0  0  0  0  0  0
  181.8980  176.3820  139.4280 C   0  0  0  0  0  3  0  0  0  0  0  0
  182.9450  178.5620  139.5920 C   0  0  0  0  0  0  0  0  0  0  0  0
  1  9  1  0  0  0  0
  1  2  1  0  0  0  0
  2  5  2  0  0  0  0
  4  7  1  0  0  0  0
  4  9  1  0  0  0  0
  5 18  1  0  0  0  0
  6  1  2  0  0  0  0
  7  3  2  0  0  0  0
  8  5  1  0  0  0  0
  9  8  2  0  0  0  0
 10  6  1  0  0  0  0
 11 10  2  0  0  0  0
 12 10  1  0  0  0  0
 13 12  1  0  0  0  0
 14 15  2  0  0  0  0
 15  6  1  0  0  0  0
 15 17  1  0  0  0  0
 17 16  1  0  0  0  0
 18 22  1  0  0  0  0
 18 19  1  1  0  0  0
 19 20  1  0  0  0  0
 22 21  1  6  0  0  0
 22 28  1  0  0  0  0
 23 26  2  0  0  0  0
 25 27  1  0  0  0  0
 26 28  1  0  0  0  0
 26 29  1  0  0  0  0
 27 24  2  0  0  0  0
 28 25  2  0  0  0  0
 29 27  1  0  0  0  0
 30  7  1  0  0  0  0
 31 36  1  0  0  0  0
 32 33  2  0  0  0  0
 33 34  1  0  0  0  0
 35 31  2  0  0  0  0
 35 32  1  0  0  0  0
 36 30  1  0  0  0  0
 36 34  2  0  0  0  0
M  END
>  <MODEL>
8

>  <REMARK>
 VINA RESULT:      -7.3      1.787      2.933
  Name = 
  10 active torsions:
  status: ('A' for Active; 'I' for Inactive)
    1  A    between atoms: C_3  and  O_8
    2  A    between atoms: C_3  and  C_25
    3  A    between atoms: O_11  and  C_15
    4  A    between atoms: C_15  and  C_22
    5  A    between atoms: C_15  and  C_30
    6  A    between atoms: C_20  and  C_29
    7  A    between atoms: C_20  and  C_32
    8  A    between atoms: C_25  and  C_35
    9  A    between atoms: O_27  and  C_35
   10  A    between atoms: C_28  and  C_30
                            x       y       z     vdW  Elec       q    Type
                         _______ _______ _______ _____ _____    ______ ____

>  <TORSDO>
F 10

$$$$
=
 OpenBabel11062417133D

 36 38  0  0  1  0  0  0  0  0999 V2000
  189.2520  177.7130  139.6880 C   0  0  0  0  0  0  0  0  0  0  0  0
  190.1350  177.5640  140.7930 N   0  0  0  0  0  0  0  0  0  0  0  0
  185.4410  179.0640  141.3400 O   0  0  0  0  0  0  0  0  0  0  0  0
  186.8090  178.5340  139.5150 N   0  0  0  0  0  2  0  0  0  0  0  0
  189.4570  177.9820  141.8180 C   0  0  0  0  0  0  0  0  0  0  0  0
  189.5450  177.3680  138.4150 C   0  0  0  0  0  0  0  0  0  0  0  0
  185.5790  178.9770  140.0920 C   0  0  0  0  0  0  0  0  0  0  0  0
  188.1350  178.4270  141.5140 N   0  0  0  0  0  0  0  0  0  0  0  0
  188.0150  178.2660  140.2400 C   0  0  0  0  0  0  0  0  0  0  0  0
  188.6140  177.6690  137.3080 C   0  0  0  0  0  0  0  0  0  0  0  0
  188.6950  178.7700  136.6950 O   0  0  0  0  0  0  0  0  0  0  0  0
  187.6860  176.7060  136.9090 O   0  0  0  0  0  0  0  0  0  0  0  0
  187.8060  176.0170  135.6730 C   0  0  0  0  0  1  0  0  0  0  0  0
  190.9630  176.1540  136.9370 O   0  0  0  0  0  0  0  0  0  0  0  0
  190.8170  176.6760  138.0770 C   0  0  0  0  0  0  0  0  0  0  0  0
  193.0490  177.1320  138.7570 O   0  0  0  0  0  1  0  0  0  0  0  0
  191.8540  176.5840  139.0050 O   0  0  0  0  0  0  0  0  0  0  0  0
  190.0280  178.0400  143.2010 C   0  0  2  0  0  3  0  0  0  0  0  0
  191.3180  178.5790  143.1490 O   0  0  0  0  0  0  0  0  0  0  0  0
  191.2680  179.7080  143.9690 C   0  0  0  0  0  1  0  0  0  0  0  0
  188.8130  176.0210  143.6980 O   0  0  0  0  0  1  0  0  0  0  0  0
  190.0510  176.6510  143.8500 C   0  0  2  0  0  3  0  0  0  0  0  0
  188.2810  177.4700  146.1760 O   0  0  0  0  0  0  0  0  0  0  0  0
  192.4040  176.2960  148.0740 O   0  0  0  0  0  0  0  0  0  0  0  0
  191.5720  176.3900  145.8240 C   0  0  0  0  0  3  0  0  0  0  0  0
  189.4740  177.1150  146.3630 C   0  0  0  0  0  0  0  0  0  0  0  0
  191.4670  176.5520  147.2740 C   0  0  0  0  0  0  0  0  0  0  0  0
  190.4030  176.7370  145.3050 C   0  0  0  0  0  0  0  0  0  0  0  0
  190.1220  177.0310  147.6960 C   0  0  0  0  0  2  0  0  0  0  0  0
  184.4300  179.3030  139.2020 C   0  0  0  0  0  2  0  0  0  0  0  0
  182.1340  179.0770  140.1820 C   0  0  0  0  0  3  0  0  0  0  0  0
  180.9970  176.9380  140.2170 C   0  0  0  0  0  3  0  0  0  0  0  0
  182.0980  176.3420  139.5950 C   0  0  0  0  0  3  0  0  0  0  0  0
  183.2180  177.1120  139.2670 C   0  0  0  0  0  3  0  0  0  0  0  0
  181.0140  178.3050  140.5100 C   0  0  0  0  0  3  0  0  0  0  0  0
  183.2390  178.4800  139.5630 C   0  0  0  0  0  0  0  0  0  0  0  0
  1  9  1  0  0  0  0
  1  2  1  0  0  0  0
  2  5  2  0  0  0  0
  4  7  1  0  0  0  0
  4  9  1  0  0  0  0
  5 18  1  0  0  0  0
  6  1  2  0  0  0  0
  7  3  2  0  0  0  0
  8  5  1  0  0  0  0
  9  8  2  0  0  0  0
 10  6  1  0  0  0  0
 11 10  2  0  0  0  0
 12 10  1  0  0  0  0
 13 12  1  0  0  0  0
 14 15  2  0  0  0  0
 15  6  1  0  0  0  0
 15 17  1  0  0  0  0
 16 17  1  0  0  0  0
 18 19  1  6  0  0  0
 18 22  1  0  0  0  0
 19 20  1  0  0  0  0
 22 21  1  1  0  0  0
 22 28  1  0  0  0  0
 23 26  2  0  0  0  0
 25 27  1  0  0  0  0
 26 29  1  0  0  0  0
 27 29  1  0  0  0  0
 27 24  2  0  0  0  0
 28 25  2  0  0  0  0
 28 26  1  0  0  0  0
 30 36  1  0  0  0  0
 30  7  1  0  0  0  0
 31 35  1  0  0  0  0
 32 35  2  0  0  0  0
 33 32  1  0  0  0  0
 34 36  1  0  0  0  0
 34 33  2  0  0  0  0
 36 31  2  0  0  0  0
M  END
>  <MODEL>
9

>  <REMARK>
 VINA RESULT:      -7.2      1.422      2.279
  Name = 
  10 active torsions:
  status: ('A' for Active; 'I' for Inactive)
    1  A    between atoms: C_3  and  O_8
    2  A    between atoms: C_3  and  C_25
    3  A    between atoms: O_11  and  C_15
    4  A    between atoms: C_15  and  C_22
    5  A    between atoms: C_15  and  C_30
    6  A    between atoms: C_20  and  C_29
    7  A    between atoms: C_20  and  C_32
    8  A    between atoms: C_25  and  C_35
    9  A    between atoms: O_27  and  C_35
   10  A    between atoms: C_28  and  C_30
                            x       y       z     vdW  Elec       q    Type
                         _______ _______ _______ _____ _____    ______ ____

>  <TORSDO>
F 10

$$$$
