=
 OpenBabel11062414573D

 51 58  0  0  1  0  0  0  0  0999 V2000
  192.7850  176.3040  135.6410 C   0  0  0  0  0  2  0  0  0  0  0  0
  193.9800  175.4990  135.1440 C   0  0  0  0  0  2  0  0  0  0  0  0
  185.6350  178.7090  144.5380 N   0  0  0  0  0  0  0  0  0  0  0  0
  193.2220  173.5190  136.5210 C   0  0  1  0  0  3  0  0  0  0  0  0
  189.8840  176.2130  137.4470 C   0  0  0  0  0  0  0  0  0  0  0  0
  185.4910  178.5110  140.7780 C   0  0  2  0  0  3  0  0  0  0  0  0
  194.4210  173.4320  137.4520 C   0  0  0  0  0  1  0  0  0  0  0  0
  186.6380  178.7940  145.6120 C   0  0  2  0  0  3  0  0  0  0  0  0
  188.3270  177.8500  144.0380 C   0  0  1  0  0  3  0  0  0  0  0  0
  186.0060  178.2470  143.2200 C   0  0  0  0  0  0  0  0  0  0  0  0
  187.1940  175.2510  137.2080 O   0  0  0  0  0  0  0  0  0  0  0  0
  190.7550  174.1020  136.5500 C   0  0  0  0  0  0  0  0  0  0  0  0
  184.9760  176.9570  136.9900 C   0  0  0  0  0  2  0  0  0  0  0  0
  188.9060  177.1460  141.1500 O   0  0  0  0  0  0  0  0  0  0  0  0
  190.5240  173.0150  135.9500 O   0  0  0  0  0  0  0  0  0  0  0  0
  192.1100  174.3820  137.1410 C   0  0  2  0  0  3  0  0  0  0  0  0
  191.8580  177.3770  141.0500 O   0  0  0  0  0  1  0  0  0  0  0  0
  187.7050  177.7300  145.4200 C   0  0  0  0  0  2  0  0  0  0  0  0
  186.7970  177.8950  140.5810 N   0  0  0  0  0  0  0  0  0  0  0  0
  187.6470  177.6330  141.5180 C   0  0  0  0  0  0  0  0  0  0  0  0
  191.6940  177.4510  138.7870 O   0  0  0  0  0  0  0  0  0  0  0  0
  192.4380  175.8800  137.0650 C   0  0  2  0  0  3  0  0  0  0  0  0
  184.8070  178.7760  138.5720 C   0  0  1  0  0  3  0  0  0  0  0  0
  184.0320  178.0470  137.4840 C   0  0  0  0  0  2  0  0  0  0  0  0
  184.9420  178.1280  142.1510 C   0  0  0  0  0  2  0  0  0  0  0  0
  189.3060  176.6970  143.8880 C   0  0  0  0  0  1  0  0  0  0  0  0
  189.7130  175.0100  136.7480 O   0  0  0  0  0  0  0  0  0  0  0  0
  190.8820  175.6280  140.0010 O   0  0  0  0  0  1  0  0  0  0  0  0
  191.0510  177.0180  139.9690 C   0  0  0  0  0  0  0  0  0  0  0  0
  184.6200  178.0410  139.7740 O   0  0  0  0  0  0  0  0  0  0  0  0
  191.3080  176.7570  137.6120 C   0  0  1  0  0  3  0  0  0  0  0  0
  187.2730  177.8500  142.9460 C   0  0  0  0  0  0  0  0  0  0  0  0
  186.3090  177.3920  137.3830 N   0  0  0  0  0  0  0  0  0  0  0  0
  188.9880  178.0650  138.8000 C   0  0  0  0  0  2  0  0  0  0  0  0
  189.7100  177.7420  140.1260 C   0  0  1  0  0  3  0  0  0  0  0  0
  193.6430  174.0130  135.1350 C   0  0  0  0  0  2  0  0  0  0  0  0
  188.7970  176.8770  137.9000 C   0  0  0  0  0  0  0  0  0  0  0  0
  186.2410  178.6810  138.0420 C   0  0  0  0  0  2  0  0  0  0  0  0
  187.4080  176.4580  137.5030 C   0  0  0  0  0  0  0  0  0  0  0  0
  184.3960  179.4730  144.6730 C   0  0  0  0  0  2  0  0  0  0  0  0
  183.2070  178.5330  144.6950 C   0  0  0  0  0  2  0  0  0  0  0  0
  181.9820  179.2750  144.4370 N   0  0  0  0  0  2  0  0  0  0  0  0
  181.6070  179.0030  143.0630 C   0  0  2  0  0  3  0  0  0  0  0  0
  180.8050  180.0060  142.5960 O   0  0  0  0  0  0  0  0  0  0  0  0
  179.3150  177.8780  143.2000 O   0  0  0  0  0  0  0  0  0  0  0  0
  180.2730  178.6750  143.0170 C   0  0  0  0  0  0  0  0  0  0  0  0
  185.9960  178.6100  146.9790 C   0  0  0  0  0  2  0  0  0  0  0  0
  186.8770  179.2240  148.0530 C   0  0  0  0  0  2  0  0  0  0  0  0
  189.2140  178.6280  148.4690 O   0  0  0  0  0  0  0  0  0  0  0  0
  187.8900  178.2680  148.4700 N   0  0  0  0  0  0  0  0  0  0  0  0
  187.5560  177.1260  148.8430 O   0  0  0  0  0  0  0  0  0  0  0  0
  2  1  1  0  0  0  0
  3 40  1  0  0  0  0
  3  8  1  0  0  0  0
  4 16  1  0  0  0  0
  4  7  1  1  0  0  0
  5 37  2  0  0  0  0
  6 25  1  1  0  0  0
  8 47  1  1  0  0  0
  9 26  1  6  0  0  0
  9 18  1  0  0  0  0
 10  3  1  0  0  0  0
 11 39  2  0  0  0  0
 12 27  1  0  0  0  0
 13 33  1  0  0  0  0
 13 24  1  0  0  0  0
 14 20  1  0  0  0  0
 15 12  2  0  0  0  0
 16 12  1  6  0  0  0
 18  8  1  0  0  0  0
 19  6  1  0  0  0  0
 19 20  2  0  0  0  0
 20 32  1  0  0  0  0
 21 29  1  0  0  0  0
 22  1  1  6  0  0  0
 22 16  1  0  0  0  0
 22 31  1  0  0  0  0
 23 24  1  6  0  0  0
 23 30  1  0  0  0  0
 25 10  1  0  0  0  0
 27  5  1  0  0  0  0
 29 28  1  0  0  0  0
 29 35  1  0  0  0  0
 29 17  1  0  0  0  0
 30  6  1  0  0  0  0
 31  5  1  1  0  0  0
 31 21  1  0  0  0  0
 32 10  2  0  0  0  0
 32  9  1  0  0  0  0
 33 39  1  0  0  0  0
 33 38  1  0  0  0  0
 35 34  1  6  0  0  0
 35 14  1  0  0  0  0
 36  2  1  0  0  0  0
 36  4  1  0  0  0  0
 37 34  1  0  0  0  0
 38 23  1  0  0  0  0
 39 37  1  0  0  0  0
 40 41  1  0  0  0  0
 42 41  1  0  0  0  0
 43 42  1  1  0  0  0
 44 46  1  0  0  0  0
 44 43  1  0  0  0  0
 46 43  1  0  0  0  0
 46 45  2  0  0  0  0
 47 48  1  0  0  0  0
 48 50  1  0  0  0  0
 49 50  2  0  0  0  0
 50 51  2  0  0  0  0
M  END
>  <MODEL>
1

>  <REMARK>
 VINA RESULT:      -8.4      0.000      0.000
  Name = 
  7 active torsions:
  status: ('A' for Active; 'I' for Inactive)
    1  A    between atoms: N_3  and  C_23
    2  A    between atoms: C_4  and  N_37
    3  A    between atoms: C_9  and  N_35
    4  A    between atoms: C_9  and  C_38
    5  A    between atoms: C_10  and  C_38
    6  A    between atoms: C_23  and  C_25
    7  A    between atoms: C_25  and  N_37
                            x       y       z     vdW  Elec       q    Type
                         _______ _______ _______ _____ _____    ______ ____

>  <TORSDO>
F 7

$$$$
=
 OpenBabel11062414573D

 51 58  0  0  1  0  0  0  0  0999 V2000
  194.6520  175.8070  135.7340 C   0  0  0  0  0  2  0  0  0  0  0  0
  195.9630  175.0320  135.7330 C   0  0  0  0  0  2  0  0  0  0  0  0
  185.0700  178.8120  141.6690 N   0  0  0  0  0  0  0  0  0  0  0  0
  194.8800  173.1920  137.0870 C   0  0  1  0  0  3  0  0  0  0  0  0
  191.3430  175.7430  136.5880 C   0  0  0  0  0  0  0  0  0  0  0  0
  186.0810  178.1310  138.1040 C   0  0  2  0  0  3  0  0  0  0  0  0
  195.7400  173.3080  138.3350 C   0  0  0  0  0  1  0  0  0  0  0  0
  185.6960  179.1000  142.9690 C   0  0  2  0  0  3  0  0  0  0  0  0
  187.8090  178.0850  142.1180 C   0  0  1  0  0  3  0  0  0  0  0  0
  185.8370  178.2140  140.5990 C   0  0  2  0  0  3  0  0  0  0  0  0
  188.8810  174.5730  135.7000 O   0  0  0  0  0  0  0  0  0  0  0  0
  192.5050  173.6010  136.2990 C   0  0  0  0  0  0  0  0  0  0  0  0
  186.7870  176.0800  134.5940 C   0  0  0  0  0  2  0  0  0  0  0  0
  189.2590  177.0650  139.6620 O   0  0  0  0  0  0  0  0  0  0  0  0
  192.4980  172.4340  135.8170 O   0  0  0  0  0  0  0  0  0  0  0  0
  193.6080  174.0470  137.2210 C   0  0  2  0  0  3  0  0  0  0  0  0
  192.0930  177.4870  140.4130 O   0  0  0  0  0  1  0  0  0  0  0  0
  186.8010  178.0980  143.2550 C   0  0  0  0  0  2  0  0  0  0  0  0
  187.4030  177.5870  138.3930 N   0  0  0  0  0  0  0  0  0  0  0  0
  187.9350  177.5060  139.5670 C   0  0  0  0  0  0  0  0  0  0  0  0
  192.6240  177.2630  138.2170 O   0  0  0  0  0  0  0  0  0  0  0  0
  193.9010  175.5430  137.0340 C   0  0  2  0  0  3  0  0  0  0  0  0
  186.0940  178.0670  135.7800 C   0  0  1  0  0  3  0  0  0  0  0  0
  185.7070  177.1550  134.6250 C   0  0  0  0  0  2  0  0  0  0  0  0
  185.1530  177.8870  139.2910 C   0  0  0  0  0  2  0  0  0  0  0  0
  188.8200  176.9930  142.4310 C   0  0  0  0  0  1  0  0  0  0  0  0
  191.4260  174.4520  136.0480 O   0  0  0  0  0  0  0  0  0  0  0  0
  191.5330  175.5560  139.3800 O   0  0  0  0  0  1  0  0  0  0  0  0
  191.6650  176.9380  139.2040 C   0  0  0  0  0  0  0  0  0  0  0  0
  185.5710  177.4790  136.9630 O   0  0  0  0  0  0  0  0  0  0  0  0
  192.6330  176.4010  137.0910 C   0  0  1  0  0  3  0  0  0  0  0  0
  187.1380  177.8740  140.7740 C   0  0  1  0  0  3  0  0  0  0  0  0
  187.9240  176.6530  135.2990 N   0  0  0  0  0  0  0  0  0  0  0  0
  190.0260  177.6840  137.3380 C   0  0  0  0  0  2  0  0  0  0  0  0
  190.3190  177.5820  138.8510 C   0  0  1  0  0  3  0  0  0  0  0  0
  195.6870  173.5360  135.8340 C   0  0  0  0  0  2  0  0  0  0  0  0
  190.1510  176.3820  136.6000 C   0  0  0  0  0  0  0  0  0  0  0  0
  187.6230  178.0060  135.7190 C   0  0  0  0  0  2  0  0  0  0  0  0
  188.9610  175.8200  135.8710 C   0  0  0  0  0  0  0  0  0  0  0  0
  183.8280  179.4980  141.3200 C   0  0  0  0  0  2  0  0  0  0  0  0
  182.6670  178.5240  141.3630 C   0  0  0  0  0  2  0  0  0  0  0  0
  181.5940  179.0650  142.1850 N   0  0  0  0  0  2  0  0  0  0  0  0
  180.3700  178.9270  141.4210 C   0  0  2  0  0  3  0  0  0  0  0  0
  180.6670  178.6200  140.1220 O   0  0  0  0  0  0  0  0  0  0  0  0
  180.0150  181.2000  140.3040 O   0  0  0  0  0  0  0  0  0  0  0  0
  180.2580  179.9900  140.5560 C   0  0  0  0  0  0  0  0  0  0  0  0
  184.6750  179.0460  144.0950 C   0  0  0  0  0  2  0  0  0  0  0  0
  185.2740  179.6170  145.3680 C   0  0  0  0  0  2  0  0  0  0  0  0
  186.5010  178.0330  146.7730 O   0  0  0  0  0  0  0  0  0  0  0  0
  185.3060  178.5950  146.4020 N   0  0  0  0  0  0  0  0  0  0  0  0
  184.2510  178.2410  146.9640 O   0  0  0  0  0  0  0  0  0  0  0  0
  2  1  1  0  0  0  0
  2 36  1  0  0  0  0
  3  8  1  0  0  0  0
  4 16  1  0  0  0  0
  4  7  1  1  0  0  0
  5 37  2  0  0  0  0
  6 19  1  0  0  0  0
  6 25  1  1  0  0  0
  8 18  1  0  0  0  0
  8 47  1  1  0  0  0
  9 26  1  1  0  0  0
  9 18  1  0  0  0  0
 10 25  1  1  0  0  0
 10 32  1  0  0  0  0
 10  3  1  0  0  0  0
 11 39  2  0  0  0  0
 13 24  1  0  0  0  0
 13 33  1  0  0  0  0
 15 12  2  0  0  0  0
 16 12  1  6  0  0  0
 19 20  2  0  0  0  0
 20 14  1  0  0  0  0
 21 29  1  0  0  0  0
 22  1  1  6  0  0  0
 22 31  1  0  0  0  0
 22 16  1  0  0  0  0
 23 24  1  6  0  0  0
 23 30  1  0  0  0  0
 27 12  1  0  0  0  0
 27  5  1  0  0  0  0
 29 28  1  0  0  0  0
 29 17  1  0  0  0  0
 30  6  1  0  0  0  0
 31  5  1  1  0  0  0
 31 21  1  0  0  0  0
 32 20  1  6  0  0  0
 32  9  1  0  0  0  0
 33 38  1  0  0  0  0
 33 39  1  0  0  0  0
 35 34  1  6  0  0  0
 35 29  1  0  0  0  0
 35 14  1  0  0  0  0
 36  4  1  0  0  0  0
 37 34  1  0  0  0  0
 38 23  1  0  0  0  0
 39 37  1  0  0  0  0
 40 41  1  0  0  0  0
 40  3  1  0  0  0  0
 41 42  1  0  0  0  0
 43 42  1  1  0  0  0
 44 46  1  0  0  0  0
 44 43  1  0  0  0  0
 45 46  2  0  0  0  0
 46 43  1  0  0  0  0
 47 48  1  0  0  0  0
 48 50  1  0  0  0  0
 50 49  2  0  0  0  0
 50 51  2  0  0  0  0
M  END
>  <MODEL>
2

>  <REMARK>
 VINA RESULT:      -7.1      1.808      2.478
  Name = 
  7 active torsions:
  status: ('A' for Active; 'I' for Inactive)
    1  A    between atoms: N_3  and  C_23
    2  A    between atoms: C_4  and  N_37
    3  A    between atoms: C_9  and  N_35
    4  A    between atoms: C_9  and  C_38
    5  A    between atoms: C_10  and  C_38
    6  A    between atoms: C_23  and  C_25
    7  A    between atoms: C_25  and  N_37
                            x       y       z     vdW  Elec       q    Type
                         _______ _______ _______ _____ _____    ______ ____

>  <TORSDO>
F 7

$$$$
=
 OpenBabel11062414573D

 51 58  0  0  1  0  0  0  0  0999 V2000
  190.9520  179.0040  143.2820 C   0  0  0  0  0  2  0  0  0  0  0  0
  191.5320  178.8520  144.6820 C   0  0  0  0  0  2  0  0  0  0  0  0
  181.6700  177.6760  136.3430 N   0  0  0  0  0  0  0  0  0  0  0  0
  190.2090  176.7210  145.0010 C   0  0  1  0  0  3  0  0  0  0  0  0
  189.0320  177.5510  140.8550 C   0  0  0  0  0  0  0  0  0  0  0  0
  185.4260  177.5010  136.0940 C   0  0  2  0  0  3  0  0  0  0  0  0
  189.3340  177.1810  146.1550 C   0  0  0  0  0  1  0  0  0  0  0  0
  180.6370  178.1950  137.2540 C   0  0  2  0  0  3  0  0  0  0  0  0
  182.3190  178.1660  139.0950 C   0  0  1  0  0  3  0  0  0  0  0  0
  183.0210  177.4610  136.8100 C   0  0  2  0  0  3  0  0  0  0  0  0
  189.1980  175.4600  138.9020 O   0  0  0  0  0  0  0  0  0  0  0  0
  190.0520  176.0980  142.5480 C   0  0  0  0  0  0  0  0  0  0  0  0
  189.2500  175.9520  136.1390 C   0  0  0  0  0  2  0  0  0  0  0  0
  185.2560  177.8610  139.7690 O   0  0  0  0  0  0  0  0  0  0  0  0
  190.6870  175.0380  142.8100 O   0  0  0  0  0  0  0  0  0  0  0  0
  189.5080  176.9620  143.6540 C   0  0  2  0  0  3  0  0  0  0  0  0
  185.4690  179.4320  142.2720 O   0  0  0  0  0  1  0  0  0  0  0  0
  180.9180  177.7480  138.6780 C   0  0  0  0  0  2  0  0  0  0  0  0
  185.7030  177.5610  137.5240 N   0  0  0  0  0  0  0  0  0  0  0  0
  184.8150  177.7050  138.4510 C   0  0  0  0  0  0  0  0  0  0  0  0
  187.7190  179.4620  141.9650 O   0  0  0  0  0  0  0  0  0  0  0  0
  189.5350  178.4430  143.2500 C   0  0  2  0  0  3  0  0  0  0  0  0
  187.5880  177.4590  135.2420 C   0  0  1  0  0  3  0  0  0  0  0  0
  188.6730  176.4740  134.8290 C   0  0  0  0  0  2  0  0  0  0  0  0
  184.0480  176.8830  135.8620 C   0  0  0  0  0  2  0  0  0  0  0  0
  182.5580  177.5980  140.4850 C   0  0  0  0  0  1  0  0  0  0  0  0
  189.7730  176.4180  141.2180 O   0  0  0  0  0  0  0  0  0  0  0  0
  186.5490  177.4480  142.1540 O   0  0  0  0  0  1  0  0  0  0  0  0
  186.5300  178.7590  141.6620 C   0  0  0  0  0  0  0  0  0  0  0  0
  186.4110  176.7000  135.4820 O   0  0  0  0  0  0  0  0  0  0  0  0
  188.9040  178.6890  141.8770 C   0  0  1  0  0  3  0  0  0  0  0  0
  183.3640  177.6990  138.1000 C   0  0  1  0  0  3  0  0  0  0  0  0
  188.8970  176.9470  137.1410 N   0  0  0  0  0  0  0  0  0  0  0  0
  187.5660  178.7560  139.2850 C   0  0  0  0  0  2  0  0  0  0  0  0
  186.2860  178.7790  140.1490 C   0  0  1  0  0  3  0  0  0  0  0  0
  191.5900  177.3780  145.0680 C   0  0  0  0  0  2  0  0  0  0  0  0
  188.5060  177.6300  139.6120 C   0  0  0  0  0  0  0  0  0  0  0  0
  188.1810  178.0460  136.5250 C   0  0  0  0  0  2  0  0  0  0  0  0
  188.8620  176.6240  138.5520 C   0  0  0  0  0  0  0  0  0  0  0  0
  181.4520  177.7790  134.9020 C   0  0  0  0  0  2  0  0  0  0  0  0
  180.5720  178.9740  134.5940 C   0  0  0  0  0  2  0  0  0  0  0  0
  181.3690  180.1920  134.5940 N   0  0  0  0  0  2  0  0  0  0  0  0
  180.4430  181.3010  134.7080 C   0  0  2  0  0  3  0  0  0  0  0  0
  181.1340  182.4800  134.7260 O   0  0  0  0  0  0  0  0  0  0  0  0
  180.3640  181.8580  137.2020 O   0  0  0  0  0  0  0  0  0  0  0  0
  180.5620  181.8590  135.9580 C   0  0  0  0  0  0  0  0  0  0  0  0
  179.2530  177.7120  136.8470 C   0  0  0  0  0  2  0  0  0  0  0  0
  178.9390  176.3950  137.5360 C   0  0  0  0  0  2  0  0  0  0  0  0
  180.5960  174.6210  137.2210 O   0  0  0  0  0  0  0  0  0  0  0  0
  179.4880  175.2890  136.7660 N   0  0  0  0  0  0  0  0  0  0  0  0
  178.9430  174.9390  135.7010 O   0  0  0  0  0  0  0  0  0  0  0  0
  1  2  1  0  0  0  0
  2 36  1  0  0  0  0
  3 10  1  0  0  0  0
  3  8  1  0  0  0  0
  4 36  1  0  0  0  0
  4  7  1  1  0  0  0
  5 27  1  0  0  0  0
  6 25  1  1  0  0  0
  6 19  1  0  0  0  0
  8 47  1  6  0  0  0
  8 18  1  0  0  0  0
  9 26  1  1  0  0  0
 10 25  1  1  0  0  0
 10 32  1  0  0  0  0
 12 15  2  0  0  0  0
 13 33  1  0  0  0  0
 14 35  1  0  0  0  0
 16 12  1  6  0  0  0
 16  4  1  0  0  0  0
 18  9  1  0  0  0  0
 19 20  2  0  0  0  0
 20 14  1  0  0  0  0
 22  1  1  6  0  0  0
 22 16  1  0  0  0  0
 23 24  1  1  0  0  0
 23 30  1  0  0  0  0
 23 38  1  0  0  0  0
 24 13  1  0  0  0  0
 27 12  1  0  0  0  0
 29 21  1  0  0  0  0
 29 28  1  0  0  0  0
 29 17  1  0  0  0  0
 30  6  1  0  0  0  0
 31  5  1  1  0  0  0
 31 21  1  0  0  0  0
 31 22  1  0  0  0  0
 32 20  1  6  0  0  0
 32  9  1  0  0  0  0
 33 39  1  0  0  0  0
 34 37  1  0  0  0  0
 35 34  1  6  0  0  0
 35 29  1  0  0  0  0
 37  5  2  0  0  0  0
 38 33  1  0  0  0  0
 39 11  2  0  0  0  0
 39 37  1  0  0  0  0
 40  3  1  0  0  0  0
 41 42  1  0  0  0  0
 41 40  1  0  0  0  0
 43 42  1  1  0  0  0
 43 44  1  0  0  0  0
 43 46  1  0  0  0  0
 44 46  1  0  0  0  0
 46 45  2  0  0  0  0
 47 48  1  0  0  0  0
 50 49  2  0  0  0  0
 50 48  1  0  0  0  0
 51 50  2  0  0  0  0
M  END
>  <MODEL>
3

>  <REMARK>
 VINA RESULT:      -6.3      3.803      7.941
  Name = 
  7 active torsions:
  status: ('A' for Active; 'I' for Inactive)
    1  A    between atoms: N_3  and  C_23
    2  A    between atoms: C_4  and  N_37
    3  A    between atoms: C_9  and  N_35
    4  A    between atoms: C_9  and  C_38
    5  A    between atoms: C_10  and  C_38
    6  A    between atoms: C_23  and  C_25
    7  A    between atoms: C_25  and  N_37
                            x       y       z     vdW  Elec       q    Type
                         _______ _______ _______ _____ _____    ______ ____

>  <TORSDO>
F 7

$$$$
=
 OpenBabel11062414573D

 51 58  0  0  1  0  0  0  0  0999 V2000
  180.3990  177.4990  135.9520 C   0  0  0  0  0  2  0  0  0  0  0  0
  179.3250  176.8100  135.1210 C   0  0  0  0  0  2  0  0  0  0  0  0
  191.3280  177.1730  140.0160 N   0  0  0  0  0  0  0  0  0  0  0  0
  180.1350  174.5580  135.9340 C   0  0  1  0  0  3  0  0  0  0  0  0
  182.8710  177.0680  138.2740 C   0  0  0  0  0  0  0  0  0  0  0  0
  187.9490  178.4270  141.1110 C   0  0  2  0  0  3  0  0  0  0  0  0
  180.5720  173.9890  134.5940 C   0  0  0  0  0  1  0  0  0  0  0  0
  192.0080  176.7300  138.7880 C   0  0  2  0  0  3  0  0  0  0  0  0
  189.7740  176.2620  137.7820 C   0  0  1  0  0  3  0  0  0  0  0  0
  189.8850  177.2040  140.0880 C   0  0  2  0  0  3  0  0  0  0  0  0
  183.1650  176.5840  141.0840 O   0  0  0  0  0  0  0  0  0  0  0  0
  181.1090  175.3670  138.1310 C   0  0  0  0  0  0  0  0  0  0  0  0
  184.2110  178.4890  142.8600 C   0  0  0  0  0  2  0  0  0  0  0  0
  186.7850  176.6400  138.0920 O   0  0  0  0  0  0  0  0  0  0  0  0
  180.2860  174.6220  138.7330 O   0  0  0  0  0  0  0  0  0  0  0  0
  181.3130  175.2450  136.6450 C   0  0  2  0  0  3  0  0  0  0  0  0
  185.8680  176.5500  135.2770 O   0  0  0  0  0  1  0  0  0  0  0  0
  191.1600  175.7020  138.0590 C   0  0  0  0  0  2  0  0  0  0  0  0
  187.1700  177.7850  140.0590 N   0  0  0  0  0  0  0  0  0  0  0  0
  187.6600  177.0930  139.0850 C   0  0  0  0  0  0  0  0  0  0  0  0
  183.9200  177.4910  135.9660 O   0  0  0  0  0  0  0  0  0  0  0  0
  181.6380  176.6120  136.0260 C   0  0  2  0  0  3  0  0  0  0  0  0
  186.2740  179.5820  142.2370 C   0  0  1  0  0  3  0  0  0  0  0  0
  185.3000  179.4130  143.3940 C   0  0  0  0  0  2  0  0  0  0  0  0
  189.2170  177.6200  141.3790 C   0  0  0  0  0  2  0  0  0  0  0  0
  188.9610  175.1460  137.1450 C   0  0  0  0  0  1  0  0  0  0  0  0
  181.9030  176.2460  138.8690 O   0  0  0  0  0  0  0  0  0  0  0  0
  184.6550  175.4510  136.8360 O   0  0  0  0  0  1  0  0  0  0  0  0
  185.0310  176.7200  136.3800 C   0  0  0  0  0  0  0  0  0  0  0  0
  187.1640  178.4750  142.2810 O   0  0  0  0  0  0  0  0  0  0  0  0
  182.7610  177.3410  136.7690 C   0  0  1  0  0  3  0  0  0  0  0  0
  189.1220  176.7960  139.0440 C   0  0  1  0  0  3  0  0  0  0  0  0
  184.2970  178.5870  141.4100 N   0  0  0  0  0  0  0  0  0  0  0  0
  184.9630  178.3620  138.3860 C   0  0  0  0  0  2  0  0  0  0  0  0
  185.8210  177.4810  137.4510 C   0  0  1  0  0  3  0  0  0  0  0  0
  178.9310  175.4870  135.7660 C   0  0  0  0  0  2  0  0  0  0  0  0
  183.8280  177.6320  139.0460 C   0  0  0  0  0  0  0  0  0  0  0  0
  185.3300  179.5300  141.0320 C   0  0  0  0  0  2  0  0  0  0  0  0
  183.7600  177.5570  140.5460 C   0  0  0  0  0  0  0  0  0  0  0  0
  192.0790  177.9670  140.9870 C   0  0  0  0  0  2  0  0  0  0  0  0
  192.1650  177.2260  142.3070 C   0  0  0  0  0  2  0  0  0  0  0  0
  191.7300  178.0930  143.3920 N   0  0  0  0  0  2  0  0  0  0  0  0
  191.5150  177.2440  144.5470 C   0  0  2  0  0  3  0  0  0  0  0  0
  190.7170  176.1890  144.2040 O   0  0  0  0  0  0  0  0  0  0  0  0
  189.2810  178.0010  145.5330 O   0  0  0  0  0  0  0  0  0  0  0  0
  190.2110  177.3720  144.9630 C   0  0  0  0  0  0  0  0  0  0  0  0
  193.3650  176.1190  139.1020 C   0  0  0  0  0  2  0  0  0  0  0  0
  194.0500  175.6860  137.8170 C   0  0  0  0  0  2  0  0  0  0  0  0
  195.7420  174.3530  138.9790 O   0  0  0  0  0  0  0  0  0  0  0  0
  194.7550  174.4310  138.0290 N   0  0  0  0  0  0  0  0  0  0  0  0
  194.4530  173.4240  137.3600 O   0  0  0  0  0  0  0  0  0  0  0  0
  2 36  1  0  0  0  0
  2  1  1  0  0  0  0
  3 10  1  0  0  0  0
  3 40  1  0  0  0  0
  4  7  1  6  0  0  0
  4 16  1  0  0  0  0
  5 27  1  0  0  0  0
  5 37  2  0  0  0  0
  6 25  1  1  0  0  0
  6 30  1  0  0  0  0
  8 47  1  1  0  0  0
  8  3  1  0  0  0  0
  9 26  1  1  0  0  0
  9 18  1  0  0  0  0
  9 32  1  0  0  0  0
 10 25  1  1  0  0  0
 12 15  2  0  0  0  0
 12 27  1  0  0  0  0
 13 24  1  0  0  0  0
 14 20  1  0  0  0  0
 16 12  1  1  0  0  0
 17 29  1  0  0  0  0
 18  8  1  0  0  0  0
 19  6  1  0  0  0  0
 20 19  2  0  0  0  0
 21 29  1  0  0  0  0
 22  1  1  1  0  0  0
 22 16  1  0  0  0  0
 22 31  1  0  0  0  0
 23 38  1  6  0  0  0
 23 30  1  0  0  0  0
 23 24  1  0  0  0  0
 29 28  1  0  0  0  0
 29 35  1  0  0  0  0
 31 21  1  6  0  0  0
 31  5  1  0  0  0  0
 32 20  1  6  0  0  0
 32 10  1  0  0  0  0
 33 13  1  0  0  0  0
 34 37  1  0  0  0  0
 35 14  1  0  0  0  0
 35 34  1  1  0  0  0
 36  4  1  0  0  0  0
 37 39  1  0  0  0  0
 38 33  1  0  0  0  0
 39 11  2  0  0  0  0
 39 33  1  0  0  0  0
 40 41  1  0  0  0  0
 41 42  1  0  0  0  0
 43 42  1  6  0  0  0
 43 46  1  0  0  0  0
 44 43  1  0  0  0  0
 44 46  1  0  0  0  0
 46 45  2  0  0  0  0
 48 50  1  0  0  0  0
 48 47  1  0  0  0  0
 50 49  2  0  0  0  0
 51 50  2  0  0  0  0
M  END
>  <MODEL>
4

>  <REMARK>
 VINA RESULT:      -5.5      3.254      8.836
  Name = 
  7 active torsions:
  status: ('A' for Active; 'I' for Inactive)
    1  A    between atoms: N_3  and  C_23
    2  A    between atoms: C_4  and  N_37
    3  A    between atoms: C_9  and  N_35
    4  A    between atoms: C_9  and  C_38
    5  A    between atoms: C_10  and  C_38
    6  A    between atoms: C_23  and  C_25
    7  A    between atoms: C_25  and  N_37
                            x       y       z     vdW  Elec       q    Type
                         _______ _______ _______ _____ _____    ______ ____

>  <TORSDO>
F 7

$$$$
