=
 OpenBabel11062414273D

 50 55  0  0  1  0  0  0  0  0999 V2000
  184.6960  178.8970  141.9840 C   0  0  1  0  0  0  0  0  0  0  0  0
  184.3330  177.5400  142.0590 O   0  0  0  0  0  0  0  0  0  0  0  0
  183.3210  178.4340  141.6330 C   0  0  2  0  0  3  0  0  0  0  0  0
  184.8990  179.5530  143.3350 C   0  0  0  0  0  1  0  0  0  0  0  0
  185.5490  179.2440  140.9120 O   0  0  0  0  0  0  0  0  0  0  0  0
  186.8770  179.1850  141.3590 C   0  0  0  0  0  2  0  0  0  0  0  0
  187.8790  178.1770  139.3080 C   0  0  0  0  0  1  0  0  0  0  0  0
  187.5320  177.9490  140.7680 C   0  0  1  0  0  3  0  0  0  0  0  0
  188.7230  177.5990  141.5280 N   0  0  0  0  0  2  0  0  0  0  0  0
  188.6680  176.6710  142.6120 C   0  0  0  0  0  0  0  0  0  0  0  0
  187.5930  176.0940  142.9040 O   0  0  0  0  0  0  0  0  0  0  0  0
  189.8990  176.3590  143.3810 C   0  0  0  0  0  2  0  0  0  0  0  0
  190.1640  177.4200  144.3540 N   0  0  0  0  0  0  0  0  0  0  0  0
  191.6070  178.6620  142.8270 C   0  0  0  0  0  2  0  0  0  0  0  0
  191.5440  179.4160  144.1370 C   0  0  0  0  0  2  0  0  0  0  0  0
  191.5290  177.8960  144.1380 C   0  0  0  0  0  3  0  0  0  0  0  0
  190.0380  176.9230  145.7400 C   0  0  2  0  0  3  0  0  0  0  0  0
  187.7040  177.8420  145.8490 C   0  0  0  0  0  3  0  0  0  0  0  0
  188.8840  177.5100  146.5220 C   0  0  0  0  0  0  0  0  0  0  0  0
  188.9720  177.7320  147.9060 C   0  0  0  0  0  3  0  0  0  0  0  0
  186.6220  178.3910  146.5450 C   0  0  0  0  0  3  0  0  0  0  0  0
  187.8910  178.2770  148.6030 C   0  0  0  0  0  3  0  0  0  0  0  0
  186.7150  178.6070  147.9210 C   0  0  0  0  0  3  0  0  0  0  0  0
  191.3600  177.0200  146.4930 C   0  0  0  0  0  2  0  0  0  0  0  0
  191.9400  175.7250  146.6330 O   0  0  0  0  0  0  0  0  0  0  0  0
  193.1410  175.8530  148.7010 C   0  0  0  0  0  2  0  0  0  0  0  0
  192.3290  175.2030  147.8690 C   0  0  0  0  0  3  0  0  0  0  0  0
  183.1230  178.3110  140.1790 N   0  0  0  0  0  0  0  0  0  0  0  0
  181.2080  180.9120  137.5300 S   0  0  0  0  0  0  0  0  0  0  0  0
  179.5940  179.3780  139.1070 C   0  0  0  0  0  2  0  0  0  0  0  0
  183.4780  180.8740  138.8800 O   0  0  0  0  0  0  0  0  0  0  0  0
  180.1040  181.6080  139.8590 O   0  0  0  0  0  1  0  0  0  0  0  0
  182.0760  179.0580  139.5190 C   0  0  0  0  0  0  0  0  0  0  0  0
  182.3960  180.2540  138.7030 C   0  0  0  0  0  0  0  0  0  0  0  0
  180.7940  178.7100  139.7250 C   0  0  0  0  0  3  0  0  0  0  0  0
  179.8360  180.8340  138.7260 C   0  0  1  0  0  3  0  0  0  0  0  0
  183.4390  176.4310  137.4000 N   0  0  0  0  0  0  0  0  0  0  0  0
  183.0620  175.4440  136.4280 C   0  0  0  0  0  0  0  0  0  0  0  0
  184.7850  177.8100  138.5640 O   0  0  0  0  0  0  0  0  0  0  0  0
  185.3080  177.5210  136.2630 C   0  0  0  0  0  2  0  0  0  0  0  0
  183.7660  175.2570  135.3940 O   0  0  0  0  0  0  0  0  0  0  0  0
  184.5740  177.2650  137.3390 C   0  0  0  0  0  0  0  0  0  0  0  0
  182.8740  176.4820  138.6390 O   0  0  0  0  0  0  0  0  0  0  0  0
  183.7990  177.2490  139.4230 C   0  0  2  0  0  3  0  0  0  0  0  0
  180.2070  172.3690  135.9240 C   0  0  0  0  0  2  0  0  0  0  0  0
  181.0740  174.4810  135.2950 C   0  0  0  0  0  2  0  0  0  0  0  0
  182.1130  173.2890  137.2500 C   0  0  0  0  0  2  0  0  0  0  0  0
  180.8500  172.4330  137.3100 C   0  0  0  0  0  2  0  0  0  0  0  0
  181.8060  174.6520  136.6300 C   0  0  1  0  0  3  0  0  0  0  0  0
  179.8430  173.7150  135.4910 N   0  0  0  0  0  2  0  0  0  0  0  0
  1  2  1  0  0  0  0
  1  4  1  1  0  0  0
  3 28  1  6  0  0  0
  3  1  1  0  0  0  0
  3  2  1  0  0  0  0
  5  6  1  0  0  0  0
  5  1  1  0  0  0  0
  8  7  1  6  0  0  0
  8  6  1  0  0  0  0
  8  9  1  0  0  0  0
  9 10  1  0  0  0  0
 10 11  2  0  0  0  0
 10 12  1  0  0  0  0
 12 13  1  0  0  0  0
 13 17  1  0  0  0  0
 14 15  1  0  0  0  0
 14 16  1  0  0  0  0
 15 16  1  0  0  0  0
 16 13  1  0  0  0  0
 17 24  1  1  0  0  0
 17 19  1  0  0  0  0
 18 19  2  0  0  0  0
 18 21  1  0  0  0  0
 19 20  1  0  0  0  0
 20 22  2  0  0  0  0
 21 23  2  0  0  0  0
 23 22  1  0  0  0  0
 24 25  1  0  0  0  0
 25 27  1  0  0  0  0
 27 26  2  0  0  0  0
 29 34  1  0  0  0  0
 29 36  1  0  0  0  0
 30 35  1  0  0  0  0
 33 35  2  0  0  0  0
 33 28  1  0  0  0  0
 34 31  2  0  0  0  0
 34 33  1  0  0  0  0
 36 30  1  0  0  0  0
 36 32  1  1  0  0  0
 37 43  1  0  0  0  0
 38 37  1  0  0  0  0
 39 44  1  0  0  0  0
 40 42  2  0  0  0  0
 41 38  2  0  0  0  0
 42 37  1  0  0  0  0
 42 39  1  0  0  0  0
 43 44  1  0  0  0  0
 44 28  1  6  0  0  0
 45 48  1  0  0  0  0
 46 50  1  0  0  0  0
 46 49  1  0  0  0  0
 47 48  1  0  0  0  0
 49 38  1  6  0  0  0
 49 47  1  0  0  0  0
 50 45  1  0  0  0  0
M  END
>  <MODEL>
1

>  <REMARK>
 VINA RESULT:      -7.1      0.000      0.000
  Name = 
  16 active torsions:
  status: ('A' for Active; 'I' for Inactive)
    1  A    between atoms: N_2  and  C_37
    2  A    between atoms: C_5  and  C_10
    3  A    between atoms: C_10  and  N_38
    4  A    between atoms: C_10  and  C_43
    5  A    between atoms: C_13  and  C_36
    6  A    between atoms: C_22  and  N_38
    7  A    between atoms: C_25  and  N_29
    8  A    between atoms: O_26  and  C_30
    9  A    between atoms: O_26  and  C_34
   10  A    between atoms: C_27  and  C_35
   11  A    between atoms: N_29  and  C_48
   12  A    between atoms: N_29  and  C_50
   13  A    between atoms: C_33  and  O_47
   14  A    between atoms: C_34  and  C_37
   15  A    between atoms: C_35  and  N_38
   16  A    between atoms: C_43  and  O_47
                            x       y       z     vdW  Elec       q    Type
                         _______ _______ _______ _____ _____    ______ ____

>  <TORSDO>
F 16

$$$$
=
 OpenBabel11062414273D

 50 55  0  0  1  0  0  0  0  0999 V2000
  188.2210  178.1580  137.4430 C   0  0  1  0  0  0  0  0  0  0  0  0
  187.5250  179.3760  137.3350 O   0  0  0  0  0  0  0  0  0  0  0  0
  187.0020  178.2910  136.5910 C   0  0  2  0  0  3  0  0  0  0  0  0
  189.5700  178.1600  136.7530 C   0  0  0  0  0  1  0  0  0  0  0  0
  188.0730  177.4740  138.6710 O   0  0  0  0  0  0  0  0  0  0  0  0
  189.2170  177.7020  139.4510 C   0  0  0  0  0  2  0  0  0  0  0  0
  190.8390  175.9800  138.6560 C   0  0  0  0  0  1  0  0  0  0  0  0
  189.8680  176.3650  139.7580 C   0  0  1  0  0  3  0  0  0  0  0  0
  190.5490  176.4210  141.0420 N   0  0  0  0  0  2  0  0  0  0  0  0
  189.8460  176.2120  142.2680 C   0  0  0  0  0  0  0  0  0  0  0  0
  188.6250  175.9230  142.2610 O   0  0  0  0  0  0  0  0  0  0  0  0
  190.5700  176.3030  143.5600 C   0  0  0  0  0  2  0  0  0  0  0  0
  190.0550  177.4260  144.3440 N   0  0  0  0  0  0  0  0  0  0  0  0
  191.8870  178.7700  143.4520 C   0  0  0  0  0  2  0  0  0  0  0  0
  190.9480  179.6890  144.2010 C   0  0  0  0  0  2  0  0  0  0  0  0
  191.1860  178.2770  144.7090 C   0  0  0  0  0  3  0  0  0  0  0  0
  189.3830  176.9610  145.5760 C   0  0  2  0  0  3  0  0  0  0  0  0
  187.6630  177.9730  147.1010 C   0  0  0  0  0  3  0  0  0  0  0  0
  188.0120  177.5540  145.8130 C   0  0  0  0  0  0  0  0  0  0  0  0
  187.0810  177.6900  144.7700 C   0  0  0  0  0  3  0  0  0  0  0  0
  186.4000  178.5200  147.3500 C   0  0  0  0  0  3  0  0  0  0  0  0
  185.8210  178.2400  145.0170 C   0  0  0  0  0  3  0  0  0  0  0  0
  185.4800  178.6540  146.3090 C   0  0  0  0  0  3  0  0  0  0  0  0
  190.2920  177.0900  146.7940 C   0  0  0  0  0  2  0  0  0  0  0  0
  190.8470  175.8200  147.1270 O   0  0  0  0  0  0  0  0  0  0  0  0
  192.8820  175.9330  148.3850 C   0  0  0  0  0  2  0  0  0  0  0  0
  192.2210  175.6130  147.2730 C   0  0  0  0  0  3  0  0  0  0  0  0
  185.7950  177.7650  137.2510 N   0  0  0  0  0  0  0  0  0  0  0  0
  184.2470  174.6720  134.9080 S   0  0  0  0  0  0  0  0  0  0  0  0
  184.8700  174.0460  137.4890 C   0  0  0  0  0  2  0  0  0  0  0  0
  183.9900  177.2980  135.0350 O   0  0  0  0  0  0  0  0  0  0  0  0
  182.5890  174.6430  137.0010 O   0  0  0  0  0  1  0  0  0  0  0  0
  185.2600  176.4760  136.8740 C   0  0  0  0  0  0  0  0  0  0  0  0
  184.5150  176.3050  135.6040 C   0  0  0  0  0  0  0  0  0  0  0  0
  185.3660  175.4470  137.7340 C   0  0  0  0  0  3  0  0  0  0  0  0
  183.7110  173.9730  136.5020 C   0  0  1  0  0  3  0  0  0  0  0  0
  183.2170  178.2070  139.3760 N   0  0  0  0  0  0  0  0  0  0  0  0
  181.8420  178.2660  139.7840 C   0  0  0  0  0  0  0  0  0  0  0  0
  185.4360  178.5850  139.4460 O   0  0  0  0  0  0  0  0  0  0  0  0
  184.3530  178.2750  141.5390 C   0  0  0  0  0  2  0  0  0  0  0  0
  181.5380  178.4690  140.9940 O   0  0  0  0  0  0  0  0  0  0  0  0
  184.3390  178.3640  140.2150 C   0  0  0  0  0  0  0  0  0  0  0  0
  183.5890  178.2610  138.0660 O   0  0  0  0  0  0  0  0  0  0  0  0
  184.9730  178.6350  138.1010 C   0  0  2  0  0  3  0  0  0  0  0  0
  180.0110  177.1740  136.1340 C   0  0  0  0  0  2  0  0  0  0  0  0
  181.1100  178.7910  137.4710 C   0  0  0  0  0  2  0  0  0  0  0  0
  180.5510  176.5640  138.4950 C   0  0  0  0  0  2  0  0  0  0  0  0
  179.5600  176.3640  137.3510 C   0  0  0  0  0  2  0  0  0  0  0  0
  180.7620  178.0540  138.7670 C   0  0  1  0  0  3  0  0  0  0  0  0
  180.0540  178.5920  136.4780 N   0  0  0  0  0  2  0  0  0  0  0  0
  1  4  1  6  0  0  0
  1  5  1  0  0  0  0
  2  1  1  0  0  0  0
  3 28  1  1  0  0  0
  3  2  1  0  0  0  0
  3  1  1  0  0  0  0
  5  6  1  0  0  0  0
  6  8  1  0  0  0  0
  8  7  1  6  0  0  0
  8  9  1  0  0  0  0
  9 10  1  0  0  0  0
 10 12  1  0  0  0  0
 11 10  2  0  0  0  0
 12 13  1  0  0  0  0
 13 16  1  0  0  0  0
 13 17  1  0  0  0  0
 14 15  1  0  0  0  0
 14 16  1  0  0  0  0
 15 16  1  0  0  0  0
 17 19  1  0  0  0  0
 17 24  1  1  0  0  0
 18 21  1  0  0  0  0
 19 18  2  0  0  0  0
 20 22  2  0  0  0  0
 20 19  1  0  0  0  0
 22 23  1  0  0  0  0
 23 21  2  0  0  0  0
 24 25  1  0  0  0  0
 25 27  1  0  0  0  0
 27 26  2  0  0  0  0
 29 34  1  0  0  0  0
 29 36  1  0  0  0  0
 30 35  1  0  0  0  0
 31 34  2  0  0  0  0
 33 28  1  0  0  0  0
 33 35  2  0  0  0  0
 34 33  1  0  0  0  0
 36 32  1  1  0  0  0
 36 30  1  0  0  0  0
 37 38  1  0  0  0  0
 37 42  1  0  0  0  0
 38 41  2  0  0  0  0
 39 42  1  0  0  0  0
 42 40  2  0  0  0  0
 43 44  1  0  0  0  0
 43 37  1  0  0  0  0
 44 28  1  6  0  0  0
 44 39  1  0  0  0  0
 45 50  1  0  0  0  0
 45 48  1  0  0  0  0
 46 49  1  0  0  0  0
 47 49  1  0  0  0  0
 48 47  1  0  0  0  0
 49 38  1  1  0  0  0
 50 46  1  0  0  0  0
M  END
>  <MODEL>
2

>  <REMARK>
 VINA RESULT:      -6.8      2.194      4.237
  Name = 
  16 active torsions:
  status: ('A' for Active; 'I' for Inactive)
    1  A    between atoms: N_2  and  C_37
    2  A    between atoms: C_5  and  C_10
    3  A    between atoms: C_10  and  N_38
    4  A    between atoms: C_10  and  C_43
    5  A    between atoms: C_13  and  C_36
    6  A    between atoms: C_22  and  N_38
    7  A    between atoms: C_25  and  N_29
    8  A    between atoms: O_26  and  C_30
    9  A    between atoms: O_26  and  C_34
   10  A    between atoms: C_27  and  C_35
   11  A    between atoms: N_29  and  C_48
   12  A    between atoms: N_29  and  C_50
   13  A    between atoms: C_33  and  O_47
   14  A    between atoms: C_34  and  C_37
   15  A    between atoms: C_35  and  N_38
   16  A    between atoms: C_43  and  O_47
                            x       y       z     vdW  Elec       q    Type
                         _______ _______ _______ _____ _____    ______ ____

>  <TORSDO>
F 16

$$$$
=
 OpenBabel11062414273D

 50 55  0  0  1  0  0  0  0  0999 V2000
  180.4310  177.8100  139.7610 C   0  0  1  0  0  0  0  0  0  0  0  0
  180.5170  176.8500  138.7350 O   0  0  0  0  0  0  0  0  0  0  0  0
  179.7370  177.9970  138.4520 C   0  0  2  0  0  3  0  0  0  0  0  0
  179.5980  177.3660  140.9470 C   0  0  0  0  0  1  0  0  0  0  0  0
  181.5980  178.5760  139.9830 O   0  0  0  0  0  0  0  0  0  0  0  0
  182.5110  177.7980  140.7110 C   0  0  0  0  0  2  0  0  0  0  0  0
  182.0510  178.9720  142.8650 C   0  0  0  0  0  1  0  0  0  0  0  0
  183.1020  178.6550  141.8170 C   0  0  1  0  0  3  0  0  0  0  0  0
  184.2400  177.9790  142.4220 N   0  0  0  0  0  2  0  0  0  0  0  0
  185.5250  178.5980  142.4900 C   0  0  0  0  0  0  0  0  0  0  0  0
  185.6910  179.7690  142.0710 O   0  0  0  0  0  0  0  0  0  0  0  0
  186.6680  177.8670  143.0920 C   0  0  0  0  0  2  0  0  0  0  0  0
  186.5310  177.8350  144.5480 N   0  0  0  0  0  0  0  0  0  0  0  0
  184.5620  178.5510  145.8000 C   0  0  0  0  0  2  0  0  0  0  0  0
  185.7850  179.1440  146.4630 C   0  0  0  0  0  2  0  0  0  0  0  0
  185.7420  178.9980  144.9510 C   0  0  0  0  0  3  0  0  0  0  0  0
  187.8500  177.8910  145.2140 C   0  0  2  0  0  3  0  0  0  0  0  0
  189.1510  176.3800  143.6870 C   0  0  0  0  0  3  0  0  0  0  0  0
  189.0310  177.6290  144.3050 C   0  0  0  0  0  0  0  0  0  0  0  0
  190.0080  178.6100  144.0700 C   0  0  0  0  0  3  0  0  0  0  0  0
  190.2350  176.1080  142.8460 C   0  0  0  0  0  3  0  0  0  0  0  0
  191.0890  178.3410  143.2270 C   0  0  0  0  0  3  0  0  0  0  0  0
  191.2020  177.0880  142.6150 C   0  0  0  0  0  3  0  0  0  0  0  0
  187.8810  177.0300  146.4710 C   0  0  0  0  0  2  0  0  0  0  0  0
  189.0390  177.3330  147.2450 O   0  0  0  0  0  0  0  0  0  0  0  0
  191.3330  176.7400  146.9020 C   0  0  0  0  0  2  0  0  0  0  0  0
  190.1170  176.4530  147.3640 C   0  0  0  0  0  3  0  0  0  0  0  0
  180.4750  178.8950  137.5480 N   0  0  0  0  0  0  0  0  0  0  0  0
  179.3340  182.6220  136.0440 S   0  0  0  0  0  0  0  0  0  0  0  0
  179.5820  182.4290  138.7540 C   0  0  0  0  0  2  0  0  0  0  0  0
  180.8030  180.5860  135.2210 O   0  0  0  0  0  0  0  0  0  0  0  0
  181.4680  183.2660  137.5140 O   0  0  0  0  0  1  0  0  0  0  0  0
  180.1520  180.3040  137.4940 C   0  0  0  0  0  0  0  0  0  0  0  0
  180.1550  181.0340  136.2030 C   0  0  0  0  0  0  0  0  0  0  0  0
  179.9350  180.9700  138.6420 C   0  0  0  0  0  3  0  0  0  0  0  0
  180.0710  183.2680  137.5790 C   0  0  1  0  0  3  0  0  0  0  0  0
  183.1820  177.1030  136.6450 N   0  0  0  0  0  0  0  0  0  0  0  0
  184.5800  176.8020  136.5200 C   0  0  0  0  0  0  0  0  0  0  0  0
  180.9770  177.0100  136.2020 O   0  0  0  0  0  0  0  0  0  0  0  0
  182.1810  174.9710  135.9930 C   0  0  0  0  0  2  0  0  0  0  0  0
  184.9600  175.7040  136.0210 O   0  0  0  0  0  0  0  0  0  0  0  0
  182.1150  176.2720  136.2480 C   0  0  0  0  0  0  0  0  0  0  0  0
  182.7330  178.3610  136.9190 O   0  0  0  0  0  0  0  0  0  0  0  0
  181.3580  178.3460  136.5110 C   0  0  2  0  0  3  0  0  0  0  0  0
  188.0430  178.2820  138.4390 C   0  0  0  0  0  2  0  0  0  0  0  0
  185.7610  177.6530  138.5310 C   0  0  0  0  0  2  0  0  0  0  0  0
  186.9370  177.5930  136.3090 C   0  0  0  0  0  2  0  0  0  0  0  0
  188.0010  178.4970  136.9260 C   0  0  0  0  0  2  0  0  0  0  0  0
  185.5940  177.7890  137.0150 C   0  0  1  0  0  3  0  0  0  0  0  0
  186.7460  178.6200  139.0180 N   0  0  0  0  0  2  0  0  0  0  0  0
  1  5  1  0  0  0  0
  1  4  1  1  0  0  0
  2  1  1  0  0  0  0
  3 28  1  6  0  0  0
  3  2  1  0  0  0  0
  3  1  1  0  0  0  0
  5  6  1  0  0  0  0
  6  8  1  0  0  0  0
  8  9  1  0  0  0  0
  8  7  1  1  0  0  0
  9 10  1  0  0  0  0
 10 12  1  0  0  0  0
 11 10  2  0  0  0  0
 12 13  1  0  0  0  0
 13 16  1  0  0  0  0
 13 17  1  0  0  0  0
 14 15  1  0  0  0  0
 16 14  1  0  0  0  0
 16 15  1  0  0  0  0
 17 24  1  1  0  0  0
 18 19  1  0  0  0  0
 19 17  1  0  0  0  0
 20 19  2  0  0  0  0
 21 18  2  0  0  0  0
 22 20  1  0  0  0  0
 23 21  1  0  0  0  0
 23 22  2  0  0  0  0
 24 25  1  0  0  0  0
 25 27  1  0  0  0  0
 26 27  2  0  0  0  0
 29 34  1  0  0  0  0
 29 36  1  0  0  0  0
 31 34  2  0  0  0  0
 33 28  1  0  0  0  0
 33 35  2  0  0  0  0
 34 33  1  0  0  0  0
 35 30  1  0  0  0  0
 36 32  1  6  0  0  0
 36 30  1  0  0  0  0
 37 43  1  0  0  0  0
 38 37  1  0  0  0  0
 39 42  1  0  0  0  0
 39 44  1  0  0  0  0
 40 42  2  0  0  0  0
 41 38  2  0  0  0  0
 42 37  1  0  0  0  0
 44 43  1  0  0  0  0
 44 28  1  1  0  0  0
 45 50  1  0  0  0  0
 46 50  1  0  0  0  0
 47 48  1  0  0  0  0
 47 49  1  0  0  0  0
 48 45  1  0  0  0  0
 49 38  1  6  0  0  0
 49 46  1  0  0  0  0
M  END
>  <MODEL>
3

>  <REMARK>
 VINA RESULT:      -6.3      2.163      4.865
  Name = 
  16 active torsions:
  status: ('A' for Active; 'I' for Inactive)
    1  A    between atoms: N_2  and  C_37
    2  A    between atoms: C_5  and  C_10
    3  A    between atoms: C_10  and  N_38
    4  A    between atoms: C_10  and  C_43
    5  A    between atoms: C_13  and  C_36
    6  A    between atoms: C_22  and  N_38
    7  A    between atoms: C_25  and  N_29
    8  A    between atoms: O_26  and  C_30
    9  A    between atoms: O_26  and  C_34
   10  A    between atoms: C_27  and  C_35
   11  A    between atoms: N_29  and  C_48
   12  A    between atoms: N_29  and  C_50
   13  A    between atoms: C_33  and  O_47
   14  A    between atoms: C_34  and  C_37
   15  A    between atoms: C_35  and  N_38
   16  A    between atoms: C_43  and  O_47
                            x       y       z     vdW  Elec       q    Type
                         _______ _______ _______ _____ _____    ______ ____

>  <TORSDO>
F 16

$$$$
=
 OpenBabel11062414273D

 50 55  0  0  1  0  0  0  0  0999 V2000
  186.4730  178.0580  137.3200 C   0  0  1  0  0  0  0  0  0  0  0  0
  185.1820  178.5990  137.4640 O   0  0  0  0  0  0  0  0  0  0  0  0
  185.3150  177.5440  136.5300 C   0  0  2  0  0  3  0  0  0  0  0  0
  187.4510  178.9820  136.6230 C   0  0  0  0  0  1  0  0  0  0  0  0
  186.9240  177.2560  138.3930 O   0  0  0  0  0  0  0  0  0  0  0  0
  187.5290  178.0860  139.3480 C   0  0  0  0  0  2  0  0  0  0  0  0
  189.8980  177.5570  138.7700 C   0  0  0  0  0  1  0  0  0  0  0  0
  188.8120  177.4250  139.8210 C   0  0  1  0  0  3  0  0  0  0  0  0
  189.2450  178.0120  141.0800 N   0  0  0  0  0  2  0  0  0  0  0  0
  188.7140  177.5700  142.3300 C   0  0  0  0  0  0  0  0  0  0  0  0
  187.8920  176.6240  142.3740 O   0  0  0  0  0  0  0  0  0  0  0  0
  189.1610  178.2120  143.5920 C   0  0  0  0  0  2  0  0  0  0  0  0
  190.3250  177.5050  144.1270 N   0  0  0  0  0  0  0  0  0  0  0  0
  192.0420  176.5810  142.6590 C   0  0  0  0  0  2  0  0  0  0  0  0
  191.7980  175.5950  143.7800 C   0  0  0  0  0  2  0  0  0  0  0  0
  190.6390  176.4040  143.2190 C   0  0  0  0  0  3  0  0  0  0  0  0
  190.0520  176.9590  145.4730 C   0  0  2  0  0  3  0  0  0  0  0  0
  188.8020  178.1200  147.3170 C   0  0  0  0  0  3  0  0  0  0  0  0
  188.7580  177.4330  146.0990 C   0  0  0  0  0  0  0  0  0  0  0  0
  187.5170  177.1980  145.4860 C   0  0  0  0  0  3  0  0  0  0  0  0
  187.6210  178.5650  147.9210 C   0  0  0  0  0  3  0  0  0  0  0  0
  186.3380  177.6460  146.0860 C   0  0  0  0  0  3  0  0  0  0  0  0
  186.3900  178.3300  147.3050 C   0  0  0  0  0  3  0  0  0  0  0  0
  191.2470  177.1340  146.4030 C   0  0  0  0  0  2  0  0  0  0  0  0
  191.8280  175.8660  146.6970 O   0  0  0  0  0  0  0  0  0  0  0  0
  193.2190  175.8880  148.6470 C   0  0  0  0  0  2  0  0  0  0  0  0
  192.1360  175.4610  147.9980 C   0  0  0  0  0  3  0  0  0  0  0  0
  184.7580  176.3020  137.0930 N   0  0  0  0  0  0  0  0  0  0  0  0
  185.6540  173.0760  134.5950 S   0  0  0  0  0  0  0  0  0  0  0  0
  186.6820  172.9800  137.1200 C   0  0  0  0  0  2  0  0  0  0  0  0
  183.6580  174.7820  134.8880 O   0  0  0  0  0  0  0  0  0  0  0  0
  184.6010  171.8390  136.7130 O   0  0  0  0  0  1  0  0  0  0  0  0
  185.2450  175.0160  136.6480 C   0  0  0  0  0  0  0  0  0  0  0  0
  184.7560  174.4150  135.3840 C   0  0  0  0  0  0  0  0  0  0  0  0
  186.0820  174.3240  137.4410 C   0  0  0  0  0  3  0  0  0  0  0  0
  185.8430  172.1520  136.1530 C   0  0  1  0  0  3  0  0  0  0  0  0
  182.7140  177.8900  139.2520 N   0  0  0  0  0  0  0  0  0  0  0  0
  182.3140  178.4680  140.5030 C   0  0  0  0  0  0  0  0  0  0  0  0
  182.4940  176.9960  137.1970 O   0  0  0  0  0  0  0  0  0  0  0  0
  180.9600  178.7210  137.7670 C   0  0  0  0  0  2  0  0  0  0  0  0
  181.2100  179.0750  140.6080 O   0  0  0  0  0  0  0  0  0  0  0  0
  181.9750  177.9140  138.0520 C   0  0  0  0  0  0  0  0  0  0  0  0
  183.7490  177.0080  139.1580 O   0  0  0  0  0  0  0  0  0  0  0  0
  183.5360  176.3380  137.9070 C   0  0  2  0  0  3  0  0  0  0  0  0
  184.7510  179.7200  143.7210 C   0  0  0  0  0  2  0  0  0  0  0  0
  184.5040  179.1850  141.4270 C   0  0  0  0  0  2  0  0  0  0  0  0
  182.5340  178.8610  142.9570 C   0  0  0  0  0  2  0  0  0  0  0  0
  183.5200  178.9060  144.1220 C   0  0  0  0  0  2  0  0  0  0  0  0
  183.2300  178.3740  141.6860 C   0  0  1  0  0  3  0  0  0  0  0  0
  185.4040  179.0900  142.5770 N   0  0  0  0  0  2  0  0  0  0  0  0
  1  4  1  6  0  0  0
  1  2  1  0  0  0  0
  1  5  1  0  0  0  0
  3 28  1  1  0  0  0
  3  1  1  0  0  0  0
  3  2  1  0  0  0  0
  5  6  1  0  0  0  0
  6  8  1  0  0  0  0
  8  7  1  6  0  0  0
  8  9  1  0  0  0  0
  9 10  1  0  0  0  0
 10 11  2  0  0  0  0
 10 12  1  0  0  0  0
 12 13  1  0  0  0  0
 13 17  1  0  0  0  0
 14 16  1  0  0  0  0
 14 15  1  0  0  0  0
 16 15  1  0  0  0  0
 16 13  1  0  0  0  0
 17 19  1  0  0  0  0
 17 24  1  1  0  0  0
 18 21  1  0  0  0  0
 19 18  2  0  0  0  0
 20 22  2  0  0  0  0
 20 19  1  0  0  0  0
 22 23  1  0  0  0  0
 23 21  2  0  0  0  0
 24 25  1  0  0  0  0
 25 27  1  0  0  0  0
 27 26  2  0  0  0  0
 29 34  1  0  0  0  0
 29 36  1  0  0  0  0
 30 35  1  0  0  0  0
 31 34  2  0  0  0  0
 33 28  1  0  0  0  0
 33 35  2  0  0  0  0
 34 33  1  0  0  0  0
 36 32  1  1  0  0  0
 36 30  1  0  0  0  0
 37 38  1  0  0  0  0
 38 41  2  0  0  0  0
 39 44  1  0  0  0  0
 39 42  1  0  0  0  0
 40 42  2  0  0  0  0
 42 37  1  0  0  0  0
 43 37  1  0  0  0  0
 44 28  1  6  0  0  0
 44 43  1  0  0  0  0
 45 48  1  0  0  0  0
 46 49  1  0  0  0  0
 46 50  1  0  0  0  0
 47 48  1  0  0  0  0
 49 38  1  6  0  0  0
 49 47  1  0  0  0  0
 50 45  1  0  0  0  0
M  END
>  <MODEL>
4

>  <REMARK>
 VINA RESULT:      -6.2      2.482      5.454
  Name = 
  16 active torsions:
  status: ('A' for Active; 'I' for Inactive)
    1  A    between atoms: N_2  and  C_37
    2  A    between atoms: C_5  and  C_10
    3  A    between atoms: C_10  and  N_38
    4  A    between atoms: C_10  and  C_43
    5  A    between atoms: C_13  and  C_36
    6  A    between atoms: C_22  and  N_38
    7  A    between atoms: C_25  and  N_29
    8  A    between atoms: O_26  and  C_30
    9  A    between atoms: O_26  and  C_34
   10  A    between atoms: C_27  and  C_35
   11  A    between atoms: N_29  and  C_48
   12  A    between atoms: N_29  and  C_50
   13  A    between atoms: C_33  and  O_47
   14  A    between atoms: C_34  and  C_37
   15  A    between atoms: C_35  and  N_38
   16  A    between atoms: C_43  and  O_47
                            x       y       z     vdW  Elec       q    Type
                         _______ _______ _______ _____ _____    ______ ____

>  <TORSDO>
F 16

$$$$
=
 OpenBabel11062414273D

 50 55  0  0  1  0  0  0  0  0999 V2000
  187.6390  178.3330  137.0870 C   0  0  1  0  0  0  0  0  0  0  0  0
  186.3300  178.7180  136.7430 O   0  0  0  0  0  0  0  0  0  0  0  0
  187.0590  178.0250  135.7460 C   0  0  2  0  0  3  0  0  0  0  0  0
  188.6120  179.4910  137.1880 C   0  0  0  0  0  1  0  0  0  0  0  0
  187.7420  177.2620  138.0030 O   0  0  0  0  0  0  0  0  0  0  0  0
  188.0110  177.7860  139.2760 C   0  0  0  0  0  2  0  0  0  0  0  0
  190.4920  177.8680  139.5290 C   0  0  0  0  0  1  0  0  0  0  0  0
  189.2320  177.0820  139.8410 C   0  0  1  0  0  3  0  0  0  0  0  0
  189.0870  176.8970  141.2770 N   0  0  0  0  0  2  0  0  0  0  0  0
  190.1250  176.3100  142.0610 C   0  0  0  0  0  0  0  0  0  0  0  0
  191.2150  175.9820  141.5330 O   0  0  0  0  0  0  0  0  0  0  0  0
  189.9300  176.1140  143.5190 C   0  0  0  0  0  2  0  0  0  0  0  0
  189.6600  177.3980  144.1650 N   0  0  0  0  0  0  0  0  0  0  0  0
  191.5940  178.5720  143.2490 C   0  0  0  0  0  2  0  0  0  0  0  0
  190.8910  179.5010  144.2140 C   0  0  0  0  0  2  0  0  0  0  0  0
  190.9440  178.0100  144.5040 C   0  0  0  0  0  3  0  0  0  0  0  0
  188.8670  177.2240  145.4010 C   0  0  2  0  0  3  0  0  0  0  0  0
  186.8000  177.7600  144.0790 C   0  0  0  0  0  3  0  0  0  0  0  0
  187.4460  177.7370  145.3190 C   0  0  0  0  0  0  0  0  0  0  0  0
  186.7640  178.1920  146.4600 C   0  0  0  0  0  3  0  0  0  0  0  0
  185.4880  178.2340  143.9740 C   0  0  0  0  0  3  0  0  0  0  0  0
  185.4520  178.6610  146.3550 C   0  0  0  0  0  3  0  0  0  0  0  0
  184.8140  178.6830  145.1110 C   0  0  0  0  0  3  0  0  0  0  0  0
  189.6080  177.7550  146.6230 C   0  0  0  0  0  2  0  0  0  0  0  0
  190.0590  176.6710  147.4310 O   0  0  0  0  0  0  0  0  0  0  0  0
  192.0700  175.5980  146.6950 C   0  0  0  0  0  2  0  0  0  0  0  0
  191.4110  176.3500  147.5760 C   0  0  0  0  0  3  0  0  0  0  0  0
  186.5780  176.6360  135.6480 N   0  0  0  0  0  0  0  0  0  0  0  0
  182.4910  175.7950  135.8400 S   0  0  0  0  0  0  0  0  0  0  0  0
  183.9510  175.2520  138.0800 C   0  0  0  0  0  2  0  0  0  0  0  0
  184.0360  177.5420  134.5990 O   0  0  0  0  0  0  0  0  0  0  0  0
  182.8160  177.3720  137.9700 O   0  0  0  0  0  1  0  0  0  0  0  0
  185.2840  176.2720  136.1800 C   0  0  0  0  0  0  0  0  0  0  0  0
  184.0400  176.6140  135.4500 C   0  0  0  0  0  0  0  0  0  0  0  0
  185.2150  175.6960  137.3930 C   0  0  0  0  0  3  0  0  0  0  0  0
  182.7110  176.0190  137.6350 C   0  0  1  0  0  3  0  0  0  0  0  0
  189.2910  174.7260  136.2350 N   0  0  0  0  0  0  0  0  0  0  0  0
  190.6880  174.4360  136.3940 C   0  0  0  0  0  0  0  0  0  0  0  0
  187.1050  174.3360  135.8670 O   0  0  0  0  0  0  0  0  0  0  0  0
  188.2840  172.6660  137.0810 C   0  0  0  0  0  2  0  0  0  0  0  0
  191.0710  173.2830  136.7430 O   0  0  0  0  0  0  0  0  0  0  0  0
  188.2280  173.8210  136.4280 C   0  0  0  0  0  0  0  0  0  0  0  0
  188.8510  175.8540  135.6100 O   0  0  0  0  0  0  0  0  0  0  0  0
  187.4940  175.5590  135.2520 C   0  0  2  0  0  3  0  0  0  0  0  0
  194.4550  176.3350  136.1220 C   0  0  0  0  0  2  0  0  0  0  0  0
  192.5810  175.6770  137.4130 C   0  0  0  0  0  2  0  0  0  0  0  0
  192.5520  175.2320  134.9390 C   0  0  0  0  0  2  0  0  0  0  0  0
  193.6720  176.2610  134.8100 C   0  0  0  0  0  2  0  0  0  0  0  0
  191.6970  175.5230  136.1730 C   0  0  1  0  0  3  0  0  0  0  0  0
  193.5630  176.7430  137.2030 N   0  0  0  0  0  2  0  0  0  0  0  0
  1  4  1  1  0  0  0
  1  5  1  0  0  0  0
  2  1  1  0  0  0  0
  3 28  1  1  0  0  0
  3  2  1  0  0  0  0
  3  1  1  0  0  0  0
  5  6  1  0  0  0  0
  6  8  1  0  0  0  0
  8  7  1  1  0  0  0
  8  9  1  0  0  0  0
  9 10  1  0  0  0  0
 10 12  1  0  0  0  0
 11 10  2  0  0  0  0
 12 13  1  0  0  0  0
 13 16  1  0  0  0  0
 13 17  1  0  0  0  0
 14 15  1  0  0  0  0
 14 16  1  0  0  0  0
 15 16  1  0  0  0  0
 17 24  1  1  0  0  0
 18 19  1  0  0  0  0
 19 17  1  0  0  0  0
 19 20  2  0  0  0  0
 21 18  2  0  0  0  0
 21 23  1  0  0  0  0
 22 20  1  0  0  0  0
 23 22  2  0  0  0  0
 24 25  1  0  0  0  0
 25 27  1  0  0  0  0
 26 27  2  0  0  0  0
 28 33  1  0  0  0  0
 29 36  1  0  0  0  0
 31 34  2  0  0  0  0
 33 35  2  0  0  0  0
 34 29  1  0  0  0  0
 34 33  1  0  0  0  0
 35 30  1  0  0  0  0
 36 32  1  6  0  0  0
 36 30  1  0  0  0  0
 37 38  1  0  0  0  0
 37 42  1  0  0  0  0
 38 41  2  0  0  0  0
 39 42  1  0  0  0  0
 42 40  2  0  0  0  0
 43 37  1  0  0  0  0
 44 43  1  0  0  0  0
 44 28  1  1  0  0  0
 44 39  1  0  0  0  0
 45 50  1  0  0  0  0
 47 49  1  0  0  0  0
 48 47  1  0  0  0  0
 48 45  1  0  0  0  0
 49 38  1  1  0  0  0
 49 46  1  0  0  0  0
 50 46  1  0  0  0  0
M  END
>  <MODEL>
5

>  <REMARK>
 VINA RESULT:      -6.1      3.593      6.082
  Name = 
  16 active torsions:
  status: ('A' for Active; 'I' for Inactive)
    1  A    between atoms: N_2  and  C_37
    2  A    between atoms: C_5  and  C_10
    3  A    between atoms: C_10  and  N_38
    4  A    between atoms: C_10  and  C_43
    5  A    between atoms: C_13  and  C_36
    6  A    between atoms: C_22  and  N_38
    7  A    between atoms: C_25  and  N_29
    8  A    between atoms: O_26  and  C_30
    9  A    between atoms: O_26  and  C_34
   10  A    between atoms: C_27  and  C_35
   11  A    between atoms: N_29  and  C_48
   12  A    between atoms: N_29  and  C_50
   13  A    between atoms: C_33  and  O_47
   14  A    between atoms: C_34  and  C_37
   15  A    between atoms: C_35  and  N_38
   16  A    between atoms: C_43  and  O_47
                            x       y       z     vdW  Elec       q    Type
                         _______ _______ _______ _____ _____    ______ ____

>  <TORSDO>
F 16

$$$$
=
 OpenBabel11062414273D

 50 55  0  0  1  0  0  0  0  0999 V2000
  184.1470  178.2610  141.1670 C   0  0  1  0  0  0  0  0  0  0  0  0
  183.6890  177.0670  140.5790 O   0  0  0  0  0  0  0  0  0  0  0  0
  182.7950  178.1650  140.5410 C   0  0  2  0  0  3  0  0  0  0  0  0
  184.2320  178.2060  142.6800 C   0  0  0  0  0  1  0  0  0  0  0  0
  185.1410  178.9580  140.4440 O   0  0  0  0  0  0  0  0  0  0  0  0
  186.2960  179.0390  141.2350 C   0  0  0  0  0  2  0  0  0  0  0  0
  187.8280  178.6360  139.3060 C   0  0  0  0  0  1  0  0  0  0  0  0
  187.3490  178.1150  140.6490 C   0  0  1  0  0  3  0  0  0  0  0  0
  188.4670  177.9770  141.5710 N   0  0  0  0  0  2  0  0  0  0  0  0
  188.4660  176.9860  142.6000 C   0  0  0  0  0  0  0  0  0  0  0  0
  187.5160  176.1720  142.7000 O   0  0  0  0  0  0  0  0  0  0  0  0
  189.6120  176.8940  143.5380 C   0  0  0  0  0  2  0  0  0  0  0  0
  189.5130  177.9420  144.5540 N   0  0  0  0  0  0  0  0  0  0  0  0
  191.6890  178.3040  143.5090 C   0  0  0  0  0  2  0  0  0  0  0  0
  191.0800  179.6550  143.8130 C   0  0  0  0  0  2  0  0  0  0  0  0
  190.8510  178.4920  144.7650 C   0  0  0  0  0  3  0  0  0  0  0  0
  189.0040  177.4060  145.8340 C   0  0  2  0  0  3  0  0  0  0  0  0
  187.3840  178.5620  147.3670 C   0  0  0  0  0  3  0  0  0  0  0  0
  187.5980  177.8400  146.1880 C   0  0  0  0  0  0  0  0  0  0  0  0
  186.5050  177.5320  145.3620 C   0  0  0  0  0  3  0  0  0  0  0  0
  186.0940  178.9710  147.7220 C   0  0  0  0  0  3  0  0  0  0  0  0
  185.2170  177.9440  145.7140 C   0  0  0  0  0  3  0  0  0  0  0  0
  185.0120  178.6640  146.8960 C   0  0  0  0  0  3  0  0  0  0  0  0
  189.9900  177.6410  146.9730 C   0  0  0  0  0  2  0  0  0  0  0  0
  190.5310  176.3990  147.4150 O   0  0  0  0  0  0  0  0  0  0  0  0
  192.7050  175.6100  148.0390 C   0  0  0  0  0  2  0  0  0  0  0  0
  191.8310  175.9910  147.1070 C   0  0  0  0  0  3  0  0  0  0  0  0
  182.7620  178.7380  139.1850 N   0  0  0  0  0  0  0  0  0  0  0  0
  179.9550  181.8320  139.1420 S   0  0  0  0  0  0  0  0  0  0  0  0
  182.4910  182.4800  138.3720 C   0  0  0  0  0  2  0  0  0  0  0  0
  179.9340  179.2140  138.7840 O   0  0  0  0  0  0  0  0  0  0  0  0
  180.9030  181.9310  136.6480 O   0  0  0  0  0  1  0  0  0  0  0  0
  182.1640  180.0340  138.9540 C   0  0  0  0  0  0  0  0  0  0  0  0
  180.6910  180.2030  138.9710 C   0  0  0  0  0  0  0  0  0  0  0  0
  182.9560  181.0720  138.6340 C   0  0  0  0  0  3  0  0  0  0  0  0
  181.0490  182.5670  137.8850 C   0  0  1  0  0  3  0  0  0  0  0  0
  184.5920  176.3100  137.7320 N   0  0  0  0  0  0  0  0  0  0  0  0
  185.7710  175.6950  137.1910 C   0  0  0  0  0  0  0  0  0  0  0  0
  182.3980  176.6670  138.0900 O   0  0  0  0  0  0  0  0  0  0  0  0
  183.0700  174.4010  137.8340 C   0  0  0  0  0  2  0  0  0  0  0  0
  185.7450  174.4970  136.7880 O   0  0  0  0  0  0  0  0  0  0  0  0
  183.3280  175.7020  137.8700 C   0  0  0  0  0  0  0  0  0  0  0  0
  184.4990  177.6560  137.9240 O   0  0  0  0  0  0  0  0  0  0  0  0
  183.0910  177.9080  138.0190 C   0  0  2  0  0  3  0  0  0  0  0  0
  189.6330  176.8630  135.9330 C   0  0  0  0  0  2  0  0  0  0  0  0
  188.2450  175.5340  137.3180 C   0  0  0  0  0  2  0  0  0  0  0  0
  187.1670  177.2370  135.8140 C   0  0  0  0  0  2  0  0  0  0  0  0
  188.5360  177.9030  135.7010 C   0  0  0  0  0  2  0  0  0  0  0  0
  187.0500  176.4740  137.1340 C   0  0  1  0  0  3  0  0  0  0  0  0
  189.4950  176.2940  137.2700 N   0  0  0  0  0  2  0  0  0  0  0  0
  1  4  1  1  0  0  0
  2  1  1  0  0  0  0
  3 28  1  6  0  0  0
  3  2  1  0  0  0  0
  3  1  1  0  0  0  0
  5  1  1  0  0  0  0
  5  6  1  0  0  0  0
  8  7  1  6  0  0  0
  8  6  1  0  0  0  0
  8  9  1  0  0  0  0
  9 10  1  0  0  0  0
 10 11  2  0  0  0  0
 10 12  1  0  0  0  0
 12 13  1  0  0  0  0
 13 16  1  0  0  0  0
 13 17  1  0  0  0  0
 14 15  1  0  0  0  0
 14 16  1  0  0  0  0
 15 16  1  0  0  0  0
 17 19  1  0  0  0  0
 17 24  1  1  0  0  0
 18 21  1  0  0  0  0
 19 18  2  0  0  0  0
 20 22  2  0  0  0  0
 20 19  1  0  0  0  0
 22 23  1  0  0  0  0
 23 21  2  0  0  0  0
 24 25  1  0  0  0  0
 27 25  1  0  0  0  0
 27 26  2  0  0  0  0
 30 35  1  0  0  0  0
 31 34  2  0  0  0  0
 33 34  1  0  0  0  0
 33 28  1  0  0  0  0
 34 29  1  0  0  0  0
 35 33  2  0  0  0  0
 36 32  1  6  0  0  0
 36 30  1  0  0  0  0
 36 29  1  0  0  0  0
 37 42  1  0  0  0  0
 37 43  1  0  0  0  0
 38 37  1  0  0  0  0
 40 42  2  0  0  0  0
 41 38  2  0  0  0  0
 42 39  1  0  0  0  0
 43 44  1  0  0  0  0
 44 39  1  0  0  0  0
 44 28  1  1  0  0  0
 45 50  1  0  0  0  0
 47 49  1  0  0  0  0
 48 47  1  0  0  0  0
 48 45  1  0  0  0  0
 49 38  1  6  0  0  0
 49 46  1  0  0  0  0
 50 46  1  0  0  0  0
M  END
>  <MODEL>
6

>  <REMARK>
 VINA RESULT:      -6.0      1.741      3.521
  Name = 
  16 active torsions:
  status: ('A' for Active; 'I' for Inactive)
    1  A    between atoms: N_2  and  C_37
    2  A    between atoms: C_5  and  C_10
    3  A    between atoms: C_10  and  N_38
    4  A    between atoms: C_10  and  C_43
    5  A    between atoms: C_13  and  C_36
    6  A    between atoms: C_22  and  N_38
    7  A    between atoms: C_25  and  N_29
    8  A    between atoms: O_26  and  C_30
    9  A    between atoms: O_26  and  C_34
   10  A    between atoms: C_27  and  C_35
   11  A    between atoms: N_29  and  C_48
   12  A    between atoms: N_29  and  C_50
   13  A    between atoms: C_33  and  O_47
   14  A    between atoms: C_34  and  C_37
   15  A    between atoms: C_35  and  N_38
   16  A    between atoms: C_43  and  O_47
                            x       y       z     vdW  Elec       q    Type
                         _______ _______ _______ _____ _____    ______ ____

>  <TORSDO>
F 16

$$$$
=
 OpenBabel11062414273D

 50 55  0  0  1  0  0  0  0  0999 V2000
  188.3810  177.0240  136.0000 C   0  0  1  0  0  0  0  0  0  0  0  0
  187.5780  175.9550  135.5640 O   0  0  0  0  0  0  0  0  0  0  0  0
  188.9250  175.9410  135.1290 C   0  0  2  0  0  3  0  0  0  0  0  0
  188.0410  178.3510  135.3510 C   0  0  0  0  0  1  0  0  0  0  0  0
  188.7510  176.9970  137.3640 O   0  0  0  0  0  0  0  0  0  0  0  0
  187.5880  176.8880  138.1400 C   0  0  0  0  0  2  0  0  0  0  0  0
  186.3430  178.4730  139.6110 C   0  0  0  0  0  1  0  0  0  0  0  0
  187.6940  177.8500  139.3090 C   0  0  1  0  0  3  0  0  0  0  0  0
  188.2120  177.1620  140.4820 N   0  0  0  0  0  2  0  0  0  0  0  0
  188.8650  177.8720  141.5350 C   0  0  0  0  0  0  0  0  0  0  0  0
  188.9620  179.1230  141.4960 O   0  0  0  0  0  0  0  0  0  0  0  0
  189.4040  177.1330  142.7030 C   0  0  0  0  0  2  0  0  0  0  0  0
  189.4340  178.0050  143.8780 N   0  0  0  0  0  0  0  0  0  0  0  0
  191.7310  178.3330  143.1200 C   0  0  0  0  0  2  0  0  0  0  0  0
  191.3520  179.5030  144.0000 C   0  0  0  0  0  2  0  0  0  0  0  0
  190.8230  178.1150  144.3210 C   0  0  0  0  0  3  0  0  0  0  0  0
  188.6180  177.4530  144.9800 C   0  0  2  0  0  3  0  0  0  0  0  0
  186.5180  178.1900  146.1430 C   0  0  0  0  0  3  0  0  0  0  0  0
  187.1590  177.8500  144.9480 C   0  0  0  0  0  0  0  0  0  0  0  0
  186.4330  177.8820  143.7450 C   0  0  0  0  0  3  0  0  0  0  0  0
  185.1680  178.5560  146.1440 C   0  0  0  0  0  3  0  0  0  0  0  0
  185.0860  178.2500  143.7450 C   0  0  0  0  0  3  0  0  0  0  0  0
  184.4530  178.5880  144.9450 C   0  0  0  0  0  3  0  0  0  0  0  0
  189.2610  177.7090  146.3380 C   0  0  0  0  0  2  0  0  0  0  0  0
  189.5760  176.4720  146.9720 O   0  0  0  0  0  0  0  0  0  0  0  0
  191.9190  176.1330  146.6130 C   0  0  0  0  0  2  0  0  0  0  0  0
  190.8610  176.1610  147.4220 C   0  0  0  0  0  3  0  0  0  0  0  0
  189.6880  174.9370  135.8900 N   0  0  0  0  0  0  0  0  0  0  0  0
  193.5930  174.3510  137.2530 S   0  0  0  0  0  0  0  0  0  0  0  0
  193.3170  175.7010  134.8990 C   0  0  0  0  0  2  0  0  0  0  0  0
  191.2060  174.6680  138.3410 O   0  0  0  0  0  0  0  0  0  0  0  0
  193.5340  176.9980  136.9150 O   0  0  0  0  0  1  0  0  0  0  0  0
  191.1270  175.0340  135.9890 C   0  0  0  0  0  0  0  0  0  0  0  0
  191.8270  174.6740  137.2450 C   0  0  0  0  0  0  0  0  0  0  0  0
  191.8210  175.5420  134.9550 C   0  0  0  0  0  3  0  0  0  0  0  0
  193.9700  175.8370  136.2700 C   0  0  1  0  0  3  0  0  0  0  0  0
  187.4600  172.4530  135.4180 N   0  0  0  0  0  0  0  0  0  0  0  0
  186.1610  171.8540  135.3020 C   0  0  0  0  0  0  0  0  0  0  0  0
  189.6850  172.5710  135.7390 O   0  0  0  0  0  0  0  0  0  0  0  0
  188.8860  170.6460  134.5970 C   0  0  0  0  0  2  0  0  0  0  0  0
  186.0390  170.6350  134.9910 O   0  0  0  0  0  0  0  0  0  0  0  0
  188.6950  171.8030  135.2200 C   0  0  0  0  0  0  0  0  0  0  0  0
  187.6490  173.6690  136.0050 O   0  0  0  0  0  0  0  0  0  0  0  0
  189.0450  173.6940  136.3350 C   0  0  2  0  0  3  0  0  0  0  0  0
  182.1390  172.8290  136.1640 C   0  0  0  0  0  2  0  0  0  0  0  0
  183.8110  172.2340  134.5950 C   0  0  0  0  0  2  0  0  0  0  0  0
  184.4890  172.6320  136.9840 C   0  0  0  0  0  2  0  0  0  0  0  0
  183.1630  173.3640  137.1660 C   0  0  0  0  0  2  0  0  0  0  0  0
  184.9390  172.6950  135.5230 C   0  0  1  0  0  3  0  0  0  0  0  0
  182.6190  173.0570  134.8030 N   0  0  0  0  0  2  0  0  0  0  0  0
  1  4  1  6  0  0  0
  1  5  1  0  0  0  0
  2  1  1  0  0  0  0
  3  2  1  0  0  0  0
  3 28  1  1  0  0  0
  3  1  1  0  0  0  0
  5  6  1  0  0  0  0
  6  8  1  0  0  0  0
  8  7  1  1  0  0  0
  8  9  1  0  0  0  0
  9 10  1  0  0  0  0
 10 12  1  0  0  0  0
 11 10  2  0  0  0  0
 12 13  1  0  0  0  0
 13 16  1  0  0  0  0
 13 17  1  0  0  0  0
 14 15  1  0  0  0  0
 14 16  1  0  0  0  0
 15 16  1  0  0  0  0
 17 24  1  1  0  0  0
 18 21  1  0  0  0  0
 19 17  1  0  0  0  0
 19 18  2  0  0  0  0
 20 22  2  0  0  0  0
 20 19  1  0  0  0  0
 22 23  1  0  0  0  0
 23 21  2  0  0  0  0
 24 25  1  0  0  0  0
 25 27  1  0  0  0  0
 26 27  2  0  0  0  0
 28 33  1  0  0  0  0
 30 35  1  0  0  0  0
 30 36  1  0  0  0  0
 33 34  1  0  0  0  0
 34 29  1  0  0  0  0
 34 31  2  0  0  0  0
 35 33  2  0  0  0  0
 36 32  1  1  0  0  0
 36 29  1  0  0  0  0
 37 43  1  0  0  0  0
 38 37  1  0  0  0  0
 39 44  1  0  0  0  0
 40 42  2  0  0  0  0
 41 38  2  0  0  0  0
 42 37  1  0  0  0  0
 42 39  1  0  0  0  0
 43 44  1  0  0  0  0
 44 28  1  6  0  0  0
 45 48  1  0  0  0  0
 46 50  1  0  0  0  0
 46 49  1  0  0  0  0
 47 48  1  0  0  0  0
 49 38  1  1  0  0  0
 49 47  1  0  0  0  0
 50 45  1  0  0  0  0
M  END
>  <MODEL>
7

>  <REMARK>
 VINA RESULT:      -5.9      4.457      6.708
  Name = 
  16 active torsions:
  status: ('A' for Active; 'I' for Inactive)
    1  A    between atoms: N_2  and  C_37
    2  A    between atoms: C_5  and  C_10
    3  A    between atoms: C_10  and  N_38
    4  A    between atoms: C_10  and  C_43
    5  A    between atoms: C_13  and  C_36
    6  A    between atoms: C_22  and  N_38
    7  A    between atoms: C_25  and  N_29
    8  A    between atoms: O_26  and  C_30
    9  A    between atoms: O_26  and  C_34
   10  A    between atoms: C_27  and  C_35
   11  A    between atoms: N_29  and  C_48
   12  A    between atoms: N_29  and  C_50
   13  A    between atoms: C_33  and  O_47
   14  A    between atoms: C_34  and  C_37
   15  A    between atoms: C_35  and  N_38
   16  A    between atoms: C_43  and  O_47
                            x       y       z     vdW  Elec       q    Type
                         _______ _______ _______ _____ _____    ______ ____

>  <TORSDO>
F 16

$$$$
=
 OpenBabel11062414273D

 50 55  0  0  1  0  0  0  0  0999 V2000
  188.6190  177.5290  141.1050 C   0  0  1  0  0  0  0  0  0  0  0  0
  190.0100  177.5500  140.8960 O   0  0  0  0  0  0  0  0  0  0  0  0
  189.2920  176.5460  140.2050 C   0  0  2  0  0  3  0  0  0  0  0  0
  188.2130  177.0590  142.4880 C   0  0  0  0  0  1  0  0  0  0  0  0
  187.8900  178.5700  140.4860 O   0  0  0  0  0  0  0  0  0  0  0  0
  187.1410  179.2350  141.4680 C   0  0  0  0  0  2  0  0  0  0  0  0
  185.0500  178.7800  142.7510 C   0  0  0  0  0  1  0  0  0  0  0  0
  185.7000  178.7630  141.3800 C   0  0  1  0  0  3  0  0  0  0  0  0
  184.9540  179.5970  140.4500 N   0  0  0  0  0  2  0  0  0  0  0  0
  183.8130  179.0970  139.7520 C   0  0  0  0  0  0  0  0  0  0  0  0
  183.3950  177.9330  139.9650 O   0  0  0  0  0  0  0  0  0  0  0  0
  183.0920  179.9690  138.7910 C   0  0  0  0  0  2  0  0  0  0  0  0
  181.8190  179.3540  138.4140 N   0  0  0  0  0  0  0  0  0  0  0  0
  182.0100  177.3950  136.9700 C   0  0  0  0  0  2  0  0  0  0  0  0
  180.7040  178.0900  136.6540 C   0  0  0  0  0  2  0  0  0  0  0  0
  181.9270  178.9130  137.0240 C   0  0  0  0  0  3  0  0  0  0  0  0
  180.7010  180.3140  138.5310 C   0  0  2  0  0  3  0  0  0  0  0  0
  180.4200  181.6290  136.4100 C   0  0  0  0  0  3  0  0  0  0  0  0
  180.8740  181.5870  137.7320 C   0  0  0  0  0  0  0  0  0  0  0  0
  181.4810  182.7250  138.2870 C   0  0  0  0  0  3  0  0  0  0  0  0
  180.5710  182.7910  135.6460 C   0  0  0  0  0  3  0  0  0  0  0  0
  181.6280  183.8880  137.5260 C   0  0  0  0  0  3  0  0  0  0  0  0
  181.1730  183.9200  136.2030 C   0  0  0  0  0  3  0  0  0  0  0  0
  180.3440  180.5850  139.9870 C   0  0  0  0  0  2  0  0  0  0  0  0
  180.1680  179.3550  140.6860 O   0  0  0  0  0  0  0  0  0  0  0  0
  181.3460  179.0950  142.7550 C   0  0  0  0  0  2  0  0  0  0  0  0
  180.2100  179.2670  142.0790 C   0  0  0  0  0  3  0  0  0  0  0  0
  189.1660  176.9080  138.7830 N   0  0  0  0  0  0  0  0  0  0  0  0
  185.8050  175.1230  137.0600 S   0  0  0  0  0  0  0  0  0  0  0  0
  185.7670  177.8440  137.2610 C   0  0  0  0  0  2  0  0  0  0  0  0
  188.3910  174.6050  137.2070 O   0  0  0  0  0  0  0  0  0  0  0  0
  186.5020  176.8840  135.1780 O   0  0  0  0  0  1  0  0  0  0  0  0
  187.9000  176.7580  138.1000 C   0  0  0  0  0  0  0  0  0  0  0  0
  187.5130  175.4600  137.4970 C   0  0  0  0  0  0  0  0  0  0  0  0
  187.1120  177.8350  137.9380 C   0  0  0  0  0  3  0  0  0  0  0  0
  185.5950  176.7320  136.2320 C   0  0  1  0  0  3  0  0  0  0  0  0
  191.6910  175.8230  136.8330 N   0  0  0  0  0  0  0  0  0  0  0  0
  192.9110  175.1330  136.5210 C   0  0  0  0  0  0  0  0  0  0  0  0
  190.0070  177.2990  136.6010 O   0  0  0  0  0  0  0  0  0  0  0  0
  190.8660  176.3550  134.5950 C   0  0  0  0  0  2  0  0  0  0  0  0
  193.3340  175.0810  135.3310 O   0  0  0  0  0  0  0  0  0  0  0  0
  190.8600  176.4960  135.9150 C   0  0  0  0  0  0  0  0  0  0  0  0
  191.3410  176.1340  138.1130 O   0  0  0  0  0  0  0  0  0  0  0  0
  190.3620  177.1740  137.9740 C   0  0  2  0  0  3  0  0  0  0  0  0
  196.1790  173.4560  138.6110 C   0  0  0  0  0  2  0  0  0  0  0  0
  194.4100  173.2270  137.0530 C   0  0  0  0  0  2  0  0  0  0  0  0
  194.6520  175.4050  138.2870 C   0  0  0  0  0  2  0  0  0  0  0  0
  195.5250  174.6580  139.2930 C   0  0  0  0  0  2  0  0  0  0  0  0
  193.6700  174.4450  137.6150 C   0  0  1  0  0  3  0  0  0  0  0  0
  195.1460  172.5480  138.1200 N   0  0  0  0  0  2  0  0  0  0  0  0
  1  4  1  1  0  0  0
  2  1  1  0  0  0  0
  3 28  1  6  0  0  0
  3  2  1  0  0  0  0
  3  1  1  0  0  0  0
  5  1  1  0  0  0  0
  5  6  1  0  0  0  0
  8  6  1  0  0  0  0
  8  7  1  1  0  0  0
  9  8  1  0  0  0  0
 10 11  2  0  0  0  0
 10  9  1  0  0  0  0
 12 10  1  0  0  0  0
 13 17  1  0  0  0  0
 13 12  1  0  0  0  0
 14 16  1  0  0  0  0
 15 14  1  0  0  0  0
 15 16  1  0  0  0  0
 16 13  1  0  0  0  0
 17 24  1  1  0  0  0
 18 19  1  0  0  0  0
 19 20  2  0  0  0  0
 19 17  1  0  0  0  0
 21 23  1  0  0  0  0
 21 18  2  0  0  0  0
 22 20  1  0  0  0  0
 23 22  2  0  0  0  0
 24 25  1  0  0  0  0
 25 27  1  0  0  0  0
 27 26  2  0  0  0  0
 29 34  1  0  0  0  0
 30 35  1  0  0  0  0
 31 34  2  0  0  0  0
 33 28  1  0  0  0  0
 34 33  1  0  0  0  0
 35 33  2  0  0  0  0
 36 32  1  6  0  0  0
 36 29  1  0  0  0  0
 36 30  1  0  0  0  0
 37 43  1  0  0  0  0
 38 37  1  0  0  0  0
 39 44  1  0  0  0  0
 40 42  2  0  0  0  0
 41 38  2  0  0  0  0
 42 39  1  0  0  0  0
 42 37  1  0  0  0  0
 44 43  1  0  0  0  0
 44 28  1  1  0  0  0
 45 48  1  0  0  0  0
 46 49  1  0  0  0  0
 46 50  1  0  0  0  0
 47 48  1  0  0  0  0
 49 38  1  6  0  0  0
 49 47  1  0  0  0  0
 50 45  1  0  0  0  0
M  END
>  <MODEL>
8

>  <REMARK>
 VINA RESULT:      -5.8      4.275      9.996
  Name = 
  16 active torsions:
  status: ('A' for Active; 'I' for Inactive)
    1  A    between atoms: N_2  and  C_37
    2  A    between atoms: C_5  and  C_10
    3  A    between atoms: C_10  and  N_38
    4  A    between atoms: C_10  and  C_43
    5  A    between atoms: C_13  and  C_36
    6  A    between atoms: C_22  and  N_38
    7  A    between atoms: C_25  and  N_29
    8  A    between atoms: O_26  and  C_30
    9  A    between atoms: O_26  and  C_34
   10  A    between atoms: C_27  and  C_35
   11  A    between atoms: N_29  and  C_48
   12  A    between atoms: N_29  and  C_50
   13  A    between atoms: C_33  and  O_47
   14  A    between atoms: C_34  and  C_37
   15  A    between atoms: C_35  and  N_38
   16  A    between atoms: C_43  and  O_47
                            x       y       z     vdW  Elec       q    Type
                         _______ _______ _______ _____ _____    ______ ____

>  <TORSDO>
F 16

$$$$
=
 OpenBabel11062414273D

 50 55  0  0  1  0  0  0  0  0999 V2000
  182.6660  176.9900  139.4740 C   0  0  1  0  0  0  0  0  0  0  0  0
  182.4850  175.5990  139.3530 O   0  0  0  0  0  0  0  0  0  0  0  0
  181.3630  176.4030  139.0400 C   0  0  2  0  0  3  0  0  0  0  0  0
  182.7830  177.4700  140.9070 C   0  0  0  0  0  1  0  0  0  0  0  0
  183.4610  177.5940  138.4750 O   0  0  0  0  0  0  0  0  0  0  0  0
  184.2560  178.5830  139.0740 C   0  0  0  0  0  2  0  0  0  0  0  0
  186.3620  178.3710  137.7520 C   0  0  0  0  0  1  0  0  0  0  0  0
  185.6960  178.1030  139.0900 C   0  0  1  0  0  3  0  0  0  0  0  0
  186.4300  178.7530  140.1650 N   0  0  0  0  0  2  0  0  0  0  0  0
  187.7710  178.3790  140.4830 C   0  0  0  0  0  0  0  0  0  0  0  0
  188.3690  177.5090  139.8050 O   0  0  0  0  0  0  0  0  0  0  0  0
  188.4790  179.0460  141.6050 C   0  0  0  0  0  2  0  0  0  0  0  0
  188.7770  178.0740  142.6570 N   0  0  0  0  0  0  0  0  0  0  0  0
  190.2710  176.3780  141.7350 C   0  0  0  0  0  2  0  0  0  0  0  0
  189.5860  175.7940  142.9510 C   0  0  0  0  0  2  0  0  0  0  0  0
  188.8280  176.7480  142.0430 C   0  0  0  0  0  3  0  0  0  0  0  0
  187.7370  178.0810  143.7070 C   0  0  2  0  0  3  0  0  0  0  0  0
  187.3420  177.6860  146.1560 C   0  0  0  0  0  3  0  0  0  0  0  0
  188.2550  177.8740  145.1140 C   0  0  0  0  0  0  0  0  0  0  0  0
  189.6310  177.8700  145.3950 C   0  0  0  0  0  3  0  0  0  0  0  0
  187.7930  177.4980  147.4670 C   0  0  0  0  0  3  0  0  0  0  0  0
  190.0820  177.6790  146.7040 C   0  0  0  0  0  3  0  0  0  0  0  0
  189.1610  177.4930  147.7400 C   0  0  0  0  0  3  0  0  0  0  0  0
  186.5880  177.1380  143.3660 C   0  0  0  0  0  2  0  0  0  0  0  0
  185.4410  177.8870  142.9720 O   0  0  0  0  0  0  0  0  0  0  0  0
  184.1130  178.7440  144.7710 C   0  0  0  0  0  2  0  0  0  0  0  0
  184.9290  178.9390  143.7360 C   0  0  0  0  0  3  0  0  0  0  0  0
  181.1790  176.4620  137.5800 N   0  0  0  0  0  0  0  0  0  0  0  0
  180.6230  179.4420  134.7060 S   0  0  0  0  0  0  0  0  0  0  0  0
  179.1250  179.6490  136.9770 C   0  0  0  0  0  2  0  0  0  0  0  0
  182.6060  177.8910  135.5060 O   0  0  0  0  0  0  0  0  0  0  0  0
  181.1870  180.8880  136.8780 O   0  0  0  0  0  1  0  0  0  0  0  0
  180.7240  177.6810  136.9500 C   0  0  0  0  0  0  0  0  0  0  0  0
  181.4170  178.2220  135.7560 C   0  0  0  0  0  0  0  0  0  0  0  0
  179.7170  178.3720  137.5120 C   0  0  0  0  0  3  0  0  0  0  0  0
  180.0920  180.4590  136.1210 C   0  0  1  0  0  3  0  0  0  0  0  0
  182.3010  173.3320  137.0320 N   0  0  0  0  0  0  0  0  0  0  0  0
  183.2610  172.3150  136.7090 C   0  0  0  0  0  0  0  0  0  0  0  0
  180.2800  174.2850  137.3120 O   0  0  0  0  0  0  0  0  0  0  0  0
  180.4430  171.9780  137.8630 C   0  0  0  0  0  2  0  0  0  0  0  0
  182.9460  171.0920  136.7620 O   0  0  0  0  0  0  0  0  0  0  0  0
  180.9630  173.1170  137.4210 C   0  0  0  0  0  0  0  0  0  0  0  0
  182.5060  174.6460  136.7330 O   0  0  0  0  0  0  0  0  0  0  0  0
  181.1980  175.2320  136.7780 C   0  0  2  0  0  3  0  0  0  0  0  0
  187.4880  172.3620  136.7030 C   0  0  0  0  0  2  0  0  0  0  0  0
  185.4320  173.1440  137.5830 C   0  0  0  0  0  2  0  0  0  0  0  0
  185.3800  171.5650  135.6260 C   0  0  0  0  0  2  0  0  0  0  0  0
  186.8440  171.9230  135.3870 C   0  0  0  0  0  2  0  0  0  0  0  0
  184.6570  172.7120  136.3340 C   0  0  1  0  0  3  0  0  0  0  0  0
  186.7940  173.5390  137.2190 N   0  0  0  0  0  2  0  0  0  0  0  0
  1  4  1  1  0  0  0
  2  1  1  0  0  0  0
  3 28  1  6  0  0  0
  3  2  1  0  0  0  0
  3  1  1  0  0  0  0
  5  6  1  0  0  0  0
  5  1  1  0  0  0  0
  6  8  1  0  0  0  0
  8  7  1  6  0  0  0
  8  9  1  0  0  0  0
  9 10  1  0  0  0  0
 10 12  1  0  0  0  0
 11 10  2  0  0  0  0
 12 13  1  0  0  0  0
 13 17  1  0  0  0  0
 14 16  1  0  0  0  0
 14 15  1  0  0  0  0
 16 13  1  0  0  0  0
 16 15  1  0  0  0  0
 17 24  1  6  0  0  0
 17 19  1  0  0  0  0
 18 21  1  0  0  0  0
 19 20  1  0  0  0  0
 19 18  2  0  0  0  0
 20 22  2  0  0  0  0
 21 23  2  0  0  0  0
 22 23  1  0  0  0  0
 25 24  1  0  0  0  0
 25 27  1  0  0  0  0
 27 26  2  0  0  0  0
 29 34  1  0  0  0  0
 29 36  1  0  0  0  0
 30 35  1  0  0  0  0
 31 34  2  0  0  0  0
 33 35  2  0  0  0  0
 33 28  1  0  0  0  0
 34 33  1  0  0  0  0
 36 32  1  1  0  0  0
 36 30  1  0  0  0  0
 37 42  1  0  0  0  0
 38 41  2  0  0  0  0
 38 37  1  0  0  0  0
 39 42  1  0  0  0  0
 42 40  2  0  0  0  0
 43 44  1  0  0  0  0
 43 37  1  0  0  0  0
 44 39  1  0  0  0  0
 44 28  1  1  0  0  0
 45 50  1  0  0  0  0
 47 49  1  0  0  0  0
 48 47  1  0  0  0  0
 48 45  1  0  0  0  0
 49 38  1  1  0  0  0
 49 46  1  0  0  0  0
 50 46  1  0  0  0  0
M  END
>  <MODEL>
9

>  <REMARK>
 VINA RESULT:      -5.7      2.459      4.446
  Name = 
  16 active torsions:
  status: ('A' for Active; 'I' for Inactive)
    1  A    between atoms: N_2  and  C_37
    2  A    between atoms: C_5  and  C_10
    3  A    between atoms: C_10  and  N_38
    4  A    between atoms: C_10  and  C_43
    5  A    between atoms: C_13  and  C_36
    6  A    between atoms: C_22  and  N_38
    7  A    between atoms: C_25  and  N_29
    8  A    between atoms: O_26  and  C_30
    9  A    between atoms: O_26  and  C_34
   10  A    between atoms: C_27  and  C_35
   11  A    between atoms: N_29  and  C_48
   12  A    between atoms: N_29  and  C_50
   13  A    between atoms: C_33  and  O_47
   14  A    between atoms: C_34  and  C_37
   15  A    between atoms: C_35  and  N_38
   16  A    between atoms: C_43  and  O_47
                            x       y       z     vdW  Elec       q    Type
                         _______ _______ _______ _____ _____    ______ ____

>  <TORSDO>
F 16

$$$$
