=
 OpenBabel11062415303D

 37 42  0  0  1  0  0  0  0  0999 V2000
  183.2360  179.0660  144.1600 O   0  0  0  0  0  1  0  0  0  0  0  0
  183.1880  178.7160  140.5220 C   0  0  1  0  0  0  0  0  0  0  0  0
  180.7470  179.5590  140.5420 C   0  0  0  0  0  2  0  0  0  0  0  0
  180.5060  178.4500  141.5850 C   0  0  0  0  0  2  0  0  0  0  0  0
  182.7240  178.6270  142.9390 C   0  0  2  0  0  3  0  0  0  0  0  0
  182.0430  179.3590  139.7170 C   0  0  1  0  0  3  0  0  0  0  0  0
  184.5000  179.3780  140.9830 C   0  0  1  0  0  3  0  0  0  0  0  0
  183.2440  179.5320  141.8300 C   0  0  1  0  0  3  0  0  0  0  0  0
  181.1770  178.7310  142.9500 C   0  0  2  0  0  3  0  0  0  0  0  0
  187.6570  178.2030  142.2600 N   0  0  0  0  0  0  0  0  0  0  0  0
  188.7780  176.6530  143.5610 C   0  0  0  0  0  2  0  0  0  0  0  0
  188.3840  176.9820  142.1510 C   0  0  2  0  0  3  0  0  0  0  0  0
  186.8070  178.4040  141.1850 C   0  0  0  0  0  0  0  0  0  0  0  0
  185.4500  178.4510  141.6000 N   0  0  0  0  0  0  0  0  0  0  0  0
  189.3810  177.1260  141.0950 N   0  0  0  0  0  2  0  0  0  0  0  0
  185.4660  178.1990  143.0570 C   0  0  0  0  0  2  0  0  0  0  0  0
  187.5000  177.1090  144.3100 C   0  0  2  0  0  3  0  0  0  0  0  0
  187.2450  178.0450  139.9730 C   0  0  0  0  0  3  0  0  0  0  0  0
  186.9460  178.2920  143.4950 C   0  0  1  0  0  3  0  0  0  0  0  0
  188.7200  177.6070  139.8370 C   0  0  0  0  0  2  0  0  0  0  0  0
  189.3880  177.8780  147.5230 C   0  0  0  0  0  3  0  0  0  0  0  0
  185.4340  177.8840  146.1370 O   0  0  0  0  0  1  0  0  0  0  0  0
  189.1150  177.5060  146.2050 C   0  0  0  0  0  3  0  0  0  0  0  0
  186.7490  177.8780  146.5840 C   0  0  0  0  0  0  0  0  0  0  0  0
  187.0260  178.2490  147.9050 C   0  0  0  0  0  3  0  0  0  0  0  0
  188.3430  178.2500  148.3740 C   0  0  0  0  0  3  0  0  0  0  0  0
  187.7960  177.5030  145.7260 C   0  0  0  0  0  0  0  0  0  0  0  0
  183.6640  180.7900  138.7190 O   0  0  0  0  0  0  0  0  0  0  0  0
  182.4480  180.6040  138.9900 C   0  0  0  0  0  0  0  0  0  0  0  0
  181.4710  181.5880  138.6470 N   0  0  0  0  0  2  0  0  0  0  0  0
  181.8260  182.8230  137.9690 C   0  0  0  0  0  1  0  0  0  0  0  0
  180.5890  177.7660  143.9680 C   0  0  0  0  0  2  0  0  0  0  0  0
  179.3110  178.1820  144.3440 O   0  0  0  0  0  1  0  0  0  0  0  0
  183.1750  177.1690  140.6030 C   0  0  0  0  0  2  0  0  0  0  0  0
  182.9160  176.5200  139.2780 C   0  0  0  0  0  0  0  0  0  0  0  0
  183.8050  176.7770  138.1100 C   0  0  0  0  0  1  0  0  0  0  0  0
  181.8800  175.6970  139.1430 C   0  0  0  0  0  2  0  0  0  0  0  0
  2 34  1  1  0  0  0
  2  7  1  0  0  0  0
  2  8  1  0  0  0  0
  3  4  1  0  0  0  0
  4  9  1  0  0  0  0
  5  9  1  0  0  0  0
  5  1  1  1  0  0  0
  6 29  1  1  0  0  0
  6  2  1  0  0  0  0
  6  3  1  0  0  0  0
  7 14  1  1  0  0  0
  7  8  1  0  0  0  0
  8  5  1  0  0  0  0
  9 32  1  0  0  0  0
 10 19  1  0  0  0  0
 11 17  1  0  0  0  0
 12 10  1  0  0  0  0
 12 11  1  0  0  0  0
 13 14  1  0  0  0  0
 13 10  1  0  0  0  0
 14 16  1  0  0  0  0
 15 12  1  0  0  0  0
 16 19  1  0  0  0  0
 17 27  1  0  0  0  0
 18 13  2  0  0  0  0
 19 17  1  0  0  0  0
 20 18  1  0  0  0  0
 20 15  1  0  0  0  0
 21 26  1  0  0  0  0
 22 24  1  0  0  0  0
 23 21  2  0  0  0  0
 24 25  1  0  0  0  0
 25 26  2  0  0  0  0
 27 23  1  0  0  0  0
 27 24  2  0  0  0  0
 28 29  2  0  0  0  0
 30 29  1  0  0  0  0
 31 30  1  0  0  0  0
 32 33  1  0  0  0  0
 35 34  1  0  0  0  0
 36 35  1  0  0  0  0
 37 35  2  0  0  0  0
M  END
>  <MODEL>
1

>  <REMARK>
 VINA RESULT:      -8.1      0.000      0.000
  Name = 
  6 active torsions:
  status: ('A' for Active; 'I' for Inactive)
    1  A    between atoms: C_1  and  C_36
    2  A    between atoms: C_5  and  C_18
    3  A    between atoms: C_8  and  C_18
    4  A    between atoms: N_13  and  C_25
    5  A    between atoms: C_16  and  C_21
    6  A    between atoms: C_26  and  C_31
                            x       y       z     vdW  Elec       q    Type
                         _______ _______ _______ _____ _____    ______ ____

>  <TORSDO>
F 6

$$$$
=
 OpenBabel11062415303D

 37 42  0  0  1  0  0  0  0  0999 V2000
  185.0080  179.6060  142.7660 O   0  0  0  0  0  1  0  0  0  0  0  0
  183.1300  178.4680  139.8440 C   0  0  1  0  0  0  0  0  0  0  0  0
  180.9880  179.4060  140.9420 C   0  0  0  0  0  2  0  0  0  0  0  0
  181.4000  178.5640  142.1670 C   0  0  0  0  0  2  0  0  0  0  0  0
  183.9770  178.9330  142.1090 C   0  0  2  0  0  3  0  0  0  0  0  0
  181.6890  178.9700  139.6300 C   0  0  1  0  0  3  0  0  0  0  0  0
  184.4380  179.1540  139.4110 C   0  0  1  0  0  3  0  0  0  0  0  0
  183.7860  179.5480  140.7290 C   0  0  1  0  0  3  0  0  0  0  0  0
  182.6520  179.1070  142.8940 C   0  0  2  0  0  3  0  0  0  0  0  0
  187.9470  178.3390  139.4510 N   0  0  0  0  0  0  0  0  0  0  0  0
  189.6140  176.9390  140.2330 C   0  0  0  0  0  2  0  0  0  0  0  0
  188.7090  177.1980  139.0650 C   0  0  2  0  0  3  0  0  0  0  0  0
  186.7520  178.4300  138.7550 C   0  0  0  0  0  0  0  0  0  0  0  0
  185.6370  178.3430  139.6290 N   0  0  0  0  0  0  0  0  0  0  0  0
  189.2420  177.4250  137.7250 N   0  0  0  0  0  2  0  0  0  0  0  0
  186.1990  178.1220  140.9780 C   0  0  0  0  0  2  0  0  0  0  0  0
  188.6480  177.2740  141.3990 C   0  0  2  0  0  3  0  0  0  0  0  0
  186.7630  178.0960  137.4590 C   0  0  0  0  0  3  0  0  0  0  0  0
  187.7200  178.3770  140.8600 C   0  0  1  0  0  3  0  0  0  0  0  0
  188.1280  177.8110  136.7960 C   0  0  0  0  0  2  0  0  0  0  0  0
  191.3550  178.7080  143.6570 C   0  0  0  0  0  3  0  0  0  0  0  0
  187.5310  177.0340  144.0260 O   0  0  0  0  0  1  0  0  0  0  0  0
  190.6700  178.2870  142.5150 C   0  0  0  0  0  3  0  0  0  0  0  0
  188.7990  177.5880  143.8910 C   0  0  0  0  0  0  0  0  0  0  0  0
  189.4880  178.0100  145.0320 C   0  0  0  0  0  3  0  0  0  0  0  0
  190.7640  178.5700  144.9160 C   0  0  0  0  0  3  0  0  0  0  0  0
  189.3890  177.7230  142.6220 C   0  0  0  0  0  0  0  0  0  0  0  0
  181.7420  179.6680  137.3540 O   0  0  0  0  0  0  0  0  0  0  0  0
  181.5690  180.0050  138.5550 C   0  0  0  0  0  0  0  0  0  0  0  0
  181.3040  181.3680  138.8930 N   0  0  0  0  0  2  0  0  0  0  0  0
  181.2090  182.4080  137.8820 C   0  0  0  0  0  1  0  0  0  0  0  0
  182.7430  178.4180  144.2470 C   0  0  0  0  0  2  0  0  0  0  0  0
  183.1840  179.3180  145.2170 O   0  0  0  0  0  1  0  0  0  0  0  0
  183.2760  176.9790  140.2450 C   0  0  0  0  0  2  0  0  0  0  0  0
  182.6170  176.0480  139.2740 C   0  0  0  0  0  0  0  0  0  0  0  0
  181.2610  175.4910  139.5430 C   0  0  0  0  0  1  0  0  0  0  0  0
  183.2500  175.7180  138.1520 C   0  0  0  0  0  2  0  0  0  0  0  0
  2 34  1  1  0  0  0
  2  8  1  0  0  0  0
  3  4  1  0  0  0  0
  4  9  1  0  0  0  0
  5  1  1  1  0  0  0
  5  9  1  0  0  0  0
  6 29  1  6  0  0  0
  6  2  1  0  0  0  0
  6  3  1  0  0  0  0
  7 14  1  1  0  0  0
  7  2  1  0  0  0  0
  7  8  1  0  0  0  0
  8  5  1  0  0  0  0
  9 32  1  0  0  0  0
 10 19  1  0  0  0  0
 11 17  1  0  0  0  0
 12 10  1  0  0  0  0
 12 11  1  0  0  0  0
 13 10  1  0  0  0  0
 13 14  1  0  0  0  0
 14 16  1  0  0  0  0
 15 12  1  0  0  0  0
 17 27  1  0  0  0  0
 18 13  2  0  0  0  0
 19 16  1  0  0  0  0
 19 17  1  0  0  0  0
 20 18  1  0  0  0  0
 20 15  1  0  0  0  0
 21 26  1  0  0  0  0
 23 27  1  0  0  0  0
 23 21  2  0  0  0  0
 24 22  1  0  0  0  0
 24 25  1  0  0  0  0
 26 25  2  0  0  0  0
 27 24  2  0  0  0  0
 28 29  2  0  0  0  0
 29 30  1  0  0  0  0
 31 30  1  0  0  0  0
 32 33  1  0  0  0  0
 35 36  1  0  0  0  0
 35 34  1  0  0  0  0
 37 35  2  0  0  0  0
M  END
>  <MODEL>
2

>  <REMARK>
 VINA RESULT:      -7.5      1.855      2.609
  Name = 
  6 active torsions:
  status: ('A' for Active; 'I' for Inactive)
    1  A    between atoms: C_1  and  C_36
    2  A    between atoms: C_5  and  C_18
    3  A    between atoms: C_8  and  C_18
    4  A    between atoms: N_13  and  C_25
    5  A    between atoms: C_16  and  C_21
    6  A    between atoms: C_26  and  C_31
                            x       y       z     vdW  Elec       q    Type
                         _______ _______ _______ _____ _____    ______ ____

>  <TORSDO>
F 6

$$$$
=
 OpenBabel11062415303D

 37 42  0  0  1  0  0  0  0  0999 V2000
  183.2280  179.1160  137.8600 O   0  0  0  0  0  1  0  0  0  0  0  0
  180.7130  178.3200  140.3900 C   0  0  1  0  0  0  0  0  0  0  0  0
  178.9310  178.3220  138.5200 C   0  0  0  0  0  2  0  0  0  0  0  0
  179.4860  179.7170  138.1680 C   0  0  0  0  0  2  0  0  0  0  0  0
  182.0260  179.2910  138.5470 C   0  0  2  0  0  3  0  0  0  0  0  0
  179.3170  177.8460  139.9440 C   0  0  1  0  0  3  0  0  0  0  0  0
  181.9750  177.4620  140.5950 C   0  0  1  0  0  3  0  0  0  0  0  0
  181.6340  177.9740  139.2030 C   0  0  1  0  0  3  0  0  0  0  0  0
  180.9030  179.6790  137.5520 C   0  0  2  0  0  3  0  0  0  0  0  0
  184.7070  178.1400  142.8450 N   0  0  0  0  0  0  0  0  0  0  0  0
  186.6250  179.3610  143.2680 C   0  0  0  0  0  2  0  0  0  0  0  0
  185.1530  179.2950  143.5500 C   0  0  2  0  0  3  0  0  0  0  0  0
  183.3490  178.1870  142.5700 C   0  0  0  0  0  0  0  0  0  0  0  0
  183.1050  178.1940  141.1710 N   0  0  0  0  0  0  0  0  0  0  0  0
  184.6410  179.2340  144.9160 N   0  0  0  0  0  2  0  0  0  0  0  0
  184.4380  178.2090  140.5300 C   0  0  0  0  0  2  0  0  0  0  0  0
  186.6350  178.9060  141.7860 C   0  0  2  0  0  3  0  0  0  0  0  0
  182.5440  178.6930  143.5100 C   0  0  0  0  0  3  0  0  0  0  0  0
  185.4610  177.9200  141.6520 C   0  0  1  0  0  3  0  0  0  0  0  0
  183.1560  179.0170  144.8900 C   0  0  0  0  0  2  0  0  0  0  0  0
  189.9750  177.0990  142.0340 C   0  0  0  0  0  3  0  0  0  0  0  0
  187.5440  178.7950  139.0720 O   0  0  0  0  0  1  0  0  0  0  0  0
  188.7630  177.6960  142.3900 C   0  0  0  0  0  3  0  0  0  0  0  0
  188.3410  178.2360  140.0640 C   0  0  0  0  0  0  0  0  0  0  0  0
  189.5560  177.6380  139.7120 C   0  0  0  0  0  3  0  0  0  0  0  0
  190.3720  177.0700  140.6940 C   0  0  0  0  0  3  0  0  0  0  0  0
  187.9390  178.2690  141.4100 C   0  0  0  0  0  0  0  0  0  0  0  0
  178.9320  175.9200  141.2890 O   0  0  0  0  0  0  0  0  0  0  0  0
  179.0970  176.3770  140.1270 C   0  0  0  0  0  0  0  0  0  0  0  0
  179.1140  175.4990  139.0000 N   0  0  0  0  0  2  0  0  0  0  0  0
  178.9340  174.0640  139.1390 C   0  0  0  0  0  1  0  0  0  0  0  0
  181.1840  181.0430  136.9410 C   0  0  0  0  0  2  0  0  0  0  0  0
  181.4900  181.9660  137.9410 O   0  0  0  0  0  1  0  0  0  0  0  0
  180.7830  179.7410  141.0040 C   0  0  0  0  0  2  0  0  0  0  0  0
  179.5580  180.0950  141.7900 C   0  0  0  0  0  0  0  0  0  0  0  0
  179.0310  179.1830  142.8440 C   0  0  0  0  0  1  0  0  0  0  0  0
  178.9340  181.2440  141.5470 C   0  0  0  0  0  2  0  0  0  0  0  0
  2  7  1  0  0  0  0
  2 34  1  1  0  0  0
  3  6  1  0  0  0  0
  4  3  1  0  0  0  0
  5  1  1  6  0  0  0
  5  8  1  0  0  0  0
  6 29  1  6  0  0  0
  6  2  1  0  0  0  0
  7 14  1  1  0  0  0
  8  2  1  0  0  0  0
  8  7  1  0  0  0  0
  9  4  1  0  0  0  0
  9  5  1  0  0  0  0
 10 12  1  0  0  0  0
 11 12  1  0  0  0  0
 12 15  1  0  0  0  0
 13 10  1  0  0  0  0
 13 18  2  0  0  0  0
 14 13  1  0  0  0  0
 16 14  1  0  0  0  0
 16 19  1  0  0  0  0
 17 11  1  0  0  0  0
 18 20  1  0  0  0  0
 19 17  1  0  0  0  0
 19 10  1  0  0  0  0
 20 15  1  0  0  0  0
 21 23  1  0  0  0  0
 22 24  1  0  0  0  0
 24 27  1  0  0  0  0
 25 24  2  0  0  0  0
 25 26  1  0  0  0  0
 26 21  2  0  0  0  0
 27 17  1  0  0  0  0
 27 23  2  0  0  0  0
 29 28  2  0  0  0  0
 30 31  1  0  0  0  0
 30 29  1  0  0  0  0
 32  9  1  0  0  0  0
 32 33  1  0  0  0  0
 34 35  1  0  0  0  0
 35 36  1  0  0  0  0
 37 35  2  0  0  0  0
M  END
>  <MODEL>
3

>  <REMARK>
 VINA RESULT:      -7.0      3.038      5.561
  Name = 
  6 active torsions:
  status: ('A' for Active; 'I' for Inactive)
    1  A    between atoms: C_1  and  C_36
    2  A    between atoms: C_5  and  C_18
    3  A    between atoms: C_8  and  C_18
    4  A    between atoms: N_13  and  C_25
    5  A    between atoms: C_16  and  C_21
    6  A    between atoms: C_26  and  C_31
                            x       y       z     vdW  Elec       q    Type
                         _______ _______ _______ _____ _____    ______ ____

>  <TORSDO>
F 6

$$$$
=
 OpenBabel11062415303D

 37 42  0  0  1  0  0  0  0  0999 V2000
  180.9510  177.7280  142.1660 O   0  0  0  0  0  1  0  0  0  0  0  0
  181.5900  178.5160  138.6540 C   0  0  1  0  0  0  0  0  0  0  0  0
  179.0380  178.4760  138.2520 C   0  0  0  0  0  2  0  0  0  0  0  0
  179.0850  177.0840  138.9150 C   0  0  0  0  0  2  0  0  0  0  0  0
  180.8350  177.5440  140.7870 C   0  0  2  0  0  3  0  0  0  0  0  0
  180.4220  178.9690  137.7580 C   0  0  1  0  0  3  0  0  0  0  0  0
  182.4640  179.3910  139.5710 C   0  0  1  0  0  3  0  0  0  0  0  0
  181.1320  178.8630  140.0860 C   0  0  1  0  0  3  0  0  0  0  0  0
  179.3840  177.1340  140.4310 C   0  0  2  0  0  3  0  0  0  0  0  0
  185.7890  178.9090  140.8720 N   0  0  0  0  0  0  0  0  0  0  0  0
  187.2140  177.6040  142.1440 C   0  0  0  0  0  2  0  0  0  0  0  0
  186.7730  177.8860  140.7380 C   0  0  2  0  0  3  0  0  0  0  0  0
  184.9280  178.9530  139.7870 C   0  0  0  0  0  0  0  0  0  0  0  0
  183.5910  178.6790  140.1770 N   0  0  0  0  0  0  0  0  0  0  0  0
  187.7250  178.2880  139.7070 N   0  0  0  0  0  2  0  0  0  0  0  0
  183.6460  178.3850  141.6250 C   0  0  0  0  0  2  0  0  0  0  0  0
  185.8570  177.7340  142.8820 C   0  0  2  0  0  3  0  0  0  0  0  0
  185.4510  178.7460  138.5730 C   0  0  0  0  0  3  0  0  0  0  0  0
  185.0610  178.7910  142.0950 C   0  0  1  0  0  3  0  0  0  0  0  0
  186.9870  178.6540  138.4520 C   0  0  0  0  0  2  0  0  0  0  0  0
  185.3110  179.3780  146.2700 C   0  0  0  0  0  3  0  0  0  0  0  0
  188.0280  176.7460  144.4680 O   0  0  0  0  0  1  0  0  0  0  0  0
  185.1390  179.0130  144.9330 C   0  0  0  0  0  3  0  0  0  0  0  0
  187.1200  177.6190  145.0540 C   0  0  0  0  0  0  0  0  0  0  0  0
  187.2890  177.9880  146.3930 C   0  0  0  0  0  3  0  0  0  0  0  0
  186.3860  178.8650  147.0010 C   0  0  0  0  0  3  0  0  0  0  0  0
  186.0410  178.1330  144.3150 C   0  0  0  0  0  0  0  0  0  0  0  0
  181.1790  180.8810  136.5570 O   0  0  0  0  0  0  0  0  0  0  0  0
  180.4260  180.4370  137.4650 C   0  0  0  0  0  0  0  0  0  0  0  0
  179.6170  181.3280  138.2340 N   0  0  0  0  0  2  0  0  0  0  0  0
  179.6150  182.7620  138.0020 C   0  0  0  0  0  1  0  0  0  0  0  0
  179.0610  175.7680  141.0170 C   0  0  0  0  0  2  0  0  0  0  0  0
  179.9140  174.8010  140.4840 O   0  0  0  0  0  1  0  0  0  0  0  0
  182.1550  177.1020  138.3690 C   0  0  0  0  0  2  0  0  0  0  0  0
  182.2060  176.7810  136.9070 C   0  0  0  0  0  0  0  0  0  0  0  0
  182.9850  177.6300  135.9610 C   0  0  0  0  0  1  0  0  0  0  0  0
  181.5520  175.7180  136.4470 C   0  0  0  0  0  2  0  0  0  0  0  0
  2 34  1  6  0  0  0
  2  7  1  0  0  0  0
  2  8  1  0  0  0  0
  3  4  1  0  0  0  0
  4  9  1  0  0  0  0
  5  1  1  1  0  0  0
  6 29  1  1  0  0  0
  6  3  1  0  0  0  0
  6  2  1  0  0  0  0
  7  8  1  0  0  0  0
  7 14  1  1  0  0  0
  8  5  1  0  0  0  0
  9  5  1  0  0  0  0
  9 32  1  0  0  0  0
 10 19  1  0  0  0  0
 11 17  1  0  0  0  0
 12 10  1  0  0  0  0
 12 11  1  0  0  0  0
 13 14  1  0  0  0  0
 13 10  1  0  0  0  0
 14 16  1  0  0  0  0
 15 12  1  0  0  0  0
 16 19  1  0  0  0  0
 17 27  1  0  0  0  0
 18 13  2  0  0  0  0
 19 17  1  0  0  0  0
 20 18  1  0  0  0  0
 20 15  1  0  0  0  0
 21 26  1  0  0  0  0
 22 24  1  0  0  0  0
 23 21  2  0  0  0  0
 24 25  1  0  0  0  0
 25 26  2  0  0  0  0
 27 23  1  0  0  0  0
 27 24  2  0  0  0  0
 28 29  2  0  0  0  0
 29 30  1  0  0  0  0
 31 30  1  0  0  0  0
 33 32  1  0  0  0  0
 35 34  1  0  0  0  0
 36 35  1  0  0  0  0
 37 35  2  0  0  0  0
M  END
>  <MODEL>
4

>  <REMARK>
 VINA RESULT:      -6.8      2.177      2.858
  Name = 
  6 active torsions:
  status: ('A' for Active; 'I' for Inactive)
    1  A    between atoms: C_1  and  C_36
    2  A    between atoms: C_5  and  C_18
    3  A    between atoms: C_8  and  C_18
    4  A    between atoms: N_13  and  C_25
    5  A    between atoms: C_16  and  C_21
    6  A    between atoms: C_26  and  C_31
                            x       y       z     vdW  Elec       q    Type
                         _______ _______ _______ _____ _____    ______ ____

>  <TORSDO>
F 6

$$$$
=
 OpenBabel11062415303D

 37 42  0  0  1  0  0  0  0  0999 V2000
  185.9760  177.2790  138.3010 O   0  0  0  0  0  1  0  0  0  0  0  0
  182.7510  176.3880  136.8300 C   0  0  1  0  0  0  0  0  0  0  0  0
  184.0150  175.5470  134.7400 C   0  0  0  0  0  2  0  0  0  0  0  0
  184.6830  176.9360  134.7420 C   0  0  0  0  0  2  0  0  0  0  0  0
  185.0000  177.2720  137.3040 C   0  0  2  0  0  3  0  0  0  0  0  0
  182.7140  175.4860  135.5810 C   0  0  1  0  0  3  0  0  0  0  0  0
  182.8110  175.9470  138.3040 C   0  0  1  0  0  3  0  0  0  0  0  0
  184.1000  176.0590  137.5010 C   0  0  1  0  0  3  0  0  0  0  0  0
  185.6710  177.1440  135.9130 C   0  0  2  0  0  3  0  0  0  0  0  0
  181.7230  177.6650  141.2780 N   0  0  0  0  0  0  0  0  0  0  0  0
  182.0150  179.4580  142.7100 C   0  0  0  0  0  2  0  0  0  0  0  0
  181.2080  178.9680  141.5440 C   0  0  2  0  0  3  0  0  0  0  0  0
  181.4730  177.2600  139.9760 C   0  0  0  0  0  0  0  0  0  0  0  0
  182.6800  177.0480  139.2600 N   0  0  0  0  0  0  0  0  0  0  0  0
  179.7520  178.8900  141.6040 N   0  0  0  0  0  2  0  0  0  0  0  0
  183.7700  177.4110  140.1920 C   0  0  0  0  0  2  0  0  0  0  0  0
  183.4040  178.8790  142.3370 C   0  0  2  0  0  3  0  0  0  0  0  0
  180.2900  177.5840  139.4430 C   0  0  0  0  0  3  0  0  0  0  0  0
  183.1140  177.5690  141.5830 C   0  0  1  0  0  3  0  0  0  0  0  0
  179.2300  178.2210  140.3660 C   0  0  0  0  0  2  0  0  0  0  0  0
  184.4940  178.5270  145.9660 C   0  0  0  0  0  3  0  0  0  0  0  0
  186.1780  178.1890  142.1440 O   0  0  0  0  0  1  0  0  0  0  0  0
  183.7020  178.7530  144.8380 C   0  0  0  0  0  3  0  0  0  0  0  0
  185.6070  178.3040  143.4060 C   0  0  0  0  0  0  0  0  0  0  0  0
  186.3980  178.0810  144.5390 C   0  0  0  0  0  3  0  0  0  0  0  0
  185.8420  178.1910  145.8160 C   0  0  0  0  0  3  0  0  0  0  0  0
  184.2520  178.6440  143.5510 C   0  0  0  0  0  0  0  0  0  0  0  0
  181.0800  173.8370  136.1080 O   0  0  0  0  0  0  0  0  0  0  0  0
  182.2930  174.0800  135.8690 C   0  0  0  0  0  0  0  0  0  0  0  0
  183.2630  173.0310  135.9150 N   0  0  0  0  0  2  0  0  0  0  0  0
  182.9000  171.6580  136.2210 C   0  0  0  0  0  1  0  0  0  0  0  0
  186.5020  178.3810  135.6100 C   0  0  0  0  0  2  0  0  0  0  0  0
  187.8580  178.1080  135.7960 O   0  0  0  0  0  1  0  0  0  0  0  0
  182.3660  177.8710  136.6070 C   0  0  0  0  0  2  0  0  0  0  0  0
  181.2110  178.0370  135.6670 C   0  0  0  0  0  0  0  0  0  0  0  0
  179.9120  177.3490  135.9160 C   0  0  0  0  0  1  0  0  0  0  0  0
  181.3450  178.8150  134.5970 C   0  0  0  0  0  2  0  0  0  0  0  0
  2 34  1  6  0  0  0
  2  8  1  0  0  0  0
  2  7  1  0  0  0  0
  3  4  1  0  0  0  0
  3  6  1  0  0  0  0
  4  9  1  0  0  0  0
  5  8  1  0  0  0  0
  5  1  1  1  0  0  0
  6 29  1  1  0  0  0
  6  2  1  0  0  0  0
  7 14  1  1  0  0  0
  8  7  1  0  0  0  0
  9  5  1  0  0  0  0
 10 12  1  0  0  0  0
 10 19  1  0  0  0  0
 12 15  1  0  0  0  0
 12 11  1  0  0  0  0
 13 10  1  0  0  0  0
 14 13  1  0  0  0  0
 14 16  1  0  0  0  0
 16 19  1  0  0  0  0
 17 11  1  0  0  0  0
 17 27  1  0  0  0  0
 18 13  2  0  0  0  0
 18 20  1  0  0  0  0
 19 17  1  0  0  0  0
 20 15  1  0  0  0  0
 22 24  1  0  0  0  0
 23 21  2  0  0  0  0
 24 27  2  0  0  0  0
 24 25  1  0  0  0  0
 25 26  2  0  0  0  0
 26 21  1  0  0  0  0
 27 23  1  0  0  0  0
 29 30  1  0  0  0  0
 29 28  2  0  0  0  0
 30 31  1  0  0  0  0
 32 33  1  0  0  0  0
 32  9  1  0  0  0  0
 35 36  1  0  0  0  0
 35 34  1  0  0  0  0
 37 35  2  0  0  0  0
M  END
>  <MODEL>
5

>  <REMARK>
 VINA RESULT:      -6.7      3.442      6.711
  Name = 
  6 active torsions:
  status: ('A' for Active; 'I' for Inactive)
    1  A    between atoms: C_1  and  C_36
    2  A    between atoms: C_5  and  C_18
    3  A    between atoms: C_8  and  C_18
    4  A    between atoms: N_13  and  C_25
    5  A    between atoms: C_16  and  C_21
    6  A    between atoms: C_26  and  C_31
                            x       y       z     vdW  Elec       q    Type
                         _______ _______ _______ _____ _____    ______ ____

>  <TORSDO>
F 6

$$$$
=
 OpenBabel11062415303D

 37 42  0  0  1  0  0  0  0  0999 V2000
  185.9850  179.2150  141.3330 O   0  0  0  0  0  1  0  0  0  0  0  0
  183.2750  178.3850  139.0250 C   0  0  1  0  0  0  0  0  0  0  0  0
  181.6320  179.5460  140.6460 C   0  0  0  0  0  2  0  0  0  0  0  0
  182.2480  178.6310  141.7230 C   0  0  0  0  0  2  0  0  0  0  0  0
  184.7420  178.6880  140.9790 C   0  0  2  0  0  3  0  0  0  0  0  0
  181.9020  179.0630  139.1980 C   0  0  1  0  0  3  0  0  0  0  0  0
  184.4950  178.9200  138.2540 C   0  0  1  0  0  3  0  0  0  0  0  0
  184.2690  179.3560  139.6950 C   0  0  1  0  0  3  0  0  0  0  0  0
  183.7040  179.0010  142.0870 C   0  0  2  0  0  3  0  0  0  0  0  0
  187.7220  177.6510  137.2750 N   0  0  0  0  0  0  0  0  0  0  0  0
  189.3770  176.0690  137.6070 C   0  0  0  0  0  2  0  0  0  0  0  0
  188.1880  176.4080  136.7560 C   0  0  2  0  0  3  0  0  0  0  0  0
  186.3880  177.8770  136.9740 C   0  0  0  0  0  0  0  0  0  0  0  0
  185.6000  177.9650  138.1510 N   0  0  0  0  0  0  0  0  0  0  0  0
  188.2960  176.5190  135.3050 N   0  0  0  0  0  2  0  0  0  0  0  0
  186.5270  177.7150  139.2760 C   0  0  0  0  0  2  0  0  0  0  0  0
  188.8700  176.5660  138.9850 C   0  0  2  0  0  3  0  0  0  0  0  0
  185.9540  177.5020  135.7650 C   0  0  0  0  0  3  0  0  0  0  0  0
  187.9530  177.7630  138.6790 C   0  0  1  0  0  3  0  0  0  0  0  0
  187.0000  177.0190  134.7380 C   0  0  0  0  0  2  0  0  0  0  0  0
  192.3470  177.5010  140.2150 C   0  0  0  0  0  3  0  0  0  0  0  0
  188.5050  176.9640  141.7990 O   0  0  0  0  0  1  0  0  0  0  0  0
  191.2950  177.1360  139.3720 C   0  0  0  0  0  3  0  0  0  0  0  0
  189.7750  177.1390  141.2610 C   0  0  0  0  0  0  0  0  0  0  0  0
  190.8310  177.5030  142.1030 C   0  0  0  0  0  3  0  0  0  0  0  0
  192.1150  177.6850  141.5810 C   0  0  0  0  0  3  0  0  0  0  0  0
  190.0030  176.9520  139.8870 C   0  0  0  0  0  0  0  0  0  0  0  0
  181.8310  181.3360  138.4940 O   0  0  0  0  0  0  0  0  0  0  0  0
  181.6300  180.1310  138.1860 C   0  0  0  0  0  0  0  0  0  0  0  0
  181.1060  179.7910  136.9010 N   0  0  0  0  0  2  0  0  0  0  0  0
  180.8000  180.8000  135.9020 C   0  0  0  0  0  1  0  0  0  0  0  0
  184.0650  178.2710  143.3720 C   0  0  0  0  0  2  0  0  0  0  0  0
  183.4540  178.8880  144.4640 O   0  0  0  0  0  1  0  0  0  0  0  0
  183.3380  176.8800  139.3850 C   0  0  0  0  0  2  0  0  0  0  0  0
  182.3700  176.0530  138.5960 C   0  0  0  0  0  0  0  0  0  0  0  0
  182.5130  175.9010  137.1200 C   0  0  0  0  0  1  0  0  0  0  0  0
  181.3700  175.4400  139.2230 C   0  0  0  0  0  2  0  0  0  0  0  0
  2  6  1  0  0  0  0
  2 34  1  1  0  0  0
  2  8  1  0  0  0  0
  3  4  1  0  0  0  0
  4  9  1  0  0  0  0
  5  1  1  1  0  0  0
  5  9  1  0  0  0  0
  6 29  1  6  0  0  0
  6  3  1  0  0  0  0
  7 14  1  1  0  0  0
  7  2  1  0  0  0  0
  7  8  1  0  0  0  0
  8  5  1  0  0  0  0
  9 32  1  0  0  0  0
 10 19  1  0  0  0  0
 11 17  1  0  0  0  0
 12 10  1  0  0  0  0
 12 11  1  0  0  0  0
 13 10  1  0  0  0  0
 13 14  1  0  0  0  0
 14 16  1  0  0  0  0
 15 12  1  0  0  0  0
 17 27  1  0  0  0  0
 18 13  2  0  0  0  0
 19 17  1  0  0  0  0
 19 16  1  0  0  0  0
 20 15  1  0  0  0  0
 20 18  1  0  0  0  0
 21 26  1  0  0  0  0
 23 27  1  0  0  0  0
 23 21  2  0  0  0  0
 24 22  1  0  0  0  0
 24 25  1  0  0  0  0
 26 25  2  0  0  0  0
 27 24  2  0  0  0  0
 29 28  2  0  0  0  0
 30 29  1  0  0  0  0
 31 30  1  0  0  0  0
 32 33  1  0  0  0  0
 35 37  2  0  0  0  0
 35 34  1  0  0  0  0
 36 35  1  0  0  0  0
M  END
>  <MODEL>
6

>  <REMARK>
 VINA RESULT:      -6.5      2.953      4.393
  Name = 
  6 active torsions:
  status: ('A' for Active; 'I' for Inactive)
    1  A    between atoms: C_1  and  C_36
    2  A    between atoms: C_5  and  C_18
    3  A    between atoms: C_8  and  C_18
    4  A    between atoms: N_13  and  C_25
    5  A    between atoms: C_16  and  C_21
    6  A    between atoms: C_26  and  C_31
                            x       y       z     vdW  Elec       q    Type
                         _______ _______ _______ _____ _____    ______ ____

>  <TORSDO>
F 6

$$$$
=
 OpenBabel11062415303D

 37 42  0  0  1  0  0  0  0  0999 V2000
  186.2330  178.6310  139.0750 O   0  0  0  0  0  1  0  0  0  0  0  0
  183.1810  177.2060  137.6570 C   0  0  1  0  0  0  0  0  0  0  0  0
  181.8800  179.2260  138.6060 C   0  0  0  0  0  2  0  0  0  0  0  0
  182.5400  178.8570  139.9500 C   0  0  0  0  0  2  0  0  0  0  0  0
  184.9110  178.1870  139.1090 C   0  0  2  0  0  3  0  0  0  0  0  0
  181.9130  178.0770  137.5660 C   0  0  1  0  0  3  0  0  0  0  0  0
  184.3370  177.1230  136.6430 C   0  0  1  0  0  3  0  0  0  0  0  0
  184.3420  178.2210  137.6970 C   0  0  1  0  0  3  0  0  0  0  0  0
  184.0590  179.1380  139.9880 C   0  0  2  0  0  3  0  0  0  0  0  0
  186.7050  174.4850  136.0000 N   0  0  0  0  0  0  0  0  0  0  0  0
  188.4500  173.1950  136.8010 C   0  0  0  0  0  2  0  0  0  0  0  0
  186.9640  173.2140  136.5900 C   0  0  2  0  0  3  0  0  0  0  0  0
  185.3930  174.8900  136.1850 C   0  0  0  0  0  0  0  0  0  0  0  0
  185.3230  176.0860  136.9480 N   0  0  0  0  0  0  0  0  0  0  0  0
  186.2940  172.1870  135.7980 N   0  0  0  0  0  2  0  0  0  0  0  0
  186.7190  176.4130  137.3120 C   0  0  0  0  0  2  0  0  0  0  0  0
  188.6790  174.6690  137.2210 C   0  0  2  0  0  3  0  0  0  0  0  0
  184.4380  173.9560  136.1000 C   0  0  0  0  0  3  0  0  0  0  0  0
  187.6160  175.4830  136.4620 C   0  0  1  0  0  3  0  0  0  0  0  0
  184.8470  172.5450  135.6270 C   0  0  0  0  0  2  0  0  0  0  0  0
  191.8950  175.3630  135.3070 C   0  0  0  0  0  3  0  0  0  0  0  0
  190.3380  175.9930  139.1460 O   0  0  0  0  0  1  0  0  0  0  0  0
  190.6030  174.9270  135.6110 C   0  0  0  0  0  3  0  0  0  0  0  0
  190.8430  175.7780  137.8690 C   0  0  0  0  0  0  0  0  0  0  0  0
  192.1370  176.2110  137.5620 C   0  0  0  0  0  3  0  0  0  0  0  0
  192.6620  176.0060  136.2830 C   0  0  0  0  0  3  0  0  0  0  0  0
  190.0680  175.1300  136.8920 C   0  0  0  0  0  0  0  0  0  0  0  0
  181.8340  177.7960  135.2030 O   0  0  0  0  0  0  0  0  0  0  0  0
  181.6150  178.5590  136.1810 C   0  0  0  0  0  0  0  0  0  0  0  0
  181.1270  179.8860  135.9690 N   0  0  0  0  0  2  0  0  0  0  0  0
  180.8540  180.4020  134.6390 C   0  0  0  0  0  1  0  0  0  0  0  0
  184.5120  179.0670  141.4380 C   0  0  0  0  0  2  0  0  0  0  0  0
  184.1040  177.8630  142.0120 O   0  0  0  0  0  1  0  0  0  0  0  0
  183.1470  176.0640  138.7020 C   0  0  0  0  0  2  0  0  0  0  0  0
  181.8240  175.3620  138.7530 C   0  0  0  0  0  0  0  0  0  0  0  0
  180.8900  175.5650  139.8970 C   0  0  0  0  0  1  0  0  0  0  0  0
  181.4760  174.5500  137.7600 C   0  0  0  0  0  2  0  0  0  0  0  0
  2  8  1  0  0  0  0
  2 34  1  1  0  0  0
  3  4  1  0  0  0  0
  4  9  1  0  0  0  0
  5  1  1  6  0  0  0
  5  9  1  0  0  0  0
  6 29  1  6  0  0  0
  6  2  1  0  0  0  0
  6  3  1  0  0  0  0
  7 14  1  1  0  0  0
  7  2  1  0  0  0  0
  7  8  1  0  0  0  0
  8  5  1  0  0  0  0
  9 32  1  0  0  0  0
 10 13  1  0  0  0  0
 10 19  1  0  0  0  0
 10 12  1  0  0  0  0
 11 17  1  0  0  0  0
 12 11  1  0  0  0  0
 13 14  1  0  0  0  0
 14 16  1  0  0  0  0
 15 12  1  0  0  0  0
 18 13  2  0  0  0  0
 19 17  1  0  0  0  0
 19 16  1  0  0  0  0
 20 15  1  0  0  0  0
 20 18  1  0  0  0  0
 21 23  2  0  0  0  0
 21 26  1  0  0  0  0
 23 27  1  0  0  0  0
 24 22  1  0  0  0  0
 25 24  1  0  0  0  0
 26 25  2  0  0  0  0
 27 17  1  0  0  0  0
 27 24  2  0  0  0  0
 28 29  2  0  0  0  0
 30 29  1  0  0  0  0
 31 30  1  0  0  0  0
 32 33  1  0  0  0  0
 34 35  1  0  0  0  0
 35 36  1  0  0  0  0
 37 35  2  0  0  0  0
M  END
>  <MODEL>
7

>  <REMARK>
 VINA RESULT:      -6.5      4.167      6.733
  Name = 
  6 active torsions:
  status: ('A' for Active; 'I' for Inactive)
    1  A    between atoms: C_1  and  C_36
    2  A    between atoms: C_5  and  C_18
    3  A    between atoms: C_8  and  C_18
    4  A    between atoms: N_13  and  C_25
    5  A    between atoms: C_16  and  C_21
    6  A    between atoms: C_26  and  C_31
                            x       y       z     vdW  Elec       q    Type
                         _______ _______ _______ _____ _____    ______ ____

>  <TORSDO>
F 6

$$$$
=
 OpenBabel11062415303D

 37 42  0  0  1  0  0  0  0  0999 V2000
  193.3980  176.1950  138.5230 O   0  0  0  0  0  1  0  0  0  0  0  0
  190.6670  175.3390  136.2490 C   0  0  1  0  0  0  0  0  0  0  0  0
  192.4150  174.3060  134.6500 C   0  0  0  0  0  2  0  0  0  0  0  0
  193.1360  175.6640  134.7660 C   0  0  0  0  0  2  0  0  0  0  0  0
  192.7420  176.1600  137.2920 C   0  0  2  0  0  3  0  0  0  0  0  0
  190.9290  174.3570  135.0910 C   0  0  1  0  0  3  0  0  0  0  0  0
  190.2870  174.9980  137.7010 C   0  0  1  0  0  3  0  0  0  0  0  0
  191.7530  175.0010  137.2910 C   0  0  1  0  0  3  0  0  0  0  0  0
  193.7670  175.9100  136.1560 C   0  0  2  0  0  3  0  0  0  0  0  0
  188.3550  177.0680  139.9290 N   0  0  0  0  0  0  0  0  0  0  0  0
  188.3210  178.8760  141.3710 C   0  0  0  0  0  2  0  0  0  0  0  0
  188.0210  178.4530  139.9630 C   0  0  2  0  0  3  0  0  0  0  0  0
  188.6210  176.6250  138.6430 C   0  0  0  0  0  0  0  0  0  0  0  0
  189.9590  176.1660  138.5210 N   0  0  0  0  0  0  0  0  0  0  0  0
  186.6930  178.6270  139.3830 N   0  0  0  0  0  2  0  0  0  0  0  0
  190.5870  176.4000  139.8390 C   0  0  0  0  0  2  0  0  0  0  0  0
  189.6060  178.0480  141.6310 C   0  0  2  0  0  3  0  0  0  0  0  0
  187.8630  177.1090  137.6530 C   0  0  0  0  0  3  0  0  0  0  0  0
  189.4370  176.7590  140.8080 C   0  0  1  0  0  3  0  0  0  0  0  0
  186.6430  177.9750  138.0320 C   0  0  0  0  0  2  0  0  0  0  0  0
  188.8780  177.5320  145.3310 C   0  0  0  0  0  3  0  0  0  0  0  0
  192.1560  177.3420  142.7290 O   0  0  0  0  0  1  0  0  0  0  0  0
  188.7020  177.8130  143.9740 C   0  0  0  0  0  3  0  0  0  0  0  0
  191.0610  177.4080  143.5810 C   0  0  0  0  0  0  0  0  0  0  0  0
  191.2330  177.1300  144.9410 C   0  0  0  0  0  3  0  0  0  0  0  0
  190.1430  177.1910  145.8150 C   0  0  0  0  0  3  0  0  0  0  0  0
  189.7900  177.7540  143.0900 C   0  0  0  0  0  0  0  0  0  0  0  0
  191.1460  172.0230  135.5060 O   0  0  0  0  0  0  0  0  0  0  0  0
  190.3620  172.9920  135.3230 C   0  0  0  0  0  0  0  0  0  0  0  0
  188.9490  172.7840  135.2970 N   0  0  0  0  0  2  0  0  0  0  0  0
  188.3600  171.4700  135.4880 C   0  0  0  0  0  1  0  0  0  0  0  0
  194.7210  177.0880  136.0350 C   0  0  0  0  0  2  0  0  0  0  0  0
  195.9750  176.6510  135.6100 O   0  0  0  0  0  1  0  0  0  0  0  0
  190.4480  176.8190  135.8470 C   0  0  0  0  0  2  0  0  0  0  0  0
  189.2320  177.0150  134.9940 C   0  0  0  0  0  0  0  0  0  0  0  0
  188.3800  175.8590  134.5940 C   0  0  0  0  0  1  0  0  0  0  0  0
  188.9040  178.2400  134.5940 C   0  0  0  0  0  2  0  0  0  0  0  0
  2 34  1  6  0  0  0
  2  8  1  0  0  0  0
  2  7  1  0  0  0  0
  3  4  1  0  0  0  0
  3  6  1  0  0  0  0
  4  9  1  0  0  0  0
  5  1  1  1  0  0  0
  6 29  1  1  0  0  0
  6  2  1  0  0  0  0
  7 14  1  1  0  0  0
  8  5  1  0  0  0  0
  8  7  1  0  0  0  0
  9  5  1  0  0  0  0
 10 12  1  0  0  0  0
 10 19  1  0  0  0  0
 11 17  1  0  0  0  0
 12 11  1  0  0  0  0
 13 10  1  0  0  0  0
 14 13  1  0  0  0  0
 14 16  1  0  0  0  0
 15 12  1  0  0  0  0
 16 19  1  0  0  0  0
 17 27  1  0  0  0  0
 18 20  1  0  0  0  0
 18 13  2  0  0  0  0
 19 17  1  0  0  0  0
 20 15  1  0  0  0  0
 21 26  1  0  0  0  0
 22 24  1  0  0  0  0
 23 21  2  0  0  0  0
 24 25  1  0  0  0  0
 25 26  2  0  0  0  0
 27 24  2  0  0  0  0
 27 23  1  0  0  0  0
 29 28  2  0  0  0  0
 30 29  1  0  0  0  0
 30 31  1  0  0  0  0
 32  9  1  0  0  0  0
 33 32  1  0  0  0  0
 35 34  1  0  0  0  0
 36 35  1  0  0  0  0
 37 35  2  0  0  0  0
M  END
>  <MODEL>
8

>  <REMARK>
 VINA RESULT:      -6.5      5.512      9.109
  Name = 
  6 active torsions:
  status: ('A' for Active; 'I' for Inactive)
    1  A    between atoms: C_1  and  C_36
    2  A    between atoms: C_5  and  C_18
    3  A    between atoms: C_8  and  C_18
    4  A    between atoms: N_13  and  C_25
    5  A    between atoms: C_16  and  C_21
    6  A    between atoms: C_26  and  C_31
                            x       y       z     vdW  Elec       q    Type
                         _______ _______ _______ _____ _____    ______ ____

>  <TORSDO>
F 6

$$$$
=
 OpenBabel11062415303D

 37 42  0  0  1  0  0  0  0  0999 V2000
  184.8900  178.6960  140.6240 O   0  0  0  0  0  1  0  0  0  0  0  0
  181.5100  178.2830  139.2950 C   0  0  1  0  0  0  0  0  0  0  0  0
  180.6600  179.8610  141.1560 C   0  0  0  0  0  2  0  0  0  0  0  0
  181.4010  178.9140  142.1210 C   0  0  0  0  0  2  0  0  0  0  0  0
  183.5260  178.4110  140.7040 C   0  0  2  0  0  3  0  0  0  0  0  0
  180.3940  179.2360  139.7620 C   0  0  1  0  0  3  0  0  0  0  0  0
  182.5160  178.5040  138.1520 C   0  0  1  0  0  3  0  0  0  0  0  0
  182.8140  179.0730  139.5320 C   0  0  1  0  0  3  0  0  0  0  0  0
  182.9410  179.0030  142.0110 C   0  0  2  0  0  3  0  0  0  0  0  0
  184.2420  176.0560  136.1480 N   0  0  0  0  0  0  0  0  0  0  0  0
  185.8650  174.4110  136.0520 C   0  0  0  0  0  2  0  0  0  0  0  0
  184.3910  174.6400  136.2160 C   0  0  2  0  0  3  0  0  0  0  0  0
  183.0750  176.4890  136.7600 C   0  0  0  0  0  0  0  0  0  0  0  0
  183.3540  177.3390  137.8620 N   0  0  0  0  0  0  0  0  0  0  0  0
  183.4200  174.0250  135.3170 N   0  0  0  0  0  2  0  0  0  0  0  0
  184.8280  177.3870  137.9700 C   0  0  0  0  0  2  0  0  0  0  0  0
  186.4150  175.6150  136.8590 C   0  0  2  0  0  3  0  0  0  0  0  0
  181.9800  175.7370  136.6050 C   0  0  0  0  0  3  0  0  0  0  0  0
  185.3780  176.7380  136.6790 C   0  0  1  0  0  3  0  0  0  0  0  0
  182.0470  174.5520  135.6180 C   0  0  0  0  0  2  0  0  0  0  0  0
  189.4080  176.2400  134.5940 C   0  0  0  0  0  3  0  0  0  0  0  0
  188.3410  176.8200  138.6040 O   0  0  0  0  0  1  0  0  0  0  0  0
  188.1440  175.8450  135.0380 C   0  0  0  0  0  3  0  0  0  0  0  0
  188.6830  176.6220  137.2720 C   0  0  0  0  0  0  0  0  0  0  0  0
  189.9480  177.0150  136.8230 C   0  0  0  0  0  3  0  0  0  0  0  0
  190.3100  176.8250  135.4860 C   0  0  0  0  0  3  0  0  0  0  0  0
  187.7720  176.0320  136.3790 C   0  0  0  0  0  0  0  0  0  0  0  0
  179.4220  179.9080  137.6950 O   0  0  0  0  0  0  0  0  0  0  0  0
  180.0210  180.2670  138.7430 C   0  0  0  0  0  0  0  0  0  0  0  0
  180.3790  181.6370  138.9380 N   0  0  0  0  0  2  0  0  0  0  0  0
  180.0630  182.6630  137.9600 C   0  0  0  0  0  1  0  0  0  0  0  0
  183.5370  178.3040  143.2230 C   0  0  0  0  0  2  0  0  0  0  0  0
  182.9860  178.8190  144.3970 O   0  0  0  0  0  1  0  0  0  0  0  0
  181.4140  176.8240  139.8070 C   0  0  0  0  0  2  0  0  0  0  0  0
  180.0080  176.3060  139.8260 C   0  0  0  0  0  0  0  0  0  0  0  0
  179.1890  176.2650  138.5810 C   0  0  0  0  0  1  0  0  0  0  0  0
  179.4860  175.8710  140.9680 C   0  0  0  0  0  2  0  0  0  0  0  0
  2  8  1  0  0  0  0
  2  6  1  0  0  0  0
  2 34  1  1  0  0  0
  3  4  1  0  0  0  0
  5  1  1  6  0  0  0
  5  9  1  0  0  0  0
  6 29  1  6  0  0  0
  6  3  1  0  0  0  0
  7 14  1  1  0  0  0
  7  2  1  0  0  0  0
  7  8  1  0  0  0  0
  8  5  1  0  0  0  0
  9  4  1  0  0  0  0
  9 32  1  0  0  0  0
 10 12  1  0  0  0  0
 10 19  1  0  0  0  0
 10 13  1  0  0  0  0
 11 12  1  0  0  0  0
 11 17  1  0  0  0  0
 13 14  1  0  0  0  0
 14 16  1  0  0  0  0
 15 20  1  0  0  0  0
 15 12  1  0  0  0  0
 18 13  2  0  0  0  0
 19 17  1  0  0  0  0
 19 16  1  0  0  0  0
 20 18  1  0  0  0  0
 21 23  2  0  0  0  0
 21 26  1  0  0  0  0
 23 27  1  0  0  0  0
 24 22  1  0  0  0  0
 25 24  1  0  0  0  0
 26 25  2  0  0  0  0
 27 17  1  0  0  0  0
 27 24  2  0  0  0  0
 28 29  2  0  0  0  0
 29 30  1  0  0  0  0
 31 30  1  0  0  0  0
 32 33  1  0  0  0  0
 34 35  1  0  0  0  0
 35 37  2  0  0  0  0
 36 35  1  0  0  0  0
M  END
>  <MODEL>
9

>  <REMARK>
 VINA RESULT:      -6.5      3.700      6.513
  Name = 
  6 active torsions:
  status: ('A' for Active; 'I' for Inactive)
    1  A    between atoms: C_1  and  C_36
    2  A    between atoms: C_5  and  C_18
    3  A    between atoms: C_8  and  C_18
    4  A    between atoms: N_13  and  C_25
    5  A    between atoms: C_16  and  C_21
    6  A    between atoms: C_26  and  C_31
                            x       y       z     vdW  Elec       q    Type
                         _______ _______ _______ _____ _____    ______ ____

>  <TORSDO>
F 6

$$$$
