=
 OpenBabel11062412383D

 68 77  0  0  1  0  0  0  0  0999 V2000
  186.0160  177.9570  142.6790 C   0  0  0  0  0  2  0  0  0  0  0  0
  183.2700  178.7070  145.0690 C   0  0  0  0  0  2  0  0  0  0  0  0
  182.5840  179.7480  139.5340 C   0  0  1  0  0  3  0  0  0  0  0  0
  183.7880  179.1330  140.2430 C   0  0  0  0  0  2  0  0  0  0  0  0
  180.1700  180.1060  138.0110 C   0  0  1  0  0  3  0  0  0  0  0  0
  184.7690  178.6910  144.7800 C   0  0  1  0  0  3  0  0  0  0  0  0
  181.2600  178.2380  143.4290 C   0  0  0  0  0  0  0  0  0  0  0  0
  180.8310  178.3090  142.0630 N   0  0  0  0  0  0  0  0  0  0  0  0
  178.9360  178.6320  139.6190 C   0  0  0  0  0  1  0  0  0  0  0  0
  185.2390  180.2030  142.9400 O   0  0  0  0  0  1  0  0  0  0  0  0
  182.7420  180.0400  138.0590 C   0  0  0  0  0  2  0  0  0  0  0  0
  184.9300  178.8770  143.2560 C   0  0  1  0  0  0  0  0  0  0  0  0
  182.6810  178.4750  143.7270 C   0  0  0  0  0  0  0  0  0  0  0  0
  181.4960  180.8110  137.6060 C   0  0  0  0  0  2  0  0  0  0  0  0
  180.4230  178.0570  144.3510 O   0  0  0  0  0  0  0  0  0  0  0  0
  181.4290  178.7940  139.7270 C   0  0  2  0  0  3  0  0  0  0  0  0
  180.1320  179.5600  139.4640 C   0  0  1  0  0  3  0  0  0  0  0  0
  181.7040  178.3200  141.0970 C   0  0  0  0  0  0  0  0  0  0  0  0
  183.5620  178.5740  142.7430 C   0  0  0  0  0  0  0  0  0  0  0  0
  183.1880  178.2250  141.3210 C   0  0  2  0  0  3  0  0  0  0  0  0
  179.0360  180.8810  137.6820 O   0  0  0  0  0  0  0  0  0  0  0  0
  179.3010  181.5930  136.4990 C   0  0  0  0  0  1  0  0  0  0  0  0
  185.5480  179.6770  145.6390 C   0  0  0  0  0  2  0  0  0  0  0  0
  186.8870  178.7910  147.4880 C   0  0  0  0  0  3  0  0  0  0  0  0
  188.0020  177.9950  148.0180 C   0  0  0  0  0  0  0  0  0  0  0  0
  187.8450  178.5790  145.2030 C   0  0  0  0  0  2  0  0  0  0  0  0
  189.7850  177.0570  144.8240 C   0  0  0  0  0  3  0  0  0  0  0  0
  190.8600  176.6970  145.8540 C   0  0  0  0  0  3  0  0  0  0  0  0
  188.7980  177.1810  147.0370 C   0  0  2  0  0  0  0  0  0  0  0  0
  186.7650  179.0010  146.1700 C   0  0  0  0  0  0  0  0  0  0  0  0
  189.1730  175.9040  147.5110 O   0  0  0  0  0  0  0  0  0  0  0  0
  188.2260  177.9530  149.2560 O   0  0  0  0  0  0  0  0  0  0  0  0
  190.2010  176.8200  147.2100 C   0  0  1  0  0  0  0  0  0  0  0  0
  190.8640  177.3600  148.3160 O   0  0  0  0  0  1  0  0  0  0  0  0
  188.4560  177.2210  145.5610 C   0  0  1  0  0  3  0  0  0  0  0  0
  186.9130  178.6200  141.6330 C   0  0  1  0  0  3  0  0  0  0  0  0
  188.0670  179.1340  142.2350 O   0  0  0  0  0  1  0  0  0  0  0  0
  187.2710  177.6250  140.5350 C   0  0  2  0  0  3  0  0  0  0  0  0
  188.6200  177.2610  140.6230 O   0  0  0  0  0  1  0  0  0  0  0  0
  186.9770  178.2290  139.1740 C   0  0  0  0  0  2  0  0  0  0  0  0
  188.1100  177.9340  138.2020 C   0  0  0  0  0  2  0  0  0  0  0  0
  184.9800  176.0220  137.0650 F   0  0  0  0  0  0  0  0  0  0  0  0
  189.3960  175.2990  136.6650 C   0  0  1  0  0  3  0  0  0  0  0  0
  187.6430  176.9990  137.1820 N   0  0  0  0  0  0  0  0  0  0  0  0
  188.1830  174.0270  137.1690 S   0  0  0  0  0  0  0  0  0  0  0  0
  188.7110  176.6070  136.2550 C   0  0  1  0  0  3  0  0  0  0  0  0
  187.4720  173.8620  135.4880 C   0  0  2  0  0  3  0  0  0  0  0  0
  185.5540  176.6440  135.9580 C   0  0  1  0  0  3  0  0  0  0  0  0
  186.6040  177.6570  136.4020 C   0  0  0  0  0  2  0  0  0  0  0  0
  186.0620  174.4410  135.4390 C   0  0  0  0  0  2  0  0  0  0  0  0
  186.0940  175.7700  134.9780 O   0  0  0  0  0  0  0  0  0  0  0  0
  188.8640  171.7420  135.0190 C   0  0  0  0  0  2  0  0  0  0  0  0
  187.5280  172.4580  134.8570 C   0  0  0  0  0  3  0  0  0  0  0  0
  187.6990  171.3820  135.9200 C   0  0  0  0  0  2  0  0  0  0  0  0
  190.4360  175.5170  137.7610 C   0  0  1  0  0  3  0  0  0  0  0  0
  191.8020  174.9430  137.5260 C   0  0  2  0  0  3  0  0  0  0  0  0
  191.4900  176.2850  137.2320 O   0  0  0  0  0  0  0  0  0  0  0  0
  191.9740  174.1350  136.2620 C   0  0  0  0  0  0  0  0  0  0  0  0
  191.7010  172.9460  136.2250 O   0  0  0  0  0  0  0  0  0  0  0  0
  192.5500  174.8110  135.0510 C   0  0  0  0  0  2  0  0  0  0  0  0
  194.5490  173.2790  134.8640 C   0  0  0  0  0  1  0  0  0  0  0  0
  194.0790  174.7160  134.9610 C   0  0  2  0  0  3  0  0  0  0  0  0
  194.7860  175.4230  136.1160 C   0  0  0  0  0  2  0  0  0  0  0  0
  195.8340  174.5220  136.7460 C   0  0  2  0  0  3  0  0  0  0  0  0
  195.2580  173.8780  137.9930 C   0  0  0  0  0  1  0  0  0  0  0  0
  196.9570  175.2780  137.0900 O   0  0  0  0  0  1  0  0  0  0  0  0
  189.6300  177.6380  136.0080 O   0  0  0  0  0  0  0  0  0  0  0  0
  189.6520  177.7570  134.6960 O   0  0  0  0  0  1  0  0  0  0  0  0
  1 12  1  0  0  0  0
  3 11  1  6  0  0  0
  3 16  1  0  0  0  0
  3  4  1  0  0  0  0
  5 21  1  1  0  0  0
  5 17  1  0  0  0  0
  6  2  1  0  0  0  0
  6 23  1  1  0  0  0
  7 13  1  0  0  0  0
  7 15  2  0  0  0  0
  8  7  1  0  0  0  0
 12 10  1  6  0  0  0
 12  6  1  0  0  0  0
 13  2  1  0  0  0  0
 14  5  1  0  0  0  0
 14 11  1  0  0  0  0
 16 18  1  1  0  0  0
 17  9  1  6  0  0  0
 17 16  1  0  0  0  0
 18 20  1  0  0  0  0
 18  8  2  0  0  0  0
 19 12  1  0  0  0  0
 19 13  2  0  0  0  0
 20  4  1  6  0  0  0
 20 19  1  0  0  0  0
 22 21  1  0  0  0  0
 23 30  1  0  0  0  0
 24 25  1  0  0  0  0
 25 32  2  0  0  0  0
 26 35  1  0  0  0  0
 26 30  1  0  0  0  0
 27 28  2  0  0  0  0
 28 33  1  0  0  0  0
 29 33  1  0  0  0  0
 29 31  1  1  0  0  0
 29 25  1  0  0  0  0
 30 24  2  0  0  0  0
 33 31  1  0  0  0  0
 33 34  1  1  0  0  0
 35 27  1  6  0  0  0
 35 29  1  0  0  0  0
 36 37  1  1  0  0  0
 36  1  1  0  0  0  0
 38 39  1  6  0  0  0
 38 36  1  0  0  0  0
 40 38  1  0  0  0  0
 41 40  1  0  0  0  0
 43 45  1  1  0  0  0
 43 55  1  0  0  0  0
 44 41  1  0  0  0  0
 46 67  1  1  0  0  0
 46 43  1  0  0  0  0
 46 44  1  0  0  0  0
 47 53  1  1  0  0  0
 47 45  1  0  0  0  0
 48 49  1  0  0  0  0
 48 42  1  1  0  0  0
 49 44  1  0  0  0  0
 50 47  1  0  0  0  0
 51 50  1  0  0  0  0
 51 48  1  0  0  0  0
 52 54  1  0  0  0  0
 53 52  1  0  0  0  0
 53 54  1  0  0  0  0
 55 57  1  6  0  0  0
 56 58  1  6  0  0  0
 56 55  1  0  0  0  0
 57 56  1  0  0  0  0
 59 58  2  0  0  0  0
 60 58  1  0  0  0  0
 62 61  1  1  0  0  0
 62 60  1  0  0  0  0
 62 63  1  0  0  0  0
 63 64  1  0  0  0  0
 64 66  1  0  0  0  0
 64 65  1  1  0  0  0
 68 67  1  0  0  0  0
M  END
>  <MODEL>
1

>  <REMARK>
 VINA RESULT:      -6.9      0.000      0.000
  Name = 
  17 active torsions:
  status: ('A' for Active; 'I' for Inactive)
    1  A    between atoms: C_4  and  O_15
    2  A    between atoms: C_5  and  C_31
    3  A    between atoms: C_6  and  C_47
    4  A    between atoms: C_8  and  C_13
    5  A    between atoms: C_8  and  C_26
    6  A    between atoms: C_12  and  C_21
    7  A    between atoms: C_12  and  C_36
    8  A    between atoms: C_13  and  C_37
    9  A    between atoms: C_18  and  C_34
   10  A    between atoms: C_21  and  C_22
   11  A    between atoms: C_22  and  C_31
   12  A    between atoms: N_24  and  C_45
   13  A    between atoms: C_26  and  C_32
   14  A    between atoms: C_30  and  O_39
   15  A    between atoms: C_37  and  C_45
   16  A    between atoms: C_40  and  C_50
   17  A    between atoms: C_47  and  C_49
                            x       y       z     vdW  Elec       q    Type
                         _______ _______ _______ _____ _____    ______ ____

>  <TORSDO>
F 17

$$$$
=
 OpenBabel11062412383D

 68 77  0  0  1  0  0  0  0  0999 V2000
  189.2670  177.7830  136.9790 C   0  0  0  0  0  2  0  0  0  0  0  0
  191.1780  177.5230  140.1560 C   0  0  0  0  0  2  0  0  0  0  0  0
  192.1200  173.8210  135.9610 C   0  0  1  0  0  3  0  0  0  0  0  0
  191.1640  175.0120  135.9810 C   0  0  0  0  0  2  0  0  0  0  0  0
  194.3850  172.1130  135.4830 C   0  0  1  0  0  3  0  0  0  0  0  0
  189.8530  177.8230  139.4620 C   0  0  1  0  0  3  0  0  0  0  0  0
  193.4080  176.5620  139.1280 C   0  0  0  0  0  0  0  0  0  0  0  0
  193.9500  175.7290  138.0940 N   0  0  0  0  0  0  0  0  0  0  0  0
  195.8720  173.7580  136.6510 C   0  0  0  0  0  1  0  0  0  0  0  0
  189.0780  175.8190  138.3300 O   0  0  0  0  0  1  0  0  0  0  0  0
  192.0540  172.9180  134.7500 C   0  0  0  0  0  2  0  0  0  0  0  0
  189.8310  176.9860  138.1640 C   0  0  1  0  0  0  0  0  0  0  0  0
  191.9800  176.9090  139.0680 C   0  0  0  0  0  0  0  0  0  0  0  0
  192.9550  171.7080  135.0270 C   0  0  0  0  0  2  0  0  0  0  0  0
  194.1230  176.9160  140.1000 O   0  0  0  0  0  0  0  0  0  0  0  0
  193.5180  174.3800  136.0830 C   0  0  2  0  0  3  0  0  0  0  0  0
  194.4430  173.2500  136.5390 C   0  0  1  0  0  3  0  0  0  0  0  0
  193.2720  175.5060  137.0050 C   0  0  0  0  0  0  0  0  0  0  0  0
  191.2630  176.6060  137.9960 C   0  0  0  0  0  0  0  0  0  0  0  0
  191.9230  176.1120  136.7300 C   0  0  2  0  0  3  0  0  0  0  0  0
  195.1660  170.9900  135.8370 O   0  0  0  0  0  0  0  0  0  0  0  0
  194.3120  169.9630  136.2730 C   0  0  0  0  0  1  0  0  0  0  0  0
  188.6500  177.6330  140.3750 C   0  0  0  0  0  2  0  0  0  0  0  0
  190.3970  176.9870  141.9650 C   0  0  0  0  0  3  0  0  0  0  0  0
  190.9340  176.8720  143.3280 C   0  0  0  0  0  0  0  0  0  0  0  0
  188.1640  177.5410  142.9100 C   0  0  0  0  0  2  0  0  0  0  0  0
  187.9360  177.9370  145.3620 C   0  0  0  0  0  3  0  0  0  0  0  0
  188.8040  177.3120  146.4590 C   0  0  0  0  0  3  0  0  0  0  0  0
  190.1360  177.4930  144.4400 C   0  0  2  0  0  0  0  0  0  0  0  0
  189.1310  177.3730  141.7610 C   0  0  0  0  0  0  0  0  0  0  0  0
  190.9160  178.1400  145.4230 O   0  0  0  0  0  0  0  0  0  0  0  0
  192.0530  176.3330  143.5310 O   0  0  0  0  0  0  0  0  0  0  0  0
  190.1470  177.0280  145.8230 C   0  0  1  0  0  0  0  0  0  0  0  0
  190.8730  175.8660  146.0970 O   0  0  0  0  0  1  0  0  0  0  0  0
  188.8190  178.1810  144.1380 C   0  0  1  0  0  3  0  0  0  0  0  0
  187.8260  178.2600  137.1680 C   0  0  1  0  0  3  0  0  0  0  0  0
  187.4060  178.9970  136.0550 O   0  0  0  0  0  1  0  0  0  0  0  0
  186.9030  177.0720  137.4130 C   0  0  2  0  0  3  0  0  0  0  0  0
  186.0690  176.8630  136.3090 O   0  0  0  0  0  1  0  0  0  0  0  0
  186.0730  177.3120  138.6610 C   0  0  0  0  0  2  0  0  0  0  0  0
  184.8190  178.1050  138.3250 C   0  0  0  0  0  2  0  0  0  0  0  0
  184.8340  177.4340  142.1060 F   0  0  0  0  0  0  0  0  0  0  0  0
  181.6820  178.7280  139.1790 C   0  0  1  0  0  3  0  0  0  0  0  0
  184.1350  178.4790  139.5600 N   0  0  0  0  0  0  0  0  0  0  0  0
  181.4450  177.4310  140.4450 S   0  0  0  0  0  0  0  0  0  0  0  0
  183.0380  179.4250  139.3260 C   0  0  1  0  0  3  0  0  0  0  0  0
  181.3880  178.6250  141.8350 C   0  0  2  0  0  3  0  0  0  0  0  0
  184.7940  178.8100  141.8940 C   0  0  1  0  0  3  0  0  0  0  0  0
  185.1000  179.1320  140.4350 C   0  0  0  0  0  2  0  0  0  0  0  0
  182.6400  178.5060  142.6980 C   0  0  0  0  0  2  0  0  0  0  0  0
  183.5990  179.4570  142.3030 O   0  0  0  0  0  0  0  0  0  0  0  0
  179.7840  179.9460  143.3620 C   0  0  0  0  0  2  0  0  0  0  0  0
  180.1090  178.6160  142.6920 C   0  0  0  0  0  3  0  0  0  0  0  0
  179.0450  179.5340  142.1050 C   0  0  0  0  0  2  0  0  0  0  0  0
  181.4800  178.1570  137.7770 C   0  0  1  0  0  3  0  0  0  0  0  0
  180.3000  178.6610  137.0010 C   0  0  2  0  0  3  0  0  0  0  0  0
  181.5900  179.2070  136.8460 O   0  0  0  0  0  0  0  0  0  0  0  0
  179.3870  179.6190  137.7280 C   0  0  0  0  0  0  0  0  0  0  0  0
  178.9340  179.3530  138.8300 O   0  0  0  0  0  0  0  0  0  0  0  0
  178.9920  180.8940  137.0410 C   0  0  0  0  0  2  0  0  0  0  0  0
  179.1980  182.3300  139.1090 C   0  0  0  0  0  1  0  0  0  0  0  0
  179.6180  182.1500  137.6640 C   0  0  2  0  0  3  0  0  0  0  0  0
  179.3190  183.4190  136.8690 C   0  0  0  0  0  2  0  0  0  0  0  0
  180.5720  183.9450  136.1910 C   0  0  2  0  0  3  0  0  0  0  0  0
  181.0470  185.1910  136.9130 C   0  0  0  0  0  1  0  0  0  0  0  0
  180.2880  184.2590  134.8600 O   0  0  0  0  0  1  0  0  0  0  0  0
  183.2980  180.3180  138.2760 O   0  0  0  0  0  0  0  0  0  0  0  0
  182.8800  181.4860  138.7210 O   0  0  0  0  0  1  0  0  0  0  0  0
  1 36  1  0  0  0  0
  1 12  1  0  0  0  0
  3 11  1  6  0  0  0
  3  4  1  0  0  0  0
  3 16  1  0  0  0  0
  5 21  1  1  0  0  0
  5 17  1  0  0  0  0
  6  2  1  0  0  0  0
  6 23  1  1  0  0  0
  7 15  2  0  0  0  0
  8  7  1  0  0  0  0
 11 14  1  0  0  0  0
 12 10  1  1  0  0  0
 12  6  1  0  0  0  0
 13  7  1  0  0  0  0
 13  2  1  0  0  0  0
 14  5  1  0  0  0  0
 16 17  1  0  0  0  0
 16 18  1  1  0  0  0
 17  9  1  6  0  0  0
 18  8  2  0  0  0  0
 19 12  1  0  0  0  0
 19 13  2  0  0  0  0
 20  4  1  1  0  0  0
 20 18  1  0  0  0  0
 20 19  1  0  0  0  0
 21 22  1  0  0  0  0
 23 30  1  0  0  0  0
 24 25  1  0  0  0  0
 25 32  2  0  0  0  0
 27 28  2  0  0  0  0
 29 25  1  6  0  0  0
 29 31  1  0  0  0  0
 29 33  1  0  0  0  0
 30 24  2  0  0  0  0
 30 26  1  0  0  0  0
 31 33  1  0  0  0  0
 33 34  1  1  0  0  0
 33 28  1  0  0  0  0
 35 26  1  6  0  0  0
 35 29  1  0  0  0  0
 35 27  1  0  0  0  0
 36 37  1  6  0  0  0
 36 38  1  0  0  0  0
 38 39  1  6  0  0  0
 38 40  1  0  0  0  0
 41 40  1  0  0  0  0
 41 44  1  0  0  0  0
 43 46  1  0  0  0  0
 43 45  1  1  0  0  0
 44 49  1  0  0  0  0
 45 47  1  0  0  0  0
 46 67  1  6  0  0  0
 46 44  1  0  0  0  0
 47 53  1  1  0  0  0
 47 50  1  0  0  0  0
 48 42  1  6  0  0  0
 48 51  1  0  0  0  0
 49 48  1  0  0  0  0
 51 50  1  0  0  0  0
 53 52  1  0  0  0  0
 54 53  1  0  0  0  0
 54 52  1  0  0  0  0
 55 57  1  6  0  0  0
 55 43  1  0  0  0  0
 56 58  1  1  0  0  0
 56 55  1  0  0  0  0
 57 56  1  0  0  0  0
 58 59  2  0  0  0  0
 60 62  1  0  0  0  0
 60 58  1  0  0  0  0
 62 61  1  1  0  0  0
 63 62  1  0  0  0  0
 64 63  1  0  0  0  0
 64 65  1  1  0  0  0
 66 64  1  0  0  0  0
 67 68  1  0  0  0  0
M  END
>  <MODEL>
2

>  <REMARK>
 VINA RESULT:      -5.7      2.670     10.950
  Name = 
  17 active torsions:
  status: ('A' for Active; 'I' for Inactive)
    1  A    between atoms: C_4  and  O_15
    2  A    between atoms: C_5  and  C_31
    3  A    between atoms: C_6  and  C_47
    4  A    between atoms: C_8  and  C_13
    5  A    between atoms: C_8  and  C_26
    6  A    between atoms: C_12  and  C_21
    7  A    between atoms: C_12  and  C_36
    8  A    between atoms: C_13  and  C_37
    9  A    between atoms: C_18  and  C_34
   10  A    between atoms: C_21  and  C_22
   11  A    between atoms: C_22  and  C_31
   12  A    between atoms: N_24  and  C_45
   13  A    between atoms: C_26  and  C_32
   14  A    between atoms: C_30  and  O_39
   15  A    between atoms: C_37  and  C_45
   16  A    between atoms: C_40  and  C_50
   17  A    between atoms: C_47  and  C_49
                            x       y       z     vdW  Elec       q    Type
                         _______ _______ _______ _____ _____    ______ ____

>  <TORSDO>
F 17

$$$$
=
 OpenBabel11062412383D

 68 77  0  0  1  0  0  0  0  0999 V2000
  188.6290  177.5350  136.5230 C   0  0  0  0  0  2  0  0  0  0  0  0
  190.9510  177.5330  139.4240 C   0  0  0  0  0  2  0  0  0  0  0  0
  191.1000  173.2890  135.6610 C   0  0  1  0  0  3  0  0  0  0  0  0
  190.2200  174.5370  135.6520 C   0  0  0  0  0  2  0  0  0  0  0  0
  193.1840  171.3820  135.1130 C   0  0  1  0  0  3  0  0  0  0  0  0
  189.5590  177.8370  138.8790 C   0  0  1  0  0  3  0  0  0  0  0  0
  192.9620  176.3000  138.2440 C   0  0  0  0  0  0  0  0  0  0  0  0
  193.3080  175.3120  137.2650 N   0  0  0  0  0  0  0  0  0  0  0  0
  194.9040  173.0500  135.8490 C   0  0  0  0  0  1  0  0  0  0  0  0
  188.5300  175.7680  138.1310 O   0  0  0  0  0  1  0  0  0  0  0  0
  190.8180  172.2520  134.5980 C   0  0  0  0  0  2  0  0  0  0  0  0
  189.3110  176.8510  137.7170 C   0  0  1  0  0  0  0  0  0  0  0  0
  191.5590  176.7360  138.3290 C   0  0  0  0  0  0  0  0  0  0  0  0
  191.6840  171.0260  134.9080 C   0  0  0  0  0  2  0  0  0  0  0  0
  193.8240  176.7200  139.0580 O   0  0  0  0  0  0  0  0  0  0  0  0
  192.5290  173.7600  135.5220 C   0  0  2  0  0  3  0  0  0  0  0  0
  193.4480  172.6330  135.9950 C   0  0  1  0  0  3  0  0  0  0  0  0
  192.4740  175.0050  136.3140 C   0  0  0  0  0  0  0  0  0  0  0  0
  190.6840  176.3550  137.4110 C   0  0  0  0  0  0  0  0  0  0  0  0
  191.1330  175.6650  136.1430 C   0  0  2  0  0  3  0  0  0  0  0  0
  193.9470  170.2600  135.5040 O   0  0  0  0  0  0  0  0  0  0  0  0
  193.9330  170.1680  136.9070 C   0  0  0  0  0  1  0  0  0  0  0  0
  188.4880  177.8430  139.9610 C   0  0  0  0  0  2  0  0  0  0  0  0
  189.3990  176.2400  141.5720 C   0  0  0  0  0  3  0  0  0  0  0  0
  190.1560  175.9080  142.7860 C   0  0  0  0  0  0  0  0  0  0  0  0
  189.4180  178.6360  142.2360 C   0  0  0  0  0  2  0  0  0  0  0  0
  190.7960  179.3550  144.1880 C   0  0  0  0  0  3  0  0  0  0  0  0
  191.1510  178.4940  145.4040 C   0  0  0  0  0  3  0  0  0  0  0  0
  190.8620  177.0330  143.4910 C   0  0  2  0  0  0  0  0  0  0  0  0
  189.1200  177.5150  141.2700 C   0  0  0  0  0  0  0  0  0  0  0  0
  192.1390  176.6950  143.9890 O   0  0  0  0  0  0  0  0  0  0  0  0
  190.2580  174.7130  143.1700 O   0  0  0  0  0  0  0  0  0  0  0  0
  191.1470  177.0610  144.9210 C   0  0  1  0  0  0  0  0  0  0  0  0
  190.6350  176.0140  145.6920 O   0  0  0  0  0  1  0  0  0  0  0  0
  190.7560  178.4480  142.9580 C   0  0  1  0  0  3  0  0  0  0  0  0
  187.1350  177.7990  136.7170 C   0  0  1  0  0  3  0  0  0  0  0  0
  186.9320  179.0760  137.2540 O   0  0  0  0  0  1  0  0  0  0  0  0
  186.3930  177.6420  135.3950 C   0  0  2  0  0  3  0  0  0  0  0  0
  186.0870  178.8950  134.8520 O   0  0  0  0  0  1  0  0  0  0  0  0
  185.1240  176.8370  135.6080 C   0  0  0  0  0  2  0  0  0  0  0  0
  184.7090  176.8700  137.0710 C   0  0  0  0  0  2  0  0  0  0  0  0
  181.7200  177.9500  134.9160 F   0  0  0  0  0  0  0  0  0  0  0  0
  182.9380  178.7180  139.1710 C   0  0  1  0  0  3  0  0  0  0  0  0
  183.3090  177.2740  137.1690 N   0  0  0  0  0  0  0  0  0  0  0  0
  182.3430  180.0070  138.0190 S   0  0  0  0  0  0  0  0  0  0  0  0
  182.8370  177.3170  138.5590 C   0  0  1  0  0  3  0  0  0  0  0  0
  180.6060  179.4240  138.0700 C   0  0  2  0  0  3  0  0  0  0  0  0
  181.2980  176.9660  135.8080 C   0  0  1  0  0  3  0  0  0  0  0  0
  182.5000  176.2910  136.4610 C   0  0  0  0  0  2  0  0  0  0  0  0
  180.2100  178.7900  136.7410 C   0  0  0  0  0  2  0  0  0  0  0  0
  180.3740  177.3930  136.7960 O   0  0  0  0  0  0  0  0  0  0  0  0
  180.0960  181.5310  139.4680 C   0  0  0  0  0  2  0  0  0  0  0  0
  179.5560  180.4470  138.5420 C   0  0  0  0  0  3  0  0  0  0  0  0
  179.8580  181.8380  138.0030 C   0  0  0  0  0  2  0  0  0  0  0  0
  184.3540  179.0330  139.6480 C   0  0  1  0  0  3  0  0  0  0  0  0
  184.5860  179.0400  141.1300 C   0  0  2  0  0  3  0  0  0  0  0  0
  184.8570  177.9110  140.3320 O   0  0  0  0  0  0  0  0  0  0  0  0
  183.3680  178.8160  141.9940 C   0  0  0  0  0  0  0  0  0  0  0  0
  182.3420  178.3380  141.5350 O   0  0  0  0  0  0  0  0  0  0  0  0
  183.4170  179.2520  143.4300 C   0  0  0  0  0  2  0  0  0  0  0  0
  185.6070  177.9960  143.3590 C   0  0  0  0  0  1  0  0  0  0  0  0
  184.7840  179.0340  144.0930 C   0  0  2  0  0  3  0  0  0  0  0  0
  184.6740  178.6670  145.5710 C   0  0  0  0  0  2  0  0  0  0  0  0
  185.9610  178.9900  146.3100 C   0  0  2  0  0  3  0  0  0  0  0  0
  186.6820  177.6990  146.6480 C   0  0  0  0  0  1  0  0  0  0  0  0
  185.6660  179.6790  147.4890 O   0  0  0  0  0  1  0  0  0  0  0  0
  183.4260  176.3350  139.3690 O   0  0  0  0  0  0  0  0  0  0  0  0
  182.4150  175.6000  139.7880 O   0  0  0  0  0  1  0  0  0  0  0  0
  1 36  1  0  0  0  0
  1 12  1  0  0  0  0
  3 11  1  6  0  0  0
  4  3  1  0  0  0  0
  5 21  1  1  0  0  0
  5 17  1  0  0  0  0
  6  2  1  0  0  0  0
  6 23  1  1  0  0  0
  7 13  1  0  0  0  0
  7 15  2  0  0  0  0
  8  7  1  0  0  0  0
 11 14  1  0  0  0  0
 12 10  1  1  0  0  0
 12  6  1  0  0  0  0
 13  2  1  0  0  0  0
 14  5  1  0  0  0  0
 16  3  1  0  0  0  0
 16 17  1  0  0  0  0
 16 18  1  1  0  0  0
 17  9  1  6  0  0  0
 18  8  2  0  0  0  0
 19 12  1  0  0  0  0
 19 13  2  0  0  0  0
 20  4  1  1  0  0  0
 20 18  1  0  0  0  0
 20 19  1  0  0  0  0
 21 22  1  0  0  0  0
 23 30  1  0  0  0  0
 24 25  1  0  0  0  0
 25 32  2  0  0  0  0
 27 28  2  0  0  0  0
 29 25  1  6  0  0  0
 29 31  1  0  0  0  0
 29 33  1  0  0  0  0
 30 24  2  0  0  0  0
 30 26  1  0  0  0  0
 31 33  1  0  0  0  0
 33 28  1  0  0  0  0
 33 34  1  1  0  0  0
 35 26  1  1  0  0  0
 35 29  1  0  0  0  0
 35 27  1  0  0  0  0
 36 37  1  6  0  0  0
 38 39  1  1  0  0  0
 38 40  1  0  0  0  0
 38 36  1  0  0  0  0
 40 41  1  0  0  0  0
 41 44  1  0  0  0  0
 43 45  1  6  0  0  0
 43 55  1  0  0  0  0
 44 46  1  0  0  0  0
 45 47  1  0  0  0  0
 46 43  1  0  0  0  0
 46 67  1  1  0  0  0
 47 53  1  6  0  0  0
 48 42  1  1  0  0  0
 48 49  1  0  0  0  0
 48 51  1  0  0  0  0
 49 44  1  0  0  0  0
 50 51  1  0  0  0  0
 50 47  1  0  0  0  0
 53 52  1  0  0  0  0
 54 53  1  0  0  0  0
 54 52  1  0  0  0  0
 55 57  1  6  0  0  0
 55 56  1  0  0  0  0
 56 58  1  1  0  0  0
 57 56  1  0  0  0  0
 58 60  1  0  0  0  0
 59 58  2  0  0  0  0
 60 62  1  0  0  0  0
 62 61  1  6  0  0  0
 62 63  1  0  0  0  0
 63 64  1  0  0  0  0
 64 65  1  1  0  0  0
 64 66  1  0  0  0  0
 67 68  1  0  0  0  0
M  END
>  <MODEL>
3

>  <REMARK>
 VINA RESULT:      -5.7      2.748     10.043
  Name = 
  17 active torsions:
  status: ('A' for Active; 'I' for Inactive)
    1  A    between atoms: C_4  and  O_15
    2  A    between atoms: C_5  and  C_31
    3  A    between atoms: C_6  and  C_47
    4  A    between atoms: C_8  and  C_13
    5  A    between atoms: C_8  and  C_26
    6  A    between atoms: C_12  and  C_21
    7  A    between atoms: C_12  and  C_36
    8  A    between atoms: C_13  and  C_37
    9  A    between atoms: C_18  and  C_34
   10  A    between atoms: C_21  and  C_22
   11  A    between atoms: C_22  and  C_31
   12  A    between atoms: N_24  and  C_45
   13  A    between atoms: C_26  and  C_32
   14  A    between atoms: C_30  and  O_39
   15  A    between atoms: C_37  and  C_45
   16  A    between atoms: C_40  and  C_50
   17  A    between atoms: C_47  and  C_49
                            x       y       z     vdW  Elec       q    Type
                         _______ _______ _______ _____ _____    ______ ____

>  <TORSDO>
F 17

$$$$
=
 OpenBabel11062412383D

 68 77  0  0  1  0  0  0  0  0999 V2000
  189.0760  176.3620  139.8290 C   0  0  0  0  0  2  0  0  0  0  0  0
  191.8570  176.7890  142.2580 C   0  0  0  0  0  2  0  0  0  0  0  0
  186.5960  178.3980  143.6470 C   0  0  1  0  0  3  0  0  0  0  0  0
  187.0790  177.7400  142.3570 C   0  0  0  0  0  2  0  0  0  0  0  0
  185.4330  178.8610  146.2370 C   0  0  1  0  0  3  0  0  0  0  0  0
  191.3830  176.8380  140.8080 C   0  0  1  0  0  3  0  0  0  0  0  0
  190.4380  176.4510  144.4550 C   0  0  0  0  0  0  0  0  0  0  0  0
  189.1520  176.6570  145.0540 N   0  0  0  0  0  0  0  0  0  0  0  0
  187.0130  177.1950  147.2450 C   0  0  0  0  0  1  0  0  0  0  0  0
  189.6750  178.5490  140.5880 O   0  0  0  0  0  1  0  0  0  0  0  0
  185.1540  178.8500  143.6800 C   0  0  0  0  0  2  0  0  0  0  0  0
  189.8800  177.1900  140.8420 C   0  0  1  0  0  0  0  0  0  0  0  0
  190.5810  176.6880  143.0100 C   0  0  0  0  0  0  0  0  0  0  0  0
  184.9460  179.6350  144.9810 C   0  0  0  0  0  2  0  0  0  0  0  0
  191.4320  176.1530  145.1660 O   0  0  0  0  0  0  0  0  0  0  0  0
  186.8260  177.4020  144.7600 C   0  0  2  0  0  3  0  0  0  0  0  0
  186.8120  178.1620  146.0870 C   0  0  1  0  0  3  0  0  0  0  0  0
  188.0920  176.7910  144.3090 C   0  0  0  0  0  0  0  0  0  0  0  0
  189.5120  176.9120  142.2600 C   0  0  0  0  0  0  0  0  0  0  0  0
  188.1180  176.7080  142.8080 C   0  0  2  0  0  3  0  0  0  0  0  0
  185.3340  179.6390  147.4120 O   0  0  0  0  0  0  0  0  0  0  0  0
  186.6010  179.7100  148.0180 C   0  0  0  0  0  1  0  0  0  0  0  0
  192.2400  177.7450  139.9360 C   0  0  0  0  0  2  0  0  0  0  0  0
  194.2470  176.3550  139.7480 C   0  0  0  0  0  3  0  0  0  0  0  0
  195.1050  175.4050  139.0270 C   0  0  0  0  0  0  0  0  0  0  0  0
  192.9270  176.7110  137.6710 C   0  0  0  0  0  2  0  0  0  0  0  0
  193.3560  175.2670  135.6830 C   0  0  0  0  0  3  0  0  0  0  0  0
  194.6910  174.6080  135.3220 C   0  0  0  0  0  3  0  0  0  0  0  0
  194.5830  174.8450  137.7330 C   0  0  2  0  0  0  0  0  0  0  0  0
  193.1850  176.9070  139.1460 C   0  0  0  0  0  0  0  0  0  0  0  0
  194.8650  173.4760  137.5370 O   0  0  0  0  0  0  0  0  0  0  0  0
  196.2010  175.0310  139.5200 O   0  0  0  0  0  0  0  0  0  0  0  0
  195.4240  174.3970  136.6290 C   0  0  1  0  0  0  0  0  0  0  0  0
  196.8000  174.6020  136.7540 O   0  0  0  0  0  1  0  0  0  0  0  0
  193.2300  175.2840  137.2060 C   0  0  1  0  0  3  0  0  0  0  0  0
  188.5720  177.1580  138.6240 C   0  0  1  0  0  3  0  0  0  0  0  0
  189.6040  177.9360  138.0870 O   0  0  0  0  0  1  0  0  0  0  0  0
  187.9990  176.2170  137.5700 C   0  0  2  0  0  3  0  0  0  0  0  0
  188.9990  175.8080  136.6810 O   0  0  0  0  0  1  0  0  0  0  0  0
  186.8750  176.9070  136.8180 C   0  0  0  0  0  2  0  0  0  0  0  0
  185.6480  177.0520  137.7060 C   0  0  0  0  0  2  0  0  0  0  0  0
  184.7800  174.7190  134.7810 F   0  0  0  0  0  0  0  0  0  0  0  0
  182.4190  177.6270  137.2600 C   0  0  1  0  0  3  0  0  0  0  0  0
  184.5340  176.3110  137.1190 N   0  0  0  0  0  0  0  0  0  0  0  0
  182.3370  177.5200  135.4370 S   0  0  0  0  0  0  0  0  0  0  0  0
  183.2820  176.5110  137.8570 C   0  0  1  0  0  3  0  0  0  0  0  0
  181.4010  175.9440  135.4490 C   0  0  2  0  0  3  0  0  0  0  0  0
  184.2720  174.1730  135.9580 C   0  0  1  0  0  3  0  0  0  0  0  0
  184.8530  174.8910  137.1710 C   0  0  0  0  0  2  0  0  0  0  0  0
  182.2750  174.7950  134.9560 C   0  0  0  0  0  2  0  0  0  0  0  0
  182.8570  174.1200  136.0450 O   0  0  0  0  0  0  0  0  0  0  0  0
  178.9320  175.1980  135.4760 C   0  0  0  0  0  2  0  0  0  0  0  0
  180.0330  175.9550  134.7420 C   0  0  0  0  0  3  0  0  0  0  0  0
  178.9950  176.7100  135.5610 C   0  0  0  0  0  2  0  0  0  0  0  0
  182.8900  179.0120  137.6980 C   0  0  1  0  0  3  0  0  0  0  0  0
  181.8350  179.9820  138.1380 C   0  0  2  0  0  3  0  0  0  0  0  0
  182.5560  179.1910  139.0530 O   0  0  0  0  0  0  0  0  0  0  0  0
  180.4060  179.5090  138.0170 C   0  0  0  0  0  0  0  0  0  0  0  0
  179.8910  179.3120  136.9280 O   0  0  0  0  0  0  0  0  0  0  0  0
  179.5980  179.3390  139.2710 C   0  0  0  0  0  2  0  0  0  0  0  0
  179.3680  176.8240  139.3260 C   0  0  0  0  0  1  0  0  0  0  0  0
  179.9130  178.0460  140.0370 C   0  0  2  0  0  3  0  0  0  0  0  0
  179.4180  178.0770  141.4810 C   0  0  0  0  0  2  0  0  0  0  0  0
  180.4870  178.6210  142.4120 C   0  0  2  0  0  3  0  0  0  0  0  0
  180.1260  178.2810  143.8450 C   0  0  0  0  0  1  0  0  0  0  0  0
  180.5710  180.0090  142.2710 O   0  0  0  0  0  1  0  0  0  0  0  0
  183.4770  176.6650  139.2380 O   0  0  0  0  0  0  0  0  0  0  0  0
  182.6500  175.8000  139.7890 O   0  0  0  0  0  1  0  0  0  0  0  0
  1 12  1  0  0  0  0
  2 13  1  0  0  0  0
  3  4  1  6  0  0  0
  3 11  1  0  0  0  0
  3 16  1  0  0  0  0
  5 21  1  1  0  0  0
  6 23  1  6  0  0  0
  6 12  1  0  0  0  0
  6  2  1  0  0  0  0
  7  8  1  0  0  0  0
  7 15  2  0  0  0  0
 11 14  1  0  0  0  0
 12 10  1  6  0  0  0
 12 19  1  0  0  0  0
 13  7  1  0  0  0  0
 14  5  1  0  0  0  0
 16 18  1  6  0  0  0
 16 17  1  0  0  0  0
 17  5  1  0  0  0  0
 17  9  1  1  0  0  0
 18  8  2  0  0  0  0
 19 20  1  0  0  0  0
 19 13  2  0  0  0  0
 20  4  1  6  0  0  0
 20 18  1  0  0  0  0
 21 22  1  0  0  0  0
 25 32  2  0  0  0  0
 25 24  1  0  0  0  0
 26 30  1  0  0  0  0
 28 27  2  0  0  0  0
 28 33  1  0  0  0  0
 29 31  1  1  0  0  0
 29 25  1  0  0  0  0
 30 24  2  0  0  0  0
 30 23  1  0  0  0  0
 33 34  1  1  0  0  0
 33 31  1  0  0  0  0
 33 29  1  0  0  0  0
 35 27  1  6  0  0  0
 35 26  1  0  0  0  0
 35 29  1  0  0  0  0
 36 37  1  6  0  0  0
 36  1  1  0  0  0  0
 38 39  1  6  0  0  0
 38 36  1  0  0  0  0
 40 38  1  0  0  0  0
 40 41  1  0  0  0  0
 43 45  1  6  0  0  0
 43 55  1  0  0  0  0
 43 46  1  0  0  0  0
 44 49  1  0  0  0  0
 44 41  1  0  0  0  0
 44 46  1  0  0  0  0
 45 47  1  0  0  0  0
 46 67  1  1  0  0  0
 47 53  1  6  0  0  0
 48 42  1  6  0  0  0
 48 51  1  0  0  0  0
 48 49  1  0  0  0  0
 50 47  1  0  0  0  0
 50 51  1  0  0  0  0
 52 54  1  0  0  0  0
 53 52  1  0  0  0  0
 53 54  1  0  0  0  0
 55 56  1  0  0  0  0
 55 57  1  1  0  0  0
 56 58  1  6  0  0  0
 56 57  1  0  0  0  0
 58 60  1  0  0  0  0
 59 58  2  0  0  0  0
 60 62  1  0  0  0  0
 62 61  1  6  0  0  0
 62 63  1  0  0  0  0
 63 64  1  0  0  0  0
 64 65  1  1  0  0  0
 66 64  1  0  0  0  0
 67 68  1  0  0  0  0
M  END
>  <MODEL>
4

>  <REMARK>
 VINA RESULT:      -5.7      2.840      9.694
  Name = 
  17 active torsions:
  status: ('A' for Active; 'I' for Inactive)
    1  A    between atoms: C_4  and  O_15
    2  A    between atoms: C_5  and  C_31
    3  A    between atoms: C_6  and  C_47
    4  A    between atoms: C_8  and  C_13
    5  A    between atoms: C_8  and  C_26
    6  A    between atoms: C_12  and  C_21
    7  A    between atoms: C_12  and  C_36
    8  A    between atoms: C_13  and  C_37
    9  A    between atoms: C_18  and  C_34
   10  A    between atoms: C_21  and  C_22
   11  A    between atoms: C_22  and  C_31
   12  A    between atoms: N_24  and  C_45
   13  A    between atoms: C_26  and  C_32
   14  A    between atoms: C_30  and  O_39
   15  A    between atoms: C_37  and  C_45
   16  A    between atoms: C_40  and  C_50
   17  A    between atoms: C_47  and  C_49
                            x       y       z     vdW  Elec       q    Type
                         _______ _______ _______ _____ _____    ______ ____

>  <TORSDO>
F 17

$$$$
=
 OpenBabel11062412383D

 68 77  0  0  1  0  0  0  0  0999 V2000
  188.0650  176.5840  138.9800 C   0  0  0  0  0  2  0  0  0  0  0  0
  191.1870  176.4400  140.9910 C   0  0  0  0  0  2  0  0  0  0  0  0
  186.4840  178.7150  143.2030 C   0  0  1  0  0  3  0  0  0  0  0  0
  186.6760  178.0760  141.8300 C   0  0  0  0  0  2  0  0  0  0  0  0
  185.7770  179.1770  145.9530 C   0  0  1  0  0  3  0  0  0  0  0  0
  190.5310  176.6510  139.6290 C   0  0  1  0  0  3  0  0  0  0  0  0
  190.0520  176.1750  143.3560 C   0  0  0  0  0  0  0  0  0  0  0  0
  188.9090  176.5290  144.1450 N   0  0  0  0  0  0  0  0  0  0  0  0
  187.2030  177.2360  146.6470 C   0  0  0  0  0  1  0  0  0  0  0  0
  189.0950  178.6060  139.7350 O   0  0  0  0  0  1  0  0  0  0  0  0
  185.1480  179.3710  143.4660 C   0  0  0  0  0  2  0  0  0  0  0  0
  189.1200  177.2170  139.8980 C   0  0  1  0  0  0  0  0  0  0  0  0
  190.0280  176.4790  141.9170 C   0  0  0  0  0  0  0  0  0  0  0  0
  185.2460  180.0940  144.8150 C   0  0  0  0  0  2  0  0  0  0  0  0
  191.0760  175.6880  143.9010 O   0  0  0  0  0  0  0  0  0  0  0  0
  186.7080  177.6270  144.2270 C   0  0  2  0  0  3  0  0  0  0  0  0
  186.9960  178.2930  145.5730 C   0  0  1  0  0  3  0  0  0  0  0  0
  187.7890  176.8660  143.5700 C   0  0  0  0  0  0  0  0  0  0  0  0
  188.9130  176.9060  141.3420 C   0  0  0  0  0  0  0  0  0  0  0  0
  187.5940  176.8760  142.0790 C   0  0  2  0  0  3  0  0  0  0  0  0
  185.9630  179.8850  147.1610 O   0  0  0  0  0  0  0  0  0  0  0  0
  186.2500  178.9670  148.1850 C   0  0  0  0  0  1  0  0  0  0  0  0
  191.3900  177.4750  138.6800 C   0  0  0  0  0  2  0  0  0  0  0  0
  193.4840  176.5360  137.8290 C   0  0  0  0  0  3  0  0  0  0  0  0
  194.2430  175.5330  137.0690 C   0  0  0  0  0  0  0  0  0  0  0  0
  191.3770  175.6660  136.8370 C   0  0  0  0  0  2  0  0  0  0  0  0
  191.4350  173.5800  135.4710 C   0  0  0  0  0  3  0  0  0  0  0  0
  192.6230  173.0800  134.6430 C   0  0  0  0  0  3  0  0  0  0  0  0
  193.4800  174.3630  136.5140 C   0  0  2  0  0  0  0  0  0  0  0  0
  192.1460  176.5540  137.7860 C   0  0  0  0  0  0  0  0  0  0  0  0
  194.1610  173.1300  136.6050 O   0  0  0  0  0  0  0  0  0  0  0  0
  195.4940  175.6280  136.9570 O   0  0  0  0  0  0  0  0  0  0  0  0
  193.8640  173.6210  135.3180 C   0  0  1  0  0  0  0  0  0  0  0  0
  194.9570  174.1040  134.5940 O   0  0  0  0  0  1  0  0  0  0  0  0
  191.9820  174.2640  136.7230 C   0  0  1  0  0  3  0  0  0  0  0  0
  188.1870  176.9850  137.5090 C   0  0  1  0  0  3  0  0  0  0  0  0
  187.9910  175.8730  136.6830 O   0  0  0  0  0  1  0  0  0  0  0  0
  187.1900  178.0900  137.1780 C   0  0  2  0  0  3  0  0  0  0  0  0
  187.7660  179.3490  137.3850 O   0  0  0  0  0  1  0  0  0  0  0  0
  185.9440  177.9350  138.0300 C   0  0  0  0  0  2  0  0  0  0  0  0
  184.7580  177.5180  137.1720 C   0  0  0  0  0  2  0  0  0  0  0  0
  183.5690  177.4790  140.8230 F   0  0  0  0  0  0  0  0  0  0  0  0
  181.7630  176.1270  136.9390 C   0  0  1  0  0  3  0  0  0  0  0  0
  183.5450  177.5270  137.9850 N   0  0  0  0  0  0  0  0  0  0  0  0
  181.7630  175.1390  138.4760 S   0  0  0  0  0  0  0  0  0  0  0  0
  182.3260  177.5340  137.1670 C   0  0  1  0  0  3  0  0  0  0  0  0
  180.5070  176.1910  139.2980 C   0  0  2  0  0  3  0  0  0  0  0  0
  182.8880  178.4840  140.1400 C   0  0  1  0  0  3  0  0  0  0  0  0
  183.5420  178.7440  138.7870 C   0  0  0  0  0  2  0  0  0  0  0  0
  181.1350  176.9940  140.4320 C   0  0  0  0  0  2  0  0  0  0  0  0
  181.4920  178.2790  139.9830 O   0  0  0  0  0  0  0  0  0  0  0  0
  179.2880  173.9620  139.7420 C   0  0  0  0  0  2  0  0  0  0  0  0
  179.2160  175.4840  139.7540 C   0  0  0  0  0  3  0  0  0  0  0  0
  179.4360  174.7150  141.0480 C   0  0  0  0  0  2  0  0  0  0  0  0
  182.5010  175.3890  135.8230 C   0  0  1  0  0  3  0  0  0  0  0  0
  181.7090  174.3980  135.0250 C   0  0  2  0  0  3  0  0  0  0  0  0
  181.9040  175.7240  134.5940 O   0  0  0  0  0  0  0  0  0  0  0  0
  180.2830  174.1740  135.4700 C   0  0  0  0  0  0  0  0  0  0  0  0
  179.4790  175.0920  135.5130 O   0  0  0  0  0  0  0  0  0  0  0  0
  179.8800  172.8000  135.9220 C   0  0  0  0  0  2  0  0  0  0  0  0
  180.4270  170.3500  135.6450 C   0  0  0  0  0  1  0  0  0  0  0  0
  180.9900  171.7510  135.7690 C   0  0  2  0  0  3  0  0  0  0  0  0
  182.0170  171.8050  136.8980 C   0  0  0  0  0  2  0  0  0  0  0  0
  183.4060  171.4620  136.3890 C   0  0  2  0  0  3  0  0  0  0  0  0
  184.4120  172.4250  136.9890 C   0  0  0  0  0  1  0  0  0  0  0  0
  183.4340  171.5690  134.9960 O   0  0  0  0  0  1  0  0  0  0  0  0
  182.4720  178.2530  135.9710 O   0  0  0  0  0  0  0  0  0  0  0  0
  181.4650  179.1030  135.9700 O   0  0  0  0  0  1  0  0  0  0  0  0
  1 12  1  0  0  0  0
  2 13  1  0  0  0  0
  3  4  1  6  0  0  0
  3 11  1  0  0  0  0
  3 16  1  0  0  0  0
  5 21  1  1  0  0  0
  6 23  1  6  0  0  0
  6 12  1  0  0  0  0
  6  2  1  0  0  0  0
  7 15  2  0  0  0  0
  7  8  1  0  0  0  0
 11 14  1  0  0  0  0
 12 10  1  6  0  0  0
 12 19  1  0  0  0  0
 13  7  1  0  0  0  0
 14  5  1  0  0  0  0
 16 18  1  6  0  0  0
 16 17  1  0  0  0  0
 17  5  1  0  0  0  0
 17  9  1  1  0  0  0
 18  8  2  0  0  0  0
 19 13  2  0  0  0  0
 19 20  1  0  0  0  0
 20  4  1  1  0  0  0
 20 18  1  0  0  0  0
 21 22  1  0  0  0  0
 25 24  1  0  0  0  0
 26 30  1  0  0  0  0
 28 33  1  0  0  0  0
 28 27  2  0  0  0  0
 29 31  1  1  0  0  0
 29 35  1  0  0  0  0
 29 25  1  0  0  0  0
 30 24  2  0  0  0  0
 30 23  1  0  0  0  0
 32 25  2  0  0  0  0
 33 34  1  6  0  0  0
 33 29  1  0  0  0  0
 33 31  1  0  0  0  0
 35 27  1  6  0  0  0
 35 26  1  0  0  0  0
 36 37  1  6  0  0  0
 36  1  1  0  0  0  0
 38 39  1  1  0  0  0
 38 36  1  0  0  0  0
 38 40  1  0  0  0  0
 41 44  1  0  0  0  0
 41 40  1  0  0  0  0
 43 46  1  0  0  0  0
 43 45  1  1  0  0  0
 44 49  1  0  0  0  0
 45 47  1  0  0  0  0
 46 67  1  6  0  0  0
 46 44  1  0  0  0  0
 47 53  1  1  0  0  0
 47 50  1  0  0  0  0
 48 42  1  6  0  0  0
 49 48  1  0  0  0  0
 51 48  1  0  0  0  0
 51 50  1  0  0  0  0
 52 53  1  0  0  0  0
 52 54  1  0  0  0  0
 53 54  1  0  0  0  0
 55 57  1  6  0  0  0
 55 43  1  0  0  0  0
 56 58  1  1  0  0  0
 56 55  1  0  0  0  0
 57 56  1  0  0  0  0
 58 59  2  0  0  0  0
 58 60  1  0  0  0  0
 62 61  1  1  0  0  0
 62 60  1  0  0  0  0
 62 63  1  0  0  0  0
 64 63  1  0  0  0  0
 64 65  1  1  0  0  0
 66 64  1  0  0  0  0
 68 67  1  0  0  0  0
M  END
>  <MODEL>
5

>  <REMARK>
 VINA RESULT:      -5.6      3.302      9.427
  Name = 
  17 active torsions:
  status: ('A' for Active; 'I' for Inactive)
    1  A    between atoms: C_4  and  O_15
    2  A    between atoms: C_5  and  C_31
    3  A    between atoms: C_6  and  C_47
    4  A    between atoms: C_8  and  C_13
    5  A    between atoms: C_8  and  C_26
    6  A    between atoms: C_12  and  C_21
    7  A    between atoms: C_12  and  C_36
    8  A    between atoms: C_13  and  C_37
    9  A    between atoms: C_18  and  C_34
   10  A    between atoms: C_21  and  C_22
   11  A    between atoms: C_22  and  C_31
   12  A    between atoms: N_24  and  C_45
   13  A    between atoms: C_26  and  C_32
   14  A    between atoms: C_30  and  O_39
   15  A    between atoms: C_37  and  C_45
   16  A    between atoms: C_40  and  C_50
   17  A    between atoms: C_47  and  C_49
                            x       y       z     vdW  Elec       q    Type
                         _______ _______ _______ _____ _____    ______ ____

>  <TORSDO>
F 17

$$$$
=
 OpenBabel11062412383D

 68 77  0  0  1  0  0  0  0  0999 V2000
  188.9900  177.0080  137.3830 C   0  0  0  0  0  2  0  0  0  0  0  0
  191.1450  177.3720  140.3900 C   0  0  0  0  0  2  0  0  0  0  0  0
  192.3560  173.4390  136.4840 C   0  0  1  0  0  3  0  0  0  0  0  0
  191.2280  174.4670  136.4800 C   0  0  0  0  0  2  0  0  0  0  0  0
  194.8240  172.0530  135.9670 C   0  0  1  0  0  3  0  0  0  0  0  0
  189.7410  177.3940  139.7910 C   0  0  1  0  0  3  0  0  0  0  0  0
  193.4180  176.6570  139.2630 C   0  0  0  0  0  0  0  0  0  0  0  0
  194.0090  175.8140  138.2660 N   0  0  0  0  0  0  0  0  0  0  0  0
  196.1110  174.0160  136.8450 C   0  0  0  0  0  1  0  0  0  0  0  0
  189.2160  175.1890  138.9190 O   0  0  0  0  0  1  0  0  0  0  0  0
  192.3470  172.4160  135.3720 C   0  0  0  0  0  2  0  0  0  0  0  0
  189.7590  176.4330  138.5820 C   0  0  1  0  0  0  0  0  0  0  0  0
  191.9530  176.7760  139.2960 C   0  0  0  0  0  0  0  0  0  0  0  0
  193.4470  171.3910  135.6780 C   0  0  0  0  0  2  0  0  0  0  0  0
  194.1370  177.2150  140.1320 O   0  0  0  0  0  0  0  0  0  0  0  0
  193.6530  174.2130  136.4320 C   0  0  2  0  0  3  0  0  0  0  0  0
  194.7760  173.2890  136.9060 C   0  0  1  0  0  3  0  0  0  0  0  0
  193.2980  175.3790  137.2650 C   0  0  0  0  0  0  0  0  0  0  0  0
  191.2170  176.2590  138.3240 C   0  0  0  0  0  0  0  0  0  0  0  0
  191.8540  175.7410  137.0550 C   0  0  2  0  0  3  0  0  0  0  0  0
  195.7970  171.1040  136.3520 O   0  0  0  0  0  0  0  0  0  0  0  0
  196.3370  170.5140  135.1970 C   0  0  0  0  0  1  0  0  0  0  0  0
  188.6540  177.1200  140.8200 C   0  0  0  0  0  2  0  0  0  0  0  0
  190.4760  176.2950  142.2330 C   0  0  0  0  0  3  0  0  0  0  0  0
  191.1890  176.2120  143.5150 C   0  0  0  0  0  0  0  0  0  0  0  0
  188.5630  177.3860  143.3870 C   0  0  0  0  0  2  0  0  0  0  0  0
  188.8000  178.0660  145.7760 C   0  0  0  0  0  3  0  0  0  0  0  0
  189.6960  177.3900  146.8180 C   0  0  0  0  0  3  0  0  0  0  0  0
  190.7050  177.0920  144.6330 C   0  0  2  0  0  0  0  0  0  0  0  0
  189.2890  176.9090  142.1510 C   0  0  0  0  0  0  0  0  0  0  0  0
  191.7370  177.6620  145.4110 O   0  0  0  0  0  0  0  0  0  0  0  0
  192.2060  175.4800  143.6340 O   0  0  0  0  0  0  0  0  0  0  0  0
  190.8460  176.7770  146.0510 C   0  0  1  0  0  0  0  0  0  0  0  0
  191.3760  175.5240  146.3740 O   0  0  0  0  0  1  0  0  0  0  0  0
  189.5090  177.9990  144.4240 C   0  0  1  0  0  3  0  0  0  0  0  0
  188.2530  178.3150  137.6750 C   0  0  1  0  0  3  0  0  0  0  0  0
  189.0780  179.4120  137.4050 O   0  0  0  0  0  1  0  0  0  0  0  0
  186.9660  178.3900  136.8610 C   0  0  2  0  0  3  0  0  0  0  0  0
  186.8970  179.6000  136.1620 O   0  0  0  0  0  1  0  0  0  0  0  0
  185.7650  178.2430  137.7780 C   0  0  0  0  0  2  0  0  0  0  0  0
  184.9670  176.9990  137.4190 C   0  0  0  0  0  2  0  0  0  0  0  0
  182.6810  178.4920  134.7190 F   0  0  0  0  0  0  0  0  0  0  0  0
  182.5400  178.3680  139.2070 C   0  0  1  0  0  3  0  0  0  0  0  0
  183.5770  177.3700  137.1680 N   0  0  0  0  0  0  0  0  0  0  0  0
  182.2280  179.8650  138.2060 S   0  0  0  0  0  0  0  0  0  0  0  0
  182.7160  177.1230  138.3300 C   0  0  1  0  0  3  0  0  0  0  0  0
  180.5950  179.2790  137.6160 C   0  0  2  0  0  3  0  0  0  0  0  0
  182.0810  177.3440  135.2310 C   0  0  1  0  0  3  0  0  0  0  0  0
  183.0780  176.5520  136.0700 C   0  0  0  0  0  2  0  0  0  0  0  0
  180.6500  178.9330  136.1320 C   0  0  0  0  0  2  0  0  0  0  0  0
  180.8800  177.5550  135.9590 O   0  0  0  0  0  0  0  0  0  0  0  0
  179.7510  181.5780  138.4270 C   0  0  0  0  0  2  0  0  0  0  0  0
  179.3880  180.1790  137.9400 C   0  0  0  0  0  3  0  0  0  0  0  0
  179.3140  181.3670  136.9910 C   0  0  0  0  0  2  0  0  0  0  0  0
  183.7300  178.5820  140.1410 C   0  0  1  0  0  3  0  0  0  0  0  0
  183.4240  179.0320  141.5390 C   0  0  2  0  0  3  0  0  0  0  0  0
  183.6250  177.6770  141.2140 O   0  0  0  0  0  0  0  0  0  0  0  0
  181.9710  179.3090  141.8440 C   0  0  0  0  0  0  0  0  0  0  0  0
  181.3440  180.1620  141.2360 O   0  0  0  0  0  0  0  0  0  0  0  0
  181.3170  178.5510  142.9620 C   0  0  0  0  0  2  0  0  0  0  0  0
  179.1690  178.8060  144.2680 C   0  0  0  0  0  1  0  0  0  0  0  0
  179.7830  178.5660  142.9030 C   0  0  2  0  0  3  0  0  0  0  0  0
  179.2000  177.2990  142.2810 C   0  0  0  0  0  2  0  0  0  0  0  0
  179.9180  176.9460  140.9900 C   0  0  2  0  0  3  0  0  0  0  0  0
  178.9450  177.0500  139.8320 C   0  0  0  0  0  1  0  0  0  0  0  0
  180.4090  175.6400  141.0680 O   0  0  0  0  0  1  0  0  0  0  0  0
  183.1020  175.9970  139.0710 O   0  0  0  0  0  0  0  0  0  0  0  0
  182.3510  175.0190  138.6060 O   0  0  0  0  0  1  0  0  0  0  0  0
  1 36  1  0  0  0  0
  1 12  1  0  0  0  0
  3 11  1  6  0  0  0
  4  3  1  0  0  0  0
  5 21  1  1  0  0  0
  5 17  1  0  0  0  0
  6  2  1  0  0  0  0
  6 23  1  1  0  0  0
  7 13  1  0  0  0  0
  7 15  2  0  0  0  0
  8  7  1  0  0  0  0
 11 14  1  0  0  0  0
 12 10  1  1  0  0  0
 12  6  1  0  0  0  0
 13  2  1  0  0  0  0
 14  5  1  0  0  0  0
 16  3  1  0  0  0  0
 16 17  1  0  0  0  0
 16 18  1  1  0  0  0
 17  9  1  6  0  0  0
 18  8  2  0  0  0  0
 19 12  1  0  0  0  0
 19 13  2  0  0  0  0
 20  4  1  1  0  0  0
 20 18  1  0  0  0  0
 20 19  1  0  0  0  0
 22 21  1  0  0  0  0
 23 30  1  0  0  0  0
 24 25  1  0  0  0  0
 25 32  2  0  0  0  0
 27 28  2  0  0  0  0
 29 25  1  6  0  0  0
 29 31  1  0  0  0  0
 29 33  1  0  0  0  0
 30 24  2  0  0  0  0
 30 26  1  0  0  0  0
 31 33  1  0  0  0  0
 33 34  1  1  0  0  0
 33 28  1  0  0  0  0
 35 26  1  6  0  0  0
 35 29  1  0  0  0  0
 35 27  1  0  0  0  0
 36 37  1  6  0  0  0
 38 39  1  1  0  0  0
 38 36  1  0  0  0  0
 38 40  1  0  0  0  0
 41 40  1  0  0  0  0
 43 45  1  6  0  0  0
 43 55  1  0  0  0  0
 44 41  1  0  0  0  0
 44 46  1  0  0  0  0
 46 67  1  1  0  0  0
 46 43  1  0  0  0  0
 47 53  1  6  0  0  0
 47 45  1  0  0  0  0
 48 42  1  1  0  0  0
 48 51  1  0  0  0  0
 48 49  1  0  0  0  0
 49 44  1  0  0  0  0
 50 47  1  0  0  0  0
 51 50  1  0  0  0  0
 53 52  1  0  0  0  0
 54 53  1  0  0  0  0
 54 52  1  0  0  0  0
 55 57  1  1  0  0  0
 55 56  1  0  0  0  0
 56 58  1  6  0  0  0
 57 56  1  0  0  0  0
 58 60  1  0  0  0  0
 59 58  2  0  0  0  0
 62 60  1  0  0  0  0
 62 61  1  1  0  0  0
 63 62  1  0  0  0  0
 64 65  1  6  0  0  0
 64 66  1  0  0  0  0
 64 63  1  0  0  0  0
 68 67  1  0  0  0  0
M  END
>  <MODEL>
6

>  <REMARK>
 VINA RESULT:      -5.1      2.823     10.641
  Name = 
  17 active torsions:
  status: ('A' for Active; 'I' for Inactive)
    1  A    between atoms: C_4  and  O_15
    2  A    between atoms: C_5  and  C_31
    3  A    between atoms: C_6  and  C_47
    4  A    between atoms: C_8  and  C_13
    5  A    between atoms: C_8  and  C_26
    6  A    between atoms: C_12  and  C_21
    7  A    between atoms: C_12  and  C_36
    8  A    between atoms: C_13  and  C_37
    9  A    between atoms: C_18  and  C_34
   10  A    between atoms: C_21  and  C_22
   11  A    between atoms: C_22  and  C_31
   12  A    between atoms: N_24  and  C_45
   13  A    between atoms: C_26  and  C_32
   14  A    between atoms: C_30  and  O_39
   15  A    between atoms: C_37  and  C_45
   16  A    between atoms: C_40  and  C_50
   17  A    between atoms: C_47  and  C_49
                            x       y       z     vdW  Elec       q    Type
                         _______ _______ _______ _____ _____    ______ ____

>  <TORSDO>
F 17

$$$$
=
 OpenBabel11062412383D

 68 77  0  0  1  0  0  0  0  0999 V2000
  189.2930  177.9920  136.8920 C   0  0  0  0  0  2  0  0  0  0  0  0
  190.8400  177.6370  140.2530 C   0  0  0  0  0  2  0  0  0  0  0  0
  192.3460  174.1410  136.0450 C   0  0  1  0  0  3  0  0  0  0  0  0
  191.3630  175.3080  136.0050 C   0  0  0  0  0  2  0  0  0  0  0  0
  194.6950  172.5050  135.7600 C   0  0  1  0  0  3  0  0  0  0  0  0
  189.5930  177.9370  139.4250 C   0  0  1  0  0  3  0  0  0  0  0  0
  193.1960  176.7690  139.4480 C   0  0  0  0  0  0  0  0  0  0  0  0
  193.8730  175.9950  138.4490 N   0  0  0  0  0  0  0  0  0  0  0  0
  195.9980  174.1290  137.1550 C   0  0  0  0  0  1  0  0  0  0  0  0
  189.0050  175.9680  138.1320 O   0  0  0  0  0  1  0  0  0  0  0  0
  192.4420  173.2900  134.7990 C   0  0  0  0  0  2  0  0  0  0  0  0
  189.7400  177.1570  138.1010 C   0  0  1  0  0  0  0  0  0  0  0  0
  191.7750  177.0880  139.2390 C   0  0  0  0  0  0  0  0  0  0  0  0
  193.3370  172.0890  135.1280 C   0  0  0  0  0  2  0  0  0  0  0  0
  193.7880  177.0970  140.5080 O   0  0  0  0  0  0  0  0  0  0  0  0
  193.7070  174.7240  136.3490 C   0  0  2  0  0  3  0  0  0  0  0  0
  194.6030  173.5960  136.8610 C   0  0  1  0  0  3  0  0  0  0  0  0
  193.3280  175.8040  137.2810 C   0  0  0  0  0  0  0  0  0  0  0  0
  191.1920  176.8160  138.0810 C   0  0  0  0  0  0  0  0  0  0  0  0
  192.0040  176.3910  136.8790 C   0  0  2  0  0  3  0  0  0  0  0  0
  195.4610  171.3850  136.1550 O   0  0  0  0  0  0  0  0  0  0  0  0
  194.6520  170.5310  136.9240 C   0  0  0  0  0  1  0  0  0  0  0  0
  188.3010  177.6820  140.1870 C   0  0  0  0  0  2  0  0  0  0  0  0
  187.5730  177.6990  142.5250 C   0  0  0  0  0  3  0  0  0  0  0  0
  187.8310  177.5790  143.9660 C   0  0  0  0  0  0  0  0  0  0  0  0
  190.0230  177.7820  142.1100 C   0  0  0  0  0  2  0  0  0  0  0  0
  191.6000  177.3460  143.9930 C   0  0  0  0  0  3  0  0  0  0  0  0
  191.3320  177.6280  145.4740 C   0  0  0  0  0  3  0  0  0  0  0  0
  189.2130  177.1650  144.3890 C   0  0  2  0  0  0  0  0  0  0  0  0
  188.5860  177.7150  141.6490 C   0  0  0  0  0  0  0  0  0  0  0  0
  189.2430  176.2660  145.4770 O   0  0  0  0  0  0  0  0  0  0  0  0
  186.9030  177.7500  144.7990 O   0  0  0  0  0  0  0  0  0  0  0  0
  189.8330  177.5340  145.6570 C   0  0  1  0  0  0  0  0  0  0  0  0
  189.1230  178.4130  146.4790 O   0  0  0  0  0  1  0  0  0  0  0  0
  190.2840  176.9150  143.3450 C   0  0  1  0  0  3  0  0  0  0  0  0
  187.7810  178.2020  136.7960 C   0  0  1  0  0  3  0  0  0  0  0  0
  187.4750  179.5670  136.8280 O   0  0  0  0  0  1  0  0  0  0  0  0
  187.2360  177.5530  135.5280 C   0  0  2  0  0  3  0  0  0  0  0  0
  186.6080  178.5070  134.7200 O   0  0  0  0  0  1  0  0  0  0  0  0
  186.2610  176.4480  135.8920 C   0  0  0  0  0  2  0  0  0  0  0  0
  185.1280  176.9940  136.7480 C   0  0  0  0  0  2  0  0  0  0  0  0
  183.8670  173.7390  135.1480 F   0  0  0  0  0  0  0  0  0  0  0  0
  181.9060  177.0190  137.5090 C   0  0  1  0  0  3  0  0  0  0  0  0
  184.0860  175.9800  136.8780 N   0  0  0  0  0  0  0  0  0  0  0  0
  181.2230  176.3030  135.9720 S   0  0  0  0  0  0  0  0  0  0  0  0
  183.1590  176.2710  137.9780 C   0  0  1  0  0  3  0  0  0  0  0  0
  180.7460  174.7250  136.7750 C   0  0  2  0  0  3  0  0  0  0  0  0
  183.9430  173.5610  136.5280 C   0  0  1  0  0  3  0  0  0  0  0  0
  184.7250  174.7030  137.1680 C   0  0  0  0  0  2  0  0  0  0  0  0
  181.6350  173.5850  136.2930 C   0  0  0  0  0  2  0  0  0  0  0  0
  182.7000  173.3810  137.1900 O   0  0  0  0  0  0  0  0  0  0  0  0
  178.9650  173.0360  135.9800 C   0  0  0  0  0  2  0  0  0  0  0  0
  179.2550  174.3460  136.7050 C   0  0  0  0  0  3  0  0  0  0  0  0
  178.9700  173.0770  137.4950 C   0  0  0  0  0  2  0  0  0  0  0  0
  182.1640  178.5150  137.3380 C   0  0  1  0  0  3  0  0  0  0  0  0
  181.2420  179.4510  138.0610 C   0  0  2  0  0  3  0  0  0  0  0  0
  182.4850  179.0610  138.5950 O   0  0  0  0  0  0  0  0  0  0  0  0
  180.1010  178.8080  138.8140 C   0  0  0  0  0  0  0  0  0  0  0  0
  178.9400  178.9770  138.4750 O   0  0  0  0  0  0  0  0  0  0  0  0
  180.4160  177.9980  140.0380 C   0  0  0  0  0  2  0  0  0  0  0  0
  181.2450  179.6300  141.7780 C   0  0  0  0  0  1  0  0  0  0  0  0
  180.1070  178.7240  141.3550 C   0  0  2  0  0  3  0  0  0  0  0  0
  179.7470  177.7670  142.4890 C   0  0  0  0  0  2  0  0  0  0  0  0
  179.6350  178.5070  143.8110 C   0  0  2  0  0  3  0  0  0  0  0  0
  178.9310  179.8310  143.5860 C   0  0  0  0  0  1  0  0  0  0  0  0
  180.9120  178.7420  144.3270 O   0  0  0  0  0  1  0  0  0  0  0  0
  183.7800  176.8970  139.0680 O   0  0  0  0  0  0  0  0  0  0  0  0
  183.1580  176.4170  140.1260 O   0  0  0  0  0  1  0  0  0  0  0  0
  1 12  1  0  0  0  0
  3 11  1  6  0  0  0
  3 16  1  0  0  0  0
  4  3  1  0  0  0  0
  5 21  1  1  0  0  0
  5 17  1  0  0  0  0
  6 23  1  1  0  0  0
  6  2  1  0  0  0  0
  7 15  2  0  0  0  0
  8  7  1  0  0  0  0
 11 14  1  0  0  0  0
 12 10  1  1  0  0  0
 12  6  1  0  0  0  0
 13  7  1  0  0  0  0
 13  2  1  0  0  0  0
 14  5  1  0  0  0  0
 16 17  1  0  0  0  0
 16 18  1  1  0  0  0
 17  9  1  6  0  0  0
 18  8  2  0  0  0  0
 19 12  1  0  0  0  0
 19 13  2  0  0  0  0
 20  4  1  1  0  0  0
 20 18  1  0  0  0  0
 20 19  1  0  0  0  0
 21 22  1  0  0  0  0
 23 30  1  0  0  0  0
 24 25  1  0  0  0  0
 25 32  2  0  0  0  0
 27 28  2  0  0  0  0
 28 33  1  0  0  0  0
 29 25  1  6  0  0  0
 29 31  1  0  0  0  0
 29 33  1  0  0  0  0
 30 26  1  0  0  0  0
 30 24  2  0  0  0  0
 31 33  1  0  0  0  0
 33 34  1  1  0  0  0
 35 26  1  6  0  0  0
 35 27  1  0  0  0  0
 35 29  1  0  0  0  0
 36 37  1  6  0  0  0
 36  1  1  0  0  0  0
 38 39  1  6  0  0  0
 38 40  1  0  0  0  0
 38 36  1  0  0  0  0
 40 41  1  0  0  0  0
 41 44  1  0  0  0  0
 43 45  1  6  0  0  0
 43 46  1  0  0  0  0
 44 49  1  0  0  0  0
 44 46  1  0  0  0  0
 45 47  1  0  0  0  0
 46 67  1  1  0  0  0
 47 53  1  6  0  0  0
 48 42  1  6  0  0  0
 48 49  1  0  0  0  0
 48 51  1  0  0  0  0
 50 47  1  0  0  0  0
 50 51  1  0  0  0  0
 52 53  1  0  0  0  0
 52 54  1  0  0  0  0
 53 54  1  0  0  0  0
 55 43  1  0  0  0  0
 55 56  1  0  0  0  0
 55 57  1  1  0  0  0
 56 57  1  0  0  0  0
 56 58  1  1  0  0  0
 58 60  1  0  0  0  0
 59 58  2  0  0  0  0
 60 62  1  0  0  0  0
 62 61  1  1  0  0  0
 62 63  1  0  0  0  0
 63 64  1  0  0  0  0
 64 65  1  6  0  0  0
 64 66  1  0  0  0  0
 67 68  1  0  0  0  0
M  END
>  <MODEL>
7

>  <REMARK>
 VINA RESULT:      -5.1      2.973     10.318
  Name = 
  17 active torsions:
  status: ('A' for Active; 'I' for Inactive)
    1  A    between atoms: C_4  and  O_15
    2  A    between atoms: C_5  and  C_31
    3  A    between atoms: C_6  and  C_47
    4  A    between atoms: C_8  and  C_13
    5  A    between atoms: C_8  and  C_26
    6  A    between atoms: C_12  and  C_21
    7  A    between atoms: C_12  and  C_36
    8  A    between atoms: C_13  and  C_37
    9  A    between atoms: C_18  and  C_34
   10  A    between atoms: C_21  and  C_22
   11  A    between atoms: C_22  and  C_31
   12  A    between atoms: N_24  and  C_45
   13  A    between atoms: C_26  and  C_32
   14  A    between atoms: C_30  and  O_39
   15  A    between atoms: C_37  and  C_45
   16  A    between atoms: C_40  and  C_50
   17  A    between atoms: C_47  and  C_49
                            x       y       z     vdW  Elec       q    Type
                         _______ _______ _______ _____ _____    ______ ____

>  <TORSDO>
F 17

$$$$
=
 OpenBabel11062412383D

 68 77  0  0  1  0  0  0  0  0999 V2000
  190.6490  177.3210  137.6180 C   0  0  0  0  0  2  0  0  0  0  0  0
  189.2960  174.5410  135.5550 C   0  0  0  0  0  2  0  0  0  0  0  0
  194.9040  175.2820  136.0030 C   0  0  1  0  0  3  0  0  0  0  0  0
  193.7840  176.0770  136.6700 C   0  0  0  0  0  2  0  0  0  0  0  0
  197.0530  173.4350  135.5040 C   0  0  1  0  0  3  0  0  0  0  0  0
  189.1670  175.9870  136.0270 C   0  0  1  0  0  3  0  0  0  0  0  0
  191.2670  172.8360  135.9560 C   0  0  0  0  0  0  0  0  0  0  0  0
  192.6790  172.7190  136.1730 N   0  0  0  0  0  0  0  0  0  0  0  0
  195.5480  171.5210  136.1000 C   0  0  0  0  0  1  0  0  0  0  0  0
  191.1000  177.2450  135.2710 O   0  0  0  0  0  1  0  0  0  0  0  0
  196.3110  175.8000  136.1940 C   0  0  0  0  0  2  0  0  0  0  0  0
  190.5960  176.4850  136.3310 C   0  0  1  0  0  0  0  0  0  0  0  0
  190.6630  174.1760  136.0070 C   0  0  0  0  0  0  0  0  0  0  0  0
  197.2350  174.9660  135.2990 C   0  0  0  0  0  2  0  0  0  0  0  0
  190.5840  171.8250  135.6510 O   0  0  0  0  0  0  0  0  0  0  0  0
  194.8210  173.8720  136.5420 C   0  0  2  0  0  3  0  0  0  0  0  0
  195.5790  172.9530  135.5840 C   0  0  1  0  0  3  0  0  0  0  0  0
  193.3570  173.7200  136.6580 C   0  0  0  0  0  0  0  0  0  0  0  0
  191.3740  175.2160  136.4160 C   0  0  0  0  0  0  0  0  0  0  0  0
  192.7330  175.0300  137.0520 C   0  0  2  0  0  3  0  0  0  0  0  0
  197.8320  172.6820  134.5980 O   0  0  0  0  0  0  0  0  0  0  0  0
  198.9070  172.1040  135.2960 C   0  0  0  0  0  1  0  0  0  0  0  0
  188.3690  176.8540  135.0640 C   0  0  0  0  0  2  0  0  0  0  0  0
  186.0320  176.1660  134.8210 C   0  0  0  0  0  3  0  0  0  0  0  0
  184.6540  176.0520  135.3170 C   0  0  0  0  0  0  0  0  0  0  0  0
  186.5590  177.7170  136.6920 C   0  0  0  0  0  2  0  0  0  0  0  0
  184.8780  178.0700  138.5010 C   0  0  0  0  0  3  0  0  0  0  0  0
  183.3580  177.9660  138.3490 C   0  0  0  0  0  3  0  0  0  0  0  0
  184.3910  176.4800  136.7340 C   0  0  2  0  0  0  0  0  0  0  0  0
  186.9440  176.8760  135.4980 C   0  0  0  0  0  0  0  0  0  0  0  0
  183.4910  175.6490  137.4350 O   0  0  0  0  0  0  0  0  0  0  0  0
  183.7540  175.5480  134.5960 O   0  0  0  0  0  0  0  0  0  0  0  0
  183.1140  176.9900  137.2190 C   0  0  1  0  0  0  0  0  0  0  0  0
  182.1050  177.1830  136.2700 O   0  0  0  0  0  1  0  0  0  0  0  0
  185.5210  177.0300  137.5840 C   0  0  1  0  0  3  0  0  0  0  0  0
  190.3650  176.5300  138.8960 C   0  0  1  0  0  3  0  0  0  0  0  0
  190.7060  175.1840  138.7210 O   0  0  0  0  0  1  0  0  0  0  0  0
  191.1240  177.1340  140.0720 C   0  0  2  0  0  3  0  0  0  0  0  0
  192.5040  177.0000  139.8870 O   0  0  0  0  0  1  0  0  0  0  0  0
  190.6980  176.4580  141.3630 C   0  0  0  0  0  2  0  0  0  0  0  0
  189.2380  176.7570  141.6670 C   0  0  0  0  0  2  0  0  0  0  0  0
  190.4290  176.1100  145.2600 F   0  0  0  0  0  0  0  0  0  0  0  0
  186.7980  178.0670  143.4800 C   0  0  1  0  0  3  0  0  0  0  0  0
  189.1210  177.2770  143.0260 N   0  0  0  0  0  0  0  0  0  0  0  0
  186.7520  176.8580  144.8520 S   0  0  0  0  0  0  0  0  0  0  0  0
  188.2340  178.4440  143.1020 C   0  0  1  0  0  3  0  0  0  0  0  0
  187.4330  178.0390  146.0770 C   0  0  2  0  0  3  0  0  0  0  0  0
  190.6050  177.4600  144.9630 C   0  0  1  0  0  3  0  0  0  0  0  0
  190.4430  177.7020  143.4670 C   0  0  0  0  0  2  0  0  0  0  0  0
  188.8530  177.6470  146.4720 C   0  0  0  0  0  2  0  0  0  0  0  0
  189.7900  178.3590  145.7000 O   0  0  0  0  0  0  0  0  0  0  0  0
  185.6820  179.5600  147.2050 C   0  0  0  0  0  2  0  0  0  0  0  0
  186.5600  178.3190  147.3150 C   0  0  0  0  0  3  0  0  0  0  0  0
  185.0800  178.1860  146.9880 C   0  0  0  0  0  2  0  0  0  0  0  0
  186.0060  177.5510  142.2800 C   0  0  1  0  0  3  0  0  0  0  0  0
  184.5600  177.9410  142.2000 C   0  0  2  0  0  3  0  0  0  0  0  0
  185.5690  178.6540  141.5240 O   0  0  0  0  0  0  0  0  0  0  0  0
  184.0220  178.7350  143.3670 C   0  0  0  0  0  0  0  0  0  0  0  0
  184.6660  179.6410  143.8710 O   0  0  0  0  0  0  0  0  0  0  0  0
  182.6900  178.3490  143.9430 C   0  0  0  0  0  2  0  0  0  0  0  0
  180.2160  178.8460  144.0340 C   0  0  0  0  0  1  0  0  0  0  0  0
  181.4990  179.0260  143.2500 C   0  0  2  0  0  3  0  0  0  0  0  0
  181.3050  178.5560  141.8100 C   0  0  0  0  0  2  0  0  0  0  0  0
  180.1870  179.3270  141.1310 C   0  0  2  0  0  3  0  0  0  0  0  0
  180.0830  178.8890  139.6830 C   0  0  0  0  0  1  0  0  0  0  0  0
  180.4630  180.6960  141.1830 O   0  0  0  0  0  1  0  0  0  0  0  0
  188.2910  179.2530  141.9580 O   0  0  0  0  0  0  0  0  0  0  0  0
  188.9450  180.3300  142.3440 O   0  0  0  0  0  1  0  0  0  0  0  0
  1 36  1  0  0  0  0
  2 13  1  0  0  0  0
  2  6  1  0  0  0  0
  3 11  1  1  0  0  0
  3 16  1  0  0  0  0
  3  4  1  0  0  0  0
  5 21  1  6  0  0  0
  5 17  1  0  0  0  0
  6 23  1  6  0  0  0
  6 12  1  0  0  0  0
  7 13  1  0  0  0  0
  7  8  1  0  0  0  0
  8 18  2  0  0  0  0
 12 10  1  6  0  0  0
 12 19  1  0  0  0  0
 12  1  1  0  0  0  0
 13 19  2  0  0  0  0
 14  5  1  0  0  0  0
 14 11  1  0  0  0  0
 15  7  2  0  0  0  0
 16 18  1  6  0  0  0
 17  9  1  1  0  0  0
 17 16  1  0  0  0  0
 18 20  1  0  0  0  0
 19 20  1  0  0  0  0
 20  4  1  6  0  0  0
 21 22  1  0  0  0  0
 23 30  1  0  0  0  0
 24 25  1  0  0  0  0
 24 30  2  0  0  0  0
 28 27  2  0  0  0  0
 29 25  1  6  0  0  0
 29 33  1  0  0  0  0
 29 31  1  0  0  0  0
 29 35  1  0  0  0  0
 30 26  1  0  0  0  0
 32 25  2  0  0  0  0
 33 34  1  6  0  0  0
 33 31  1  0  0  0  0
 33 28  1  0  0  0  0
 35 26  1  6  0  0  0
 35 27  1  0  0  0  0
 36 37  1  6  0  0  0
 36 38  1  0  0  0  0
 38 39  1  6  0  0  0
 38 40  1  0  0  0  0
 40 41  1  0  0  0  0
 41 44  1  0  0  0  0
 43 45  1  1  0  0  0
 44 46  1  0  0  0  0
 44 49  1  0  0  0  0
 45 47  1  0  0  0  0
 46 67  1  6  0  0  0
 46 43  1  0  0  0  0
 47 50  1  0  0  0  0
 47 53  1  1  0  0  0
 48 42  1  6  0  0  0
 48 51  1  0  0  0  0
 49 48  1  0  0  0  0
 51 50  1  0  0  0  0
 52 53  1  0  0  0  0
 54 52  1  0  0  0  0
 54 53  1  0  0  0  0
 55 57  1  6  0  0  0
 55 43  1  0  0  0  0
 56 55  1  0  0  0  0
 56 58  1  1  0  0  0
 57 56  1  0  0  0  0
 58 59  2  0  0  0  0
 58 60  1  0  0  0  0
 62 60  1  0  0  0  0
 62 61  1  1  0  0  0
 63 62  1  0  0  0  0
 64 65  1  6  0  0  0
 64 66  1  0  0  0  0
 64 63  1  0  0  0  0
 67 68  1  0  0  0  0
M  END
>  <MODEL>
8

>  <REMARK>
 VINA RESULT:      -4.4      2.781     12.335
  Name = 
  17 active torsions:
  status: ('A' for Active; 'I' for Inactive)
    1  A    between atoms: C_4  and  O_15
    2  A    between atoms: C_5  and  C_31
    3  A    between atoms: C_6  and  C_47
    4  A    between atoms: C_8  and  C_13
    5  A    between atoms: C_8  and  C_26
    6  A    between atoms: C_12  and  C_21
    7  A    between atoms: C_12  and  C_36
    8  A    between atoms: C_13  and  C_37
    9  A    between atoms: C_18  and  C_34
   10  A    between atoms: C_21  and  C_22
   11  A    between atoms: C_22  and  C_31
   12  A    between atoms: N_24  and  C_45
   13  A    between atoms: C_26  and  C_32
   14  A    between atoms: C_30  and  O_39
   15  A    between atoms: C_37  and  C_45
   16  A    between atoms: C_40  and  C_50
   17  A    between atoms: C_47  and  C_49
                            x       y       z     vdW  Elec       q    Type
                         _______ _______ _______ _____ _____    ______ ____

>  <TORSDO>
F 17

$$$$
=
 OpenBabel11062412383D

 68 77  0  0  1  0  0  0  0  0999 V2000
  188.3090  178.0310  138.0930 C   0  0  0  0  0  2  0  0  0  0  0  0
  190.4670  177.6810  141.0990 C   0  0  0  0  0  2  0  0  0  0  0  0
  191.5290  174.5890  136.4610 C   0  0  1  0  0  3  0  0  0  0  0  0
  190.4430  175.6410  136.6740 C   0  0  0  0  0  2  0  0  0  0  0  0
  193.9390  173.2400  135.6580 C   0  0  1  0  0  3  0  0  0  0  0  0
  189.0670  177.8830  140.5240 C   0  0  1  0  0  3  0  0  0  0  0  0
  192.7130  177.1220  139.8360 C   0  0  0  0  0  0  0  0  0  0  0  0
  193.2710  176.4780  138.6840 N   0  0  0  0  0  0  0  0  0  0  0  0
  195.3030  174.9270  136.9130 C   0  0  0  0  0  1  0  0  0  0  0  0
  188.4550  175.9280  139.2210 O   0  0  0  0  0  1  0  0  0  0  0  0
  191.4820  173.8180  135.1620 C   0  0  0  0  0  2  0  0  0  0  0  0
  189.0490  177.1910  139.1440 C   0  0  1  0  0  0  0  0  0  0  0  0
  191.2530  177.2910  139.9010 C   0  0  0  0  0  0  0  0  0  0  0  0
  192.5370  172.7090  135.2460 C   0  0  0  0  0  2  0  0  0  0  0  0
  193.4510  177.4590  140.7970 O   0  0  0  0  0  0  0  0  0  0  0  0
  192.8560  175.3040  136.5620 C   0  0  2  0  0  3  0  0  0  0  0  0
  193.9390  174.2580  136.8310 C   0  0  1  0  0  3  0  0  0  0  0  0
  192.5470  176.2870  137.6190 C   0  0  0  0  0  0  0  0  0  0  0  0
  190.5000  177.0140  138.8480 C   0  0  0  0  0  0  0  0  0  0  0  0
  191.1190  176.7430  137.4960 C   0  0  2  0  0  3  0  0  0  0  0  0
  194.8720  172.1940  135.8340 O   0  0  0  0  0  0  0  0  0  0  0  0
  194.2070  170.9640  135.6890 C   0  0  0  0  0  1  0  0  0  0  0  0
  187.9660  177.4480  141.4810 C   0  0  0  0  0  2  0  0  0  0  0  0
  189.8650  177.3690  143.0250 C   0  0  0  0  0  3  0  0  0  0  0  0
  190.4410  177.3940  144.3760 C   0  0  0  0  0  0  0  0  0  0  0  0
  187.5980  177.1150  144.0150 C   0  0  0  0  0  2  0  0  0  0  0  0
  187.3080  177.3300  146.4840 C   0  0  0  0  0  3  0  0  0  0  0  0
  188.3600  176.9940  147.5450 C   0  0  0  0  0  3  0  0  0  0  0  0
  189.5080  177.6760  145.5210 C   0  0  2  0  0  0  0  0  0  0  0  0
  188.5380  177.3170  142.8500 C   0  0  0  0  0  0  0  0  0  0  0  0
  190.0510  178.5130  146.5200 O   0  0  0  0  0  0  0  0  0  0  0  0
  191.6800  177.2530  144.5460 O   0  0  0  0  0  0  0  0  0  0  0  0
  189.7060  177.1960  146.8840 C   0  0  1  0  0  0  0  0  0  0  0  0
  190.7830  176.3340  147.1040 O   0  0  0  0  0  1  0  0  0  0  0  0
  188.0300  177.8950  145.2610 C   0  0  1  0  0  3  0  0  0  0  0  0
  186.8640  177.5960  137.8420 C   0  0  1  0  0  3  0  0  0  0  0  0
  185.9840  178.6500  138.1120 O   0  0  0  0  0  1  0  0  0  0  0  0
  186.7000  177.1070  136.4080 C   0  0  2  0  0  3  0  0  0  0  0  0
  186.3520  178.1670  135.5640 O   0  0  0  0  0  1  0  0  0  0  0  0
  185.6420  176.0200  136.3510 C   0  0  0  0  0  2  0  0  0  0  0  0
  184.5810  176.2500  137.4170 C   0  0  0  0  0  2  0  0  0  0  0  0
  183.4150  178.9090  134.9030 F   0  0  0  0  0  0  0  0  0  0  0  0
  181.4980  176.9000  138.4340 C   0  0  1  0  0  3  0  0  0  0  0  0
  183.3760  176.7910  136.7940 N   0  0  0  0  0  0  0  0  0  0  0  0
  181.4420  178.6990  138.1130 S   0  0  0  0  0  0  0  0  0  0  0  0
  182.1550  176.1370  137.2790 C   0  0  1  0  0  3  0  0  0  0  0  0
  180.2640  178.5380  136.7180 C   0  0  2  0  0  3  0  0  0  0  0  0
  182.7990  177.6970  134.5950 C   0  0  1  0  0  3  0  0  0  0  0  0
  183.4600  176.5550  135.3580 C   0  0  0  0  0  2  0  0  0  0  0  0
  180.9520  178.8510  135.3930 C   0  0  0  0  0  2  0  0  0  0  0  0
  181.3920  177.6650  134.7770 O   0  0  0  0  0  0  0  0  0  0  0  0
  178.9400  180.4080  137.9020 C   0  0  0  0  0  2  0  0  0  0  0  0
  178.9320  179.2990  136.8560 C   0  0  0  0  0  3  0  0  0  0  0  0
  179.0810  180.7530  136.4330 C   0  0  0  0  0  2  0  0  0  0  0  0
  182.1770  176.6110  139.7710 C   0  0  1  0  0  3  0  0  0  0  0  0
  181.2830  176.4110  140.9580 C   0  0  2  0  0  3  0  0  0  0  0  0
  181.7850  175.3320  140.2050 O   0  0  0  0  0  0  0  0  0  0  0  0
  179.8050  176.6030  140.7160 C   0  0  0  0  0  0  0  0  0  0  0  0
  179.0710  175.6560  140.4810 O   0  0  0  0  0  0  0  0  0  0  0  0
  179.2550  178.0000  140.7100 C   0  0  0  0  0  2  0  0  0  0  0  0
  179.1860  180.2650  141.8250 C   0  0  0  0  0  1  0  0  0  0  0  0
  179.6880  178.8390  141.9200 C   0  0  2  0  0  3  0  0  0  0  0  0
  181.1990  178.8280  142.1400 C   0  0  0  0  0  2  0  0  0  0  0  0
  181.5510  179.3330  143.5270 C   0  0  2  0  0  3  0  0  0  0  0  0
  182.9600  178.8940  143.8780 C   0  0  0  0  0  1  0  0  0  0  0  0
  180.6550  178.8060  144.4610 O   0  0  0  0  0  1  0  0  0  0  0  0
  182.3410  174.7780  137.5720 O   0  0  0  0  0  0  0  0  0  0  0  0
  181.6230  174.1410  136.6680 O   0  0  0  0  0  1  0  0  0  0  0  0
  1 12  1  0  0  0  0
  3 11  1  6  0  0  0
  3 16  1  0  0  0  0
  3  4  1  0  0  0  0
  5 21  1  1  0  0  0
  5 17  1  0  0  0  0
  6  2  1  0  0  0  0
  6 23  1  1  0  0  0
  7 13  1  0  0  0  0
  7 15  2  0  0  0  0
  8  7  1  0  0  0  0
 11 14  1  0  0  0  0
 12 10  1  1  0  0  0
 12  6  1  0  0  0  0
 13  2  1  0  0  0  0
 14  5  1  0  0  0  0
 16 17  1  0  0  0  0
 16 18  1  1  0  0  0
 17  9  1  6  0  0  0
 18  8  2  0  0  0  0
 19 12  1  0  0  0  0
 19 13  2  0  0  0  0
 20  4  1  1  0  0  0
 20 18  1  0  0  0  0
 20 19  1  0  0  0  0
 22 21  1  0  0  0  0
 23 30  1  0  0  0  0
 24 25  1  0  0  0  0
 25 32  2  0  0  0  0
 27 28  2  0  0  0  0
 29 25  1  6  0  0  0
 29 31  1  0  0  0  0
 29 33  1  0  0  0  0
 30 24  2  0  0  0  0
 30 26  1  0  0  0  0
 31 33  1  0  0  0  0
 33 34  1  1  0  0  0
 33 28  1  0  0  0  0
 35 26  1  6  0  0  0
 35 29  1  0  0  0  0
 35 27  1  0  0  0  0
 36  1  1  0  0  0  0
 36 37  1  6  0  0  0
 38 39  1  6  0  0  0
 38 36  1  0  0  0  0
 40 38  1  0  0  0  0
 40 41  1  0  0  0  0
 43 45  1  6  0  0  0
 43 55  1  0  0  0  0
 44 46  1  0  0  0  0
 44 41  1  0  0  0  0
 46 67  1  1  0  0  0
 46 43  1  0  0  0  0
 47 53  1  1  0  0  0
 47 45  1  0  0  0  0
 48 51  1  0  0  0  0
 48 42  1  1  0  0  0
 48 49  1  0  0  0  0
 49 44  1  0  0  0  0
 50 47  1  0  0  0  0
 51 50  1  0  0  0  0
 53 52  1  0  0  0  0
 54 53  1  0  0  0  0
 54 52  1  0  0  0  0
 55 57  1  6  0  0  0
 55 56  1  0  0  0  0
 56 58  1  6  0  0  0
 57 56  1  0  0  0  0
 59 58  2  0  0  0  0
 60 58  1  0  0  0  0
 60 62  1  0  0  0  0
 62 61  1  6  0  0  0
 62 63  1  0  0  0  0
 63 64  1  0  0  0  0
 64 65  1  1  0  0  0
 64 66  1  0  0  0  0
 68 67  1  0  0  0  0
M  END
>  <MODEL>
9

>  <REMARK>
 VINA RESULT:      -4.3      2.727     10.125
  Name = 
  17 active torsions:
  status: ('A' for Active; 'I' for Inactive)
    1  A    between atoms: C_4  and  O_15
    2  A    between atoms: C_5  and  C_31
    3  A    between atoms: C_6  and  C_47
    4  A    between atoms: C_8  and  C_13
    5  A    between atoms: C_8  and  C_26
    6  A    between atoms: C_12  and  C_21
    7  A    between atoms: C_12  and  C_36
    8  A    between atoms: C_13  and  C_37
    9  A    between atoms: C_18  and  C_34
   10  A    between atoms: C_21  and  C_22
   11  A    between atoms: C_22  and  C_31
   12  A    between atoms: N_24  and  C_45
   13  A    between atoms: C_26  and  C_32
   14  A    between atoms: C_30  and  O_39
   15  A    between atoms: C_37  and  C_45
   16  A    between atoms: C_40  and  C_50
   17  A    between atoms: C_47  and  C_49
                            x       y       z     vdW  Elec       q    Type
                         _______ _______ _______ _____ _____    ______ ____

>  <TORSDO>
F 17

$$$$
