=
 OpenBabel11062413523D

 25 27  0  0  1  0  0  0  0  0999 V2000
  189.7090  176.9810  139.8450 C   0  0  1  0  0  3  0  0  0  0  0  0
  190.0440  177.6900  146.1140 O   0  0  0  0  0  0  0  0  0  0  0  0
  191.5780  176.6510  144.5700 C   0  0  0  0  0  2  0  0  0  0  0  0
  189.6230  177.4500  141.3030 C   0  0  1  0  0  3  0  0  0  0  0  0
  189.1680  177.0470  144.1370 C   0  0  1  0  0  3  0  0  0  0  0  0
  188.9720  177.1410  145.5450 O   0  0  0  0  0  0  0  0  0  0  0  0
  188.2110  177.2270  141.8640 C   0  0  0  0  0  2  0  0  0  0  0  0
  190.7120  176.8310  142.2060 C   0  0  0  0  0  2  0  0  0  0  0  0
  190.8920  178.8540  143.6490 C   0  0  0  0  0  1  0  0  0  0  0  0
  191.0920  176.7460  146.0270 C   0  0  0  0  0  2  0  0  0  0  0  0
  188.0900  177.7270  143.3060 C   0  0  0  0  0  2  0  0  0  0  0  0
  190.5930  177.3550  143.6350 C   0  0  2  0  0  0  0  0  0  0  0  0
  187.3140  178.2050  137.0370 C   0  0  0  0  0  0  0  0  0  0  0  0
  186.3980  177.5860  136.1370 N   0  0  0  0  0  2  0  0  0  0  0  0
  188.0950  177.3500  137.9610 C   0  0  0  0  0  0  0  0  0  0  0  0
  187.9320  175.9610  137.8520 O   0  0  0  0  0  0  0  0  0  0  0  0
  188.9120  177.8520  138.9110 C   0  0  0  0  0  0  0  0  0  0  0  0
  186.3450  176.1650  136.0170 C   0  0  0  0  0  0  0  0  0  0  0  0
  186.8360  173.9620  137.0960 C   0  0  0  0  0  1  0  0  0  0  0  0
  187.3880  175.3180  136.6970 C   0  0  2  0  0  3  0  0  0  0  0  0
  187.4180  179.4610  137.0420 O   0  0  0  0  0  0  0  0  0  0  0  0
  189.0690  179.2260  139.0540 O   0  0  0  0  0  1  0  0  0  0  0  0
  185.4870  175.6380  135.2580 O   0  0  0  0  0  0  0  0  0  0  0  0
  191.1450  175.4480  138.6820 O   0  0  0  0  0  1  0  0  0  0  0  0
  191.1200  176.6790  139.3360 C   0  0  0  0  0  2  0  0  0  0  0  0
  1 25  1  6  0  0  0
  3 10  1  0  0  0  0
  4  1  1  6  0  0  0
  4  7  1  0  0  0  0
  4  8  1  0  0  0  0
  5 11  1  6  0  0  0
  5  6  1  0  0  0  0
  6  2  1  0  0  0  0
  7 11  1  0  0  0  0
  8 12  1  0  0  0  0
 10  2  1  0  0  0  0
 12  9  1  1  0  0  0
 12  5  1  0  0  0  0
 12  3  1  0  0  0  0
 13 21  2  0  0  0  0
 13 15  1  0  0  0  0
 14 13  1  0  0  0  0
 15 17  2  0  0  0  0
 16 15  1  0  0  0  0
 17 22  1  0  0  0  0
 17  1  1  0  0  0  0
 18 14  1  0  0  0  0
 18 20  1  0  0  0  0
 20 19  1  1  0  0  0
 20 16  1  0  0  0  0
 23 18  2  0  0  0  0
 24 25  1  0  0  0  0
M  END
>  <MODEL>
1

>  <REMARK>
 VINA RESULT:      -7.6      0.000      0.000
  Name = 
  3 active torsions:
  status: ('A' for Active; 'I' for Inactive)
    1  A    between atoms: C_4  and  C_18
    2  A    between atoms: C_10  and  C_18
    3  A    between atoms: C_15  and  C_18
                            x       y       z     vdW  Elec       q    Type
                         _______ _______ _______ _____ _____    ______ ____

>  <TORSDO>
F 3

$$$$
=
 OpenBabel11062413523D

 25 27  0  0  1  0  0  0  0  0999 V2000
  189.8150  177.5220  139.0070 C   0  0  1  0  0  3  0  0  0  0  0  0
  190.5610  177.1460  145.2690 O   0  0  0  0  0  0  0  0  0  0  0  0
  188.6620  177.8430  143.9560 C   0  0  0  0  0  2  0  0  0  0  0  0
  190.1970  177.1590  140.4470 C   0  0  1  0  0  3  0  0  0  0  0  0
  191.0100  177.7960  143.1560 C   0  0  1  0  0  3  0  0  0  0  0  0
  191.4320  177.8180  144.5160 O   0  0  0  0  0  0  0  0  0  0  0  0
  191.6240  177.6300  140.7670 C   0  0  0  0  0  2  0  0  0  0  0  0
  189.1740  177.6570  141.4910 C   0  0  0  0  0  2  0  0  0  0  0  0
  189.5440  175.7200  143.0150 C   0  0  0  0  0  1  0  0  0  0  0  0
  189.3750  177.9120  145.3190 C   0  0  0  0  0  2  0  0  0  0  0  0
  192.0430  177.2410  142.1870 C   0  0  0  0  0  2  0  0  0  0  0  0
  189.5920  177.2440  142.9010 C   0  0  2  0  0  0  0  0  0  0  0  0
  189.9460  174.2830  136.8600 C   0  0  0  0  0  0  0  0  0  0  0  0
  190.9670  173.3840  136.4320 N   0  0  0  0  0  2  0  0  0  0  0  0
  190.3280  175.4670  137.6650 C   0  0  0  0  0  0  0  0  0  0  0  0
  191.6940  175.6690  137.9100 O   0  0  0  0  0  0  0  0  0  0  0  0
  189.4230  176.3170  138.1930 C   0  0  0  0  0  0  0  0  0  0  0  0
  192.3440  173.6950  136.6410 C   0  0  0  0  0  0  0  0  0  0  0  0
  194.0050  175.0150  137.9680 C   0  0  0  0  0  1  0  0  0  0  0  0
  192.7340  175.0620  137.1400 C   0  0  2  0  0  3  0  0  0  0  0  0
  188.7460  174.0370  136.5640 O   0  0  0  0  0  0  0  0  0  0  0  0
  188.0630  176.1210  137.9840 O   0  0  0  0  0  1  0  0  0  0  0  0
  193.2260  172.8590  136.3090 O   0  0  0  0  0  0  0  0  0  0  0  0
  189.1160  179.4120  137.7010 O   0  0  0  0  0  1  0  0  0  0  0  0
  188.8400  178.6920  138.8630 C   0  0  0  0  0  2  0  0  0  0  0  0
  1 25  1  1  0  0  0
  2 10  1  0  0  0  0
  3 10  1  0  0  0  0
  4  1  1  6  0  0  0
  4  7  1  0  0  0  0
  4  8  1  0  0  0  0
  5 11  1  6  0  0  0
  5  6  1  0  0  0  0
  6  2  1  0  0  0  0
  7 11  1  0  0  0  0
  8 12  1  0  0  0  0
 12  9  1  1  0  0  0
 12  5  1  0  0  0  0
 12  3  1  0  0  0  0
 13 15  1  0  0  0  0
 14 18  1  0  0  0  0
 14 13  1  0  0  0  0
 15 16  1  0  0  0  0
 15 17  2  0  0  0  0
 17  1  1  0  0  0  0
 18 20  1  0  0  0  0
 20 16  1  0  0  0  0
 20 19  1  1  0  0  0
 21 13  2  0  0  0  0
 22 17  1  0  0  0  0
 23 18  2  0  0  0  0
 24 25  1  0  0  0  0
M  END
>  <MODEL>
2

>  <REMARK>
 VINA RESULT:      -6.8      2.383      4.157
  Name = 
  3 active torsions:
  status: ('A' for Active; 'I' for Inactive)
    1  A    between atoms: C_4  and  C_18
    2  A    between atoms: C_10  and  C_18
    3  A    between atoms: C_15  and  C_18
                            x       y       z     vdW  Elec       q    Type
                         _______ _______ _______ _____ _____    ______ ____

>  <TORSDO>
F 3

$$$$
=
 OpenBabel11062413523D

 25 27  0  0  1  0  0  0  0  0999 V2000
  186.4780  177.6680  143.2120 C   0  0  1  0  0  3  0  0  0  0  0  0
  191.5560  177.0270  146.9170 O   0  0  0  0  0  0  0  0  0  0  0  0
  191.1860  176.3480  144.6330 C   0  0  0  0  0  2  0  0  0  0  0  0
  187.6050  177.8160  144.2420 C   0  0  1  0  0  3  0  0  0  0  0  0
  189.3990  176.8170  146.2880 C   0  0  1  0  0  3  0  0  0  0  0  0
  190.3570  176.6070  147.3210 O   0  0  0  0  0  0  0  0  0  0  0  0
  187.1020  177.4720  145.6530 C   0  0  0  0  0  2  0  0  0  0  0  0
  188.8770  177.0240  143.8710 C   0  0  0  0  0  2  0  0  0  0  0  0
  190.4130  178.6930  144.9000 C   0  0  0  0  0  1  0  0  0  0  0  0
  191.9990  176.1280  145.9210 C   0  0  0  0  0  2  0  0  0  0  0  0
  188.1990  177.6530  146.7050 C   0  0  0  0  0  2  0  0  0  0  0  0
  189.9700  177.2300  144.9160 C   0  0  2  0  0  0  0  0  0  0  0  0
  182.8870  179.1590  143.2420 C   0  0  0  0  0  0  0  0  0  0  0  0
  181.7250  179.0340  142.4260 N   0  0  0  0  0  2  0  0  0  0  0  0
  184.1150  178.4270  142.8530 C   0  0  0  0  0  0  0  0  0  0  0  0
  184.0800  177.6940  141.6580 O   0  0  0  0  0  0  0  0  0  0  0  0
  185.2300  178.4090  143.6130 C   0  0  0  0  0  0  0  0  0  0  0  0
  181.7830  178.3440  141.1790 C   0  0  0  0  0  0  0  0  0  0  0  0
  182.9920  176.6530  139.7860 C   0  0  0  0  0  1  0  0  0  0  0  0
  183.1160  177.9120  140.6250 C   0  0  2  0  0  3  0  0  0  0  0  0
  182.8350  179.8670  144.2830 O   0  0  0  0  0  0  0  0  0  0  0  0
  185.2780  179.1070  144.8140 O   0  0  0  0  0  1  0  0  0  0  0  0
  180.7300  178.1940  140.5030 O   0  0  0  0  0  0  0  0  0  0  0  0
  187.2550  179.2420  141.5730 O   0  0  0  0  0  1  0  0  0  0  0  0
  186.8860  177.9100  141.7580 C   0  0  0  0  0  2  0  0  0  0  0  0
  1 25  1  6  0  0  0
  1 17  1  0  0  0  0
  2  6  1  0  0  0  0
  3 12  1  0  0  0  0
  3 10  1  0  0  0  0
  4  1  1  6  0  0  0
  4  7  1  0  0  0  0
  5 11  1  1  0  0  0
  5  6  1  0  0  0  0
  7 11  1  0  0  0  0
  8  4  1  0  0  0  0
  8 12  1  0  0  0  0
 10  2  1  0  0  0  0
 12  9  1  1  0  0  0
 12  5  1  0  0  0  0
 13 21  2  0  0  0  0
 14 13  1  0  0  0  0
 15 13  1  0  0  0  0
 15 17  2  0  0  0  0
 16 15  1  0  0  0  0
 17 22  1  0  0  0  0
 18 14  1  0  0  0  0
 20 19  1  1  0  0  0
 20 18  1  0  0  0  0
 20 16  1  0  0  0  0
 23 18  2  0  0  0  0
 24 25  1  0  0  0  0
M  END
>  <MODEL>
3

>  <REMARK>
 VINA RESULT:      -6.8      4.060      5.223
  Name = 
  3 active torsions:
  status: ('A' for Active; 'I' for Inactive)
    1  A    between atoms: C_4  and  C_18
    2  A    between atoms: C_10  and  C_18
    3  A    between atoms: C_15  and  C_18
                            x       y       z     vdW  Elec       q    Type
                         _______ _______ _______ _____ _____    ______ ____

>  <TORSDO>
F 3

$$$$
=
 OpenBabel11062413523D

 25 27  0  0  1  0  0  0  0  0999 V2000
  190.1590  176.6400  139.0010 C   0  0  1  0  0  3  0  0  0  0  0  0
  189.6960  177.5240  145.2400 O   0  0  0  0  0  0  0  0  0  0  0  0
  187.9860  177.3740  143.5470 C   0  0  0  0  0  2  0  0  0  0  0  0
  190.3270  176.6500  140.5260 C   0  0  1  0  0  3  0  0  0  0  0  0
  190.3650  177.9340  143.1240 C   0  0  1  0  0  3  0  0  0  0  0  0
  190.4790  178.3040  144.4950 O   0  0  0  0  0  0  0  0  0  0  0  0
  191.4720  177.5870  140.9410 C   0  0  0  0  0  2  0  0  0  0  0  0
  189.0170  176.9640  141.2800 C   0  0  0  0  0  2  0  0  0  0  0  0
  189.5950  175.5100  143.2190 C   0  0  0  0  0  1  0  0  0  0  0  0
  188.3590  177.8780  144.9520 C   0  0  0  0  0  2  0  0  0  0  0  0
  191.6850  177.5820  142.4570 C   0  0  0  0  0  2  0  0  0  0  0  0
  189.2390  176.9340  142.7900 C   0  0  2  0  0  0  0  0  0  0  0  0
  186.7650  177.7480  137.4620 C   0  0  0  0  0  0  0  0  0  0  0  0
  185.6350  177.0840  136.9010 N   0  0  0  0  0  2  0  0  0  0  0  0
  187.9170  176.9360  137.9160 C   0  0  0  0  0  0  0  0  0  0  0  0
  187.8540  175.5500  137.7090 O   0  0  0  0  0  0  0  0  0  0  0  0
  188.9860  177.4670  138.5450 C   0  0  0  0  0  0  0  0  0  0  0  0
  185.6710  175.6820  136.6390 C   0  0  0  0  0  0  0  0  0  0  0  0
  186.7410  173.4870  137.1830 C   0  0  0  0  0  1  0  0  0  0  0  0
  186.9700  174.9300  136.7730 C   0  0  2  0  0  3  0  0  0  0  0  0
  186.7460  179.0030  137.5790 O   0  0  0  0  0  0  0  0  0  0  0  0
  189.0580  178.8350  138.7830 O   0  0  0  0  0  1  0  0  0  0  0  0
  184.6400  175.1060  136.1990 O   0  0  0  0  0  0  0  0  0  0  0  0
  192.1170  175.7100  137.9680 O   0  0  0  0  0  1  0  0  0  0  0  0
  191.4350  176.9040  138.2000 C   0  0  0  0  0  2  0  0  0  0  0  0
  1 25  1  6  0  0  0
  3 10  1  0  0  0  0
  4  1  1  6  0  0  0
  4  7  1  0  0  0  0
  4  8  1  0  0  0  0
  5 11  1  1  0  0  0
  5  6  1  0  0  0  0
  6  2  1  0  0  0  0
  7 11  1  0  0  0  0
  8 12  1  0  0  0  0
 10  2  1  0  0  0  0
 12  5  1  0  0  0  0
 12  9  1  1  0  0  0
 12  3  1  0  0  0  0
 13 21  2  0  0  0  0
 13 15  1  0  0  0  0
 14 13  1  0  0  0  0
 15 17  2  0  0  0  0
 16 15  1  0  0  0  0
 17 22  1  0  0  0  0
 17  1  1  0  0  0  0
 18 20  1  0  0  0  0
 18 14  1  0  0  0  0
 20 19  1  1  0  0  0
 20 16  1  0  0  0  0
 23 18  2  0  0  0  0
 24 25  1  0  0  0  0
M  END
>  <MODEL>
4

>  <REMARK>
 VINA RESULT:      -6.5      1.185      1.911
  Name = 
  3 active torsions:
  status: ('A' for Active; 'I' for Inactive)
    1  A    between atoms: C_4  and  C_18
    2  A    between atoms: C_10  and  C_18
    3  A    between atoms: C_15  and  C_18
                            x       y       z     vdW  Elec       q    Type
                         _______ _______ _______ _____ _____    ______ ____

>  <TORSDO>
F 3

$$$$
=
 OpenBabel11062413523D

 25 27  0  0  1  0  0  0  0  0999 V2000
  188.9830  177.6210  142.0360 C   0  0  1  0  0  3  0  0  0  0  0  0
  192.1470  176.1240  136.7770 O   0  0  0  0  0  0  0  0  0  0  0  0
  190.0140  175.3540  137.5950 C   0  0  0  0  0  2  0  0  0  0  0  0
  189.8570  177.5880  140.7760 C   0  0  1  0  0  3  0  0  0  0  0  0
  191.7920  176.3750  138.9910 C   0  0  1  0  0  3  0  0  0  0  0  0
  192.7290  176.0360  137.9730 O   0  0  0  0  0  0  0  0  0  0  0  0
  191.3450  177.4970  141.1480 C   0  0  0  0  0  2  0  0  0  0  0  0
  189.4410  176.4870  139.7760 C   0  0  0  0  0  2  0  0  0  0  0  0
  190.0910  177.8300  137.7810 C   0  0  0  0  0  1  0  0  0  0  0  0
  191.2200  175.0620  136.6850 C   0  0  0  0  0  2  0  0  0  0  0  0
  192.2400  177.5040  139.9060 C   0  0  0  0  0  2  0  0  0  0  0  0
  190.3260  176.5200  138.5330 C   0  0  2  0  0  0  0  0  0  0  0  0
  185.3800  179.0030  142.5130 C   0  0  0  0  0  0  0  0  0  0  0  0
  184.5130  179.2270  143.6220 N   0  0  0  0  0  2  0  0  0  0  0  0
  186.7110  178.4000  142.7580 C   0  0  0  0  0  0  0  0  0  0  0  0
  187.0190  178.0230  144.0730 O   0  0  0  0  0  0  0  0  0  0  0  0
  187.6330  178.2390  141.7860 C   0  0  0  0  0  0  0  0  0  0  0  0
  184.8530  178.7420  144.9200 C   0  0  0  0  0  0  0  0  0  0  0  0
  186.6810  177.9870  146.4520 C   0  0  0  0  0  1  0  0  0  0  0  0
  186.0340  177.8230  145.0890 C   0  0  2  0  0  3  0  0  0  0  0  0
  185.0050  179.3450  141.3600 O   0  0  0  0  0  0  0  0  0  0  0  0
  187.3590  178.6290  140.4800 O   0  0  0  0  0  1  0  0  0  0  0  0
  184.1000  179.0040  145.8970 O   0  0  0  0  0  0  0  0  0  0  0  0
  189.7510  176.3610  143.9310 O   0  0  0  0  0  1  0  0  0  0  0  0
  188.9120  176.3080  142.8180 C   0  0  0  0  0  2  0  0  0  0  0  0
  1 25  1  6  0  0  0
  2  6  1  0  0  0  0
  3 12  1  0  0  0  0
  4  7  1  0  0  0  0
  4  1  1  1  0  0  0
  5 11  1  6  0  0  0
  6  5  1  0  0  0  0
  8  4  1  0  0  0  0
 10  2  1  0  0  0  0
 10  3  1  0  0  0  0
 11  7  1  0  0  0  0
 12  9  1  6  0  0  0
 12  5  1  0  0  0  0
 12  8  1  0  0  0  0
 13 15  1  0  0  0  0
 13 14  1  0  0  0  0
 14 18  1  0  0  0  0
 15 16  1  0  0  0  0
 16 20  1  0  0  0  0
 17  1  1  0  0  0  0
 17 15  2  0  0  0  0
 18 20  1  0  0  0  0
 18 23  2  0  0  0  0
 20 19  1  1  0  0  0
 21 13  2  0  0  0  0
 22 17  1  0  0  0  0
 25 24  1  0  0  0  0
M  END
>  <MODEL>
5

>  <REMARK>
 VINA RESULT:      -6.5      3.141      6.663
  Name = 
  3 active torsions:
  status: ('A' for Active; 'I' for Inactive)
    1  A    between atoms: C_4  and  C_18
    2  A    between atoms: C_10  and  C_18
    3  A    between atoms: C_15  and  C_18
                            x       y       z     vdW  Elec       q    Type
                         _______ _______ _______ _____ _____    ______ ____

>  <TORSDO>
F 3

$$$$
=
 OpenBabel11062413523D

 25 27  0  0  1  0  0  0  0  0999 V2000
  185.2450  178.2670  144.2410 C   0  0  1  0  0  3  0  0  0  0  0  0
  181.4740  179.1140  139.2440 O   0  0  0  0  0  0  0  0  0  0  0  0
  183.8390  179.5070  139.5080 C   0  0  0  0  0  2  0  0  0  0  0  0
  184.1650  178.1950  143.1550 C   0  0  1  0  0  3  0  0  0  0  0  0
  182.2020  179.3560  141.3650 C   0  0  1  0  0  3  0  0  0  0  0  0
  181.1710  179.6470  140.4270 O   0  0  0  0  0  0  0  0  0  0  0  0
  182.8300  178.7480  143.6780 C   0  0  0  0  0  2  0  0  0  0  0  0
  184.5900  178.8630  141.8290 C   0  0  0  0  0  2  0  0  0  0  0  0
  183.2990  177.2620  140.4230 C   0  0  0  0  0  1  0  0  0  0  0  0
  182.5610  179.8500  138.7210 C   0  0  0  0  0  2  0  0  0  0  0  0
  181.7240  178.6470  142.6230 C   0  0  0  0  0  2  0  0  0  0  0  0
  183.4880  178.7370  140.7800 C   0  0  2  0  0  0  0  0  0  0  0  0
  188.9970  177.2650  144.0370 C   0  0  0  0  0  0  0  0  0  0  0  0
  190.0130  176.9230  144.9760 N   0  0  0  0  0  2  0  0  0  0  0  0
  187.6540  177.6380  144.5410 C   0  0  0  0  0  0  0  0  0  0  0  0
  187.4780  177.6930  145.9310 O   0  0  0  0  0  0  0  0  0  0  0  0
  186.6070  177.8830  143.7260 C   0  0  0  0  0  0  0  0  0  0  0  0
  189.7920  177.0840  146.3770 C   0  0  0  0  0  0  0  0  0  0  0  0
  188.1040  177.2760  148.2130 C   0  0  0  0  0  1  0  0  0  0  0  0
  188.5580  177.7970  146.8620 C   0  0  2  0  0  3  0  0  0  0  0  0
  189.2570  177.2190  142.8050 O   0  0  0  0  0  0  0  0  0  0  0  0
  186.7530  177.8090  142.3460 O   0  0  0  0  0  1  0  0  0  0  0  0
  190.6830  176.7190  147.1910 O   0  0  0  0  0  0  0  0  0  0  0  0
  184.9260  179.2700  146.4000 O   0  0  0  0  0  1  0  0  0  0  0  0
  185.2520  179.5510  145.0730 C   0  0  0  0  0  2  0  0  0  0  0  0
  1 25  1  6  0  0  0
  2  6  1  0  0  0  0
  3 12  1  0  0  0  0
  4  7  1  0  0  0  0
  4  1  1  1  0  0  0
  5 11  1  1  0  0  0
  6  5  1  0  0  0  0
  8  4  1  0  0  0  0
 10  2  1  0  0  0  0
 10  3  1  0  0  0  0
 11  7  1  0  0  0  0
 12  9  1  6  0  0  0
 12  5  1  0  0  0  0
 12  8  1  0  0  0  0
 13 15  1  0  0  0  0
 13 14  1  0  0  0  0
 14 18  1  0  0  0  0
 15 16  1  0  0  0  0
 16 20  1  0  0  0  0
 17  1  1  0  0  0  0
 17 15  2  0  0  0  0
 18 20  1  0  0  0  0
 18 23  2  0  0  0  0
 20 19  1  1  0  0  0
 21 13  2  0  0  0  0
 22 17  1  0  0  0  0
 25 24  1  0  0  0  0
M  END
>  <MODEL>
6

>  <REMARK>
 VINA RESULT:      -6.5      4.593      8.722
  Name = 
  3 active torsions:
  status: ('A' for Active; 'I' for Inactive)
    1  A    between atoms: C_4  and  C_18
    2  A    between atoms: C_10  and  C_18
    3  A    between atoms: C_15  and  C_18
                            x       y       z     vdW  Elec       q    Type
                         _______ _______ _______ _____ _____    ______ ____

>  <TORSDO>
F 3

$$$$
=
 OpenBabel11062413523D

 25 27  0  0  1  0  0  0  0  0999 V2000
  185.9980  178.3100  142.3060 C   0  0  1  0  0  3  0  0  0  0  0  0
  192.0410  176.6640  143.1290 O   0  0  0  0  0  0  0  0  0  0  0  0
  190.9560  177.7700  141.2820 C   0  0  0  0  0  2  0  0  0  0  0  0
  187.3980  177.9800  142.8390 C   0  0  1  0  0  3  0  0  0  0  0  0
  189.8080  176.3770  142.9830 C   0  0  1  0  0  3  0  0  0  0  0  0
  191.0640  175.7700  143.2740 O   0  0  0  0  0  0  0  0  0  0  0  0
  187.4080  176.6060  143.5270 C   0  0  0  0  0  2  0  0  0  0  0  0
  188.5010  178.1000  141.7660 C   0  0  0  0  0  2  0  0  0  0  0  0
  190.2280  178.8530  143.3960 C   0  0  0  0  0  1  0  0  0  0  0  0
  192.1600  176.9320  141.7470 C   0  0  0  0  0  2  0  0  0  0  0  0
  188.7860  176.2720  144.1040 C   0  0  0  0  0  2  0  0  0  0  0  0
  189.8720  177.7860  142.3600 C   0  0  2  0  0  0  0  0  0  0  0  0
  182.7060  178.9020  144.2890 C   0  0  0  0  0  0  0  0  0  0  0  0
  181.3130  178.8110  144.0020 N   0  0  0  0  0  2  0  0  0  0  0  0
  183.6780  178.6220  143.2060 C   0  0  0  0  0  0  0  0  0  0  0  0
  183.1640  178.3410  141.9330 O   0  0  0  0  0  0  0  0  0  0  0  0
  185.0120  178.5900  143.4090 C   0  0  0  0  0  0  0  0  0  0  0  0
  180.8580  178.6060  142.6650 C   0  0  0  0  0  0  0  0  0  0  0  0
  181.4250  177.7770  140.3740 C   0  0  0  0  0  1  0  0  0  0  0  0
  181.8370  178.6780  141.5230 C   0  0  2  0  0  3  0  0  0  0  0  0
  183.0760  179.1940  145.4580 O   0  0  0  0  0  0  0  0  0  0  0  0
  185.5420  178.8410  144.6700 O   0  0  0  0  0  1  0  0  0  0  0  0
  179.6240  178.4690  142.4440 O   0  0  0  0  0  0  0  0  0  0  0  0
  185.7270  178.7130  139.9540 O   0  0  0  0  0  1  0  0  0  0  0  0
  185.9540  179.3420  141.1780 C   0  0  0  0  0  2  0  0  0  0  0  0
  1 25  1  6  0  0  0
  1 17  1  0  0  0  0
  2  6  1  0  0  0  0
  3 10  1  0  0  0  0
  3 12  1  0  0  0  0
  4  1  1  6  0  0  0
  4  7  1  0  0  0  0
  5  6  1  0  0  0  0
  5 11  1  1  0  0  0
  7 11  1  0  0  0  0
  8 12  1  0  0  0  0
  8  4  1  0  0  0  0
 10  2  1  0  0  0  0
 12  5  1  0  0  0  0
 12  9  1  1  0  0  0
 13 21  2  0  0  0  0
 14 13  1  0  0  0  0
 15 17  2  0  0  0  0
 15 13  1  0  0  0  0
 16 15  1  0  0  0  0
 17 22  1  0  0  0  0
 18 14  1  0  0  0  0
 20 19  1  6  0  0  0
 20 16  1  0  0  0  0
 20 18  1  0  0  0  0
 23 18  2  0  0  0  0
 24 25  1  0  0  0  0
M  END
>  <MODEL>
7

>  <REMARK>
 VINA RESULT:      -6.4      4.675      6.018
  Name = 
  3 active torsions:
  status: ('A' for Active; 'I' for Inactive)
    1  A    between atoms: C_4  and  C_18
    2  A    between atoms: C_10  and  C_18
    3  A    between atoms: C_15  and  C_18
                            x       y       z     vdW  Elec       q    Type
                         _______ _______ _______ _____ _____    ______ ____

>  <TORSDO>
F 3

$$$$
=
 OpenBabel11062413523D

 25 27  0  0  1  0  0  0  0  0999 V2000
  190.0560  177.0580  142.7760 C   0  0  1  0  0  3  0  0  0  0  0  0
  189.9810  177.3220  136.4650 O   0  0  0  0  0  0  0  0  0  0  0  0
  188.3780  176.4040  138.0140 C   0  0  0  0  0  2  0  0  0  0  0  0
  190.2050  177.4220  141.2940 C   0  0  1  0  0  3  0  0  0  0  0  0
  190.7720  176.8170  138.5160 C   0  0  1  0  0  3  0  0  0  0  0  0
  191.0250  176.8090  137.1140 O   0  0  0  0  0  0  0  0  0  0  0  0
  191.6370  177.1520  140.8080 C   0  0  0  0  0  2  0  0  0  0  0  0
  189.1490  176.7460  140.3930 C   0  0  0  0  0  2  0  0  0  0  0  0
  189.0440  178.6630  138.8040 C   0  0  0  0  0  1  0  0  0  0  0  0
  188.9230  176.3930  136.5750 C   0  0  0  0  0  2  0  0  0  0  0  0
  191.8210  177.5480  139.3400 C   0  0  0  0  0  2  0  0  0  0  0  0
  189.3290  177.1670  138.9360 C   0  0  2  0  0  0  0  0  0  0  0  0
  187.1790  177.9510  145.2340 C   0  0  0  0  0  0  0  0  0  0  0  0
  187.0470  178.0690  146.6490 N   0  0  0  0  0  2  0  0  0  0  0  0
  188.4850  177.5330  144.6720 C   0  0  0  0  0  0  0  0  0  0  0  0
  189.5080  177.2170  145.5770 O   0  0  0  0  0  0  0  0  0  0  0  0
  188.7300  177.4870  143.3460 C   0  0  0  0  0  0  0  0  0  0  0  0
  188.1000  177.6480  147.5150 C   0  0  0  0  0  0  0  0  0  0  0  0
  190.5430  177.1620  147.7440 C   0  0  0  0  0  1  0  0  0  0  0  0
  189.2770  176.8970  146.9510 C   0  0  2  0  0  3  0  0  0  0  0  0
  186.1940  178.2260  144.4990 O   0  0  0  0  0  0  0  0  0  0  0  0
  187.7380  177.8220  142.4310 O   0  0  0  0  0  1  0  0  0  0  0  0
  187.9850  177.8180  148.7590 O   0  0  0  0  0  0  0  0  0  0  0  0
  191.6470  175.5960  143.8240 O   0  0  0  0  0  1  0  0  0  0  0  0
  190.4340  175.6200  143.1380 C   0  0  0  0  0  2  0  0  0  0  0  0
  1 25  1  6  0  0  0
  1 17  1  0  0  0  0
  2 10  1  0  0  0  0
  2  6  1  0  0  0  0
  3 12  1  0  0  0  0
  4  1  1  1  0  0  0
  5 12  1  0  0  0  0
  5 11  1  1  0  0  0
  6  5  1  0  0  0  0
  7  4  1  0  0  0  0
  8  4  1  0  0  0  0
 10  3  1  0  0  0  0
 11  7  1  0  0  0  0
 12  9  1  6  0  0  0
 12  8  1  0  0  0  0
 13 14  1  0  0  0  0
 14 18  1  0  0  0  0
 15 13  1  0  0  0  0
 15 16  1  0  0  0  0
 16 20  1  0  0  0  0
 17 15  2  0  0  0  0
 18 23  2  0  0  0  0
 20 18  1  0  0  0  0
 20 19  1  1  0  0  0
 21 13  2  0  0  0  0
 22 17  1  0  0  0  0
 25 24  1  0  0  0  0
M  END
>  <MODEL>
8

>  <REMARK>
 VINA RESULT:      -6.3      2.957      7.646
  Name = 
  3 active torsions:
  status: ('A' for Active; 'I' for Inactive)
    1  A    between atoms: C_4  and  C_18
    2  A    between atoms: C_10  and  C_18
    3  A    between atoms: C_15  and  C_18
                            x       y       z     vdW  Elec       q    Type
                         _______ _______ _______ _____ _____    ______ ____

>  <TORSDO>
F 3

$$$$
=
 OpenBabel11062413523D

 25 27  0  0  1  0  0  0  0  0999 V2000
  189.4120  177.7910  140.7070 C   0  0  1  0  0  3  0  0  0  0  0  0
  188.5810  176.4300  134.5930 O   0  0  0  0  0  0  0  0  0  0  0  0
  189.6350  175.1610  136.3520 C   0  0  0  0  0  2  0  0  0  0  0  0
  188.9150  177.6390  139.2630 C   0  0  1  0  0  3  0  0  0  0  0  0
  189.2680  177.6140  136.3860 C   0  0  1  0  0  3  0  0  0  0  0  0
  189.1500  177.5760  134.9670 O   0  0  0  0  0  0  0  0  0  0  0  0
  189.1400  178.9370  138.4710 C   0  0  0  0  0  2  0  0  0  0  0  0
  189.5080  176.4090  138.5430 C   0  0  0  0  0  2  0  0  0  0  0  0
  187.4560  176.0160  137.1840 C   0  0  0  0  0  1  0  0  0  0  0  0
  189.5170  175.4000  134.8370 C   0  0  0  0  0  2  0  0  0  0  0  0
  188.6140  178.8230  137.0380 C   0  0  0  0  0  2  0  0  0  0  0  0
  188.9580  176.2950  137.1230 C   0  0  2  0  0  0  0  0  0  0  0  0
  187.3490  177.7460  144.0020 C   0  0  0  0  0  0  0  0  0  0  0  0
  187.6490  177.6360  145.3920 N   0  0  0  0  0  2  0  0  0  0  0  0
  188.4590  177.6770  143.0240 C   0  0  0  0  0  0  0  0  0  0  0  0
  189.7480  177.4440  143.5230 O   0  0  0  0  0  0  0  0  0  0  0  0
  188.2820  177.8670  141.7000 C   0  0  0  0  0  0  0  0  0  0  0  0
  188.9700  177.3130  145.8260 C   0  0  0  0  0  0  0  0  0  0  0  0
  191.4050  177.2900  145.2560 C   0  0  0  0  0  1  0  0  0  0  0  0
  190.0070  176.8950  144.8180 C   0  0  2  0  0  3  0  0  0  0  0  0
  186.1540  177.9230  143.6440 O   0  0  0  0  0  0  0  0  0  0  0  0
  187.0160  178.1250  141.1850 O   0  0  0  0  0  1  0  0  0  0  0  0
  189.2250  177.2800  147.0600 O   0  0  0  0  0  0  0  0  0  0  0  0
  191.7670  177.4360  141.0090 O   0  0  0  0  0  1  0  0  0  0  0  0
  190.5200  176.8230  141.1230 C   0  0  0  0  0  2  0  0  0  0  0  0
  1 25  1  1  0  0  0
  1 17  1  0  0  0  0
  2 10  1  0  0  0  0
  2  6  1  0  0  0  0
  3 12  1  0  0  0  0
  4  1  1  1  0  0  0
  5 11  1  1  0  0  0
  5 12  1  0  0  0  0
  6  5  1  0  0  0  0
  7  4  1  0  0  0  0
  8  4  1  0  0  0  0
 10  3  1  0  0  0  0
 11  7  1  0  0  0  0
 12  9  1  1  0  0  0
 12  8  1  0  0  0  0
 13 14  1  0  0  0  0
 14 18  1  0  0  0  0
 15 16  1  0  0  0  0
 15 13  1  0  0  0  0
 16 20  1  0  0  0  0
 17 15  2  0  0  0  0
 18 23  2  0  0  0  0
 20 19  1  1  0  0  0
 20 18  1  0  0  0  0
 21 13  2  0  0  0  0
 22 17  1  0  0  0  0
 24 25  1  0  0  0  0
M  END
>  <MODEL>
9

>  <REMARK>
 VINA RESULT:      -6.2      2.696      7.510
  Name = 
  3 active torsions:
  status: ('A' for Active; 'I' for Inactive)
    1  A    between atoms: C_4  and  C_18
    2  A    between atoms: C_10  and  C_18
    3  A    between atoms: C_15  and  C_18
                            x       y       z     vdW  Elec       q    Type
                         _______ _______ _______ _____ _____    ______ ____

>  <TORSDO>
F 3

$$$$
