=
 OpenBabel11062417353D

 47 53  0  0  1  0  0  0  0  0999 V2000
  181.4180  177.0960  139.0490 C   0  0  0  0  0  2  0  0  0  0  0  0
  188.7700  178.3490  148.2530 C   0  0  0  0  0  2  0  0  0  0  0  0
  185.9360  177.9960  145.0870 C   0  0  1  0  0  3  0  0  0  0  0  0
  183.3760  176.8070  137.5380 C   0  0  0  0  0  0  0  0  0  0  0  0
  187.1580  178.2550  145.9570 C   0  0  1  0  0  3  0  0  0  0  0  0
  184.8800  178.7010  145.8640 C   0  0  0  0  0  0  0  0  0  0  0  0
  179.3550  177.1790  137.9130 O   0  0  0  0  0  0  0  0  0  0  0  0
  188.7790  176.9910  147.5360 C   0  0  0  0  0  2  0  0  0  0  0  0
  183.7170  178.2800  139.4960 C   0  0  1  0  0  0  0  0  0  0  0  0
  183.1220  175.4730  135.3960 C   0  0  0  0  0  1  0  0  0  0  0  0
  183.2930  178.4060  140.9540 C   0  0  0  0  0  2  0  0  0  0  0  0
  182.5270  175.8290  136.7490 C   0  0  2  0  0  3  0  0  0  0  0  0
  182.4080  179.2500  143.4570 O   0  0  0  0  0  0  0  0  0  0  0  0
  183.7800  179.1450  145.3340 N   0  0  0  0  0  0  0  0  0  0  0  0
  184.5840  178.3820  141.7240 C   0  0  0  0  0  0  0  0  0  0  0  0
  186.0590  178.6060  143.6950 C   0  0  0  0  0  2  0  0  0  0  0  0
  181.1000  176.3480  136.5610 C   0  0  0  0  0  2  0  0  0  0  0  0
  183.8220  179.6750  138.8890 C   0  0  0  0  0  1  0  0  0  0  0  0
  183.5540  179.0120  143.9230 C   0  0  0  0  0  0  0  0  0  0  0  0
  185.8170  177.3840  138.2530 C   0  0  1  0  0  3  0  0  0  0  0  0
  185.2910  179.0270  147.1770 N   0  0  0  0  0  2  0  0  0  0  0  0
  186.5530  178.7600  147.2370 C   0  0  1  0  0  3  0  0  0  0  0  0
  187.3420  178.8410  148.5020 C   0  0  0  0  0  2  0  0  0  0  0  0
  185.7500  178.0120  140.8670 C   0  0  0  0  0  2  0  0  0  0  0  0
  180.5400  176.9010  137.8440 C   0  0  0  0  0  0  0  0  0  0  0  0
  185.0700  177.6020  139.5830 C   0  0  1  0  0  3  0  0  0  0  0  0
  182.8400  177.4020  138.6380 C   0  0  0  0  0  0  0  0  0  0  0  0
  184.6990  178.6400  143.0400 C   0  0  0  0  0  0  0  0  0  0  0  0
  184.8020  177.1360  137.1040 C   0  0  0  0  0  2  0  0  0  0  0  0
  187.9580  176.9720  146.2250 C   0  0  2  0  0  3  0  0  0  0  0  0
  186.7930  178.7620  136.3760 C   0  0  0  0  0  2  0  0  0  0  0  0
  188.6570  179.2240  139.1640 O   0  0  0  0  0  1  0  0  0  0  0  0
  188.2380  178.9860  135.9930 C   0  0  0  0  0  2  0  0  0  0  0  0
  189.0600  178.2530  137.0350 C   0  0  1  0  0  3  0  0  0  0  0  0
  188.2100  178.2340  138.2890 C   0  0  2  0  0  3  0  0  0  0  0  0
  186.7700  178.5350  137.8830 C   0  0  2  0  0  3  0  0  0  0  0  0
  189.3320  176.8230  136.5920 C   0  0  0  0  0  2  0  0  0  0  0  0
  191.4410  176.8290  137.7030 O   0  0  0  0  0  0  0  0  0  0  0  0
  190.1850  174.9310  137.9730 O   0  0  0  0  0  1  0  0  0  0  0  0
  190.3840  176.1980  137.4430 C   0  0  0  0  0  0  0  0  0  0  0  0
  188.8230  176.5830  145.0290 C   0  0  0  0  0  2  0  0  0  0  0  0
  189.6480  177.7550  144.5130 C   0  0  0  0  0  2  0  0  0  0  0  0
  190.9170  177.2580  143.8390 C   0  0  0  0  0  2  0  0  0  0  0  0
  192.0110  175.1960  144.3040 O   0  0  0  0  0  0  0  0  0  0  0  0
  191.6620  176.3290  144.7340 C   0  0  0  0  0  0  0  0  0  0  0  0
  191.9880  176.7350  146.0290 O   0  0  0  0  0  0  0  0  0  0  0  0
  192.2000  175.8000  147.0750 C   0  0  0  0  0  1  0  0  0  0  0  0
  2 23  1  0  0  0  0
  3 16  1  6  0  0  0
  3  6  1  0  0  0  0
  3  5  1  0  0  0  0
  4 27  2  0  0  0  0
  5 30  1  0  0  0  0
  5 22  1  0  0  0  0
  6 21  1  0  0  0  0
  8  2  1  0  0  0  0
  9 26  1  0  0  0  0
  9 11  1  0  0  0  0
 10 12  1  0  0  0  0
 11 15  1  0  0  0  0
 12  4  1  0  0  0  0
 13 19  2  0  0  0  0
 14  6  2  0  0  0  0
 15 28  2  0  0  0  0
 17 12  1  0  0  0  0
 17 25  1  0  0  0  0
 18  9  1  0  0  0  0
 19 14  1  0  0  0  0
 20 26  1  0  0  0  0
 21 22  1  0  0  0  0
 22 23  1  0  0  0  0
 24 15  1  0  0  0  0
 25  7  2  0  0  0  0
 25  1  1  0  0  0  0
 26 24  1  0  0  0  0
 27  1  1  0  0  0  0
 27  9  1  0  0  0  0
 28 16  1  0  0  0  0
 28 19  1  0  0  0  0
 29  4  1  0  0  0  0
 29 20  1  0  0  0  0
 30  8  1  0  0  0  0
 31 36  1  0  0  0  0
 33 31  1  0  0  0  0
 33 34  1  0  0  0  0
 34 35  1  0  0  0  0
 35 32  1  0  0  0  0
 36 20  1  0  0  0  0
 36 35  1  0  0  0  0
 37 34  1  0  0  0  0
 37 40  1  0  0  0  0
 40 38  2  0  0  0  0
 40 39  1  0  0  0  0
 41 30  1  0  0  0  0
 42 41  1  0  0  0  0
 43 42  1  0  0  0  0
 43 45  1  0  0  0  0
 44 45  2  0  0  0  0
 45 46  1  0  0  0  0
 46 47  1  0  0  0  0
M  END
>  <MODEL>
1

>  <REMARK>
 VINA RESULT:      -9.2      0.000      0.000
  Name = 
  8 active torsions:
  status: ('A' for Active; 'I' for Inactive)
    1  A    between atoms: O_4  and  C_24
    2  A    between atoms: C_11  and  C_15
    3  A    between atoms: C_11  and  C_36
    4  A    between atoms: C_15  and  C_24
    5  A    between atoms: C_21  and  C_38
    6  A    between atoms: C_21  and  C_41
    7  A    between atoms: C_31  and  C_43
    8  A    between atoms: C_36  and  C_47
                            x       y       z     vdW  Elec       q    Type
                         _______ _______ _______ _____ _____    ______ ____

>  <TORSDO>
F 8

$$$$
=
 OpenBabel11062417353D

 47 53  0  0  1  0  0  0  0  0999 V2000
  183.6210  178.6710  142.2190 C   0  0  0  0  0  2  0  0  0  0  0  0
  191.6550  174.4710  134.5940 C   0  0  0  0  0  2  0  0  0  0  0  0
  188.9560  176.0960  137.4670 C   0  0  1  0  0  3  0  0  0  0  0  0
  181.8120  178.1340  140.5930 C   0  0  0  0  0  0  0  0  0  0  0  0
  189.6720  175.6320  136.2060 C   0  0  1  0  0  3  0  0  0  0  0  0
  190.0310  176.8840  138.1300 C   0  0  0  0  0  0  0  0  0  0  0  0
  182.8590  179.8220  144.1290 O   0  0  0  0  0  0  0  0  0  0  0  0
  190.6310  173.4690  135.1470 C   0  0  0  0  0  2  0  0  0  0  0  0
  184.0020  178.7550  139.6230 C   0  0  1  0  0  0  0  0  0  0  0  0
  179.4690  177.6570  141.4370 C   0  0  0  0  0  1  0  0  0  0  0  0
  185.4920  178.6040  139.9050 C   0  0  0  0  0  2  0  0  0  0  0  0
  180.9400  177.8020  141.7890 C   0  0  2  0  0  3  0  0  0  0  0  0
  188.2280  178.9600  140.2860 O   0  0  0  0  0  0  0  0  0  0  0  0
  189.7970  177.8300  138.9890 N   0  0  0  0  0  0  0  0  0  0  0  0
  186.0320  177.8920  138.6960 C   0  0  0  0  0  0  0  0  0  0  0  0
  187.7570  176.9890  137.1720 C   0  0  0  0  0  2  0  0  0  0  0  0
  181.1000  178.8370  142.9060 C   0  0  0  0  0  2  0  0  0  0  0  0
  183.7510  180.1270  139.0060 C   0  0  0  0  0  1  0  0  0  0  0  0
  188.4460  178.1980  139.3070 C   0  0  0  0  0  0  0  0  0  0  0  0
  182.2790  177.5500  138.0950 C   0  0  1  0  0  3  0  0  0  0  0  0
  191.3080  176.6470  137.5710 N   0  0  0  0  0  2  0  0  0  0  0  0
  191.1120  175.9340  136.5130 C   0  0  1  0  0  3  0  0  0  0  0  0
  192.2270  175.3560  135.7040 C   0  0  0  0  0  2  0  0  0  0  0  0
  184.9470  177.3840  137.8040 C   0  0  0  0  0  2  0  0  0  0  0  0
  182.5490  179.1630  143.1520 C   0  0  0  0  0  0  0  0  0  0  0  0
  183.7170  177.6360  138.6420 C   0  0  1  0  0  3  0  0  0  0  0  0
  183.0930  178.5420  140.8090 C   0  0  0  0  0  0  0  0  0  0  0  0
  187.3380  177.7030  138.4350 C   0  0  0  0  0  0  0  0  0  0  0  0
  181.2670  178.0300  139.1720 C   0  0  0  0  0  2  0  0  0  0  0  0
  189.4920  174.1260  135.9630 C   0  0  2  0  0  3  0  0  0  0  0  0
  181.0530  179.4500  136.9700 C   0  0  0  0  0  2  0  0  0  0  0  0
  182.4010  177.4490  134.5940 O   0  0  0  0  0  1  0  0  0  0  0  0
  180.1620  179.4340  135.7490 C   0  0  0  0  0  2  0  0  0  0  0  0
  180.1840  178.0070  135.2380 C   0  0  1  0  0  3  0  0  0  0  0  0
  181.5190  177.4370  135.6750 C   0  0  2  0  0  3  0  0  0  0  0  0
  182.0690  178.3290  136.7830 C   0  0  2  0  0  3  0  0  0  0  0  0
  179.0620  177.1950  135.8690 C   0  0  0  0  0  2  0  0  0  0  0  0
  179.6480  175.2000  137.0340 O   0  0  0  0  0  1  0  0  0  0  0  0
  179.4810  175.0040  134.7560 O   0  0  0  0  0  0  0  0  0  0  0  0
  179.4220  175.7510  135.9250 C   0  0  0  0  0  0  0  0  0  0  0  0
  188.1230  173.8080  135.3690 C   0  0  0  0  0  2  0  0  0  0  0  0
  187.4880  172.5820  136.0150 C   0  0  0  0  0  2  0  0  0  0  0  0
  185.9840  172.5840  135.7980 C   0  0  0  0  0  2  0  0  0  0  0  0
  185.5490  172.8870  138.1190 O   0  0  0  0  0  0  0  0  0  0  0  0
  185.2860  173.2430  136.9380 C   0  0  0  0  0  0  0  0  0  0  0  0
  184.3710  174.2660  136.6850 O   0  0  0  0  0  0  0  0  0  0  0  0
  182.9950  174.1340  137.0020 C   0  0  0  0  0  1  0  0  0  0  0  0
  1 25  1  0  0  0  0
  2  8  1  0  0  0  0
  2 23  1  0  0  0  0
  3 16  1  6  0  0  0
  3  6  1  0  0  0  0
  4 27  2  0  0  0  0
  4 12  1  0  0  0  0
  5 22  1  0  0  0  0
  5  3  1  0  0  0  0
  6 14  2  0  0  0  0
  8 30  1  0  0  0  0
  9 11  1  0  0  0  0
  9 27  1  0  0  0  0
 10 12  1  0  0  0  0
 12 17  1  0  0  0  0
 14 19  1  0  0  0  0
 15 11  1  0  0  0  0
 16 28  1  0  0  0  0
 17 25  1  0  0  0  0
 18  9  1  0  0  0  0
 19 13  2  0  0  0  0
 20 26  1  0  0  0  0
 20 29  1  0  0  0  0
 21  6  1  0  0  0  0
 22 21  1  0  0  0  0
 23 22  1  0  0  0  0
 24 26  1  0  0  0  0
 24 15  1  0  0  0  0
 25  7  2  0  0  0  0
 26  9  1  0  0  0  0
 27  1  1  0  0  0  0
 28 15  2  0  0  0  0
 28 19  1  0  0  0  0
 29  4  1  0  0  0  0
 30  5  1  0  0  0  0
 32 35  1  0  0  0  0
 33 31  1  0  0  0  0
 34 35  1  0  0  0  0
 34 33  1  0  0  0  0
 34 37  1  0  0  0  0
 35 36  1  0  0  0  0
 36 31  1  0  0  0  0
 36 20  1  0  0  0  0
 37 40  1  0  0  0  0
 39 40  2  0  0  0  0
 40 38  1  0  0  0  0
 41 30  1  0  0  0  0
 41 42  1  0  0  0  0
 43 42  1  0  0  0  0
 43 45  1  0  0  0  0
 45 44  2  0  0  0  0
 46 45  1  0  0  0  0
 46 47  1  0  0  0  0
M  END
>  <MODEL>
2

>  <REMARK>
 VINA RESULT:      -6.3      4.333      8.607
  Name = 
  8 active torsions:
  status: ('A' for Active; 'I' for Inactive)
    1  A    between atoms: O_4  and  C_24
    2  A    between atoms: C_11  and  C_15
    3  A    between atoms: C_11  and  C_36
    4  A    between atoms: C_15  and  C_24
    5  A    between atoms: C_21  and  C_38
    6  A    between atoms: C_21  and  C_41
    7  A    between atoms: C_31  and  C_43
    8  A    between atoms: C_36  and  C_47
                            x       y       z     vdW  Elec       q    Type
                         _______ _______ _______ _____ _____    ______ ____

>  <TORSDO>
F 8

$$$$
=
 OpenBabel11062417353D

 47 53  0  0  1  0  0  0  0  0999 V2000
  181.2130  177.4140  141.3250 C   0  0  0  0  0  2  0  0  0  0  0  0
  190.9140  177.7470  148.1150 C   0  0  0  0  0  2  0  0  0  0  0  0
  187.2920  177.7350  145.8660 C   0  0  1  0  0  3  0  0  0  0  0  0
  182.6400  177.0180  139.3240 C   0  0  0  0  0  0  0  0  0  0  0  0
  188.7260  177.8640  146.3620 C   0  0  1  0  0  3  0  0  0  0  0  0
  186.5600  178.4970  146.9150 C   0  0  0  0  0  0  0  0  0  0  0  0
  178.9310  177.7040  140.8130 O   0  0  0  0  0  0  0  0  0  0  0  0
  190.6030  176.4180  147.4110 C   0  0  0  0  0  2  0  0  0  0  0  0
  183.6400  178.3910  141.1230 C   0  0  1  0  0  0  0  0  0  0  0  0
  181.6830  175.7830  137.3260 C   0  0  0  0  0  1  0  0  0  0  0  0
  183.6510  178.5000  142.6420 C   0  0  0  0  0  2  0  0  0  0  0  0
  181.5220  176.1400  138.7940 C   0  0  2  0  0  3  0  0  0  0  0  0
  183.5740  179.3280  145.3010 O   0  0  0  0  0  0  0  0  0  0  0  0
  185.4000  179.0480  146.7180 N   0  0  0  0  0  0  0  0  0  0  0  0
  185.0980  178.3450  143.0200 C   0  0  0  0  0  0  0  0  0  0  0  0
  187.0760  178.3800  144.5020 C   0  0  0  0  0  2  0  0  0  0  0  0
  180.1500  176.7800  139.0180 C   0  0  0  0  0  2  0  0  0  0  0  0
  183.6950  179.7920  140.5240 C   0  0  0  0  0  1  0  0  0  0  0  0
  184.7790  178.9810  145.4250 C   0  0  0  0  0  0  0  0  0  0  0  0
  185.2240  177.3680  139.3330 C   0  0  1  0  0  3  0  0  0  0  0  0
  187.3470  178.7430  148.0630 N   0  0  0  0  0  2  0  0  0  0  0  0
  188.5470  178.3720  147.7640 C   0  0  1  0  0  3  0  0  0  0  0  0
  189.6610  178.3450  148.7590 C   0  0  0  0  0  2  0  0  0  0  0  0
  185.9420  177.9100  141.8670 C   0  0  0  0  0  2  0  0  0  0  0  0
  180.0200  177.3330  140.4130 C   0  0  0  0  0  0  0  0  0  0  0  0
  184.8990  177.6010  140.8210 C   0  0  1  0  0  3  0  0  0  0  0  0
  182.4850  177.6160  140.5360 C   0  0  0  0  0  0  0  0  0  0  0  0
  185.5960  178.5470  144.2530 C   0  0  0  0  0  0  0  0  0  0  0  0
  183.9120  177.2430  138.5110 C   0  0  0  0  0  2  0  0  0  0  0  0
  189.4520  176.5100  146.3820 C   0  0  2  0  0  3  0  0  0  0  0  0
  185.8370  178.6400  137.2390 C   0  0  0  0  0  2  0  0  0  0  0  0
  188.2920  179.0490  139.5340 O   0  0  0  0  0  1  0  0  0  0  0  0
  187.1720  178.7660  136.5420 C   0  0  0  0  0  2  0  0  0  0  0  0
  188.1620  178.0080  137.4050 C   0  0  1  0  0  3  0  0  0  0  0  0
  187.6090  178.0700  138.8140 C   0  0  2  0  0  3  0  0  0  0  0  0
  186.1350  178.4500  138.7220 C   0  0  2  0  0  3  0  0  0  0  0  0
  188.2510  176.5530  136.9640 C   0  0  0  0  0  2  0  0  0  0  0  0
  189.9910  174.9800  136.5430 O   0  0  0  0  0  1  0  0  0  0  0  0
  190.5870  177.1860  136.3680 O   0  0  0  0  0  0  0  0  0  0  0  0
  189.6550  176.1900  136.6240 C   0  0  0  0  0  0  0  0  0  0  0  0
  189.9120  176.0930  144.9880 C   0  0  0  0  0  2  0  0  0  0  0  0
  190.7320  177.1810  144.3060 C   0  0  0  0  0  2  0  0  0  0  0  0
  191.3450  176.6570  143.0180 C   0  0  0  0  0  2  0  0  0  0  0  0
  189.1950  176.9950  142.0540 O   0  0  0  0  0  0  0  0  0  0  0  0
  190.4380  176.9030  141.8610 C   0  0  0  0  0  0  0  0  0  0  0  0
  190.9780  177.0550  140.5840 O   0  0  0  0  0  0  0  0  0  0  0  0
  192.2900  177.5550  140.3800 C   0  0  0  0  0  1  0  0  0  0  0  0
  2 23  1  0  0  0  0
  3 16  1  6  0  0  0
  3  5  1  0  0  0  0
  3  6  1  0  0  0  0
  4 27  2  0  0  0  0
  5 30  1  0  0  0  0
  5 22  1  0  0  0  0
  6 21  1  0  0  0  0
  8  2  1  0  0  0  0
  9 11  1  0  0  0  0
 10 12  1  0  0  0  0
 11 15  1  0  0  0  0
 12 17  1  0  0  0  0
 12  4  1  0  0  0  0
 13 19  2  0  0  0  0
 14  6  2  0  0  0  0
 15 28  2  0  0  0  0
 17 25  1  0  0  0  0
 18  9  1  0  0  0  0
 19 14  1  0  0  0  0
 20 26  1  0  0  0  0
 22 21  1  0  0  0  0
 22 23  1  0  0  0  0
 24 15  1  0  0  0  0
 25  7  2  0  0  0  0
 25  1  1  0  0  0  0
 26  9  1  0  0  0  0
 26 24  1  0  0  0  0
 27  9  1  0  0  0  0
 27  1  1  0  0  0  0
 28 16  1  0  0  0  0
 28 19  1  0  0  0  0
 29  4  1  0  0  0  0
 29 20  1  0  0  0  0
 30  8  1  0  0  0  0
 31 36  1  0  0  0  0
 33 31  1  0  0  0  0
 33 34  1  0  0  0  0
 34 35  1  0  0  0  0
 35 32  1  0  0  0  0
 36 35  1  0  0  0  0
 36 20  1  0  0  0  0
 37 34  1  0  0  0  0
 38 40  1  0  0  0  0
 39 40  2  0  0  0  0
 40 37  1  0  0  0  0
 41 30  1  0  0  0  0
 42 41  1  0  0  0  0
 43 42  1  0  0  0  0
 45 44  2  0  0  0  0
 45 43  1  0  0  0  0
 46 45  1  0  0  0  0
 47 46  1  0  0  0  0
M  END
>  <MODEL>
3

>  <REMARK>
 VINA RESULT:      -6.2      1.544      2.305
  Name = 
  8 active torsions:
  status: ('A' for Active; 'I' for Inactive)
    1  A    between atoms: O_4  and  C_24
    2  A    between atoms: C_11  and  C_15
    3  A    between atoms: C_11  and  C_36
    4  A    between atoms: C_15  and  C_24
    5  A    between atoms: C_21  and  C_38
    6  A    between atoms: C_21  and  C_41
    7  A    between atoms: C_31  and  C_43
    8  A    between atoms: C_36  and  C_47
                            x       y       z     vdW  Elec       q    Type
                         _______ _______ _______ _____ _____    ______ ____

>  <TORSDO>
F 8

$$$$
