=
 OpenBabel11062416463D

 28 32  0  0  1  0  0  0  0  0999 V2000
  187.4530  177.7410  143.0960 C   0  0  0  0  0  0  0  0  0  0  0  0
  190.4670  177.2220  142.1420 C   0  0  0  0  0  2  0  0  0  0  0  0
  188.5890  177.2690  143.9260 C   0  0  0  0  0  0  0  0  0  0  0  0
  189.0980  178.9890  138.7140 O   0  0  0  0  0  0  0  0  0  0  0  0
  188.2330  178.6100  139.4890 C   0  0  0  0  0  0  0  0  0  0  0  0
  187.4610  178.0580  141.8070 C   0  0  0  0  0  0  0  0  0  0  0  0
  185.2840  178.3130  142.4220 C   0  0  0  0  0  3  0  0  0  0  0  0
  184.4960  179.2060  139.6700 C   0  0  0  0  0  0  0  0  0  0  0  0
  189.8170  176.7770  143.3670 N   0  0  0  0  0  2  0  0  0  0  0  0
  186.1220  178.3880  141.4000 C   0  0  0  0  0  0  0  0  0  0  0  0
  184.3880  180.3030  139.0580 O   0  0  0  0  0  0  0  0  0  0  0  0
  188.3820  177.0750  145.1860 N   0  0  0  0  0  2  0  0  0  0  0  0
  189.5630  177.0650  140.9400 C   0  0  0  0  0  2  0  0  0  0  0  0
  185.7960  178.7330  140.0450 N   0  0  0  0  0  0  0  0  0  0  0  0
  188.6350  178.2590  140.9050 C   0  0  1  0  0  3  0  0  0  0  0  0
  186.0550  177.8780  143.6310 C   0  0  0  0  0  2  0  0  0  0  0  0
  186.7980  178.5300  138.9910 C   0  0  2  0  0  3  0  0  0  0  0  0
  188.0050  176.3540  137.6780 S   0  0  0  0  0  0  0  0  0  0  0  0
  187.1600  175.6590  136.2270 C   0  0  0  0  0  2  0  0  0  0  0  0
  185.2450  176.3580  134.8590 C   0  0  0  0  0  2  0  0  0  0  0  0
  186.4990  177.2550  138.1900 C   0  0  2  0  0  3  0  0  0  0  0  0
  185.9630  176.4990  135.9690 C   0  0  0  0  0  0  0  0  0  0  0  0
  185.6300  177.5350  136.9770 C   0  0  0  0  0  2  0  0  0  0  0  0
  182.2390  178.8700  140.4900 N   0  0  0  0  0  0  0  0  0  0  0  0
  181.8720  176.6110  139.9190 N   0  0  0  0  0  0  0  0  0  0  0  0
  183.1490  177.0550  139.5520 N   0  0  0  0  0  2  0  0  0  0  0  0
  183.2920  178.4010  139.9320 C   0  0  0  0  0  0  0  0  0  0  0  0
  181.2580  177.7930  140.5430 C   0  0  0  0  0  3  0  0  0  0  0  0
  1 16  1  0  0  0  0
  1  3  1  0  0  0  0
  2  9  1  0  0  0  0
  3 12  2  0  0  0  0
  4  5  2  0  0  0  0
  5 15  1  0  0  0  0
  6  1  2  0  0  0  0
  7 16  1  0  0  0  0
  8 27  1  0  0  0  0
  8 14  1  0  0  0  0
  9  3  1  0  0  0  0
 10  6  1  0  0  0  0
 10  7  2  0  0  0  0
 11  8  2  0  0  0  0
 13  2  1  0  0  0  0
 14 10  1  0  0  0  0
 15 13  1  6  0  0  0
 15  6  1  0  0  0  0
 17  5  1  1  0  0  0
 17 14  1  0  0  0  0
 18 21  1  0  0  0  0
 19 18  1  0  0  0  0
 20 22  2  0  0  0  0
 21 23  1  6  0  0  0
 21 17  1  0  0  0  0
 22 19  1  0  0  0  0
 22 23  1  0  0  0  0
 24 28  1  0  0  0  0
 25 28  2  0  0  0  0
 26 25  1  0  0  0  0
 26 27  1  0  0  0  0
 27 24  2  0  0  0  0
M  END
>  <MODEL>
1

>  <REMARK>
 VINA RESULT:      -7.5      0.000      0.000
  Name = 
  2 active torsions:
  status: ('A' for Active; 'I' for Inactive)
    1  A    between atoms: C_11  and  C_28
    2  A    between atoms: C_15  and  C_20
                            x       y       z     vdW  Elec       q    Type
                         _______ _______ _______ _____ _____    ______ ____

>  <TORSDO>
F 2

$$$$
=
 OpenBabel11062416463D

 28 32  0  0  1  0  0  0  0  0999 V2000
  188.0280  177.7560  142.5340 C   0  0  0  0  0  0  0  0  0  0  0  0
  190.6340  176.4840  143.8950 C   0  0  0  0  0  2  0  0  0  0  0  0
  188.1850  177.3270  143.9450 C   0  0  0  0  0  0  0  0  0  0  0  0
  192.3230  177.5020  140.3090 O   0  0  0  0  0  0  0  0  0  0  0  0
  191.1020  177.4980  140.3300 C   0  0  0  0  0  0  0  0  0  0  0  0
  188.9340  177.7170  141.5640 C   0  0  0  0  0  0  0  0  0  0  0  0
  187.0600  178.5030  140.5360 C   0  0  0  0  0  3  0  0  0  0  0  0
  188.4790  178.7660  137.9070 C   0  0  0  0  0  0  0  0  0  0  0  0
  189.2680  176.4980  144.3970 N   0  0  0  0  0  2  0  0  0  0  0  0
  188.3230  178.1590  140.3390 C   0  0  0  0  0  0  0  0  0  0  0  0
  189.1180  179.6650  137.2960 O   0  0  0  0  0  0  0  0  0  0  0  0
  187.1920  177.5090  144.7510 N   0  0  0  0  0  2  0  0  0  0  0  0
  190.6840  176.1790  142.4150 C   0  0  0  0  0  2  0  0  0  0  0  0
  189.0370  178.1870  139.0940 N   0  0  0  0  0  0  0  0  0  0  0  0
  190.4020  177.4650  141.6710 C   0  0  1  0  0  3  0  0  0  0  0  0
  186.7300  178.2720  141.9790 C   0  0  0  0  0  2  0  0  0  0  0  0
  190.3540  177.5430  139.0050 C   0  0  2  0  0  3  0  0  0  0  0  0
  190.9390  176.1640  136.6230 S   0  0  0  0  0  0  0  0  0  0  0  0
  189.8230  174.8230  136.1190 C   0  0  0  0  0  2  0  0  0  0  0  0
  187.6290  174.0350  136.8900 C   0  0  0  0  0  2  0  0  0  0  0  0
  190.2480  176.1750  138.3160 C   0  0  2  0  0  3  0  0  0  0  0  0
  188.7070  174.7860  137.0980 C   0  0  0  0  0  0  0  0  0  0  0  0
  188.8210  175.6580  138.2910 C   0  0  0  0  0  2  0  0  0  0  0  0
  187.1120  177.6280  136.2600 N   0  0  0  0  0  0  0  0  0  0  0  0
  184.9670  177.8300  137.2210 N   0  0  0  0  0  0  0  0  0  0  0  0
  185.9620  178.4380  137.9980 N   0  0  0  0  0  2  0  0  0  0  0  0
  187.2030  178.2820  137.3570 C   0  0  0  0  0  0  0  0  0  0  0  0
  185.7070  177.2930  136.0680 C   0  0  0  0  0  3  0  0  0  0  0  0
  1  3  1  0  0  0  0
  2  9  1  0  0  0  0
  3  9  1  0  0  0  0
  3 12  2  0  0  0  0
  4  5  2  0  0  0  0
  5 15  1  0  0  0  0
  6 15  1  0  0  0  0
  6  1  2  0  0  0  0
  7 16  1  0  0  0  0
  8 14  1  0  0  0  0
 10  7  2  0  0  0  0
 10  6  1  0  0  0  0
 11  8  2  0  0  0  0
 13  2  1  0  0  0  0
 14 10  1  0  0  0  0
 15 13  1  6  0  0  0
 16  1  1  0  0  0  0
 17 14  1  0  0  0  0
 17  5  1  1  0  0  0
 18 21  1  0  0  0  0
 19 18  1  0  0  0  0
 19 22  1  0  0  0  0
 20 22  2  0  0  0  0
 21 23  1  6  0  0  0
 21 17  1  0  0  0  0
 22 23  1  0  0  0  0
 24 27  2  0  0  0  0
 25 26  1  0  0  0  0
 27  8  1  0  0  0  0
 27 26  1  0  0  0  0
 28 24  1  0  0  0  0
 28 25  2  0  0  0  0
M  END
>  <MODEL>
2

>  <REMARK>
 VINA RESULT:      -6.5      2.463      3.492
  Name = 
  2 active torsions:
  status: ('A' for Active; 'I' for Inactive)
    1  A    between atoms: C_11  and  C_28
    2  A    between atoms: C_15  and  C_20
                            x       y       z     vdW  Elec       q    Type
                         _______ _______ _______ _____ _____    ______ ____

>  <TORSDO>
F 2

$$$$
=
 OpenBabel11062416463D

 28 32  0  0  1  0  0  0  0  0999 V2000
  188.9770  176.8120  138.4950 C   0  0  0  0  0  0  0  0  0  0  0  0
  188.8980  174.9920  135.8590 C   0  0  0  0  0  2  0  0  0  0  0  0
  190.0570  175.9390  137.9730 C   0  0  0  0  0  0  0  0  0  0  0  0
  185.3810  176.9960  135.2540 O   0  0  0  0  0  0  0  0  0  0  0  0
  185.8370  177.0690  136.3840 C   0  0  0  0  0  0  0  0  0  0  0  0
  187.7760  177.0260  137.9690 C   0  0  0  0  0  0  0  0  0  0  0  0
  187.7520  178.2280  139.9020 C   0  0  0  0  0  3  0  0  0  0  0  0
  184.9740  179.2280  139.3760 C   0  0  0  0  0  0  0  0  0  0  0  0
  189.8400  174.9370  136.9680 N   0  0  0  0  0  2  0  0  0  0  0  0
  187.0280  177.8800  138.8510 C   0  0  0  0  0  0  0  0  0  0  0  0
  184.4520  180.2300  138.8170 O   0  0  0  0  0  0  0  0  0  0  0  0
  191.1820  175.9190  138.6080 N   0  0  0  0  0  2  0  0  0  0  0  0
  187.4770  175.1780  136.3400 C   0  0  0  0  0  2  0  0  0  0  0  0
  185.6700  178.2600  138.5790 N   0  0  0  0  0  0  0  0  0  0  0  0
  187.2740  176.6520  136.6120 C   0  0  1  0  0  3  0  0  0  0  0  0
  189.0920  177.5670  139.7890 C   0  0  0  0  0  2  0  0  0  0  0  0
  184.9390  177.5900  137.4960 C   0  0  2  0  0  3  0  0  0  0  0  0
  184.1190  174.9130  137.2140 S   0  0  0  0  0  0  0  0  0  0  0  0
  182.3900  174.5070  137.5950 C   0  0  0  0  0  2  0  0  0  0  0  0
  180.3780  175.8350  138.0570 C   0  0  0  0  0  2  0  0  0  0  0  0
  183.9810  176.5300  138.0570 C   0  0  2  0  0  3  0  0  0  0  0  0
  181.6990  175.7800  137.9210 C   0  0  0  0  0  0  0  0  0  0  0  0
  182.5380  176.9970  138.0380 C   0  0  0  0  0  2  0  0  0  0  0  0
  184.0240  178.1610  141.3340 N   0  0  0  0  0  0  0  0  0  0  0  0
  185.1510  179.2960  143.0690 N   0  0  0  0  0  0  0  0  0  0  0  0
  185.5250  179.7530  141.7990 N   0  0  0  0  0  2  0  0  0  0  0  0
  184.8080  179.0370  140.8250 C   0  0  0  0  0  0  0  0  0  0  0  0
  184.1580  178.2480  142.7830 C   0  0  0  0  0  3  0  0  0  0  0  0
  1 16  1  0  0  0  0
  2 13  1  0  0  0  0
  2  9  1  0  0  0  0
  3  1  1  0  0  0  0
  3 12  2  0  0  0  0
  4  5  2  0  0  0  0
  5 15  1  0  0  0  0
  6  1  2  0  0  0  0
  6 10  1  0  0  0  0
  8 27  1  0  0  0  0
  9  3  1  0  0  0  0
 10  7  2  0  0  0  0
 11  8  2  0  0  0  0
 14 10  1  0  0  0  0
 14  8  1  0  0  0  0
 15 13  1  1  0  0  0
 15  6  1  0  0  0  0
 16  7  1  0  0  0  0
 17  5  1  6  0  0  0
 17 21  1  0  0  0  0
 17 14  1  0  0  0  0
 18 19  1  0  0  0  0
 18 21  1  0  0  0  0
 19 22  1  0  0  0  0
 21 23  1  6  0  0  0
 22 23  1  0  0  0  0
 22 20  2  0  0  0  0
 24 28  1  0  0  0  0
 26 25  1  0  0  0  0
 27 24  2  0  0  0  0
 27 26  1  0  0  0  0
 28 25  2  0  0  0  0
M  END
>  <MODEL>
3

>  <REMARK>
 VINA RESULT:      -6.4      2.748      4.478
  Name = 
  2 active torsions:
  status: ('A' for Active; 'I' for Inactive)
    1  A    between atoms: C_11  and  C_28
    2  A    between atoms: C_15  and  C_20
                            x       y       z     vdW  Elec       q    Type
                         _______ _______ _______ _____ _____    ______ ____

>  <TORSDO>
F 2

$$$$
=
 OpenBabel11062416463D

 28 32  0  0  1  0  0  0  0  0999 V2000
  183.9140  177.4790  138.3090 C   0  0  0  0  0  0  0  0  0  0  0  0
  182.3770  178.1380  141.0420 C   0  0  0  0  0  2  0  0  0  0  0  0
  182.4710  177.2870  138.5970 C   0  0  0  0  0  0  0  0  0  0  0  0
  185.9650  179.8590  141.9960 O   0  0  0  0  0  0  0  0  0  0  0  0
  185.9870  179.1010  141.0390 C   0  0  0  0  0  0  0  0  0  0  0  0
  184.8470  177.9750  139.1130 C   0  0  1  0  0  3  0  0  0  0  0  0
  185.9930  177.3990  137.2320 C   0  0  0  0  0  3  0  0  0  0  0  0
  188.5830  178.3930  138.3710 C   0  0  0  0  0  0  0  0  0  0  0  0
  181.9250  177.3210  139.9250 N   0  0  0  0  0  2  0  0  0  0  0  0
  186.1200  177.9020  138.4490 C   0  0  0  0  0  0  0  0  0  0  0  0
  189.2320  179.4730  138.3620 O   0  0  0  0  0  0  0  0  0  0  0  0
  181.7160  176.8430  137.6480 N   0  0  0  0  0  2  0  0  0  0  0  0
  183.8290  177.8780  141.3740 C   0  0  0  0  0  2  0  0  0  0  0  0
  187.3390  178.3240  139.0810 N   0  0  0  0  0  0  0  0  0  0  0  0
  184.6720  178.6890  140.4140 C   0  0  1  0  0  3  0  0  0  0  0  0
  184.5490  177.0620  137.0120 C   0  0  0  0  0  3  0  0  0  0  0  0
  187.3360  178.6290  140.5170 C   0  0  2  0  0  3  0  0  0  0  0  0
  187.1980  177.2940  142.9910 S   0  0  0  0  0  0  0  0  0  0  0  0
  188.7200  176.5450  143.6410 C   0  0  0  0  0  2  0  0  0  0  0  0
  191.0890  176.6460  143.0040 C   0  0  0  0  0  2  0  0  0  0  0  0
  187.9300  177.4660  141.3240 C   0  0  2  0  0  3  0  0  0  0  0  0
  189.8170  176.8900  142.7020 C   0  0  0  0  0  0  0  0  0  0  0  0
  189.4410  177.5620  141.4350 C   0  0  0  0  0  2  0  0  0  0  0  0
  189.2530  176.0650  138.2770 N   0  0  0  0  0  0  0  0  0  0  0  0
  189.9990  175.8890  136.0460 N   0  0  0  0  0  0  0  0  0  0  0  0
  189.5590  177.1810  136.3630 N   0  0  0  0  0  2  0  0  0  0  0  0
  189.1410  177.2050  137.7050 C   0  0  0  0  0  0  0  0  0  0  0  0
  189.8080  175.1400  137.2980 C   0  0  0  0  0  3  0  0  0  0  0  0
  1  3  1  0  0  0  0
  2 13  1  0  0  0  0
  3  9  1  0  0  0  0
  5  4  2  0  0  0  0
  6  1  1  6  0  0  0
  6 15  1  0  0  0  0
  7 10  2  0  0  0  0
  8 14  1  0  0  0  0
  9  2  1  0  0  0  0
 10 14  1  0  0  0  0
 10  6  1  0  0  0  0
 11  8  2  0  0  0  0
 12  3  2  0  0  0  0
 14 17  1  0  0  0  0
 15  5  1  0  0  0  0
 15 13  1  1  0  0  0
 16  7  1  0  0  0  0
 16  1  2  0  0  0  0
 17  5  1  1  0  0  0
 17 21  1  0  0  0  0
 18 19  1  0  0  0  0
 21 23  1  1  0  0  0
 21 18  1  0  0  0  0
 22 20  2  0  0  0  0
 22 19  1  0  0  0  0
 23 22  1  0  0  0  0
 25 26  1  0  0  0  0
 25 28  2  0  0  0  0
 26 27  1  0  0  0  0
 27 24  2  0  0  0  0
 27  8  1  0  0  0  0
 28 24  1  0  0  0  0
M  END
>  <MODEL>
4

>  <REMARK>
 VINA RESULT:      -6.2      2.565      6.526
  Name = 
  2 active torsions:
  status: ('A' for Active; 'I' for Inactive)
    1  A    between atoms: C_11  and  C_28
    2  A    between atoms: C_15  and  C_20
                            x       y       z     vdW  Elec       q    Type
                         _______ _______ _______ _____ _____    ______ ____

>  <TORSDO>
F 2

$$$$
=
 OpenBabel11062416463D

 28 32  0  0  1  0  0  0  0  0999 V2000
  186.4330  176.4560  137.0100 C   0  0  0  0  0  0  0  0  0  0  0  0
  183.4730  177.3470  136.1670 C   0  0  0  0  0  2  0  0  0  0  0  0
  185.6330  175.9480  135.8690 C   0  0  0  0  0  0  0  0  0  0  0  0
  184.1140  180.1960  139.0350 O   0  0  0  0  0  0  0  0  0  0  0  0
  184.8880  179.2520  139.0530 C   0  0  0  0  0  0  0  0  0  0  0  0
  186.0930  177.3870  137.8940 C   0  0  1  0  0  3  0  0  0  0  0  0
  188.1420  176.6850  138.5960 C   0  0  0  0  0  3  0  0  0  0  0  0
  188.1500  178.6290  140.8780 C   0  0  0  0  0  0  0  0  0  0  0  0
  184.2210  176.1730  135.7390 N   0  0  0  0  0  2  0  0  0  0  0  0
  187.1410  177.5040  138.8720 C   0  0  0  0  0  0  0  0  0  0  0  0
  188.5530  179.8070  141.0770 O   0  0  0  0  0  0  0  0  0  0  0  0
  186.1770  175.0770  135.0850 N   0  0  0  0  0  2  0  0  0  0  0  0
  183.6340  177.6030  137.6490 C   0  0  0  0  0  2  0  0  0  0  0  0
  187.0480  178.4020  139.9890 N   0  0  0  0  0  0  0  0  0  0  0  0
  184.9410  178.3370  137.8490 C   0  0  1  0  0  3  0  0  0  0  0  0
  187.7880  175.9100  137.3630 C   0  0  0  0  0  3  0  0  0  0  0  0
  185.7670  179.0590  140.2800 C   0  0  2  0  0  3  0  0  0  0  0  0
  183.2300  178.3370  141.2590 S   0  0  0  0  0  0  0  0  0  0  0  0
  182.9930  178.2900  143.0590 C   0  0  0  0  0  2  0  0  0  0  0  0
  184.3320  179.0150  144.9850 C   0  0  0  0  0  2  0  0  0  0  0  0
  185.0490  178.3640  141.4450 C   0  0  2  0  0  3  0  0  0  0  0  0
  184.2570  178.7570  143.6830 C   0  0  0  0  0  0  0  0  0  0  0  0
  185.4180  178.9700  142.7860 C   0  0  0  0  0  2  0  0  0  0  0  0
  188.1820  176.8610  142.5370 N   0  0  0  0  0  0  0  0  0  0  0  0
  190.3250  175.9400  142.1870 N   0  0  0  0  0  0  0  0  0  0  0  0
  190.0610  177.0200  141.3350 N   0  0  0  0  0  2  0  0  0  0  0  0
  188.7750  177.5160  141.6100 C   0  0  0  0  0  0  0  0  0  0  0  0
  189.0980  175.8230  142.9900 C   0  0  0  0  0  3  0  0  0  0  0  0
  1 16  2  0  0  0  0
  2 13  1  0  0  0  0
  3  1  1  0  0  0  0
  4  5  2  0  0  0  0
  6  1  1  6  0  0  0
  6 10  1  0  0  0  0
  7 10  2  0  0  0  0
  8 11  2  0  0  0  0
  8 27  1  0  0  0  0
  9  3  1  0  0  0  0
  9  2  1  0  0  0  0
 10 14  1  0  0  0  0
 12  3  2  0  0  0  0
 14 17  1  0  0  0  0
 14  8  1  0  0  0  0
 15 13  1  1  0  0  0
 15  6  1  0  0  0  0
 15  5  1  0  0  0  0
 16  7  1  0  0  0  0
 17  5  1  6  0  0  0
 17 21  1  0  0  0  0
 18 21  1  0  0  0  0
 18 19  1  0  0  0  0
 19 22  1  0  0  0  0
 21 23  1  1  0  0  0
 22 20  2  0  0  0  0
 23 22  1  0  0  0  0
 24 28  1  0  0  0  0
 25 28  2  0  0  0  0
 26 27  1  0  0  0  0
 26 25  1  0  0  0  0
 27 24  2  0  0  0  0
M  END
>  <MODEL>
5

>  <REMARK>
 VINA RESULT:      -5.5      2.394      6.713
  Name = 
  2 active torsions:
  status: ('A' for Active; 'I' for Inactive)
    1  A    between atoms: C_11  and  C_28
    2  A    between atoms: C_15  and  C_20
                            x       y       z     vdW  Elec       q    Type
                         _______ _______ _______ _____ _____    ______ ____

>  <TORSDO>
F 2

$$$$
=
 OpenBabel11062416463D

 28 32  0  0  1  0  0  0  0  0999 V2000
  187.4270  176.1590  136.9460 C   0  0  0  0  0  0  0  0  0  0  0  0
  185.9500  174.5330  134.6140 C   0  0  0  0  0  2  0  0  0  0  0  0
  188.0250  175.1510  136.0370 C   0  0  0  0  0  0  0  0  0  0  0  0
  182.9070  177.1230  135.4950 O   0  0  0  0  0  0  0  0  0  0  0  0
  183.7940  177.0540  136.3310 C   0  0  0  0  0  0  0  0  0  0  0  0
  186.1740  176.5990  136.9650 C   0  0  0  0  0  0  0  0  0  0  0  0
  187.1610  177.6760  138.7120 C   0  0  0  0  0  3  0  0  0  0  0  0
  184.6360  179.1510  139.3730 C   0  0  0  0  0  0  0  0  0  0  0  0
  187.2400  174.2580  135.2310 N   0  0  0  0  0  2  0  0  0  0  0  0
  186.0190  177.5140  138.0640 C   0  0  0  0  0  0  0  0  0  0  0  0
  184.1130  180.2570  139.0660 O   0  0  0  0  0  0  0  0  0  0  0  0
  189.2890  174.9080  136.1450 N   0  0  0  0  0  2  0  0  0  0  0  0
  184.9110  174.9240  135.6400 C   0  0  0  0  0  2  0  0  0  0  0  0
  184.7590  178.1290  138.3750 N   0  0  0  0  0  0  0  0  0  0  0  0
  185.0990  176.3930  135.9470 C   0  0  1  0  0  3  0  0  0  0  0  0
  188.1960  176.8090  138.0620 C   0  0  0  0  0  2  0  0  0  0  0  0
  183.5410  177.6530  137.7070 C   0  0  2  0  0  3  0  0  0  0  0  0
  182.0150  175.2900  137.7740 S   0  0  0  0  0  0  0  0  0  0  0  0
  180.6460  175.1930  138.9650 C   0  0  0  0  0  2  0  0  0  0  0  0
  179.5370  176.8130  140.4380 C   0  0  0  0  0  2  0  0  0  0  0  0
  182.7320  176.7350  138.6340 C   0  0  2  0  0  3  0  0  0  0  0  0
  180.5610  176.5090  139.6470 C   0  0  0  0  0  0  0  0  0  0  0  0
  181.6390  177.4890  139.3700 C   0  0  0  0  0  2  0  0  0  0  0  0
  186.0910  179.4390  141.2910 N   0  0  0  0  0  0  0  0  0  0  0  0
  184.9840  178.1280  142.9100 N   0  0  0  0  0  0  0  0  0  0  0  0
  184.3290  178.1140  141.6710 N   0  0  0  0  0  2  0  0  0  0  0  0
  185.0520  178.9080  140.7630 C   0  0  0  0  0  0  0  0  0  0  0  0
  186.1500  178.9930  142.6770 C   0  0  0  0  0  3  0  0  0  0  0  0
  1  6  2  0  0  0  0
  1 16  1  0  0  0  0
  2  9  1  0  0  0  0
  2 13  1  0  0  0  0
  3 12  2  0  0  0  0
  3  1  1  0  0  0  0
  4  5  2  0  0  0  0
  6 10  1  0  0  0  0
  8 27  1  0  0  0  0
  9  3  1  0  0  0  0
 10 14  1  0  0  0  0
 10  7  2  0  0  0  0
 11  8  2  0  0  0  0
 14  8  1  0  0  0  0
 15 13  1  1  0  0  0
 15  5  1  0  0  0  0
 15  6  1  0  0  0  0
 16  7  1  0  0  0  0
 17  5  1  6  0  0  0
 17 14  1  0  0  0  0
 17 21  1  0  0  0  0
 18 21  1  0  0  0  0
 18 19  1  0  0  0  0
 19 22  1  0  0  0  0
 21 23  1  6  0  0  0
 22 20  2  0  0  0  0
 23 22  1  0  0  0  0
 24 28  1  0  0  0  0
 26 25  1  0  0  0  0
 27 24  2  0  0  0  0
 27 26  1  0  0  0  0
 28 25  2  0  0  0  0
M  END
>  <MODEL>
6

>  <REMARK>
 VINA RESULT:      -5.5      2.788      5.843
  Name = 
  2 active torsions:
  status: ('A' for Active; 'I' for Inactive)
    1  A    between atoms: C_11  and  C_28
    2  A    between atoms: C_15  and  C_20
                            x       y       z     vdW  Elec       q    Type
                         _______ _______ _______ _____ _____    ______ ____

>  <TORSDO>
F 2

$$$$
=
 OpenBabel11062416463D

 28 32  0  0  1  0  0  0  0  0999 V2000
  182.7610  178.6020  142.3090 C   0  0  0  0  0  0  0  0  0  0  0  0
  179.8000  179.7700  142.6780 C   0  0  0  0  0  2  0  0  0  0  0  0
  182.1780  179.2020  143.5340 C   0  0  0  0  0  0  0  0  0  0  0  0
  179.2790  178.0990  138.9790 O   0  0  0  0  0  0  0  0  0  0  0  0
  180.4400  178.2330  139.3330 C   0  0  0  0  0  0  0  0  0  0  0  0
  182.1710  178.4130  141.1340 C   0  0  0  0  0  0  0  0  0  0  0  0
  184.3060  177.6930  140.8010 C   0  0  0  0  0  3  0  0  0  0  0  0
  183.7210  176.9250  137.9620 C   0  0  0  0  0  0  0  0  0  0  0  0
  180.9630  179.9680  143.5320 N   0  0  0  0  0  2  0  0  0  0  0  0
  183.1340  177.8740  140.2120 C   0  0  0  0  0  0  0  0  0  0  0  0
  183.3410  175.8890  137.3530 O   0  0  0  0  0  0  0  0  0  0  0  0
  182.9070  179.2370  144.6000 N   0  0  0  0  0  2  0  0  0  0  0  0
  180.1600  179.8630  141.2120 C   0  0  0  0  0  2  0  0  0  0  0  0
  182.8110  177.6000  138.8410 N   0  0  0  0  0  0  0  0  0  0  0  0
  180.7210  178.5230  140.7920 C   0  0  1  0  0  3  0  0  0  0  0  0
  184.1920  178.1530  142.2230 C   0  0  0  0  0  2  0  0  0  0  0  0
  181.5390  178.0850  138.2910 C   0  0  2  0  0  3  0  0  0  0  0  0
  181.4670  180.8970  138.3750 S   0  0  0  0  0  0  0  0  0  0  0  0
  181.0020  181.7830  136.8590 C   0  0  0  0  0  2  0  0  0  0  0  0
  180.0880  181.1010  134.6850 C   0  0  0  0  0  2  0  0  0  0  0  0
  181.7540  179.3490  137.4460 C   0  0  2  0  0  3  0  0  0  0  0  0
  180.6520  180.7610  135.8400 C   0  0  0  0  0  0  0  0  0  0  0  0
  180.9100  179.3420  136.1850 C   0  0  0  0  0  2  0  0  0  0  0  0
  186.0240  176.7600  137.2240 N   0  0  0  0  0  0  0  0  0  0  0  0
  186.7750  178.9710  137.5560 N   0  0  0  0  0  0  0  0  0  0  0  0
  185.4370  178.7980  137.9320 N   0  0  0  0  0  2  0  0  0  0  0  0
  185.0700  177.4590  137.7130 C   0  0  0  0  0  0  0  0  0  0  0  0
  187.1810  177.6360  137.0900 C   0  0  0  0  0  3  0  0  0  0  0  0
  1  3  1  0  0  0  0
  2  9  1  0  0  0  0
  3 12  2  0  0  0  0
  4  5  2  0  0  0  0
  5 15  1  0  0  0  0
  6  1  2  0  0  0  0
  7 16  1  0  0  0  0
  8 14  1  0  0  0  0
  9  3  1  0  0  0  0
 10  7  2  0  0  0  0
 10  6  1  0  0  0  0
 11  8  2  0  0  0  0
 13  2  1  0  0  0  0
 14 10  1  0  0  0  0
 15  6  1  0  0  0  0
 15 13  1  6  0  0  0
 16  1  1  0  0  0  0
 17 14  1  0  0  0  0
 17  5  1  1  0  0  0
 19 18  1  0  0  0  0
 20 22  2  0  0  0  0
 21 23  1  6  0  0  0
 21 17  1  0  0  0  0
 21 18  1  0  0  0  0
 22 23  1  0  0  0  0
 22 19  1  0  0  0  0
 24 27  2  0  0  0  0
 25 26  1  0  0  0  0
 27 26  1  0  0  0  0
 27  8  1  0  0  0  0
 28 24  1  0  0  0  0
 28 25  2  0  0  0  0
M  END
>  <MODEL>
7

>  <REMARK>
 VINA RESULT:      -5.4      3.764      6.467
  Name = 
  2 active torsions:
  status: ('A' for Active; 'I' for Inactive)
    1  A    between atoms: C_11  and  C_28
    2  A    between atoms: C_15  and  C_20
                            x       y       z     vdW  Elec       q    Type
                         _______ _______ _______ _____ _____    ______ ____

>  <TORSDO>
F 2

$$$$
=
 OpenBabel11062416463D

 28 32  0  0  1  0  0  0  0  0999 V2000
  187.0800  178.3940  140.8120 C   0  0  0  0  0  0  0  0  0  0  0  0
  189.3280  177.1810  138.8780 C   0  0  0  0  0  2  0  0  0  0  0  0
  188.4850  178.0700  141.1610 C   0  0  0  0  0  0  0  0  0  0  0  0
  186.4730  177.8920  136.0330 O   0  0  0  0  0  0  0  0  0  0  0  0
  186.0770  177.9120  137.1880 C   0  0  0  0  0  0  0  0  0  0  0  0
  186.4810  178.2650  139.6340 C   0  0  0  0  0  0  0  0  0  0  0  0
  184.8280  179.0050  141.0130 C   0  0  0  0  0  3  0  0  0  0  0  0
  182.8280  179.0410  138.7780 C   0  0  0  0  0  0  0  0  0  0  0  0
  189.3320  177.2580  140.3320 N   0  0  0  0  0  2  0  0  0  0  0  0
  185.0960  178.6230  139.7750 C   0  0  0  0  0  0  0  0  0  0  0  0
  182.4150  179.8800  137.9320 O   0  0  0  0  0  0  0  0  0  0  0  0
  188.8910  178.3310  142.3590 N   0  0  0  0  0  2  0  0  0  0  0  0
  187.9760  176.7630  138.3440 C   0  0  0  0  0  2  0  0  0  0  0  0
  184.1700  178.5440  138.6800 N   0  0  0  0  0  0  0  0  0  0  0  0
  187.0990  177.9940  138.3010 C   0  0  1  0  0  3  0  0  0  0  0  0
  186.0840  178.8900  141.8220 C   0  0  0  0  0  2  0  0  0  0  0  0
  184.5770  177.8700  137.4410 C   0  0  2  0  0  3  0  0  0  0  0  0
  185.1930  175.1920  136.8400 S   0  0  0  0  0  0  0  0  0  0  0  0
  183.8810  174.1530  136.1330 C   0  0  0  0  0  2  0  0  0  0  0  0
  181.6330  174.5940  135.2500 C   0  0  0  0  0  2  0  0  0  0  0  0
  183.9830  176.4570  137.3660 C   0  0  2  0  0  3  0  0  0  0  0  0
  182.6930  175.0210  135.9300 C   0  0  0  0  0  0  0  0  0  0  0  0
  182.7580  176.3990  136.4720 C   0  0  0  0  0  2  0  0  0  0  0  0
  181.3510  179.2960  140.6830 N   0  0  0  0  0  0  0  0  0  0  0  0
  180.6010  177.0800  140.9850 N   0  0  0  0  0  0  0  0  0  0  0  0
  181.5050  177.1990  139.9210 N   0  0  0  0  0  2  0  0  0  0  0  0
  181.9090  178.5410  139.8130 C   0  0  0  0  0  0  0  0  0  0  0  0
  180.4900  178.4530  141.5030 C   0  0  0  0  0  3  0  0  0  0  0  0
  1  3  1  0  0  0  0
  1 16  1  0  0  0  0
  2  9  1  0  0  0  0
  3 12  2  0  0  0  0
  4  5  2  0  0  0  0
  5 15  1  0  0  0  0
  6 10  1  0  0  0  0
  6  1  2  0  0  0  0
  7 16  1  0  0  0  0
  8 27  1  0  0  0  0
  9  3  1  0  0  0  0
 10  7  2  0  0  0  0
 11  8  2  0  0  0  0
 13  2  1  0  0  0  0
 14  8  1  0  0  0  0
 14 10  1  0  0  0  0
 15 13  1  1  0  0  0
 15  6  1  0  0  0  0
 17  5  1  1  0  0  0
 17 14  1  0  0  0  0
 18 21  1  0  0  0  0
 19 18  1  0  0  0  0
 20 22  2  0  0  0  0
 21 23  1  6  0  0  0
 21 17  1  0  0  0  0
 22 19  1  0  0  0  0
 22 23  1  0  0  0  0
 24 28  1  0  0  0  0
 25 28  2  0  0  0  0
 26 25  1  0  0  0  0
 27 26  1  0  0  0  0
 27 24  2  0  0  0  0
M  END
>  <MODEL>
8

>  <REMARK>
 VINA RESULT:      -5.3      2.063      2.725
  Name = 
  2 active torsions:
  status: ('A' for Active; 'I' for Inactive)
    1  A    between atoms: C_11  and  C_28
    2  A    between atoms: C_15  and  C_20
                            x       y       z     vdW  Elec       q    Type
                         _______ _______ _______ _____ _____    ______ ____

>  <TORSDO>
F 2

$$$$
=
 OpenBabel11062416463D

 28 32  0  0  1  0  0  0  0  0999 V2000
  185.8160  178.2710  142.5440 C   0  0  0  0  0  0  0  0  0  0  0  0
  188.5520  177.8930  140.9200 C   0  0  0  0  0  2  0  0  0  0  0  0
  187.1600  177.9810  143.1020 C   0  0  0  0  0  0  0  0  0  0  0  0
  186.2300  179.1730  137.8020 O   0  0  0  0  0  0  0  0  0  0  0  0
  185.6190  178.8120  138.7960 C   0  0  0  0  0  0  0  0  0  0  0  0
  185.4840  178.4490  141.2710 C   0  0  0  0  0  0  0  0  0  0  0  0
  183.5020  178.5960  142.3820 C   0  0  0  0  0  3  0  0  0  0  0  0
  181.9920  179.1260  139.8470 C   0  0  0  0  0  0  0  0  0  0  0  0
  188.2620  177.5310  142.3000 N   0  0  0  0  0  2  0  0  0  0  0  0
  184.0590  178.6270  141.1830 C   0  0  0  0  0  0  0  0  0  0  0  0
  181.6300  180.1400  139.1910 O   0  0  0  0  0  0  0  0  0  0  0  0
  187.2810  177.9050  144.3860 N   0  0  0  0  0  2  0  0  0  0  0  0
  187.4080  177.5390  139.9960 C   0  0  0  0  0  2  0  0  0  0  0  0
  183.3860  178.8000  139.9260 N   0  0  0  0  0  0  0  0  0  0  0  0
  186.3810  178.6450  140.0920 C   0  0  1  0  0  3  0  0  0  0  0  0
  184.5800  178.3530  143.3950 C   0  0  0  0  0  2  0  0  0  0  0  0
  184.1220  178.5660  138.6770 C   0  0  2  0  0  3  0  0  0  0  0  0
  185.1760  176.4000  137.2240 S   0  0  0  0  0  0  0  0  0  0  0  0
  184.0550  175.4830  136.1280 C   0  0  0  0  0  2  0  0  0  0  0  0
  181.7640  175.8470  135.3240 C   0  0  0  0  0  2  0  0  0  0  0  0
  183.7720  177.1940  138.0850 C   0  0  2  0  0  3  0  0  0  0  0  0
  182.7380  176.1690  136.1690 C   0  0  0  0  0  0  0  0  0  0  0  0
  182.5730  177.2620  137.1570 C   0  0  0  0  0  2  0  0  0  0  0  0
  180.7760  177.0460  140.1140 N   0  0  0  0  0  0  0  0  0  0  0  0
  179.3330  177.5820  141.9010 N   0  0  0  0  0  0  0  0  0  0  0  0
  180.1540  178.6550  141.5360 N   0  0  0  0  0  2  0  0  0  0  0  0
  180.9740  178.2610  140.4650 C   0  0  0  0  0  0  0  0  0  0  0  0
  179.7260  176.5110  140.9710 C   0  0  0  0  0  3  0  0  0  0  0  0
  1  3  1  0  0  0  0
  1 16  1  0  0  0  0
  2  9  1  0  0  0  0
  3 12  2  0  0  0  0
  4  5  2  0  0  0  0
  5 15  1  0  0  0  0
  6  1  2  0  0  0  0
  7 16  1  0  0  0  0
  8 14  1  0  0  0  0
  8 27  1  0  0  0  0
  9  3  1  0  0  0  0
 10  6  1  0  0  0  0
 10  7  2  0  0  0  0
 11  8  2  0  0  0  0
 13  2  1  0  0  0  0
 14 10  1  0  0  0  0
 15 13  1  6  0  0  0
 15  6  1  0  0  0  0
 17  5  1  1  0  0  0
 17 14  1  0  0  0  0
 18 21  1  0  0  0  0
 19 22  1  0  0  0  0
 19 18  1  0  0  0  0
 20 22  2  0  0  0  0
 21 23  1  6  0  0  0
 21 17  1  0  0  0  0
 22 23  1  0  0  0  0
 24 27  2  0  0  0  0
 24 28  1  0  0  0  0
 26 25  1  0  0  0  0
 27 26  1  0  0  0  0
 28 25  2  0  0  0  0
M  END
>  <MODEL>
9

>  <REMARK>
 VINA RESULT:      -5.3      1.968      2.595
  Name = 
  2 active torsions:
  status: ('A' for Active; 'I' for Inactive)
    1  A    between atoms: C_11  and  C_28
    2  A    between atoms: C_15  and  C_20
                            x       y       z     vdW  Elec       q    Type
                         _______ _______ _______ _____ _____    ______ ____

>  <TORSDO>
F 2

$$$$
