=
 OpenBabel11062413223D

 46 52  0  0  1  0  0  0  0  0999 V2000
  188.0160  177.1780  139.9730 C   0  0  0  0  0  2  0  0  0  0  0  0
  189.2690  176.4670  139.9890 C   0  0  1  0  0  3  0  0  0  0  0  0
  189.4440  176.8740  138.5700 C   0  0  2  0  0  3  0  0  0  0  0  0
  191.8140  176.8250  138.7020 C   0  0  0  0  0  2  0  0  0  0  0  0
  192.7200  177.7160  140.8610 O   0  0  0  0  0  1  0  0  0  0  0  0
  190.5640  177.0850  137.9010 C   0  0  0  0  0  2  0  0  0  0  0  0
  190.4050  177.0960  140.7650 C   0  0  0  0  0  0  0  0  0  0  0  0
  188.0490  177.3470  138.5290 N   0  0  2  0  0  0  0  0  0  0  0  0
  191.6240  177.2280  140.1600 C   0  0  0  0  0  0  0  0  0  0  0  0
  184.7130  177.7220  137.9550 C   0  0  2  0  0  3  0  0  0  0  0  0
  183.5210  176.4460  136.3410 C   0  0  0  0  0  2  0  0  0  0  0  0
  183.7590  175.9330  134.9400 C   0  0  0  0  0  2  0  0  0  0  0  0
  185.9650  178.5830  138.1770 C   0  0  0  0  0  2  0  0  0  0  0  0
  184.4000  177.6010  136.5200 N   0  0  2  0  0  0  0  0  0  0  0  0
  187.9270  176.7670  135.5790 O   0  0  0  0  0  1  0  0  0  0  0  0
  185.2110  176.2540  134.6590 C   0  0  0  0  0  2  0  0  0  0  0  0
  186.8430  176.9210  136.4460 C   0  0  2  0  0  3  0  0  0  0  0  0
  185.5860  177.3410  135.6610 C   0  0  2  0  0  3  0  0  0  0  0  0
  187.1970  177.9560  137.5200 C   0  0  2  0  0  3  0  0  0  0  0  0
  181.3500  178.9180  140.1010 C   0  0  0  0  0  2  0  0  0  0  0  0
  183.5380  178.1960  138.7110 N   0  0  1  0  0  0  0  0  0  0  0  0
  181.5570  181.1800  139.2960 O   0  0  0  0  0  1  0  0  0  0  0  0
  182.8760  177.0820  140.7880 C   0  0  0  0  0  2  0  0  0  0  0  0
  182.5650  178.5550  140.9730 C   0  0  1  0  0  3  0  0  0  0  0  0
  183.7920  178.1090  140.1580 C   0  0  2  0  0  3  0  0  0  0  0  0
  181.7070  179.8400  138.9250 C   0  0  1  0  0  3  0  0  0  0  0  0
  184.0280  180.5250  138.7950 O   0  0  0  0  0  1  0  0  0  0  0  0
  183.1080  179.5650  138.3430 C   0  0  1  0  0  3  0  0  0  0  0  0
  190.1690  177.4180  142.2210 C   0  0  2  0  0  3  0  0  0  0  0  0
  191.5910  175.8200  143.6280 C   0  0  0  0  0  1  0  0  0  0  0  0
  191.4230  177.2360  143.0850 C   0  0  2  0  0  3  0  0  0  0  0  0
  191.7070  177.8240  145.4920 O   0  0  0  0  0  1  0  0  0  0  0  0
  191.3240  179.4730  143.9520 O   0  0  0  0  0  0  0  0  0  0  0  0
  191.4770  178.2450  144.1900 C   0  0  0  0  0  0  0  0  0  0  0  0
  188.9000  176.8000  142.8060 C   0  0  0  0  0  2  0  0  0  0  0  0
  187.9480  177.8420  143.1530 N   0  0  0  0  0  2  0  0  0  0  0  0
  187.4500  177.7200  146.8810 C   0  0  0  0  0  0  0  0  0  0  0  0
  184.1640  178.7850  146.1900 O   0  0  0  0  0  0  0  0  0  0  0  0
  187.3190  177.9670  144.4350 C   0  0  0  0  0  0  0  0  0  0  0  0
  185.3630  178.4530  145.9760 C   0  0  0  0  0  0  0  0  0  0  0  0
  185.9130  178.4170  144.6100 C   0  0  0  0  0  0  0  0  0  0  0  0
  185.2030  178.7690  143.6350 O   0  0  0  0  0  0  0  0  0  0  0  0
  186.2110  178.0890  147.0700 N   0  0  0  0  0  0  0  0  0  0  0  0
  188.0280  177.6380  145.5170 C   0  0  0  0  0  3  0  0  0  0  0  0
  188.2740  177.3010  148.0420 C   0  0  0  0  0  2  0  0  0  0  0  0
  189.3140  178.2100  148.2310 O   0  0  0  0  0  1  0  0  0  0  0  0
  2  1  1  1  0  0  0
  2  7  1  0  0  0  0
  3  6  1  1  0  0  0
  3  2  1  0  0  0  0
  4  9  1  0  0  0  0
  6  4  1  0  0  0  0
  7 29  1  0  0  0  0
  8  3  1  0  0  0  0
  8  1  1  1  0  0  0
  9  7  2  0  0  0  0
  9  5  1  0  0  0  0
 10 13  1  6  0  0  0
 12 11  1  0  0  0  0
 14 11  1  1  0  0  0
 14 10  1  0  0  0  0
 16 12  1  0  0  0  0
 17 15  1  6  0  0  0
 17 19  1  0  0  0  0
 18 16  1  6  0  0  0
 18 17  1  0  0  0  0
 18 14  1  0  0  0  0
 19 13  1  1  0  0  0
 19  8  1  0  0  0  0
 21 10  1  6  0  0  0
 21 25  1  0  0  0  0
 23 24  1  0  0  0  0
 24 20  1  6  0  0  0
 25 23  1  1  0  0  0
 25 24  1  0  0  0  0
 26 22  1  1  0  0  0
 26 20  1  0  0  0  0
 28 21  1  0  0  0  0
 28 27  1  1  0  0  0
 28 26  1  0  0  0  0
 29 35  1  1  0  0  0
 29 31  1  0  0  0  0
 31 30  1  1  0  0  0
 31 34  1  0  0  0  0
 33 34  2  0  0  0  0
 34 32  1  0  0  0  0
 35 36  1  0  0  0  0
 36 39  1  0  0  0  0
 37 43  2  0  0  0  0
 37 45  1  0  0  0  0
 39 41  1  0  0  0  0
 39 44  2  0  0  0  0
 40 38  2  0  0  0  0
 40 43  1  0  0  0  0
 41 40  1  0  0  0  0
 42 41  2  0  0  0  0
 44 37  1  0  0  0  0
 45 46  1  0  0  0  0
M  END
>  <MODEL>
1

>  <REMARK>
 VINA RESULT:      -8.5      0.000      0.000
  Name = 
  9 active torsions:
  status: ('A' for Active; 'I' for Inactive)
    1  A    between atoms: CA_2  and  C_6
    2  A    between atoms: C_7  and  C_20
    3  A    between atoms: C_7  and  C_21
    4  A    between atoms: C_7  and  C_34
    5  A    between atoms: C_10  and  N_13
    6  A    between atoms: C_12  and  N_29
    7  A    between atoms: C_20  and  N_29
    8  A    between atoms: C_21  and  C_27
    9  A    between atoms: N_38  and  C_44
                            x       y       z     vdW  Elec       q    Type
                         _______ _______ _______ _____ _____    ______ ____

>  <TORSDO>
F 9

$$$$
=
 OpenBabel11062413223D

 46 52  0  0  1  0  0  0  0  0999 V2000
  184.7570  178.6360  141.4130 C   0  0  0  0  0  2  0  0  0  0  0  0
  185.2500  179.1890  142.6490 C   0  0  1  0  0  3  0  0  0  0  0  0
  183.9030  178.9320  143.2240 C   0  0  2  0  0  3  0  0  0  0  0  0
  184.7390  178.6880  145.4320 C   0  0  0  0  0  2  0  0  0  0  0  0
  186.9140  177.4510  145.5530 O   0  0  0  0  0  1  0  0  0  0  0  0
  183.5730  178.6720  144.4770 C   0  0  0  0  0  2  0  0  0  0  0  0
  186.2270  178.3440  143.4360 C   0  0  0  0  0  0  0  0  0  0  0  0
  183.3800  178.6350  141.8790 N   0  0  2  0  0  0  0  0  0  0  0  0
  185.9990  178.1420  144.7700 C   0  0  0  0  0  0  0  0  0  0  0  0
  182.0070  178.0690  138.8140 C   0  0  2  0  0  3  0  0  0  0  0  0
  180.5590  179.6150  137.7330 C   0  0  0  0  0  2  0  0  0  0  0  0
  179.4280  180.5350  138.1300 C   0  0  0  0  0  2  0  0  0  0  0  0
  182.2680  177.3270  140.1330 C   0  0  0  0  0  2  0  0  0  0  0  0
  180.6210  178.5640  138.7480 N   0  0  2  0  0  0  0  0  0  0  0  0
  180.7310  180.0260  142.1950 O   0  0  0  0  0  1  0  0  0  0  0  0
  179.4000  180.4740  139.6420 C   0  0  0  0  0  2  0  0  0  0  0  0
  181.2660  179.5060  141.0140 C   0  0  2  0  0  3  0  0  0  0  0  0
  180.1420  179.1930  140.0080 C   0  0  2  0  0  3  0  0  0  0  0  0
  182.0850  178.2520  141.3390 C   0  0  2  0  0  3  0  0  0  0  0  0
  183.0090  175.9250  135.3870 C   0  0  0  0  0  2  0  0  0  0  0  0
  182.3360  177.2680  137.6200 N   0  0  1  0  0  0  0  0  0  0  0  0
  181.2410  174.3350  135.7820 O   0  0  0  0  0  1  0  0  0  0  0  0
  184.6240  177.2300  136.7510 C   0  0  0  0  0  2  0  0  0  0  0  0
  184.0530  175.8440  136.5140 C   0  0  1  0  0  3  0  0  0  0  0  0
  183.6630  176.6510  137.7660 C   0  0  2  0  0  3  0  0  0  0  0  0
  181.5730  175.6910  135.8780 C   0  0  1  0  0  3  0  0  0  0  0  0
  181.3380  175.1960  138.2390 O   0  0  0  0  0  1  0  0  0  0  0  0
  181.3210  176.2380  137.2980 C   0  0  1  0  0  3  0  0  0  0  0  0
  187.4820  177.8840  142.7370 C   0  0  2  0  0  3  0  0  0  0  0  0
  189.6780  178.6640  143.7990 C   0  0  0  0  0  1  0  0  0  0  0  0
  188.6260  177.5630  143.7070 C   0  0  2  0  0  3  0  0  0  0  0  0
  190.6270  176.0840  143.5390 O   0  0  0  0  0  1  0  0  0  0  0  0
  188.5570  175.2690  143.0030 O   0  0  0  0  0  0  0  0  0  0  0  0
  189.2550  176.2420  143.3920 C   0  0  0  0  0  0  0  0  0  0  0  0
  187.8880  178.7430  141.5400 C   0  0  0  0  0  2  0  0  0  0  0  0
  187.8440  177.9570  140.3190 N   0  0  0  0  0  2  0  0  0  0  0  0
  191.4370  177.0800  139.6250 C   0  0  0  0  0  0  0  0  0  0  0  0
  190.1930  175.4840  136.7410 O   0  0  0  0  0  0  0  0  0  0  0  0
  188.9950  177.3930  139.6790 C   0  0  0  0  0  0  0  0  0  0  0  0
  190.1820  176.1230  137.8310 C   0  0  0  0  0  0  0  0  0  0  0  0
  188.9210  176.6040  138.4200 C   0  0  0  0  0  0  0  0  0  0  0  0
  187.8250  176.3390  137.8670 O   0  0  0  0  0  0  0  0  0  0  0  0
  191.4110  176.4030  138.5090 N   0  0  0  0  0  0  0  0  0  0  0  0
  190.1900  177.6110  140.2310 C   0  0  0  0  0  3  0  0  0  0  0  0
  192.7400  177.3900  140.2630 C   0  0  0  0  0  2  0  0  0  0  0  0
  193.7790  177.0600  139.3920 O   0  0  0  0  0  1  0  0  0  0  0  0
  2  1  1  6  0  0  0
  2  3  1  0  0  0  0
  2  7  1  0  0  0  0
  3  6  1  1  0  0  0
  6  4  1  0  0  0  0
  7  9  2  0  0  0  0
  8  1  1  1  0  0  0
  8  3  1  0  0  0  0
  9  4  1  0  0  0  0
  9  5  1  0  0  0  0
 10 13  1  1  0  0  0
 11 12  1  0  0  0  0
 12 16  1  0  0  0  0
 14 11  1  6  0  0  0
 14 10  1  0  0  0  0
 14 18  1  0  0  0  0
 17 19  1  0  0  0  0
 17 15  1  1  0  0  0
 18 16  1  6  0  0  0
 18 17  1  0  0  0  0
 19 13  1  6  0  0  0
 19  8  1  0  0  0  0
 20 26  1  0  0  0  0
 21 25  1  0  0  0  0
 21 10  1  1  0  0  0
 24 20  1  6  0  0  0
 24 23  1  0  0  0  0
 24 25  1  0  0  0  0
 25 23  1  6  0  0  0
 26 22  1  1  0  0  0
 26 28  1  0  0  0  0
 28 21  1  0  0  0  0
 28 27  1  1  0  0  0
 29 35  1  6  0  0  0
 29  7  1  0  0  0  0
 29 31  1  0  0  0  0
 31 30  1  6  0  0  0
 33 34  2  0  0  0  0
 34 32  1  0  0  0  0
 34 31  1  0  0  0  0
 36 35  1  0  0  0  0
 37 44  1  0  0  0  0
 37 45  1  0  0  0  0
 38 40  2  0  0  0  0
 39 44  2  0  0  0  0
 39 36  1  0  0  0  0
 40 41  1  0  0  0  0
 40 43  1  0  0  0  0
 41 39  1  0  0  0  0
 42 41  2  0  0  0  0
 43 37  2  0  0  0  0
 46 45  1  0  0  0  0
M  END
>  <MODEL>
2

>  <REMARK>
 VINA RESULT:      -8.4      2.420      6.551
  Name = 
  9 active torsions:
  status: ('A' for Active; 'I' for Inactive)
    1  A    between atoms: CA_2  and  C_6
    2  A    between atoms: C_7  and  C_20
    3  A    between atoms: C_7  and  C_21
    4  A    between atoms: C_7  and  C_34
    5  A    between atoms: C_10  and  N_13
    6  A    between atoms: C_12  and  N_29
    7  A    between atoms: C_20  and  N_29
    8  A    between atoms: C_21  and  C_27
    9  A    between atoms: N_38  and  C_44
                            x       y       z     vdW  Elec       q    Type
                         _______ _______ _______ _____ _____    ______ ____

>  <TORSDO>
F 9

$$$$
=
 OpenBabel11062413223D

 46 52  0  0  1  0  0  0  0  0999 V2000
  186.0760  178.4740  142.2540 C   0  0  0  0  0  2  0  0  0  0  0  0
  186.4480  178.9710  143.5550 C   0  0  1  0  0  3  0  0  0  0  0  0
  185.0800  178.6100  144.0120 C   0  0  2  0  0  3  0  0  0  0  0  0
  185.7700  178.2680  146.2580 C   0  0  0  0  0  2  0  0  0  0  0  0
  187.9950  177.1380  146.4660 O   0  0  0  0  0  1  0  0  0  0  0  0
  184.6780  178.2530  145.2190 C   0  0  0  0  0  2  0  0  0  0  0  0
  187.4120  178.1280  144.3610 C   0  0  0  0  0  0  0  0  0  0  0  0
  184.6720  178.3720  142.6160 N   0  0  2  0  0  0  0  0  0  0  0  0
  187.1020  177.8300  145.6590 C   0  0  0  0  0  0  0  0  0  0  0  0
  183.3560  178.4470  139.4750 C   0  0  2  0  0  3  0  0  0  0  0  0
  181.6760  179.9920  138.8060 C   0  0  0  0  0  2  0  0  0  0  0  0
  180.4260  180.5930  139.4030 C   0  0  0  0  0  2  0  0  0  0  0  0
  183.7450  177.4270  140.5560 C   0  0  0  0  0  2  0  0  0  0  0  0
  181.9100  178.7290  139.5070 N   0  0  2  0  0  0  0  0  0  0  0  0
  181.8480  179.2180  143.2190 O   0  0  0  0  0  1  0  0  0  0  0  0
  180.4290  180.1280  140.8430 C   0  0  0  0  0  2  0  0  0  0  0  0
  182.4390  179.1180  141.9580 C   0  0  2  0  0  3  0  0  0  0  0  0
  181.3610  178.9210  140.8760 C   0  0  2  0  0  3  0  0  0  0  0  0
  183.4410  177.9580  141.9590 C   0  0  2  0  0  3  0  0  0  0  0  0
  184.6430  177.4580  135.6400 C   0  0  0  0  0  2  0  0  0  0  0  0
  183.7850  178.0510  138.1200 N   0  0  1  0  0  0  0  0  0  0  0  0
  182.8670  175.8500  135.3840 O   0  0  0  0  0  1  0  0  0  0  0  0
  186.1340  178.2530  137.4620 C   0  0  0  0  0  2  0  0  0  0  0  0
  185.5970  177.0170  136.7630 C   0  0  1  0  0  3  0  0  0  0  0  0
  185.1030  177.4000  138.1700 C   0  0  2  0  0  3  0  0  0  0  0  0
  183.1760  177.1040  135.9210 C   0  0  1  0  0  3  0  0  0  0  0  0
  182.7630  175.9040  137.9860 O   0  0  0  0  0  1  0  0  0  0  0  0
  182.8090  177.1870  137.4170 C   0  0  1  0  0  3  0  0  0  0  0  0
  188.7380  177.7790  143.7300 C   0  0  2  0  0  3  0  0  0  0  0  0
  190.7350  179.3630  143.9690 C   0  0  0  0  0  1  0  0  0  0  0  0
  189.9390  178.2140  144.5790 C   0  0  2  0  0  3  0  0  0  0  0  0
  191.6800  177.1280  145.9960 O   0  0  0  0  0  1  0  0  0  0  0  0
  190.8100  176.0090  144.2000 O   0  0  0  0  0  0  0  0  0  0  0  0
  190.8290  177.0540  144.9020 C   0  0  0  0  0  0  0  0  0  0  0  0
  188.8460  178.1370  142.2480 C   0  0  0  0  0  2  0  0  0  0  0  0
  189.1620  176.9530  141.4670 N   0  0  0  0  0  2  0  0  0  0  0  0
  190.3140  176.7130  137.8930 C   0  0  0  0  0  0  0  0  0  0  0  0
  193.5550  177.1280  139.2090 O   0  0  0  0  0  0  0  0  0  0  0  0
  190.0300  176.9460  140.3280 C   0  0  0  0  0  0  0  0  0  0  0  0
  192.2960  177.0350  139.1890 C   0  0  0  0  0  0  0  0  0  0  0  0
  191.5040  177.1150  140.4280 C   0  0  0  0  0  0  0  0  0  0  0  0
  192.0740  177.3300  141.5270 O   0  0  0  0  0  0  0  0  0  0  0  0
  191.6140  176.8350  137.9470 N   0  0  0  0  0  0  0  0  0  0  0  0
  189.4860  176.7520  139.1240 C   0  0  0  0  0  3  0  0  0  0  0  0
  189.6570  176.4530  136.5880 C   0  0  0  0  0  2  0  0  0  0  0  0
  188.7000  175.4490  136.7360 O   0  0  0  0  0  1  0  0  0  0  0  0
  2  1  1  6  0  0  0
  2  3  1  0  0  0  0
  2  7  1  0  0  0  0
  3  6  1  1  0  0  0
  6  4  1  0  0  0  0
  7  9  2  0  0  0  0
  8  1  1  1  0  0  0
  8  3  1  0  0  0  0
  9  4  1  0  0  0  0
  9  5  1  0  0  0  0
 10 14  1  0  0  0  0
 10 13  1  1  0  0  0
 11 12  1  0  0  0  0
 12 16  1  0  0  0  0
 14 11  1  6  0  0  0
 14 18  1  0  0  0  0
 17 19  1  0  0  0  0
 17 15  1  1  0  0  0
 18 16  1  6  0  0  0
 18 17  1  0  0  0  0
 19 13  1  6  0  0  0
 19  8  1  0  0  0  0
 20 26  1  0  0  0  0
 21 25  1  0  0  0  0
 21 10  1  1  0  0  0
 24 20  1  6  0  0  0
 24 23  1  0  0  0  0
 24 25  1  0  0  0  0
 25 23  1  6  0  0  0
 26 22  1  1  0  0  0
 26 28  1  0  0  0  0
 28 27  1  1  0  0  0
 28 21  1  0  0  0  0
 29 35  1  6  0  0  0
 29  7  1  0  0  0  0
 29 31  1  0  0  0  0
 31 30  1  6  0  0  0
 31 34  1  0  0  0  0
 33 34  2  0  0  0  0
 34 32  1  0  0  0  0
 36 35  1  0  0  0  0
 37 43  2  0  0  0  0
 37 44  1  0  0  0  0
 39 41  1  0  0  0  0
 39 36  1  0  0  0  0
 40 38  2  0  0  0  0
 40 41  1  0  0  0  0
 41 42  2  0  0  0  0
 43 40  1  0  0  0  0
 44 39  2  0  0  0  0
 45 46  1  0  0  0  0
 45 37  1  0  0  0  0
M  END
>  <MODEL>
3

>  <REMARK>
 VINA RESULT:      -8.3      1.967      6.547
  Name = 
  9 active torsions:
  status: ('A' for Active; 'I' for Inactive)
    1  A    between atoms: CA_2  and  C_6
    2  A    between atoms: C_7  and  C_20
    3  A    between atoms: C_7  and  C_21
    4  A    between atoms: C_7  and  C_34
    5  A    between atoms: C_10  and  N_13
    6  A    between atoms: C_12  and  N_29
    7  A    between atoms: C_20  and  N_29
    8  A    between atoms: C_21  and  C_27
    9  A    between atoms: N_38  and  C_44
                            x       y       z     vdW  Elec       q    Type
                         _______ _______ _______ _____ _____    ______ ____

>  <TORSDO>
F 9

$$$$
=
 OpenBabel11062413223D

 46 52  0  0  1  0  0  0  0  0999 V2000
  188.3310  177.4570  141.8510 C   0  0  0  0  0  2  0  0  0  0  0  0
  188.7270  176.7940  143.0680 C   0  0  1  0  0  3  0  0  0  0  0  0
  190.1360  176.9730  142.6280 C   0  0  2  0  0  3  0  0  0  0  0  0
  190.9710  177.0140  144.8500 C   0  0  0  0  0  2  0  0  0  0  0  0
  189.5070  178.2650  146.4520 O   0  0  0  0  0  1  0  0  0  0  0  0
  191.2240  177.1060  143.3670 C   0  0  0  0  0  2  0  0  0  0  0  0
  188.5710  177.5720  144.3550 C   0  0  0  0  0  0  0  0  0  0  0  0
  189.6720  177.3930  141.2940 N   0  0  2  0  0  0  0  0  0  0  0  0
  189.6300  177.6400  145.2180 C   0  0  0  0  0  0  0  0  0  0  0  0
  189.4170  176.7040  137.9680 C   0  0  2  0  0  3  0  0  0  0  0  0
  190.9650  175.3230  136.8050 C   0  0  0  0  0  2  0  0  0  0  0  0
  192.4590  175.1050  136.7910 C   0  0  0  0  0  2  0  0  0  0  0  0
  189.2970  177.8970  138.9280 C   0  0  0  0  0  2  0  0  0  0  0  0
  190.7430  176.6710  137.3250 N   0  0  2  0  0  0  0  0  0  0  0  0
  192.5800  177.1920  140.5470 O   0  0  0  0  0  1  0  0  0  0  0  0
  192.9750  175.9250  137.9540 C   0  0  0  0  0  2  0  0  0  0  0  0
  191.4860  176.8620  139.7430 C   0  0  2  0  0  3  0  0  0  0  0  0
  191.8730  176.9360  138.2550 C   0  0  2  0  0  3  0  0  0  0  0  0
  190.3220  177.8080  140.0610 C   0  0  2  0  0  3  0  0  0  0  0  0
  186.4010  176.4220  135.1110 C   0  0  0  0  0  2  0  0  0  0  0  0
  188.3420  176.6560  136.9600 N   0  0  1  0  0  0  0  0  0  0  0  0
  186.5770  178.7700  134.5950 O   0  0  0  0  0  1  0  0  0  0  0  0
  186.5640  174.9830  137.1290 C   0  0  0  0  0  2  0  0  0  0  0  0
  185.9220  176.2350  136.5610 C   0  0  1  0  0  3  0  0  0  0  0  0
  187.0550  176.3350  137.5970 C   0  0  2  0  0  3  0  0  0  0  0  0
  187.3240  177.6370  134.9330 C   0  0  1  0  0  3  0  0  0  0  0  0
  187.7190  178.9550  136.9280 O   0  0  0  0  0  1  0  0  0  0  0  0
  188.2250  177.8960  136.1570 C   0  0  1  0  0  3  0  0  0  0  0  0
  187.2030  178.1160  144.6870 C   0  0  2  0  0  3  0  0  0  0  0  0
  186.4530  176.4900  146.5170 C   0  0  0  0  0  1  0  0  0  0  0  0
  186.8240  177.9270  146.1610 C   0  0  2  0  0  3  0  0  0  0  0  0
  184.4260  178.6050  146.2480 O   0  0  0  0  0  0  0  0  0  0  0  0
  186.0210  179.9250  147.2230 O   0  0  0  0  0  1  0  0  0  0  0  0
  185.7460  178.8800  146.5750 C   0  0  0  0  0  0  0  0  0  0  0  0
  186.1100  177.7220  143.6950 C   0  0  0  0  0  2  0  0  0  0  0  0
  185.6020  178.9000  143.0120 N   0  0  0  0  0  2  0  0  0  0  0  0
  181.9950  178.8560  141.9430 C   0  0  0  0  0  0  0  0  0  0  0  0
  183.2640  178.8480  138.6570 O   0  0  0  0  0  0  0  0  0  0  0  0
  184.4460  178.9070  142.1660 C   0  0  0  0  0  0  0  0  0  0  0  0
  183.2660  178.8770  139.9200 C   0  0  0  0  0  0  0  0  0  0  0  0
  184.5260  178.9260  140.6810 C   0  0  0  0  0  0  0  0  0  0  0  0
  185.6250  178.9910  140.0760 O   0  0  0  0  0  0  0  0  0  0  0  0
  182.0280  178.8490  140.6370 N   0  0  0  0  0  0  0  0  0  0  0  0
  183.2440  178.8690  142.7440 C   0  0  0  0  0  3  0  0  0  0  0  0
  180.6880  178.7720  142.6420 C   0  0  0  0  0  2  0  0  0  0  0  0
  180.8950  178.4720  143.9890 O   0  0  0  0  0  1  0  0  0  0  0  0
  2  1  1  6  0  0  0
  2  7  1  0  0  0  0
  3  2  1  0  0  0  0
  3  6  1  1  0  0  0
  4  9  1  0  0  0  0
  6  4  1  0  0  0  0
  7 29  1  0  0  0  0
  7  9  2  0  0  0  0
  8  1  1  1  0  0  0
  8  3  1  0  0  0  0
  9  5  1  0  0  0  0
 10 13  1  6  0  0  0
 12 11  1  0  0  0  0
 12 16  1  0  0  0  0
 14 11  1  1  0  0  0
 14 10  1  0  0  0  0
 14 18  1  0  0  0  0
 17 19  1  0  0  0  0
 17 15  1  1  0  0  0
 18 16  1  1  0  0  0
 18 17  1  0  0  0  0
 19 13  1  6  0  0  0
 19  8  1  0  0  0  0
 21 25  1  0  0  0  0
 21 10  1  1  0  0  0
 24 20  1  6  0  0  0
 24 23  1  0  0  0  0
 24 25  1  0  0  0  0
 25 23  1  6  0  0  0
 26 22  1  1  0  0  0
 26 20  1  0  0  0  0
 26 28  1  0  0  0  0
 28 27  1  1  0  0  0
 28 21  1  0  0  0  0
 29 35  1  6  0  0  0
 29 31  1  0  0  0  0
 31 30  1  6  0  0  0
 31 34  1  0  0  0  0
 32 34  2  0  0  0  0
 34 33  1  0  0  0  0
 36 35  1  0  0  0  0
 37 45  1  0  0  0  0
 37 44  1  0  0  0  0
 38 40  2  0  0  0  0
 39 44  2  0  0  0  0
 39 36  1  0  0  0  0
 40 43  1  0  0  0  0
 40 41  1  0  0  0  0
 41 39  1  0  0  0  0
 42 41  2  0  0  0  0
 43 37  2  0  0  0  0
 45 46  1  0  0  0  0
M  END
>  <MODEL>
4

>  <REMARK>
 VINA RESULT:      -8.3      1.934      5.997
  Name = 
  9 active torsions:
  status: ('A' for Active; 'I' for Inactive)
    1  A    between atoms: CA_2  and  C_6
    2  A    between atoms: C_7  and  C_20
    3  A    between atoms: C_7  and  C_21
    4  A    between atoms: C_7  and  C_34
    5  A    between atoms: C_10  and  N_13
    6  A    between atoms: C_12  and  N_29
    7  A    between atoms: C_20  and  N_29
    8  A    between atoms: C_21  and  C_27
    9  A    between atoms: N_38  and  C_44
                            x       y       z     vdW  Elec       q    Type
                         _______ _______ _______ _____ _____    ______ ____

>  <TORSDO>
F 9

$$$$
=
 OpenBabel11062413223D

 46 52  0  0  1  0  0  0  0  0999 V2000
  187.9130  177.4700  141.9270 C   0  0  0  0  0  2  0  0  0  0  0  0
  188.4790  176.8360  143.0900 C   0  0  1  0  0  3  0  0  0  0  0  0
  189.8130  177.0240  142.4620 C   0  0  2  0  0  3  0  0  0  0  0  0
  190.9370  177.1180  144.5510 C   0  0  0  0  0  2  0  0  0  0  0  0
  189.6830  178.3830  146.3120 O   0  0  0  0  0  1  0  0  0  0  0  0
  190.9880  177.1840  143.0460 C   0  0  0  0  0  2  0  0  0  0  0  0
  188.4850  177.6370  144.3730 C   0  0  0  0  0  0  0  0  0  0  0  0
  189.1680  177.4110  141.1960 N   0  0  2  0  0  0  0  0  0  0  0  0
  189.6490  177.7350  145.0840 C   0  0  0  0  0  0  0  0  0  0  0  0
  188.3680  176.7800  137.9460 C   0  0  2  0  0  3  0  0  0  0  0  0
  189.6440  175.3390  136.5490 C   0  0  0  0  0  2  0  0  0  0  0  0
  191.1050  175.0460  136.3030 C   0  0  0  0  0  2  0  0  0  0  0  0
  188.4590  177.9650  138.9180 C   0  0  0  0  0  2  0  0  0  0  0  0
  189.5750  176.6900  137.1050 N   0  0  2  0  0  0  0  0  0  0  0  0
  191.9110  177.0740  140.0060 O   0  0  0  0  0  1  0  0  0  0  0  0
  191.8360  175.8240  137.3760 C   0  0  0  0  0  2  0  0  0  0  0  0
  190.6910  176.8110  139.3800 C   0  0  2  0  0  3  0  0  0  0  0  0
  190.8480  176.8840  137.8500 C   0  0  2  0  0  3  0  0  0  0  0  0
  189.6400  177.8090  139.8790 C   0  0  2  0  0  3  0  0  0  0  0  0
  184.9360  176.9870  135.5960 C   0  0  0  0  0  2  0  0  0  0  0  0
  187.1490  176.8000  137.1150 N   0  0  1  0  0  0  0  0  0  0  0  0
  184.2490  174.7820  136.2850 O   0  0  0  0  0  1  0  0  0  0  0  0
  187.0670  178.1520  135.0760 C   0  0  0  0  0  2  0  0  0  0  0  0
  186.2480  176.9050  134.7980 C   0  0  1  0  0  3  0  0  0  0  0  0
  187.5020  176.8380  135.6880 C   0  0  2  0  0  3  0  0  0  0  0  0
  184.8580  175.9580  136.7340 C   0  0  1  0  0  3  0  0  0  0  0  0
  186.7530  174.4590  136.9260 O   0  0  0  0  0  1  0  0  0  0  0  0
  186.2250  175.6750  137.3890 C   0  0  1  0  0  3  0  0  0  0  0  0
  187.1660  178.1710  144.8750 C   0  0  2  0  0  3  0  0  0  0  0  0
  186.8840  176.5650  146.8500 C   0  0  0  0  0  1  0  0  0  0  0  0
  186.9950  178.0170  146.3920 C   0  0  2  0  0  3  0  0  0  0  0  0
  184.5660  178.2930  146.8830 O   0  0  0  0  0  0  0  0  0  0  0  0
  186.0240  179.9940  147.3470 O   0  0  0  0  0  1  0  0  0  0  0  0
  185.8450  178.8300  146.8990 C   0  0  0  0  0  0  0  0  0  0  0  0
  185.9540  177.7350  144.0530 C   0  0  0  0  0  2  0  0  0  0  0  0
  185.2200  178.8980  143.5850 N   0  0  0  0  0  2  0  0  0  0  0  0
  183.4270  178.8130  140.2780 C   0  0  0  0  0  0  0  0  0  0  0  0
  180.4750  178.8630  142.2000 O   0  0  0  0  0  0  0  0  0  0  0  0
  184.1530  178.8490  142.6300 C   0  0  0  0  0  0  0  0  0  0  0  0
  181.7110  178.8350  141.9400 C   0  0  0  0  0  0  0  0  0  0  0  0
  182.7160  178.8310  143.0160 C   0  0  0  0  0  0  0  0  0  0  0  0
  182.3540  178.8050  144.2190 O   0  0  0  0  0  0  0  0  0  0  0  0
  182.1560  178.8190  140.5800 N   0  0  0  0  0  0  0  0  0  0  0  0
  184.4690  178.8450  141.3340 C   0  0  0  0  0  3  0  0  0  0  0  0
  183.8400  178.8500  138.8530 C   0  0  0  0  0  2  0  0  0  0  0  0
  185.1880  179.1970  138.7640 O   0  0  0  0  0  1  0  0  0  0  0  0
  2  1  1  6  0  0  0
  2  7  1  0  0  0  0
  3  6  1  1  0  0  0
  3  2  1  0  0  0  0
  4  9  1  0  0  0  0
  6  4  1  0  0  0  0
  7 29  1  0  0  0  0
  7  9  2  0  0  0  0
  8  1  1  1  0  0  0
  8  3  1  0  0  0  0
  9  5  1  0  0  0  0
 10 13  1  6  0  0  0
 12 11  1  0  0  0  0
 12 16  1  0  0  0  0
 14 11  1  1  0  0  0
 14 18  1  0  0  0  0
 14 10  1  0  0  0  0
 17 19  1  0  0  0  0
 17 15  1  1  0  0  0
 18 16  1  6  0  0  0
 18 17  1  0  0  0  0
 19 13  1  6  0  0  0
 19  8  1  0  0  0  0
 20 26  1  0  0  0  0
 21 28  1  0  0  0  0
 21 10  1  1  0  0  0
 24 23  1  6  0  0  0
 24 20  1  0  0  0  0
 24 25  1  0  0  0  0
 25 23  1  1  0  0  0
 25 21  1  0  0  0  0
 26 22  1  6  0  0  0
 26 28  1  0  0  0  0
 28 27  1  6  0  0  0
 29 35  1  6  0  0  0
 29 31  1  0  0  0  0
 31 30  1  6  0  0  0
 31 34  1  0  0  0  0
 32 34  2  0  0  0  0
 34 33  1  0  0  0  0
 36 35  1  0  0  0  0
 37 43  2  0  0  0  0
 37 44  1  0  0  0  0
 39 41  1  0  0  0  0
 39 36  1  0  0  0  0
 40 38  2  0  0  0  0
 40 41  1  0  0  0  0
 41 42  2  0  0  0  0
 43 40  1  0  0  0  0
 44 39  2  0  0  0  0
 45 37  1  0  0  0  0
 46 45  1  0  0  0  0
M  END
>  <MODEL>
5

>  <REMARK>
 VINA RESULT:      -8.1      1.838      5.774
  Name = 
  9 active torsions:
  status: ('A' for Active; 'I' for Inactive)
    1  A    between atoms: CA_2  and  C_6
    2  A    between atoms: C_7  and  C_20
    3  A    between atoms: C_7  and  C_21
    4  A    between atoms: C_7  and  C_34
    5  A    between atoms: C_10  and  N_13
    6  A    between atoms: C_12  and  N_29
    7  A    between atoms: C_20  and  N_29
    8  A    between atoms: C_21  and  C_27
    9  A    between atoms: N_38  and  C_44
                            x       y       z     vdW  Elec       q    Type
                         _______ _______ _______ _____ _____    ______ ____

>  <TORSDO>
F 9

$$$$
=
 OpenBabel11062413223D

 46 52  0  0  1  0  0  0  0  0999 V2000
  185.9520  178.8590  139.8380 C   0  0  0  0  0  2  0  0  0  0  0  0
  184.6290  179.3740  140.0850 C   0  0  1  0  0  3  0  0  0  0  0  0
  184.2660  178.9160  138.7180 C   0  0  2  0  0  3  0  0  0  0  0  0
  181.9780  178.6120  139.2770 C   0  0  0  0  0  2  0  0  0  0  0  0
  181.6200  177.6400  141.5570 O   0  0  0  0  0  1  0  0  0  0  0  0
  183.0890  178.5260  138.2610 C   0  0  0  0  0  2  0  0  0  0  0  0
  183.7600  178.5970  141.0490 C   0  0  0  0  0  0  0  0  0  0  0  0
  185.6860  178.6580  138.4220 N   0  0  2  0  0  0  0  0  0  0  0  0
  182.4860  178.2720  140.6740 C   0  0  0  0  0  0  0  0  0  0  0  0
  186.7510  175.6510  137.2280 C   0  0  2  0  0  3  0  0  0  0  0  0
  189.0110  174.9240  137.3700 C   0  0  0  0  0  2  0  0  0  0  0  0
  190.3820  175.5360  137.2070 C   0  0  0  0  0  2  0  0  0  0  0  0
  185.8490  176.8210  136.8110 C   0  0  0  0  0  2  0  0  0  0  0  0
  188.0850  175.7630  136.6100 N   0  0  2  0  0  0  0  0  0  0  0  0
  188.4700  179.3710  137.5330 O   0  0  0  0  0  1  0  0  0  0  0  0
  190.1230  177.0200  137.0600 C   0  0  0  0  0  2  0  0  0  0  0  0
  187.9190  178.0900  137.6060 C   0  0  2  0  0  3  0  0  0  0  0  0
  188.6580  177.1340  136.6510 C   0  0  2  0  0  3  0  0  0  0  0  0
  186.4250  178.1620  137.2710 C   0  0  2  0  0  3  0  0  0  0  0  0
  185.0260  171.9120  136.6050 C   0  0  0  0  0  2  0  0  0  0  0  0
  186.1550  174.3290  136.9560 N   0  0  1  0  0  0  0  0  0  0  0  0
  186.3130  171.5780  134.5950 O   0  0  0  0  0  1  0  0  0  0  0  0
  183.9010  173.8050  137.7540 C   0  0  0  0  0  2  0  0  0  0  0  0
  184.0600  173.0960  136.4230 C   0  0  1  0  0  3  0  0  0  0  0  0
  184.7190  174.4650  136.6660 C   0  0  2  0  0  3  0  0  0  0  0  0
  186.3680  172.1130  135.8860 C   0  0  1  0  0  3  0  0  0  0  0  0
  186.5830  174.1680  134.6190 O   0  0  0  0  0  1  0  0  0  0  0  0
  186.8330  173.5840  135.8710 C   0  0  1  0  0  3  0  0  0  0  0  0
  184.2990  178.3440  142.4360 C   0  0  2  0  0  3  0  0  0  0  0  0
  185.1600  180.2050  143.9700 C   0  0  0  0  0  1  0  0  0  0  0  0
  183.9440  179.4580  143.4290 C   0  0  2  0  0  3  0  0  0  0  0  0
  183.6270  178.8160  145.8180 O   0  0  0  0  0  1  0  0  0  0  0  0
  181.8860  178.6290  144.3460 O   0  0  0  0  0  0  0  0  0  0  0  0
  183.0890  178.9420  144.5450 C   0  0  0  0  0  0  0  0  0  0  0  0
  185.7620  177.9040  142.4730 C   0  0  0  0  0  2  0  0  0  0  0  0
  186.0650  177.2750  143.7470 N   0  0  0  0  0  2  0  0  0  0  0  0
  189.7570  176.6410  144.0980 C   0  0  0  0  0  0  0  0  0  0  0  0
  189.3400  177.7320  147.4210 O   0  0  0  0  0  0  0  0  0  0  0  0
  187.3740  177.2140  144.3270 C   0  0  0  0  0  0  0  0  0  0  0  0
  189.0380  177.4530  146.2270 C   0  0  0  0  0  0  0  0  0  0  0  0
  187.6610  177.6120  145.7310 C   0  0  0  0  0  0  0  0  0  0  0  0
  186.7690  178.0800  146.4820 O   0  0  0  0  0  0  0  0  0  0  0  0
  190.0410  176.9600  145.3330 N   0  0  0  0  0  0  0  0  0  0  0  0
  188.3740  176.7540  143.5720 C   0  0  0  0  0  3  0  0  0  0  0  0
  190.8200  176.0830  143.2240 C   0  0  0  0  0  2  0  0  0  0  0  0
  190.4680  176.2610  141.8860 O   0  0  0  0  0  1  0  0  0  0  0  0
  2  1  1  1  0  0  0
  2  7  1  0  0  0  0
  3  6  1  1  0  0  0
  3  2  1  0  0  0  0
  4  9  1  0  0  0  0
  6  4  1  0  0  0  0
  7 29  1  0  0  0  0
  8  3  1  0  0  0  0
  8  1  1  1  0  0  0
  9  7  2  0  0  0  0
  9  5  1  0  0  0  0
 10 13  1  6  0  0  0
 12 11  1  0  0  0  0
 14 18  1  0  0  0  0
 14 10  1  0  0  0  0
 14 11  1  1  0  0  0
 16 12  1  0  0  0  0
 17 15  1  6  0  0  0
 18 16  1  1  0  0  0
 18 17  1  0  0  0  0
 19 13  1  1  0  0  0
 19 17  1  0  0  0  0
 19  8  1  0  0  0  0
 21 10  1  6  0  0  0
 24 20  1  1  0  0  0
 24 25  1  0  0  0  0
 24 23  1  0  0  0  0
 25 21  1  0  0  0  0
 25 23  1  1  0  0  0
 26 22  1  6  0  0  0
 26 20  1  0  0  0  0
 28 27  1  6  0  0  0
 28 26  1  0  0  0  0
 28 21  1  0  0  0  0
 29 35  1  6  0  0  0
 29 31  1  0  0  0  0
 31 30  1  1  0  0  0
 31 34  1  0  0  0  0
 33 34  2  0  0  0  0
 34 32  1  0  0  0  0
 35 36  1  0  0  0  0
 36 39  1  0  0  0  0
 37 43  2  0  0  0  0
 39 41  1  0  0  0  0
 40 38  2  0  0  0  0
 41 40  1  0  0  0  0
 41 42  2  0  0  0  0
 43 40  1  0  0  0  0
 44 37  1  0  0  0  0
 44 39  2  0  0  0  0
 45 37  1  0  0  0  0
 46 45  1  0  0  0  0
M  END
>  <MODEL>
6

>  <REMARK>
 VINA RESULT:      -8.0      2.433      6.222
  Name = 
  9 active torsions:
  status: ('A' for Active; 'I' for Inactive)
    1  A    between atoms: CA_2  and  C_6
    2  A    between atoms: C_7  and  C_20
    3  A    between atoms: C_7  and  C_21
    4  A    between atoms: C_7  and  C_34
    5  A    between atoms: C_10  and  N_13
    6  A    between atoms: C_12  and  N_29
    7  A    between atoms: C_20  and  N_29
    8  A    between atoms: C_21  and  C_27
    9  A    between atoms: N_38  and  C_44
                            x       y       z     vdW  Elec       q    Type
                         _______ _______ _______ _____ _____    ______ ____

>  <TORSDO>
F 9

$$$$
=
 OpenBabel11062413223D

 46 52  0  0  1  0  0  0  0  0999 V2000
  188.7470  177.4790  139.4950 C   0  0  0  0  0  2  0  0  0  0  0  0
  188.0550  178.5650  140.1410 C   0  0  1  0  0  3  0  0  0  0  0  0
  186.9570  178.3610  139.1590 C   0  0  2  0  0  3  0  0  0  0  0  0
  185.2940  179.1910  140.6380 C   0  0  0  0  0  2  0  0  0  0  0  0
  185.6160  178.4760  143.0160 O   0  0  0  0  0  1  0  0  0  0  0  0
  185.6640  178.5960  139.3030 C   0  0  0  0  0  2  0  0  0  0  0  0
  187.4720  178.2890  141.5090 C   0  0  0  0  0  0  0  0  0  0  0  0
  187.8150  177.4540  138.3790 N   0  0  2  0  0  0  0  0  0  0  0  0
  186.1690  178.6260  141.7510 C   0  0  0  0  0  0  0  0  0  0  0  0
  185.7310  175.0360  137.1910 C   0  0  2  0  0  3  0  0  0  0  0  0
  186.3570  172.7470  137.0280 C   0  0  0  0  0  2  0  0  0  0  0  0
  187.5840  171.9610  136.6290 C   0  0  0  0  0  2  0  0  0  0  0  0
  186.1700  176.4680  136.8560 C   0  0  0  0  0  2  0  0  0  0  0  0
  186.4640  174.0510  136.3750 N   0  0  2  0  0  0  0  0  0  0  0  0
  189.7960  175.6230  137.0450 O   0  0  0  0  0  1  0  0  0  0  0  0
  188.6640  173.0060  136.4490 C   0  0  0  0  0  2  0  0  0  0  0  0
  188.4400  175.3690  137.2650 C   0  0  2  0  0  3  0  0  0  0  0  0
  187.9210  174.3250  136.2590 C   0  0  2  0  0  3  0  0  0  0  0  0
  187.6560  176.6820  137.1560 C   0  0  2  0  0  3  0  0  0  0  0  0
  181.6180  174.4080  137.0180 C   0  0  0  0  0  2  0  0  0  0  0  0
  184.2750  174.8310  137.0800 N   0  0  1  0  0  0  0  0  0  0  0  0
  181.6510  174.4070  134.6080 O   0  0  0  0  0  1  0  0  0  0  0  0
  182.7800  175.6090  138.8550 C   0  0  0  0  0  2  0  0  0  0  0  0
  182.0270  175.7920  137.5510 C   0  0  1  0  0  3  0  0  0  0  0  0
  183.5520  175.9960  137.6120 C   0  0  2  0  0  3  0  0  0  0  0  0
  182.3700  174.0080  135.7390 C   0  0  1  0  0  3  0  0  0  0  0  0
  183.9210  175.6570  134.8740 O   0  0  0  0  0  1  0  0  0  0  0  0
  183.8210  174.5280  135.7030 C   0  0  1  0  0  3  0  0  0  0  0  0
  188.4050  177.7850  142.5820 C   0  0  2  0  0  3  0  0  0  0  0  0
  190.3150  176.2500  141.8390 C   0  0  0  0  0  1  0  0  0  0  0  0
  189.8610  177.6810  142.1110 C   0  0  2  0  0  3  0  0  0  0  0  0
  190.3920  179.5450  143.6800 O   0  0  0  0  0  1  0  0  0  0  0  0
  191.9340  177.8970  143.3030 O   0  0  0  0  0  0  0  0  0  0  0  0
  190.7930  178.3710  143.0570 C   0  0  0  0  0  0  0  0  0  0  0  0
  187.8940  176.5580  143.3370 C   0  0  0  0  0  2  0  0  0  0  0  0
  187.3860  176.9470  144.6420 N   0  0  0  0  0  2  0  0  0  0  0  0
  190.3930  176.9010  146.9040 C   0  0  0  0  0  0  0  0  0  0  0  0
  188.2400  178.2900  149.3220 O   0  0  0  0  0  0  0  0  0  0  0  0
  188.2050  177.1440  145.8010 C   0  0  0  0  0  0  0  0  0  0  0  0
  188.6210  177.8360  148.2060 C   0  0  0  0  0  0  0  0  0  0  0  0
  187.6940  177.7360  147.0660 C   0  0  0  0  0  0  0  0  0  0  0  0
  186.5130  178.1510  147.1750 O   0  0  0  0  0  0  0  0  0  0  0  0
  189.9720  177.3960  148.0370 N   0  0  0  0  0  0  0  0  0  0  0  0
  189.4790  176.7510  145.7440 C   0  0  0  0  0  3  0  0  0  0  0  0
  191.7890  176.4090  146.7930 C   0  0  0  0  0  2  0  0  0  0  0  0
  192.4370  176.5610  148.0190 O   0  0  0  0  0  1  0  0  0  0  0  0
  2  1  1  6  0  0  0
  2  7  1  0  0  0  0
  3  6  1  1  0  0  0
  3  2  1  0  0  0  0
  4  9  1  0  0  0  0
  6  4  1  0  0  0  0
  7  9  2  0  0  0  0
  7 29  1  0  0  0  0
  8  3  1  0  0  0  0
  8  1  1  1  0  0  0
  9  5  1  0  0  0  0
 10 13  1  6  0  0  0
 12 11  1  0  0  0  0
 14 11  1  1  0  0  0
 14 10  1  0  0  0  0
 16 12  1  0  0  0  0
 17 15  1  6  0  0  0
 18 14  1  0  0  0  0
 18 16  1  1  0  0  0
 18 17  1  0  0  0  0
 19 13  1  1  0  0  0
 19 17  1  0  0  0  0
 19  8  1  0  0  0  0
 21 10  1  6  0  0  0
 21 25  1  0  0  0  0
 24 20  1  6  0  0  0
 24 25  1  0  0  0  0
 24 23  1  0  0  0  0
 25 23  1  1  0  0  0
 26 22  1  6  0  0  0
 26 20  1  0  0  0  0
 28 27  1  6  0  0  0
 28 26  1  0  0  0  0
 28 21  1  0  0  0  0
 29 35  1  6  0  0  0
 31 30  1  1  0  0  0
 31 29  1  0  0  0  0
 31 34  1  0  0  0  0
 34 33  2  0  0  0  0
 34 32  1  0  0  0  0
 35 36  1  0  0  0  0
 36 39  1  0  0  0  0
 37 43  2  0  0  0  0
 39 41  1  0  0  0  0
 40 38  2  0  0  0  0
 41 42  2  0  0  0  0
 41 40  1  0  0  0  0
 43 40  1  0  0  0  0
 44 39  2  0  0  0  0
 44 37  1  0  0  0  0
 45 37  1  0  0  0  0
 45 46  1  0  0  0  0
M  END
>  <MODEL>
7

>  <REMARK>
 VINA RESULT:      -8.0      2.538      4.062
  Name = 
  9 active torsions:
  status: ('A' for Active; 'I' for Inactive)
    1  A    between atoms: CA_2  and  C_6
    2  A    between atoms: C_7  and  C_20
    3  A    between atoms: C_7  and  C_21
    4  A    between atoms: C_7  and  C_34
    5  A    between atoms: C_10  and  N_13
    6  A    between atoms: C_12  and  N_29
    7  A    between atoms: C_20  and  N_29
    8  A    between atoms: C_21  and  C_27
    9  A    between atoms: N_38  and  C_44
                            x       y       z     vdW  Elec       q    Type
                         _______ _______ _______ _____ _____    ______ ____

>  <TORSDO>
F 9

$$$$
=
 OpenBabel11062413223D

 46 52  0  0  1  0  0  0  0  0999 V2000
  185.3400  178.3520  140.4780 C   0  0  0  0  0  2  0  0  0  0  0  0
  185.6150  179.0100  141.7300 C   0  0  1  0  0  3  0  0  0  0  0  0
  184.1900  178.7810  142.0870 C   0  0  2  0  0  3  0  0  0  0  0  0
  184.6370  178.7280  144.4180 C   0  0  0  0  0  2  0  0  0  0  0  0
  186.7600  177.5360  145.0080 O   0  0  0  0  0  1  0  0  0  0  0  0
  183.6520  178.6170  143.2830 C   0  0  0  0  0  2  0  0  0  0  0  0
  186.4440  178.2460  142.7390 C   0  0  0  0  0  0  0  0  0  0  0  0
  183.9040  178.3680  140.7020 N   0  0  2  0  0  0  0  0  0  0  0  0
  185.9920  178.1490  144.0260 C   0  0  0  0  0  0  0  0  0  0  0  0
  183.1710  176.2310  138.1530 C   0  0  2  0  0  3  0  0  0  0  0  0
  182.6560  176.9640  135.9500 C   0  0  0  0  0  2  0  0  0  0  0  0
  181.8650  178.0820  135.3130 C   0  0  0  0  0  2  0  0  0  0  0  0
  182.8390  176.4360  139.6380 C   0  0  0  0  0  2  0  0  0  0  0  0
  182.1050  176.7720  137.2910 N   0  0  2  0  0  0  0  0  0  0  0  0
  181.9230  180.0170  139.1510 O   0  0  0  0  0  1  0  0  0  0  0  0
  181.4680  178.9750  136.4690 C   0  0  0  0  0  2  0  0  0  0  0  0
  182.4980  178.8080  138.7520 C   0  0  2  0  0  3  0  0  0  0  0  0
  181.6020  178.1060  137.7150 C   0  0  2  0  0  3  0  0  0  0  0  0
  182.7200  177.9230  139.9830 C   0  0  2  0  0  3  0  0  0  0  0  0
  183.8820  172.2220  137.2770 C   0  0  0  0  0  2  0  0  0  0  0  0
  183.4620  174.8260  137.8110 N   0  0  1  0  0  0  0  0  0  0  0  0
  186.1100  172.7160  136.5020 O   0  0  0  0  0  1  0  0  0  0  0  0
  181.6460  173.3020  137.2030 C   0  0  0  0  0  2  0  0  0  0  0  0
  182.8440  172.8970  136.3640 C   0  0  1  0  0  3  0  0  0  0  0  0
  182.5930  174.3750  136.7130 C   0  0  2  0  0  3  0  0  0  0  0  0
  185.1550  173.0600  137.4650 C   0  0  1  0  0  3  0  0  0  0  0  0
  185.2240  175.1520  136.2420 O   0  0  0  0  0  1  0  0  0  0  0  0
  184.8840  174.5780  137.4780 C   0  0  1  0  0  3  0  0  0  0  0  0
  187.8000  177.7490  142.3030 C   0  0  2  0  0  3  0  0  0  0  0  0
  189.8030  178.7930  143.5110 C   0  0  0  0  0  1  0  0  0  0  0  0
  188.8000  177.6430  143.4610 C   0  0  2  0  0  3  0  0  0  0  0  0
  190.7760  176.2180  143.9950 O   0  0  0  0  0  1  0  0  0  0  0  0
  188.9420  175.2940  142.9870 O   0  0  0  0  0  0  0  0  0  0  0  0
  189.5000  176.3190  143.4600 C   0  0  0  0  0  0  0  0  0  0  0  0
  188.3500  178.4330  141.0510 C   0  0  0  0  0  2  0  0  0  0  0  0
  189.2640  177.5440  140.3540 N   0  0  0  0  0  2  0  0  0  0  0  0
  188.2720  177.7060  136.7280 C   0  0  0  0  0  0  0  0  0  0  0  0
  191.3890  176.1890  136.1010 O   0  0  0  0  0  0  0  0  0  0  0  0
  189.3370  177.4170  138.9280 C   0  0  0  0  0  0  0  0  0  0  0  0
  190.4440  176.7110  136.7570 C   0  0  0  0  0  0  0  0  0  0  0  0
  190.5110  176.8370  138.2230 C   0  0  0  0  0  0  0  0  0  0  0  0
  191.5410  176.4690  138.8420 O   0  0  0  0  0  0  0  0  0  0  0  0
  189.2760  177.1810  136.0770 N   0  0  0  0  0  0  0  0  0  0  0  0
  188.2880  177.8170  138.2070 C   0  0  0  0  0  3  0  0  0  0  0  0
  187.0600  178.1310  135.9830 C   0  0  0  0  0  2  0  0  0  0  0  0
  185.9740  178.2000  136.8560 O   0  0  0  0  0  1  0  0  0  0  0  0
  2  1  1  6  0  0  0
  2  3  1  0  0  0  0
  2  7  1  0  0  0  0
  3  6  1  1  0  0  0
  6  4  1  0  0  0  0
  7  9  2  0  0  0  0
  8  1  1  1  0  0  0
  8  3  1  0  0  0  0
  9  4  1  0  0  0  0
  9  5  1  0  0  0  0
 10 13  1  1  0  0  0
 12 11  1  0  0  0  0
 12 16  1  0  0  0  0
 14 11  1  6  0  0  0
 14 18  1  0  0  0  0
 14 10  1  0  0  0  0
 17 15  1  1  0  0  0
 17 19  1  0  0  0  0
 18 16  1  6  0  0  0
 18 17  1  0  0  0  0
 19 13  1  6  0  0  0
 19  8  1  0  0  0  0
 20 26  1  0  0  0  0
 21 10  1  6  0  0  0
 24 25  1  0  0  0  0
 24 23  1  1  0  0  0
 24 20  1  0  0  0  0
 25 23  1  1  0  0  0
 25 21  1  0  0  0  0
 26 22  1  6  0  0  0
 26 28  1  0  0  0  0
 28 27  1  6  0  0  0
 28 21  1  0  0  0  0
 29 35  1  6  0  0  0
 29  7  1  0  0  0  0
 29 31  1  0  0  0  0
 31 30  1  6  0  0  0
 33 34  2  0  0  0  0
 34 31  1  0  0  0  0
 34 32  1  0  0  0  0
 36 35  1  0  0  0  0
 37 44  1  0  0  0  0
 38 40  2  0  0  0  0
 39 36  1  0  0  0  0
 40 41  1  0  0  0  0
 41 42  2  0  0  0  0
 41 39  1  0  0  0  0
 43 37  2  0  0  0  0
 43 40  1  0  0  0  0
 44 39  2  0  0  0  0
 45 37  1  0  0  0  0
 45 46  1  0  0  0  0
M  END
>  <MODEL>
8

>  <REMARK>
 VINA RESULT:      -7.9      2.408      6.733
  Name = 
  9 active torsions:
  status: ('A' for Active; 'I' for Inactive)
    1  A    between atoms: CA_2  and  C_6
    2  A    between atoms: C_7  and  C_20
    3  A    between atoms: C_7  and  C_21
    4  A    between atoms: C_7  and  C_34
    5  A    between atoms: C_10  and  N_13
    6  A    between atoms: C_12  and  N_29
    7  A    between atoms: C_20  and  N_29
    8  A    between atoms: C_21  and  C_27
    9  A    between atoms: N_38  and  C_44
                            x       y       z     vdW  Elec       q    Type
                         _______ _______ _______ _____ _____    ______ ____

>  <TORSDO>
F 9

$$$$
=
 OpenBabel11062413223D

 46 52  0  0  1  0  0  0  0  0999 V2000
  183.4440  177.1740  140.2850 C   0  0  0  0  0  2  0  0  0  0  0  0
  182.2650  177.5700  139.5560 C   0  0  1  0  0  3  0  0  0  0  0  0
  182.5910  178.9740  139.9190 C   0  0  2  0  0  3  0  0  0  0  0  0
  181.5320  179.8670  137.9910 C   0  0  0  0  0  2  0  0  0  0  0  0
  181.9010  178.5070  135.9200 O   0  0  0  0  0  1  0  0  0  0  0  0
  182.3190  180.0850  139.2580 C   0  0  0  0  0  2  0  0  0  0  0  0
  182.3320  177.4850  138.0470 C   0  0  0  0  0  0  0  0  0  0  0  0
  183.6150  178.4960  140.8650 N   0  0  2  0  0  0  0  0  0  0  0  0
  181.9440  178.5680  137.3070 C   0  0  0  0  0  0  0  0  0  0  0  0
  186.7160  177.8620  142.1240 C   0  0  2  0  0  3  0  0  0  0  0  0
  187.0830  177.0810  144.3410 C   0  0  0  0  0  2  0  0  0  0  0  0
  186.5200  177.3500  145.7160 C   0  0  0  0  0  2  0  0  0  0  0  0
  185.9880  178.9250  141.2890 C   0  0  0  0  0  2  0  0  0  0  0  0
  186.8140  178.2720  143.5360 N   0  0  2  0  0  0  0  0  0  0  0  0
  183.2060  179.2540  143.7480 O   0  0  0  0  0  1  0  0  0  0  0  0
  185.3330  178.2570  145.4710 C   0  0  0  0  0  2  0  0  0  0  0  0
  184.3230  178.6170  143.2020 C   0  0  2  0  0  3  0  0  0  0  0  0
  185.5610  178.8550  144.0870 C   0  0  2  0  0  3  0  0  0  0  0  0
  184.5530  179.1330  141.7770 C   0  0  2  0  0  3  0  0  0  0  0  0
  190.3940  176.7530  140.5170 C   0  0  0  0  0  2  0  0  0  0  0  0
  188.0420  177.5050  141.5870 N   0  0  1  0  0  0  0  0  0  0  0  0
  191.5740  177.6750  142.4060 O   0  0  0  0  0  1  0  0  0  0  0  0
  188.3850  177.3200  139.1700 C   0  0  0  0  0  2  0  0  0  0  0  0
  189.6750  177.8740  139.7460 C   0  0  1  0  0  3  0  0  0  0  0  0
  188.3150  178.2600  140.3550 C   0  0  2  0  0  3  0  0  0  0  0  0
  190.4150  176.9840  142.0350 C   0  0  1  0  0  3  0  0  0  0  0  0
  189.3950  179.0470  142.7970 O   0  0  0  0  0  1  0  0  0  0  0  0
  189.1450  177.6850  142.5590 C   0  0  1  0  0  3  0  0  0  0  0  0
  182.6900  176.1540  137.4320 C   0  0  2  0  0  3  0  0  0  0  0  0
  182.0800  173.6760  137.2250 C   0  0  0  0  0  1  0  0  0  0  0  0
  181.7230  175.0310  137.8270 C   0  0  2  0  0  3  0  0  0  0  0  0
  179.9270  175.6420  136.2070 O   0  0  0  0  0  0  0  0  0  0  0  0
  179.4450  175.4840  138.4380 O   0  0  0  0  0  1  0  0  0  0  0  0
  180.3040  175.3990  137.5210 C   0  0  0  0  0  0  0  0  0  0  0  0
  184.1690  175.7850  137.5450 C   0  0  0  0  0  2  0  0  0  0  0  0
  184.9380  176.4750  136.5220 N   0  0  0  0  0  2  0  0  0  0  0  0
  188.2450  174.6870  136.3700 C   0  0  0  0  0  0  0  0  0  0  0  0
  189.4380  177.6230  134.8300 O   0  0  0  0  0  0  0  0  0  0  0  0
  186.3160  176.2100  136.2320 C   0  0  0  0  0  0  0  0  0  0  0  0
  188.6190  176.8210  135.3600 C   0  0  0  0  0  0  0  0  0  0  0  0
  187.2060  177.1890  135.5540 C   0  0  0  0  0  0  0  0  0  0  0  0
  186.7820  178.2990  135.1450 O   0  0  0  0  0  0  0  0  0  0  0  0
  189.0610  175.5320  135.7980 N   0  0  0  0  0  0  0  0  0  0  0  0
  186.8240  175.0370  136.6140 C   0  0  0  0  0  3  0  0  0  0  0  0
  188.7630  173.3830  136.8540 C   0  0  0  0  0  2  0  0  0  0  0  0
  190.0310  173.5590  137.4080 O   0  0  0  0  0  1  0  0  0  0  0  0
  2  3  1  0  0  0  0
  2  1  1  1  0  0  0
  3  6  1  6  0  0  0
  3  8  1  0  0  0  0
  4  6  1  0  0  0  0
  5  9  1  0  0  0  0
  7  2  1  0  0  0  0
  8  1  1  6  0  0  0
  8 19  1  0  0  0  0
  9  4  1  0  0  0  0
  9  7  2  0  0  0  0
 10 13  1  6  0  0  0
 10 14  1  0  0  0  0
 11 12  1  0  0  0  0
 14 18  1  0  0  0  0
 14 11  1  1  0  0  0
 16 12  1  0  0  0  0
 17 15  1  1  0  0  0
 17 18  1  0  0  0  0
 18 16  1  1  0  0  0
 19 13  1  6  0  0  0
 19 17  1  0  0  0  0
 20 26  1  0  0  0  0
 21 10  1  1  0  0  0
 21 28  1  0  0  0  0
 24 23  1  6  0  0  0
 24 25  1  0  0  0  0
 24 20  1  0  0  0  0
 25 23  1  6  0  0  0
 25 21  1  0  0  0  0
 26 22  1  6  0  0  0
 26 28  1  0  0  0  0
 28 27  1  6  0  0  0
 29 35  1  1  0  0  0
 29 31  1  0  0  0  0
 29  7  1  0  0  0  0
 31 30  1  6  0  0  0
 32 34  2  0  0  0  0
 34 31  1  0  0  0  0
 34 33  1  0  0  0  0
 36 35  1  0  0  0  0
 37 44  1  0  0  0  0
 37 45  1  0  0  0  0
 38 40  2  0  0  0  0
 39 36  1  0  0  0  0
 39 44  2  0  0  0  0
 40 41  1  0  0  0  0
 40 43  1  0  0  0  0
 41 39  1  0  0  0  0
 42 41  2  0  0  0  0
 43 37  2  0  0  0  0
 45 46  1  0  0  0  0
M  END
>  <MODEL>
9

>  <REMARK>
 VINA RESULT:      -7.9      2.426      9.389
  Name = 
  9 active torsions:
  status: ('A' for Active; 'I' for Inactive)
    1  A    between atoms: CA_2  and  C_6
    2  A    between atoms: C_7  and  C_20
    3  A    between atoms: C_7  and  C_21
    4  A    between atoms: C_7  and  C_34
    5  A    between atoms: C_10  and  N_13
    6  A    between atoms: C_12  and  N_29
    7  A    between atoms: C_20  and  N_29
    8  A    between atoms: C_21  and  C_27
    9  A    between atoms: N_38  and  C_44
                            x       y       z     vdW  Elec       q    Type
                         _______ _______ _______ _____ _____    ______ ____

>  <TORSDO>
F 9

$$$$
