=
 OpenBabel11062418093D

 25 27  0  0  1  0  0  0  0  0999 V2000
  186.8270  177.6450  146.9200 C   0  0  0  0  0  3  0  0  0  0  0  0
  188.8840  177.5730  145.6090 C   0  0  0  0  0  0  0  0  0  0  0  0
  189.6500  178.4180  149.1000 F   0  0  0  0  0  0  0  0  0  0  0  0
  187.5560  177.9680  148.0650 C   0  0  0  0  0  3  0  0  0  0  0  0
  187.4720  177.4510  145.6860 C   0  0  0  0  0  0  0  0  0  0  0  0
  188.9400  178.1020  147.9910 C   0  0  0  0  0  0  0  0  0  0  0  0
  189.5950  177.9060  146.7760 C   0  0  0  0  0  3  0  0  0  0  0  0
  189.6460  177.3660  144.3440 C   0  0  0  0  0  0  0  0  0  0  0  0
  190.4230  175.9570  142.5290 C   0  0  0  0  0  3  0  0  0  0  0  0
  191.1100  177.0070  142.0060 N   0  0  0  0  0  0  0  0  0  0  0  0
  191.1000  178.2290  142.6030 C   0  0  0  0  0  3  0  0  0  0  0  0
  189.6860  176.1190  143.7040 C   0  0  0  0  0  3  0  0  0  0  0  0
  190.3720  178.4260  143.7790 C   0  0  0  0  0  3  0  0  0  0  0  0
  186.7220  177.1490  144.5420 O   0  0  0  0  0  0  0  0  0  0  0  0
  185.0110  178.2870  143.2710 C   0  0  2  0  0  3  0  0  0  0  0  0
  185.7280  178.9080  140.8730 C   0  0  0  0  0  2  0  0  0  0  0  0
  183.0160  179.1940  140.3300 O   0  0  0  0  0  0  0  0  0  0  0  0
  184.6920  178.7250  141.9000 N   0  0  0  0  0  0  0  0  0  0  0  0
  182.2980  178.4660  142.3760 O   0  0  0  0  0  1  0  0  0  0  0  0
  187.1270  178.6690  141.4310 C   0  0  2  0  0  3  0  0  0  0  0  0
  183.3170  178.8100  141.4930 C   0  0  0  0  0  0  0  0  0  0  0  0
  188.0900  178.3990  140.2940 C   0  0  0  0  0  1  0  0  0  0  0  0
  184.5330  179.3210  144.2790 C   0  0  0  0  0  1  0  0  0  0  0  0
  187.1030  177.5750  142.3010 O   0  0  0  0  0  0  0  0  0  0  0  0
  186.5140  178.0670  143.4740 C   0  0  2  0  0  3  0  0  0  0  0  0
  1  4  1  0  0  0  0
  2  5  1  0  0  0  0
  2  7  2  0  0  0  0
  5  1  2  0  0  0  0
  6  4  2  0  0  0  0
  6  3  1  0  0  0  0
  7  6  1  0  0  0  0
  8  2  1  0  0  0  0
  9 12  1  0  0  0  0
 10  9  2  0  0  0  0
 10 11  1  0  0  0  0
 11 13  2  0  0  0  0
 12  8  2  0  0  0  0
 13  8  1  0  0  0  0
 14  5  1  0  0  0  0
 15 25  1  0  0  0  0
 15 23  1  1  0  0  0
 16 20  1  0  0  0  0
 16 18  1  0  0  0  0
 17 21  2  0  0  0  0
 18 15  1  0  0  0  0
 20 22  1  6  0  0  0
 20 24  1  0  0  0  0
 21 18  1  0  0  0  0
 21 19  1  0  0  0  0
 24 25  1  0  0  0  0
 25 14  1  1  0  0  0
M  END
>  <MODEL>
1

>  <REMARK>
 VINA RESULT:      -8.9      0.000      0.000
  Name = 
  3 active torsions:
  status: ('A' for Active; 'I' for Inactive)
    1  A    between atoms: C_1  and  C_14
    2  A    between atoms: O_2  and  C_21
    3  A    between atoms: O_2  and  C_24
                            x       y       z     vdW  Elec       q    Type
                         _______ _______ _______ _____ _____    ______ ____

>  <TORSDO>
F 3

$$$$
=
 OpenBabel11062418093D

 25 27  0  0  1  0  0  0  0  0999 V2000
  186.3810  177.5410  146.2670 C   0  0  0  0  0  3  0  0  0  0  0  0
  188.7440  177.6030  145.6590 C   0  0  0  0  0  0  0  0  0  0  0  0
  188.3340  178.5020  149.1960 F   0  0  0  0  0  0  0  0  0  0  0  0
  186.6970  177.9130  147.5740 C   0  0  0  0  0  3  0  0  0  0  0  0
  187.3880  177.3890  145.2980 C   0  0  0  0  0  0  0  0  0  0  0  0
  188.0250  178.1380  147.9290 C   0  0  0  0  0  0  0  0  0  0  0  0
  189.0360  177.9840  146.9810 C   0  0  0  0  0  3  0  0  0  0  0  0
  189.8720  177.4470  144.6970 C   0  0  0  0  0  0  0  0  0  0  0  0
  191.5910  178.3730  143.2590 C   0  0  0  0  0  3  0  0  0  0  0  0
  191.9490  177.1190  142.8760 N   0  0  0  0  0  0  0  0  0  0  0  0
  191.3110  176.0210  143.3610 C   0  0  0  0  0  3  0  0  0  0  0  0
  190.5490  178.5560  144.1690 C   0  0  0  0  0  3  0  0  0  0  0  0
  190.2640  176.1670  144.2740 C   0  0  0  0  0  3  0  0  0  0  0  0
  187.0510  177.0360  143.9840 O   0  0  0  0  0  0  0  0  0  0  0  0
  185.8980  178.3200  142.2930 C   0  0  2  0  0  3  0  0  0  0  0  0
  187.2520  178.6430  140.1210 C   0  0  0  0  0  2  0  0  0  0  0  0
  184.8280  179.2910  138.9220 O   0  0  0  0  0  0  0  0  0  0  0  0
  185.9870  178.6950  140.8690 N   0  0  0  0  0  0  0  0  0  0  0  0
  183.5390  178.8360  140.7550 O   0  0  0  0  0  1  0  0  0  0  0  0
  188.4210  178.2390  141.0130 C   0  0  2  0  0  3  0  0  0  0  0  0
  184.7790  178.9560  140.1360 C   0  0  0  0  0  0  0  0  0  0  0  0
  189.5660  177.7420  140.1570 C   0  0  0  0  0  1  0  0  0  0  0  0
  185.3730  179.4870  143.1140 C   0  0  0  0  0  1  0  0  0  0  0  0
  188.0130  177.2300  141.8900 O   0  0  0  0  0  0  0  0  0  0  0  0
  187.2540  177.8920  142.8640 C   0  0  2  0  0  3  0  0  0  0  0  0
  1  4  1  0  0  0  0
  2  7  2  0  0  0  0
  4  6  2  0  0  0  0
  5  2  1  0  0  0  0
  5  1  2  0  0  0  0
  6  3  1  0  0  0  0
  7  6  1  0  0  0  0
  8  2  1  0  0  0  0
  9 12  1  0  0  0  0
 10  9  2  0  0  0  0
 10 11  1  0  0  0  0
 11 13  2  0  0  0  0
 12  8  2  0  0  0  0
 13  8  1  0  0  0  0
 14  5  1  0  0  0  0
 15 25  1  0  0  0  0
 15 23  1  1  0  0  0
 16 18  1  0  0  0  0
 16 20  1  0  0  0  0
 17 21  2  0  0  0  0
 18 15  1  0  0  0  0
 20 22  1  6  0  0  0
 20 24  1  0  0  0  0
 21 19  1  0  0  0  0
 21 18  1  0  0  0  0
 24 25  1  0  0  0  0
 25 14  1  1  0  0  0
M  END
>  <MODEL>
2

>  <REMARK>
 VINA RESULT:      -8.6      1.100      1.577
  Name = 
  3 active torsions:
  status: ('A' for Active; 'I' for Inactive)
    1  A    between atoms: C_1  and  C_14
    2  A    between atoms: O_2  and  C_21
    3  A    between atoms: O_2  and  C_24
                            x       y       z     vdW  Elec       q    Type
                         _______ _______ _______ _____ _____    ______ ____

>  <TORSDO>
F 3

$$$$
=
 OpenBabel11062418093D

 25 27  0  0  1  0  0  0  0  0999 V2000
  185.2980  178.2120  145.5100 C   0  0  0  0  0  3  0  0  0  0  0  0
  185.3510  178.5230  143.0910 C   0  0  0  0  0  0  0  0  0  0  0  0
  182.0500  179.4550  144.4050 F   0  0  0  0  0  0  0  0  0  0  0  0
  183.9770  178.6560  145.5500 C   0  0  0  0  0  3  0  0  0  0  0  0
  185.9970  178.1330  144.2930 C   0  0  0  0  0  0  0  0  0  0  0  0
  183.3340  179.0270  144.3710 C   0  0  0  0  0  0  0  0  0  0  0  0
  184.0160  178.9600  143.1550 C   0  0  0  0  0  3  0  0  0  0  0  0
  186.0240  178.4860  141.7610 C   0  0  0  0  0  0  0  0  0  0  0  0
  188.0170  178.3680  140.3840 C   0  0  0  0  0  3  0  0  0  0  0  0
  187.2510  178.4570  139.2650 N   0  0  0  0  0  0  0  0  0  0  0  0
  185.8980  178.5640  139.3390 C   0  0  0  0  0  3  0  0  0  0  0  0
  187.4180  178.3840  141.6450 C   0  0  0  0  0  3  0  0  0  0  0  0
  185.2650  178.5830  140.5840 C   0  0  0  0  0  3  0  0  0  0  0  0
  187.3170  177.6640  144.2690 O   0  0  0  0  0  0  0  0  0  0  0  0
  189.6190  177.3250  144.9200 C   0  0  2  0  0  3  0  0  0  0  0  0
  189.9900  177.2870  147.4720 C   0  0  0  0  0  2  0  0  0  0  0  0
  192.4220  176.0600  146.9170 O   0  0  0  0  0  1  0  0  0  0  0  0
  190.4520  177.0310  146.1000 N   0  0  0  0  0  0  0  0  0  0  0  0
  192.0780  175.8830  144.6630 O   0  0  0  0  0  0  0  0  0  0  0  0
  188.6150  177.9480  147.4920 C   0  0  2  0  0  3  0  0  0  0  0  0
  191.6850  176.3130  145.9260 C   0  0  0  0  0  0  0  0  0  0  0  0
  187.9820  177.7640  148.8540 C   0  0  0  0  0  1  0  0  0  0  0  0
  190.3320  178.3040  144.0010 C   0  0  0  0  0  1  0  0  0  0  0  0
  187.8050  177.3700  146.5110 O   0  0  0  0  0  0  0  0  0  0  0  0
  188.2600  177.9200  145.3040 C   0  0  2  0  0  3  0  0  0  0  0  0
  1  4  1  0  0  0  0
  2  7  2  0  0  0  0
  2  5  1  0  0  0  0
  5  1  2  0  0  0  0
  6  3  1  0  0  0  0
  6  4  2  0  0  0  0
  7  6  1  0  0  0  0
  8  2  1  0  0  0  0
  9 12  2  0  0  0  0
 10 11  2  0  0  0  0
 10  9  1  0  0  0  0
 11 13  1  0  0  0  0
 12  8  1  0  0  0  0
 13  8  2  0  0  0  0
 14  5  1  0  0  0  0
 15 23  1  6  0  0  0
 15 25  1  0  0  0  0
 15 18  1  0  0  0  0
 16 20  1  0  0  0  0
 18 16  1  0  0  0  0
 19 21  2  0  0  0  0
 20 22  1  1  0  0  0
 21 18  1  0  0  0  0
 21 17  1  0  0  0  0
 24 20  1  0  0  0  0
 25 14  1  6  0  0  0
 25 24  1  0  0  0  0
M  END
>  <MODEL>
3

>  <REMARK>
 VINA RESULT:      -8.5      2.912      6.425
  Name = 
  3 active torsions:
  status: ('A' for Active; 'I' for Inactive)
    1  A    between atoms: C_1  and  C_14
    2  A    between atoms: O_2  and  C_21
    3  A    between atoms: O_2  and  C_24
                            x       y       z     vdW  Elec       q    Type
                         _______ _______ _______ _____ _____    ______ ____

>  <TORSDO>
F 3

$$$$
=
 OpenBabel11062418093D

 25 27  0  0  1  0  0  0  0  0999 V2000
  185.0660  178.7830  140.8040 C   0  0  0  0  0  3  0  0  0  0  0  0
  185.0210  178.5130  143.2290 C   0  0  0  0  0  0  0  0  0  0  0  0
  181.5930  178.6310  141.9140 F   0  0  0  0  0  0  0  0  0  0  0  0
  183.6720  178.7710  140.7660 C   0  0  0  0  0  3  0  0  0  0  0  0
  185.7550  178.6620  142.0240 C   0  0  0  0  0  0  0  0  0  0  0  0
  182.9470  178.6390  141.9480 C   0  0  0  0  0  0  0  0  0  0  0  0
  183.6160  178.5120  143.1650 C   0  0  0  0  0  3  0  0  0  0  0  0
  185.6730  178.3630  144.5610 C   0  0  0  0  0  0  0  0  0  0  0  0
  187.3270  177.3570  146.0230 C   0  0  0  0  0  3  0  0  0  0  0  0
  186.8420  178.0780  147.0690 N   0  0  0  0  0  0  0  0  0  0  0  0
  185.7960  178.9320  146.9170 C   0  0  0  0  0  3  0  0  0  0  0  0
  186.7490  177.4850  144.7580 C   0  0  0  0  0  3  0  0  0  0  0  0
  185.1950  179.0860  145.6660 C   0  0  0  0  0  3  0  0  0  0  0  0
  187.1560  178.6970  142.0460 O   0  0  0  0  0  0  0  0  0  0  0  0
  189.3360  177.7050  141.7350 C   0  0  2  0  0  3  0  0  0  0  0  0
  190.1310  177.6740  139.2810 C   0  0  0  0  0  2  0  0  0  0  0  0
  192.6840  177.2660  140.3040 O   0  0  0  0  0  0  0  0  0  0  0  0
  190.3950  177.5410  140.7210 N   0  0  0  0  0  0  0  0  0  0  0  0
  192.0850  177.4750  142.5000 O   0  0  0  0  0  1  0  0  0  0  0  0
  188.6520  177.9140  138.9970 C   0  0  2  0  0  3  0  0  0  0  0  0
  191.7610  177.4200  141.1490 C   0  0  0  0  0  0  0  0  0  0  0  0
  188.4890  178.5050  137.6130 C   0  0  0  0  0  1  0  0  0  0  0  0
  189.2080  176.4420  142.5720 C   0  0  0  0  0  1  0  0  0  0  0  0
  188.1290  178.7920  139.9500 O   0  0  0  0  0  0  0  0  0  0  0  0
  187.9740  178.0120  141.1040 C   0  0  2  0  0  3  0  0  0  0  0  0
  1  5  1  0  0  0  0
  2  8  1  0  0  0  0
  3  6  1  0  0  0  0
  4  1  2  0  0  0  0
  4  6  1  0  0  0  0
  5 14  1  0  0  0  0
  5  2  2  0  0  0  0
  6  7  2  0  0  0  0
  7  2  1  0  0  0  0
  8 12  2  0  0  0  0
  8 13  1  0  0  0  0
  9 10  2  0  0  0  0
 11 10  1  0  0  0  0
 12  9  1  0  0  0  0
 13 11  2  0  0  0  0
 15 23  1  6  0  0  0
 16 18  1  0  0  0  0
 17 21  2  0  0  0  0
 18 21  1  0  0  0  0
 18 15  1  0  0  0  0
 20 22  1  6  0  0  0
 20 16  1  0  0  0  0
 20 24  1  0  0  0  0
 21 19  1  0  0  0  0
 24 25  1  0  0  0  0
 25 15  1  0  0  0  0
 25 14  1  1  0  0  0
M  END
>  <MODEL>
4

>  <REMARK>
 VINA RESULT:      -8.5      3.218      6.277
  Name = 
  3 active torsions:
  status: ('A' for Active; 'I' for Inactive)
    1  A    between atoms: C_1  and  C_14
    2  A    between atoms: O_2  and  C_21
    3  A    between atoms: O_2  and  C_24
                            x       y       z     vdW  Elec       q    Type
                         _______ _______ _______ _____ _____    ______ ____

>  <TORSDO>
F 3

$$$$
=
 OpenBabel11062418093D

 25 27  0  0  1  0  0  0  0  0999 V2000
  189.0610  176.8990  142.2690 C   0  0  0  0  0  3  0  0  0  0  0  0
  186.9560  178.0060  142.8160 C   0  0  0  0  0  0  0  0  0  0  0  0
  187.9160  178.7730  139.3550 F   0  0  0  0  0  0  0  0  0  0  0  0
  189.0180  177.4310  140.9800 C   0  0  0  0  0  3  0  0  0  0  0  0
  188.0450  177.1800  143.1990 C   0  0  0  0  0  0  0  0  0  0  0  0
  187.9580  178.2530  140.6040 C   0  0  0  0  0  0  0  0  0  0  0  0
  186.9390  178.5360  141.5130 C   0  0  0  0  0  3  0  0  0  0  0  0
  185.8300  178.3390  143.7350 C   0  0  0  0  0  0  0  0  0  0  0  0
  183.4730  178.7080  144.1720 C   0  0  0  0  0  3  0  0  0  0  0  0
  183.7580  179.0020  145.4680 N   0  0  0  0  0  0  0  0  0  0  0  0
  185.0340  178.9830  145.9350 C   0  0  0  0  0  3  0  0  0  0  0  0
  184.5010  178.3760  143.2870 C   0  0  0  0  0  3  0  0  0  0  0  0
  186.0880  178.6550  145.0780 C   0  0  0  0  0  3  0  0  0  0  0  0
  188.1150  176.6550  144.4960 O   0  0  0  0  0  0  0  0  0  0  0  0
  190.2470  176.5920  145.6310 C   0  0  2  0  0  3  0  0  0  0  0  0
  190.1540  177.3970  148.0790 C   0  0  0  0  0  2  0  0  0  0  0  0
  192.5920  176.1030  148.4080 O   0  0  0  0  0  1  0  0  0  0  0  0
  190.8430  176.7160  146.9740 N   0  0  0  0  0  0  0  0  0  0  0  0
  192.6500  175.1920  146.3110 O   0  0  0  0  0  0  0  0  0  0  0  0
  188.8270  178.0010  147.6320 C   0  0  2  0  0  3  0  0  0  0  0  0
  192.0550  176.0040  147.2710 C   0  0  0  0  0  0  0  0  0  0  0  0
  187.9520  178.2610  148.8400 C   0  0  0  0  0  1  0  0  0  0  0  0
  191.1540  177.2300  144.5910 C   0  0  0  0  0  1  0  0  0  0  0  0
  188.1810  177.1200  146.7610 O   0  0  0  0  0  0  0  0  0  0  0  0
  188.8670  177.2530  145.5460 C   0  0  2  0  0  3  0  0  0  0  0  0
  1  5  1  0  0  0  0
  2  5  2  0  0  0  0
  2  8  1  0  0  0  0
  3  6  1  0  0  0  0
  4  1  2  0  0  0  0
  5 14  1  0  0  0  0
  6  4  1  0  0  0  0
  6  7  2  0  0  0  0
  7  2  1  0  0  0  0
  8 13  1  0  0  0  0
  9 10  2  0  0  0  0
 10 11  1  0  0  0  0
 12  8  2  0  0  0  0
 12  9  1  0  0  0  0
 13 11  2  0  0  0  0
 15 23  1  6  0  0  0
 15 18  1  0  0  0  0
 18 21  1  0  0  0  0
 18 16  1  0  0  0  0
 19 21  2  0  0  0  0
 20 16  1  0  0  0  0
 20 22  1  1  0  0  0
 21 17  1  0  0  0  0
 24 20  1  0  0  0  0
 25 14  1  6  0  0  0
 25 15  1  0  0  0  0
 25 24  1  0  0  0  0
M  END
>  <MODEL>
5

>  <REMARK>
 VINA RESULT:      -8.2      3.311      7.277
  Name = 
  3 active torsions:
  status: ('A' for Active; 'I' for Inactive)
    1  A    between atoms: C_1  and  C_14
    2  A    between atoms: O_2  and  C_21
    3  A    between atoms: O_2  and  C_24
                            x       y       z     vdW  Elec       q    Type
                         _______ _______ _______ _____ _____    ______ ____

>  <TORSDO>
F 3

$$$$
=
 OpenBabel11062418093D

 25 27  0  0  1  0  0  0  0  0999 V2000
  187.4440  177.4900  144.9360 C   0  0  0  0  0  3  0  0  0  0  0  0
  185.4900  178.2590  143.6940 C   0  0  0  0  0  0  0  0  0  0  0  0
  184.9280  178.6700  147.3000 F   0  0  0  0  0  0  0  0  0  0  0  0
  186.8220  177.8160  146.1400 C   0  0  0  0  0  3  0  0  0  0  0  0
  186.7930  177.6970  143.7070 C   0  0  0  0  0  0  0  0  0  0  0  0
  185.5370  178.3540  146.1330 C   0  0  0  0  0  0  0  0  0  0  0  0
  184.8800  178.5730  144.9220 C   0  0  0  0  0  3  0  0  0  0  0  0
  184.7360  178.5270  142.4350 C   0  0  0  0  0  0  0  0  0  0  0  0
  184.6390  179.2490  140.1220 C   0  0  0  0  0  3  0  0  0  0  0  0
  183.2940  179.0530  140.1160 N   0  0  0  0  0  0  0  0  0  0  0  0
  182.6370  178.6090  141.2200 C   0  0  0  0  0  3  0  0  0  0  0  0
  185.3780  178.9930  141.2790 C   0  0  0  0  0  3  0  0  0  0  0  0
  183.3450  178.3420  142.3950 C   0  0  0  0  0  3  0  0  0  0  0  0
  187.4250  177.3430  142.5080 O   0  0  0  0  0  0  0  0  0  0  0  0
  189.0450  177.3470  140.7150 C   0  0  2  0  0  3  0  0  0  0  0  0
  191.4930  177.4730  141.5180 C   0  0  0  0  0  2  0  0  0  0  0  0
  192.1810  176.5610  138.9830 O   0  0  0  0  0  1  0  0  0  0  0  0
  190.4940  177.2210  140.4700 N   0  0  0  0  0  0  0  0  0  0  0  0
  190.0330  176.2390  138.2680 O   0  0  0  0  0  0  0  0  0  0  0  0
  190.8450  177.9420  142.8170 C   0  0  2  0  0  3  0  0  0  0  0  0
  190.9480  176.6680  139.2240 C   0  0  0  0  0  0  0  0  0  0  0  0
  191.8050  177.7360  143.9680 C   0  0  0  0  0  1  0  0  0  0  0  0
  188.4370  178.3710  139.7700 C   0  0  0  0  0  1  0  0  0  0  0  0
  189.6720  177.2180  143.0430 O   0  0  0  0  0  0  0  0  0  0  0  0
  188.7370  177.7690  142.1560 C   0  0  2  0  0  3  0  0  0  0  0  0
  1  4  1  0  0  0  0
  2  5  1  0  0  0  0
  2  7  2  0  0  0  0
  5  1  2  0  0  0  0
  6  4  2  0  0  0  0
  6  3  1  0  0  0  0
  7  6  1  0  0  0  0
  8  2  1  0  0  0  0
  9 12  1  0  0  0  0
 10  9  2  0  0  0  0
 10 11  1  0  0  0  0
 11 13  2  0  0  0  0
 12  8  2  0  0  0  0
 13  8  1  0  0  0  0
 14  5  1  0  0  0  0
 15 23  1  6  0  0  0
 15 25  1  0  0  0  0
 16 20  1  0  0  0  0
 17 21  1  0  0  0  0
 18 15  1  0  0  0  0
 18 16  1  0  0  0  0
 19 21  2  0  0  0  0
 20 24  1  0  0  0  0
 20 22  1  1  0  0  0
 21 18  1  0  0  0  0
 25 14  1  1  0  0  0
 25 24  1  0  0  0  0
M  END
>  <MODEL>
6

>  <REMARK>
 VINA RESULT:      -8.2      2.361      5.797
  Name = 
  3 active torsions:
  status: ('A' for Active; 'I' for Inactive)
    1  A    between atoms: C_1  and  C_14
    2  A    between atoms: O_2  and  C_21
    3  A    between atoms: O_2  and  C_24
                            x       y       z     vdW  Elec       q    Type
                         _______ _______ _______ _____ _____    ______ ____

>  <TORSDO>
F 3

$$$$
=
 OpenBabel11062418093D

 25 27  0  0  1  0  0  0  0  0999 V2000
  185.4250  178.5270  142.5450 C   0  0  0  0  0  3  0  0  0  0  0  0
  186.1170  178.2230  144.8650 C   0  0  0  0  0  0  0  0  0  0  0  0
  182.4820  178.7210  144.6930 F   0  0  0  0  0  0  0  0  0  0  0  0
  184.0960  178.6620  142.9470 C   0  0  0  0  0  3  0  0  0  0  0  0
  186.4460  178.3140  143.4880 C   0  0  0  0  0  0  0  0  0  0  0  0
  183.7700  178.5870  144.2990 C   0  0  0  0  0  0  0  0  0  0  0  0
  184.7710  178.3700  145.2460 C   0  0  0  0  0  3  0  0  0  0  0  0
  187.1360  177.9820  145.9270 C   0  0  0  0  0  0  0  0  0  0  0  0
  189.3180  177.2100  146.6510 C   0  0  0  0  0  3  0  0  0  0  0  0
  188.9990  177.5110  147.9370 N   0  0  0  0  0  0  0  0  0  0  0  0
  187.7870  178.0330  148.2640 C   0  0  0  0  0  3  0  0  0  0  0  0
  188.3930  177.4370  145.6290 C   0  0  0  0  0  3  0  0  0  0  0  0
  186.8380  178.2740  147.2670 C   0  0  0  0  0  3  0  0  0  0  0  0
  187.7780  178.2020  143.0670 O   0  0  0  0  0  0  0  0  0  0  0  0
  189.6790  177.3300  141.8590 C   0  0  2  0  0  3  0  0  0  0  0  0
  189.4050  177.3890  139.2950 C   0  0  0  0  0  2  0  0  0  0  0  0
  192.1670  177.0940  139.1750 O   0  0  0  0  0  0  0  0  0  0  0  0
  190.2380  177.2420  140.4970 N   0  0  0  0  0  0  0  0  0  0  0  0
  192.5080  177.2290  141.4320 O   0  0  0  0  0  1  0  0  0  0  0  0
  187.9310  177.5580  139.6450 C   0  0  2  0  0  3  0  0  0  0  0  0
  191.6640  177.1830  140.3270 C   0  0  0  0  0  0  0  0  0  0  0  0
  187.1950  178.1660  138.4710 C   0  0  0  0  0  1  0  0  0  0  0  0
  189.9530  176.0470  142.6260 C   0  0  0  0  0  1  0  0  0  0  0  0
  187.8070  178.3890  140.7620 O   0  0  0  0  0  0  0  0  0  0  0  0
  188.1670  177.5790  141.8480 C   0  0  2  0  0  3  0  0  0  0  0  0
  1  4  2  0  0  0  0
  1  5  1  0  0  0  0
  2  7  1  0  0  0  0
  2  8  1  0  0  0  0
  4  6  1  0  0  0  0
  5  2  2  0  0  0  0
  6  3  1  0  0  0  0
  6  7  2  0  0  0  0
  8 13  1  0  0  0  0
  9 10  2  0  0  0  0
 10 11  1  0  0  0  0
 12  8  2  0  0  0  0
 12  9  1  0  0  0  0
 13 11  2  0  0  0  0
 14  5  1  0  0  0  0
 15 23  1  6  0  0  0
 16 20  1  0  0  0  0
 16 18  1  0  0  0  0
 17 21  2  0  0  0  0
 18 15  1  0  0  0  0
 20 22  1  6  0  0  0
 20 24  1  0  0  0  0
 21 18  1  0  0  0  0
 21 19  1  0  0  0  0
 24 25  1  0  0  0  0
 25 15  1  0  0  0  0
 25 14  1  1  0  0  0
M  END
>  <MODEL>
7

>  <REMARK>
 VINA RESULT:      -8.1      2.931      5.550
  Name = 
  3 active torsions:
  status: ('A' for Active; 'I' for Inactive)
    1  A    between atoms: C_1  and  C_14
    2  A    between atoms: O_2  and  C_21
    3  A    between atoms: O_2  and  C_24
                            x       y       z     vdW  Elec       q    Type
                         _______ _______ _______ _____ _____    ______ ____

>  <TORSDO>
F 3

$$$$
=
 OpenBabel11062418093D

 25 27  0  0  1  0  0  0  0  0999 V2000
  188.9570  177.1390  145.6330 C   0  0  0  0  0  3  0  0  0  0  0  0
  186.6590  177.9470  145.5080 C   0  0  0  0  0  0  0  0  0  0  0  0
  187.8550  178.0990  148.9770 F   0  0  0  0  0  0  0  0  0  0  0  0
  188.9750  177.3690  147.0090 C   0  0  0  0  0  3  0  0  0  0  0  0
  187.8090  177.4150  144.8700 C   0  0  0  0  0  0  0  0  0  0  0  0
  187.8430  177.8780  147.6410 C   0  0  0  0  0  0  0  0  0  0  0  0
  186.6980  178.1640  146.8970 C   0  0  0  0  0  3  0  0  0  0  0  0
  185.4070  178.2840  144.7700 C   0  0  0  0  0  0  0  0  0  0  0  0
  184.1640  178.5890  142.7100 C   0  0  0  0  0  3  0  0  0  0  0  0
  183.0670  178.9550  143.4250 N   0  0  0  0  0  0  0  0  0  0  0  0
  183.0900  179.0030  144.7830 C   0  0  0  0  0  3  0  0  0  0  0  0
  185.3480  178.2530  143.3690 C   0  0  0  0  0  3  0  0  0  0  0  0
  184.2570  178.6720  145.4750 C   0  0  0  0  0  3  0  0  0  0  0  0
  187.8030  177.1580  143.4930 O   0  0  0  0  0  0  0  0  0  0  0  0
  188.3060  177.5570  141.1640 C   0  0  2  0  0  3  0  0  0  0  0  0
  190.8120  177.3600  140.5870 C   0  0  0  0  0  2  0  0  0  0  0  0
  189.9970  177.1110  137.9400 O   0  0  0  0  0  0  0  0  0  0  0  0
  189.4000  177.4350  140.1830 N   0  0  0  0  0  0  0  0  0  0  0  0
  187.7560  177.0830  138.3950 O   0  0  0  0  0  1  0  0  0  0  0  0
  190.9780  177.5030  142.0960 C   0  0  2  0  0  3  0  0  0  0  0  0
  189.0800  177.2070  138.8010 C   0  0  0  0  0  0  0  0  0  0  0  0
  192.3270  176.9600  142.5140 C   0  0  0  0  0  1  0  0  0  0  0  0
  187.4990  178.8180  140.8990 C   0  0  0  0  0  1  0  0  0  0  0  0
  189.9620  176.7970  142.7470 O   0  0  0  0  0  0  0  0  0  0  0  0
  188.8230  177.6020  142.6060 C   0  0  2  0  0  3  0  0  0  0  0  0
  1  4  1  0  0  0  0
  2  7  2  0  0  0  0
  4  6  2  0  0  0  0
  5  2  1  0  0  0  0
  5  1  2  0  0  0  0
  6  3  1  0  0  0  0
  7  6  1  0  0  0  0
  8 13  1  0  0  0  0
  8  2  1  0  0  0  0
  9 12  1  0  0  0  0
  9 10  2  0  0  0  0
 10 11  1  0  0  0  0
 11 13  2  0  0  0  0
 12  8  2  0  0  0  0
 14  5  1  0  0  0  0
 15 23  1  6  0  0  0
 15 25  1  0  0  0  0
 16 20  1  0  0  0  0
 17 21  2  0  0  0  0
 18 16  1  0  0  0  0
 18 15  1  0  0  0  0
 19 21  1  0  0  0  0
 20 22  1  1  0  0  0
 20 24  1  0  0  0  0
 21 18  1  0  0  0  0
 25 24  1  0  0  0  0
 25 14  1  1  0  0  0
M  END
>  <MODEL>
8

>  <REMARK>
 VINA RESULT:      -8.0      2.107      4.890
  Name = 
  3 active torsions:
  status: ('A' for Active; 'I' for Inactive)
    1  A    between atoms: C_1  and  C_14
    2  A    between atoms: O_2  and  C_21
    3  A    between atoms: O_2  and  C_24
                            x       y       z     vdW  Elec       q    Type
                         _______ _______ _______ _____ _____    ______ ____

>  <TORSDO>
F 3

$$$$
=
 OpenBabel11062418093D

 25 27  0  0  1  0  0  0  0  0999 V2000
  190.9420  176.4750  144.1800 C   0  0  0  0  0  3  0  0  0  0  0  0
  188.9400  177.2510  145.3390 C   0  0  0  0  0  0  0  0  0  0  0  0
  191.6910  176.8250  147.7340 F   0  0  0  0  0  0  0  0  0  0  0  0
  191.6470  176.4650  145.3830 C   0  0  0  0  0  3  0  0  0  0  0  0
  189.5890  176.8580  144.1410 C   0  0  0  0  0  0  0  0  0  0  0  0
  191.0100  176.8370  146.5640 C   0  0  0  0  0  0  0  0  0  0  0  0
  189.6710  177.2260  146.5410 C   0  0  0  0  0  3  0  0  0  0  0  0
  187.5140  177.6870  145.3820 C   0  0  0  0  0  0  0  0  0  0  0  0
  185.3750  178.0870  144.3120 C   0  0  0  0  0  3  0  0  0  0  0  0
  184.8700  178.5440  145.4890 N   0  0  0  0  0  0  0  0  0  0  0  0
  185.6310  178.5940  146.6140 C   0  0  0  0  0  3  0  0  0  0  0  0
  186.7010  177.6570  144.2400 C   0  0  0  0  0  3  0  0  0  0  0  0
  186.9610  178.1710  146.5790 C   0  0  0  0  0  3  0  0  0  0  0  0
  188.8900  176.8420  142.9270 O   0  0  0  0  0  0  0  0  0  0  0  0
  188.1620  177.9020  140.8820 C   0  0  2  0  0  3  0  0  0  0  0  0
  189.8750  177.7550  138.9600 C   0  0  0  0  0  2  0  0  0  0  0  0
  187.7560  178.3670  137.2670 O   0  0  0  0  0  0  0  0  0  0  0  0
  188.5180  178.0250  139.4560 N   0  0  0  0  0  0  0  0  0  0  0  0
  186.1480  178.3230  138.8920 O   0  0  0  0  0  1  0  0  0  0  0  0
  190.8380  177.4230  140.0950 C   0  0  2  0  0  3  0  0  0  0  0  0
  187.4770  178.2460  138.4900 C   0  0  0  0  0  0  0  0  0  0  0  0
  192.0510  176.7080  139.5410 C   0  0  0  0  0  1  0  0  0  0  0  0
  187.6300  179.2260  141.4090 C   0  0  0  0  0  1  0  0  0  0  0  0
  190.1940  176.6090  141.0310 O   0  0  0  0  0  0  0  0  0  0  0  0
  189.3570  177.4790  141.7420 C   0  0  2  0  0  3  0  0  0  0  0  0
  1  4  1  0  0  0  0
  2  8  1  0  0  0  0
  2  7  2  0  0  0  0
  4  6  2  0  0  0  0
  5  1  2  0  0  0  0
  5  2  1  0  0  0  0
  6  3  1  0  0  0  0
  7  6  1  0  0  0  0
  8 13  1  0  0  0  0
  9 10  2  0  0  0  0
 10 11  1  0  0  0  0
 12  9  1  0  0  0  0
 12  8  2  0  0  0  0
 13 11  2  0  0  0  0
 14  5  1  0  0  0  0
 15 23  1  1  0  0  0
 15 25  1  0  0  0  0
 16 18  1  0  0  0  0
 16 20  1  0  0  0  0
 17 21  2  0  0  0  0
 18 15  1  0  0  0  0
 20 22  1  6  0  0  0
 20 24  1  0  0  0  0
 21 19  1  0  0  0  0
 21 18  1  0  0  0  0
 24 25  1  0  0  0  0
 25 14  1  1  0  0  0
M  END
>  <MODEL>
9

>  <REMARK>
 VINA RESULT:      -8.0      2.379      4.364
  Name = 
  3 active torsions:
  status: ('A' for Active; 'I' for Inactive)
    1  A    between atoms: C_1  and  C_14
    2  A    between atoms: O_2  and  C_21
    3  A    between atoms: O_2  and  C_24
                            x       y       z     vdW  Elec       q    Type
                         _______ _______ _______ _____ _____    ______ ____

>  <TORSDO>
F 3

$$$$
