=
 OpenBabel11062416593D

 26 30  0  0  1  0  0  0  0  0999 V2000
  192.1460  177.5170  140.9900 N   0  0  0  0  0  1  0  0  0  0  0  0
  192.1240  177.6310  143.3810 N   0  0  0  0  0  0  0  0  0  0  0  0
  190.0600  177.1130  142.2640 C   0  0  0  0  0  0  0  0  0  0  0  0
  187.9930  176.9540  143.5880 N   0  0  0  0  0  2  0  0  0  0  0  0
  190.1710  177.2470  144.6900 C   0  0  0  0  0  0  0  0  0  0  0  0
  189.4230  177.0560  143.5180 C   0  0  0  0  0  0  0  0  0  0  0  0
  185.9190  177.8670  144.5150 C   0  0  0  0  0  0  0  0  0  0  0  0
  185.2190  179.4220  147.7510 F   0  0  0  0  0  0  0  0  0  0  0  0
  187.1860  178.3330  146.9660 C   0  0  0  0  0  3  0  0  0  0  0  0
  185.8780  178.7770  146.7600 C   0  0  0  0  0  0  0  0  0  0  0  0
  187.2440  177.4520  144.7040 C   0  0  0  0  0  0  0  0  0  0  0  0
  189.4570  176.9160  146.3010 S   0  0  0  0  0  0  0  0  0  0  0  0
  185.3040  177.6770  143.3210 F   0  0  0  0  0  0  0  0  0  0  0  0
  191.4430  177.4140  142.2250 C   0  0  0  0  0  0  0  0  0  0  0  0
  187.8700  177.6670  145.9450 C   0  0  0  0  0  0  0  0  0  0  0  0
  191.5280  177.5430  144.5970 C   0  0  0  0  0  3  0  0  0  0  0  0
  185.2400  178.5320  145.5410 C   0  0  0  0  0  3  0  0  0  0  0  0
  190.0210  176.7400  139.7550 C   0  0  0  0  0  2  0  0  0  0  0  0
  188.3540  178.4190  140.4960 S   0  0  0  0  0  0  0  0  0  0  0  0
  189.4010  177.9490  139.0790 C   0  0  2  0  0  3  0  0  0  0  0  0
  189.2140  176.9080  141.0260 C   0  0  2  0  0  3  0  0  0  0  0  0
  188.2300  178.6020  136.9760 C   0  0  0  0  0  0  0  0  0  0  0  0
  188.5240  177.5000  137.9200 C   0  0  1  0  0  3  0  0  0  0  0  0
  189.2330  177.6560  136.7050 O   0  0  0  0  0  0  0  0  0  0  0  0
  188.7630  179.8800  137.1630 O   0  0  0  0  0  1  0  0  0  0  0  0
  187.1540  178.4730  136.1000 O   0  0  0  0  0  1  0  0  0  0  0  0
  1 14  1  0  0  0  0
  2 16  1  0  0  0  0
  3  6  2  0  0  0  0
  4 11  1  0  0  0  0
  5 12  1  0  0  0  0
  6  4  1  0  0  0  0
  6  5  1  0  0  0  0
  7 11  2  0  0  0  0
  7 17  1  0  0  0  0
 10  9  1  0  0  0  0
 10  8  1  0  0  0  0
 11 15  1  0  0  0  0
 13  7  1  0  0  0  0
 14  3  1  0  0  0  0
 14  2  2  0  0  0  0
 15 12  1  0  0  0  0
 15  9  2  0  0  0  0
 16  5  2  0  0  0  0
 17 10  2  0  0  0  0
 18 21  1  0  0  0  0
 19 21  1  0  0  0  0
 20 18  1  1  0  0  0
 20 19  1  0  0  0  0
 21  3  1  1  0  0  0
 22 25  1  0  0  0  0
 22 23  1  0  0  0  0
 23 24  1  6  0  0  0
 23 20  1  0  0  0  0
 24 22  1  0  0  0  0
 26 22  1  0  0  0  0
M  END
>  <MODEL>
1

>  <REMARK>
 VINA RESULT:      -8.7      0.000      0.000
  Name = 
  2 active torsions:
  status: ('A' for Active; 'I' for Inactive)
    1  A    between atoms: C_4  and  C_26
    2  A    between atoms: C_16  and  C_21
                            x       y       z     vdW  Elec       q    Type
                         _______ _______ _______ _____ _____    ______ ____

>  <TORSDO>
F 2

$$$$
=
 OpenBabel11062416593D

 26 30  0  0  1  0  0  0  0  0999 V2000
  185.1690  179.4540  140.4880 N   0  0  0  0  0  1  0  0  0  0  0  0
  187.4710  178.7990  140.5410 N   0  0  0  0  0  0  0  0  0  0  0  0
  186.0780  178.1500  142.3880 C   0  0  0  0  0  0  0  0  0  0  0  0
  187.1090  177.0580  144.3360 N   0  0  0  0  0  2  0  0  0  0  0  0
  188.4300  177.5370  142.3180 C   0  0  0  0  0  0  0  0  0  0  0  0
  187.1960  177.5390  142.9870 C   0  0  0  0  0  0  0  0  0  0  0  0
  188.0890  177.0690  146.5800 C   0  0  0  0  0  0  0  0  0  0  0  0
  191.5720  177.2920  147.6760 F   0  0  0  0  0  0  0  0  0  0  0  0
  190.6640  177.0480  145.4870 C   0  0  0  0  0  3  0  0  0  0  0  0
  190.4910  177.1830  146.8660 C   0  0  0  0  0  0  0  0  0  0  0  0
  188.2550  176.9700  145.1920 C   0  0  0  0  0  0  0  0  0  0  0  0
  189.7970  176.5440  142.9170 S   0  0  0  0  0  0  0  0  0  0  0  0
  186.8450  177.1140  147.1200 F   0  0  0  0  0  0  0  0  0  0  0  0
  186.2500  178.7910  141.1370 C   0  0  0  0  0  0  0  0  0  0  0  0
  189.5510  176.9370  144.6480 C   0  0  0  0  0  0  0  0  0  0  0  0
  188.5470  178.1840  141.0920 C   0  0  0  0  0  3  0  0  0  0  0  0
  189.2060  177.1800  147.4130 C   0  0  0  0  0  3  0  0  0  0  0  0
  183.5510  177.9610  142.2620 C   0  0  0  0  0  2  0  0  0  0  0  0
  184.2970  179.7730  143.7800 S   0  0  0  0  0  0  0  0  0  0  0  0
  182.9290  179.2800  142.6800 C   0  0  2  0  0  3  0  0  0  0  0  0
  184.7680  178.1350  143.1460 C   0  0  2  0  0  3  0  0  0  0  0  0
  180.4780  179.6730  142.9260 C   0  0  0  0  0  0  0  0  0  0  0  0
  181.6760  179.0230  143.5040 C   0  0  1  0  0  3  0  0  0  0  0  0
  180.7380  178.3080  142.7230 O   0  0  0  0  0  0  0  0  0  0  0  0
  180.5490  180.3950  141.7320 O   0  0  0  0  0  1  0  0  0  0  0  0
  179.3590  179.8680  143.7330 O   0  0  0  0  0  1  0  0  0  0  0  0
  1 14  1  0  0  0  0
  2 16  2  0  0  0  0
  2 14  1  0  0  0  0
  3  6  1  0  0  0  0
  4 11  1  0  0  0  0
  5 12  1  0  0  0  0
  5  6  2  0  0  0  0
  6  4  1  0  0  0  0
  7 13  1  0  0  0  0
  7 17  1  0  0  0  0
  9 10  1  0  0  0  0
 10 17  2  0  0  0  0
 10  8  1  0  0  0  0
 11  7  2  0  0  0  0
 12 15  1  0  0  0  0
 14  3  2  0  0  0  0
 15 11  1  0  0  0  0
 15  9  2  0  0  0  0
 16  5  1  0  0  0  0
 18 21  1  0  0  0  0
 20 18  1  1  0  0  0
 20 23  1  0  0  0  0
 20 19  1  0  0  0  0
 21  3  1  6  0  0  0
 21 19  1  0  0  0  0
 22 23  1  0  0  0  0
 22 26  1  0  0  0  0
 23 24  1  6  0  0  0
 24 22  1  0  0  0  0
 25 22  1  0  0  0  0
M  END
>  <MODEL>
2

>  <REMARK>
 VINA RESULT:      -8.4      4.515      6.124
  Name = 
  2 active torsions:
  status: ('A' for Active; 'I' for Inactive)
    1  A    between atoms: C_4  and  C_26
    2  A    between atoms: C_16  and  C_21
                            x       y       z     vdW  Elec       q    Type
                         _______ _______ _______ _____ _____    ______ ____

>  <TORSDO>
F 2

$$$$
=
 OpenBabel11062416593D

 26 30  0  0  1  0  0  0  0  0999 V2000
  192.0580  176.9420  146.5180 N   0  0  0  0  0  1  0  0  0  0  0  0
  190.0640  177.5160  147.7110 N   0  0  0  0  0  0  0  0  0  0  0  0
  189.8480  176.8990  145.3990 C   0  0  0  0  0  0  0  0  0  0  0  0
  187.6540  177.1050  144.3070 N   0  0  0  0  0  2  0  0  0  0  0  0
  187.8970  177.4930  146.7220 C   0  0  0  0  0  0  0  0  0  0  0  0
  188.4610  177.1180  145.4930 C   0  0  0  0  0  0  0  0  0  0  0  0
  185.9940  178.2840  142.9480 C   0  0  0  0  0  0  0  0  0  0  0  0
  183.2210  180.4690  143.9090 F   0  0  0  0  0  0  0  0  0  0  0  0
  184.6740  179.1490  145.2590 C   0  0  0  0  0  3  0  0  0  0  0  0
  184.2650  179.6110  144.0060 C   0  0  0  0  0  0  0  0  0  0  0  0
  186.4320  177.8460  144.2050 C   0  0  0  0  0  0  0  0  0  0  0  0
  186.1180  177.5160  146.9480 S   0  0  0  0  0  0  0  0  0  0  0  0
  186.6450  177.8990  141.8220 F   0  0  0  0  0  0  0  0  0  0  0  0
  190.6440  177.1150  146.5500 C   0  0  0  0  0  0  0  0  0  0  0  0
  185.7520  178.2650  145.3630 C   0  0  0  0  0  0  0  0  0  0  0  0
  188.7240  177.6960  147.8230 C   0  0  0  0  0  3  0  0  0  0  0  0
  184.9150  179.1690  142.8510 C   0  0  0  0  0  3  0  0  0  0  0  0
  190.8310  177.6770  143.1920 C   0  0  0  0  0  2  0  0  0  0  0  0
  189.1520  175.8750  142.9060 S   0  0  0  0  0  0  0  0  0  0  0  0
  189.8760  177.3230  142.0670 C   0  0  2  0  0  3  0  0  0  0  0  0
  190.4160  176.5020  144.0530 C   0  0  2  0  0  3  0  0  0  0  0  0
  189.8500  176.8950  139.6100 C   0  0  0  0  0  0  0  0  0  0  0  0
  190.6630  176.8680  140.8470 C   0  0  1  0  0  3  0  0  0  0  0  0
  190.7460  177.9310  139.9170 O   0  0  0  0  0  0  0  0  0  0  0  0
  188.5250  177.3390  139.6220 O   0  0  0  0  0  1  0  0  0  0  0  0
  190.2740  176.1600  138.5050 O   0  0  0  0  0  1  0  0  0  0  0  0
  1 14  1  0  0  0  0
  2 16  1  0  0  0  0
  3  6  2  0  0  0  0
  3 14  1  0  0  0  0
  4  6  1  0  0  0  0
  5 12  1  0  0  0  0
  5 16  2  0  0  0  0
  6  5  1  0  0  0  0
  7 11  1  0  0  0  0
  8 10  1  0  0  0  0
  9 15  1  0  0  0  0
 10  9  2  0  0  0  0
 11  4  1  0  0  0  0
 11 15  2  0  0  0  0
 13  7  1  0  0  0  0
 14  2  2  0  0  0  0
 15 12  1  0  0  0  0
 17  7  2  0  0  0  0
 17 10  1  0  0  0  0
 18 21  1  0  0  0  0
 19 21  1  0  0  0  0
 20 19  1  0  0  0  0
 20 18  1  1  0  0  0
 21  3  1  1  0  0  0
 22 25  1  0  0  0  0
 22 24  1  0  0  0  0
 22 23  1  0  0  0  0
 23 24  1  6  0  0  0
 23 20  1  0  0  0  0
 26 22  1  0  0  0  0
M  END
>  <MODEL>
3

>  <REMARK>
 VINA RESULT:      -7.9      2.468      3.444
  Name = 
  2 active torsions:
  status: ('A' for Active; 'I' for Inactive)
    1  A    between atoms: C_4  and  C_26
    2  A    between atoms: C_16  and  C_21
                            x       y       z     vdW  Elec       q    Type
                         _______ _______ _______ _____ _____    ______ ____

>  <TORSDO>
F 2

$$$$
=
 OpenBabel11062416593D

 26 30  0  0  1  0  0  0  0  0999 V2000
  190.9530  176.3210  142.7510 N   0  0  0  0  0  1  0  0  0  0  0  0
  190.6760  176.3330  140.3740 N   0  0  0  0  0  0  0  0  0  0  0  0
  189.0970  177.5750  141.6930 C   0  0  0  0  0  0  0  0  0  0  0  0
  187.1560  178.5980  140.5820 N   0  0  0  0  0  2  0  0  0  0  0  0
  188.9300  177.5170  139.2680 C   0  0  0  0  0  0  0  0  0  0  0  0
  188.4270  177.9360  140.5090 C   0  0  0  0  0  0  0  0  0  0  0  0
  184.8170  178.6250  139.8600 C   0  0  0  0  0  0  0  0  0  0  0  0
  183.2710  177.6210  136.7000 F   0  0  0  0  0  0  0  0  0  0  0  0
  185.5700  177.8060  137.2930 C   0  0  0  0  0  3  0  0  0  0  0  0
  184.2170  177.9080  137.6250 C   0  0  0  0  0  0  0  0  0  0  0  0
  186.1750  178.4890  139.5430 C   0  0  0  0  0  0  0  0  0  0  0  0
  188.2670  178.1770  137.7380 S   0  0  0  0  0  0  0  0  0  0  0  0
  184.4370  178.9890  141.1100 F   0  0  0  0  0  0  0  0  0  0  0  0
  190.2430  176.7490  141.5930 C   0  0  0  0  0  0  0  0  0  0  0  0
  186.5510  178.0990  138.2450 C   0  0  0  0  0  0  0  0  0  0  0  0
  190.0580  176.7040  139.2240 C   0  0  0  0  0  3  0  0  0  0  0  0
  183.8410  178.3300  138.9020 C   0  0  0  0  0  3  0  0  0  0  0  0
  189.5470  178.2150  144.1070 C   0  0  0  0  0  2  0  0  0  0  0  0
  187.5620  176.7510  143.8640 S   0  0  0  0  0  0  0  0  0  0  0  0
  188.8950  177.1990  145.0240 C   0  0  2  0  0  3  0  0  0  0  0  0
  188.5160  178.0420  143.0110 C   0  0  2  0  0  3  0  0  0  0  0  0
  188.6210  177.2040  147.5040 C   0  0  0  0  0  0  0  0  0  0  0  0
  188.3040  177.9020  146.2370 C   0  0  1  0  0  3  0  0  0  0  0  0
  189.3490  178.3310  147.0890 O   0  0  0  0  0  0  0  0  0  0  0  0
  189.4150  176.0540  147.5200 O   0  0  0  0  0  1  0  0  0  0  0  0
  187.8560  177.4760  148.6360 O   0  0  0  0  0  1  0  0  0  0  0  0
  2 14  1  0  0  0  0
  5  6  2  0  0  0  0
  6  4  1  0  0  0  0
  6  3  1  0  0  0  0
  7 13  1  0  0  0  0
  8 10  1  0  0  0  0
  9 10  2  0  0  0  0
  9 15  1  0  0  0  0
 10 17  1  0  0  0  0
 11  7  1  0  0  0  0
 11  4  1  0  0  0  0
 12 15  1  0  0  0  0
 12  5  1  0  0  0  0
 14  3  2  0  0  0  0
 14  1  1  0  0  0  0
 15 11  2  0  0  0  0
 16  5  1  0  0  0  0
 16  2  2  0  0  0  0
 17  7  2  0  0  0  0
 19 20  1  0  0  0  0
 20 18  1  6  0  0  0
 20 23  1  0  0  0  0
 21  3  1  6  0  0  0
 21 19  1  0  0  0  0
 21 18  1  0  0  0  0
 22 25  1  0  0  0  0
 22 26  1  0  0  0  0
 23 24  1  1  0  0  0
 23 22  1  0  0  0  0
 24 22  1  0  0  0  0
M  END
>  <MODEL>
4

>  <REMARK>
 VINA RESULT:      -7.6      4.578      7.109
  Name = 
  2 active torsions:
  status: ('A' for Active; 'I' for Inactive)
    1  A    between atoms: C_4  and  C_26
    2  A    between atoms: C_16  and  C_21
                            x       y       z     vdW  Elec       q    Type
                         _______ _______ _______ _____ _____    ______ ____

>  <TORSDO>
F 2

$$$$
=
 OpenBabel11062416593D

 26 30  0  0  1  0  0  0  0  0999 V2000
  188.3050  179.0080  138.6540 N   0  0  0  0  0  1  0  0  0  0  0  0
  189.9220  177.6120  139.7350 N   0  0  0  0  0  0  0  0  0  0  0  0
  187.9450  178.2010  140.9680 C   0  0  0  0  0  0  0  0  0  0  0  0
  187.7740  177.5490  143.3330 N   0  0  0  0  0  2  0  0  0  0  0  0
  189.6560  176.7810  141.9510 C   0  0  0  0  0  0  0  0  0  0  0  0
  188.4380  177.4680  142.0640 C   0  0  0  0  0  0  0  0  0  0  0  0
  187.9950  177.9700  145.7350 C   0  0  0  0  0  0  0  0  0  0  0  0
  190.7330  177.2560  148.0540 F   0  0  0  0  0  0  0  0  0  0  0  0
  190.4480  176.6260  145.7750 C   0  0  0  0  0  3  0  0  0  0  0  0
  189.9920  177.2820  146.9210 C   0  0  0  0  0  0  0  0  0  0  0  0
  188.4650  177.3460  144.5720 C   0  0  0  0  0  0  0  0  0  0  0  0
  190.1800  175.6250  143.2190 S   0  0  0  0  0  0  0  0  0  0  0  0
  186.8230  178.6540  145.7210 F   0  0  0  0  0  0  0  0  0  0  0  0
  188.7290  178.2610  139.7900 C   0  0  0  0  0  0  0  0  0  0  0  0
  189.6880  176.6510  144.6020 C   0  0  0  0  0  0  0  0  0  0  0  0
  190.3900  176.8740  140.7720 C   0  0  0  0  0  3  0  0  0  0  0  0
  188.7610  177.9410  146.9050 C   0  0  0  0  0  3  0  0  0  0  0  0
  185.7420  178.3570  142.2170 C   0  0  0  0  0  2  0  0  0  0  0  0
  185.4700  178.6280  139.7680 S   0  0  0  0  0  0  0  0  0  0  0  0
  184.6030  178.0490  141.2640 C   0  0  2  0  0  3  0  0  0  0  0  0
  186.6300  178.9330  141.1340 C   0  0  2  0  0  3  0  0  0  0  0  0
  182.1650  178.4710  140.9480 C   0  0  0  0  0  0  0  0  0  0  0  0
  183.4220  178.9620  141.5570 C   0  0  1  0  0  3  0  0  0  0  0  0
  182.4530  178.2530  142.3050 O   0  0  0  0  0  0  0  0  0  0  0  0
  182.1260  177.2730  140.2300 O   0  0  0  0  0  1  0  0  0  0  0  0
  181.1010  179.3560  140.7850 O   0  0  0  0  0  1  0  0  0  0  0  0
  1 14  1  0  0  0  0
  2 14  2  0  0  0  0
  2 16  1  0  0  0  0
  3  6  2  0  0  0  0
  4 11  1  0  0  0  0
  5  6  1  0  0  0  0
  5 12  1  0  0  0  0
  6  4  1  0  0  0  0
  7 17  1  0  0  0  0
  9 10  1  0  0  0  0
 10  8  1  0  0  0  0
 11 15  1  0  0  0  0
 11  7  2  0  0  0  0
 12 15  1  0  0  0  0
 13  7  1  0  0  0  0
 14  3  1  0  0  0  0
 15  9  2  0  0  0  0
 16  5  2  0  0  0  0
 17 10  2  0  0  0  0
 19 21  1  0  0  0  0
 19 20  1  0  0  0  0
 20 23  1  0  0  0  0
 20 18  1  1  0  0  0
 21  3  1  6  0  0  0
 21 18  1  0  0  0  0
 22 23  1  0  0  0  0
 22 24  1  0  0  0  0
 23 24  1  1  0  0  0
 25 22  1  0  0  0  0
 26 22  1  0  0  0  0
M  END
>  <MODEL>
5

>  <REMARK>
 VINA RESULT:      -7.5      3.653      4.698
  Name = 
  2 active torsions:
  status: ('A' for Active; 'I' for Inactive)
    1  A    between atoms: C_4  and  C_26
    2  A    between atoms: C_16  and  C_21
                            x       y       z     vdW  Elec       q    Type
                         _______ _______ _______ _____ _____    ______ ____

>  <TORSDO>
F 2

$$$$
=
 OpenBabel11062416593D

 26 30  0  0  1  0  0  0  0  0999 V2000
  189.9380  176.9360  140.2940 N   0  0  0  0  0  1  0  0  0  0  0  0
  188.1150  177.4250  138.8230 N   0  0  0  0  0  0  0  0  0  0  0  0
  187.9050  178.0800  141.1250 C   0  0  0  0  0  0  0  0  0  0  0  0
  185.7650  179.0010  141.9140 N   0  0  0  0  0  2  0  0  0  0  0  0
  186.1260  178.5300  139.5290 C   0  0  0  0  0  0  0  0  0  0  0  0
  186.6210  178.5810  140.8420 C   0  0  0  0  0  0  0  0  0  0  0  0
  183.5650  178.8140  142.9720 C   0  0  0  0  0  0  0  0  0  0  0  0
  180.2450  178.2950  141.5250 F   0  0  0  0  0  0  0  0  0  0  0  0
  182.3360  178.7080  140.4610 C   0  0  0  0  0  3  0  0  0  0  0  0
  181.5770  178.5190  141.6180 C   0  0  0  0  0  0  0  0  0  0  0  0
  184.3360  178.9680  141.8120 C   0  0  0  0  0  0  0  0  0  0  0  0
  184.6220  179.3960  139.0790 S   0  0  0  0  0  0  0  0  0  0  0  0
  184.1530  178.8290  144.1940 F   0  0  0  0  0  0  0  0  0  0  0  0
  188.6450  177.4890  140.0720 C   0  0  0  0  0  0  0  0  0  0  0  0
  183.7120  178.9370  140.5520 C   0  0  0  0  0  0  0  0  0  0  0  0
  186.8930  177.9360  138.5300 C   0  0  0  0  0  3  0  0  0  0  0  0
  182.1890  178.5850  142.8730 C   0  0  0  0  0  3  0  0  0  0  0  0
  189.8990  178.2870  142.6800 C   0  0  0  0  0  2  0  0  0  0  0  0
  188.2900  176.5530  143.4200 S   0  0  0  0  0  0  0  0  0  0  0  0
  190.0570  176.9990  143.4660 C   0  0  2  0  0  3  0  0  0  0  0  0
  188.3960  178.1490  142.5550 C   0  0  2  0  0  3  0  0  0  0  0  0
  191.5350  176.4110  145.3880 C   0  0  0  0  0  0  0  0  0  0  0  0
  190.4680  177.3130  144.8970 C   0  0  1  0  0  3  0  0  0  0  0  0
  191.8290  177.7030  144.9200 O   0  0  0  0  0  0  0  0  0  0  0  0
  192.0880  175.4260  144.5650 O   0  0  0  0  0  1  0  0  0  0  0  0
  191.7490  176.3010  146.7600 O   0  0  0  0  0  1  0  0  0  0  0  0
  2 14  1  0  0  0  0
  5  6  2  0  0  0  0
  6  3  1  0  0  0  0
  6  4  1  0  0  0  0
  7 13  1  0  0  0  0
  8 10  1  0  0  0  0
  9 15  2  0  0  0  0
  9 10  1  0  0  0  0
 10 17  2  0  0  0  0
 11  4  1  0  0  0  0
 11  7  2  0  0  0  0
 12  5  1  0  0  0  0
 12 15  1  0  0  0  0
 14  1  1  0  0  0  0
 14  3  2  0  0  0  0
 15 11  1  0  0  0  0
 16  2  2  0  0  0  0
 16  5  1  0  0  0  0
 17  7  1  0  0  0  0
 19 20  1  0  0  0  0
 20 18  1  6  0  0  0
 20 23  1  0  0  0  0
 21  3  1  6  0  0  0
 21 18  1  0  0  0  0
 21 19  1  0  0  0  0
 22 26  1  0  0  0  0
 23 24  1  6  0  0  0
 23 22  1  0  0  0  0
 24 22  1  0  0  0  0
 25 22  1  0  0  0  0
M  END
>  <MODEL>
6

>  <REMARK>
 VINA RESULT:      -7.5      4.412      6.306
  Name = 
  2 active torsions:
  status: ('A' for Active; 'I' for Inactive)
    1  A    between atoms: C_4  and  C_26
    2  A    between atoms: C_16  and  C_21
                            x       y       z     vdW  Elec       q    Type
                         _______ _______ _______ _____ _____    ______ ____

>  <TORSDO>
F 2

$$$$
=
 OpenBabel11062416593D

 26 30  0  0  1  0  0  0  0  0999 V2000
  185.5440  179.0390  146.9680 N   0  0  0  0  0  1  0  0  0  0  0  0
  184.7590  179.6720  144.7970 N   0  0  0  0  0  0  0  0  0  0  0  0
  186.4700  177.9900  144.9240 C   0  0  0  0  0  0  0  0  0  0  0  0
  187.4940  177.1680  142.8450 N   0  0  0  0  0  2  0  0  0  0  0  0
  185.5820  178.7110  142.7790 C   0  0  0  0  0  0  0  0  0  0  0  0
  186.4770  177.9230  143.5190 C   0  0  0  0  0  0  0  0  0  0  0  0
  189.2360  177.1610  141.1230 C   0  0  0  0  0  0  0  0  0  0  0  0
  189.4310  178.8840  137.9020 F   0  0  0  0  0  0  0  0  0  0  0  0
  187.6270  178.7230  139.4490 C   0  0  0  0  0  3  0  0  0  0  0  0
  188.9410  178.4260  139.0780 C   0  0  0  0  0  0  0  0  0  0  0  0
  187.9310  177.4870  141.5170 C   0  0  0  0  0  0  0  0  0  0  0  0
  185.3730  178.4560  141.0160 S   0  0  0  0  0  0  0  0  0  0  0  0
  190.0370  176.4330  141.9400 F   0  0  0  0  0  0  0  0  0  0  0  0
  185.5830  178.8980  145.5510 C   0  0  0  0  0  0  0  0  0  0  0  0
  187.1170  178.2530  140.6630 C   0  0  0  0  0  0  0  0  0  0  0  0
  184.7320  179.5900  143.4430 C   0  0  0  0  0  3  0  0  0  0  0  0
  189.7390  177.6350  139.9080 C   0  0  0  0  0  3  0  0  0  0  0  0
  187.9170  177.7320  146.9930 C   0  0  0  0  0  2  0  0  0  0  0  0
  189.1030  177.0890  144.9140 S   0  0  0  0  0  0  0  0  0  0  0  0
  189.3790  177.7570  146.5880 C   0  0  2  0  0  3  0  0  0  0  0  0
  187.4570  177.1280  145.6830 C   0  0  2  0  0  3  0  0  0  0  0  0
  191.5600  176.6040  146.9530 C   0  0  0  0  0  0  0  0  0  0  0  0
  190.1630  176.7520  147.4180 C   0  0  1  0  0  3  0  0  0  0  0  0
  191.2400  177.4090  148.0580 O   0  0  0  0  0  0  0  0  0  0  0  0
  192.0550  177.3630  145.8880 O   0  0  0  0  0  1  0  0  0  0  0  0
  192.2840  175.4750  147.3320 O   0  0  0  0  0  1  0  0  0  0  0  0
  2 14  1  0  0  0  0
  3 14  2  0  0  0  0
  4  6  1  0  0  0  0
  5 16  1  0  0  0  0
  5  6  2  0  0  0  0
  6  3  1  0  0  0  0
  7 11  1  0  0  0  0
  7 13  1  0  0  0  0
  8 10  1  0  0  0  0
  9 15  1  0  0  0  0
 10  9  2  0  0  0  0
 10 17  1  0  0  0  0
 11  4  1  0  0  0  0
 12  5  1  0  0  0  0
 14  1  1  0  0  0  0
 15 12  1  0  0  0  0
 15 11  2  0  0  0  0
 16  2  2  0  0  0  0
 17  7  2  0  0  0  0
 19 21  1  0  0  0  0
 19 20  1  0  0  0  0
 20 18  1  1  0  0  0
 20 23  1  0  0  0  0
 21  3  1  6  0  0  0
 21 18  1  0  0  0  0
 22 26  1  0  0  0  0
 22 23  1  0  0  0  0
 22 24  1  0  0  0  0
 23 24  1  1  0  0  0
 25 22  1  0  0  0  0
M  END
>  <MODEL>
7

>  <REMARK>
 VINA RESULT:      -7.5      4.475      7.556
  Name = 
  2 active torsions:
  status: ('A' for Active; 'I' for Inactive)
    1  A    between atoms: C_4  and  C_26
    2  A    between atoms: C_16  and  C_21
                            x       y       z     vdW  Elec       q    Type
                         _______ _______ _______ _____ _____    ______ ____

>  <TORSDO>
F 2

$$$$
=
 OpenBabel11062416593D

 26 30  0  0  1  0  0  0  0  0999 V2000
  185.4160  178.2350  141.1920 N   0  0  0  0  0  1  0  0  0  0  0  0
  185.2820  177.9380  143.5630 N   0  0  0  0  0  0  0  0  0  0  0  0
  187.4470  178.3500  142.6050 C   0  0  0  0  0  0  0  0  0  0  0  0
  189.4350  178.2190  144.0470 N   0  0  0  0  0  2  0  0  0  0  0  0
  187.1770  178.0420  145.0020 C   0  0  0  0  0  0  0  0  0  0  0  0
  188.0090  178.2530  143.8920 C   0  0  0  0  0  0  0  0  0  0  0  0
  191.3620  177.0550  145.0080 C   0  0  0  0  0  0  0  0  0  0  0  0
  191.7280  175.2010  148.1400 F   0  0  0  0  0  0  0  0  0  0  0  0
  189.9130  176.5210  147.3410 C   0  0  0  0  0  3  0  0  0  0  0  0
  191.1890  175.9770  147.1700 C   0  0  0  0  0  0  0  0  0  0  0  0
  190.0690  177.5720  145.1570 C   0  0  0  0  0  0  0  0  0  0  0  0
  187.8180  178.1840  146.6710 S   0  0  0  0  0  0  0  0  0  0  0  0
  192.0630  177.2790  143.8680 F   0  0  0  0  0  0  0  0  0  0  0  0
  186.0480  178.1790  142.4670 C   0  0  0  0  0  0  0  0  0  0  0  0
  189.3520  177.3210  146.3410 C   0  0  0  0  0  0  0  0  0  0  0  0
  185.8080  177.8780  144.8120 C   0  0  0  0  0  3  0  0  0  0  0  0
  191.9170  176.2550  146.0120 C   0  0  0  0  0  3  0  0  0  0  0  0
  187.7620  178.2530  140.0900 C   0  0  0  0  0  2  0  0  0  0  0  0
  189.6950  177.3200  141.3290 S   0  0  0  0  0  0  0  0  0  0  0  0
  188.7860  177.1860  139.7550 C   0  0  2  0  0  3  0  0  0  0  0  0
  188.3810  178.5710  141.4350 C   0  0  2  0  0  3  0  0  0  0  0  0
  190.3780  176.5410  137.9450 C   0  0  0  0  0  0  0  0  0  0  0  0
  189.6710  177.6590  138.6110 C   0  0  1  0  0  3  0  0  0  0  0  0
  189.2110  177.0980  137.3960 O   0  0  0  0  0  0  0  0  0  0  0  0
  190.1800  175.2170  138.3440 O   0  0  0  0  0  1  0  0  0  0  0  0
  191.4960  176.8200  137.1610 O   0  0  0  0  0  1  0  0  0  0  0  0
  1 14  1  0  0  0  0
  2 16  1  0  0  0  0
  3  6  2  0  0  0  0
  4 11  1  0  0  0  0
  5 12  1  0  0  0  0
  6  4  1  0  0  0  0
  6  5  1  0  0  0  0
  7 11  2  0  0  0  0
  7 17  1  0  0  0  0
 10  9  1  0  0  0  0
 10  8  1  0  0  0  0
 11 15  1  0  0  0  0
 13  7  1  0  0  0  0
 14  3  1  0  0  0  0
 14  2  2  0  0  0  0
 15 12  1  0  0  0  0
 15  9  2  0  0  0  0
 16  5  2  0  0  0  0
 17 10  2  0  0  0  0
 18 21  1  0  0  0  0
 19 21  1  0  0  0  0
 20 18  1  1  0  0  0
 20 19  1  0  0  0  0
 21  3  1  1  0  0  0
 22 25  1  0  0  0  0
 22 23  1  0  0  0  0
 23 24  1  6  0  0  0
 23 20  1  0  0  0  0
 24 22  1  0  0  0  0
 26 22  1  0  0  0  0
M  END
>  <MODEL>
8

>  <REMARK>
 VINA RESULT:      -7.4      2.809      4.415
  Name = 
  2 active torsions:
  status: ('A' for Active; 'I' for Inactive)
    1  A    between atoms: C_4  and  C_26
    2  A    between atoms: C_16  and  C_21
                            x       y       z     vdW  Elec       q    Type
                         _______ _______ _______ _____ _____    ______ ____

>  <TORSDO>
F 2

$$$$
=
 OpenBabel11062416593D

 26 30  0  0  1  0  0  0  0  0999 V2000
  190.8930  176.5940  140.6980 N   0  0  0  0  0  1  0  0  0  0  0  0
  189.3830  176.8500  138.8580 N   0  0  0  0  0  0  0  0  0  0  0  0
  188.7510  177.8070  140.9700 C   0  0  0  0  0  0  0  0  0  0  0  0
  186.5100  178.7920  141.2120 N   0  0  0  0  0  2  0  0  0  0  0  0
  187.3080  178.0080  139.0230 C   0  0  0  0  0  0  0  0  0  0  0  0
  187.5480  178.2440  140.3850 C   0  0  0  0  0  0  0  0  0  0  0  0
  184.1490  178.7140  141.8540 C   0  0  0  0  0  0  0  0  0  0  0  0
  181.1550  177.9510  139.8950 F   0  0  0  0  0  0  0  0  0  0  0  0
  183.4120  178.2500  139.1950 C   0  0  0  0  0  3  0  0  0  0  0  0
  182.4480  178.2060  140.2050 C   0  0  0  0  0  0  0  0  0  0  0  0
  185.1260  178.7220  140.8490 C   0  0  0  0  0  0  0  0  0  0  0  0
  185.9230  178.7810  138.1860 S   0  0  0  0  0  0  0  0  0  0  0  0
  184.4970  178.9040  143.1510 F   0  0  0  0  0  0  0  0  0  0  0  0
  189.6700  177.0910  140.1650 C   0  0  0  0  0  0  0  0  0  0  0  0
  184.7490  178.5110  139.5110 C   0  0  0  0  0  0  0  0  0  0  0  0
  188.2430  177.2970  138.2760 C   0  0  0  0  0  3  0  0  0  0  0  0
  182.8140  178.4510  141.5310 C   0  0  0  0  0  3  0  0  0  0  0  0
  190.4230  178.2000  142.8380 C   0  0  0  0  0  2  0  0  0  0  0  0
  188.6190  176.6290  143.4880 S   0  0  0  0  0  0  0  0  0  0  0  0
  190.3650  177.0400  143.8130 C   0  0  2  0  0  3  0  0  0  0  0  0
  188.9660  178.0770  142.4440 C   0  0  2  0  0  3  0  0  0  0  0  0
  191.3820  176.6840  146.0630 C   0  0  0  0  0  0  0  0  0  0  0  0
  190.5140  177.5540  145.2370 C   0  0  1  0  0  3  0  0  0  0  0  0
  191.8710  177.8670  145.4850 O   0  0  0  0  0  0  0  0  0  0  0  0
  192.0000  175.5530  145.5230 O   0  0  0  0  0  1  0  0  0  0  0  0
  191.3130  176.7820  147.4510 O   0  0  0  0  0  1  0  0  0  0  0  0
  2 14  1  0  0  0  0
  5  6  2  0  0  0  0
  6  3  1  0  0  0  0
  6  4  1  0  0  0  0
  7 13  1  0  0  0  0
  8 10  1  0  0  0  0
  9 15  2  0  0  0  0
  9 10  1  0  0  0  0
 10 17  2  0  0  0  0
 11  4  1  0  0  0  0
 11  7  2  0  0  0  0
 12  5  1  0  0  0  0
 12 15  1  0  0  0  0
 14  1  1  0  0  0  0
 14  3  2  0  0  0  0
 15 11  1  0  0  0  0
 16  2  2  0  0  0  0
 16  5  1  0  0  0  0
 17  7  1  0  0  0  0
 19 20  1  0  0  0  0
 20 18  1  6  0  0  0
 20 23  1  0  0  0  0
 21  3  1  6  0  0  0
 21 18  1  0  0  0  0
 21 19  1  0  0  0  0
 22 26  1  0  0  0  0
 23 24  1  6  0  0  0
 23 22  1  0  0  0  0
 24 22  1  0  0  0  0
 25 22  1  0  0  0  0
M  END
>  <MODEL>
9

>  <REMARK>
 VINA RESULT:      -7.3      4.430      6.497
  Name = 
  2 active torsions:
  status: ('A' for Active; 'I' for Inactive)
    1  A    between atoms: C_4  and  C_26
    2  A    between atoms: C_16  and  C_21
                            x       y       z     vdW  Elec       q    Type
                         _______ _______ _______ _____ _____    ______ ____

>  <TORSDO>
F 2

$$$$
