=
 OpenBabel11062414583D

 51 58  0  0  1  0  0  0  0  0999 V2000
  188.1530  178.0390  137.3240 C   0  0  2  0  0  3  0  0  0  0  0  0
  182.2280  175.6760  136.3930 C   0  0  0  0  0  2  0  0  0  0  0  0
  184.3640  178.2470  137.8950 C   0  0  1  0  0  3  0  0  0  0  0  0
  183.8270  173.7970  136.3950 N   0  0  0  0  0  0  0  0  0  0  0  0
  184.5070  172.8350  137.2590 C   0  0  0  0  0  1  0  0  0  0  0  0
  186.6670  179.7820  136.5930 O   0  0  0  0  0  1  0  0  0  0  0  0
  188.2540  176.5640  137.7750 C   0  0  1  0  0  3  0  0  0  0  0  0
  187.9130  175.6160  136.6600 C   0  0  0  0  0  0  0  0  0  0  0  0
  186.7110  178.4530  137.0170 C   0  0  2  0  0  3  0  0  0  0  0  0
  188.7760  175.3190  135.7900 O   0  0  0  0  0  0  0  0  0  0  0  0
  185.8460  178.2990  138.2600 C   0  0  0  0  0  2  0  0  0  0  0  0
  183.1820  174.8340  137.2180 C   0  0  1  0  0  3  0  0  0  0  0  0
  184.0610  177.0570  137.0780 N   0  0  2  0  0  0  0  0  0  0  0  0
  182.6900  177.1080  136.5830 C   0  0  0  0  0  2  0  0  0  0  0  0
  184.6840  174.3440  135.3150 C   0  0  0  0  0  2  0  0  0  0  0  0
  184.1580  175.8170  137.8420 C   0  0  0  0  0  2  0  0  0  0  0  0
  189.0880  178.3570  136.1610 C   0  0  0  0  0  1  0  0  0  0  0  0
  186.1990  174.2480  135.5370 C   0  0  0  0  0  2  0  0  0  0  0  0
  186.6070  175.1460  136.5560 O   0  0  0  0  0  0  0  0  0  0  0  0
  181.8650  178.8380  141.3620 C   0  0  0  0  0  0  0  0  0  0  0  0
  183.4930  178.4170  139.1170 C   0  0  0  0  0  0  0  0  0  0  0  0
  181.4510  179.2840  140.1040 C   0  0  0  0  0  3  0  0  0  0  0  0
  181.0410  179.0500  142.5000 N   0  0  0  0  0  1  0  0  0  0  0  0
  183.0960  178.1900  141.5020 C   0  0  0  0  0  3  0  0  0  0  0  0
  183.9090  177.9820  140.3850 C   0  0  0  0  0  3  0  0  0  0  0  0
  182.2650  179.0780  138.9850 C   0  0  0  0  0  3  0  0  0  0  0  0
  189.5970  176.2380  138.4590 C   0  0  1  0  0  3  0  0  0  0  0  0
  192.2060  173.7120  137.7770 O   0  0  0  0  0  0  0  0  0  0  0  0
  189.9440  173.3080  137.4270 O   0  0  0  0  0  0  0  0  0  0  0  0
  190.6070  175.6360  137.4560 C   0  0  1  0  0  3  0  0  0  0  0  0
  192.7080  175.9270  138.4850 C   0  0  2  0  0  3  0  0  0  0  0  0
  191.9730  176.3020  137.2130 C   0  0  2  0  0  3  0  0  0  0  0  0
  192.6130  177.2490  137.9990 O   0  0  0  0  0  0  0  0  0  0  0  0
  193.2920  174.6640  137.8730 C   0  0  0  0  0  2  0  0  0  0  0  0
  190.8730  174.1480  137.5660 C   0  0  0  0  0  0  0  0  0  0  0  0
  190.1730  177.4390  139.2150 C   0  0  0  0  0  2  0  0  0  0  0  0
  187.7880  177.1200  143.1240 C   0  0  0  0  0  0  0  0  0  0  0  0
  190.5750  175.9630  142.1020 C   0  0  0  0  0  2  0  0  0  0  0  0
  189.2830  177.2550  143.0320 C   0  0  1  0  0  3  0  0  0  0  0  0
  188.3680  178.7630  140.4630 C   0  0  0  0  0  3  0  0  0  0  0  0
  190.0440  176.0500  143.4980 C   0  0  2  0  0  3  0  0  0  0  0  0
  189.4250  177.7360  140.4740 C   0  0  0  0  0  0  0  0  0  0  0  0
  187.2370  176.2660  144.0740 O   0  0  0  0  0  1  0  0  0  0  0  0
  186.9550  177.8670  142.3810 C   0  0  0  0  0  3  0  0  0  0  0  0
  189.7290  177.1140  141.6030 C   0  0  0  0  0  0  0  0  0  0  0  0
  187.3110  178.8170  141.2930 C   0  0  0  0  0  3  0  0  0  0  0  0
  190.5880  177.0790  145.7100 C   0  0  0  0  0  2  0  0  0  0  0  0
  191.1590  176.4650  144.4550 C   0  0  1  0  0  3  0  0  0  0  0  0
  192.2520  175.4660  146.2740 C   0  0  0  0  0  2  0  0  0  0  0  0
  191.9530  175.3060  144.8510 N   0  0  0  0  0  2  0  0  0  0  0  0
  191.6010  176.7400  146.7640 C   0  0  0  0  0  2  0  0  0  0  0  0
  1 17  1  6  0  0  0
  1  7  1  0  0  0  0
  2 14  1  0  0  0  0
  3 11  1  0  0  0  0
  3 21  1  1  0  0  0
  4 12  1  0  0  0  0
  4  5  1  0  0  0  0
  7 27  1  6  0  0  0
  8  7  1  0  0  0  0
  9  6  1  1  0  0  0
  9  1  1  0  0  0  0
  9 11  1  0  0  0  0
 10  8  2  0  0  0  0
 12  2  1  6  0  0  0
 12 16  1  0  0  0  0
 13 14  1  1  0  0  0
 13 16  1  0  0  0  0
 13  3  1  0  0  0  0
 15 18  1  0  0  0  0
 15  4  1  0  0  0  0
 18 19  1  0  0  0  0
 19  8  1  0  0  0  0
 20 24  1  0  0  0  0
 20 23  1  0  0  0  0
 21 25  1  0  0  0  0
 22 20  2  0  0  0  0
 25 24  2  0  0  0  0
 26 21  2  0  0  0  0
 26 22  1  0  0  0  0
 27 36  1  6  0  0  0
 28 34  1  0  0  0  0
 29 35  2  0  0  0  0
 30 35  1  0  0  0  0
 30 27  1  1  0  0  0
 31 34  1  6  0  0  0
 32 30  1  0  0  0  0
 32 33  1  1  0  0  0
 32 31  1  0  0  0  0
 33 31  1  0  0  0  0
 35 28  1  0  0  0  0
 36 42  1  0  0  0  0
 37 43  1  0  0  0  0
 39 45  1  6  0  0  0
 39 37  1  0  0  0  0
 39 41  1  0  0  0  0
 40 42  1  0  0  0  0
 40 46  2  0  0  0  0
 41 38  1  6  0  0  0
 41 48  1  0  0  0  0
 42 45  2  0  0  0  0
 44 37  2  0  0  0  0
 45 38  1  0  0  0  0
 46 44  1  0  0  0  0
 47 51  1  0  0  0  0
 48 50  1  0  0  0  0
 48 47  1  1  0  0  0
 49 51  1  0  0  0  0
 50 49  1  0  0  0  0
M  END
>  <MODEL>
1

>  <REMARK>
 VINA RESULT:      -8.6      0.000      0.000
  Name = 
  6 active torsions:
  status: ('A' for Active; 'I' for Inactive)
    1  A    between atoms: C_6  and  C_16
    2  A    between atoms: C_7  and  C_17
    3  A    between atoms: C_7  and  C_18
    4  A    between atoms: C_7  and  C_21
    5  A    between atoms: C_21  and  C_33
    6  A    between atoms: C_24  and  C_32
                            x       y       z     vdW  Elec       q    Type
                         _______ _______ _______ _____ _____    ______ ____

>  <TORSDO>
F 6

$$$$
=
 OpenBabel11062414583D

 51 58  0  0  1  0  0  0  0  0999 V2000
  186.4280  177.6160  137.3240 C   0  0  2  0  0  3  0  0  0  0  0  0
  180.4920  177.9050  139.8230 C   0  0  0  0  0  2  0  0  0  0  0  0
  184.0390  178.7890  140.0880 C   0  0  1  0  0  3  0  0  0  0  0  0
  180.7170  175.7820  138.5850 N   0  0  0  0  0  0  0  0  0  0  0  0
  181.1330  174.3880  138.7110 C   0  0  0  0  0  1  0  0  0  0  0  0
  185.8780  179.8840  137.9020 O   0  0  0  0  0  1  0  0  0  0  0  0
  185.9730  176.1410  137.4010 C   0  0  1  0  0  3  0  0  0  0  0  0
  184.7290  175.8980  136.5940 C   0  0  0  0  0  0  0  0  0  0  0  0
  185.4420  178.5620  138.0130 C   0  0  2  0  0  3  0  0  0  0  0  0
  184.8010  175.7210  135.3470 O   0  0  0  0  0  0  0  0  0  0  0  0
  185.3150  178.2030  139.4880 C   0  0  0  0  0  2  0  0  0  0  0  0
  181.1510  176.5400  139.7710 C   0  0  1  0  0  3  0  0  0  0  0  0
  182.8400  178.2080  139.4560 N   0  0  2  0  0  0  0  0  0  0  0  0
  181.6360  178.8990  139.9020 C   0  0  0  0  0  2  0  0  0  0  0  0
  181.1110  176.4130  137.3010 C   0  0  0  0  0  2  0  0  0  0  0  0
  182.6460  176.8060  139.8150 C   0  0  0  0  0  2  0  0  0  0  0  0
  186.7250  178.0590  135.8940 C   0  0  0  0  0  1  0  0  0  0  0  0
  182.2700  175.7480  136.5470 C   0  0  0  0  0  2  0  0  0  0  0  0
  183.4930  175.9640  137.2310 O   0  0  0  0  0  0  0  0  0  0  0  0
  184.0620  178.6850  144.4010 C   0  0  0  0  0  0  0  0  0  0  0  0
  184.0600  178.7180  141.5960 C   0  0  0  0  0  0  0  0  0  0  0  0
  182.9150  179.0790  143.7070 C   0  0  0  0  0  3  0  0  0  0  0  0
  184.0650  178.6680  145.8220 N   0  0  0  0  0  1  0  0  0  0  0  0
  185.2120  178.3160  143.6960 C   0  0  0  0  0  3  0  0  0  0  0  0
  185.2130  178.3340  142.2990 C   0  0  0  0  0  3  0  0  0  0  0  0
  182.9160  179.0990  142.3080 C   0  0  0  0  0  3  0  0  0  0  0  0
  187.1060  175.1460  137.0790 C   0  0  1  0  0  3  0  0  0  0  0  0
  186.8470  171.5060  136.5000 O   0  0  0  0  0  0  0  0  0  0  0  0
  185.2720  172.7000  137.7240 O   0  0  0  0  0  0  0  0  0  0  0  0
  186.6060  173.9960  136.1760 C   0  0  1  0  0  3  0  0  0  0  0  0
  188.5640  172.8460  135.5440 C   0  0  2  0  0  3  0  0  0  0  0  0
  187.3920  173.5770  134.9200 C   0  0  2  0  0  3  0  0  0  0  0  0
  188.7060  173.8810  134.5940 O   0  0  0  0  0  0  0  0  0  0  0  0
  187.8670  171.4970  135.4730 C   0  0  0  0  0  2  0  0  0  0  0  0
  186.1990  172.7120  136.8700 C   0  0  0  0  0  0  0  0  0  0  0  0
  188.3450  175.8410  136.5040 C   0  0  0  0  0  2  0  0  0  0  0  0
  191.9350  176.7270  139.2240 C   0  0  0  0  0  0  0  0  0  0  0  0
  188.8450  177.5010  139.2730 C   0  0  0  0  0  2  0  0  0  0  0  0
  190.5400  176.4300  139.7020 C   0  0  1  0  0  3  0  0  0  0  0  0
  190.6350  174.8190  137.0370 C   0  0  0  0  0  3  0  0  0  0  0  0
  189.8560  177.5840  140.3730 C   0  0  2  0  0  3  0  0  0  0  0  0
  189.5340  175.7280  137.4030 C   0  0  0  0  0  0  0  0  0  0  0  0
  192.6820  177.7090  139.8660 O   0  0  0  0  0  1  0  0  0  0  0  0
  192.5260  176.0120  138.2530 C   0  0  0  0  0  3  0  0  0  0  0  0
  189.5880  176.4070  138.5390 C   0  0  0  0  0  0  0  0  0  0  0  0
  191.9200  174.9440  137.4130 C   0  0  0  0  0  3  0  0  0  0  0  0
  190.1740  176.2380  142.4540 C   0  0  0  0  0  2  0  0  0  0  0  0
  189.2320  177.1360  141.6920 C   0  0  1  0  0  3  0  0  0  0  0  0
  189.2840  177.9060  143.9070 C   0  0  0  0  0  2  0  0  0  0  0  0
  188.9380  178.2890  142.5380 N   0  0  0  0  0  2  0  0  0  0  0  0
  189.8270  176.4940  143.8910 C   0  0  0  0  0  2  0  0  0  0  0  0
  1 17  1  6  0  0  0
  1  7  1  0  0  0  0
  1  9  1  0  0  0  0
  2 14  1  0  0  0  0
  3 21  1  1  0  0  0
  4  5  1  0  0  0  0
  4 12  1  0  0  0  0
  7 27  1  6  0  0  0
  8 19  1  0  0  0  0
  8  7  1  0  0  0  0
  9  6  1  1  0  0  0
  9 11  1  0  0  0  0
 10  8  2  0  0  0  0
 11  3  1  0  0  0  0
 12 16  1  6  0  0  0
 12  2  1  0  0  0  0
 13 16  1  1  0  0  0
 13 14  1  0  0  0  0
 13  3  1  0  0  0  0
 15  4  1  0  0  0  0
 18 19  1  0  0  0  0
 18 15  1  0  0  0  0
 20 23  1  0  0  0  0
 21 25  2  0  0  0  0
 21 26  1  0  0  0  0
 22 20  1  0  0  0  0
 24 20  2  0  0  0  0
 25 24  1  0  0  0  0
 26 22  2  0  0  0  0
 27 36  1  6  0  0  0
 28 35  1  0  0  0  0
 30 35  1  0  0  0  0
 30 27  1  1  0  0  0
 31 34  1  6  0  0  0
 32 33  1  1  0  0  0
 32 31  1  0  0  0  0
 32 30  1  0  0  0  0
 33 31  1  0  0  0  0
 34 28  1  0  0  0  0
 35 29  2  0  0  0  0
 36 42  1  0  0  0  0
 37 39  1  0  0  0  0
 37 43  1  0  0  0  0
 39 45  1  6  0  0  0
 39 41  1  0  0  0  0
 40 42  1  0  0  0  0
 40 46  2  0  0  0  0
 41 38  1  6  0  0  0
 41 48  1  0  0  0  0
 42 45  2  0  0  0  0
 44 37  2  0  0  0  0
 45 38  1  0  0  0  0
 46 44  1  0  0  0  0
 47 51  1  0  0  0  0
 48 47  1  1  0  0  0
 48 50  1  0  0  0  0
 50 49  1  0  0  0  0
 51 49  1  0  0  0  0
M  END
>  <MODEL>
2

>  <REMARK>
 VINA RESULT:      -8.3      2.203      4.246
  Name = 
  6 active torsions:
  status: ('A' for Active; 'I' for Inactive)
    1  A    between atoms: C_6  and  C_16
    2  A    between atoms: C_7  and  C_17
    3  A    between atoms: C_7  and  C_18
    4  A    between atoms: C_7  and  C_21
    5  A    between atoms: C_21  and  C_33
    6  A    between atoms: C_24  and  C_32
                            x       y       z     vdW  Elec       q    Type
                         _______ _______ _______ _____ _____    ______ ____

>  <TORSDO>
F 6

$$$$
=
 OpenBabel11062414583D

 51 58  0  0  1  0  0  0  0  0999 V2000
  182.4430  178.3040  137.9280 C   0  0  2  0  0  3  0  0  0  0  0  0
  187.6190  175.7740  135.0350 C   0  0  0  0  0  2  0  0  0  0  0  0
  184.0290  175.5770  135.7440 C   0  0  1  0  0  3  0  0  0  0  0  0
  188.3550  176.9170  137.0940 N   0  0  0  0  0  0  0  0  0  0  0  0
  188.5710  176.7320  138.5270 C   0  0  0  0  0  1  0  0  0  0  0  0
  181.9570  177.8240  135.6230 O   0  0  0  0  0  1  0  0  0  0  0  0
  183.4820  178.1570  139.0630 C   0  0  1  0  0  3  0  0  0  0  0  0
  184.7320  178.9430  138.7800 C   0  0  0  0  0  0  0  0  0  0  0  0
  182.9120  177.6500  136.6260 C   0  0  2  0  0  3  0  0  0  0  0  0
  184.7740  180.1810  139.0170 O   0  0  0  0  0  0  0  0  0  0  0  0
  183.1410  176.1610  136.8410 C   0  0  0  0  0  2  0  0  0  0  0  0
  187.6080  175.7700  136.5510 C   0  0  1  0  0  3  0  0  0  0  0  0
  185.3770  176.1730  135.7800 N   0  0  2  0  0  0  0  0  0  0  0  0
  186.1590  175.7490  134.6240 C   0  0  0  0  0  2  0  0  0  0  0  0
  187.7640  178.2310  136.7410 C   0  0  0  0  0  2  0  0  0  0  0  0
  186.1420  175.7490  136.9490 C   0  0  0  0  0  2  0  0  0  0  0  0
  182.0230  179.7550  137.7090 C   0  0  0  0  0  1  0  0  0  0  0  0
  187.0200  178.9640  137.8650 C   0  0  0  0  0  2  0  0  0  0  0  0
  185.8040  178.3000  138.1680 O   0  0  0  0  0  0  0  0  0  0  0  0
  184.0060  171.2650  135.8840 C   0  0  0  0  0  0  0  0  0  0  0  0
  184.0000  174.0670  135.7610 C   0  0  0  0  0  0  0  0  0  0  0  0
  183.6520  172.0140  137.0090 C   0  0  0  0  0  3  0  0  0  0  0  0
  184.0100  169.8450  135.9440 N   0  0  0  0  0  1  0  0  0  0  0  0
  184.3660  171.9140  134.6990 C   0  0  0  0  0  3  0  0  0  0  0  0
  184.3660  173.3100  134.6370 C   0  0  0  0  0  3  0  0  0  0  0  0
  183.6540  173.4110  136.9490 C   0  0  0  0  0  3  0  0  0  0  0  0
  182.8910  178.4430  140.4580 C   0  0  1  0  0  3  0  0  0  0  0  0
  179.6990  178.0930  142.2880 O   0  0  0  0  0  0  0  0  0  0  0  0
  180.8480  180.1090  142.1370 O   0  0  0  0  0  0  0  0  0  0  0  0
  181.3460  178.4810  140.4170 C   0  0  1  0  0  3  0  0  0  0  0  0
  180.6830  176.3110  141.0560 C   0  0  2  0  0  3  0  0  0  0  0  0
  180.5390  177.2780  139.8970 C   0  0  2  0  0  3  0  0  0  0  0  0
  180.9720  175.9730  139.7160 O   0  0  0  0  0  0  0  0  0  0  0  0
  179.4050  176.7920  141.7250 C   0  0  0  0  0  2  0  0  0  0  0  0
  180.6420  178.9550  141.6720 C   0  0  0  0  0  0  0  0  0  0  0  0
  183.4210  177.4800  141.5250 C   0  0  0  0  0  2  0  0  0  0  0  0
  185.6230  178.5250  145.4140 C   0  0  0  0  0  0  0  0  0  0  0  0
  186.4300  177.0350  142.7170 C   0  0  0  0  0  2  0  0  0  0  0  0
  186.2230  178.5900  144.0370 C   0  0  1  0  0  3  0  0  0  0  0  0
  183.2240  179.1810  143.4320 C   0  0  0  0  0  3  0  0  0  0  0  0
  187.3140  177.5920  143.7880 C   0  0  2  0  0  3  0  0  0  0  0  0
  184.0270  178.1930  142.6890 C   0  0  0  0  0  0  0  0  0  0  0  0
  186.3910  178.0470  146.4710 O   0  0  0  0  0  1  0  0  0  0  0  0
  184.3970  179.0020  145.6840 C   0  0  0  0  0  3  0  0  0  0  0  0
  185.2870  177.9740  143.0340 C   0  0  0  0  0  0  0  0  0  0  0  0
  183.3940  179.5290  144.7200 C   0  0  0  0  0  3  0  0  0  0  0  0
  189.7170  178.2110  144.0850 C   0  0  0  0  0  2  0  0  0  0  0  0
  188.5260  178.2770  143.1610 C   0  0  1  0  0  3  0  0  0  0  0  0
  190.3600  177.5730  141.8800 C   0  0  0  0  0  2  0  0  0  0  0  0
  188.8980  177.6180  141.9130 N   0  0  0  0  0  2  0  0  0  0  0  0
  190.8920  178.1940  143.1520 C   0  0  0  0  0  2  0  0  0  0  0  0
  1 17  1  6  0  0  0
  1  7  1  0  0  0  0
  3 21  1  1  0  0  0
  3 13  1  0  0  0  0
  3 11  1  0  0  0  0
  4  5  1  0  0  0  0
  7 27  1  1  0  0  0
  8 10  2  0  0  0  0
  8  7  1  0  0  0  0
  9  6  1  6  0  0  0
  9 11  1  0  0  0  0
  9  1  1  0  0  0  0
 12  2  1  6  0  0  0
 12 16  1  0  0  0  0
 12  4  1  0  0  0  0
 13 14  1  6  0  0  0
 13 16  1  0  0  0  0
 14  2  1  0  0  0  0
 15  4  1  0  0  0  0
 15 18  1  0  0  0  0
 18 19  1  0  0  0  0
 19  8  1  0  0  0  0
 20 23  1  0  0  0  0
 20 22  1  0  0  0  0
 21 26  1  0  0  0  0
 24 20  2  0  0  0  0
 25 24  1  0  0  0  0
 25 21  2  0  0  0  0
 26 22  2  0  0  0  0
 27 36  1  1  0  0  0
 30 27  1  1  0  0  0
 30 35  1  0  0  0  0
 31 34  1  6  0  0  0
 32 33  1  6  0  0  0
 32 30  1  0  0  0  0
 32 31  1  0  0  0  0
 33 31  1  0  0  0  0
 34 28  1  0  0  0  0
 35 29  2  0  0  0  0
 35 28  1  0  0  0  0
 36 42  1  0  0  0  0
 37 44  2  0  0  0  0
 37 43  1  0  0  0  0
 38 45  1  0  0  0  0
 39 45  1  6  0  0  0
 39 37  1  0  0  0  0
 40 46  2  0  0  0  0
 41 38  1  6  0  0  0
 41 39  1  0  0  0  0
 42 45  2  0  0  0  0
 42 40  1  0  0  0  0
 46 44  1  0  0  0  0
 48 41  1  0  0  0  0
 48 47  1  1  0  0  0
 49 50  1  0  0  0  0
 49 51  1  0  0  0  0
 50 48  1  0  0  0  0
 51 47  1  0  0  0  0
M  END
>  <MODEL>
3

>  <REMARK>
 VINA RESULT:      -8.0      3.066      7.141
  Name = 
  6 active torsions:
  status: ('A' for Active; 'I' for Inactive)
    1  A    between atoms: C_6  and  C_16
    2  A    between atoms: C_7  and  C_17
    3  A    between atoms: C_7  and  C_18
    4  A    between atoms: C_7  and  C_21
    5  A    between atoms: C_21  and  C_33
    6  A    between atoms: C_24  and  C_32
                            x       y       z     vdW  Elec       q    Type
                         _______ _______ _______ _____ _____    ______ ____

>  <TORSDO>
F 6

$$$$
=
 OpenBabel11062414583D

 51 58  0  0  1  0  0  0  0  0999 V2000
  184.9720  177.4750  137.4430 C   0  0  2  0  0  3  0  0  0  0  0  0
  179.7230  178.6600  140.9940 C   0  0  0  0  0  2  0  0  0  0  0  0
  183.3620  178.8900  140.6270 C   0  0  1  0  0  3  0  0  0  0  0  0
  179.3330  176.6060  139.6840 N   0  0  0  0  0  0  0  0  0  0  0  0
  179.5030  175.1550  139.6970 C   0  0  0  0  0  1  0  0  0  0  0  0
  184.9570  179.7680  138.1680 O   0  0  0  0  0  1  0  0  0  0  0  0
  184.2750  176.1020  137.5660 C   0  0  1  0  0  3  0  0  0  0  0  0
  182.8850  176.1280  136.9950 C   0  0  0  0  0  0  0  0  0  0  0  0
  184.3130  178.5390  138.3250 C   0  0  2  0  0  3  0  0  0  0  0  0
  182.7040  176.0130  135.7520 O   0  0  0  0  0  0  0  0  0  0  0  0
  184.3840  178.1240  139.7880 C   0  0  0  0  0  2  0  0  0  0  0  0
  180.1010  177.2060  140.7890 C   0  0  1  0  0  3  0  0  0  0  0  0
  181.9850  178.5660  140.2110 N   0  0  2  0  0  0  0  0  0  0  0  0
  181.0250  179.4310  140.8870 C   0  0  0  0  0  2  0  0  0  0  0  0
  179.6040  177.2290  138.3660 C   0  0  0  0  0  2  0  0  0  0  0  0
  181.6030  177.2020  140.5650 C   0  0  0  0  0  2  0  0  0  0  0  0
  185.0890  177.9410  135.9950 C   0  0  0  0  0  1  0  0  0  0  0  0
  180.4710  176.4160  137.3960 C   0  0  0  0  0  2  0  0  0  0  0  0
  181.8140  176.3740  137.8490 O   0  0  0  0  0  0  0  0  0  0  0  0
  184.1070  178.5320  144.8600 C   0  0  0  0  0  0  0  0  0  0  0  0
  183.6350  178.7300  142.1030 C   0  0  0  0  0  0  0  0  0  0  0  0
  182.8710  178.9850  144.3930 C   0  0  0  0  0  3  0  0  0  0  0  0
  184.3490  178.4310  146.2570 N   0  0  0  0  0  1  0  0  0  0  0  0
  185.1120  178.1850  143.9520 C   0  0  0  0  0  3  0  0  0  0  0  0
  184.8790  178.2860  142.5780 C   0  0  0  0  0  3  0  0  0  0  0  0
  182.6370  179.0880  143.0180 C   0  0  0  0  0  3  0  0  0  0  0  0
  185.1320  174.9440  137.0180 C   0  0  1  0  0  3  0  0  0  0  0  0
  183.8100  171.5010  136.7720 O   0  0  0  0  0  0  0  0  0  0  0  0
  182.7200  173.1860  137.9460 O   0  0  0  0  0  0  0  0  0  0  0  0
  184.2690  173.9240  136.2390 C   0  0  1  0  0  3  0  0  0  0  0  0
  185.7750  172.2130  135.6360 C   0  0  2  0  0  3  0  0  0  0  0  0
  184.8230  173.2050  134.9960 C   0  0  2  0  0  3  0  0  0  0  0  0
  186.1460  173.0910  134.5940 O   0  0  0  0  0  0  0  0  0  0  0  0
  184.7190  171.1220  135.7110 C   0  0  0  0  0  2  0  0  0  0  0  0
  183.5570  172.8670  137.0590 C   0  0  0  0  0  0  0  0  0  0  0  0
  186.3270  175.4410  136.1970 C   0  0  0  0  0  2  0  0  0  0  0  0
  190.7400  175.4190  137.4590 C   0  0  0  0  0  0  0  0  0  0  0  0
  188.4470  177.6280  137.3790 C   0  0  0  0  0  2  0  0  0  0  0  0
  189.6420  176.1610  138.1680 C   0  0  1  0  0  3  0  0  0  0  0  0
  188.0810  173.7420  136.9770 C   0  0  0  0  0  3  0  0  0  0  0  0
  189.7580  177.6550  138.0990 C   0  0  2  0  0  3  0  0  0  0  0  0
  187.6360  175.1420  136.8530 C   0  0  0  0  0  0  0  0  0  0  0  0
  191.9860  176.0200  137.3120 O   0  0  0  0  0  1  0  0  0  0  0  0
  190.5930  174.1520  137.0400 C   0  0  0  0  0  3  0  0  0  0  0  0
  188.3780  176.1170  137.3560 C   0  0  0  0  0  0  0  0  0  0  0  0
  189.3570  173.3240  137.0640 C   0  0  0  0  0  3  0  0  0  0  0  0
  188.1200  178.3110  139.8690 C   0  0  0  0  0  2  0  0  0  0  0  0
  189.5790  178.2650  139.4870 C   0  0  1  0  0  3  0  0  0  0  0  0
  189.4070  177.4220  141.6690 C   0  0  0  0  0  2  0  0  0  0  0  0
  190.2740  177.4670  140.4920 N   0  0  0  0  0  2  0  0  0  0  0  0
  188.1390  178.1890  141.3640 C   0  0  0  0  0  2  0  0  0  0  0  0
  1 17  1  6  0  0  0
  1  7  1  0  0  0  0
  1  9  1  0  0  0  0
  3 21  1  1  0  0  0
  4  5  1  0  0  0  0
  4 12  1  0  0  0  0
  7 27  1  6  0  0  0
  8  7  1  0  0  0  0
  8 19  1  0  0  0  0
  9  6  1  1  0  0  0
  9 11  1  0  0  0  0
 10  8  2  0  0  0  0
 11  3  1  0  0  0  0
 12 16  1  6  0  0  0
 12  2  1  0  0  0  0
 13 16  1  1  0  0  0
 13  3  1  0  0  0  0
 13 14  1  0  0  0  0
 14  2  1  0  0  0  0
 15  4  1  0  0  0  0
 18 19  1  0  0  0  0
 18 15  1  0  0  0  0
 20 23  1  0  0  0  0
 21 25  2  0  0  0  0
 21 26  1  0  0  0  0
 22 20  1  0  0  0  0
 24 20  2  0  0  0  0
 25 24  1  0  0  0  0
 26 22  2  0  0  0  0
 27 36  1  6  0  0  0
 28 35  1  0  0  0  0
 30 27  1  1  0  0  0
 30 35  1  0  0  0  0
 31 34  1  6  0  0  0
 32 33  1  6  0  0  0
 32 31  1  0  0  0  0
 32 30  1  0  0  0  0
 33 31  1  0  0  0  0
 34 28  1  0  0  0  0
 35 29  2  0  0  0  0
 36 42  1  0  0  0  0
 37 39  1  0  0  0  0
 39 45  1  6  0  0  0
 40 46  2  0  0  0  0
 41 38  1  6  0  0  0
 41 39  1  0  0  0  0
 41 48  1  0  0  0  0
 42 40  1  0  0  0  0
 42 45  2  0  0  0  0
 43 37  1  0  0  0  0
 44 46  1  0  0  0  0
 44 37  2  0  0  0  0
 45 38  1  0  0  0  0
 47 51  1  0  0  0  0
 48 47  1  1  0  0  0
 48 50  1  0  0  0  0
 50 49  1  0  0  0  0
 51 49  1  0  0  0  0
M  END
>  <MODEL>
4

>  <REMARK>
 VINA RESULT:      -8.0      2.602      5.749
  Name = 
  6 active torsions:
  status: ('A' for Active; 'I' for Inactive)
    1  A    between atoms: C_6  and  C_16
    2  A    between atoms: C_7  and  C_17
    3  A    between atoms: C_7  and  C_18
    4  A    between atoms: C_7  and  C_21
    5  A    between atoms: C_21  and  C_33
    6  A    between atoms: C_24  and  C_32
                            x       y       z     vdW  Elec       q    Type
                         _______ _______ _______ _____ _____    ______ ____

>  <TORSDO>
F 6

$$$$
=
 OpenBabel11062414583D

 51 58  0  0  1  0  0  0  0  0999 V2000
  187.4740  177.3030  135.6010 C   0  0  2  0  0  3  0  0  0  0  0  0
  192.2020  177.2520  139.9830 C   0  0  0  0  0  2  0  0  0  0  0  0
  191.0120  176.2620  136.6620 C   0  0  1  0  0  3  0  0  0  0  0  0
  190.0390  177.3010  141.1680 N   0  0  0  0  0  0  0  0  0  0  0  0
  188.9810  176.4560  141.7160 C   0  0  0  0  0  1  0  0  0  0  0  0
  189.5500  177.9780  134.5940 O   0  0  0  0  0  1  0  0  0  0  0  0
  186.8060  176.7470  136.8790 C   0  0  1  0  0  3  0  0  0  0  0  0
  186.8810  177.7240  138.0180 C   0  0  0  0  0  0  0  0  0  0  0  0
  188.9890  177.4530  135.7590 C   0  0  2  0  0  3  0  0  0  0  0  0
  186.0530  178.6720  138.1010 O   0  0  0  0  0  0  0  0  0  0  0  0
  189.6220  176.0990  136.0490 C   0  0  0  0  0  2  0  0  0  0  0  0
  190.9370  176.4910  140.3280 C   0  0  1  0  0  3  0  0  0  0  0  0
  190.9380  176.9300  137.9740 N   0  0  2  0  0  0  0  0  0  0  0  0
  192.2740  177.2450  138.4680 C   0  0  0  0  0  2  0  0  0  0  0  0
  189.5410  178.5250  140.4960 C   0  0  0  0  0  2  0  0  0  0  0  0
  190.3290  176.0840  138.9960 C   0  0  0  0  0  2  0  0  0  0  0  0
  186.8280  178.6010  135.1250 C   0  0  0  0  0  1  0  0  0  0  0  0
  188.0800  178.4960  140.0280 C   0  0  0  0  0  2  0  0  0  0  0  0
  187.9320  177.6180  138.9240 O   0  0  0  0  0  0  0  0  0  0  0  0
  193.2590  172.5810  136.5970 C   0  0  0  0  0  0  0  0  0  0  0  0
  191.7700  174.9560  136.6550 C   0  0  0  0  0  0  0  0  0  0  0  0
  193.8220  173.7460  137.1240 C   0  0  0  0  0  3  0  0  0  0  0  0
  194.0130  171.3760  136.5660 N   0  0  0  0  0  1  0  0  0  0  0  0
  191.9570  172.6020  136.0900 C   0  0  0  0  0  3  0  0  0  0  0  0
  191.2140  173.7850  136.1160 C   0  0  0  0  0  3  0  0  0  0  0  0
  193.0800  174.9320  137.1490 C   0  0  0  0  0  3  0  0  0  0  0  0
  185.3790  176.2190  136.6280 C   0  0  1  0  0  3  0  0  0  0  0  0
  183.8530  172.9220  135.9520 O   0  0  0  0  0  0  0  0  0  0  0  0
  183.1620  174.8700  134.8860 O   0  0  0  0  0  0  0  0  0  0  0  0
  185.4000  174.9090  135.8070 C   0  0  1  0  0  3  0  0  0  0  0  0
  185.7080  173.2100  137.4120 C   0  0  2  0  0  3  0  0  0  0  0  0
  186.3670  173.7660  136.1650 C   0  0  2  0  0  3  0  0  0  0  0  0
  187.0690  173.5810  137.3480 O   0  0  0  0  0  0  0  0  0  0  0  0
  184.9000  172.1880  136.6290 C   0  0  0  0  0  2  0  0  0  0  0  0
  184.0600  174.2590  135.5260 C   0  0  0  0  0  0  0  0  0  0  0  0
  184.5710  176.0820  137.9230 C   0  0  0  0  0  2  0  0  0  0  0  0
  180.6620  178.2740  138.9110 C   0  0  0  0  0  0  0  0  0  0  0  0
  183.0130  177.0000  140.6430 C   0  0  0  0  0  2  0  0  0  0  0  0
  181.9620  178.4510  139.6450 C   0  0  1  0  0  3  0  0  0  0  0  0
  182.9630  177.7230  136.7870 C   0  0  0  0  0  3  0  0  0  0  0  0
  181.9450  177.9610  141.0630 C   0  0  2  0  0  3  0  0  0  0  0  0
  183.4640  177.0810  138.0150 C   0  0  0  0  0  0  0  0  0  0  0  0
  179.4700  178.2430  139.6300 O   0  0  0  0  0  1  0  0  0  0  0  0
  180.5970  178.2360  137.5710 C   0  0  0  0  0  3  0  0  0  0  0  0
  182.9590  177.4210  139.1910 C   0  0  0  0  0  0  0  0  0  0  0  0
  181.7280  178.2240  136.6050 C   0  0  0  0  0  3  0  0  0  0  0  0
  181.9750  178.8690  143.3910 C   0  0  0  0  0  2  0  0  0  0  0  0
  182.5310  179.0170  141.9960 C   0  0  1  0  0  3  0  0  0  0  0  0
  184.3460  179.1090  143.4790 C   0  0  0  0  0  2  0  0  0  0  0  0
  183.9820  178.8790  142.0810 N   0  0  0  0  0  2  0  0  0  0  0  0
  183.0840  179.3680  144.2710 C   0  0  0  0  0  2  0  0  0  0  0  0
  1 17  1  1  0  0  0
  1  9  1  0  0  0  0
  1  7  1  0  0  0  0
  2 12  1  0  0  0  0
  3 21  1  1  0  0  0
  3 13  1  0  0  0  0
  4  5  1  0  0  0  0
  7 27  1  6  0  0  0
  7  8  1  0  0  0  0
  8 10  2  0  0  0  0
  8 19  1  0  0  0  0
  9  6  1  6  0  0  0
  9 11  1  0  0  0  0
 11  3  1  0  0  0  0
 12 16  1  6  0  0  0
 12  4  1  0  0  0  0
 13 14  1  1  0  0  0
 13 16  1  0  0  0  0
 14  2  1  0  0  0  0
 15  4  1  0  0  0  0
 18 15  1  0  0  0  0
 19 18  1  0  0  0  0
 20 22  1  0  0  0  0
 21 26  1  0  0  0  0
 22 26  2  0  0  0  0
 23 20  1  0  0  0  0
 24 25  1  0  0  0  0
 24 20  2  0  0  0  0
 25 21  2  0  0  0  0
 27 36  1  1  0  0  0
 28 34  1  0  0  0  0
 29 35  2  0  0  0  0
 30 32  1  0  0  0  0
 30 27  1  1  0  0  0
 31 34  1  6  0  0  0
 32 33  1  1  0  0  0
 32 31  1  0  0  0  0
 33 31  1  0  0  0  0
 35 30  1  0  0  0  0
 35 28  1  0  0  0  0
 36 42  1  0  0  0  0
 37 43  1  0  0  0  0
 39 37  1  6  0  0  0
 39 41  1  0  0  0  0
 40 42  1  0  0  0  0
 41 38  1  6  0  0  0
 41 48  1  0  0  0  0
 42 45  2  0  0  0  0
 44 37  2  0  0  0  0
 45 39  1  0  0  0  0
 45 38  1  0  0  0  0
 46 40  2  0  0  0  0
 46 44  1  0  0  0  0
 47 51  1  0  0  0  0
 48 50  1  0  0  0  0
 48 47  1  1  0  0  0
 49 51  1  0  0  0  0
 50 49  1  0  0  0  0
M  END
>  <MODEL>
5

>  <REMARK>
 VINA RESULT:      -7.8      2.733      8.140
  Name = 
  6 active torsions:
  status: ('A' for Active; 'I' for Inactive)
    1  A    between atoms: C_6  and  C_16
    2  A    between atoms: C_7  and  C_17
    3  A    between atoms: C_7  and  C_18
    4  A    between atoms: C_7  and  C_21
    5  A    between atoms: C_21  and  C_33
    6  A    between atoms: C_24  and  C_32
                            x       y       z     vdW  Elec       q    Type
                         _______ _______ _______ _____ _____    ______ ____

>  <TORSDO>
F 6

$$$$
=
 OpenBabel11062414583D

 51 58  0  0  1  0  0  0  0  0999 V2000
  188.2140  178.0080  137.1660 C   0  0  2  0  0  3  0  0  0  0  0  0
  182.2710  175.9090  135.8090 C   0  0  0  0  0  2  0  0  0  0  0  0
  184.4110  178.2810  137.6050 C   0  0  1  0  0  3  0  0  0  0  0  0
  183.8190  173.9900  135.7130 N   0  0  0  0  0  0  0  0  0  0  0  0
  184.4370  172.9390  136.5180 C   0  0  0  0  0  1  0  0  0  0  0  0
  186.8060  179.8500  136.5280 O   0  0  0  0  0  1  0  0  0  0  0  0
  188.2570  176.4990  137.4940 C   0  0  1  0  0  3  0  0  0  0  0  0
  187.9380  175.6570  136.2900 C   0  0  0  0  0  0  0  0  0  0  0  0
  186.7980  178.4890  136.8390 C   0  0  2  0  0  3  0  0  0  0  0  0
  188.8270  175.4090  135.4310 O   0  0  0  0  0  0  0  0  0  0  0  0
  185.8780  178.2580  138.0300 C   0  0  0  0  0  2  0  0  0  0  0  0
  183.1680  174.9740  136.5950 C   0  0  1  0  0  3  0  0  0  0  0  0
  184.1110  177.1730  136.6790 N   0  0  2  0  0  0  0  0  0  0  0  0
  182.7640  177.3060  136.1370 C   0  0  0  0  0  2  0  0  0  0  0  0
  184.7340  174.6000  134.7180 C   0  0  0  0  0  2  0  0  0  0  0  0
  184.1430  175.8710  137.3380 C   0  0  0  0  0  2  0  0  0  0  0  0
  189.2040  178.3940  136.0710 C   0  0  0  0  0  1  0  0  0  0  0  0
  186.2360  174.4400  134.9890 C   0  0  0  0  0  2  0  0  0  0  0  0
  186.6250  175.2370  136.0950 O   0  0  0  0  0  0  0  0  0  0  0  0
  181.7770  178.4430  141.0170 C   0  0  0  0  0  0  0  0  0  0  0  0
  183.4950  178.3740  138.8020 C   0  0  0  0  0  0  0  0  0  0  0  0
  182.8120  177.5050  140.9640 C   0  0  0  0  0  3  0  0  0  0  0  0
  180.9060  178.4780  142.1390 N   0  0  0  0  0  1  0  0  0  0  0  0
  181.5930  179.3400  139.9620 C   0  0  0  0  0  3  0  0  0  0  0  0
  182.4470  179.3060  138.8560 C   0  0  0  0  0  3  0  0  0  0  0  0
  183.6660  177.4680  139.8570 C   0  0  0  0  0  3  0  0  0  0  0  0
  189.5610  176.0760  138.1990 C   0  0  1  0  0  3  0  0  0  0  0  0
  192.2060  173.5800  137.5400 O   0  0  0  0  0  0  0  0  0  0  0  0
  189.9470  173.1330  137.2200 O   0  0  0  0  0  0  0  0  0  0  0  0
  190.5720  175.4710  137.1970 C   0  0  1  0  0  3  0  0  0  0  0  0
  192.6770  175.8160  138.2000 C   0  0  2  0  0  3  0  0  0  0  0  0
  191.9240  176.1550  136.9280 C   0  0  2  0  0  3  0  0  0  0  0  0
  192.5560  177.1280  137.6890 O   0  0  0  0  0  0  0  0  0  0  0  0
  193.2770  174.5510  137.6060 C   0  0  0  0  0  2  0  0  0  0  0  0
  190.8640  173.9910  137.3340 C   0  0  0  0  0  0  0  0  0  0  0  0
  190.1720  177.2130  139.0260 C   0  0  0  0  0  2  0  0  0  0  0  0
  189.7010  177.8200  143.5520 C   0  0  0  0  0  0  0  0  0  0  0  0
  188.1340  178.8580  140.9790 C   0  0  0  0  0  2  0  0  0  0  0  0
  188.5660  177.6510  142.5790 C   0  0  1  0  0  3  0  0  0  0  0  0
  190.8180  176.0040  141.1920 C   0  0  0  0  0  3  0  0  0  0  0  0
  187.7050  178.8680  142.4130 C   0  0  2  0  0  3  0  0  0  0  0  0
  189.9950  177.0090  140.4960 C   0  0  0  0  0  0  0  0  0  0  0  0
  189.5810  178.7420  144.5870 O   0  0  0  0  0  1  0  0  0  0  0  0
  190.7960  177.0450  143.5150 C   0  0  0  0  0  3  0  0  0  0  0  0
  189.0820  177.6950  141.1680 C   0  0  0  0  0  0  0  0  0  0  0  0
  191.1530  176.0230  142.4950 C   0  0  0  0  0  3  0  0  0  0  0  0
  185.9280  177.8780  143.8640 C   0  0  0  0  0  2  0  0  0  0  0  0
  186.2300  178.4910  142.5190 C   0  0  1  0  0  3  0  0  0  0  0  0
  184.2980  179.5380  143.3410 C   0  0  0  0  0  2  0  0  0  0  0  0
  185.3870  179.6750  142.3740 N   0  0  0  0  0  2  0  0  0  0  0  0
  184.4970  178.2530  144.1140 C   0  0  0  0  0  2  0  0  0  0  0  0
  1 17  1  6  0  0  0
  1  7  1  0  0  0  0
  2 14  1  0  0  0  0
  3 11  1  0  0  0  0
  3 21  1  1  0  0  0
  4  5  1  0  0  0  0
  4 12  1  0  0  0  0
  7 27  1  6  0  0  0
  8  7  1  0  0  0  0
  9  6  1  1  0  0  0
  9  1  1  0  0  0  0
  9 11  1  0  0  0  0
 10  8  2  0  0  0  0
 12  2  1  6  0  0  0
 12 16  1  0  0  0  0
 13 14  1  1  0  0  0
 13 16  1  0  0  0  0
 13  3  1  0  0  0  0
 15 18  1  0  0  0  0
 15  4  1  0  0  0  0
 18 19  1  0  0  0  0
 19  8  1  0  0  0  0
 20 23  1  0  0  0  0
 21 25  2  0  0  0  0
 21 26  1  0  0  0  0
 22 20  1  0  0  0  0
 24 20  2  0  0  0  0
 25 24  1  0  0  0  0
 26 22  2  0  0  0  0
 27 36  1  6  0  0  0
 28 34  1  0  0  0  0
 29 35  2  0  0  0  0
 30 35  1  0  0  0  0
 30 27  1  1  0  0  0
 31 34  1  6  0  0  0
 32 30  1  0  0  0  0
 32 33  1  1  0  0  0
 32 31  1  0  0  0  0
 33 31  1  0  0  0  0
 35 28  1  0  0  0  0
 36 42  1  0  0  0  0
 37 43  1  0  0  0  0
 38 45  1  0  0  0  0
 39 45  1  6  0  0  0
 39 37  1  0  0  0  0
 40 46  2  0  0  0  0
 41 38  1  6  0  0  0
 41 48  1  0  0  0  0
 41 39  1  0  0  0  0
 42 45  2  0  0  0  0
 42 40  1  0  0  0  0
 44 37  2  0  0  0  0
 46 44  1  0  0  0  0
 47 51  1  0  0  0  0
 48 47  1  1  0  0  0
 49 51  1  0  0  0  0
 50 48  1  0  0  0  0
 50 49  1  0  0  0  0
M  END
>  <MODEL>
6

>  <REMARK>
 VINA RESULT:      -7.7      1.566      2.827
  Name = 
  6 active torsions:
  status: ('A' for Active; 'I' for Inactive)
    1  A    between atoms: C_6  and  C_16
    2  A    between atoms: C_7  and  C_17
    3  A    between atoms: C_7  and  C_18
    4  A    between atoms: C_7  and  C_21
    5  A    between atoms: C_21  and  C_33
    6  A    between atoms: C_24  and  C_32
                            x       y       z     vdW  Elec       q    Type
                         _______ _______ _______ _____ _____    ______ ____

>  <TORSDO>
F 6

$$$$
=
 OpenBabel11062414583D

 51 58  0  0  1  0  0  0  0  0999 V2000
  182.6780  178.8300  138.5810 C   0  0  2  0  0  3  0  0  0  0  0  0
  184.8750  174.2660  134.5940 C   0  0  0  0  0  2  0  0  0  0  0  0
  182.0190  175.8500  136.2550 C   0  0  1  0  0  3  0  0  0  0  0  0
  186.6080  174.7230  136.2890 N   0  0  0  0  0  0  0  0  0  0  0  0
  187.0770  174.3460  137.6200 C   0  0  0  0  0  1  0  0  0  0  0  0
  181.4170  178.8360  136.5340 O   0  0  0  0  0  1  0  0  0  0  0  0
  183.7610  178.0940  139.4010 C   0  0  1  0  0  3  0  0  0  0  0  0
  185.1070  178.1630  138.7360 C   0  0  0  0  0  0  0  0  0  0  0  0
  182.3840  178.1300  137.2520 C   0  0  2  0  0  3  0  0  0  0  0  0
  185.8290  179.1890  138.8620 O   0  0  0  0  0  0  0  0  0  0  0  0
  181.8790  176.7160  137.5060 C   0  0  0  0  0  2  0  0  0  0  0  0
  185.2710  174.1530  136.0530 C   0  0  1  0  0  3  0  0  0  0  0  0
  183.4360  175.6810  135.8830 N   0  0  2  0  0  0  0  0  0  0  0  0
  183.5530  175.0100  134.5940 C   0  0  0  0  0  2  0  0  0  0  0  0
  186.6900  176.1780  136.0140 C   0  0  0  0  0  2  0  0  0  0  0  0
  184.1640  174.8430  136.8310 C   0  0  0  0  0  2  0  0  0  0  0  0
  183.0050  180.3060  138.3770 C   0  0  0  0  0  1  0  0  0  0  0  0
  186.7500  177.0990  137.2400 C   0  0  0  0  0  2  0  0  0  0  0  0
  185.4990  177.1160  137.9060 O   0  0  0  0  0  0  0  0  0  0  0  0
  179.7070  172.2240  136.5960 C   0  0  0  0  0  0  0  0  0  0  0  0
  181.2390  174.5630  136.3900 C   0  0  0  0  0  0  0  0  0  0  0  0
  179.7770  172.9090  135.3810 C   0  0  0  0  0  3  0  0  0  0  0  0
  178.9310  171.0380  136.7030 N   0  0  0  0  0  1  0  0  0  0  0  0
  180.3940  172.7100  137.7120 C   0  0  0  0  0  3  0  0  0  0  0  0
  181.1560  173.8780  137.6120 C   0  0  0  0  0  3  0  0  0  0  0  0
  180.5380  174.0780  135.2790 C   0  0  0  0  0  3  0  0  0  0  0  0
  183.7940  178.5320  140.8790 C   0  0  1  0  0  3  0  0  0  0  0  0
  180.4690  176.9200  140.8720 O   0  0  0  0  0  0  0  0  0  0  0  0
  182.4430  175.7310  140.5660 O   0  0  0  0  0  0  0  0  0  0  0  0
  182.6600  177.8640  141.6900 C   0  0  1  0  0  3  0  0  0  0  0  0
  180.7800  179.2360  141.3200 C   0  0  2  0  0  3  0  0  0  0  0  0
  181.6320  178.7120  142.4590 C   0  0  2  0  0  3  0  0  0  0  0  0
  181.3560  180.0630  142.3090 O   0  0  0  0  0  0  0  0  0  0  0  0
  179.7960  178.0810  141.4160 C   0  0  0  0  0  2  0  0  0  0  0  0
  181.8750  176.7730  140.9920 C   0  0  0  0  0  0  0  0  0  0  0  0
  185.1700  178.3210  141.5200 C   0  0  0  0  0  2  0  0  0  0  0  0
  185.1970  178.2760  146.1100 C   0  0  0  0  0  0  0  0  0  0  0  0
  187.0360  176.9890  143.8480 C   0  0  0  0  0  2  0  0  0  0  0  0
  186.4200  178.3650  145.2390 C   0  0  1  0  0  3  0  0  0  0  0  0
  184.2850  179.7590  143.4480 C   0  0  0  0  0  3  0  0  0  0  0  0
  187.3180  177.1660  145.3070 C   0  0  2  0  0  3  0  0  0  0  0  0
  185.1950  178.7050  142.9640 C   0  0  0  0  0  0  0  0  0  0  0  0
  185.2320  177.4890  147.2570 O   0  0  0  0  0  1  0  0  0  0  0  0
  184.0950  179.0050  145.8720 C   0  0  0  0  0  3  0  0  0  0  0  0
  186.0490  178.1350  143.8000 C   0  0  0  0  0  0  0  0  0  0  0  0
  183.8220  179.8850  144.7050 C   0  0  0  0  0  3  0  0  0  0  0  0
  189.4110  176.8180  146.6280 C   0  0  0  0  0  2  0  0  0  0  0  0
  188.7680  177.6000  145.5090 C   0  0  1  0  0  3  0  0  0  0  0  0
  190.8530  176.8620  144.7290 C   0  0  0  0  0  2  0  0  0  0  0  0
  189.5480  177.3630  144.2980 N   0  0  0  0  0  2  0  0  0  0  0  0
  190.8590  176.7650  146.2380 C   0  0  0  0  0  2  0  0  0  0  0  0
  1 17  1  6  0  0  0
  1  7  1  0  0  0  0
  2 14  1  0  0  0  0
  3 21  1  1  0  0  0
  3 11  1  0  0  0  0
  4  5  1  0  0  0  0
  7 27  1  1  0  0  0
  8 10  2  0  0  0  0
  8  7  1  0  0  0  0
  9  6  1  1  0  0  0
  9 11  1  0  0  0  0
  9  1  1  0  0  0  0
 12  2  1  6  0  0  0
 12  4  1  0  0  0  0
 12 16  1  0  0  0  0
 13 14  1  6  0  0  0
 13  3  1  0  0  0  0
 13 16  1  0  0  0  0
 15  4  1  0  0  0  0
 15 18  1  0  0  0  0
 18 19  1  0  0  0  0
 19  8  1  0  0  0  0
 20 23  1  0  0  0  0
 20 24  1  0  0  0  0
 21 25  1  0  0  0  0
 22 20  2  0  0  0  0
 25 24  2  0  0  0  0
 26 22  1  0  0  0  0
 26 21  2  0  0  0  0
 27 36  1  1  0  0  0
 28 35  1  0  0  0  0
 28 34  1  0  0  0  0
 29 35  2  0  0  0  0
 30 27  1  6  0  0  0
 30 32  1  0  0  0  0
 31 34  1  1  0  0  0
 31 33  1  0  0  0  0
 31 32  1  0  0  0  0
 32 33  1  6  0  0  0
 35 30  1  0  0  0  0
 36 42  1  0  0  0  0
 37 43  1  0  0  0  0
 39 45  1  6  0  0  0
 39 41  1  0  0  0  0
 39 37  1  0  0  0  0
 40 46  2  0  0  0  0
 41 38  1  6  0  0  0
 41 48  1  0  0  0  0
 42 40  1  0  0  0  0
 42 45  2  0  0  0  0
 44 37  2  0  0  0  0
 45 38  1  0  0  0  0
 46 44  1  0  0  0  0
 48 47  1  1  0  0  0
 49 51  1  0  0  0  0
 50 49  1  0  0  0  0
 50 48  1  0  0  0  0
 51 47  1  0  0  0  0
M  END
>  <MODEL>
7

>  <REMARK>
 VINA RESULT:      -7.2      3.223      6.382
  Name = 
  6 active torsions:
  status: ('A' for Active; 'I' for Inactive)
    1  A    between atoms: C_6  and  C_16
    2  A    between atoms: C_7  and  C_17
    3  A    between atoms: C_7  and  C_18
    4  A    between atoms: C_7  and  C_21
    5  A    between atoms: C_21  and  C_33
    6  A    between atoms: C_24  and  C_32
                            x       y       z     vdW  Elec       q    Type
                         _______ _______ _______ _____ _____    ______ ____

>  <TORSDO>
F 6

$$$$
=
 OpenBabel11062414583D

 51 58  0  0  1  0  0  0  0  0999 V2000
  184.7360  177.0890  137.9040 C   0  0  2  0  0  3  0  0  0  0  0  0
  179.8570  181.2940  138.1780 C   0  0  0  0  0  2  0  0  0  0  0  0
  182.3450  179.2770  139.9590 C   0  0  1  0  0  3  0  0  0  0  0  0
  179.5370  179.8530  136.2010 N   0  0  0  0  0  0  0  0  0  0  0  0
  178.9510  178.5940  135.7480 C   0  0  0  0  0  1  0  0  0  0  0  0
  185.3170  178.9470  139.3150 O   0  0  0  0  0  1  0  0  0  0  0  0
  183.6040  176.4160  137.0950 C   0  0  1  0  0  3  0  0  0  0  0  0
  183.1790  177.2580  135.9250 C   0  0  0  0  0  0  0  0  0  0  0  0
  184.2620  178.3600  138.6140 C   0  0  2  0  0  3  0  0  0  0  0  0
  183.8410  177.2400  134.8520 O   0  0  0  0  0  0  0  0  0  0  0  0
  183.1420  178.0270  139.5910 C   0  0  0  0  0  2  0  0  0  0  0  0
  179.5370  179.9010  137.6730 C   0  0  1  0  0  3  0  0  0  0  0  0
  181.6600  179.8350  138.7780 N   0  0  2  0  0  0  0  0  0  0  0  0
  181.0530  181.1230  139.0960 C   0  0  0  0  0  2  0  0  0  0  0  0
  180.8590  180.1500  135.5980 C   0  0  0  0  0  2  0  0  0  0  0  0
  180.5650  178.9870  138.3170 C   0  0  0  0  0  2  0  0  0  0  0  0
  185.9800  177.3480  137.0600 C   0  0  0  0  0  1  0  0  0  0  0  0
  181.6310  178.9520  135.0290 C   0  0  0  0  0  2  0  0  0  0  0  0
  182.1000  178.1230  136.0790 O   0  0  0  0  0  0  0  0  0  0  0  0
  179.8770  178.5050  143.4120 C   0  0  0  0  0  0  0  0  0  0  0  0
  181.4530  179.0260  141.1520 C   0  0  0  0  0  0  0  0  0  0  0  0
  181.1710  179.0100  143.5630 C   0  0  0  0  0  3  0  0  0  0  0  0
  179.0770  178.2390  144.5560 N   0  0  0  0  0  1  0  0  0  0  0  0
  179.3730  178.2500  142.1340 C   0  0  0  0  0  3  0  0  0  0  0  0
  180.1580  178.5070  141.0060 C   0  0  0  0  0  3  0  0  0  0  0  0
  181.9580  179.2670  142.4360 C   0  0  0  0  0  3  0  0  0  0  0  0
  183.9310  174.9600  136.7060 C   0  0  1  0  0  3  0  0  0  0  0  0
  181.0040  172.8730  137.5630 O   0  0  0  0  0  0  0  0  0  0  0  0
  180.9470  175.1960  137.6070 O   0  0  0  0  0  0  0  0  0  0  0  0
  182.6680  174.2100  136.2210 C   0  0  1  0  0  3  0  0  0  0  0  0
  183.0610  171.9580  136.7950 C   0  0  2  0  0  3  0  0  0  0  0  0
  182.7750  172.8160  135.5780 C   0  0  2  0  0  3  0  0  0  0  0  0
  183.8460  171.9350  135.6210 O   0  0  0  0  0  0  0  0  0  0  0  0
  181.5890  171.6600  137.0320 C   0  0  0  0  0  2  0  0  0  0  0  0
  181.5010  174.1460  137.1840 C   0  0  0  0  0  0  0  0  0  0  0  0
  185.0840  174.8690  135.7000 C   0  0  0  0  0  2  0  0  0  0  0  0
  189.3620  173.3780  136.4350 C   0  0  0  0  0  0  0  0  0  0  0  0
  188.0950  176.0650  135.2860 C   0  0  0  0  0  2  0  0  0  0  0  0
  188.8820  174.7820  136.6780 C   0  0  1  0  0  3  0  0  0  0  0  0
  186.2770  173.1460  137.1760 C   0  0  0  0  0  3  0  0  0  0  0  0
  189.4880  175.8100  135.7690 C   0  0  2  0  0  3  0  0  0  0  0  0
  186.3390  174.3420  136.3150 C   0  0  0  0  0  0  0  0  0  0  0  0
  190.6240  173.1730  135.8860 O   0  0  0  0  0  1  0  0  0  0  0  0
  188.6520  172.3030  136.8170 C   0  0  0  0  0  3  0  0  0  0  0  0
  187.4950  174.9590  136.1250 C   0  0  0  0  0  0  0  0  0  0  0  0
  187.2810  172.2770  137.3920 C   0  0  0  0  0  3  0  0  0  0  0  0
  189.1510  178.2290  136.3000 C   0  0  0  0  0  2  0  0  0  0  0  0
  189.9870  177.0040  136.5790 C   0  0  1  0  0  3  0  0  0  0  0  0
  189.4410  177.9580  138.6510 C   0  0  0  0  0  2  0  0  0  0  0  0
  189.9010  176.7270  138.0090 N   0  0  0  0  0  2  0  0  0  0  0  0
  189.2160  179.0050  137.5820 C   0  0  0  0  0  2  0  0  0  0  0  0
  1 17  1  6  0  0  0
  1  9  1  0  0  0  0
  2 14  1  0  0  0  0
  3 21  1  1  0  0  0
  4 12  1  0  0  0  0
  5  4  1  0  0  0  0
  7 27  1  6  0  0  0
  7  1  1  0  0  0  0
  8 19  1  0  0  0  0
  8  7  1  0  0  0  0
  9  6  1  1  0  0  0
  9 11  1  0  0  0  0
 10  8  2  0  0  0  0
 11  3  1  0  0  0  0
 12  2  1  6  0  0  0
 12 16  1  0  0  0  0
 13 16  1  1  0  0  0
 13 14  1  0  0  0  0
 13  3  1  0  0  0  0
 15  4  1  0  0  0  0
 18 15  1  0  0  0  0
 18 19  1  0  0  0  0
 20 22  1  0  0  0  0
 20 23  1  0  0  0  0
 21 26  1  0  0  0  0
 24 20  2  0  0  0  0
 25 21  2  0  0  0  0
 25 24  1  0  0  0  0
 26 22  2  0  0  0  0
 27 36  1  6  0  0  0
 30 27  1  1  0  0  0
 30 35  1  0  0  0  0
 31 34  1  6  0  0  0
 32 33  1  6  0  0  0
 32 30  1  0  0  0  0
 32 31  1  0  0  0  0
 33 31  1  0  0  0  0
 34 28  1  0  0  0  0
 35 28  1  0  0  0  0
 35 29  2  0  0  0  0
 36 42  1  0  0  0  0
 37 39  1  0  0  0  0
 37 44  2  0  0  0  0
 38 45  1  0  0  0  0
 39 45  1  6  0  0  0
 40 46  2  0  0  0  0
 41 38  1  6  0  0  0
 41 48  1  0  0  0  0
 41 39  1  0  0  0  0
 42 40  1  0  0  0  0
 43 37  1  0  0  0  0
 44 46  1  0  0  0  0
 45 42  2  0  0  0  0
 47 51  1  0  0  0  0
 48 47  1  1  0  0  0
 48 50  1  0  0  0  0
 50 49  1  0  0  0  0
 51 49  1  0  0  0  0
M  END
>  <MODEL>
8

>  <REMARK>
 VINA RESULT:      -7.1      3.634      6.933
  Name = 
  6 active torsions:
  status: ('A' for Active; 'I' for Inactive)
    1  A    between atoms: C_6  and  C_16
    2  A    between atoms: C_7  and  C_17
    3  A    between atoms: C_7  and  C_18
    4  A    between atoms: C_7  and  C_21
    5  A    between atoms: C_21  and  C_33
    6  A    between atoms: C_24  and  C_32
                            x       y       z     vdW  Elec       q    Type
                         _______ _______ _______ _____ _____    ______ ____

>  <TORSDO>
F 6

$$$$
=
 OpenBabel11062414583D

 51 58  0  0  1  0  0  0  0  0999 V2000
  183.5880  177.8340  138.7090 C   0  0  2  0  0  3  0  0  0  0  0  0
  182.4050  179.8430  144.7200 C   0  0  0  0  0  2  0  0  0  0  0  0
  184.8620  178.9080  142.1670 C   0  0  1  0  0  3  0  0  0  0  0  0
  180.5280  178.4180  143.9890 N   0  0  0  0  0  0  0  0  0  0  0  0
  180.0560  177.0360  143.9320 C   0  0  0  0  0  1  0  0  0  0  0  0
  184.9410  179.7530  139.2280 O   0  0  0  0  0  1  0  0  0  0  0  0
  182.5980  176.7900  139.2750 C   0  0  1  0  0  3  0  0  0  0  0  0
  181.2980  177.4220  139.6890 C   0  0  0  0  0  0  0  0  0  0  0  0
  184.0670  178.8150  139.7820 C   0  0  2  0  0  3  0  0  0  0  0  0
  180.4100  177.6740  138.8310 O   0  0  0  0  0  0  0  0  0  0  0  0
  184.7860  178.0650  140.8950 C   0  0  0  0  0  2  0  0  0  0  0  0
  181.9530  178.4410  144.3620 C   0  0  1  0  0  3  0  0  0  0  0  0
  183.5150  179.1780  142.7040 N   0  0  2  0  0  0  0  0  0  0  0  0
  183.5820  180.1290  143.8080 C   0  0  0  0  0  2  0  0  0  0  0  0
  180.2210  179.2080  142.7720 C   0  0  0  0  0  2  0  0  0  0  0  0
  182.8850  177.9810  143.2540 C   0  0  0  0  0  2  0  0  0  0  0  0
  183.0310  178.5630  137.4900 C   0  0  0  0  0  1  0  0  0  0  0  0
  179.9410  178.4050  141.4940 C   0  0  0  0  0  2  0  0  0  0  0  0
  181.1330  177.8040  141.0170 O   0  0  0  0  0  0  0  0  0  0  0  0
  187.6580  177.3180  145.0400 C   0  0  0  0  0  0  0  0  0  0  0  0
  185.8350  178.3170  143.1580 C   0  0  0  0  0  0  0  0  0  0  0  0
  186.5980  178.1280  145.4550 C   0  0  0  0  0  3  0  0  0  0  0  0
  188.5830  176.8110  145.9930 N   0  0  0  0  0  1  0  0  0  0  0  0
  187.8150  177.0140  143.6850 C   0  0  0  0  0  3  0  0  0  0  0  0
  186.9090  177.5130  142.7450 C   0  0  0  0  0  3  0  0  0  0  0  0
  185.6910  178.6290  144.5160 C   0  0  0  0  0  3  0  0  0  0  0  0
  182.4100  175.5770  138.3420 C   0  0  1  0  0  3  0  0  0  0  0  0
  179.5900  173.1880  138.3520 O   0  0  0  0  0  0  0  0  0  0  0  0
  180.1360  174.4980  140.1940 O   0  0  0  0  0  0  0  0  0  0  0  0
  180.9140  175.3140  138.0530 C   0  0  1  0  0  3  0  0  0  0  0  0
  180.9160  173.6110  136.4230 C   0  0  2  0  0  3  0  0  0  0  0  0
  180.4230  175.0310  136.6220 C   0  0  2  0  0  3  0  0  0  0  0  0
  181.1770  174.6630  135.5170 O   0  0  0  0  0  0  0  0  0  0  0  0
  179.6130  173.0020  136.9170 C   0  0  0  0  0  2  0  0  0  0  0  0
  180.2120  174.3150  138.9490 C   0  0  0  0  0  0  0  0  0  0  0  0
  183.2390  175.6940  137.0580 C   0  0  0  0  0  2  0  0  0  0  0  0
  187.3580  173.8720  136.1780 C   0  0  0  0  0  0  0  0  0  0  0  0
  186.1910  176.8350  136.2470 C   0  0  0  0  0  2  0  0  0  0  0  0
  187.1210  175.1450  136.9420 C   0  0  1  0  0  3  0  0  0  0  0  0
  184.5290  173.5450  137.5930 C   0  0  0  0  0  3  0  0  0  0  0  0
  187.6170  176.3820  136.2540 C   0  0  2  0  0  3  0  0  0  0  0  0
  184.5300  174.9480  137.1400 C   0  0  0  0  0  0  0  0  0  0  0  0
  188.4220  173.8000  135.2840 O   0  0  0  0  0  1  0  0  0  0  0  0
  186.6340  172.7620  136.3950 C   0  0  0  0  0  3  0  0  0  0  0  0
  185.6760  175.5450  136.8470 C   0  0  0  0  0  0  0  0  0  0  0  0
  185.4420  172.6110  137.2730 C   0  0  0  0  0  3  0  0  0  0  0  0
  187.5270  178.0940  138.0730 C   0  0  0  0  0  2  0  0  0  0  0  0
  188.4320  177.2370  137.2210 C   0  0  1  0  0  3  0  0  0  0  0  0
  189.1520  177.0120  139.4420 C   0  0  0  0  0  2  0  0  0  0  0  0
  189.2130  176.3910  138.1190 N   0  0  0  0  0  2  0  0  0  0  0  0
  188.2900  178.2520  139.3550 C   0  0  0  0  0  2  0  0  0  0  0  0
  1 17  1  6  0  0  0
  1  7  1  0  0  0  0
  1  9  1  0  0  0  0
  3 13  1  0  0  0  0
  3 21  1  1  0  0  0
  4 12  1  0  0  0  0
  5  4  1  0  0  0  0
  7 27  1  6  0  0  0
  7  8  1  0  0  0  0
  8 19  1  0  0  0  0
  9  6  1  6  0  0  0
  9 11  1  0  0  0  0
 10  8  2  0  0  0  0
 11  3  1  0  0  0  0
 12 16  1  6  0  0  0
 12  2  1  0  0  0  0
 13 16  1  1  0  0  0
 13 14  1  0  0  0  0
 14  2  1  0  0  0  0
 15  4  1  0  0  0  0
 18 15  1  0  0  0  0
 19 18  1  0  0  0  0
 20 22  1  0  0  0  0
 20 23  1  0  0  0  0
 21 26  1  0  0  0  0
 24 20  2  0  0  0  0
 25 21  2  0  0  0  0
 25 24  1  0  0  0  0
 26 22  2  0  0  0  0
 27 36  1  6  0  0  0
 28 35  1  0  0  0  0
 30 27  1  6  0  0  0
 30 35  1  0  0  0  0
 31 32  1  0  0  0  0
 31 34  1  6  0  0  0
 32 33  1  6  0  0  0
 32 30  1  0  0  0  0
 33 31  1  0  0  0  0
 34 28  1  0  0  0  0
 35 29  2  0  0  0  0
 36 42  1  0  0  0  0
 37 44  2  0  0  0  0
 38 45  1  0  0  0  0
 39 37  1  6  0  0  0
 41 38  1  1  0  0  0
 41 39  1  0  0  0  0
 41 48  1  0  0  0  0
 42 40  1  0  0  0  0
 43 37  1  0  0  0  0
 44 46  1  0  0  0  0
 45 39  1  0  0  0  0
 45 42  2  0  0  0  0
 46 40  2  0  0  0  0
 47 51  1  0  0  0  0
 48 47  1  1  0  0  0
 48 50  1  0  0  0  0
 50 49  1  0  0  0  0
 51 49  1  0  0  0  0
M  END
>  <MODEL>
9

>  <REMARK>
 VINA RESULT:      -6.9      3.012      8.106
  Name = 
  6 active torsions:
  status: ('A' for Active; 'I' for Inactive)
    1  A    between atoms: C_6  and  C_16
    2  A    between atoms: C_7  and  C_17
    3  A    between atoms: C_7  and  C_18
    4  A    between atoms: C_7  and  C_21
    5  A    between atoms: C_21  and  C_33
    6  A    between atoms: C_24  and  C_32
                            x       y       z     vdW  Elec       q    Type
                         _______ _______ _______ _____ _____    ______ ____

>  <TORSDO>
F 6

$$$$
