=
 OpenBabel11062415123D

 55 60  0  0  1  0  0  0  0  0999 V2000
  188.9110  177.0230  143.5560 C   0  0  0  0  0  2  0  0  0  0  0  0
  189.4350  176.4960  141.1620 C   0  0  1  0  0  3  0  0  0  0  0  0
  190.9260  177.4910  139.5290 O   0  0  0  0  0  1  0  0  0  0  0  0
  188.6160  178.1960  139.3950 C   0  0  2  0  0  0  0  0  0  0  0  0
  188.9670  177.5780  142.1400 C   0  0  1  0  0  3  0  0  0  0  0  0
  189.6100  177.0650  139.7420 C   0  0  2  0  0  3  0  0  0  0  0  0
  187.5890  178.1220  141.7290 C   0  0  0  0  0  2  0  0  0  0  0  0
  190.6110  175.8810  141.6020 O   0  0  0  0  0  1  0  0  0  0  0  0
  189.1780  179.4340  139.6640 F   0  0  0  0  0  0  0  0  0  0  0  0
  187.3280  178.0520  140.2160 C   0  0  0  0  0  2  0  0  0  0  0  0
  188.2130  178.1090  137.6220 P   0  0  1  0  0  0  0  0  0  0  0  0
  187.1690  179.1530  137.2920 O   0  0  0  0  0  1  0  0  0  0  0  0
  189.6090  178.4110  136.7160 O   0  0  0  0  0  0  0  0  0  0  0  0
  187.5730  176.5120  137.2430 N   0  0  0  0  0  2  0  0  0  0  0  0
  187.7770  176.2660  135.8200 C   0  0  0  0  0  2  0  0  0  0  0  0
  187.8290  174.7730  135.5210 C   0  0  0  0  0  2  0  0  0  0  0  0
  189.1040  174.4240  134.7680 C   0  0  0  0  0  2  0  0  0  0  0  0
  193.0940  172.2450  136.0900 C   0  0  0  0  0  1  0  0  0  0  0  0
  193.6040  174.3180  135.1120 C   0  0  0  0  0  2  0  0  0  0  0  0
  191.1960  175.8990  134.9160 C   0  0  0  0  0  2  0  0  0  0  0  0
  190.7280  174.4760  136.7340 C   0  0  0  0  0  0  0  0  0  0  0  0
  190.2630  174.9430  135.4810 N   0  0  0  0  0  0  0  0  0  0  0  0
  193.5930  175.7000  135.3910 O   0  0  0  0  0  0  0  0  0  0  0  0
  190.1360  173.5880  137.4040 O   0  0  0  0  0  0  0  0  0  0  0  0
  192.3350  176.0260  135.9510 C   0  0  2  0  0  3  0  0  0  0  0  0
  191.9730  175.1450  137.1710 C   0  0  2  0  0  3  0  0  0  0  0  0
  193.0840  174.1380  137.5110 C   0  0  0  0  0  2  0  0  0  0  0  0
  193.7380  173.5260  136.3400 N   0  0  0  0  0  0  0  0  0  0  0  0
  189.6880  178.7070  145.0590 O   0  0  0  0  0  1  0  0  0  0  0  0
  188.5290  178.0740  144.5960 C   0  0  2  0  0  3  0  0  0  0  0  0
  187.8260  177.3820  145.7630 C   0  0  1  0  0  3  0  0  0  0  0  0
  188.6520  177.3670  147.0090 C   0  0  0  0  0  0  0  0  0  0  0  0
  188.4220  178.2250  147.9080 O   0  0  0  0  0  0  0  0  0  0  0  0
  189.6600  176.4100  147.1850 O   0  0  0  0  0  0  0  0  0  0  0  0
  190.9990  176.7770  147.5010 C   0  0  0  0  0  2  0  0  0  0  0  0
  191.9940  175.9130  146.7370 C   0  0  0  0  0  2  0  0  0  0  0  0
  192.0640  174.8570  144.5010 C   0  0  0  0  0  1  0  0  0  0  0  0
  191.9050  176.1640  145.2450 C   0  0  0  0  0  2  0  0  0  0  0  0
  186.4440  177.9770  146.0440 C   0  0  0  0  0  2  0  0  0  0  0  0
  185.5900  177.9790  144.7860 C   0  0  0  0  0  2  0  0  0  0  0  0
  185.6400  179.3460  144.1020 C   0  0  2  0  0  3  0  0  0  0  0  0
  184.4240  180.1500  144.5110 C   0  0  0  0  0  2  0  0  0  0  0  0
  184.5160  179.6220  143.0920 C   0  0  2  0  0  3  0  0  0  0  0  0
  181.0210  178.5480  142.3500 C   0  0  0  0  0  2  0  0  0  0  0  0
  182.2580  180.3910  138.6860 C   0  0  0  0  0  2  0  0  0  0  0  0
  183.6010  177.9800  141.4260 C   0  0  0  0  0  2  0  0  0  0  0  0
  181.4160  179.0080  140.9750 C   0  0  0  0  0  0  0  0  0  0  0  0
  182.6710  178.7640  140.5400 C   0  0  0  0  0  0  0  0  0  0  0  0
  182.1250  178.9000  143.3500 C   0  0  0  0  0  2  0  0  0  0  0  0
  183.1520  179.2560  139.1930 C   0  0  1  0  0  3  0  0  0  0  0  0
  180.4990  179.9300  140.2110 C   0  0  0  0  0  2  0  0  0  0  0  0
  183.5370  178.4660  142.8890 C   0  0  2  0  0  3  0  0  0  0  0  0
  180.8540  180.0000  138.7970 N   0  0  0  0  0  2  0  0  0  0  0  0
  184.4380  177.5940  138.0460 O   0  0  0  0  0  1  0  0  0  0  0  0
  183.1490  178.1140  138.1830 C   0  0  0  0  0  2  0  0  0  0  0  0
  1 30  1  0  0  0  0
  2  8  1  1  0  0  0
  2  5  1  0  0  0  0
  4  9  1  1  0  0  0
  4  6  1  0  0  0  0
  4 10  1  0  0  0  0
  5  1  1  1  0  0  0
  6  3  1  1  0  0  0
  6  2  1  0  0  0  0
  7  5  1  0  0  0  0
 10  7  1  0  0  0  0
 11 13  2  6  0  0  0
 11  4  1  0  0  0  0
 12 11  1  0  0  0  0
 14 11  1  0  0  0  0
 15 14  1  0  0  0  0
 16 15  1  0  0  0  0
 17 22  1  0  0  0  0
 17 16  1  0  0  0  0
 18 28  1  0  0  0  0
 19 23  1  0  0  0  0
 19 28  1  0  0  0  0
 20 22  1  0  0  0  0
 21 26  1  0  0  0  0
 21 24  2  0  0  0  0
 22 21  1  0  0  0  0
 23 25  1  0  0  0  0
 25 20  1  6  0  0  0
 25 26  1  0  0  0  0
 26 27  1  6  0  0  0
 28 27  1  0  0  0  0
 30 29  1  1  0  0  0
 30 31  1  0  0  0  0
 31 39  1  1  0  0  0
 31 32  1  0  0  0  0
 32 34  1  0  0  0  0
 32 33  2  0  0  0  0
 34 35  1  0  0  0  0
 36 35  1  0  0  0  0
 37 38  1  0  0  0  0
 38 36  1  0  0  0  0
 40 39  1  0  0  0  0
 41 42  1  0  0  0  0
 41 40  1  1  0  0  0
 43 41  1  0  0  0  0
 43 42  1  1  0  0  0
 44 49  1  0  0  0  0
 45 53  1  0  0  0  0
 45 50  1  0  0  0  0
 47 44  1  0  0  0  0
 48 47  2  0  0  0  0
 48 46  1  0  0  0  0
 50 55  1  6  0  0  0
 50 48  1  0  0  0  0
 51 47  1  0  0  0  0
 52 46  1  6  0  0  0
 52 43  1  0  0  0  0
 52 49  1  0  0  0  0
 53 51  1  0  0  0  0
 54 55  1  0  0  0  0
M  END
>  <MODEL>
1

>  <REMARK>
 VINA RESULT:      -7.7      0.000      0.000
  Name = 
  19 active torsions:
  status: ('A' for Active; 'I' for Inactive)
    1  A    between atoms: C_2  and  N_33
    2  A    between atoms: C_2  and  C_54
    3  A    between atoms: C_3  and  C_14
    4  A    between atoms: C_3  and  C_44
    5  A    between atoms: P_4  and  N_15
    6  A    between atoms: P_4  and  C_23
    7  A    between atoms: C_8  and  C_14
    8  A    between atoms: C_9  and  O_32
    9  A    between atoms: C_9  and  C_44
   10  A    between atoms: N_15  and  C_35
   11  A    between atoms: C_24  and  C_40
   12  A    between atoms: C_25  and  C_51
   13  A    between atoms: C_28  and  C_39
   14  A    between atoms: C_30  and  C_40
   15  A    between atoms: C_30  and  C_44
   16  A    between atoms: C_31  and  O_32
   17  A    between atoms: C_31  and  C_49
   18  A    between atoms: C_35  and  C_54
   19  A    between atoms: C_48  and  C_49
                            x       y       z     vdW  Elec       q    Type
                         _______ _______ _______ _____ _____    ______ ____

>  <TORSDO>
F 19

$$$$
=
 OpenBabel11062415123D

 55 60  0  0  1  0  0  0  0  0999 V2000
  185.1350  178.0860  144.7860 C   0  0  0  0  0  2  0  0  0  0  0  0
  187.3610  177.1610  145.4710 C   0  0  1  0  0  3  0  0  0  0  0  0
  189.4720  178.1870  146.0800 O   0  0  0  0  0  1  0  0  0  0  0  0
  189.3010  177.4400  143.7860 C   0  0  2  0  0  0  0  0  0  0  0  0
  186.6260  178.0710  144.4830 C   0  0  1  0  0  3  0  0  0  0  0  0
  188.8850  177.2200  145.2570 C   0  0  2  0  0  3  0  0  0  0  0  0
  186.8680  177.6100  143.0370 C   0  0  0  0  0  2  0  0  0  0  0  0
  187.0310  177.4680  146.7950 O   0  0  0  0  0  1  0  0  0  0  0  0
  189.4890  178.7900  143.5340 F   0  0  0  0  0  0  0  0  0  0  0  0
  188.2210  176.9090  142.8340 C   0  0  0  0  0  2  0  0  0  0  0  0
  190.8650  176.5620  143.4730 P   0  0  1  0  0  0  0  0  0  0  0  0
  191.6800  176.5190  144.7470 O   0  0  0  0  0  1  0  0  0  0  0  0
  190.5280  174.9820  142.9740 O   0  0  0  0  0  0  0  0  0  0  0  0
  191.7780  177.4140  142.2300 N   0  0  0  0  0  2  0  0  0  0  0  0
  191.6350  176.6800  140.9780 C   0  0  0  0  0  2  0  0  0  0  0  0
  190.7450  177.4330  139.9970 C   0  0  0  0  0  2  0  0  0  0  0  0
  190.9880  176.9480  138.5760 C   0  0  0  0  0  2  0  0  0  0  0  0
  186.8650  175.2390  136.9940 C   0  0  0  0  0  1  0  0  0  0  0  0
  186.5950  177.4690  137.6770 C   0  0  0  0  0  2  0  0  0  0  0  0
  189.1910  178.6880  138.0100 C   0  0  0  0  0  2  0  0  0  0  0  0
  189.6170  176.9980  136.4250 C   0  0  0  0  0  0  0  0  0  0  0  0
  190.0120  177.5420  137.6720 N   0  0  0  0  0  0  0  0  0  0  0  0
  186.8600  178.7890  137.2590 O   0  0  0  0  0  0  0  0  0  0  0  0
  190.1270  175.9560  135.9320 O   0  0  0  0  0  0  0  0  0  0  0  0
  188.2070  178.8540  136.8320 C   0  0  2  0  0  3  0  0  0  0  0  0
  188.5520  177.7850  135.7660 C   0  0  2  0  0  3  0  0  0  0  0  0
  187.3360  176.9210  135.3950 C   0  0  0  0  0  2  0  0  0  0  0  0
  186.4680  176.5610  136.5320 N   0  0  0  0  0  0  0  0  0  0  0  0
  183.7230  180.0020  144.9700 O   0  0  0  0  0  1  0  0  0  0  0  0
  184.3840  179.1890  144.0440 C   0  0  2  0  0  3  0  0  0  0  0  0
  183.3610  178.5460  143.1070 C   0  0  1  0  0  3  0  0  0  0  0  0
  181.9570  178.9550  143.4180 C   0  0  0  0  0  0  0  0  0  0  0  0
  181.3030  178.2980  144.2760 O   0  0  0  0  0  0  0  0  0  0  0  0
  181.3780  180.0600  142.7780 O   0  0  0  0  0  0  0  0  0  0  0  0
  180.0370  180.0330  142.2990 C   0  0  0  0  0  2  0  0  0  0  0  0
  180.0050  179.9470  140.7800 C   0  0  0  0  0  2  0  0  0  0  0  0
  180.2080  181.4140  138.7980 C   0  0  0  0  0  1  0  0  0  0  0  0
  179.5790  181.2660  140.1650 C   0  0  0  0  0  2  0  0  0  0  0  0
  183.6800  178.8050  141.6320 C   0  0  0  0  0  2  0  0  0  0  0  0
  183.0150  177.7650  140.7450 C   0  0  0  0  0  2  0  0  0  0  0  0
  183.5760  177.8270  139.3240 C   0  0  2  0  0  3  0  0  0  0  0  0
  182.7800  178.8340  138.5210 C   0  0  0  0  0  2  0  0  0  0  0  0
  182.6240  177.3560  138.2150 C   0  0  2  0  0  3  0  0  0  0  0  0
  179.0630  176.6020  137.3990 C   0  0  0  0  0  2  0  0  0  0  0  0
  181.2120  173.7170  135.0750 C   0  0  0  0  0  2  0  0  0  0  0  0
  181.2240  175.3110  138.6210 C   0  0  0  0  0  2  0  0  0  0  0  0
  179.7100  175.4450  136.6930 C   0  0  0  0  0  0  0  0  0  0  0  0
  180.7730  174.8410  137.2650 C   0  0  0  0  0  0  0  0  0  0  0  0
  180.1390  177.5590  137.9170 C   0  0  0  0  0  2  0  0  0  0  0  0
  181.5100  173.7140  136.5770 C   0  0  1  0  0  3  0  0  0  0  0  0
  179.3200  175.1360  135.2680 C   0  0  0  0  0  2  0  0  0  0  0  0
  181.2670  176.8510  138.7050 C   0  0  2  0  0  3  0  0  0  0  0  0
  179.7700  173.8100  134.8570 N   0  0  0  0  0  2  0  0  0  0  0  0
  182.2050  171.5250  137.2510 O   0  0  0  0  0  1  0  0  0  0  0  0
  181.0990  172.3730  137.1750 C   0  0  0  0  0  2  0  0  0  0  0  0
  2  8  1  1  0  0  0
  4  9  1  6  0  0  0
  4  6  1  0  0  0  0
  5  1  1  1  0  0  0
  5  2  1  0  0  0  0
  6  2  1  0  0  0  0
  6  3  1  1  0  0  0
  7  5  1  0  0  0  0
 10  7  1  0  0  0  0
 10  4  1  0  0  0  0
 11 13  2  6  0  0  0
 11  4  1  0  0  0  0
 11 12  1  0  0  0  0
 14 11  1  0  0  0  0
 15 14  1  0  0  0  0
 16 15  1  0  0  0  0
 17 16  1  0  0  0  0
 21 22  1  0  0  0  0
 22 20  1  0  0  0  0
 22 17  1  0  0  0  0
 23 19  1  0  0  0  0
 24 21  2  0  0  0  0
 25 23  1  0  0  0  0
 25 20  1  1  0  0  0
 26 27  1  1  0  0  0
 26 21  1  0  0  0  0
 26 25  1  0  0  0  0
 27 28  1  0  0  0  0
 28 18  1  0  0  0  0
 28 19  1  0  0  0  0
 30  1  1  0  0  0  0
 30 29  1  1  0  0  0
 31 39  1  6  0  0  0
 31 32  1  0  0  0  0
 31 30  1  0  0  0  0
 32 33  2  0  0  0  0
 34 32  1  0  0  0  0
 35 34  1  0  0  0  0
 36 35  1  0  0  0  0
 37 38  1  0  0  0  0
 38 36  1  0  0  0  0
 40 39  1  0  0  0  0
 41 40  1  1  0  0  0
 42 41  1  0  0  0  0
 43 42  1  6  0  0  0
 43 52  1  0  0  0  0
 43 41  1  0  0  0  0
 44 49  1  0  0  0  0
 45 50  1  0  0  0  0
 46 52  1  0  0  0  0
 47 48  2  0  0  0  0
 47 44  1  0  0  0  0
 48 46  1  0  0  0  0
 50 55  1  1  0  0  0
 50 48  1  0  0  0  0
 51 47  1  0  0  0  0
 52 49  1  6  0  0  0
 53 45  1  0  0  0  0
 53 51  1  0  0  0  0
 55 54  1  0  0  0  0
M  END
>  <MODEL>
2

>  <REMARK>
 VINA RESULT:      -6.9      3.374      6.891
  Name = 
  19 active torsions:
  status: ('A' for Active; 'I' for Inactive)
    1  A    between atoms: C_2  and  N_33
    2  A    between atoms: C_2  and  C_54
    3  A    between atoms: C_3  and  C_14
    4  A    between atoms: C_3  and  C_44
    5  A    between atoms: P_4  and  N_15
    6  A    between atoms: P_4  and  C_23
    7  A    between atoms: C_8  and  C_14
    8  A    between atoms: C_9  and  O_32
    9  A    between atoms: C_9  and  C_44
   10  A    between atoms: N_15  and  C_35
   11  A    between atoms: C_24  and  C_40
   12  A    between atoms: C_25  and  C_51
   13  A    between atoms: C_28  and  C_39
   14  A    between atoms: C_30  and  C_40
   15  A    between atoms: C_30  and  C_44
   16  A    between atoms: C_31  and  O_32
   17  A    between atoms: C_31  and  C_49
   18  A    between atoms: C_35  and  C_54
   19  A    between atoms: C_48  and  C_49
                            x       y       z     vdW  Elec       q    Type
                         _______ _______ _______ _____ _____    ______ ____

>  <TORSDO>
F 19

$$$$
=
 OpenBabel11062415123D

 55 60  0  0  1  0  0  0  0  0999 V2000
  186.7790  178.1760  143.2060 C   0  0  0  0  0  2  0  0  0  0  0  0
  188.5160  177.0300  141.8090 C   0  0  1  0  0  3  0  0  0  0  0  0
  190.6930  177.7030  140.9810 O   0  0  0  0  0  1  0  0  0  0  0  0
  188.8640  177.9400  139.4160 C   0  0  2  0  0  0  0  0  0  0  0  0
  187.6250  178.2680  141.9450 C   0  0  1  0  0  3  0  0  0  0  0  0
  189.4640  177.1530  140.6020 C   0  0  2  0  0  3  0  0  0  0  0  0
  186.7210  178.4220  140.7110 C   0  0  0  0  0  2  0  0  0  0  0  0
  189.2340  176.7840  142.9850 O   0  0  0  0  0  1  0  0  0  0  0  0
  189.2280  179.2750  139.4880 F   0  0  0  0  0  0  0  0  0  0  0  0
  187.3330  177.8460  139.4240 C   0  0  0  0  0  2  0  0  0  0  0  0
  189.5020  177.2430  137.8590 P   0  0  1  0  0  0  0  0  0  0  0  0
  191.0130  177.1950  137.9120 O   0  0  0  0  0  1  0  0  0  0  0  0
  188.9020  175.6750  137.6610 O   0  0  0  0  0  0  0  0  0  0  0  0
  189.0030  178.2630  136.5120 N   0  0  0  0  0  2  0  0  0  0  0  0
  188.3130  177.4250  135.5380 C   0  0  0  0  0  2  0  0  0  0  0  0
  186.8060  177.6360  135.5990 C   0  0  0  0  0  2  0  0  0  0  0  0
  186.0780  176.4860  134.9180 C   0  0  0  0  0  2  0  0  0  0  0  0
  182.9670  173.0830  135.9950 C   0  0  0  0  0  1  0  0  0  0  0  0
  184.9740  172.1210  135.2440 C   0  0  0  0  0  2  0  0  0  0  0  0
  187.0460  174.1310  135.2220 C   0  0  0  0  0  2  0  0  0  0  0  0
  185.5740  174.9320  136.8770 C   0  0  0  0  0  0  0  0  0  0  0  0
  186.2590  175.2580  135.6810 N   0  0  0  0  0  0  0  0  0  0  0  0
  186.2890  171.8430  135.6690 O   0  0  0  0  0  0  0  0  0  0  0  0
  184.7690  175.7140  137.4490 O   0  0  0  0  0  0  0  0  0  0  0  0
  186.8170  173.0140  136.2630 C   0  0  2  0  0  3  0  0  0  0  0  0
  185.9110  173.5830  137.3820 C   0  0  2  0  0  3  0  0  0  0  0  0
  184.6590  172.7200  137.6110 C   0  0  0  0  0  2  0  0  0  0  0  0
  184.0460  172.1870  136.3800 N   0  0  0  0  0  0  0  0  0  0  0  0
  185.3310  179.9960  142.6690 O   0  0  0  0  0  1  0  0  0  0  0  0
  185.3380  178.6360  142.9950 C   0  0  2  0  0  3  0  0  0  0  0  0
  184.5560  178.4180  144.2910 C   0  0  1  0  0  3  0  0  0  0  0  0
  185.3790  178.6780  145.5120 C   0  0  0  0  0  0  0  0  0  0  0  0
  185.5530  179.8700  145.8930 O   0  0  0  0  0  0  0  0  0  0  0  0
  185.9400  177.6140  146.2330 O   0  0  0  0  0  0  0  0  0  0  0  0
  187.3250  177.5770  146.5610 C   0  0  0  0  0  2  0  0  0  0  0  0
  187.5670  178.1240  147.9610 C   0  0  0  0  0  2  0  0  0  0  0  0
  189.7460  177.1440  147.3200 C   0  0  0  0  0  1  0  0  0  0  0  0
  189.0070  177.9190  148.3880 C   0  0  0  0  0  2  0  0  0  0  0  0
  183.2630  179.2360  144.3340 C   0  0  0  0  0  2  0  0  0  0  0  0
  182.1380  178.5050  143.6180 C   0  0  0  0  0  2  0  0  0  0  0  0
  180.9050  179.4010  143.4930 C   0  0  2  0  0  3  0  0  0  0  0  0
  179.6720  178.6000  143.8560 C   0  0  0  0  0  2  0  0  0  0  0  0
  179.8970  178.9930  142.4080 C   0  0  2  0  0  3  0  0  0  0  0  0
  179.4980  177.0590  139.2430 C   0  0  0  0  0  2  0  0  0  0  0  0
  181.3400  180.6940  137.9230 C   0  0  0  0  0  2  0  0  0  0  0  0
  181.5920  178.0830  140.7930 C   0  0  0  0  0  2  0  0  0  0  0  0
  180.3000  178.2120  138.7080 C   0  0  0  0  0  0  0  0  0  0  0  0
  181.2890  178.7290  139.4680 C   0  0  0  0  0  0  0  0  0  0  0  0
  179.1110  177.3300  140.6990 C   0  0  0  0  0  2  0  0  0  0  0  0
  182.0900  179.9290  139.0170 C   0  0  1  0  0  3  0  0  0  0  0  0
  179.8380  178.9170  137.4570 C   0  0  0  0  0  2  0  0  0  0  0  0
  180.3030  177.7720  141.5820 C   0  0  2  0  0  3  0  0  0  0  0  0
  180.8850  179.7630  136.8920 N   0  0  0  0  0  2  0  0  0  0  0  0
  184.4570  180.2900  139.0280 O   0  0  0  0  0  1  0  0  0  0  0  0
  183.4500  179.4860  138.4880 C   0  0  0  0  0  2  0  0  0  0  0  0
  2  5  1  0  0  0  0
  2  8  1  1  0  0  0
  4 10  1  0  0  0  0
  4  9  1  1  0  0  0
  4  6  1  0  0  0  0
  5  1  1  1  0  0  0
  6  3  1  1  0  0  0
  6  2  1  0  0  0  0
  7  5  1  0  0  0  0
 10  7  1  0  0  0  0
 11 13  2  6  0  0  0
 11 12  1  0  0  0  0
 11  4  1  0  0  0  0
 14 11  1  0  0  0  0
 15 16  1  0  0  0  0
 15 14  1  0  0  0  0
 17 16  1  0  0  0  0
 17 22  1  0  0  0  0
 18 28  1  0  0  0  0
 19 23  1  0  0  0  0
 19 28  1  0  0  0  0
 20 22  1  0  0  0  0
 21 26  1  0  0  0  0
 21 24  2  0  0  0  0
 22 21  1  0  0  0  0
 23 25  1  0  0  0  0
 25 20  1  6  0  0  0
 25 26  1  0  0  0  0
 26 27  1  6  0  0  0
 28 27  1  0  0  0  0
 30 29  1  1  0  0  0
 30  1  1  0  0  0  0
 30 31  1  0  0  0  0
 31 39  1  6  0  0  0
 31 32  1  0  0  0  0
 32 33  2  0  0  0  0
 32 34  1  0  0  0  0
 34 35  1  0  0  0  0
 35 36  1  0  0  0  0
 36 38  1  0  0  0  0
 37 38  1  0  0  0  0
 40 39  1  0  0  0  0
 41 40  1  6  0  0  0
 41 42  1  0  0  0  0
 43 41  1  0  0  0  0
 43 42  1  1  0  0  0
 44 49  1  0  0  0  0
 45 50  1  0  0  0  0
 46 52  1  0  0  0  0
 47 44  1  0  0  0  0
 47 48  2  0  0  0  0
 48 46  1  0  0  0  0
 50 55  1  6  0  0  0
 50 48  1  0  0  0  0
 51 47  1  0  0  0  0
 52 49  1  6  0  0  0
 52 43  1  0  0  0  0
 53 51  1  0  0  0  0
 53 45  1  0  0  0  0
 55 54  1  0  0  0  0
M  END
>  <MODEL>
3

>  <REMARK>
 VINA RESULT:      -6.6      2.733      4.350
  Name = 
  19 active torsions:
  status: ('A' for Active; 'I' for Inactive)
    1  A    between atoms: C_2  and  N_33
    2  A    between atoms: C_2  and  C_54
    3  A    between atoms: C_3  and  C_14
    4  A    between atoms: C_3  and  C_44
    5  A    between atoms: P_4  and  N_15
    6  A    between atoms: P_4  and  C_23
    7  A    between atoms: C_8  and  C_14
    8  A    between atoms: C_9  and  O_32
    9  A    between atoms: C_9  and  C_44
   10  A    between atoms: N_15  and  C_35
   11  A    between atoms: C_24  and  C_40
   12  A    between atoms: C_25  and  C_51
   13  A    between atoms: C_28  and  C_39
   14  A    between atoms: C_30  and  C_40
   15  A    between atoms: C_30  and  C_44
   16  A    between atoms: C_31  and  O_32
   17  A    between atoms: C_31  and  C_49
   18  A    between atoms: C_35  and  C_54
   19  A    between atoms: C_48  and  C_49
                            x       y       z     vdW  Elec       q    Type
                         _______ _______ _______ _____ _____    ______ ____

>  <TORSDO>
F 19

$$$$
=
 OpenBabel11062415123D

 55 60  0  0  1  0  0  0  0  0999 V2000
  183.8000  178.5040  143.9760 C   0  0  0  0  0  2  0  0  0  0  0  0
  183.5380  178.0340  141.5280 C   0  0  1  0  0  3  0  0  0  0  0  0
  183.6500  179.4260  139.5460 O   0  0  0  0  0  1  0  0  0  0  0  0
  181.4250  178.9860  140.3840 C   0  0  2  0  0  0  0  0  0  0  0  0
  183.0460  178.8780  142.7080 C   0  0  1  0  0  3  0  0  0  0  0  0
  182.8710  178.4730  140.2110 C   0  0  2  0  0  3  0  0  0  0  0  0
  181.5350  178.6900  142.9150 C   0  0  0  0  0  2  0  0  0  0  0  0
  184.9320  178.0690  141.4180 O   0  0  0  0  0  1  0  0  0  0  0  0
  181.4150  180.3640  140.5300 F   0  0  0  0  0  0  0  0  0  0  0  0
  180.7740  178.3560  141.6220 C   0  0  0  0  0  2  0  0  0  0  0  0
  180.4580  178.5460  138.9060 P   0  0  1  0  0  0  0  0  0  0  0  0
  179.0980  178.0350  139.3290 O   0  0  0  0  0  1  0  0  0  0  0  0
  180.2600  179.9180  137.9380 O   0  0  0  0  0  0  0  0  0  0  0  0
  181.2980  177.2820  138.0100 N   0  0  0  0  0  2  0  0  0  0  0  0
  181.3360  176.0850  138.8420 C   0  0  0  0  0  2  0  0  0  0  0  0
  180.6080  174.9270  138.1720 C   0  0  0  0  0  2  0  0  0  0  0  0
  180.4670  175.1770  136.6780 C   0  0  0  0  0  2  0  0  0  0  0  0
  184.6280  173.2210  137.8090 C   0  0  0  0  0  1  0  0  0  0  0  0
  183.1760  171.5780  136.9700 C   0  0  0  0  0  2  0  0  0  0  0  0
  180.9250  172.8550  135.6900 C   0  0  0  0  0  2  0  0  0  0  0  0
  182.6170  174.4830  135.4940 C   0  0  0  0  0  0  0  0  0  0  0  0
  181.2930  174.2360  135.9340 N   0  0  0  0  0  0  0  0  0  0  0  0
  182.6350  171.1000  135.7580 O   0  0  0  0  0  0  0  0  0  0  0  0
  183.2040  175.5870  135.6500 O   0  0  0  0  0  0  0  0  0  0  0  0
  182.1580  172.2100  135.0210 C   0  0  2  0  0  3  0  0  0  0  0  0
  183.2290  173.3110  134.8300 C   0  0  2  0  0  3  0  0  0  0  0  0
  184.5770  172.9250  135.4610 C   0  0  0  0  0  2  0  0  0  0  0  0
  184.4740  172.2290  136.7560 N   0  0  0  0  0  0  0  0  0  0  0  0
  185.2010  180.3010  143.2620 O   0  0  0  0  0  1  0  0  0  0  0  0
  184.8380  179.5480  144.3830 C   0  0  2  0  0  3  0  0  0  0  0  0
  186.0700  178.8290  144.9340 C   0  0  1  0  0  3  0  0  0  0  0  0
  185.9900  178.5950  146.4090 C   0  0  0  0  0  0  0  0  0  0  0  0
  185.1640  179.2640  147.0920 O   0  0  0  0  0  0  0  0  0  0  0  0
  186.8090  177.6390  147.0250 O   0  0  0  0  0  0  0  0  0  0  0  0
  188.1050  177.9640  147.5170 C   0  0  0  0  0  2  0  0  0  0  0  0
  189.1630  177.0570  146.9030 C   0  0  0  0  0  2  0  0  0  0  0  0
  191.4120  176.0730  147.2040 C   0  0  0  0  0  1  0  0  0  0  0  0
  190.4870  177.1920  147.6280 C   0  0  0  0  0  2  0  0  0  0  0  0
  186.3550  177.5170  144.1990 C   0  0  0  0  0  2  0  0  0  0  0  0
  187.7360  177.5430  143.5630 C   0  0  0  0  0  2  0  0  0  0  0  0
  188.2490  176.1220  143.3250 C   0  0  2  0  0  3  0  0  0  0  0  0
  189.6710  176.0160  143.8340 C   0  0  0  0  0  2  0  0  0  0  0  0
  189.4190  175.9970  142.3380 C   0  0  2  0  0  3  0  0  0  0  0  0
  191.9810  177.8070  140.3190 C   0  0  0  0  0  2  0  0  0  0  0  0
  190.3100  175.0490  137.5000 C   0  0  0  0  0  2  0  0  0  0  0  0
  189.2010  177.4820  140.3240 C   0  0  0  0  0  2  0  0  0  0  0  0
  191.3420  177.0100  139.2180 C   0  0  0  0  0  0  0  0  0  0  0  0
  190.0050  176.8240  139.2350 C   0  0  0  0  0  0  0  0  0  0  0  0
  191.4150  177.3670  141.6710 C   0  0  0  0  0  2  0  0  0  0  0  0
  189.3090  175.9780  138.1940 C   0  0  1  0  0  3  0  0  0  0  0  0
  192.2170  176.2400  138.2590 C   0  0  0  0  0  2  0  0  0  0  0  0
  189.8680  177.3140  141.7050 C   0  0  2  0  0  3  0  0  0  0  0  0
  191.4790  175.8140  137.0730 N   0  0  0  0  0  2  0  0  0  0  0  0
  187.2620  176.9310  137.3980 O   0  0  0  0  0  1  0  0  0  0  0  0
  188.6360  176.8690  137.1550 C   0  0  0  0  0  2  0  0  0  0  0  0
  1 30  1  0  0  0  0
  2  8  1  6  0  0  0
  2  5  1  0  0  0  0
  4  9  1  1  0  0  0
  4 10  1  0  0  0  0
  5  7  1  0  0  0  0
  5  1  1  1  0  0  0
  6  3  1  1  0  0  0
  6  4  1  0  0  0  0
  6  2  1  0  0  0  0
 10  7  1  0  0  0  0
 11 13  2  6  0  0  0
 11 12  1  0  0  0  0
 11  4  1  0  0  0  0
 14 15  1  0  0  0  0
 14 11  1  0  0  0  0
 16 15  1  0  0  0  0
 17 16  1  0  0  0  0
 20 22  1  0  0  0  0
 21 24  2  0  0  0  0
 21 22  1  0  0  0  0
 22 17  1  0  0  0  0
 23 19  1  0  0  0  0
 25 20  1  1  0  0  0
 25 23  1  0  0  0  0
 26 25  1  0  0  0  0
 26 27  1  1  0  0  0
 26 21  1  0  0  0  0
 27 28  1  0  0  0  0
 28 19  1  0  0  0  0
 28 18  1  0  0  0  0
 30 29  1  6  0  0  0
 30 31  1  0  0  0  0
 31 39  1  6  0  0  0
 31 32  1  0  0  0  0
 32 34  1  0  0  0  0
 32 33  2  0  0  0  0
 34 35  1  0  0  0  0
 36 35  1  0  0  0  0
 36 38  1  0  0  0  0
 37 38  1  0  0  0  0
 40 39  1  0  0  0  0
 41 40  1  6  0  0  0
 41 42  1  0  0  0  0
 43 41  1  0  0  0  0
 43 42  1  1  0  0  0
 44 49  1  0  0  0  0
 45 50  1  0  0  0  0
 47 48  2  0  0  0  0
 47 44  1  0  0  0  0
 48 46  1  0  0  0  0
 49 52  1  0  0  0  0
 50 55  1  6  0  0  0
 50 48  1  0  0  0  0
 51 47  1  0  0  0  0
 52 46  1  6  0  0  0
 52 43  1  0  0  0  0
 53 45  1  0  0  0  0
 53 51  1  0  0  0  0
 55 54  1  0  0  0  0
M  END
>  <MODEL>
4

>  <REMARK>
 VINA RESULT:      -6.4      3.464      7.481
  Name = 
  19 active torsions:
  status: ('A' for Active; 'I' for Inactive)
    1  A    between atoms: C_2  and  N_33
    2  A    between atoms: C_2  and  C_54
    3  A    between atoms: C_3  and  C_14
    4  A    between atoms: C_3  and  C_44
    5  A    between atoms: P_4  and  N_15
    6  A    between atoms: P_4  and  C_23
    7  A    between atoms: C_8  and  C_14
    8  A    between atoms: C_9  and  O_32
    9  A    between atoms: C_9  and  C_44
   10  A    between atoms: N_15  and  C_35
   11  A    between atoms: C_24  and  C_40
   12  A    between atoms: C_25  and  C_51
   13  A    between atoms: C_28  and  C_39
   14  A    between atoms: C_30  and  C_40
   15  A    between atoms: C_30  and  C_44
   16  A    between atoms: C_31  and  O_32
   17  A    between atoms: C_31  and  C_49
   18  A    between atoms: C_35  and  C_54
   19  A    between atoms: C_48  and  C_49
                            x       y       z     vdW  Elec       q    Type
                         _______ _______ _______ _____ _____    ______ ____

>  <TORSDO>
F 19

$$$$
=
 OpenBabel11062415123D

 55 60  0  0  1  0  0  0  0  0999 V2000
  184.9080  178.3170  143.9350 C   0  0  0  0  0  2  0  0  0  0  0  0
  187.0120  176.9790  144.1860 C   0  0  1  0  0  3  0  0  0  0  0  0
  189.2210  177.4980  145.0390 O   0  0  0  0  0  1  0  0  0  0  0  0
  188.9800  177.6100  142.6350 C   0  0  2  0  0  0  0  0  0  0  0  0
  186.3900  178.2470  143.5960 C   0  0  1  0  0  3  0  0  0  0  0  0
  188.5340  176.9430  143.9540 C   0  0  2  0  0  3  0  0  0  0  0  0
  186.5870  178.2890  142.0720 C   0  0  0  0  0  2  0  0  0  0  0  0
  186.7110  176.8440  145.5450 O   0  0  0  0  0  1  0  0  0  0  0  0
  189.3210  178.9360  142.8550 F   0  0  0  0  0  0  0  0  0  0  0  0
  187.8530  177.5590  141.5960 C   0  0  0  0  0  2  0  0  0  0  0  0
  190.4370  176.7300  141.9880 P   0  0  1  0  0  0  0  0  0  0  0  0
  191.6670  177.5920  142.1710 O   0  0  0  0  0  0  0  0  0  0  0  0
  190.6390  175.2830  142.8380 O   0  0  0  0  0  1  0  0  0  0  0  0
  190.2110  176.4040  140.2710 N   0  0  0  0  0  2  0  0  0  0  0  0
  191.2150  177.1590  139.5290 C   0  0  0  0  0  2  0  0  0  0  0  0
  192.4380  176.3020  139.2310 C   0  0  0  0  0  2  0  0  0  0  0  0
  193.1080  176.7570  137.9430 C   0  0  0  0  0  2  0  0  0  0  0  0
  197.2570  174.4930  137.6750 C   0  0  0  0  0  1  0  0  0  0  0  0
  195.5090  172.9360  137.8660 C   0  0  0  0  0  2  0  0  0  0  0  0
  192.9930  174.2600  137.3710 C   0  0  0  0  0  2  0  0  0  0  0  0
  194.5170  175.5910  136.1660 C   0  0  0  0  0  0  0  0  0  0  0  0
  193.4950  175.6010  137.1460 N   0  0  0  0  0  0  0  0  0  0  0  0
  194.4840  172.3330  137.1100 O   0  0  0  0  0  0  0  0  0  0  0  0
  195.1670  176.6180  135.8330 O   0  0  0  0  0  0  0  0  0  0  0  0
  193.7930  173.3520  136.4130 C   0  0  2  0  0  3  0  0  0  0  0  0
  194.7340  174.2520  135.5750 C   0  0  2  0  0  3  0  0  0  0  0  0
  196.2020  173.8060  135.6700 C   0  0  0  0  0  2  0  0  0  0  0  0
  196.6240  173.3630  137.0120 N   0  0  0  0  0  0  0  0  0  0  0  0
  183.5380  180.2720  143.9740 O   0  0  0  0  0  1  0  0  0  0  0  0
  184.1550  179.3600  143.1110 C   0  0  2  0  0  3  0  0  0  0  0  0
  183.0900  178.6510  142.2730 C   0  0  1  0  0  3  0  0  0  0  0  0
  181.7090  178.8440  142.8120 C   0  0  0  0  0  0  0  0  0  0  0  0
  181.4690  178.5270  144.0110 O   0  0  0  0  0  0  0  0  0  0  0  0
  180.6970  179.3800  142.0040 O   0  0  0  0  0  0  0  0  0  0  0  0
  179.8890  180.4700  142.4360 C   0  0  0  0  0  2  0  0  0  0  0  0
  179.1090  181.0640  141.2710 C   0  0  0  0  0  2  0  0  0  0  0  0
  179.0710  181.3350  138.8130 C   0  0  0  0  0  1  0  0  0  0  0  0
  179.9600  181.1280  140.0180 C   0  0  0  0  0  2  0  0  0  0  0  0
  183.1500  179.0520  140.7970 C   0  0  0  0  0  2  0  0  0  0  0  0
  182.4260  178.0340  139.9310 C   0  0  0  0  0  2  0  0  0  0  0  0
  182.2960  178.5420  138.4940 C   0  0  2  0  0  3  0  0  0  0  0  0
  181.7480  177.4310  137.6230 C   0  0  0  0  0  2  0  0  0  0  0  0
  183.1980  177.8490  137.4620 C   0  0  2  0  0  3  0  0  0  0  0  0
  185.3620  174.8790  136.8170 C   0  0  0  0  0  2  0  0  0  0  0  0
  187.4410  178.0380  134.8060 C   0  0  0  0  0  2  0  0  0  0  0  0
  185.5630  177.3390  138.1380 C   0  0  0  0  0  2  0  0  0  0  0  0
  186.2520  175.9420  136.2390 C   0  0  0  0  0  0  0  0  0  0  0  0
  186.3260  177.1400  136.8560 C   0  0  0  0  0  0  0  0  0  0  0  0
  184.0090  175.4880  137.1950 C   0  0  0  0  0  2  0  0  0  0  0  0
  187.1530  178.2740  136.2920 C   0  0  1  0  0  3  0  0  0  0  0  0
  186.8530  175.7400  134.8700 C   0  0  0  0  0  2  0  0  0  0  0  0
  184.1280  176.7800  138.0380 C   0  0  2  0  0  3  0  0  0  0  0  0
  187.9400  176.6790  134.6100 N   0  0  0  0  0  2  0  0  0  0  0  0
  188.7980  179.7440  137.2200 O   0  0  0  0  0  1  0  0  0  0  0  0
  188.4670  178.3970  137.0530 C   0  0  0  0  0  2  0  0  0  0  0  0
  2  8  1  1  0  0  0
  4  9  1  1  0  0  0
  4  6  1  0  0  0  0
  5  1  1  6  0  0  0
  5  2  1  0  0  0  0
  6  2  1  0  0  0  0
  6  3  1  1  0  0  0
  7  5  1  0  0  0  0
 10  7  1  0  0  0  0
 10  4  1  0  0  0  0
 11 12  2  1  0  0  0
 11  4  1  0  0  0  0
 11 13  1  0  0  0  0
 14 11  1  0  0  0  0
 15 14  1  0  0  0  0
 16 15  1  0  0  0  0
 17 16  1  0  0  0  0
 21 22  1  0  0  0  0
 22 20  1  0  0  0  0
 22 17  1  0  0  0  0
 23 19  1  0  0  0  0
 24 21  2  0  0  0  0
 25 23  1  0  0  0  0
 25 20  1  1  0  0  0
 26 27  1  1  0  0  0
 26 21  1  0  0  0  0
 26 25  1  0  0  0  0
 27 28  1  0  0  0  0
 28 18  1  0  0  0  0
 28 19  1  0  0  0  0
 30  1  1  0  0  0  0
 30 29  1  1  0  0  0
 31 39  1  6  0  0  0
 31 32  1  0  0  0  0
 31 30  1  0  0  0  0
 32 33  2  0  0  0  0
 34 35  1  0  0  0  0
 34 32  1  0  0  0  0
 36 35  1  0  0  0  0
 37 38  1  0  0  0  0
 38 36  1  0  0  0  0
 40 39  1  0  0  0  0
 41 40  1  1  0  0  0
 42 41  1  0  0  0  0
 43 42  1  6  0  0  0
 43 52  1  0  0  0  0
 43 41  1  0  0  0  0
 44 49  1  0  0  0  0
 45 50  1  0  0  0  0
 47 44  1  0  0  0  0
 47 48  2  0  0  0  0
 48 46  1  0  0  0  0
 50 48  1  0  0  0  0
 50 55  1  1  0  0  0
 51 47  1  0  0  0  0
 52 49  1  6  0  0  0
 52 46  1  0  0  0  0
 53 45  1  0  0  0  0
 53 51  1  0  0  0  0
 55 54  1  0  0  0  0
M  END
>  <MODEL>
5

>  <REMARK>
 VINA RESULT:      -6.1      2.630      6.712
  Name = 
  19 active torsions:
  status: ('A' for Active; 'I' for Inactive)
    1  A    between atoms: C_2  and  N_33
    2  A    between atoms: C_2  and  C_54
    3  A    between atoms: C_3  and  C_14
    4  A    between atoms: C_3  and  C_44
    5  A    between atoms: P_4  and  N_15
    6  A    between atoms: P_4  and  C_23
    7  A    between atoms: C_8  and  C_14
    8  A    between atoms: C_9  and  O_32
    9  A    between atoms: C_9  and  C_44
   10  A    between atoms: N_15  and  C_35
   11  A    between atoms: C_24  and  C_40
   12  A    between atoms: C_25  and  C_51
   13  A    between atoms: C_28  and  C_39
   14  A    between atoms: C_30  and  C_40
   15  A    between atoms: C_30  and  C_44
   16  A    between atoms: C_31  and  O_32
   17  A    between atoms: C_31  and  C_49
   18  A    between atoms: C_35  and  C_54
   19  A    between atoms: C_48  and  C_49
                            x       y       z     vdW  Elec       q    Type
                         _______ _______ _______ _____ _____    ______ ____

>  <TORSDO>
F 19

$$$$
=
 OpenBabel11062415123D

 55 60  0  0  1  0  0  0  0  0999 V2000
  184.3560  177.8540  142.7340 C   0  0  0  0  0  2  0  0  0  0  0  0
  182.3650  179.2070  142.0350 C   0  0  1  0  0  3  0  0  0  0  0  0
  180.1840  178.6210  141.1510 O   0  0  0  0  0  1  0  0  0  0  0  0
  181.8350  179.2690  139.5070 C   0  0  2  0  0  0  0  0  0  0  0  0
  183.3840  178.1500  141.6010 C   0  0  1  0  0  3  0  0  0  0  0  0
  181.3010  179.4380  140.9460 C   0  0  2  0  0  3  0  0  0  0  0  0
  184.1510  178.6170  140.3530 C   0  0  0  0  0  2  0  0  0  0  0  0
  181.7660  178.8710  143.2540 O   0  0  0  0  0  1  0  0  0  0  0  0
  181.6170  177.9760  139.0580 F   0  0  0  0  0  0  0  0  0  0  0  0
  183.3400  179.5610  139.4510 C   0  0  0  0  0  2  0  0  0  0  0  0
  180.9570  180.4260  138.4080 P   0  0  1  0  0  0  0  0  0  0  0  0
  179.4850  180.4320  138.7590 O   0  0  0  0  0  1  0  0  0  0  0  0
  181.5850  181.9810  138.6160 O   0  0  0  0  0  0  0  0  0  0  0  0
  181.1500  179.9070  136.7360 N   0  0  0  0  0  2  0  0  0  0  0  0
  180.3290  178.7190  136.5300 C   0  0  0  0  0  2  0  0  0  0  0  0
  180.1800  178.4030  135.0480 C   0  0  0  0  0  2  0  0  0  0  0  0
  180.8050  177.0540  134.7240 C   0  0  0  0  0  2  0  0  0  0  0  0
  183.2800  173.0910  135.4890 C   0  0  0  0  0  1  0  0  0  0  0  0
  184.7460  174.8900  135.1300 C   0  0  0  0  0  2  0  0  0  0  0  0
  183.2800  177.3690  135.3200 C   0  0  0  0  0  2  0  0  0  0  0  0
  182.0050  175.9150  136.6660 C   0  0  0  0  0  0  0  0  0  0  0  0
  181.9620  176.8220  135.5780 N   0  0  0  0  0  0  0  0  0  0  0  0
  185.2770  176.0250  135.7770 O   0  0  0  0  0  0  0  0  0  0  0  0
  181.0070  175.2510  137.0530 O   0  0  0  0  0  0  0  0  0  0  0  0
  184.2070  176.7310  136.3760 C   0  0  2  0  0  3  0  0  0  0  0  0
  183.3400  175.8400  137.2990 C   0  0  2  0  0  3  0  0  0  0  0  0
  183.8660  174.3970  137.3740 C   0  0  0  0  0  2  0  0  0  0  0  0
  184.3600  173.8550  136.0960 N   0  0  0  0  0  0  0  0  0  0  0  0
  185.7220  179.6930  142.0630 O   0  0  0  0  0  1  0  0  0  0  0  0
  185.1440  179.0830  143.1810 C   0  0  2  0  0  3  0  0  0  0  0  0
  186.2440  178.6400  144.1460 C   0  0  1  0  0  3  0  0  0  0  0  0
  185.7970  178.6460  145.5730 C   0  0  0  0  0  0  0  0  0  0  0  0
  184.8680  179.4280  145.9210 O   0  0  0  0  0  0  0  0  0  0  0  0
  186.3900  177.7890  146.5090 O   0  0  0  0  0  0  0  0  0  0  0  0
  187.3230  178.2610  147.4750 C   0  0  0  0  0  2  0  0  0  0  0  0
  188.7520  178.1030  146.9730 C   0  0  0  0  0  2  0  0  0  0  0  0
  190.7810  176.7390  147.3450 C   0  0  0  0  0  1  0  0  0  0  0  0
  189.2740  176.7040  147.2350 C   0  0  0  0  0  2  0  0  0  0  0  0
  186.8280  177.2740  143.7740 C   0  0  0  0  0  2  0  0  0  0  0  0
  188.2740  177.4090  143.3250 C   0  0  0  0  0  2  0  0  0  0  0  0
  188.9390  176.0360  143.2230 C   0  0  2  0  0  3  0  0  0  0  0  0
  190.3300  176.1140  143.8150 C   0  0  0  0  0  2  0  0  0  0  0  0
  190.1750  175.9640  142.3140 C   0  0  2  0  0  3  0  0  0  0  0  0
  192.6590  177.8810  140.2960 C   0  0  0  0  0  2  0  0  0  0  0  0
  191.4250  174.7830  137.6080 C   0  0  0  0  0  2  0  0  0  0  0  0
  189.9280  177.2790  140.1870 C   0  0  0  0  0  2  0  0  0  0  0  0
  192.1640  176.9500  139.2260 C   0  0  0  0  0  0  0  0  0  0  0  0
  190.8530  176.6320  139.1910 C   0  0  0  0  0  0  0  0  0  0  0  0
  192.0630  177.4800  141.6470 C   0  0  0  0  0  2  0  0  0  0  0  0
  190.3010  175.6510  138.1810 C   0  0  1  0  0  3  0  0  0  0  0  0
  193.1620  176.2090  138.3710 C   0  0  0  0  0  2  0  0  0  0  0  0
  190.5300  177.2740  141.6080 C   0  0  2  0  0  3  0  0  0  0  0  0
  192.5370  175.6310  137.1850 N   0  0  0  0  0  2  0  0  0  0  0  0
  188.2880  175.9520  136.9220 O   0  0  0  0  0  1  0  0  0  0  0  0
  189.6050  176.3970  137.0480 C   0  0  0  0  0  2  0  0  0  0  0  0
  1 30  1  0  0  0  0
  2  8  1  1  0  0  0
  4  9  1  6  0  0  0
  4  6  1  0  0  0  0
  5  2  1  0  0  0  0
  5  1  1  1  0  0  0
  6  3  1  1  0  0  0
  6  2  1  0  0  0  0
  7  5  1  0  0  0  0
 10  4  1  0  0  0  0
 10  7  1  0  0  0  0
 11 13  2  1  0  0  0
 11 12  1  0  0  0  0
 11  4  1  0  0  0  0
 14 11  1  0  0  0  0
 15 14  1  0  0  0  0
 16 15  1  0  0  0  0
 17 16  1  0  0  0  0
 17 22  1  0  0  0  0
 18 28  1  0  0  0  0
 19 23  1  0  0  0  0
 19 28  1  0  0  0  0
 20 22  1  0  0  0  0
 21 24  2  0  0  0  0
 21 26  1  0  0  0  0
 22 21  1  0  0  0  0
 23 25  1  0  0  0  0
 25 20  1  6  0  0  0
 25 26  1  0  0  0  0
 26 27  1  6  0  0  0
 28 27  1  0  0  0  0
 30 29  1  6  0  0  0
 30 31  1  0  0  0  0
 31 39  1  6  0  0  0
 31 32  1  0  0  0  0
 32 33  2  0  0  0  0
 32 34  1  0  0  0  0
 34 35  1  0  0  0  0
 36 38  1  0  0  0  0
 36 35  1  0  0  0  0
 38 37  1  0  0  0  0
 40 39  1  0  0  0  0
 41 40  1  6  0  0  0
 41 42  1  0  0  0  0
 43 41  1  0  0  0  0
 43 42  1  1  0  0  0
 44 49  1  0  0  0  0
 45 50  1  0  0  0  0
 47 44  1  0  0  0  0
 48 47  2  0  0  0  0
 48 46  1  0  0  0  0
 50 55  1  6  0  0  0
 50 48  1  0  0  0  0
 51 47  1  0  0  0  0
 52 46  1  6  0  0  0
 52 49  1  0  0  0  0
 52 43  1  0  0  0  0
 53 45  1  0  0  0  0
 53 51  1  0  0  0  0
 54 55  1  0  0  0  0
M  END
>  <MODEL>
6

>  <REMARK>
 VINA RESULT:      -6.0      3.215      7.700
  Name = 
  19 active torsions:
  status: ('A' for Active; 'I' for Inactive)
    1  A    between atoms: C_2  and  N_33
    2  A    between atoms: C_2  and  C_54
    3  A    between atoms: C_3  and  C_14
    4  A    between atoms: C_3  and  C_44
    5  A    between atoms: P_4  and  N_15
    6  A    between atoms: P_4  and  C_23
    7  A    between atoms: C_8  and  C_14
    8  A    between atoms: C_9  and  O_32
    9  A    between atoms: C_9  and  C_44
   10  A    between atoms: N_15  and  C_35
   11  A    between atoms: C_24  and  C_40
   12  A    between atoms: C_25  and  C_51
   13  A    between atoms: C_28  and  C_39
   14  A    between atoms: C_30  and  C_40
   15  A    between atoms: C_30  and  C_44
   16  A    between atoms: C_31  and  O_32
   17  A    between atoms: C_31  and  C_49
   18  A    between atoms: C_35  and  C_54
   19  A    between atoms: C_48  and  C_49
                            x       y       z     vdW  Elec       q    Type
                         _______ _______ _______ _____ _____    ______ ____

>  <TORSDO>
F 19

$$$$
=
 OpenBabel11062415123D

 55 60  0  0  1  0  0  0  0  0999 V2000
  186.9320  178.6290  142.8700 C   0  0  0  0  0  2  0  0  0  0  0  0
  188.4400  177.2240  141.4440 C   0  0  1  0  0  3  0  0  0  0  0  0
  190.5590  177.6480  140.3450 O   0  0  0  0  0  1  0  0  0  0  0  0
  188.5980  177.8600  138.9450 C   0  0  2  0  0  0  0  0  0  0  0  0
  187.6480  178.5310  141.5300 C   0  0  1  0  0  3  0  0  0  0  0  0
  189.2650  177.1540  140.1460 C   0  0  2  0  0  3  0  0  0  0  0  0
  186.6330  178.6260  140.3790 C   0  0  0  0  0  2  0  0  0  0  0  0
  189.2580  177.0450  142.5650 O   0  0  0  0  0  1  0  0  0  0  0  0
  189.0510  179.1660  138.8390 F   0  0  0  0  0  0  0  0  0  0  0  0
  187.0730  177.8800  139.1090 C   0  0  0  0  0  2  0  0  0  0  0  0
  189.0270  176.9660  137.4180 P   0  0  1  0  0  0  0  0  0  0  0  0
  187.8420  176.1380  136.9710 O   0  0  0  0  0  1  0  0  0  0  0  0
  189.4160  178.0800  136.2080 O   0  0  0  0  0  0  0  0  0  0  0  0
  190.3940  175.8980  137.7280 N   0  0  0  0  0  2  0  0  0  0  0  0
  191.1050  175.6930  136.4700 C   0  0  0  0  0  2  0  0  0  0  0  0
  191.5400  174.2420  136.3150 C   0  0  0  0  0  2  0  0  0  0  0  0
  192.9420  174.1660  135.7290 C   0  0  0  0  0  2  0  0  0  0  0  0
  197.5470  173.1070  135.4290 C   0  0  0  0  0  1  0  0  0  0  0  0
  197.2070  174.7220  137.1000 C   0  0  0  0  0  2  0  0  0  0  0  0
  194.3920  174.8730  137.7220 C   0  0  0  0  0  2  0  0  0  0  0  0
  194.6230  172.6680  136.9280 C   0  0  0  0  0  0  0  0  0  0  0  0
  193.9090  173.8820  136.7810 N   0  0  0  0  0  0  0  0  0  0  0  0
  196.7400  174.8560  138.4240 O   0  0  0  0  0  0  0  0  0  0  0  0
  194.4440  171.6650  136.1850 O   0  0  0  0  0  0  0  0  0  0  0  0
  195.5070  174.1710  138.5270 C   0  0  2  0  0  3  0  0  0  0  0  0
  195.5910  172.7020  138.0460 C   0  0  2  0  0  3  0  0  0  0  0  0
  197.0110  172.3190  137.5960 C   0  0  0  0  0  2  0  0  0  0  0  0
  197.7240  173.3710  136.8490 N   0  0  0  0  0  0  0  0  0  0  0  0
  185.3300  180.3840  143.1010 O   0  0  0  0  0  1  0  0  0  0  0  0
  185.4670  179.0410  142.7360 C   0  0  2  0  0  3  0  0  0  0  0  0
  184.6230  178.1710  143.6680 C   0  0  1  0  0  3  0  0  0  0  0  0
  184.5570  178.7120  145.0600 C   0  0  0  0  0  0  0  0  0  0  0  0
  183.5400  179.3740  145.4130 O   0  0  0  0  0  0  0  0  0  0  0  0
  185.6000  178.4780  145.9660 O   0  0  0  0  0  0  0  0  0  0  0  0
  186.3970  177.3000  145.9070 C   0  0  0  0  0  2  0  0  0  0  0  0
  187.8360  177.5960  146.3090 C   0  0  0  0  0  2  0  0  0  0  0  0
  188.9110  178.2550  148.4370 C   0  0  0  0  0  1  0  0  0  0  0  0
  188.0990  177.1840  147.7440 C   0  0  0  0  0  2  0  0  0  0  0  0
  183.2150  177.9290  143.1200 C   0  0  0  0  0  2  0  0  0  0  0  0
  182.9420  178.8200  141.9180 C   0  0  0  0  0  2  0  0  0  0  0  0
  181.4570  179.1740  141.8330 C   0  0  2  0  0  3  0  0  0  0  0  0
  180.7540  178.1540  140.9630 C   0  0  0  0  0  2  0  0  0  0  0  0
  180.9480  179.5630  140.4370 C   0  0  2  0  0  3  0  0  0  0  0  0
  181.8070  178.9560  136.8570 C   0  0  0  0  0  2  0  0  0  0  0  0
  179.1090  182.2760  136.6480 C   0  0  0  0  0  2  0  0  0  0  0  0
  182.1250  180.9990  138.7440 C   0  0  0  0  0  2  0  0  0  0  0  0
  181.0190  180.2240  136.6920 C   0  0  0  0  0  0  0  0  0  0  0  0
  181.1460  181.1980  137.6180 C   0  0  0  0  0  0  0  0  0  0  0  0
  181.7140  178.4750  138.3070 C   0  0  0  0  0  2  0  0  0  0  0  0
  180.3340  182.4720  137.5460 C   0  0  1  0  0  3  0  0  0  0  0  0
  179.9360  180.2920  135.6440 C   0  0  0  0  0  2  0  0  0  0  0  0
  182.0190  179.5820  139.3450 C   0  0  2  0  0  3  0  0  0  0  0  0
  179.5160  181.6650  135.3840 N   0  0  0  0  0  2  0  0  0  0  0  0
  180.7060  184.8350  137.4730 O   0  0  0  0  0  1  0  0  0  0  0  0
  181.1880  183.6120  137.0030 C   0  0  0  0  0  2  0  0  0  0  0  0
  2  5  1  0  0  0  0
  2  8  1  1  0  0  0
  4  9  1  6  0  0  0
  4 10  1  0  0  0  0
  4  6  1  0  0  0  0
  5  1  1  1  0  0  0
  6  3  1  1  0  0  0
  6  2  1  0  0  0  0
  7  5  1  0  0  0  0
 10  7  1  0  0  0  0
 11 13  2  6  0  0  0
 11 14  1  0  0  0  0
 11  4  1  0  0  0  0
 12 11  1  0  0  0  0
 15 14  1  0  0  0  0
 16 15  1  0  0  0  0
 17 16  1  0  0  0  0
 17 22  1  0  0  0  0
 18 28  1  0  0  0  0
 19 23  1  0  0  0  0
 21 26  1  0  0  0  0
 22 21  1  0  0  0  0
 22 20  1  0  0  0  0
 23 25  1  0  0  0  0
 24 21  2  0  0  0  0
 25 20  1  6  0  0  0
 26 27  1  6  0  0  0
 26 25  1  0  0  0  0
 28 19  1  0  0  0  0
 28 27  1  0  0  0  0
 30  1  1  0  0  0  0
 30 29  1  1  0  0  0
 30 31  1  0  0  0  0
 31 39  1  6  0  0  0
 31 32  1  0  0  0  0
 32 33  2  0  0  0  0
 32 34  1  0  0  0  0
 35 34  1  0  0  0  0
 35 36  1  0  0  0  0
 36 38  1  0  0  0  0
 38 37  1  0  0  0  0
 40 39  1  0  0  0  0
 41 40  1  6  0  0  0
 42 41  1  0  0  0  0
 43 42  1  6  0  0  0
 43 41  1  0  0  0  0
 44 49  1  0  0  0  0
 45 50  1  0  0  0  0
 46 52  1  0  0  0  0
 47 44  1  0  0  0  0
 47 48  2  0  0  0  0
 48 46  1  0  0  0  0
 50 55  1  6  0  0  0
 50 48  1  0  0  0  0
 51 47  1  0  0  0  0
 52 49  1  6  0  0  0
 52 43  1  0  0  0  0
 53 51  1  0  0  0  0
 53 45  1  0  0  0  0
 55 54  1  0  0  0  0
M  END
>  <MODEL>
7

>  <REMARK>
 VINA RESULT:      -5.8      2.684      4.140
  Name = 
  19 active torsions:
  status: ('A' for Active; 'I' for Inactive)
    1  A    between atoms: C_2  and  N_33
    2  A    between atoms: C_2  and  C_54
    3  A    between atoms: C_3  and  C_14
    4  A    between atoms: C_3  and  C_44
    5  A    between atoms: P_4  and  N_15
    6  A    between atoms: P_4  and  C_23
    7  A    between atoms: C_8  and  C_14
    8  A    between atoms: C_9  and  O_32
    9  A    between atoms: C_9  and  C_44
   10  A    between atoms: N_15  and  C_35
   11  A    between atoms: C_24  and  C_40
   12  A    between atoms: C_25  and  C_51
   13  A    between atoms: C_28  and  C_39
   14  A    between atoms: C_30  and  C_40
   15  A    between atoms: C_30  and  C_44
   16  A    between atoms: C_31  and  O_32
   17  A    between atoms: C_31  and  C_49
   18  A    between atoms: C_35  and  C_54
   19  A    between atoms: C_48  and  C_49
                            x       y       z     vdW  Elec       q    Type
                         _______ _______ _______ _____ _____    ______ ____

>  <TORSDO>
F 19

$$$$
=
 OpenBabel11062415123D

 55 60  0  0  1  0  0  0  0  0999 V2000
  185.3480  178.0600  144.6020 C   0  0  0  0  0  2  0  0  0  0  0  0
  187.7150  177.3700  145.0550 C   0  0  1  0  0  3  0  0  0  0  0  0
  189.7710  178.6090  145.3970 O   0  0  0  0  0  1  0  0  0  0  0  0
  189.4230  177.7680  143.1570 C   0  0  2  0  0  0  0  0  0  0  0  0
  186.7920  178.1730  144.1340 C   0  0  1  0  0  3  0  0  0  0  0  0
  189.1930  177.5630  144.6700 C   0  0  2  0  0  3  0  0  0  0  0  0
  186.9180  177.6840  142.6820 C   0  0  0  0  0  2  0  0  0  0  0  0
  187.5040  177.6930  146.4000 O   0  0  0  0  0  1  0  0  0  0  0  0
  189.4520  179.1190  142.8510 F   0  0  0  0  0  0  0  0  0  0  0  0
  188.3020  177.1050  142.3460 C   0  0  0  0  0  2  0  0  0  0  0  0
  191.0200  177.0280  142.6920 P   0  0  1  0  0  0  0  0  0  0  0  0
  192.1340  178.0060  142.9950 O   0  0  0  0  0  0  0  0  0  0  0  0
  191.2630  175.6140  143.5880 O   0  0  0  0  0  1  0  0  0  0  0  0
  191.0200  176.6660  140.9680 N   0  0  0  0  0  2  0  0  0  0  0  0
  192.0270  177.5050  140.3280 C   0  0  0  0  0  2  0  0  0  0  0  0
  192.9280  176.6840  139.4150 C   0  0  0  0  0  2  0  0  0  0  0  0
  192.4230  176.7350  137.9800 C   0  0  0  0  0  2  0  0  0  0  0  0
  196.7240  174.7740  138.2280 C   0  0  0  0  0  1  0  0  0  0  0  0
  195.0870  173.0940  138.1160 C   0  0  0  0  0  2  0  0  0  0  0  0
  192.5730  174.2630  137.3140 C   0  0  0  0  0  2  0  0  0  0  0  0
  194.1480  175.7470  136.3830 C   0  0  0  0  0  0  0  0  0  0  0  0
  193.0010  175.6450  137.2070 N   0  0  0  0  0  0  0  0  0  0  0  0
  194.2240  172.4560  137.2030 O   0  0  0  0  0  0  0  0  0  0  0  0
  194.7600  176.8300  136.1800 O   0  0  0  0  0  0  0  0  0  0  0  0
  193.5640  173.4550  136.4490 C   0  0  2  0  0  3  0  0  0  0  0  0
  194.5430  174.4530  135.7840 C   0  0  2  0  0  3  0  0  0  0  0  0
  196.0120  174.1050  136.0720 C   0  0  0  0  0  2  0  0  0  0  0  0
  196.2750  173.6330  137.4440 N   0  0  0  0  0  0  0  0  0  0  0  0
  183.7670  179.7550  145.1740 O   0  0  0  0  0  1  0  0  0  0  0  0
  184.4650  179.1990  144.0970 C   0  0  2  0  0  3  0  0  0  0  0  0
  183.4710  178.6380  143.0790 C   0  0  1  0  0  3  0  0  0  0  0  0
  182.0490  178.9200  143.4460 C   0  0  0  0  0  0  0  0  0  0  0  0
  181.5110  178.2530  144.3750 O   0  0  0  0  0  0  0  0  0  0  0  0
  181.3260  179.9180  142.7800 O   0  0  0  0  0  0  0  0  0  0  0  0
  179.9420  180.1390  143.0320 C   0  0  0  0  0  2  0  0  0  0  0  0
  179.0810  179.2120  142.1840 C   0  0  0  0  0  2  0  0  0  0  0  0
  179.6730  180.3510  140.0700 C   0  0  0  0  0  1  0  0  0  0  0  0
  179.6720  179.0270  140.8010 C   0  0  0  0  0  2  0  0  0  0  0  0
  183.7620  179.1190  141.6560 C   0  0  0  0  0  2  0  0  0  0  0  0
  184.1340  177.9510  140.7560 C   0  0  0  0  0  2  0  0  0  0  0  0
  184.1280  178.3760  139.2870 C   0  0  2  0  0  3  0  0  0  0  0  0
  182.7020  178.6530  138.8570 C   0  0  0  0  0  2  0  0  0  0  0  0
  183.4080  177.4200  138.3240 C   0  0  2  0  0  3  0  0  0  0  0  0
  180.6100  174.9610  138.5200 C   0  0  0  0  0  2  0  0  0  0  0  0
  182.2140  174.2810  134.6070 C   0  0  0  0  0  2  0  0  0  0  0  0
  183.3950  174.9090  138.2580 C   0  0  0  0  0  2  0  0  0  0  0  0
  181.2070  174.5260  137.2120 C   0  0  0  0  0  0  0  0  0  0  0  0
  182.5490  174.5310  137.0720 C   0  0  0  0  0  0  0  0  0  0  0  0
  181.2980  176.2410  139.0010 C   0  0  0  0  0  2  0  0  0  0  0  0
  183.2110  174.1660  135.7630 C   0  0  1  0  0  3  0  0  0  0  0  0
  180.3060  174.3240  136.0180 C   0  0  0  0  0  2  0  0  0  0  0  0
  182.8430  176.1580  138.9750 C   0  0  2  0  0  3  0  0  0  0  0  0
  180.9760  173.5850  134.9520 N   0  0  0  0  0  2  0  0  0  0  0  0
  185.1520  172.7650  135.8110 O   0  0  0  0  0  1  0  0  0  0  0  0
  183.7560  172.7430  135.8260 C   0  0  0  0  0  2  0  0  0  0  0  0
  2  8  1  1  0  0  0
  4  9  1  6  0  0  0
  4  6  1  0  0  0  0
  5  1  1  1  0  0  0
  5  2  1  0  0  0  0
  6  2  1  0  0  0  0
  6  3  1  1  0  0  0
  7  5  1  0  0  0  0
 10  7  1  0  0  0  0
 10  4  1  0  0  0  0
 11 12  2  1  0  0  0
 11  4  1  0  0  0  0
 11 13  1  0  0  0  0
 14 11  1  0  0  0  0
 15 14  1  0  0  0  0
 16 15  1  0  0  0  0
 17 16  1  0  0  0  0
 21 22  1  0  0  0  0
 22 20  1  0  0  0  0
 22 17  1  0  0  0  0
 23 19  1  0  0  0  0
 24 21  2  0  0  0  0
 25 23  1  0  0  0  0
 25 20  1  1  0  0  0
 26 27  1  1  0  0  0
 26 21  1  0  0  0  0
 26 25  1  0  0  0  0
 27 28  1  0  0  0  0
 28 19  1  0  0  0  0
 28 18  1  0  0  0  0
 30  1  1  0  0  0  0
 30 29  1  1  0  0  0
 31 39  1  6  0  0  0
 31 32  1  0  0  0  0
 31 30  1  0  0  0  0
 32 33  2  0  0  0  0
 34 35  1  0  0  0  0
 34 32  1  0  0  0  0
 36 35  1  0  0  0  0
 37 38  1  0  0  0  0
 38 36  1  0  0  0  0
 40 39  1  0  0  0  0
 41 40  1  1  0  0  0
 42 41  1  0  0  0  0
 43 42  1  1  0  0  0
 43 52  1  0  0  0  0
 43 41  1  0  0  0  0
 44 49  1  0  0  0  0
 45 53  1  0  0  0  0
 45 50  1  0  0  0  0
 47 44  1  0  0  0  0
 48 47  2  0  0  0  0
 48 46  1  0  0  0  0
 50 55  1  1  0  0  0
 50 48  1  0  0  0  0
 51 47  1  0  0  0  0
 52 46  1  6  0  0  0
 52 49  1  0  0  0  0
 53 51  1  0  0  0  0
 54 55  1  0  0  0  0
M  END
>  <MODEL>
8

>  <REMARK>
 VINA RESULT:      -5.7      3.204      6.338
  Name = 
  19 active torsions:
  status: ('A' for Active; 'I' for Inactive)
    1  A    between atoms: C_2  and  N_33
    2  A    between atoms: C_2  and  C_54
    3  A    between atoms: C_3  and  C_14
    4  A    between atoms: C_3  and  C_44
    5  A    between atoms: P_4  and  N_15
    6  A    between atoms: P_4  and  C_23
    7  A    between atoms: C_8  and  C_14
    8  A    between atoms: C_9  and  O_32
    9  A    between atoms: C_9  and  C_44
   10  A    between atoms: N_15  and  C_35
   11  A    between atoms: C_24  and  C_40
   12  A    between atoms: C_25  and  C_51
   13  A    between atoms: C_28  and  C_39
   14  A    between atoms: C_30  and  C_40
   15  A    between atoms: C_30  and  C_44
   16  A    between atoms: C_31  and  O_32
   17  A    between atoms: C_31  and  C_49
   18  A    between atoms: C_35  and  C_54
   19  A    between atoms: C_48  and  C_49
                            x       y       z     vdW  Elec       q    Type
                         _______ _______ _______ _____ _____    ______ ____

>  <TORSDO>
F 19

$$$$
=
 OpenBabel11062415123D

 55 60  0  0  1  0  0  0  0  0999 V2000
  189.1220  176.8550  144.0650 C   0  0  0  0  0  2  0  0  0  0  0  0
  189.9370  176.3630  141.7470 C   0  0  1  0  0  3  0  0  0  0  0  0
  191.3820  177.5530  140.2050 O   0  0  0  0  0  1  0  0  0  0  0  0
  189.0090  177.8540  139.8510 C   0  0  2  0  0  0  0  0  0  0  0  0
  189.2110  177.3750  142.6380 C   0  0  1  0  0  3  0  0  0  0  0  0
  190.1420  176.9170  140.3240 C   0  0  2  0  0  3  0  0  0  0  0  0
  187.8050  177.6670  142.0910 C   0  0  0  0  0  2  0  0  0  0  0  0
  191.1560  175.9670  142.3080 O   0  0  0  0  0  1  0  0  0  0  0  0
  189.3310  179.1750  140.1160 F   0  0  0  0  0  0  0  0  0  0  0  0
  187.6940  177.5160  140.5650 C   0  0  0  0  0  2  0  0  0  0  0  0
  188.7860  177.6540  138.0540 P   0  0  1  0  0  0  0  0  0  0  0  0
  188.3080  178.9610  137.4590 O   0  0  0  0  0  1  0  0  0  0  0  0
  190.2640  177.2300  137.3520 O   0  0  0  0  0  0  0  0  0  0  0  0
  187.5830  176.4050  137.7480 N   0  0  0  0  0  2  0  0  0  0  0  0
  188.0030  175.6480  136.5730 C   0  0  0  0  0  2  0  0  0  0  0  0
  186.9080  175.6220  135.5150 C   0  0  0  0  0  2  0  0  0  0  0  0
  185.5360  175.7350  136.1640 C   0  0  0  0  0  2  0  0  0  0  0  0
  181.3140  174.4190  137.8550 C   0  0  0  0  0  1  0  0  0  0  0  0
  181.4120  174.0080  135.5450 C   0  0  0  0  0  2  0  0  0  0  0  0
  184.1530  174.1880  134.6580 C   0  0  0  0  0  2  0  0  0  0  0  0
  184.3860  173.5890  136.9240 C   0  0  0  0  0  0  0  0  0  0  0  0
  184.7700  174.5200  135.9270 N   0  0  0  0  0  0  0  0  0  0  0  0
  181.9550  173.1050  134.6080 O   0  0  0  0  0  0  0  0  0  0  0  0
  184.7300  173.6880  138.1320 O   0  0  0  0  0  0  0  0  0  0  0  0
  183.3210  172.9150  134.9220 C   0  0  2  0  0  3  0  0  0  0  0  0
  183.5470  172.4920  136.3930 C   0  0  2  0  0  3  0  0  0  0  0  0
  182.2260  172.3460  137.1660 C   0  0  0  0  0  2  0  0  0  0  0  0
  181.2140  173.3700  136.8510 N   0  0  0  0  0  0  0  0  0  0  0  0
  189.6100  178.7000  145.4990 O   0  0  0  0  0  1  0  0  0  0  0  0
  188.5670  177.8870  145.0440 C   0  0  2  0  0  3  0  0  0  0  0  0
  187.9370  177.1550  146.2290 C   0  0  1  0  0  3  0  0  0  0  0  0
  188.4850  177.6070  147.5440 C   0  0  0  0  0  0  0  0  0  0  0  0
  187.8200  178.4290  148.2360 O   0  0  0  0  0  0  0  0  0  0  0  0
  189.7130  177.1180  148.0110 O   0  0  0  0  0  0  0  0  0  0  0  0
  190.9240  177.3160  147.2900 C   0  0  0  0  0  2  0  0  0  0  0  0
  192.0390  176.4420  147.8490 C   0  0  0  0  0  2  0  0  0  0  0  0
  192.0520  175.0750  145.7880 C   0  0  0  0  0  1  0  0  0  0  0  0
  191.9600  175.0330  147.2960 C   0  0  0  0  0  2  0  0  0  0  0  0
  186.4090  177.2490  146.2250 C   0  0  0  0  0  2  0  0  0  0  0  0
  185.8860  177.4860  144.8170 C   0  0  0  0  0  2  0  0  0  0  0  0
  185.7990  178.9830  144.5180 C   0  0  2  0  0  3  0  0  0  0  0  0
  184.5280  179.5370  145.1270 C   0  0  0  0  0  2  0  0  0  0  0  0
  184.6290  179.4110  143.6180 C   0  0  2  0  0  3  0  0  0  0  0  0
  181.4340  178.3660  142.0010 C   0  0  0  0  0  2  0  0  0  0  0  0
  183.4700  180.4410  138.8550 C   0  0  0  0  0  2  0  0  0  0  0  0
  184.1700  177.8710  141.6880 C   0  0  0  0  0  2  0  0  0  0  0  0
  182.1360  178.9130  140.7900 C   0  0  0  0  0  0  0  0  0  0  0  0
  183.4620  178.7030  140.6530 C   0  0  0  0  0  0  0  0  0  0  0  0
  182.2610  178.6610  143.2540 C   0  0  0  0  0  2  0  0  0  0  0  0
  184.2410  179.2810  139.4920 C   0  0  1  0  0  3  0  0  0  0  0  0
  181.4080  179.8760  139.8850 C   0  0  0  0  0  2  0  0  0  0  0  0
  183.7500  178.2640  143.1190 C   0  0  2  0  0  3  0  0  0  0  0  0
  182.0880  180.0360  138.6030 N   0  0  0  0  0  2  0  0  0  0  0  0
  183.4380  177.2990  138.4170 O   0  0  0  0  0  1  0  0  0  0  0  0
  184.5010  178.2040  138.4450 C   0  0  0  0  0  2  0  0  0  0  0  0
  1 30  1  0  0  0  0
  2  8  1  1  0  0  0
  2  5  1  0  0  0  0
  4  9  1  1  0  0  0
  4  6  1  0  0  0  0
  4 10  1  0  0  0  0
  5  1  1  1  0  0  0
  6  3  1  1  0  0  0
  6  2  1  0  0  0  0
  7  5  1  0  0  0  0
 10  7  1  0  0  0  0
 11 13  2  6  0  0  0
 11  4  1  0  0  0  0
 12 11  1  0  0  0  0
 14 11  1  0  0  0  0
 15 14  1  0  0  0  0
 16 17  1  0  0  0  0
 16 15  1  0  0  0  0
 19 28  1  0  0  0  0
 20 22  1  0  0  0  0
 21 24  2  0  0  0  0
 22 17  1  0  0  0  0
 22 21  1  0  0  0  0
 23 25  1  0  0  0  0
 23 19  1  0  0  0  0
 25 20  1  1  0  0  0
 25 26  1  0  0  0  0
 26 21  1  0  0  0  0
 26 27  1  1  0  0  0
 28 27  1  0  0  0  0
 28 18  1  0  0  0  0
 30 29  1  1  0  0  0
 30 31  1  0  0  0  0
 31 39  1  1  0  0  0
 31 32  1  0  0  0  0
 32 34  1  0  0  0  0
 32 33  2  0  0  0  0
 35 36  1  0  0  0  0
 35 34  1  0  0  0  0
 37 38  1  0  0  0  0
 38 36  1  0  0  0  0
 40 39  1  0  0  0  0
 41 40  1  1  0  0  0
 41 42  1  0  0  0  0
 43 41  1  0  0  0  0
 43 42  1  1  0  0  0
 44 49  1  0  0  0  0
 45 50  1  0  0  0  0
 47 44  1  0  0  0  0
 48 47  2  0  0  0  0
 48 46  1  0  0  0  0
 50 55  1  6  0  0  0
 50 48  1  0  0  0  0
 51 47  1  0  0  0  0
 52 46  1  6  0  0  0
 52 49  1  0  0  0  0
 52 43  1  0  0  0  0
 53 45  1  0  0  0  0
 53 51  1  0  0  0  0
 54 55  1  0  0  0  0
M  END
>  <MODEL>
9

>  <REMARK>
 VINA RESULT:      -5.7      2.372      4.461
  Name = 
  19 active torsions:
  status: ('A' for Active; 'I' for Inactive)
    1  A    between atoms: C_2  and  N_33
    2  A    between atoms: C_2  and  C_54
    3  A    between atoms: C_3  and  C_14
    4  A    between atoms: C_3  and  C_44
    5  A    between atoms: P_4  and  N_15
    6  A    between atoms: P_4  and  C_23
    7  A    between atoms: C_8  and  C_14
    8  A    between atoms: C_9  and  O_32
    9  A    between atoms: C_9  and  C_44
   10  A    between atoms: N_15  and  C_35
   11  A    between atoms: C_24  and  C_40
   12  A    between atoms: C_25  and  C_51
   13  A    between atoms: C_28  and  C_39
   14  A    between atoms: C_30  and  C_40
   15  A    between atoms: C_30  and  C_44
   16  A    between atoms: C_31  and  O_32
   17  A    between atoms: C_31  and  C_49
   18  A    between atoms: C_35  and  C_54
   19  A    between atoms: C_48  and  C_49
                            x       y       z     vdW  Elec       q    Type
                         _______ _______ _______ _____ _____    ______ ____

>  <TORSDO>
F 19

$$$$
