=
 OpenBabel11062415493D

 44 49  0  0  1  0  0  0  0  0999 V2000
  182.2250  178.2680  141.0960 C   0  0  0  0  0  2  0  0  0  0  0  0
  180.6990  178.3130  141.1670 C   0  0  1  0  0  3  0  0  0  0  0  0
  182.2090  179.1200  143.4740 C   0  0  0  0  0  0  0  0  0  0  0  0
  180.9100  179.6610  143.2130 N   0  0  0  0  0  2  0  0  0  0  0  0
  182.8410  178.1620  142.4940 C   0  0  2  0  0  3  0  0  0  0  0  0
  180.3000  179.5990  141.8890 C   0  0  0  0  0  2  0  0  0  0  0  0
  182.7710  179.3660  144.5740 O   0  0  0  0  0  0  0  0  0  0  0  0
  188.7360  175.6250  142.9940 O   0  0  0  0  0  1  0  0  0  0  0  0
  188.2850  177.3540  145.4240 C   0  0  1  0  0  3  0  0  0  0  0  0
  188.6970  178.6310  141.0900 C   0  0  1  0  0  3  0  0  0  0  0  0
  186.3900  177.9240  143.8280 C   0  0  0  0  0  0  0  0  0  0  0  0
  187.3060  178.4200  141.5570 C   0  0  0  0  0  0  0  0  0  0  0  0
  186.9180  178.0080  145.2280 C   0  0  0  0  0  2  0  0  0  0  0  0
  189.2390  177.6330  144.2540 C   0  0  2  0  0  3  0  0  0  0  0  0
  185.1050  178.2510  143.6830 C   0  0  0  0  0  3  0  0  0  0  0  0
  189.4840  177.5160  141.7520 C   0  0  0  0  0  2  0  0  0  0  0  0
  186.2550  178.9170  140.9040 C   0  0  0  0  0  3  0  0  0  0  0  0
  184.3300  178.3170  142.4240 C   0  0  0  0  0  0  0  0  0  0  0  0
  187.2150  177.4280  142.6580 C   0  0  1  0  0  3  0  0  0  0  0  0
  184.8430  178.6650  141.2360 C   0  0  0  0  0  3  0  0  0  0  0  0
  188.6730  177.0180  142.9490 C   0  0  1  0  0  0  0  0  0  0  0  0
  188.7840  178.4870  139.7040 O   0  0  0  0  0  1  0  0  0  0  0  0
  188.8340  177.6290  146.6990 O   0  0  0  0  0  0  0  0  0  0  0  0
  187.7960  177.9490  147.5910 C   0  0  0  0  0  1  0  0  0  0  0  0
  190.7650  176.5650  145.8170 O   0  0  0  0  0  1  0  0  0  0  0  0
  190.6950  177.2510  144.6020 C   0  0  2  0  0  3  0  0  0  0  0  0
  191.0500  179.5410  144.0190 O   0  0  0  0  0  1  0  0  0  0  0  0
  191.6630  178.4260  144.5900 C   0  0  0  0  0  2  0  0  0  0  0  0
  180.0840  178.3010  139.7630 C   0  0  2  0  0  3  0  0  0  0  0  0
  179.0400  173.4630  136.7510 C   0  0  0  0  0  3  0  0  0  0  0  0
  179.2290  173.7670  141.8140 S   0  0  0  0  0  0  0  0  0  0  0  0
  179.1490  173.8700  139.1810 N   0  0  0  0  0  2  0  0  0  0  0  0
  179.4020  174.5760  140.4060 C   0  0  0  0  0  0  0  0  0  0  0  0
  179.7740  176.8700  139.3160 C   0  0  1  0  0  3  0  0  0  0  0  0
  179.4430  173.9480  135.5080 C   0  0  0  0  0  3  0  0  0  0  0  0
  180.8180  176.3840  138.3350 C   0  0  0  0  0  2  0  0  0  0  0  0
  179.4610  174.2470  137.8340 C   0  0  0  0  0  0  0  0  0  0  0  0
  180.3320  175.3510  135.7850 S   0  0  0  0  0  0  0  0  0  0  0  0
  179.7110  175.9730  140.4590 N   0  0  0  0  0  2  0  0  0  0  0  0
  180.2080  175.3560  137.4530 C   0  0  0  0  0  0  0  0  0  0  0  0
  180.9630  178.9600  138.7980 N   0  0  0  0  0  2  0  0  0  0  0  0
  180.8240  181.3770  138.6590 C   0  0  0  0  0  1  0  0  0  0  0  0
  180.2170  180.0620  138.2120 C   0  0  0  0  0  3  0  0  0  0  0  0
  180.2750  179.9740  136.6980 C   0  0  0  0  0  1  0  0  0  0  0  0
  1  2  1  0  0  0  0
  1  5  1  0  0  0  0
  2 29  1  6  0  0  0
  2  6  1  0  0  0  0
  3  7  2  0  0  0  0
  4  3  1  0  0  0  0
  5 18  1  6  0  0  0
  5  3  1  0  0  0  0
  6  4  1  0  0  0  0
  9 23  1  1  0  0  0
 10 22  1  6  0  0  0
 10 12  1  0  0  0  0
 10 16  1  0  0  0  0
 11 13  1  0  0  0  0
 13  9  1  0  0  0  0
 14 26  1  1  0  0  0
 14  9  1  0  0  0  0
 15 11  2  0  0  0  0
 16 21  1  0  0  0  0
 17 20  1  0  0  0  0
 17 12  2  0  0  0  0
 18 15  1  0  0  0  0
 19 12  1  6  0  0  0
 19 21  1  0  0  0  0
 19 11  1  0  0  0  0
 20 18  2  0  0  0  0
 21  8  1  1  0  0  0
 21 14  1  0  0  0  0
 23 24  1  0  0  0  0
 26 25  1  1  0  0  0
 27 28  1  0  0  0  0
 28 26  1  0  0  0  0
 29 41  1  6  0  0  0
 30 37  1  0  0  0  0
 32 33  1  0  0  0  0
 33 39  1  0  0  0  0
 33 31  2  0  0  0  0
 34 29  1  1  0  0  0
 34 39  1  0  0  0  0
 35 38  1  0  0  0  0
 35 30  2  0  0  0  0
 36 34  1  0  0  0  0
 37 32  1  0  0  0  0
 38 40  1  0  0  0  0
 40 37  2  0  0  0  0
 40 36  1  0  0  0  0
 43 42  1  0  0  0  0
 43 41  1  0  0  0  0
 44 43  1  0  0  0  0
M  END
>  <MODEL>
1

>  <REMARK>
 VINA RESULT:      -9.2      0.000      0.000
  Name = 
  8 active torsions:
  status: ('A' for Active; 'I' for Inactive)
    1  A    between atoms: C_3  and  O_10
    2  A    between atoms: C_9  and  C_38
    3  A    between atoms: C_11  and  C_38
    4  A    between atoms: C_20  and  C_34
    5  A    between atoms: C_22  and  C_32
    6  A    between atoms: C_23  and  C_32
    7  A    between atoms: C_28  and  N_37
    8  A    between atoms: N_37  and  C_38
                            x       y       z     vdW  Elec       q    Type
                         _______ _______ _______ _____ _____    ______ ____

>  <TORSDO>
F 8

$$$$
=
 OpenBabel11062415493D

 44 49  0  0  1  0  0  0  0  0999 V2000
  188.8360  176.1070  138.0460 C   0  0  0  0  0  2  0  0  0  0  0  0
  188.8940  175.8730  136.5370 C   0  0  1  0  0  3  0  0  0  0  0  0
  188.9900  178.5720  137.5150 C   0  0  0  0  0  0  0  0  0  0  0  0
  189.6120  178.2110  136.2790 N   0  0  0  0  0  2  0  0  0  0  0  0
  188.3300  177.5160  138.3680 C   0  0  2  0  0  3  0  0  0  0  0  0
  189.9360  176.8250  135.9530 C   0  0  0  0  0  2  0  0  0  0  0  0
  188.9070  179.7880  137.8330 O   0  0  0  0  0  0  0  0  0  0  0  0
  186.9280  176.0490  144.4770 O   0  0  0  0  0  1  0  0  0  0  0  0
  185.3510  178.5160  143.7530 C   0  0  1  0  0  3  0  0  0  0  0  0
  189.8440  178.0670  144.1900 C   0  0  1  0  0  3  0  0  0  0  0  0
  187.0310  178.2110  141.8690 C   0  0  0  0  0  0  0  0  0  0  0  0
  189.3230  177.8960  142.8120 C   0  0  0  0  0  0  0  0  0  0  0  0
  185.7750  178.8860  142.3330 C   0  0  0  0  0  2  0  0  0  0  0  0
  186.5440  178.4300  144.7150 C   0  0  2  0  0  3  0  0  0  0  0  0
  187.2820  178.3110  140.5630 C   0  0  0  0  0  3  0  0  0  0  0  0
  188.8080  177.3890  145.0650 C   0  0  0  0  0  2  0  0  0  0  0  0
  190.1110  177.9820  141.7390 C   0  0  0  0  0  3  0  0  0  0  0  0
  188.4640  177.7990  139.8330 C   0  0  0  0  0  0  0  0  0  0  0  0
  187.9240  177.4000  142.7860 C   0  0  1  0  0  3  0  0  0  0  0  0
  189.6980  177.7200  140.3500 C   0  0  0  0  0  3  0  0  0  0  0  0
  187.5060  177.3020  144.2680 C   0  0  1  0  0  0  0  0  0  0  0  0
  191.0680  177.4130  144.3430 O   0  0  0  0  0  1  0  0  0  0  0  0
  184.2850  179.3200  144.2210 O   0  0  0  0  0  0  0  0  0  0  0  0
  183.1140  178.9940  143.5170 C   0  0  0  0  0  1  0  0  0  0  0  0
  185.6790  179.6350  146.6420 O   0  0  0  0  0  1  0  0  0  0  0  0
  186.0840  178.3780  146.1900 C   0  0  2  0  0  3  0  0  0  0  0  0
  187.5150  178.7220  148.0730 O   0  0  0  0  0  1  0  0  0  0  0  0
  187.1120  177.7710  147.1360 C   0  0  0  0  0  2  0  0  0  0  0  0
  189.2880  174.4260  136.2220 C   0  0  2  0  0  3  0  0  0  0  0  0
  183.9780  172.1510  136.6690 C   0  0  0  0  0  3  0  0  0  0  0  0
  187.9940  169.8130  134.6270 S   0  0  0  0  0  0  0  0  0  0  0  0
  186.0730  171.2170  135.7610 N   0  0  0  0  0  2  0  0  0  0  0  0
  187.4320  171.1900  135.3020 C   0  0  0  0  0  0  0  0  0  0  0  0
  188.0530  173.5200  136.1820 C   0  0  1  0  0  3  0  0  0  0  0  0
  183.3120  173.3360  136.9730 C   0  0  0  0  0  3  0  0  0  0  0  0
  186.8990  174.2280  135.5080 C   0  0  0  0  0  2  0  0  0  0  0  0
  185.2650  172.3360  136.1480 C   0  0  0  0  0  0  0  0  0  0  0  0
  184.3450  174.6050  136.5750 S   0  0  0  0  0  0  0  0  0  0  0  0
  188.3460  172.2770  135.4860 N   0  0  0  0  0  2  0  0  0  0  0  0
  185.6240  173.6750  136.0290 C   0  0  0  0  0  0  0  0  0  0  0  0
  190.2610  173.9220  137.1900 N   0  0  0  0  0  2  0  0  0  0  0  0
  192.5770  174.4830  137.6370 C   0  0  0  0  0  1  0  0  0  0  0  0
  191.5780  174.0440  136.5860 C   0  0  0  0  0  3  0  0  0  0  0  0
  192.0070  172.7030  136.0180 C   0  0  0  0  0  1  0  0  0  0  0  0
  1  5  1  0  0  0  0
  2 29  1  1  0  0  0
  2  1  1  0  0  0  0
  3  7  2  0  0  0  0
  3  5  1  0  0  0  0
  4  3  1  0  0  0  0
  5 18  1  1  0  0  0
  6  4  1  0  0  0  0
  6  2  1  0  0  0  0
  9 23  1  1  0  0  0
  9 14  1  0  0  0  0
 10 22  1  6  0  0  0
 10 16  1  0  0  0  0
 11 13  1  0  0  0  0
 12 10  1  0  0  0  0
 13  9  1  0  0  0  0
 14 26  1  1  0  0  0
 15 11  2  0  0  0  0
 17 12  2  0  0  0  0
 18 20  2  0  0  0  0
 18 15  1  0  0  0  0
 19 11  1  6  0  0  0
 19 12  1  0  0  0  0
 19 21  1  0  0  0  0
 20 17  1  0  0  0  0
 21  8  1  1  0  0  0
 21 14  1  0  0  0  0
 21 16  1  0  0  0  0
 24 23  1  0  0  0  0
 26 25  1  1  0  0  0
 26 28  1  0  0  0  0
 28 27  1  0  0  0  0
 29 41  1  1  0  0  0
 30 35  2  0  0  0  0
 31 33  2  0  0  0  0
 32 37  1  0  0  0  0
 33 39  1  0  0  0  0
 33 32  1  0  0  0  0
 34 29  1  6  0  0  0
 36 40  1  0  0  0  0
 36 34  1  0  0  0  0
 37 30  1  0  0  0  0
 38 35  1  0  0  0  0
 39 34  1  0  0  0  0
 40 37  2  0  0  0  0
 40 38  1  0  0  0  0
 43 41  1  0  0  0  0
 43 42  1  0  0  0  0
 44 43  1  0  0  0  0
M  END
>  <MODEL>
2

>  <REMARK>
 VINA RESULT:      -8.1      4.955      7.490
  Name = 
  8 active torsions:
  status: ('A' for Active; 'I' for Inactive)
    1  A    between atoms: C_3  and  O_10
    2  A    between atoms: C_9  and  C_38
    3  A    between atoms: C_11  and  C_38
    4  A    between atoms: C_20  and  C_34
    5  A    between atoms: C_22  and  C_32
    6  A    between atoms: C_23  and  C_32
    7  A    between atoms: C_28  and  N_37
    8  A    between atoms: N_37  and  C_38
                            x       y       z     vdW  Elec       q    Type
                         _______ _______ _______ _____ _____    ______ ____

>  <TORSDO>
F 8

$$$$
=
 OpenBabel11062415493D

 44 49  0  0  1  0  0  0  0  0999 V2000
  187.2390  176.5500  137.9340 C   0  0  0  0  0  2  0  0  0  0  0  0
  187.0940  176.3720  136.4230 C   0  0  1  0  0  3  0  0  0  0  0  0
  188.5270  178.6590  137.4080 C   0  0  0  0  0  0  0  0  0  0  0  0
  188.8300  178.0890  136.1310 N   0  0  0  0  0  2  0  0  0  0  0  0
  187.4890  178.0170  138.2970 C   0  0  2  0  0  3  0  0  0  0  0  0
  188.4310  176.7310  135.7770 C   0  0  0  0  0  2  0  0  0  0  0  0
  189.0550  179.7540  137.7370 O   0  0  0  0  0  0  0  0  0  0  0  0
  186.8060  176.0030  144.3720 O   0  0  0  0  0  1  0  0  0  0  0  0
  185.2750  178.5870  144.0980 C   0  0  1  0  0  3  0  0  0  0  0  0
  189.7600  177.9290  143.8940 C   0  0  1  0  0  3  0  0  0  0  0  0
  186.6840  178.4090  141.9880 C   0  0  0  0  0  0  0  0  0  0  0  0
  189.0590  177.9160  142.5870 C   0  0  0  0  0  0  0  0  0  0  0  0
  185.5330  179.0810  142.6750 C   0  0  0  0  0  2  0  0  0  0  0  0
  186.5750  178.3620  144.8810 C   0  0  2  0  0  3  0  0  0  0  0  0
  186.7710  178.6280  140.6760 C   0  0  0  0  0  3  0  0  0  0  0  0
  188.8110  177.2060  144.8310 C   0  0  0  0  0  2  0  0  0  0  0  0
  189.7070  178.0790  141.4330 C   0  0  0  0  0  3  0  0  0  0  0  0
  187.8230  178.1480  139.7520 C   0  0  0  0  0  0  0  0  0  0  0  0
  187.6450  177.4770  142.6990 C   0  0  1  0  0  3  0  0  0  0  0  0
  189.1080  177.9710  140.0920 C   0  0  0  0  0  3  0  0  0  0  0  0
  187.4150  177.2480  144.2070 C   0  0  1  0  0  0  0  0  0  0  0  0
  190.9590  177.2180  143.8220 O   0  0  0  0  0  1  0  0  0  0  0  0
  184.3190  179.3800  144.7750 O   0  0  0  0  0  0  0  0  0  0  0  0
  183.0290  179.0030  144.3650 C   0  0  0  0  0  1  0  0  0  0  0  0
  185.6810  179.3030  146.9370 O   0  0  0  0  0  1  0  0  0  0  0  0
  186.3060  178.1800  146.3920 C   0  0  2  0  0  3  0  0  0  0  0  0
  187.6370  178.6220  148.3280 O   0  0  0  0  0  1  0  0  0  0  0  0
  187.5420  177.8060  147.2000 C   0  0  0  0  0  2  0  0  0  0  0  0
  186.7270  174.9250  136.0750 C   0  0  2  0  0  3  0  0  0  0  0  0
  181.3350  172.8050  136.0050 C   0  0  0  0  0  3  0  0  0  0  0  0
  182.5330  177.7310  136.2500 S   0  0  0  0  0  0  0  0  0  0  0  0
  182.1660  175.1270  136.0860 N   0  0  0  0  0  2  0  0  0  0  0  0
  183.1060  176.2030  136.2130 C   0  0  0  0  0  0  0  0  0  0  0  0
  185.2070  174.7350  136.0640 C   0  0  1  0  0  3  0  0  0  0  0  0
  181.6730  171.4780  136.2650 C   0  0  0  0  0  3  0  0  0  0  0  0
  184.7850  173.7850  137.1620 C   0  0  0  0  0  2  0  0  0  0  0  0
  182.3620  173.7200  136.2770 C   0  0  0  0  0  0  0  0  0  0  0  0
  183.2540  171.4700  136.8440 S   0  0  0  0  0  0  0  0  0  0  0  0
  184.5260  176.0100  136.2210 N   0  0  0  0  0  2  0  0  0  0  0  0
  183.5190  173.1200  136.7630 C   0  0  0  0  0  0  0  0  0  0  0  0
  187.3540  173.9860  137.0030 N   0  0  0  0  0  2  0  0  0  0  0  0
  189.6960  173.3770  136.8410 C   0  0  0  0  0  1  0  0  0  0  0  0
  188.3140  173.2000  136.2440 C   0  0  0  0  0  3  0  0  0  0  0  0
  187.9310  171.7320  136.2950 C   0  0  0  0  0  1  0  0  0  0  0  0
  1  5  1  0  0  0  0
  2 29  1  1  0  0  0
  2  1  1  0  0  0  0
  3  7  2  0  0  0  0
  3  5  1  0  0  0  0
  4  3  1  0  0  0  0
  5 18  1  1  0  0  0
  6  4  1  0  0  0  0
  6  2  1  0  0  0  0
  9 23  1  1  0  0  0
  9 14  1  0  0  0  0
 10 22  1  6  0  0  0
 10 16  1  0  0  0  0
 11 13  1  0  0  0  0
 12 19  1  0  0  0  0
 12 10  1  0  0  0  0
 13  9  1  0  0  0  0
 14 26  1  1  0  0  0
 15 11  2  0  0  0  0
 17 12  2  0  0  0  0
 18 20  2  0  0  0  0
 18 15  1  0  0  0  0
 19 11  1  1  0  0  0
 19 21  1  0  0  0  0
 20 17  1  0  0  0  0
 21  8  1  1  0  0  0
 21 16  1  0  0  0  0
 21 14  1  0  0  0  0
 24 23  1  0  0  0  0
 26 25  1  1  0  0  0
 26 28  1  0  0  0  0
 28 27  1  0  0  0  0
 29 41  1  1  0  0  0
 30 35  2  0  0  0  0
 30 37  1  0  0  0  0
 32 33  1  0  0  0  0
 32 37  1  0  0  0  0
 33 39  1  0  0  0  0
 33 31  2  0  0  0  0
 34 29  1  1  0  0  0
 34 39  1  0  0  0  0
 34 36  1  0  0  0  0
 35 38  1  0  0  0  0
 37 40  2  0  0  0  0
 40 38  1  0  0  0  0
 40 36  1  0  0  0  0
 43 44  1  0  0  0  0
 43 42  1  0  0  0  0
 43 41  1  0  0  0  0
M  END
>  <MODEL>
3

>  <REMARK>
 VINA RESULT:      -8.0      3.902      6.184
  Name = 
  8 active torsions:
  status: ('A' for Active; 'I' for Inactive)
    1  A    between atoms: C_3  and  O_10
    2  A    between atoms: C_9  and  C_38
    3  A    between atoms: C_11  and  C_38
    4  A    between atoms: C_20  and  C_34
    5  A    between atoms: C_22  and  C_32
    6  A    between atoms: C_23  and  C_32
    7  A    between atoms: C_28  and  N_37
    8  A    between atoms: N_37  and  C_38
                            x       y       z     vdW  Elec       q    Type
                         _______ _______ _______ _____ _____    ______ ____

>  <TORSDO>
F 8

$$$$
=
 OpenBabel11062415493D

 44 49  0  0  1  0  0  0  0  0999 V2000
  190.8930  176.1220  138.2540 C   0  0  0  0  0  2  0  0  0  0  0  0
  191.5840  175.7170  136.9530 C   0  0  1  0  0  3  0  0  0  0  0  0
  193.1730  176.8490  139.0630 C   0  0  0  0  0  0  0  0  0  0  0  0
  193.7380  175.9310  138.1210 N   0  0  0  0  0  2  0  0  0  0  0  0
  191.7030  177.1840  139.0050 C   0  0  2  0  0  3  0  0  0  0  0  0
  192.9070  175.0430  137.3140 C   0  0  0  0  0  2  0  0  0  0  0  0
  193.9310  177.4510  139.8680 O   0  0  0  0  0  0  0  0  0  0  0  0
  187.4560  175.6600  143.5960 O   0  0  0  0  0  1  0  0  0  0  0  0
  186.5210  178.2230  142.3120 C   0  0  1  0  0  3  0  0  0  0  0  0
  190.2160  177.5220  144.8500 C   0  0  1  0  0  3  0  0  0  0  0  0
  188.8930  177.8700  141.4660 C   0  0  0  0  0  0  0  0  0  0  0  0
  190.4240  177.4110  143.3860 C   0  0  0  0  0  0  0  0  0  0  0  0
  187.5950  178.6020  141.2940 C   0  0  0  0  0  2  0  0  0  0  0  0
  187.0920  178.0520  143.7260 C   0  0  2  0  0  3  0  0  0  0  0  0
  189.7500  177.9850  140.4520 C   0  0  0  0  0  3  0  0  0  0  0  0
  188.8610  176.8820  145.0820 C   0  0  0  0  0  2  0  0  0  0  0  0
  191.6370  177.4780  142.8340 C   0  0  0  0  0  3  0  0  0  0  0  0
  191.1180  177.4260  140.3630 C   0  0  0  0  0  0  0  0  0  0  0  0
  189.1970  176.9920  142.6630 C   0  0  1  0  0  3  0  0  0  0  0  0
  191.9420  177.2690  141.4090 C   0  0  0  0  0  3  0  0  0  0  0  0
  188.1090  176.8830  143.7500 C   0  0  1  0  0  0  0  0  0  0  0  0
  191.1860  176.8000  145.5460 O   0  0  0  0  0  1  0  0  0  0  0  0
  185.3920  179.0740  142.2410 O   0  0  0  0  0  0  0  0  0  0  0  0
  184.8440  179.0100  140.9490 C   0  0  0  0  0  1  0  0  0  0  0  0
  184.7090  177.9400  144.1980 O   0  0  0  0  0  1  0  0  0  0  0  0
  185.9720  177.9920  144.7900 C   0  0  2  0  0  3  0  0  0  0  0  0
  186.4310  178.5940  147.0570 O   0  0  0  0  0  1  0  0  0  0  0  0
  186.0390  179.1100  145.8220 C   0  0  0  0  0  2  0  0  0  0  0  0
  190.7140  174.7440  136.1510 C   0  0  2  0  0  3  0  0  0  0  0  0
  185.5370  176.9150  137.5840 C   0  0  0  0  0  3  0  0  0  0  0  0
  186.3810  172.1540  136.0400 S   0  0  0  0  0  0  0  0  0  0  0  0
  186.2030  174.6570  136.8460 N   0  0  0  0  0  2  0  0  0  0  0  0
  187.0450  173.6180  136.3260 C   0  0  0  0  0  0  0  0  0  0  0  0
  189.2290  174.9620  136.4550 C   0  0  1  0  0  3  0  0  0  0  0  0
  185.9100  178.2580  137.5770 C   0  0  0  0  0  3  0  0  0  0  0  0
  188.7000  176.1500  135.6840 C   0  0  0  0  0  2  0  0  0  0  0  0
  186.4510  176.0650  136.9470 C   0  0  0  0  0  0  0  0  0  0  0  0
  187.3800  178.3640  136.7630 S   0  0  0  0  0  0  0  0  0  0  0  0
  188.4550  173.7740  136.1290 N   0  0  0  0  0  2  0  0  0  0  0  0
  187.5540  176.7340  136.4250 C   0  0  0  0  0  0  0  0  0  0  0  0
  191.0930  173.3570  136.4170 N   0  0  0  0  0  2  0  0  0  0  0  0
  192.9380  172.1130  135.4520 C   0  0  0  0  0  1  0  0  0  0  0  0
  191.6170  172.8040  135.1780 C   0  0  0  0  0  3  0  0  0  0  0  0
  190.6340  171.7970  134.6100 C   0  0  0  0  0  1  0  0  0  0  0  0
  1  5  1  0  0  0  0
  2 29  1  1  0  0  0
  2  6  1  0  0  0  0
  2  1  1  0  0  0  0
  3  7  2  0  0  0  0
  4  3  1  0  0  0  0
  5  3  1  0  0  0  0
  5 18  1  1  0  0  0
  6  4  1  0  0  0  0
  9 23  1  1  0  0  0
  9 14  1  0  0  0  0
 10 16  1  0  0  0  0
 10 22  1  1  0  0  0
 12 10  1  0  0  0  0
 13 11  1  0  0  0  0
 13  9  1  0  0  0  0
 14 21  1  0  0  0  0
 14 26  1  1  0  0  0
 15 11  2  0  0  0  0
 17 12  2  0  0  0  0
 18 15  1  0  0  0  0
 18 20  2  0  0  0  0
 19 11  1  6  0  0  0
 19 12  1  0  0  0  0
 19 21  1  0  0  0  0
 20 17  1  0  0  0  0
 21  8  1  6  0  0  0
 21 16  1  0  0  0  0
 24 23  1  0  0  0  0
 26 25  1  6  0  0  0
 26 28  1  0  0  0  0
 28 27  1  0  0  0  0
 29 41  1  1  0  0  0
 31 33  2  0  0  0  0
 32 37  1  0  0  0  0
 33 32  1  0  0  0  0
 34 29  1  6  0  0  0
 35 30  2  0  0  0  0
 36 40  1  0  0  0  0
 36 34  1  0  0  0  0
 37 30  1  0  0  0  0
 38 35  1  0  0  0  0
 39 33  1  0  0  0  0
 39 34  1  0  0  0  0
 40 38  1  0  0  0  0
 40 37  2  0  0  0  0
 43 42  1  0  0  0  0
 43 41  1  0  0  0  0
 44 43  1  0  0  0  0
M  END
>  <MODEL>
4

>  <REMARK>
 VINA RESULT:      -7.9      5.293      8.555
  Name = 
  8 active torsions:
  status: ('A' for Active; 'I' for Inactive)
    1  A    between atoms: C_3  and  O_10
    2  A    between atoms: C_9  and  C_38
    3  A    between atoms: C_11  and  C_38
    4  A    between atoms: C_20  and  C_34
    5  A    between atoms: C_22  and  C_32
    6  A    between atoms: C_23  and  C_32
    7  A    between atoms: C_28  and  N_37
    8  A    between atoms: N_37  and  C_38
                            x       y       z     vdW  Elec       q    Type
                         _______ _______ _______ _____ _____    ______ ____

>  <TORSDO>
F 8

$$$$
=
 OpenBabel11062415493D

 44 49  0  0  1  0  0  0  0  0999 V2000
  187.6140  176.4270  137.8420 C   0  0  0  0  0  2  0  0  0  0  0  0
  187.5230  176.2290  136.3290 C   0  0  1  0  0  3  0  0  0  0  0  0
  188.5870  178.7020  137.3340 C   0  0  0  0  0  0  0  0  0  0  0  0
  188.9930  178.1840  136.0630 N   0  0  0  0  0  2  0  0  0  0  0  0
  187.6400  177.9150  138.2060 C   0  0  2  0  0  3  0  0  0  0  0  0
  188.8040  176.7810  135.7060 C   0  0  0  0  0  2  0  0  0  0  0  0
  188.9430  179.8630  137.6690 O   0  0  0  0  0  0  0  0  0  0  0  0
  186.8040  176.0610  144.3130 O   0  0  0  0  0  1  0  0  0  0  0  0
  185.2360  178.6060  143.9170 C   0  0  1  0  0  3  0  0  0  0  0  0
  189.7350  178.0280  143.8700 C   0  0  1  0  0  3  0  0  0  0  0  0
  186.7130  178.3950  141.8580 C   0  0  0  0  0  0  0  0  0  0  0  0
  189.0760  177.9650  142.5430 C   0  0  0  0  0  0  0  0  0  0  0  0
  185.5290  179.0640  142.4890 C   0  0  0  0  0  2  0  0  0  0  0  0
  186.5150  178.4280  144.7460 C   0  0  2  0  0  3  0  0  0  0  0  0
  186.8370  178.5790  140.5430 C   0  0  0  0  0  3  0  0  0  0  0  0
  188.7710  177.3140  144.7980 C   0  0  0  0  0  2  0  0  0  0  0  0
  189.7570  178.1070  141.4050 C   0  0  0  0  0  3  0  0  0  0  0  0
  187.9260  178.0920  139.6660 C   0  0  0  0  0  0  0  0  0  0  0  0
  187.6680  177.5030  142.6240 C   0  0  1  0  0  3  0  0  0  0  0  0
  189.2020  177.9500  140.0500 C   0  0  0  0  0  3  0  0  0  0  0  0
  187.3950  177.3120  144.1310 C   0  0  1  0  0  0  0  0  0  0  0  0
  190.9490  177.3380  143.8560 O   0  0  0  0  0  1  0  0  0  0  0  0
  184.2450  179.4000  144.5410 O   0  0  0  0  0  0  0  0  0  0  0  0
  183.0030  179.1580  143.9300 C   0  0  0  0  0  1  0  0  0  0  0  0
  185.7150  179.4780  146.7880 O   0  0  0  0  0  1  0  0  0  0  0  0
  186.2020  178.2840  146.2530 C   0  0  2  0  0  3  0  0  0  0  0  0
  187.5510  178.5610  148.2060 O   0  0  0  0  0  1  0  0  0  0  0  0
  187.3680  177.7590  147.0790 C   0  0  0  0  0  2  0  0  0  0  0  0
  187.3800  174.7450  135.9780 C   0  0  2  0  0  3  0  0  0  0  0  0
  181.7660  174.2840  137.3370 C   0  0  0  0  0  3  0  0  0  0  0  0
  184.5980  170.5810  135.3300 S   0  0  0  0  0  0  0  0  0  0  0  0
  183.3490  172.6430  136.3950 N   0  0  0  0  0  2  0  0  0  0  0  0
  184.5610  172.1400  135.8140 C   0  0  0  0  0  0  0  0  0  0  0  0
  185.9460  174.2640  136.2170 C   0  0  1  0  0  3  0  0  0  0  0  0
  181.5200  175.6460  137.5000 C   0  0  0  0  0  3  0  0  0  0  0  0
  184.9570  175.1950  135.5520 C   0  0  0  0  0  2  0  0  0  0  0  0
  182.9620  173.9960  136.6650 C   0  0  0  0  0  0  0  0  0  0  0  0
  182.8030  176.4740  136.7900 S   0  0  0  0  0  0  0  0  0  0  0  0
  185.7650  172.9100  135.7170 N   0  0  0  0  0  2  0  0  0  0  0  0
  183.6680  175.1330  136.2850 C   0  0  0  0  0  0  0  0  0  0  0  0
  188.3260  173.9300  136.7390 N   0  0  0  0  0  2  0  0  0  0  0  0
  190.7250  173.6390  136.5310 C   0  0  0  0  0  1  0  0  0  0  0  0
  189.3870  173.5310  135.8270 C   0  0  0  0  0  3  0  0  0  0  0  0
  189.1690  172.0960  135.3840 C   0  0  0  0  0  1  0  0  0  0  0  0
  1  5  1  0  0  0  0
  2 29  1  1  0  0  0
  2  1  1  0  0  0  0
  3  7  2  0  0  0  0
  3  5  1  0  0  0  0
  4  3  1  0  0  0  0
  5 18  1  1  0  0  0
  6  4  1  0  0  0  0
  6  2  1  0  0  0  0
  9 23  1  1  0  0  0
  9 14  1  0  0  0  0
 10 22  1  6  0  0  0
 10 16  1  0  0  0  0
 11 13  1  0  0  0  0
 12 19  1  0  0  0  0
 12 10  1  0  0  0  0
 13  9  1  0  0  0  0
 14 26  1  1  0  0  0
 15 11  2  0  0  0  0
 17 12  2  0  0  0  0
 18 20  2  0  0  0  0
 18 15  1  0  0  0  0
 19 11  1  1  0  0  0
 19 21  1  0  0  0  0
 20 17  1  0  0  0  0
 21  8  1  1  0  0  0
 21 14  1  0  0  0  0
 21 16  1  0  0  0  0
 24 23  1  0  0  0  0
 26 25  1  1  0  0  0
 26 28  1  0  0  0  0
 28 27  1  0  0  0  0
 29 41  1  1  0  0  0
 30 35  2  0  0  0  0
 31 33  2  0  0  0  0
 32 37  1  0  0  0  0
 33 32  1  0  0  0  0
 34 29  1  6  0  0  0
 36 34  1  0  0  0  0
 36 40  1  0  0  0  0
 37 30  1  0  0  0  0
 38 35  1  0  0  0  0
 39 33  1  0  0  0  0
 39 34  1  0  0  0  0
 40 37  2  0  0  0  0
 40 38  1  0  0  0  0
 43 42  1  0  0  0  0
 43 41  1  0  0  0  0
 44 43  1  0  0  0  0
M  END
>  <MODEL>
5

>  <REMARK>
 VINA RESULT:      -7.8      4.189      6.517
  Name = 
  8 active torsions:
  status: ('A' for Active; 'I' for Inactive)
    1  A    between atoms: C_3  and  O_10
    2  A    between atoms: C_9  and  C_38
    3  A    between atoms: C_11  and  C_38
    4  A    between atoms: C_20  and  C_34
    5  A    between atoms: C_22  and  C_32
    6  A    between atoms: C_23  and  C_32
    7  A    between atoms: C_28  and  N_37
    8  A    between atoms: N_37  and  C_38
                            x       y       z     vdW  Elec       q    Type
                         _______ _______ _______ _____ _____    ______ ____

>  <TORSDO>
F 8

$$$$
=
 OpenBabel11062415493D

 44 49  0  0  1  0  0  0  0  0999 V2000
  184.1800  178.4160  138.8970 C   0  0  0  0  0  2  0  0  0  0  0  0
  183.1850  178.2800  137.7450 C   0  0  1  0  0  3  0  0  0  0  0  0
  185.8990  177.4370  137.3260 C   0  0  0  0  0  0  0  0  0  0  0  0
  184.8180  176.8360  136.6060 N   0  0  0  0  0  2  0  0  0  0  0  0
  185.6200  178.4820  138.3790 C   0  0  2  0  0  3  0  0  0  0  0  0
  183.4360  176.9360  137.0640 C   0  0  0  0  0  2  0  0  0  0  0  0
  187.0850  177.1630  137.0010 O   0  0  0  0  0  0  0  0  0  0  0  0
  187.8990  175.4710  143.5920 O   0  0  0  0  0  1  0  0  0  0  0  0
  186.3510  177.8790  144.5410 C   0  0  1  0  0  3  0  0  0  0  0  0
  190.2390  177.7650  142.2060 C   0  0  1  0  0  3  0  0  0  0  0  0
  186.6190  178.1940  142.0320 C   0  0  0  0  0  0  0  0  0  0  0  0
  189.0100  177.8800  141.3830 C   0  0  0  0  0  0  0  0  0  0  0  0
  185.9030  178.6170  143.2800 C   0  0  0  0  0  2  0  0  0  0  0  0
  187.8720  177.6790  144.5910 C   0  0  2  0  0  3  0  0  0  0  0  0
  186.0790  178.6260  140.8920 C   0  0  0  0  0  3  0  0  0  0  0  0
  189.8550  176.8020  143.3130 C   0  0  0  0  0  2  0  0  0  0  0  0
  189.0410  178.2940  140.1150 C   0  0  0  0  0  3  0  0  0  0  0  0
  186.5910  178.4170  139.5190 C   0  0  0  0  0  0  0  0  0  0  0  0
  187.8230  177.2750  142.0370 C   0  0  1  0  0  3  0  0  0  0  0  0
  187.8890  178.3340  139.1990 C   0  0  0  0  0  3  0  0  0  0  0  0
  188.3290  176.7860  143.4110 C   0  0  1  0  0  0  0  0  0  0  0  0
  191.2840  177.2110  141.4640 O   0  0  0  0  0  1  0  0  0  0  0  0
  185.8010  178.4440  145.7160 O   0  0  0  0  0  0  0  0  0  0  0  0
  184.5310  178.9720  145.4270 C   0  0  0  0  0  1  0  0  0  0  0  0
  187.4110  177.5760  146.9770 O   0  0  0  0  0  1  0  0  0  0  0  0
  188.3420  177.2320  145.9940 C   0  0  2  0  0  3  0  0  0  0  0  0
  190.3770  176.7870  147.1660 O   0  0  0  0  0  1  0  0  0  0  0  0
  189.7310  177.7320  146.3690 C   0  0  0  0  0  2  0  0  0  0  0  0
  181.7420  178.3330  138.2590 C   0  0  2  0  0  3  0  0  0  0  0  0
  180.2830  183.7120  136.6740 C   0  0  0  0  0  3  0  0  0  0  0  0
  178.9310  181.4830  141.0290 S   0  0  0  0  0  0  0  0  0  0  0  0
  179.7850  182.4320  138.7230 N   0  0  0  0  0  2  0  0  0  0  0  0
  179.7070  181.3010  139.6030 C   0  0  0  0  0  0  0  0  0  0  0  0
  181.1880  179.7590  138.1830 C   0  0  1  0  0  3  0  0  0  0  0  0
  180.6430  183.5950  135.3320 C   0  0  0  0  0  3  0  0  0  0  0  0
  180.3980  179.9530  136.9080 C   0  0  0  0  0  2  0  0  0  0  0  0
  180.1710  182.4860  137.3440 C   0  0  0  0  0  0  0  0  0  0  0  0
  180.8070  181.9530  135.0010 S   0  0  0  0  0  0  0  0  0  0  0  0
  180.3500  180.0500  139.3350 N   0  0  0  0  0  2  0  0  0  0  0  0
  180.4360  181.3880  136.5310 C   0  0  0  0  0  0  0  0  0  0  0  0
  181.6510  177.8200  139.6250 N   0  0  0  0  0  2  0  0  0  0  0  0
  181.4270  175.4100  139.7700 C   0  0  0  0  0  1  0  0  0  0  0  0
  180.6920  176.7260  139.6150 C   0  0  0  0  0  3  0  0  0  0  0  0
  179.7150  176.8910  140.7650 C   0  0  0  0  0  1  0  0  0  0  0  0
  2 29  1  1  0  0  0
  2  1  1  0  0  0  0
  3  5  1  0  0  0  0
  4  6  1  0  0  0  0
  4  3  1  0  0  0  0
  5  1  1  0  0  0  0
  5 18  1  1  0  0  0
  6  2  1  0  0  0  0
  7  3  2  0  0  0  0
  9 14  1  0  0  0  0
  9 23  1  1  0  0  0
 10 22  1  6  0  0  0
 10 16  1  0  0  0  0
 11 19  1  0  0  0  0
 11 13  1  0  0  0  0
 12 10  1  0  0  0  0
 13  9  1  0  0  0  0
 14 26  1  1  0  0  0
 15 11  2  0  0  0  0
 16 21  1  0  0  0  0
 17 12  2  0  0  0  0
 18 15  1  0  0  0  0
 19 12  1  1  0  0  0
 19 21  1  0  0  0  0
 20 18  2  0  0  0  0
 20 17  1  0  0  0  0
 21  8  1  1  0  0  0
 21 14  1  0  0  0  0
 24 23  1  0  0  0  0
 26 28  1  0  0  0  0
 26 25  1  1  0  0  0
 28 27  1  0  0  0  0
 29 41  1  1  0  0  0
 30 37  1  0  0  0  0
 32 33  1  0  0  0  0
 33 31  2  0  0  0  0
 34 29  1  1  0  0  0
 34 39  1  0  0  0  0
 35 30  2  0  0  0  0
 36 34  1  0  0  0  0
 37 32  1  0  0  0  0
 38 35  1  0  0  0  0
 38 40  1  0  0  0  0
 39 33  1  0  0  0  0
 40 36  1  0  0  0  0
 40 37  2  0  0  0  0
 43 41  1  0  0  0  0
 43 42  1  0  0  0  0
 43 44  1  0  0  0  0
M  END
>  <MODEL>
6

>  <REMARK>
 VINA RESULT:      -7.6      2.731      5.027
  Name = 
  8 active torsions:
  status: ('A' for Active; 'I' for Inactive)
    1  A    between atoms: C_3  and  O_10
    2  A    between atoms: C_9  and  C_38
    3  A    between atoms: C_11  and  C_38
    4  A    between atoms: C_20  and  C_34
    5  A    between atoms: C_22  and  C_32
    6  A    between atoms: C_23  and  C_32
    7  A    between atoms: C_28  and  N_37
    8  A    between atoms: N_37  and  C_38
                            x       y       z     vdW  Elec       q    Type
                         _______ _______ _______ _____ _____    ______ ____

>  <TORSDO>
F 8

$$$$
=
 OpenBabel11062415493D

 44 49  0  0  1  0  0  0  0  0999 V2000
  184.1520  177.9920  138.8900 C   0  0  0  0  0  2  0  0  0  0  0  0
  183.1930  177.8450  137.7090 C   0  0  1  0  0  3  0  0  0  0  0  0
  186.0200  177.8110  137.1990 C   0  0  0  0  0  0  0  0  0  0  0  0
  185.1060  177.1170  136.3450 N   0  0  0  0  0  2  0  0  0  0  0  0
  185.5160  178.5190  138.4330 C   0  0  2  0  0  3  0  0  0  0  0  0
  183.7550  176.7720  136.7780 C   0  0  0  0  0  2  0  0  0  0  0  0
  187.2270  177.9140  136.8570 O   0  0  0  0  0  0  0  0  0  0  0  0
  187.9360  175.5270  143.5930 O   0  0  0  0  0  1  0  0  0  0  0  0
  186.3330  177.8830  144.5810 C   0  0  1  0  0  3  0  0  0  0  0  0
  190.1960  177.8970  142.2010 C   0  0  1  0  0  3  0  0  0  0  0  0
  186.5630  178.2270  142.0720 C   0  0  0  0  0  0  0  0  0  0  0  0
  188.9550  177.9850  141.3930 C   0  0  0  0  0  0  0  0  0  0  0  0
  185.8510  178.6190  143.3320 C   0  0  0  0  0  2  0  0  0  0  0  0
  187.8590  177.7250  144.6120 C   0  0  2  0  0  3  0  0  0  0  0  0
  185.9990  178.6540  140.9420 C   0  0  0  0  0  3  0  0  0  0  0  0
  189.8510  176.9140  143.3040 C   0  0  0  0  0  2  0  0  0  0  0  0
  188.9600  178.4100  140.1290 C   0  0  0  0  0  3  0  0  0  0  0  0
  186.5000  178.4710  139.5610 C   0  0  0  0  0  0  0  0  0  0  0  0
  187.7930  177.3410  142.0560 C   0  0  1  0  0  3  0  0  0  0  0  0
  187.7970  178.4260  139.2260 C   0  0  0  0  0  3  0  0  0  0  0  0
  188.3270  176.8550  143.4190 C   0  0  1  0  0  0  0  0  0  0  0  0
  191.2470  177.3790  141.4430 O   0  0  0  0  0  1  0  0  0  0  0  0
  185.7810  178.4220  145.7670 O   0  0  0  0  0  0  0  0  0  0  0  0
  184.5350  179.0020  145.4770 C   0  0  0  0  0  1  0  0  0  0  0  0
  187.8790  178.1200  147.0120 O   0  0  0  0  0  1  0  0  0  0  0  0
  188.3580  177.2790  146.0060 C   0  0  2  0  0  3  0  0  0  0  0  0
  190.2620  177.1230  147.4410 O   0  0  0  0  0  1  0  0  0  0  0  0
  189.8700  177.1300  146.1030 C   0  0  0  0  0  2  0  0  0  0  0  0
  181.7970  177.4310  138.1850 C   0  0  2  0  0  3  0  0  0  0  0  0
  179.0320  180.7450  142.0520 C   0  0  0  0  0  3  0  0  0  0  0  0
  180.8430  182.3540  137.5920 S   0  0  0  0  0  0  0  0  0  0  0  0
  179.9650  181.2760  139.8310 N   0  0  0  0  0  2  0  0  0  0  0  0
  180.7070  181.0900  138.6170 C   0  0  0  0  0  0  0  0  0  0  0  0
  181.1160  178.5760  138.9410 C   0  0  1  0  0  3  0  0  0  0  0  0
  179.1060  179.8530  143.1210 C   0  0  0  0  0  3  0  0  0  0  0  0
  181.6990  178.7150  140.3300 C   0  0  0  0  0  2  0  0  0  0  0  0
  179.9010  180.4420  140.9950 C   0  0  0  0  0  0  0  0  0  0  0  0
  180.2680  178.6990  142.7290 S   0  0  0  0  0  0  0  0  0  0  0  0
  181.2570  179.8290  138.2170 N   0  0  0  0  0  2  0  0  0  0  0  0
  180.6750  179.3090  141.2250 C   0  0  0  0  0  0  0  0  0  0  0  0
  181.8590  176.2330  139.0200 N   0  0  0  0  0  2  0  0  0  0  0  0
  180.8150  174.3730  137.8660 C   0  0  0  0  0  1  0  0  0  0  0  0
  180.6080  175.5130  138.8430 C   0  0  0  0  0  3  0  0  0  0  0  0
  180.1450  174.9530  140.1750 C   0  0  0  0  0  1  0  0  0  0  0  0
  2 29  1  1  0  0  0
  2  1  1  0  0  0  0
  3  5  1  0  0  0  0
  4  6  1  0  0  0  0
  4  3  1  0  0  0  0
  5  1  1  0  0  0  0
  5 18  1  1  0  0  0
  6  2  1  0  0  0  0
  7  3  2  0  0  0  0
  9 14  1  0  0  0  0
  9 23  1  1  0  0  0
 10 22  1  6  0  0  0
 10 16  1  0  0  0  0
 11 13  1  0  0  0  0
 12 10  1  0  0  0  0
 13  9  1  0  0  0  0
 14 26  1  1  0  0  0
 15 11  2  0  0  0  0
 16 21  1  0  0  0  0
 17 12  2  0  0  0  0
 18 15  1  0  0  0  0
 19 12  1  1  0  0  0
 19 11  1  0  0  0  0
 19 21  1  0  0  0  0
 20 18  2  0  0  0  0
 20 17  1  0  0  0  0
 21  8  1  1  0  0  0
 21 14  1  0  0  0  0
 24 23  1  0  0  0  0
 26 28  1  0  0  0  0
 26 25  1  1  0  0  0
 28 27  1  0  0  0  0
 29 41  1  1  0  0  0
 30 35  2  0  0  0  0
 31 33  2  0  0  0  0
 32 37  1  0  0  0  0
 33 32  1  0  0  0  0
 34 29  1  6  0  0  0
 34 36  1  0  0  0  0
 36 40  1  0  0  0  0
 37 40  2  0  0  0  0
 37 30  1  0  0  0  0
 38 35  1  0  0  0  0
 39 33  1  0  0  0  0
 39 34  1  0  0  0  0
 40 38  1  0  0  0  0
 42 43  1  0  0  0  0
 43 41  1  0  0  0  0
 43 44  1  0  0  0  0
M  END
>  <MODEL>
7

>  <REMARK>
 VINA RESULT:      -7.3      2.356      5.060
  Name = 
  8 active torsions:
  status: ('A' for Active; 'I' for Inactive)
    1  A    between atoms: C_3  and  O_10
    2  A    between atoms: C_9  and  C_38
    3  A    between atoms: C_11  and  C_38
    4  A    between atoms: C_20  and  C_34
    5  A    between atoms: C_22  and  C_32
    6  A    between atoms: C_23  and  C_32
    7  A    between atoms: C_28  and  N_37
    8  A    between atoms: N_37  and  C_38
                            x       y       z     vdW  Elec       q    Type
                         _______ _______ _______ _____ _____    ______ ____

>  <TORSDO>
F 8

$$$$
=
 OpenBabel11062415493D

 44 49  0  0  1  0  0  0  0  0999 V2000
  185.7080  177.5140  137.7720 C   0  0  0  0  0  2  0  0  0  0  0  0
  184.9740  177.3020  136.4480 C   0  0  1  0  0  3  0  0  0  0  0  0
  187.8400  177.1070  136.4810 C   0  0  0  0  0  0  0  0  0  0  0  0
  187.0600  176.3770  135.5300 N   0  0  0  0  0  2  0  0  0  0  0  0
  187.1600  177.9420  137.5380 C   0  0  2  0  0  3  0  0  0  0  0  0
  185.6360  176.1280  135.7280 C   0  0  0  0  0  2  0  0  0  0  0  0
  189.0940  177.1300  136.3640 O   0  0  0  0  0  0  0  0  0  0  0  0
  188.4750  175.2840  143.2510 O   0  0  0  0  0  1  0  0  0  0  0  0
  186.8050  177.7430  143.7600 C   0  0  1  0  0  3  0  0  0  0  0  0
  191.0380  177.4920  142.1470 C   0  0  1  0  0  3  0  0  0  0  0  0
  187.5060  177.8950  141.3210 C   0  0  0  0  0  0  0  0  0  0  0  0
  189.9720  177.5490  141.1180 C   0  0  0  0  0  0  0  0  0  0  0  0
  186.5880  178.3960  142.3950 C   0  0  0  0  0  2  0  0  0  0  0  0
  188.2920  177.5520  144.0860 C   0  0  2  0  0  3  0  0  0  0  0  0
  187.1760  178.2500  140.0780 C   0  0  0  0  0  3  0  0  0  0  0  0
  190.4600  176.6020  143.2310 C   0  0  0  0  0  2  0  0  0  0  0  0
  190.2260  177.8800  139.8510 C   0  0  0  0  0  3  0  0  0  0  0  0
  187.9170  177.9550  138.8310 C   0  0  0  0  0  0  0  0  0  0  0  0
  188.6850  176.9830  141.5940 C   0  0  1  0  0  3  0  0  0  0  0  0
  189.2510  177.8560  138.7480 C   0  0  0  0  0  3  0  0  0  0  0  0
  188.9400  176.5860  143.0630 C   0  0  1  0  0  0  0  0  0  0  0  0
  192.1920  176.8950  141.6360 O   0  0  0  0  0  1  0  0  0  0  0  0
  186.0630  178.3810  144.7820 O   0  0  0  0  0  0  0  0  0  0  0  0
  184.7960  178.7300  144.2880 C   0  0  0  0  0  1  0  0  0  0  0  0
  187.2930  177.0890  146.2540 O   0  0  0  0  0  1  0  0  0  0  0  0
  188.5090  177.1990  145.5750 C   0  0  2  0  0  3  0  0  0  0  0  0
  189.2050  178.0970  147.6770 O   0  0  0  0  0  1  0  0  0  0  0  0
  189.4500  178.1470  146.3050 C   0  0  0  0  0  2  0  0  0  0  0  0
  183.4930  176.9890  136.6860 C   0  0  2  0  0  3  0  0  0  0  0  0
  180.6800  181.9700  137.6100 C   0  0  0  0  0  3  0  0  0  0  0  0
  181.9730  178.6350  141.2120 S   0  0  0  0  0  0  0  0  0  0  0  0
  181.4410  180.2210  139.1750 N   0  0  0  0  0  2  0  0  0  0  0  0
  181.9690  178.9600  139.6110 C   0  0  0  0  0  0  0  0  0  0  0  0
  182.7720  178.1950  137.2960 C   0  0  1  0  0  3  0  0  0  0  0  0
  180.3490  182.2250  136.2810 C   0  0  0  0  0  3  0  0  0  0  0  0
  181.4410  178.4160  136.6140 C   0  0  0  0  0  2  0  0  0  0  0  0
  181.0900  180.6520  137.8530 C   0  0  0  0  0  0  0  0  0  0  0  0
  180.5670  180.7900  135.4270 S   0  0  0  0  0  0  0  0  0  0  0  0
  182.5730  178.0110  138.7240 N   0  0  0  0  0  2  0  0  0  0  0  0
  181.0800  179.8530  136.7150 C   0  0  0  0  0  0  0  0  0  0  0  0
  183.3340  175.8130  137.5400 N   0  0  0  0  0  2  0  0  0  0  0  0
  182.9250  173.5630  136.7330 C   0  0  0  0  0  1  0  0  0  0  0  0
  182.3440  174.9520  136.9120 C   0  0  0  0  0  3  0  0  0  0  0  0
  181.1080  174.8670  137.7890 C   0  0  0  0  0  1  0  0  0  0  0  0
  2 29  1  1  0  0  0
  2  1  1  0  0  0  0
  3  5  1  0  0  0  0
  4  6  1  0  0  0  0
  4  3  1  0  0  0  0
  5  1  1  0  0  0  0
  5 18  1  1  0  0  0
  6  2  1  0  0  0  0
  7  3  2  0  0  0  0
  9 14  1  0  0  0  0
  9 23  1  1  0  0  0
 10 22  1  6  0  0  0
 10 16  1  0  0  0  0
 11 19  1  0  0  0  0
 11 13  1  0  0  0  0
 12 10  1  0  0  0  0
 13  9  1  0  0  0  0
 14 26  1  1  0  0  0
 15 11  2  0  0  0  0
 17 12  2  0  0  0  0
 18 15  1  0  0  0  0
 19 12  1  1  0  0  0
 19 21  1  0  0  0  0
 20 18  2  0  0  0  0
 20 17  1  0  0  0  0
 21 16  1  0  0  0  0
 21  8  1  1  0  0  0
 21 14  1  0  0  0  0
 24 23  1  0  0  0  0
 26 25  1  1  0  0  0
 26 28  1  0  0  0  0
 28 27  1  0  0  0  0
 29 41  1  1  0  0  0
 30 37  1  0  0  0  0
 32 33  1  0  0  0  0
 33 31  2  0  0  0  0
 34 29  1  6  0  0  0
 34 39  1  0  0  0  0
 35 30  2  0  0  0  0
 36 40  1  0  0  0  0
 36 34  1  0  0  0  0
 37 32  1  0  0  0  0
 38 35  1  0  0  0  0
 38 40  1  0  0  0  0
 39 33  1  0  0  0  0
 40 37  2  0  0  0  0
 42 43  1  0  0  0  0
 43 41  1  0  0  0  0
 43 44  1  0  0  0  0
M  END
>  <MODEL>
8

>  <REMARK>
 VINA RESULT:      -7.1      2.883      5.376
  Name = 
  8 active torsions:
  status: ('A' for Active; 'I' for Inactive)
    1  A    between atoms: C_3  and  O_10
    2  A    between atoms: C_9  and  C_38
    3  A    between atoms: C_11  and  C_38
    4  A    between atoms: C_20  and  C_34
    5  A    between atoms: C_22  and  C_32
    6  A    between atoms: C_23  and  C_32
    7  A    between atoms: C_28  and  N_37
    8  A    between atoms: N_37  and  C_38
                            x       y       z     vdW  Elec       q    Type
                         _______ _______ _______ _____ _____    ______ ____

>  <TORSDO>
F 8

$$$$
=
 OpenBabel11062415493D

 44 49  0  0  1  0  0  0  0  0999 V2000
  185.9620  176.8670  137.6330 C   0  0  0  0  0  2  0  0  0  0  0  0
  185.3440  176.7960  136.2380 C   0  0  1  0  0  3  0  0  0  0  0  0
  187.3640  178.7730  136.7490 C   0  0  0  0  0  0  0  0  0  0  0  0
  187.1720  178.2340  135.4380 N   0  0  0  0  0  2  0  0  0  0  0  0
  186.5490  178.2550  137.9090 C   0  0  2  0  0  3  0  0  0  0  0  0
  186.4660  176.9750  135.2170 C   0  0  0  0  0  2  0  0  0  0  0  0
  188.1400  179.7520  136.9060 O   0  0  0  0  0  0  0  0  0  0  0  0
  187.8940  175.5510  143.5930 O   0  0  0  0  0  1  0  0  0  0  0  0
  186.2590  178.0270  144.1330 C   0  0  1  0  0  3  0  0  0  0  0  0
  190.4710  177.7340  142.4730 C   0  0  1  0  0  3  0  0  0  0  0  0
  186.9360  178.1840  141.6870 C   0  0  0  0  0  0  0  0  0  0  0  0
  189.3950  177.8090  141.4560 C   0  0  0  0  0  0  0  0  0  0  0  0
  186.0360  178.6900  142.7740 C   0  0  0  0  0  2  0  0  0  0  0  0
  187.7480  177.8170  144.4410 C   0  0  2  0  0  3  0  0  0  0  0  0
  186.5960  178.5500  140.4500 C   0  0  0  0  0  3  0  0  0  0  0  0
  189.8950  176.8450  143.5580 C   0  0  0  0  0  2  0  0  0  0  0  0
  189.6390  178.1430  140.1880 C   0  0  0  0  0  3  0  0  0  0  0  0
  187.3200  178.2520  139.1930 C   0  0  0  0  0  0  0  0  0  0  0  0
  188.1060  177.2560  141.9430 C   0  0  1  0  0  3  0  0  0  0  0  0
  188.6510  178.1370  139.0950 C   0  0  0  0  0  3  0  0  0  0  0  0
  188.3730  176.8480  143.4060 C   0  0  1  0  0  0  0  0  0  0  0  0
  191.6120  177.1260  141.9450 O   0  0  0  0  0  1  0  0  0  0  0  0
  185.5370  178.6690  145.1670 O   0  0  0  0  0  0  0  0  0  0  0  0
  184.2510  178.9920  144.7030 C   0  0  0  0  0  1  0  0  0  0  0  0
  186.7840  177.5010  146.6520 O   0  0  0  0  0  1  0  0  0  0  0  0
  187.9760  177.4530  145.9270 C   0  0  2  0  0  3  0  0  0  0  0  0
  189.2650  177.8190  147.9060 O   0  0  0  0  0  1  0  0  0  0  0  0
  189.0550  178.2840  146.6080 C   0  0  0  0  0  2  0  0  0  0  0  0
  184.6550  175.4460  136.0110 C   0  0  2  0  0  3  0  0  0  0  0  0
  178.9310  174.6410  136.4010 C   0  0  0  0  0  3  0  0  0  0  0  0
  181.1910  179.0500  135.2990 S   0  0  0  0  0  0  0  0  0  0  0  0
  180.2540  176.6500  135.8550 N   0  0  0  0  0  2  0  0  0  0  0  0
  181.4120  177.4820  135.7010 C   0  0  0  0  0  0  0  0  0  0  0  0
  183.1320  175.6020  136.0160 C   0  0  1  0  0  3  0  0  0  0  0  0
  178.9780  173.3970  137.0270 C   0  0  0  0  0  3  0  0  0  0  0  0
  182.5530  175.1110  137.3240 C   0  0  0  0  0  2  0  0  0  0  0  0
  180.1430  175.3430  136.4340 C   0  0  0  0  0  0  0  0  0  0  0  0
  180.5400  173.1970  137.6240 S   0  0  0  0  0  0  0  0  0  0  0  0
  182.7540  176.9890  135.7970 N   0  0  0  0  0  2  0  0  0  0  0  0
  181.1580  174.6590  137.0950 C   0  0  0  0  0  0  0  0  0  0  0  0
  185.0730  174.4680  137.0150 N   0  0  0  0  0  2  0  0  0  0  0  0
  186.9180  172.9320  136.6700 C   0  0  0  0  0  1  0  0  0  0  0  0
  185.4850  173.2670  136.3050 C   0  0  0  0  0  3  0  0  0  0  0  0
  184.5870  172.1070  136.6950 C   0  0  0  0  0  1  0  0  0  0  0  0
  1  5  1  0  0  0  0
  2 29  1  6  0  0  0
  2  1  1  0  0  0  0
  3  7  2  0  0  0  0
  3  5  1  0  0  0  0
  4  3  1  0  0  0  0
  5 18  1  1  0  0  0
  6  4  1  0  0  0  0
  6  2  1  0  0  0  0
  9 14  1  0  0  0  0
  9 23  1  1  0  0  0
 10 22  1  6  0  0  0
 10 16  1  0  0  0  0
 11 19  1  0  0  0  0
 11 13  1  0  0  0  0
 12 10  1  0  0  0  0
 13  9  1  0  0  0  0
 14 26  1  1  0  0  0
 15 11  2  0  0  0  0
 17 12  2  0  0  0  0
 18 15  1  0  0  0  0
 19 12  1  1  0  0  0
 19 21  1  0  0  0  0
 20 18  2  0  0  0  0
 20 17  1  0  0  0  0
 21 16  1  0  0  0  0
 21  8  1  1  0  0  0
 21 14  1  0  0  0  0
 24 23  1  0  0  0  0
 26 28  1  0  0  0  0
 26 25  1  1  0  0  0
 28 27  1  0  0  0  0
 29 41  1  1  0  0  0
 30 37  1  0  0  0  0
 30 35  2  0  0  0  0
 31 33  2  0  0  0  0
 32 37  1  0  0  0  0
 33 39  1  0  0  0  0
 33 32  1  0  0  0  0
 34 29  1  1  0  0  0
 34 36  1  0  0  0  0
 35 38  1  0  0  0  0
 37 40  2  0  0  0  0
 39 34  1  0  0  0  0
 40 36  1  0  0  0  0
 40 38  1  0  0  0  0
 43 42  1  0  0  0  0
 43 44  1  0  0  0  0
 43 41  1  0  0  0  0
M  END
>  <MODEL>
9

>  <REMARK>
 VINA RESULT:      -7.1      3.282      5.299
  Name = 
  8 active torsions:
  status: ('A' for Active; 'I' for Inactive)
    1  A    between atoms: C_3  and  O_10
    2  A    between atoms: C_9  and  C_38
    3  A    between atoms: C_11  and  C_38
    4  A    between atoms: C_20  and  C_34
    5  A    between atoms: C_22  and  C_32
    6  A    between atoms: C_23  and  C_32
    7  A    between atoms: C_28  and  N_37
    8  A    between atoms: N_37  and  C_38
                            x       y       z     vdW  Elec       q    Type
                         _______ _______ _______ _____ _____    ______ ____

>  <TORSDO>
F 8

$$$$
