=
 OpenBabel11062415433D

 27 28  0  0  1  0  0  0  0  0999 V2000
  189.6660  178.1250  143.9580 C   0  0  1  0  0  3  0  0  0  0  0  0
  187.3660  177.4800  146.8860 C   0  0  2  0  0  3  0  0  0  0  0  0
  186.8060  176.6090  145.7470 C   0  0  0  0  0  2  0  0  0  0  0  0
  185.9430  178.2170  142.5990 O   0  0  0  0  0  0  0  0  0  0  0  0
  187.8750  176.4020  143.5030 C   0  0  0  0  0  2  0  0  0  0  0  0
  190.9770  178.7870  143.5800 C   0  0  0  0  0  2  0  0  0  0  0  0
  190.4220  177.1050  147.3740 O   0  0  0  0  0  0  0  0  0  0  0  0
  188.9600  177.2890  142.8800 C   0  0  2  0  0  3  0  0  0  0  0  0
  186.1100  178.1470  143.8460 C   0  0  0  0  0  0  0  0  0  0  0  0
  189.8250  177.5470  146.3570 C   0  0  0  0  0  0  0  0  0  0  0  0
  186.3970  178.3700  147.3450 O   0  0  0  0  0  1  0  0  0  0  0  0
  191.6660  178.0270  144.7050 C   0  0  0  0  0  2  0  0  0  0  0  0
  186.9980  177.1570  144.3990 N   0  0  0  0  0  0  0  0  0  0  0  0
  188.5650  178.2070  146.5000 N   0  0  0  0  0  2  0  0  0  0  0  0
  190.3770  177.2750  144.9920 C   0  0  2  0  0  3  0  0  0  0  0  0
  185.4270  179.1530  144.7110 C   0  0  0  0  0  2  0  0  0  0  0  0
  184.1810  179.6870  144.0200 C   0  0  0  0  0  2  0  0  0  0  0  0
  182.9500  178.9040  144.4480 C   0  0  0  0  0  2  0  0  0  0  0  0
  182.5180  178.7140  142.1090 O   0  0  0  0  0  1  0  0  0  0  0  0
  181.9070  178.9290  143.3450 C   0  0  0  0  0  2  0  0  0  0  0  0
  189.8980  176.4230  142.0390 C   0  0  0  0  0  2  0  0  0  0  0  0
  190.5160  176.0270  139.7730 O   0  0  0  0  0  1  0  0  0  0  0  0
  190.0850  177.0190  140.6530 C   0  0  1  0  0  3  0  0  0  0  0  0
  188.7780  177.6150  140.1520 C   0  0  0  0  0  2  0  0  0  0  0  0
  189.0360  178.6070  139.0250 C   0  0  0  0  0  2  0  0  0  0  0  0
  189.3490  177.6050  136.7550 C   0  0  0  0  0  1  0  0  0  0  0  0
  188.3450  178.1750  137.7390 C   0  0  0  0  0  2  0  0  0  0  0  0
  1  6  1  6  0  0  0
  1 15  1  0  0  0  0
  2 11  1  6  0  0  0
  3  2  1  0  0  0  0
  4  9  2  0  0  0  0
  5 13  1  0  0  0  0
  6 12  1  0  0  0  0
  8 21  1  1  0  0  0
  8  5  1  0  0  0  0
  8  1  1  0  0  0  0
  9 13  1  0  0  0  0
  9 16  1  0  0  0  0
 10 14  1  0  0  0  0
 10  7  2  0  0  0  0
 13  3  1  0  0  0  0
 14  2  1  0  0  0  0
 15 12  1  1  0  0  0
 15 10  1  0  0  0  0
 17 18  1  0  0  0  0
 17 16  1  0  0  0  0
 19 20  1  0  0  0  0
 20 18  1  0  0  0  0
 23 22  1  6  0  0  0
 23 21  1  0  0  0  0
 24 23  1  0  0  0  0
 25 24  1  0  0  0  0
 26 27  1  0  0  0  0
 27 25  1  0  0  0  0
M  END
>  <MODEL>
1

>  <REMARK>
 VINA RESULT:      -7.1      0.000      0.000
  Name = 
  9 active torsions:
  status: ('A' for Active; 'I' for Inactive)
    1  A    between atoms: C_4  and  C_22
    2  A    between atoms: C_4  and  C_24
    3  A    between atoms: C_10  and  C_26
    4  A    between atoms: C_11  and  C_20
    5  A    between atoms: C_11  and  C_27
    6  A    between atoms: C_12  and  C_14
    7  A    between atoms: C_14  and  C_27
    8  A    between atoms: C_22  and  C_26
    9  A    between atoms: C_24  and  C_25
                            x       y       z     vdW  Elec       q    Type
                         _______ _______ _______ _____ _____    ______ ____

>  <TORSDO>
F 9

$$$$
=
 OpenBabel11062415433D

 27 28  0  0  1  0  0  0  0  0999 V2000
  189.6130  178.2480  143.9310 C   0  0  1  0  0  3  0  0  0  0  0  0
  187.3390  177.4220  146.8340 C   0  0  2  0  0  3  0  0  0  0  0  0
  186.7760  176.6140  145.6510 C   0  0  0  0  0  2  0  0  0  0  0  0
  185.8790  178.3940  142.6070 O   0  0  0  0  0  0  0  0  0  0  0  0
  187.8290  176.5430  143.3910 C   0  0  0  0  0  2  0  0  0  0  0  0
  190.9170  178.9400  143.5830 C   0  0  0  0  0  2  0  0  0  0  0  0
  190.4010  177.0390  147.2780 O   0  0  0  0  0  0  0  0  0  0  0  0
  188.9040  177.4710  142.8120 C   0  0  2  0  0  3  0  0  0  0  0  0
  186.0560  178.2530  143.8470 C   0  0  0  0  0  0  0  0  0  0  0  0
  189.7940  177.5340  146.2920 C   0  0  0  0  0  0  0  0  0  0  0  0
  186.3680  178.2770  147.3500 O   0  0  0  0  0  1  0  0  0  0  0  0
  191.6190  178.1200  144.6570 C   0  0  0  0  0  2  0  0  0  0  0  0
  186.9540  177.2390  144.3350 N   0  0  0  0  0  0  0  0  0  0  0  0
  188.5310  178.1770  146.4820 N   0  0  0  0  0  2  0  0  0  0  0  0
  190.3370  177.3450  144.9100 C   0  0  2  0  0  3  0  0  0  0  0  0
  185.3730  179.2040  144.7740 C   0  0  0  0  0  2  0  0  0  0  0  0
  184.0950  179.7340  144.1410 C   0  0  0  0  0  2  0  0  0  0  0  0
  182.9020  178.8800  144.5400 C   0  0  0  0  0  2  0  0  0  0  0  0
  180.6190  178.4520  143.9970 O   0  0  0  0  0  1  0  0  0  0  0  0
  181.8000  179.0070  143.5040 C   0  0  0  0  0  2  0  0  0  0  0  0
  189.8400  176.6610  141.9160 C   0  0  0  0  0  2  0  0  0  0  0  0
  188.9210  178.1580  140.3070 O   0  0  0  0  0  1  0  0  0  0  0  0
  189.5360  176.9150  140.4480 C   0  0  1  0  0  3  0  0  0  0  0  0
  190.8170  176.8820  139.6290 C   0  0  0  0  0  2  0  0  0  0  0  0
  191.9800  177.4600  140.4250 C   0  0  0  0  0  2  0  0  0  0  0  0
  193.1020  176.5390  138.3880 C   0  0  0  0  0  1  0  0  0  0  0  0
  193.3140  177.1480  139.7610 C   0  0  0  0  0  2  0  0  0  0  0  0
  1  6  1  6  0  0  0
  1 15  1  0  0  0  0
  2 11  1  6  0  0  0
  3  2  1  0  0  0  0
  4  9  2  0  0  0  0
  5 13  1  0  0  0  0
  6 12  1  0  0  0  0
  8 21  1  1  0  0  0
  8  5  1  0  0  0  0
  8  1  1  0  0  0  0
  9 13  1  0  0  0  0
  9 16  1  0  0  0  0
 10 14  1  0  0  0  0
 10  7  2  0  0  0  0
 13  3  1  0  0  0  0
 14  2  1  0  0  0  0
 15 12  1  1  0  0  0
 15 10  1  0  0  0  0
 17 18  1  0  0  0  0
 17 16  1  0  0  0  0
 20 19  1  0  0  0  0
 20 18  1  0  0  0  0
 23 22  1  1  0  0  0
 23 21  1  0  0  0  0
 24 25  1  0  0  0  0
 24 23  1  0  0  0  0
 26 27  1  0  0  0  0
 27 25  1  0  0  0  0
M  END
>  <MODEL>
2

>  <REMARK>
 VINA RESULT:      -6.9      1.313      1.722
  Name = 
  9 active torsions:
  status: ('A' for Active; 'I' for Inactive)
    1  A    between atoms: C_4  and  C_22
    2  A    between atoms: C_4  and  C_24
    3  A    between atoms: C_10  and  C_26
    4  A    between atoms: C_11  and  C_20
    5  A    between atoms: C_11  and  C_27
    6  A    between atoms: C_12  and  C_14
    7  A    between atoms: C_14  and  C_27
    8  A    between atoms: C_22  and  C_26
    9  A    between atoms: C_24  and  C_25
                            x       y       z     vdW  Elec       q    Type
                         _______ _______ _______ _____ _____    ______ ____

>  <TORSDO>
F 9

$$$$
=
 OpenBabel11062415433D

 27 28  0  0  1  0  0  0  0  0999 V2000
  183.5550  177.7040  141.1220 C   0  0  1  0  0  3  0  0  0  0  0  0
  183.5980  179.4090  144.4940 C   0  0  2  0  0  3  0  0  0  0  0  0
  184.8300  179.9630  143.7570 C   0  0  0  0  0  2  0  0  0  0  0  0
  187.2830  177.6070  142.4640 O   0  0  0  0  0  0  0  0  0  0  0  0
  185.4100  179.3950  141.3990 C   0  0  0  0  0  2  0  0  0  0  0  0
  182.6990  176.8270  140.2270 C   0  0  0  0  0  2  0  0  0  0  0  0
  180.9580  179.5900  142.8480 O   0  0  0  0  0  0  0  0  0  0  0  0
  184.8590  178.2580  140.5300 C   0  0  2  0  0  3  0  0  0  0  0  0
  186.3880  178.0190  143.2490 C   0  0  0  0  0  0  0  0  0  0  0  0
  182.0060  178.9360  142.6040 C   0  0  0  0  0  0  0  0  0  0  0  0
  183.9750  178.7970  145.6880 O   0  0  0  0  0  1  0  0  0  0  0  0
  181.5470  177.8070  140.3990 C   0  0  0  0  0  2  0  0  0  0  0  0
  185.4590  179.0300  142.8150 N   0  0  0  0  0  0  0  0  0  0  0  0
  182.8280  178.4810  143.6810 N   0  0  0  0  0  2  0  0  0  0  0  0
  182.4500  178.7400  141.1880 C   0  0  2  0  0  3  0  0  0  0  0  0
  186.2790  177.3860  144.5970 C   0  0  0  0  0  2  0  0  0  0  0  0
  187.5410  177.6420  145.4060 C   0  0  0  0  0  2  0  0  0  0  0  0
  187.2060  177.8600  146.8730 C   0  0  0  0  0  2  0  0  0  0  0  0
  188.8990  178.2830  148.5000 O   0  0  0  0  0  1  0  0  0  0  0  0
  188.2960  177.2730  147.7510 C   0  0  0  0  0  2  0  0  0  0  0  0
  184.7410  178.7390  139.0840 C   0  0  0  0  0  2  0  0  0  0  0  0
  184.6970  177.6460  136.9680 O   0  0  0  0  0  1  0  0  0  0  0  0
  185.4450  177.7800  138.1370 C   0  0  1  0  0  3  0  0  0  0  0  0
  186.8350  178.2960  137.7980 C   0  0  0  0  0  2  0  0  0  0  0  0
  187.9040  177.4550  138.4840 C   0  0  0  0  0  2  0  0  0  0  0  0
  190.1700  177.5940  139.5340 C   0  0  0  0  0  1  0  0  0  0  0  0
  188.8630  178.3250  139.2850 C   0  0  0  0  0  2  0  0  0  0  0  0
  1  6  1  6  0  0  0
  1 15  1  0  0  0  0
  2 11  1  1  0  0  0
  3  2  1  0  0  0  0
  4  9  2  0  0  0  0
  5 13  1  0  0  0  0
  6 12  1  0  0  0  0
  8 21  1  6  0  0  0
  8  1  1  0  0  0  0
  8  5  1  0  0  0  0
  9 16  1  0  0  0  0
 10  7  2  0  0  0  0
 10 14  1  0  0  0  0
 13  9  1  0  0  0  0
 13  3  1  0  0  0  0
 14  2  1  0  0  0  0
 15 12  1  6  0  0  0
 15 10  1  0  0  0  0
 16 17  1  0  0  0  0
 17 18  1  0  0  0  0
 18 20  1  0  0  0  0
 20 19  1  0  0  0  0
 23 22  1  6  0  0  0
 23 21  1  0  0  0  0
 24 23  1  0  0  0  0
 24 25  1  0  0  0  0
 25 27  1  0  0  0  0
 27 26  1  0  0  0  0
M  END
>  <MODEL>
3

>  <REMARK>
 VINA RESULT:      -6.3      2.551      6.078
  Name = 
  9 active torsions:
  status: ('A' for Active; 'I' for Inactive)
    1  A    between atoms: C_4  and  C_22
    2  A    between atoms: C_4  and  C_24
    3  A    between atoms: C_10  and  C_26
    4  A    between atoms: C_11  and  C_20
    5  A    between atoms: C_11  and  C_27
    6  A    between atoms: C_12  and  C_14
    7  A    between atoms: C_14  and  C_27
    8  A    between atoms: C_22  and  C_26
    9  A    between atoms: C_24  and  C_25
                            x       y       z     vdW  Elec       q    Type
                         _______ _______ _______ _____ _____    ______ ____

>  <TORSDO>
F 9

$$$$
=
 OpenBabel11062415433D

 27 28  0  0  1  0  0  0  0  0999 V2000
  183.5110  177.7630  141.1060 C   0  0  1  0  0  3  0  0  0  0  0  0
  183.5960  179.3560  144.5320 C   0  0  2  0  0  3  0  0  0  0  0  0
  184.8030  179.9560  143.7890 C   0  0  0  0  0  2  0  0  0  0  0  0
  187.2670  177.6870  142.3690 O   0  0  0  0  0  0  0  0  0  0  0  0
  185.3430  179.4770  141.4020 C   0  0  0  0  0  2  0  0  0  0  0  0
  182.6510  176.9030  140.2000 C   0  0  0  0  0  2  0  0  0  0  0  0
  180.9190  179.5470  142.9460 O   0  0  0  0  0  0  0  0  0  0  0  0
  184.7930  178.3590  140.5070 C   0  0  2  0  0  3  0  0  0  0  0  0
  186.3820  178.0570  143.1860 C   0  0  0  0  0  0  0  0  0  0  0  0
  181.9720  178.9190  142.6600 C   0  0  0  0  0  0  0  0  0  0  0  0
  184.0070  178.7120  145.6970 O   0  0  0  0  0  1  0  0  0  0  0  0
  181.4860  177.8560  140.4280 C   0  0  0  0  0  2  0  0  0  0  0  0
  185.4280  179.0650  142.8040 N   0  0  0  0  0  0  0  0  0  0  0  0
  182.8240  178.4430  143.7040 N   0  0  0  0  0  2  0  0  0  0  0  0
  182.3910  178.7780  141.2290 C   0  0  2  0  0  3  0  0  0  0  0  0
  186.3110  177.3780  144.5130 C   0  0  0  0  0  2  0  0  0  0  0  0
  187.6030  177.5910  145.2870 C   0  0  0  0  0  2  0  0  0  0  0  0
  187.3210  177.7550  146.7720 C   0  0  0  0  0  2  0  0  0  0  0  0
  188.6810  178.1830  148.6850 O   0  0  0  0  0  1  0  0  0  0  0  0
  188.5350  177.3400  147.5830 C   0  0  0  0  0  2  0  0  0  0  0  0
  184.6380  178.8850  139.0810 C   0  0  0  0  0  2  0  0  0  0  0  0
  186.9310  178.2490  138.9960 O   0  0  0  0  0  1  0  0  0  0  0  0
  185.7950  178.4300  138.2080 C   0  0  1  0  0  3  0  0  0  0  0  0
  185.4480  177.1250  137.5060 C   0  0  0  0  0  2  0  0  0  0  0  0
  184.0920  177.2280  136.8200 C   0  0  0  0  0  2  0  0  0  0  0  0
  183.9850  174.8410  137.5600 C   0  0  0  0  0  1  0  0  0  0  0  0
  183.5120  175.8510  136.5300 C   0  0  0  0  0  2  0  0  0  0  0  0
  1  6  1  6  0  0  0
  1 15  1  0  0  0  0
  2 11  1  1  0  0  0
  3  2  1  0  0  0  0
  4  9  2  0  0  0  0
  5 13  1  0  0  0  0
  6 12  1  0  0  0  0
  8 21  1  6  0  0  0
  8  1  1  0  0  0  0
  8  5  1  0  0  0  0
  9 16  1  0  0  0  0
 10  7  2  0  0  0  0
 10 14  1  0  0  0  0
 13  9  1  0  0  0  0
 13  3  1  0  0  0  0
 14  2  1  0  0  0  0
 15 12  1  6  0  0  0
 15 10  1  0  0  0  0
 16 17  1  0  0  0  0
 17 18  1  0  0  0  0
 18 20  1  0  0  0  0
 20 19  1  0  0  0  0
 23 22  1  1  0  0  0
 23 21  1  0  0  0  0
 24 23  1  0  0  0  0
 25 24  1  0  0  0  0
 27 25  1  0  0  0  0
 27 26  1  0  0  0  0
M  END
>  <MODEL>
4

>  <REMARK>
 VINA RESULT:      -6.3      2.991      6.297
  Name = 
  9 active torsions:
  status: ('A' for Active; 'I' for Inactive)
    1  A    between atoms: C_4  and  C_22
    2  A    between atoms: C_4  and  C_24
    3  A    between atoms: C_10  and  C_26
    4  A    between atoms: C_11  and  C_20
    5  A    between atoms: C_11  and  C_27
    6  A    between atoms: C_12  and  C_14
    7  A    between atoms: C_14  and  C_27
    8  A    between atoms: C_22  and  C_26
    9  A    between atoms: C_24  and  C_25
                            x       y       z     vdW  Elec       q    Type
                         _______ _______ _______ _____ _____    ______ ____

>  <TORSDO>
F 9

$$$$
=
 OpenBabel11062415433D

 27 28  0  0  1  0  0  0  0  0999 V2000
  183.8310  179.4280  142.9330 C   0  0  1  0  0  3  0  0  0  0  0  0
  180.5170  178.9400  141.1850 C   0  0  2  0  0  3  0  0  0  0  0  0
  181.5190  178.1060  140.3680 C   0  0  0  0  0  2  0  0  0  0  0  0
  184.4730  179.7630  139.0360 O   0  0  0  0  0  0  0  0  0  0  0  0
  183.9200  177.8260  140.9820 C   0  0  0  0  0  2  0  0  0  0  0  0
  184.4560  180.0020  144.1910 C   0  0  0  0  0  2  0  0  0  0  0  0
  180.6020  178.3650  144.2480 O   0  0  0  0  0  0  0  0  0  0  0  0
  184.7470  178.6390  141.9860 C   0  0  2  0  0  3  0  0  0  0  0  0
  183.2780  179.6840  139.4290 C   0  0  0  0  0  0  0  0  0  0  0  0
  181.4960  178.8430  143.5010 C   0  0  0  0  0  0  0  0  0  0  0  0
  179.8970  179.8920  140.3790 O   0  0  0  0  0  1  0  0  0  0  0  0
  183.4690  179.1990  145.0270 C   0  0  0  0  0  2  0  0  0  0  0  0
  182.8870  178.6380  140.3380 N   0  0  0  0  0  0  0  0  0  0  0  0
  181.1290  179.5860  142.3360 N   0  0  0  0  0  2  0  0  0  0  0  0
  182.9360  178.5340  143.7690 C   0  0  2  0  0  3  0  0  0  0  0  0
  182.3140  180.7340  138.9850 C   0  0  0  0  0  2  0  0  0  0  0  0
  181.7060  180.3620  137.6410 C   0  0  0  0  0  2  0  0  0  0  0  0
  180.6250  181.3540  137.2440 C   0  0  0  0  0  2  0  0  0  0  0  0
  181.2470  183.6450  137.0150 O   0  0  0  0  0  1  0  0  0  0  0  0
  180.8530  182.6820  137.9430 C   0  0  0  0  0  2  0  0  0  0  0  0
  185.7360  177.7120  142.6920 C   0  0  0  0  0  2  0  0  0  0  0  0
  187.2290  179.0970  141.4550 O   0  0  0  0  0  1  0  0  0  0  0  0
  187.1320  177.8700  142.1120 C   0  0  1  0  0  3  0  0  0  0  0  0
  188.1760  177.7980  143.2160 C   0  0  0  0  0  2  0  0  0  0  0  0
  187.6580  176.9830  144.3940 C   0  0  0  0  0  2  0  0  0  0  0  0
  186.6040  177.8960  146.4710 C   0  0  0  0  0  1  0  0  0  0  0  0
  187.9050  177.7000  145.7140 C   0  0  0  0  0  2  0  0  0  0  0  0
  1 15  1  0  0  0  0
  1  6  1  1  0  0  0
  2 11  1  6  0  0  0
  2 14  1  0  0  0  0
  3  2  1  0  0  0  0
  4  9  2  0  0  0  0
  5  8  1  0  0  0  0
  6 12  1  0  0  0  0
  8 21  1  1  0  0  0
  8  1  1  0  0  0  0
  9 13  1  0  0  0  0
 10 15  1  0  0  0  0
 10  7  2  0  0  0  0
 13  3  1  0  0  0  0
 13  5  1  0  0  0  0
 14 10  1  0  0  0  0
 15 12  1  1  0  0  0
 16  9  1  0  0  0  0
 17 16  1  0  0  0  0
 18 17  1  0  0  0  0
 18 20  1  0  0  0  0
 19 20  1  0  0  0  0
 23 22  1  1  0  0  0
 23 21  1  0  0  0  0
 23 24  1  0  0  0  0
 24 25  1  0  0  0  0
 25 27  1  0  0  0  0
 27 26  1  0  0  0  0
M  END
>  <MODEL>
5

>  <REMARK>
 VINA RESULT:      -6.2      3.752      7.060
  Name = 
  9 active torsions:
  status: ('A' for Active; 'I' for Inactive)
    1  A    between atoms: C_4  and  C_22
    2  A    between atoms: C_4  and  C_24
    3  A    between atoms: C_10  and  C_26
    4  A    between atoms: C_11  and  C_20
    5  A    between atoms: C_11  and  C_27
    6  A    between atoms: C_12  and  C_14
    7  A    between atoms: C_14  and  C_27
    8  A    between atoms: C_22  and  C_26
    9  A    between atoms: C_24  and  C_25
                            x       y       z     vdW  Elec       q    Type
                         _______ _______ _______ _____ _____    ______ ____

>  <TORSDO>
F 9

$$$$
=
 OpenBabel11062415433D

 27 28  0  0  1  0  0  0  0  0999 V2000
  188.4520  178.3250  141.9190 C   0  0  1  0  0  3  0  0  0  0  0  0
  191.0650  175.7540  142.8380 C   0  0  2  0  0  3  0  0  0  0  0  0
  189.8130  175.3460  143.6350 C   0  0  0  0  0  2  0  0  0  0  0  0
  188.2860  177.8000  145.8440 O   0  0  0  0  0  0  0  0  0  0  0  0
  187.6120  176.5040  143.4550 C   0  0  0  0  0  2  0  0  0  0  0  0
  188.1730  179.4690  140.9620 C   0  0  0  0  0  2  0  0  0  0  0  0
  190.5320  176.2100  139.8010 O   0  0  0  0  0  0  0  0  0  0  0  0
  187.3040  177.8710  142.8330 C   0  0  2  0  0  3  0  0  0  0  0  0
  189.2290  177.2470  145.2180 C   0  0  0  0  0  0  0  0  0  0  0  0
  190.0740  176.8350  140.7930 C   0  0  0  0  0  0  0  0  0  0  0  0
  192.1390  175.9860  143.6950 O   0  0  0  0  0  1  0  0  0  0  0  0
  188.5300  178.5580  139.7960 C   0  0  0  0  0  2  0  0  0  0  0  0
  188.9500  176.4600  144.0460 N   0  0  0  0  0  0  0  0  0  0  0  0
  190.8400  176.9190  141.9970 N   0  0  0  0  0  2  0  0  0  0  0  0
  188.6830  177.3860  140.7510 C   0  0  2  0  0  3  0  0  0  0  0  0
  190.6280  177.4890  145.6820 C   0  0  0  0  0  2  0  0  0  0  0  0
  190.8840  176.7620  146.9940 C   0  0  0  0  0  2  0  0  0  0  0  0
  192.0610  175.8090  146.8620 C   0  0  0  0  0  2  0  0  0  0  0  0
  192.8890  176.8610  148.8370 O   0  0  0  0  0  1  0  0  0  0  0  0
  192.7370  175.6250  148.2080 C   0  0  0  0  0  2  0  0  0  0  0  0
  185.9380  177.8180  142.1490 C   0  0  0  0  0  2  0  0  0  0  0  0
  184.8010  179.7470  141.3360 O   0  0  0  0  0  1  0  0  0  0  0  0
  185.1110  179.0440  142.5000 C   0  0  1  0  0  3  0  0  0  0  0  0
  183.8270  178.6320  143.2050 C   0  0  0  0  0  2  0  0  0  0  0  0
  183.7700  179.2240  144.6080 C   0  0  0  0  0  2  0  0  0  0  0  0
  184.9220  178.2660  146.6100 C   0  0  0  0  0  1  0  0  0  0  0  0
  185.0990  179.0620  145.3310 C   0  0  0  0  0  2  0  0  0  0  0  0
  1  6  1  6  0  0  0
  1  8  1  0  0  0  0
  2  3  1  0  0  0  0
  2 11  1  1  0  0  0
  3 13  1  0  0  0  0
  5 13  1  0  0  0  0
  7 10  2  0  0  0  0
  8 21  1  6  0  0  0
  8  5  1  0  0  0  0
  9 16  1  0  0  0  0
  9  4  2  0  0  0  0
 10 14  1  0  0  0  0
 12  6  1  0  0  0  0
 13  9  1  0  0  0  0
 14  2  1  0  0  0  0
 15 12  1  6  0  0  0
 15 10  1  0  0  0  0
 15  1  1  0  0  0  0
 16 17  1  0  0  0  0
 18 17  1  0  0  0  0
 18 20  1  0  0  0  0
 20 19  1  0  0  0  0
 21 23  1  0  0  0  0
 23 22  1  6  0  0  0
 23 24  1  0  0  0  0
 24 25  1  0  0  0  0
 25 27  1  0  0  0  0
 27 26  1  0  0  0  0
M  END
>  <MODEL>
6

>  <REMARK>
 VINA RESULT:      -6.2      2.122      6.688
  Name = 
  9 active torsions:
  status: ('A' for Active; 'I' for Inactive)
    1  A    between atoms: C_4  and  C_22
    2  A    between atoms: C_4  and  C_24
    3  A    between atoms: C_10  and  C_26
    4  A    between atoms: C_11  and  C_20
    5  A    between atoms: C_11  and  C_27
    6  A    between atoms: C_12  and  C_14
    7  A    between atoms: C_14  and  C_27
    8  A    between atoms: C_22  and  C_26
    9  A    between atoms: C_24  and  C_25
                            x       y       z     vdW  Elec       q    Type
                         _______ _______ _______ _____ _____    ______ ____

>  <TORSDO>
F 9

$$$$
=
 OpenBabel11062415433D

 27 28  0  0  1  0  0  0  0  0999 V2000
  188.1030  177.0180  142.2680 C   0  0  1  0  0  3  0  0  0  0  0  0
  191.0170  177.1180  139.8640 C   0  0  2  0  0  3  0  0  0  0  0  0
  190.0850  178.2520  139.4000 C   0  0  0  0  0  2  0  0  0  0  0  0
  186.6260  177.4420  138.6140 O   0  0  0  0  0  0  0  0  0  0  0  0
  187.9860  178.8960  140.5830 C   0  0  0  0  0  2  0  0  0  0  0  0
  187.6320  176.3840  143.5630 C   0  0  0  0  0  2  0  0  0  0  0  0
  191.6860  177.2020  142.9070 O   0  0  0  0  0  0  0  0  0  0  0  0
  187.2180  178.1120  141.6530 C   0  0  2  0  0  3  0  0  0  0  0  0
  187.8620  177.2210  138.7240 C   0  0  0  0  0  0  0  0  0  0  0  0
  190.5750  177.0340  142.3400 C   0  0  0  0  0  0  0  0  0  0  0  0
  191.2280  176.2040  138.8340 O   0  0  0  0  0  1  0  0  0  0  0  0
  188.9240  176.8340  144.2320 C   0  0  0  0  0  2  0  0  0  0  0  0
  188.6560  178.0110  139.6300 N   0  0  0  0  0  0  0  0  0  0  0  0
  190.5200  176.4300  141.0450 N   0  0  0  0  0  2  0  0  0  0  0  0
  189.3280  177.5730  142.9670 C   0  0  2  0  0  3  0  0  0  0  0  0
  188.4530  176.0870  137.9540 C   0  0  0  0  0  2  0  0  0  0  0  0
  187.6300  175.8100  136.7040 C   0  0  0  0  0  2  0  0  0  0  0  0
  187.2060  174.3520  136.6500 C   0  0  0  0  0  2  0  0  0  0  0  0
  185.7180  173.0300  137.9670 O   0  0  0  0  0  1  0  0  0  0  0  0
  185.8010  174.1960  137.2050 C   0  0  0  0  0  2  0  0  0  0  0  0
  186.6280  179.0900  142.6690 C   0  0  0  0  0  2  0  0  0  0  0  0
  184.6850  178.1130  141.6980 O   0  0  0  0  0  1  0  0  0  0  0  0
  185.1100  179.0150  142.6740 C   0  0  1  0  0  3  0  0  0  0  0  0
  184.6060  178.5680  144.0380 C   0  0  0  0  0  2  0  0  0  0  0  0
  185.2740  179.3690  145.1470 C   0  0  0  0  0  2  0  0  0  0  0  0
  186.6510  177.9800  146.7060 C   0  0  0  0  0  1  0  0  0  0  0  0
  185.2860  178.5950  146.4580 C   0  0  0  0  0  2  0  0  0  0  0  0
  1 15  1  0  0  0  0
  1  6  1  1  0  0  0
  2 11  1  6  0  0  0
  2 14  1  0  0  0  0
  3 13  1  0  0  0  0
  3  2  1  0  0  0  0
  4  9  2  0  0  0  0
  5  8  1  0  0  0  0
  6 12  1  0  0  0  0
  8  1  1  0  0  0  0
  8 21  1  1  0  0  0
  9 13  1  0  0  0  0
 10  7  2  0  0  0  0
 10 15  1  0  0  0  0
 13  5  1  0  0  0  0
 14 10  1  0  0  0  0
 15 12  1  1  0  0  0
 16  9  1  0  0  0  0
 17 16  1  0  0  0  0
 18 17  1  0  0  0  0
 18 20  1  0  0  0  0
 20 19  1  0  0  0  0
 21 23  1  0  0  0  0
 23 22  1  6  0  0  0
 23 24  1  0  0  0  0
 24 25  1  0  0  0  0
 25 27  1  0  0  0  0
 27 26  1  0  0  0  0
M  END
>  <MODEL>
7

>  <REMARK>
 VINA RESULT:      -5.9      2.691      6.593
  Name = 
  9 active torsions:
  status: ('A' for Active; 'I' for Inactive)
    1  A    between atoms: C_4  and  C_22
    2  A    between atoms: C_4  and  C_24
    3  A    between atoms: C_10  and  C_26
    4  A    between atoms: C_11  and  C_20
    5  A    between atoms: C_11  and  C_27
    6  A    between atoms: C_12  and  C_14
    7  A    between atoms: C_14  and  C_27
    8  A    between atoms: C_22  and  C_26
    9  A    between atoms: C_24  and  C_25
                            x       y       z     vdW  Elec       q    Type
                         _______ _______ _______ _____ _____    ______ ____

>  <TORSDO>
F 9

$$$$
=
 OpenBabel11062415433D

 27 28  0  0  1  0  0  0  0  0999 V2000
  188.0530  177.0180  142.3310 C   0  0  1  0  0  3  0  0  0  0  0  0
  191.0660  177.0990  140.0520 C   0  0  2  0  0  3  0  0  0  0  0  0
  190.1710  178.2520  139.5630 C   0  0  0  0  0  2  0  0  0  0  0  0
  186.7360  177.5020  138.6240 O   0  0  0  0  0  0  0  0  0  0  0  0
  188.0340  178.9150  140.6640 C   0  0  0  0  0  2  0  0  0  0  0  0
  187.5190  176.3780  143.5990 C   0  0  0  0  0  2  0  0  0  0  0  0
  191.6080  177.1420  143.1210 O   0  0  0  0  0  0  0  0  0  0  0  0
  187.2100  178.1320  141.6930 C   0  0  2  0  0  3  0  0  0  0  0  0
  187.9630  177.2610  138.7830 C   0  0  0  0  0  0  0  0  0  0  0  0
  190.5190  176.9970  142.5060 C   0  0  0  0  0  0  0  0  0  0  0  0
  191.3060  176.1930  139.0220 O   0  0  0  0  0  1  0  0  0  0  0  0
  188.7880  176.8010  144.3260 C   0  0  0  0  0  2  0  0  0  0  0  0
  188.7290  178.0290  139.7290 N   0  0  0  0  0  0  0  0  0  0  0  0
  190.5100  176.4070  141.2040 N   0  0  0  0  0  2  0  0  0  0  0  0
  189.2550  177.5480  143.0870 C   0  0  2  0  0  3  0  0  0  0  0  0
  188.5690  176.1260  138.0260 C   0  0  0  0  0  2  0  0  0  0  0  0
  188.3790  176.3270  136.5300 C   0  0  0  0  0  2  0  0  0  0  0  0
  189.5790  177.0390  135.9250 C   0  0  0  0  0  2  0  0  0  0  0  0
  189.7550  174.9090  134.8650 O   0  0  0  0  0  1  0  0  0  0  0  0
  190.1100  176.2530  134.7410 C   0  0  0  0  0  2  0  0  0  0  0  0
  186.5930  179.1080  142.6940 C   0  0  0  0  0  2  0  0  0  0  0  0
  184.6780  178.1510  141.6490 O   0  0  0  0  0  1  0  0  0  0  0  0
  185.0750  179.0580  142.6310 C   0  0  1  0  0  3  0  0  0  0  0  0
  184.5030  178.6370  143.9770 C   0  0  0  0  0  2  0  0  0  0  0  0
  185.3490  179.1880  145.1170 C   0  0  0  0  0  2  0  0  0  0  0  0
  186.6780  178.2560  147.0210 C   0  0  0  0  0  1  0  0  0  0  0  0
  185.3320  178.2550  146.3200 C   0  0  0  0  0  2  0  0  0  0  0  0
  1 15  1  0  0  0  0
  1  6  1  1  0  0  0
  2 11  1  6  0  0  0
  2 14  1  0  0  0  0
  3 13  1  0  0  0  0
  3  2  1  0  0  0  0
  4  9  2  0  0  0  0
  5  8  1  0  0  0  0
  6 12  1  0  0  0  0
  8  1  1  0  0  0  0
  8 21  1  1  0  0  0
  9 13  1  0  0  0  0
 10 15  1  0  0  0  0
 10  7  2  0  0  0  0
 13  5  1  0  0  0  0
 14 10  1  0  0  0  0
 15 12  1  1  0  0  0
 16  9  1  0  0  0  0
 17 16  1  0  0  0  0
 18 17  1  0  0  0  0
 20 19  1  0  0  0  0
 20 18  1  0  0  0  0
 23 22  1  6  0  0  0
 23 21  1  0  0  0  0
 23 24  1  0  0  0  0
 24 25  1  0  0  0  0
 25 27  1  0  0  0  0
 27 26  1  0  0  0  0
M  END
>  <MODEL>
8

>  <REMARK>
 VINA RESULT:      -5.8      2.533      7.001
  Name = 
  9 active torsions:
  status: ('A' for Active; 'I' for Inactive)
    1  A    between atoms: C_4  and  C_22
    2  A    between atoms: C_4  and  C_24
    3  A    between atoms: C_10  and  C_26
    4  A    between atoms: C_11  and  C_20
    5  A    between atoms: C_11  and  C_27
    6  A    between atoms: C_12  and  C_14
    7  A    between atoms: C_14  and  C_27
    8  A    between atoms: C_22  and  C_26
    9  A    between atoms: C_24  and  C_25
                            x       y       z     vdW  Elec       q    Type
                         _______ _______ _______ _____ _____    ______ ____

>  <TORSDO>
F 9

$$$$
=
 OpenBabel11062415433D

 27 28  0  0  1  0  0  0  0  0999 V2000
  189.6400  175.0730  137.4850 C   0  0  1  0  0  3  0  0  0  0  0  0
  187.6290  178.2530  137.8360 C   0  0  2  0  0  3  0  0  0  0  0  0
  189.0670  178.6540  138.2100 C   0  0  0  0  0  2  0  0  0  0  0  0
  190.7420  176.8190  140.8690 O   0  0  0  0  0  0  0  0  0  0  0  0
  191.0160  177.1020  138.0960 C   0  0  0  0  0  2  0  0  0  0  0  0
  189.5580  173.6470  136.9740 C   0  0  0  0  0  2  0  0  0  0  0  0
  187.4110  176.7290  135.1250 O   0  0  0  0  0  0  0  0  0  0  0  0
  191.0100  175.5740  137.9680 C   0  0  2  0  0  3  0  0  0  0  0  0
  189.7560  177.3050  140.2520 C   0  0  0  0  0  0  0  0  0  0  0  0
  188.0000  176.3900  136.1850 C   0  0  0  0  0  0  0  0  0  0  0  0
  186.7540  178.5270  138.8850 O   0  0  0  0  0  1  0  0  0  0  0  0
  189.0630  174.1730  135.6350 C   0  0  0  0  0  2  0  0  0  0  0  0
  189.8590  177.5930  138.8450 N   0  0  0  0  0  0  0  0  0  0  0  0
  187.5180  176.8560  137.4480 N   0  0  0  0  0  2  0  0  0  0  0  0
  189.2690  175.6010  136.1130 C   0  0  2  0  0  3  0  0  0  0  0  0
  188.4780  177.5020  140.9990 C   0  0  0  0  0  2  0  0  0  0  0  0
  188.7470  178.1560  142.3460 C   0  0  0  0  0  2  0  0  0  0  0  0
  188.0310  177.4090  143.4600 C   0  0  0  0  0  2  0  0  0  0  0  0
  190.3110  177.3580  144.1600 O   0  0  0  0  0  1  0  0  0  0  0  0
  189.0380  176.8700  144.4590 C   0  0  0  0  0  2  0  0  0  0  0  0
  192.1850  175.1360  137.0940 C   0  0  0  0  0  2  0  0  0  0  0  0
  194.3080  175.6500  138.0430 O   0  0  0  0  0  1  0  0  0  0  0  0
  193.3250  176.1370  137.1820 C   0  0  1  0  0  3  0  0  0  0  0  0
  193.9260  176.3780  135.8040 C   0  0  0  0  0  2  0  0  0  0  0  0
  195.3290  175.7910  135.7190 C   0  0  0  0  0  2  0  0  0  0  0  0
  195.8580  178.1170  134.9680 C   0  0  0  0  0  1  0  0  0  0  0  0
  196.2370  176.6520  134.8530 C   0  0  0  0  0  2  0  0  0  0  0  0
  1  6  1  6  0  0  0
  1  8  1  0  0  0  0
  2  3  1  0  0  0  0
  2 11  1  1  0  0  0
  3 13  1  0  0  0  0
  5 13  1  0  0  0  0
  7 10  2  0  0  0  0
  8 21  1  6  0  0  0
  8  5  1  0  0  0  0
  9  4  2  0  0  0  0
  9 16  1  0  0  0  0
 10 14  1  0  0  0  0
 12  6  1  0  0  0  0
 13  9  1  0  0  0  0
 14  2  1  0  0  0  0
 15 12  1  6  0  0  0
 15 10  1  0  0  0  0
 15  1  1  0  0  0  0
 16 17  1  0  0  0  0
 17 18  1  0  0  0  0
 18 20  1  0  0  0  0
 19 20  1  0  0  0  0
 21 23  1  0  0  0  0
 23 22  1  1  0  0  0
 24 23  1  0  0  0  0
 25 24  1  0  0  0  0
 27 26  1  0  0  0  0
 27 25  1  0  0  0  0
M  END
>  <MODEL>
9

>  <REMARK>
 VINA RESULT:      -5.4      3.951      7.572
  Name = 
  9 active torsions:
  status: ('A' for Active; 'I' for Inactive)
    1  A    between atoms: C_4  and  C_22
    2  A    between atoms: C_4  and  C_24
    3  A    between atoms: C_10  and  C_26
    4  A    between atoms: C_11  and  C_20
    5  A    between atoms: C_11  and  C_27
    6  A    between atoms: C_12  and  C_14
    7  A    between atoms: C_14  and  C_27
    8  A    between atoms: C_22  and  C_26
    9  A    between atoms: C_24  and  C_25
                            x       y       z     vdW  Elec       q    Type
                         _______ _______ _______ _____ _____    ______ ____

>  <TORSDO>
F 9

$$$$
