=
 OpenBabel11062416183D

 29 31  0  0  1  0  0  0  0  0999 V2000
  190.6460  177.9510  143.1880 C   0  0  0  0  0  0  0  0  0  0  0  0
  190.3530  178.5200  144.3230 N   0  0  0  0  0  0  0  0  0  0  0  0
  188.0110  175.4350  143.2440 O   0  0  0  0  0  0  0  0  0  0  0  0
  189.1850  178.2220  145.0520 N   0  0  0  0  0  0  0  0  0  0  0  0
  188.3710  177.2730  144.7000 C   0  0  0  0  0  0  0  0  0  0  0  0
  191.8680  178.2850  142.5390 N   0  0  0  0  0  1  0  0  0  0  0  0
  188.6590  176.4860  143.4950 C   0  0  0  0  0  0  0  0  0  0  0  0
  189.6950  176.9750  142.5290 C   0  0  1  0  0  3  0  0  0  0  0  0
  188.6570  178.9090  141.5130 O   0  0  0  0  0  1  0  0  0  0  0  0
  189.0060  177.5720  141.2970 C   0  0  1  0  0  3  0  0  0  0  0  0
  189.8820  177.4390  140.0590 C   0  0  0  0  0  2  0  0  0  0  0  0
  188.2030  178.5320  138.7720 O   0  0  0  0  0  1  0  0  0  0  0  0
  189.0360  177.4100  138.7930 C   0  0  1  0  0  3  0  0  0  0  0  0
  189.7170  174.5960  137.2190 C   0  0  0  0  0  2  0  0  0  0  0  0
  189.0380  175.3940  136.1110 C   0  0  0  0  0  2  0  0  0  0  0  0
  188.6660  177.6560  135.5680 O   0  0  0  0  0  0  0  0  0  0  0  0
  191.2170  176.5800  137.7990 C   0  0  0  0  0  2  0  0  0  0  0  0
  189.1790  176.8710  136.3480 C   0  0  0  0  0  0  0  0  0  0  0  0
  189.9300  177.3950  137.5480 C   0  0  1  0  0  3  0  0  0  0  0  0
  191.1460  175.0910  137.4150 C   0  0  0  0  0  2  0  0  0  0  0  0
  186.9120  176.9470  145.6870 S   0  0  0  0  0  0  0  0  0  0  0  0
  183.8600  178.6680  142.4460 C   0  0  0  0  0  0  0  0  0  0  0  0
  184.9220  178.8900  145.3360 C   0  0  0  0  0  3  0  0  0  0  0  0
  182.9900  178.2520  140.9840 Cl  0  0  0  0  0  0  0  0  0  0  0  0
  185.8790  177.9880  144.6610 C   0  0  0  0  0  0  0  0  0  0  0  0
  185.3420  178.8270  142.3750 C   0  0  0  0  0  2  0  0  0  0  0  0
  183.7470  179.3130  144.8530 C   0  0  0  0  0  3  0  0  0  0  0  0
  183.1650  178.9670  143.5420 C   0  0  0  0  0  3  0  0  0  0  0  0
  186.0440  177.9300  143.3380 C   0  0  0  0  0  3  0  0  0  0  0  0
  1  2  2  0  0  0  0
  2  4  1  0  0  0  0
  3  7  2  0  0  0  0
  5  4  2  0  0  0  0
  5 21  1  0  0  0  0
  6  1  1  0  0  0  0
  7  5  1  0  0  0  0
  8 10  1  6  0  0  0
  8  1  1  0  0  0  0
  8  7  1  0  0  0  0
 10  9  1  1  0  0  0
 11 10  1  0  0  0  0
 13 12  1  6  0  0  0
 13 11  1  0  0  0  0
 14 20  1  0  0  0  0
 15 18  1  0  0  0  0
 15 14  1  0  0  0  0
 16 18  2  0  0  0  0
 18 19  1  0  0  0  0
 19 17  1  0  0  0  0
 19 13  1  1  0  0  0
 20 17  1  0  0  0  0
 22 28  2  0  0  0  0
 24 22  1  0  0  0  0
 25 23  1  0  0  0  0
 25 21  1  0  0  0  0
 26 22  1  0  0  0  0
 26 29  1  0  0  0  0
 27 23  2  0  0  0  0
 28 27  1  0  0  0  0
 29 25  2  0  0  0  0
M  END
>  <MODEL>
1

>  <REMARK>
 VINA RESULT:      -7.7      0.000      0.000
  Name = 
  6 active torsions:
  status: ('A' for Active; 'I' for Inactive)
    1  A    between atoms: C_9  and  S_22
    2  A    between atoms: C_11  and  C_21
    3  A    between atoms: C_11  and  C_26
    4  A    between atoms: C_14  and  S_22
    5  A    between atoms: C_25  and  C_28
    6  A    between atoms: C_26  and  C_28
                            x       y       z     vdW  Elec       q    Type
                         _______ _______ _______ _____ _____    ______ ____

>  <TORSDO>
F 6

$$$$
=
 OpenBabel11062416183D

 29 31  0  0  1  0  0  0  0  0999 V2000
  190.7720  177.0290  139.4990 C   0  0  0  0  0  0  0  0  0  0  0  0
  190.8220  175.8070  139.0500 N   0  0  0  0  0  0  0  0  0  0  0  0
  189.0210  178.4880  136.6560 O   0  0  0  0  0  0  0  0  0  0  0  0
  190.1330  175.3830  137.8960 N   0  0  0  0  0  0  0  0  0  0  0  0
  189.4890  176.2110  137.1310 C   0  0  0  0  0  0  0  0  0  0  0  0
  191.5320  177.3770  140.6510 N   0  0  0  0  0  1  0  0  0  0  0  0
  189.4560  177.6380  137.4770 C   0  0  0  0  0  0  0  0  0  0  0  0
  189.8910  178.0710  138.8450 C   0  0  1  0  0  3  0  0  0  0  0  0
  187.5530  178.6900  138.8810 O   0  0  0  0  0  1  0  0  0  0  0  0
  188.6590  178.4100  139.6910 C   0  0  1  0  0  3  0  0  0  0  0  0
  188.3390  177.2900  140.6690 C   0  0  0  0  0  2  0  0  0  0  0  0
  186.7390  178.4490  141.9990 O   0  0  0  0  0  1  0  0  0  0  0  0
  187.9990  177.8480  142.0460 C   0  0  1  0  0  3  0  0  0  0  0  0
  190.1070  177.9180  144.5790 C   0  0  0  0  0  2  0  0  0  0  0  0
  188.7690  177.9110  145.3110 C   0  0  0  0  0  2  0  0  0  0  0  0
  186.5560  177.2170  144.8950 O   0  0  0  0  0  0  0  0  0  0  0  0
  189.3600  175.9800  143.0920 C   0  0  0  0  0  2  0  0  0  0  0  0
  187.6970  177.2780  144.4690 C   0  0  0  0  0  0  0  0  0  0  0  0
  188.0120  176.7330  143.0970 C   0  0  1  0  0  3  0  0  0  0  0  0
  190.4240  176.5170  144.0650 C   0  0  0  0  0  2  0  0  0  0  0  0
  188.6470  175.5980  135.6730 S   0  0  0  0  0  0  0  0  0  0  0  0
  184.0700  175.2020  136.9670 C   0  0  0  0  0  0  0  0  0  0  0  0
  186.9210  174.0500  137.2490 C   0  0  0  0  0  3  0  0  0  0  0  0
  182.4370  175.5880  136.4670 Cl  0  0  0  0  0  0  0  0  0  0  0  0
  187.1130  175.3430  136.5590 C   0  0  0  0  0  0  0  0  0  0  0  0
  184.9710  176.3150  137.3870 C   0  0  0  0  0  2  0  0  0  0  0  0
  185.7550  173.4340  137.4790 C   0  0  0  0  0  3  0  0  0  0  0  0
  184.4170  173.9220  137.0920 C   0  0  0  0  0  3  0  0  0  0  0  0
  186.2290  176.3430  136.5870 C   0  0  0  0  0  3  0  0  0  0  0  0
  1  6  1  0  0  0  0
  2  1  2  0  0  0  0
  3  7  2  0  0  0  0
  4  2  1  0  0  0  0
  5  7  1  0  0  0  0
  5  4  2  0  0  0  0
  7  8  1  0  0  0  0
  8  1  1  0  0  0  0
  8 10  1  1  0  0  0
 10  9  1  6  0  0  0
 10 11  1  0  0  0  0
 11 13  1  0  0  0  0
 13 12  1  6  0  0  0
 14 15  1  0  0  0  0
 17 19  1  0  0  0  0
 17 20  1  0  0  0  0
 18 16  2  0  0  0  0
 18 15  1  0  0  0  0
 19 13  1  6  0  0  0
 19 18  1  0  0  0  0
 20 14  1  0  0  0  0
 21 25  1  0  0  0  0
 21  5  1  0  0  0  0
 22 28  2  0  0  0  0
 22 26  1  0  0  0  0
 23 27  2  0  0  0  0
 24 22  1  0  0  0  0
 25 29  2  0  0  0  0
 25 23  1  0  0  0  0
 28 27  1  0  0  0  0
 29 26  1  0  0  0  0
M  END
>  <MODEL>
2

>  <REMARK>
 VINA RESULT:      -7.6      3.357      6.779
  Name = 
  6 active torsions:
  status: ('A' for Active; 'I' for Inactive)
    1  A    between atoms: C_9  and  S_22
    2  A    between atoms: C_11  and  C_21
    3  A    between atoms: C_11  and  C_26
    4  A    between atoms: C_14  and  S_22
    5  A    between atoms: C_25  and  C_28
    6  A    between atoms: C_26  and  C_28
                            x       y       z     vdW  Elec       q    Type
                         _______ _______ _______ _____ _____    ______ ____

>  <TORSDO>
F 6

$$$$
=
 OpenBabel11062416183D

 29 31  0  0  1  0  0  0  0  0999 V2000
  190.3060  175.6280  137.7020 C   0  0  0  0  0  0  0  0  0  0  0  0
  189.4160  174.7270  137.3970 N   0  0  0  0  0  0  0  0  0  0  0  0
  188.8900  178.3520  135.7380 O   0  0  0  0  0  0  0  0  0  0  0  0
  188.2330  175.0240  136.6910 N   0  0  0  0  0  0  0  0  0  0  0  0
  188.0000  176.2000  136.1930 C   0  0  0  0  0  0  0  0  0  0  0  0
  191.4910  175.2310  138.3830 N   0  0  0  0  0  1  0  0  0  0  0  0
  188.9870  177.2710  136.3780 C   0  0  0  0  0  0  0  0  0  0  0  0
  190.0850  177.0910  137.3820 C   0  0  1  0  0  3  0  0  0  0  0  0
  189.1210  179.1110  138.2980 O   0  0  0  0  0  1  0  0  0  0  0  0
  189.7770  177.9220  138.6330 C   0  0  1  0  0  3  0  0  0  0  0  0
  188.9620  177.1220  139.6370 C   0  0  0  0  0  2  0  0  0  0  0  0
  191.0020  177.2700  140.8560 O   0  0  0  0  0  1  0  0  0  0  0  0
  189.6200  177.1370  141.0110 C   0  0  1  0  0  3  0  0  0  0  0  0
  187.7320  176.5650  143.6510 C   0  0  0  0  0  2  0  0  0  0  0  0
  188.9000  177.3140  144.2830 C   0  0  0  0  0  2  0  0  0  0  0  0
  190.5500  178.8580  143.6140 O   0  0  0  0  0  0  0  0  0  0  0  0
  187.5290  178.3280  141.8140 C   0  0  0  0  0  2  0  0  0  0  0  0
  189.5750  178.2060  143.2790 C   0  0  0  0  0  0  0  0  0  0  0  0
  189.0720  178.2910  141.8590 C   0  0  1  0  0  3  0  0  0  0  0  0
  186.8140  177.5470  142.9310 C   0  0  0  0  0  2  0  0  0  0  0  0
  186.4770  176.4970  135.2970 S   0  0  0  0  0  0  0  0  0  0  0  0
  183.7210  178.4460  138.6720 C   0  0  0  0  0  0  0  0  0  0  0  0
  184.6170  175.8350  137.2870 C   0  0  0  0  0  3  0  0  0  0  0  0
  182.9200  179.9310  139.1390 Cl  0  0  0  0  0  0  0  0  0  0  0  0
  185.5640  176.8580  136.7930 C   0  0  0  0  0  0  0  0  0  0  0  0
  185.2110  178.3880  138.7310 C   0  0  0  0  0  2  0  0  0  0  0  0
  183.4980  176.0560  137.9880 C   0  0  0  0  0  3  0  0  0  0  0  0
  182.9780  177.3700  138.4140 C   0  0  0  0  0  3  0  0  0  0  0  0
  185.8050  178.0140  137.4150 C   0  0  0  0  0  3  0  0  0  0  0  0
  1  6  1  0  0  0  0
  2  1  2  0  0  0  0
  3  7  2  0  0  0  0
  4  2  1  0  0  0  0
  5  7  1  0  0  0  0
  5  4  2  0  0  0  0
  7  8  1  0  0  0  0
  8  1  1  0  0  0  0
  8 10  1  1  0  0  0
 10  9  1  6  0  0  0
 10 11  1  0  0  0  0
 11 13  1  0  0  0  0
 13 12  1  6  0  0  0
 14 15  1  0  0  0  0
 17 19  1  0  0  0  0
 17 20  1  0  0  0  0
 18 16  2  0  0  0  0
 18 15  1  0  0  0  0
 19 13  1  6  0  0  0
 19 18  1  0  0  0  0
 20 14  1  0  0  0  0
 21  5  1  0  0  0  0
 21 25  1  0  0  0  0
 22 26  1  0  0  0  0
 22 24  1  0  0  0  0
 23 27  2  0  0  0  0
 25 23  1  0  0  0  0
 25 29  2  0  0  0  0
 27 28  1  0  0  0  0
 28 22  2  0  0  0  0
 29 26  1  0  0  0  0
M  END
>  <MODEL>
3

>  <REMARK>
 VINA RESULT:      -7.5      3.696      6.464
  Name = 
  6 active torsions:
  status: ('A' for Active; 'I' for Inactive)
    1  A    between atoms: C_9  and  S_22
    2  A    between atoms: C_11  and  C_21
    3  A    between atoms: C_11  and  C_26
    4  A    between atoms: C_14  and  S_22
    5  A    between atoms: C_25  and  C_28
    6  A    between atoms: C_26  and  C_28
                            x       y       z     vdW  Elec       q    Type
                         _______ _______ _______ _____ _____    ______ ____

>  <TORSDO>
F 6

$$$$
=
 OpenBabel11062416183D

 29 31  0  0  1  0  0  0  0  0999 V2000
  190.6050  177.2590  141.7610 C   0  0  0  0  0  0  0  0  0  0  0  0
  190.9330  176.6800  140.6410 N   0  0  0  0  0  0  0  0  0  0  0  0
  187.5460  178.8470  140.5780 O   0  0  0  0  0  0  0  0  0  0  0  0
  190.0800  176.6390  139.5200 N   0  0  0  0  0  0  0  0  0  0  0  0
  188.9490  177.2760  139.4850 C   0  0  0  0  0  0  0  0  0  0  0  0
  191.5450  177.2860  142.8290 N   0  0  0  0  0  1  0  0  0  0  0  0
  188.5250  178.0580  140.6530 C   0  0  0  0  0  0  0  0  0  0  0  0
  189.2330  177.8660  141.9610 C   0  0  1  0  0  3  0  0  0  0  0  0
  188.7200  175.6810  142.8630 O   0  0  0  0  0  1  0  0  0  0  0  0
  188.3560  177.0310  142.9010 C   0  0  1  0  0  3  0  0  0  0  0  0
  188.4140  177.5640  144.3240 C   0  0  0  0  0  2  0  0  0  0  0  0
  186.2290  178.1990  143.6200 O   0  0  0  0  0  1  0  0  0  0  0  0
  187.0920  178.2100  144.7200 C   0  0  1  0  0  3  0  0  0  0  0  0
  187.8100  179.0030  147.8370 C   0  0  0  0  0  2  0  0  0  0  0  0
  186.3030  179.2350  147.8150 C   0  0  0  0  0  2  0  0  0  0  0  0
  184.4390  178.4800  146.5870 O   0  0  0  0  0  0  0  0  0  0  0  0
  187.5260  176.7210  146.7270 C   0  0  0  0  0  2  0  0  0  0  0  0
  185.6440  178.3940  146.7590 C   0  0  0  0  0  0  0  0  0  0  0  0
  186.4560  177.4600  145.8950 C   0  0  1  0  0  3  0  0  0  0  0  0
  188.1050  177.5090  147.9150 C   0  0  0  0  0  2  0  0  0  0  0  0
  187.9250  177.1850  138.0180 S   0  0  0  0  0  0  0  0  0  0  0  0
  191.9160  175.1710  136.3470 C   0  0  0  0  0  0  0  0  0  0  0  0
  188.9670  174.7320  137.1480 C   0  0  0  0  0  3  0  0  0  0  0  0
  193.6590  175.3390  136.3110 Cl  0  0  0  0  0  0  0  0  0  0  0  0
  189.1290  176.2010  137.1320 C   0  0  0  0  0  0  0  0  0  0  0  0
  191.0880  176.1540  135.5890 C   0  0  0  0  0  2  0  0  0  0  0  0
  189.9430  173.8210  137.0610 C   0  0  0  0  0  3  0  0  0  0  0  0
  191.3870  174.0960  136.9290 C   0  0  0  0  0  3  0  0  0  0  0  0
  190.0950  176.8380  136.4670 C   0  0  0  0  0  3  0  0  0  0  0  0
  1  8  1  0  0  0  0
  1  6  1  0  0  0  0
  2  1  2  0  0  0  0
  3  7  2  0  0  0  0
  4  2  1  0  0  0  0
  5  4  2  0  0  0  0
  5  7  1  0  0  0  0
  7  8  1  0  0  0  0
  8 10  1  1  0  0  0
 10  9  1  1  0  0  0
 10 11  1  0  0  0  0
 11 13  1  0  0  0  0
 13 12  1  6  0  0  0
 14 20  1  0  0  0  0
 15 14  1  0  0  0  0
 16 18  2  0  0  0  0
 17 20  1  0  0  0  0
 18 15  1  0  0  0  0
 19 13  1  6  0  0  0
 19 17  1  0  0  0  0
 19 18  1  0  0  0  0
 21  5  1  0  0  0  0
 22 28  2  0  0  0  0
 24 22  1  0  0  0  0
 25 23  1  0  0  0  0
 25 21  1  0  0  0  0
 26 22  1  0  0  0  0
 26 29  1  0  0  0  0
 27 23  2  0  0  0  0
 28 27  1  0  0  0  0
 29 25  2  0  0  0  0
M  END
>  <MODEL>
4

>  <REMARK>
 VINA RESULT:      -7.5      3.387      8.262
  Name = 
  6 active torsions:
  status: ('A' for Active; 'I' for Inactive)
    1  A    between atoms: C_9  and  S_22
    2  A    between atoms: C_11  and  C_21
    3  A    between atoms: C_11  and  C_26
    4  A    between atoms: C_14  and  S_22
    5  A    between atoms: C_25  and  C_28
    6  A    between atoms: C_26  and  C_28
                            x       y       z     vdW  Elec       q    Type
                         _______ _______ _______ _____ _____    ______ ____

>  <TORSDO>
F 6

$$$$
=
 OpenBabel11062416183D

 29 31  0  0  1  0  0  0  0  0999 V2000
  186.9220  178.5920  141.4820 C   0  0  0  0  0  0  0  0  0  0  0  0
  186.6910  177.6520  142.3540 N   0  0  0  0  0  0  0  0  0  0  0  0
  190.5460  178.2280  141.3650 O   0  0  0  0  0  0  0  0  0  0  0  0
  187.6820  176.7520  142.7940 N   0  0  0  0  0  0  0  0  0  0  0  0
  188.9280  176.8700  142.4460 C   0  0  0  0  0  0  0  0  0  0  0  0
  185.8690  179.4810  141.1240 N   0  0  0  0  0  1  0  0  0  0  0  0
  189.3290  177.9630  141.5530 C   0  0  0  0  0  0  0  0  0  0  0  0
  188.2730  178.7310  140.8150 C   0  0  1  0  0  3  0  0  0  0  0  0
  188.9590  179.1830  138.5400 O   0  0  0  0  0  1  0  0  0  0  0  0
  188.2490  178.2890  139.3470 C   0  0  1  0  0  3  0  0  0  0  0  0
  188.7910  176.8760  139.1910 C   0  0  0  0  0  2  0  0  0  0  0  0
  191.0680  176.4610  138.6300 O   0  0  0  0  0  1  0  0  0  0  0  0
  189.8320  176.8100  138.0800 C   0  0  1  0  0  3  0  0  0  0  0  0
  187.9120  177.6670  135.5420 C   0  0  0  0  0  2  0  0  0  0  0  0
  189.1610  177.1810  134.8140 C   0  0  0  0  0  2  0  0  0  0  0  0
  190.9660  175.7240  135.2290 O   0  0  0  0  0  0  0  0  0  0  0  0
  187.8920  175.5770  137.0090 C   0  0  0  0  0  2  0  0  0  0  0  0
  189.9220  176.1920  135.6520 C   0  0  0  0  0  0  0  0  0  0  0  0
  189.4210  175.7870  137.0160 C   0  0  1  0  0  3  0  0  0  0  0  0
  187.1030  176.4740  136.0390 C   0  0  0  0  0  2  0  0  0  0  0  0
  190.1330  175.6930  143.0570 S   0  0  0  0  0  0  0  0  0  0  0  0
  189.6290  177.5060  147.4430 C   0  0  0  0  0  0  0  0  0  0  0  0
  191.5940  176.3630  145.3540 C   0  0  0  0  0  3  0  0  0  0  0  0
  188.4710  177.7380  148.7360 Cl  0  0  0  0  0  0  0  0  0  0  0  0
  190.3380  176.5720  144.6020 C   0  0  0  0  0  0  0  0  0  0  0  0
  189.4600  178.2880  146.1840 C   0  0  0  0  0  2  0  0  0  0  0  0
  191.7520  176.4390  146.6810 C   0  0  0  0  0  3  0  0  0  0  0  0
  190.7010  176.7490  147.6700 C   0  0  0  0  0  3  0  0  0  0  0  0
  189.3670  177.4020  144.9870 C   0  0  0  0  0  3  0  0  0  0  0  0
  1  2  2  0  0  0  0
  2  4  1  0  0  0  0
  3  7  2  0  0  0  0
  5  4  2  0  0  0  0
  5 21  1  0  0  0  0
  6  1  1  0  0  0  0
  7  5  1  0  0  0  0
  8 10  1  6  0  0  0
  8  1  1  0  0  0  0
  8  7  1  0  0  0  0
 10  9  1  6  0  0  0
 11 10  1  0  0  0  0
 13 12  1  1  0  0  0
 13 11  1  0  0  0  0
 14 20  1  0  0  0  0
 15 14  1  0  0  0  0
 15 18  1  0  0  0  0
 16 18  2  0  0  0  0
 17 19  1  0  0  0  0
 18 19  1  0  0  0  0
 19 13  1  1  0  0  0
 20 17  1  0  0  0  0
 21 25  1  0  0  0  0
 22 28  2  0  0  0  0
 22 24  1  0  0  0  0
 23 27  2  0  0  0  0
 25 29  2  0  0  0  0
 25 23  1  0  0  0  0
 26 22  1  0  0  0  0
 27 28  1  0  0  0  0
 29 26  1  0  0  0  0
M  END
>  <MODEL>
5

>  <REMARK>
 VINA RESULT:      -7.4      3.180      4.774
  Name = 
  6 active torsions:
  status: ('A' for Active; 'I' for Inactive)
    1  A    between atoms: C_9  and  S_22
    2  A    between atoms: C_11  and  C_21
    3  A    between atoms: C_11  and  C_26
    4  A    between atoms: C_14  and  S_22
    5  A    between atoms: C_25  and  C_28
    6  A    between atoms: C_26  and  C_28
                            x       y       z     vdW  Elec       q    Type
                         _______ _______ _______ _____ _____    ______ ____

>  <TORSDO>
F 6

$$$$
=
 OpenBabel11062416183D

 29 31  0  0  1  0  0  0  0  0999 V2000
  185.5800  178.6350  139.6050 C   0  0  0  0  0  0  0  0  0  0  0  0
  186.4270  179.0240  140.5150 N   0  0  0  0  0  0  0  0  0  0  0  0
  182.6970  178.2460  141.7980 O   0  0  0  0  0  0  0  0  0  0  0  0
  186.0440  179.3450  141.8330 N   0  0  0  0  0  0  0  0  0  0  0  0
  184.8340  179.1650  142.2660 C   0  0  0  0  0  0  0  0  0  0  0  0
  186.0610  178.2940  138.3090 N   0  0  0  0  0  1  0  0  0  0  0  0
  183.8150  178.6240  141.3580 C   0  0  0  0  0  0  0  0  0  0  0  0
  184.0940  178.5780  139.8860 C   0  0  1  0  0  3  0  0  0  0  0  0
  184.1820  180.7300  138.7860 O   0  0  0  0  0  1  0  0  0  0  0  0
  183.3230  179.7000  139.1830 C   0  0  1  0  0  3  0  0  0  0  0  0
  182.5380  179.1660  137.9940 C   0  0  0  0  0  2  0  0  0  0  0  0
  180.1880  179.3650  138.3230 O   0  0  0  0  0  1  0  0  0  0  0  0
  181.2590  178.4760  138.4490 C   0  0  1  0  0  3  0  0  0  0  0  0
  182.2780  175.5130  139.4720 C   0  0  0  0  0  2  0  0  0  0  0  0
  180.7730  175.2870  139.3710 C   0  0  0  0  0  2  0  0  0  0  0  0
  178.9470  176.1980  138.1950 O   0  0  0  0  0  0  0  0  0  0  0  0
  182.3240  176.5760  137.1500 C   0  0  0  0  0  2  0  0  0  0  0  0
  180.1530  176.2270  138.3770 C   0  0  0  0  0  0  0  0  0  0  0  0
  180.9990  177.2170  137.6150 C   0  0  1  0  0  3  0  0  0  0  0  0
  182.9010  175.4930  138.0800 C   0  0  0  0  0  2  0  0  0  0  0  0
  184.4270  179.5860  143.9600 S   0  0  0  0  0  0  0  0  0  0  0  0
  188.4650  177.3010  145.0790 C   0  0  0  0  0  0  0  0  0  0  0  0
  185.7330  178.3210  146.0930 C   0  0  0  0  0  3  0  0  0  0  0  0
  190.1440  177.1190  144.6160 Cl  0  0  0  0  0  0  0  0  0  0  0  0
  185.6600  178.4720  144.6250 C   0  0  0  0  0  0  0  0  0  0  0  0
  187.4110  176.7550  144.1750 C   0  0  0  0  0  2  0  0  0  0  0  0
  186.8240  178.0280  146.8120 C   0  0  0  0  0  3  0  0  0  0  0  0
  188.1810  177.7930  146.2850 C   0  0  0  0  0  3  0  0  0  0  0  0
  186.4320  177.8030  143.7660 C   0  0  0  0  0  3  0  0  0  0  0  0
  1  8  1  0  0  0  0
  1  2  2  0  0  0  0
  2  4  1  0  0  0  0
  4  5  2  0  0  0  0
  5 21  1  0  0  0  0
  6  1  1  0  0  0  0
  7  3  2  0  0  0  0
  7  5  1  0  0  0  0
  8 10  1  6  0  0  0
  8  7  1  0  0  0  0
 10  9  1  6  0  0  0
 11 13  1  0  0  0  0
 11 10  1  0  0  0  0
 13 12  1  6  0  0  0
 15 14  1  0  0  0  0
 16 18  2  0  0  0  0
 17 19  1  0  0  0  0
 17 20  1  0  0  0  0
 18 15  1  0  0  0  0
 19 18  1  0  0  0  0
 19 13  1  1  0  0  0
 20 14  1  0  0  0  0
 21 25  1  0  0  0  0
 22 28  2  0  0  0  0
 23 27  2  0  0  0  0
 24 22  1  0  0  0  0
 25 23  1  0  0  0  0
 26 22  1  0  0  0  0
 28 27  1  0  0  0  0
 29 26  1  0  0  0  0
 29 25  2  0  0  0  0
M  END
>  <MODEL>
6

>  <REMARK>
 VINA RESULT:      -7.4      4.801      6.614
  Name = 
  6 active torsions:
  status: ('A' for Active; 'I' for Inactive)
    1  A    between atoms: C_9  and  S_22
    2  A    between atoms: C_11  and  C_21
    3  A    between atoms: C_11  and  C_26
    4  A    between atoms: C_14  and  S_22
    5  A    between atoms: C_25  and  C_28
    6  A    between atoms: C_26  and  C_28
                            x       y       z     vdW  Elec       q    Type
                         _______ _______ _______ _____ _____    ______ ____

>  <TORSDO>
F 6

$$$$
=
 OpenBabel11062416183D

 29 31  0  0  1  0  0  0  0  0999 V2000
  188.6380  178.3400  139.1220 C   0  0  0  0  0  0  0  0  0  0  0  0
  188.3320  178.6090  140.3600 N   0  0  0  0  0  0  0  0  0  0  0  0
  192.0360  177.1750  139.7310 O   0  0  0  0  0  0  0  0  0  0  0  0
  189.1540  178.2520  141.4480 N   0  0  0  0  0  0  0  0  0  0  0  0
  190.3310  177.7300  141.2860 C   0  0  0  0  0  0  0  0  0  0  0  0
  187.7670  178.7730  138.0830 N   0  0  0  0  0  1  0  0  0  0  0  0
  190.8300  177.4830  139.9270 C   0  0  0  0  0  0  0  0  0  0  0  0
  189.8760  177.5430  138.7730 C   0  0  1  0  0  3  0  0  0  0  0  0
  188.1680  175.9640  138.1110 O   0  0  0  0  0  1  0  0  0  0  0  0
  189.5430  176.1210  138.3070 C   0  0  1  0  0  3  0  0  0  0  0  0
  190.3110  175.7630  137.0440 C   0  0  0  0  0  2  0  0  0  0  0  0
  190.1700  173.3920  137.2180 O   0  0  0  0  0  1  0  0  0  0  0  0
  191.0750  174.4570  137.2200 C   0  0  1  0  0  3  0  0  0  0  0  0
  194.2600  175.1600  137.6950 C   0  0  0  0  0  2  0  0  0  0  0  0
  194.3380  173.6820  137.3260 C   0  0  0  0  0  2  0  0  0  0  0  0
  193.0520  172.1130  136.1270 O   0  0  0  0  0  0  0  0  0  0  0  0
  192.7340  175.6290  135.7010 C   0  0  0  0  0  2  0  0  0  0  0  0
  193.1610  173.2740  136.4860 C   0  0  0  0  0  0  0  0  0  0  0  0
  192.1030  174.2770  136.0970 C   0  0  1  0  0  3  0  0  0  0  0  0
  194.0330  175.9970  136.4400 C   0  0  0  0  0  2  0  0  0  0  0  0
  191.3220  177.3140  142.7200 S   0  0  0  0  0  0  0  0  0  0  0  0
  187.3770  177.8160  145.3590 C   0  0  0  0  0  0  0  0  0  0  0  0
  188.8670  176.0830  143.2830 C   0  0  0  0  0  3  0  0  0  0  0  0
  186.3870  179.0020  146.1830 Cl  0  0  0  0  0  0  0  0  0  0  0  0
  189.8810  177.0530  143.7480 C   0  0  0  0  0  0  0  0  0  0  0  0
  188.7270  177.5030  145.9130 C   0  0  0  0  0  2  0  0  0  0  0  0
  187.5540  176.1160  143.5410 C   0  0  0  0  0  3  0  0  0  0  0  0
  186.8470  177.1290  144.3490 C   0  0  0  0  0  3  0  0  0  0  0  0
  189.8050  177.7160  144.9040 C   0  0  0  0  0  3  0  0  0  0  0  0
  1  2  2  0  0  0  0
  2  4  1  0  0  0  0
  3  7  2  0  0  0  0
  5  4  2  0  0  0  0
  5 21  1  0  0  0  0
  6  1  1  0  0  0  0
  7  5  1  0  0  0  0
  8 10  1  1  0  0  0
  8  1  1  0  0  0  0
  8  7  1  0  0  0  0
 10  9  1  6  0  0  0
 11 13  1  0  0  0  0
 11 10  1  0  0  0  0
 13 12  1  6  0  0  0
 15 14  1  0  0  0  0
 16 18  2  0  0  0  0
 17 19  1  0  0  0  0
 17 20  1  0  0  0  0
 18 15  1  0  0  0  0
 19 18  1  0  0  0  0
 19 13  1  1  0  0  0
 20 14  1  0  0  0  0
 21 25  1  0  0  0  0
 22 26  1  0  0  0  0
 22 24  1  0  0  0  0
 23 27  2  0  0  0  0
 23 25  1  0  0  0  0
 25 29  2  0  0  0  0
 27 28  1  0  0  0  0
 28 22  2  0  0  0  0
 29 26  1  0  0  0  0
M  END
>  <MODEL>
7

>  <REMARK>
 VINA RESULT:      -7.4      3.198      4.736
  Name = 
  6 active torsions:
  status: ('A' for Active; 'I' for Inactive)
    1  A    between atoms: C_9  and  S_22
    2  A    between atoms: C_11  and  C_21
    3  A    between atoms: C_11  and  C_26
    4  A    between atoms: C_14  and  S_22
    5  A    between atoms: C_25  and  C_28
    6  A    between atoms: C_26  and  C_28
                            x       y       z     vdW  Elec       q    Type
                         _______ _______ _______ _____ _____    ______ ____

>  <TORSDO>
F 6

$$$$
=
 OpenBabel11062416183D

 29 31  0  0  1  0  0  0  0  0999 V2000
  188.9030  178.6120  139.2610 C   0  0  0  0  0  0  0  0  0  0  0  0
  188.0300  178.9510  140.1670 N   0  0  0  0  0  0  0  0  0  0  0  0
  190.5700  176.0040  141.1840 O   0  0  0  0  0  0  0  0  0  0  0  0
  187.8390  178.2240  141.3590 N   0  0  0  0  0  0  0  0  0  0  0  0
  188.6010  177.2270  141.6920 C   0  0  0  0  0  0  0  0  0  0  0  0
  189.0550  179.4270  138.1040 N   0  0  0  0  0  1  0  0  0  0  0  0
  189.6930  176.8220  140.7980 C   0  0  0  0  0  0  0  0  0  0  0  0
  189.7260  177.3490  139.3950 C   0  0  1  0  0  3  0  0  0  0  0  0
  187.9940  176.5140  137.9280 O   0  0  0  0  0  1  0  0  0  0  0  0
  189.2740  176.2510  138.4250 C   0  0  1  0  0  3  0  0  0  0  0  0
  190.2680  176.0800  137.2870 C   0  0  0  0  0  2  0  0  0  0  0  0
  190.0590  173.7140  137.4580 O   0  0  0  0  0  1  0  0  0  0  0  0
  190.9980  174.7470  137.3940 C   0  0  1  0  0  3  0  0  0  0  0  0
  194.2470  175.2370  137.6460 C   0  0  0  0  0  2  0  0  0  0  0  0
  194.2030  173.7700  137.2300 C   0  0  0  0  0  2  0  0  0  0  0  0
  192.7360  172.3240  136.0880 O   0  0  0  0  0  0  0  0  0  0  0  0
  192.6110  175.8650  135.7880 C   0  0  0  0  0  2  0  0  0  0  0  0
  192.9440  173.4630  136.4710 C   0  0  0  0  0  0  0  0  0  0  0  0
  191.9260  174.5420  136.1920 C   0  0  1  0  0  3  0  0  0  0  0  0
  193.9820  176.1280  136.4360 C   0  0  0  0  0  2  0  0  0  0  0  0
  188.3030  176.3590  143.2310 S   0  0  0  0  0  0  0  0  0  0  0  0
  184.3210  178.6860  144.4600 C   0  0  0  0  0  0  0  0  0  0  0  0
  187.2950  178.1760  145.1130 C   0  0  0  0  0  3  0  0  0  0  0  0
  182.5750  178.6300  144.3420 Cl  0  0  0  0  0  0  0  0  0  0  0  0
  187.1020  177.5660  143.7800 C   0  0  0  0  0  0  0  0  0  0  0  0
  185.1120  178.9640  143.2260 C   0  0  0  0  0  2  0  0  0  0  0  0
  186.3370  178.6310  145.9290 C   0  0  0  0  0  3  0  0  0  0  0  0
  184.8850  178.6200  145.6650 C   0  0  0  0  0  3  0  0  0  0  0  0
  186.1080  177.8880  142.9500 C   0  0  0  0  0  3  0  0  0  0  0  0
  1  8  1  0  0  0  0
  1  2  2  0  0  0  0
  2  4  1  0  0  0  0
  4  5  2  0  0  0  0
  5 21  1  0  0  0  0
  6  1  1  0  0  0  0
  7  3  2  0  0  0  0
  7  5  1  0  0  0  0
  8 10  1  6  0  0  0
  8  7  1  0  0  0  0
 10  9  1  6  0  0  0
 11 13  1  0  0  0  0
 11 10  1  0  0  0  0
 13 12  1  6  0  0  0
 15 14  1  0  0  0  0
 16 18  2  0  0  0  0
 17 19  1  0  0  0  0
 17 20  1  0  0  0  0
 18 15  1  0  0  0  0
 19 18  1  0  0  0  0
 19 13  1  1  0  0  0
 20 14  1  0  0  0  0
 21 25  1  0  0  0  0
 22 28  2  0  0  0  0
 23 27  2  0  0  0  0
 24 22  1  0  0  0  0
 25 23  1  0  0  0  0
 26 22  1  0  0  0  0
 28 27  1  0  0  0  0
 29 26  1  0  0  0  0
 29 25  2  0  0  0  0
M  END
>  <MODEL>
8

>  <REMARK>
 VINA RESULT:      -7.3      2.796      3.750
  Name = 
  6 active torsions:
  status: ('A' for Active; 'I' for Inactive)
    1  A    between atoms: C_9  and  S_22
    2  A    between atoms: C_11  and  C_21
    3  A    between atoms: C_11  and  C_26
    4  A    between atoms: C_14  and  S_22
    5  A    between atoms: C_25  and  C_28
    6  A    between atoms: C_26  and  C_28
                            x       y       z     vdW  Elec       q    Type
                         _______ _______ _______ _____ _____    ______ ____

>  <TORSDO>
F 6

$$$$
=
 OpenBabel11062416183D

 29 31  0  0  1  0  0  0  0  0999 V2000
  190.1780  177.1620  139.9460 C   0  0  0  0  0  0  0  0  0  0  0  0
  190.5030  176.2510  139.0720 N   0  0  0  0  0  0  0  0  0  0  0  0
  189.0570  179.6920  137.5760 O   0  0  0  0  0  0  0  0  0  0  0  0
  190.2000  176.3610  137.7000 N   0  0  0  0  0  0  0  0  0  0  0  0
  189.6750  177.4340  137.1900 C   0  0  0  0  0  0  0  0  0  0  0  0
  190.5590  176.9850  141.3060 N   0  0  0  0  0  1  0  0  0  0  0  0
  189.3690  178.5730  138.0640 C   0  0  0  0  0  0  0  0  0  0  0  0
  189.3720  178.3790  139.5510 C   0  0  1  0  0  3  0  0  0  0  0  0
  187.3060  177.1270  139.6670 O   0  0  0  0  0  1  0  0  0  0  0  0
  187.9280  178.3160  140.0620 C   0  0  1  0  0  3  0  0  0  0  0  0
  187.8740  178.4740  141.5740 C   0  0  0  0  0  2  0  0  0  0  0  0
  185.8060  179.4490  140.9050 O   0  0  0  0  0  1  0  0  0  0  0  0
  186.5110  178.9890  142.0200 C   0  0  1  0  0  3  0  0  0  0  0  0
  185.7020  179.2260  145.2070 C   0  0  0  0  0  2  0  0  0  0  0  0
  184.3240  179.1160  144.5620 C   0  0  0  0  0  2  0  0  0  0  0  0
  183.3900  178.2510  142.5790 O   0  0  0  0  0  0  0  0  0  0  0  0
  186.5500  177.2340  143.8520 C   0  0  0  0  0  2  0  0  0  0  0  0
  184.4020  178.4000  143.2430 C   0  0  0  0  0  0  0  0  0  0  0  0
  185.7190  177.8790  142.7220 C   0  0  1  0  0  3  0  0  0  0  0  0
  186.3660  177.8540  145.2490 C   0  0  0  0  0  2  0  0  0  0  0  0
  189.3300  177.5030  135.4330 S   0  0  0  0  0  0  0  0  0  0  0  0
  185.7380  174.6460  136.7420 C   0  0  0  0  0  0  0  0  0  0  0  0
  186.5740  177.5090  135.9450 C   0  0  0  0  0  3  0  0  0  0  0  0
  185.3710  173.1580  137.5890 Cl  0  0  0  0  0  0  0  0  0  0  0  0
  187.7530  176.6790  135.6220 C   0  0  0  0  0  0  0  0  0  0  0  0
  186.4430  174.5660  135.4290 C   0  0  0  0  0  2  0  0  0  0  0  0
  185.4940  177.1270  136.6370 C   0  0  0  0  0  3  0  0  0  0  0  0
  185.2560  175.7920  137.2200 C   0  0  0  0  0  3  0  0  0  0  0  0
  187.7060  175.3590  135.4270 C   0  0  0  0  0  3  0  0  0  0  0  0
  1  6  1  0  0  0  0
  2  1  2  0  0  0  0
  3  7  2  0  0  0  0
  4  2  1  0  0  0  0
  5  4  2  0  0  0  0
  5  7  1  0  0  0  0
  7  8  1  0  0  0  0
  8  1  1  0  0  0  0
  8 10  1  6  0  0  0
 10  9  1  1  0  0  0
 10 11  1  0  0  0  0
 11 13  1  0  0  0  0
 13 12  1  6  0  0  0
 14 20  1  0  0  0  0
 15 14  1  0  0  0  0
 16 18  2  0  0  0  0
 17 20  1  0  0  0  0
 18 15  1  0  0  0  0
 19 13  1  1  0  0  0
 19 18  1  0  0  0  0
 19 17  1  0  0  0  0
 21 25  1  0  0  0  0
 21  5  1  0  0  0  0
 22 28  2  0  0  0  0
 22 24  1  0  0  0  0
 23 27  2  0  0  0  0
 25 23  1  0  0  0  0
 26 22  1  0  0  0  0
 27 28  1  0  0  0  0
 29 26  1  0  0  0  0
 29 25  2  0  0  0  0
M  END
>  <MODEL>
9

>  <REMARK>
 VINA RESULT:      -7.3      3.367      7.244
  Name = 
  6 active torsions:
  status: ('A' for Active; 'I' for Inactive)
    1  A    between atoms: C_9  and  S_22
    2  A    between atoms: C_11  and  C_21
    3  A    between atoms: C_11  and  C_26
    4  A    between atoms: C_14  and  S_22
    5  A    between atoms: C_25  and  C_28
    6  A    between atoms: C_26  and  C_28
                            x       y       z     vdW  Elec       q    Type
                         _______ _______ _______ _____ _____    ______ ____

>  <TORSDO>
F 6

$$$$
