=
 OpenBabel11062416373D

 62 65  0  0  1  0  0  0  0  0999 V2000
  183.5920  174.4300  135.5210 C   0  0  1  0  0  3  0  0  0  0  0  0
  184.4780  173.3840  136.1830 C   0  0  1  0  0  3  0  0  0  0  0  0
  183.1020  172.9940  135.6620 C   0  0  0  0  0  2  0  0  0  0  0  0
  183.0370  175.2670  136.5740 N   0  0  0  0  0  2  0  0  0  0  0  0
  181.6170  179.1880  136.0980 C   0  0  0  0  0  3  0  0  0  0  0  0
  181.5060  178.2850  135.0390 C   0  0  0  0  0  3  0  0  0  0  0  0
  182.7520  177.5670  137.4160 C   0  0  0  0  0  0  0  0  0  0  0  0
  182.0240  176.9960  135.1810 C   0  0  0  0  0  3  0  0  0  0  0  0
  182.2330  178.8150  137.2490 N   0  0  0  0  0  0  0  0  0  0  0  0
  182.6580  176.6270  136.3650 C   0  0  0  0  0  0  0  0  0  0  0  0
  183.4040  177.2270  138.7220 C   0  0  2  0  0  3  0  0  0  0  0  0
  182.9800  175.8640  139.1820 C   0  0  0  0  0  3  0  0  0  0  0  0
  180.7890  175.5430  140.5680 C   0  0  0  0  0  3  0  0  0  0  0  0
  181.8960  175.6840  139.8880 C   0  0  0  0  0  0  0  0  0  0  0  0
  179.5230  175.1950  139.8590 C   0  0  0  0  0  2  0  0  0  0  0  0
  179.7280  175.2260  138.3510 C   0  0  0  0  0  2  0  0  0  0  0  0
  179.3560  176.5260  137.8320 N   0  0  0  0  0  1  0  0  0  0  0  0
  183.1080  178.2590  139.7130 N   0  0  0  0  0  2  0  0  0  0  0  0
  184.3460  178.9580  140.0340 C   0  0  0  0  0  2  0  0  0  0  0  0
  184.6400  178.9370  141.5260 C   0  0  1  0  0  3  0  0  0  0  0  0
  183.8670  177.8190  142.2270 C   0  0  0  0  0  2  0  0  0  0  0  0
  186.5500  178.1850  143.0680 C   0  0  2  0  0  3  0  0  0  0  0  0
  184.0170  178.8570  146.2120 Cl  0  0  0  0  0  0  0  0  0  0  0  0
  186.1460  178.7830  141.7210 C   0  0  0  0  0  2  0  0  0  0  0  0
  183.6160  178.1350  143.6730 C   0  0  0  0  0  3  0  0  0  0  0  0
  184.5350  178.5850  144.5550 C   0  0  0  0  0  0  0  0  0  0  0  0
  185.9500  178.9890  144.2090 C   0  0  0  0  0  2  0  0  0  0  0  0
  188.0670  178.1650  143.1890 C   0  0  0  0  0  2  0  0  0  0  0  0
  189.7740  177.4900  144.9260 C   0  0  0  0  0  0  0  0  0  0  0  0
  188.4470  177.8900  144.5680 N   0  0  0  0  0  2  0  0  0  0  0  0
  190.5460  177.0360  144.0390 O   0  0  0  0  0  0  0  0  0  0  0  0
  190.9060  176.3170  146.8080 C   0  0  0  0  0  1  0  0  0  0  0  0
  189.0720  177.8930  147.2900 C   0  0  0  0  0  1  0  0  0  0  0  0
  190.2330  177.5990  146.3540 C   0  0  0  0  0  3  0  0  0  0  0  0
  185.5990  172.8160  135.2880 C   0  0  2  0  0  3  0  0  0  0  0  0
  186.3520  171.8130  136.0280 N   0  0  0  0  0  2  0  0  0  0  0  0
  185.3010  169.9010  134.9420 C   0  0  0  0  0  1  0  0  0  0  0  0
  186.5850  170.6770  135.1500 C   0  0  0  0  0  2  0  0  0  0  0  0
  186.5840  173.8330  134.6980 C   0  0  0  0  0  2  0  0  0  0  0  0
  187.7850  174.0710  135.6090 C   0  0  0  0  0  2  0  0  0  0  0  0
  189.0870  173.9300  134.8330 C   0  0  0  0  0  2  0  0  0  0  0  0
  190.2390  174.2960  135.7460 C   0  0  0  0  0  2  0  0  0  0  0  0
  191.1290  176.3480  134.9450 O   0  0  0  0  0  1  0  0  0  0  0  0
  191.3450  174.9670  134.9440 C   0  0  1  0  0  3  0  0  0  0  0  0
  192.7050  174.6780  135.5720 C   0  0  0  0  0  2  0  0  0  0  0  0
  194.4880  176.4330  135.8140 C   0  0  0  0  0  1  0  0  0  0  0  0
  193.2170  175.8500  136.3980 C   0  0  2  0  0  3  0  0  0  0  0  0
  193.2890  175.5630  137.9070 C   0  0  0  0  0  2  0  0  0  0  0  0
  191.2570  175.4120  139.2190 O   0  0  0  0  0  1  0  0  0  0  0  0
  192.2980  176.2800  138.8510 C   0  0  1  0  0  0  0  0  0  0  0  0
  192.6420  177.8480  140.6460 O   0  0  0  0  0  1  0  0  0  0  0  0
  193.0550  176.6180  140.1290 C   0  0  0  0  0  2  0  0  0  0  0  0
  191.8130  177.5000  138.3090 O   0  0  0  0  0  0  0  0  0  0  0  0
  190.4630  177.3830  137.9210 C   0  0  0  0  0  2  0  0  0  0  0  0
  189.6090  178.4400  138.6130 C   0  0  0  0  0  2  0  0  0  0  0  0
  188.3140  177.8300  139.1460 C   0  0  0  0  0  2  0  0  0  0  0  0
  188.2300  177.0250  136.8930 O   0  0  0  0  0  0  0  0  0  0  0  0
  186.8330  178.8070  136.2490 C   0  0  0  0  0  2  0  0  0  0  0  0
  187.5840  177.5940  135.7850 C   0  0  1  0  0  3  0  0  0  0  0  0
  188.5960  177.9720  134.7260 C   0  0  0  0  0  1  0  0  0  0  0  0
  187.4270  177.3320  138.0110 C   0  0  2  0  0  3  0  0  0  0  0  0
  186.4220  178.4070  137.6260 C   0  0  0  0  0  2  0  0  0  0  0  0
  1  3  1  0  0  0  0
  1  2  1  0  0  0  0
  1  4  1  1  0  0  0
  2 35  1  6  0  0  0
  3  2  1  0  0  0  0
  5  9  1  0  0  0  0
  6  8  1  0  0  0  0
  6  5  2  0  0  0  0
  7 11  1  0  0  0  0
  8 10  2  0  0  0  0
  9  7  2  0  0  0  0
 10  4  1  0  0  0  0
 10  7  1  0  0  0  0
 11 12  1  1  0  0  0
 11 18  1  0  0  0  0
 12 14  2  0  0  0  0
 14 13  2  0  0  0  0
 15 13  1  0  0  0  0
 16 15  1  0  0  0  0
 17 16  1  0  0  0  0
 18 19  1  0  0  0  0
 20 19  1  6  0  0  0
 20 24  1  0  0  0  0
 20 21  1  0  0  0  0
 21 25  1  0  0  0  0
 22 28  1  1  0  0  0
 22 27  1  0  0  0  0
 24 22  1  0  0  0  0
 25 26  2  0  0  0  0
 26 23  1  0  0  0  0
 27 26  1  0  0  0  0
 28 30  1  0  0  0  0
 29 34  1  0  0  0  0
 30 29  1  0  0  0  0
 31 29  2  0  0  0  0
 34 32  1  0  0  0  0
 34 33  1  0  0  0  0
 35 39  1  1  0  0  0
 35 36  1  0  0  0  0
 37 38  1  0  0  0  0
 38 36  1  0  0  0  0
 39 40  1  0  0  0  0
 41 40  1  0  0  0  0
 41 42  1  0  0  0  0
 44 43  1  1  0  0  0
 44 45  1  0  0  0  0
 44 42  1  0  0  0  0
 45 47  1  0  0  0  0
 47 46  1  6  0  0  0
 47 48  1  0  0  0  0
 48 50  1  0  0  0  0
 50 49  1  1  0  0  0
 50 52  1  0  0  0  0
 52 51  1  0  0  0  0
 53 50  1  0  0  0  0
 54 53  1  0  0  0  0
 54 55  1  0  0  0  0
 55 56  1  0  0  0  0
 57 61  1  0  0  0  0
 58 62  1  0  0  0  0
 59 60  1  6  0  0  0
 59 58  1  0  0  0  0
 59 57  1  0  0  0  0
 61 56  1  1  0  0  0
 62 61  1  0  0  0  0
M  END
>  <MODEL>
1

>  <REMARK>
 VINA RESULT:      -3.9      0.000      0.000
  Name = 
  30 active torsions:
  status: ('A' for Active; 'I' for Inactive)
    1  A    between atoms: C_1  and  C_51
    2  A    between atoms: C_2  and  C_50
    3  A    between atoms: C_2  and  C_60
    4  A    between atoms: C_4  and  C_33
    5  A    between atoms: C_4  and  C_47
    6  A    between atoms: C_5  and  C_12
    7  A    between atoms: C_5  and  C_44
    8  A    between atoms: O_6  and  C_30
    9  A    between atoms: O_6  and  C_42
   10  A    between atoms: C_10  and  C_16
   11  A    between atoms: C_10  and  N_20
   12  A    between atoms: C_12  and  C_31
   13  A    between atoms: C_13  and  C_35
   14  A    between atoms: C_19  and  C_54
   15  A    between atoms: C_21  and  N_58
   16  A    between atoms: C_22  and  C_56
   17  A    between atoms: N_24  and  C_34
   18  A    between atoms: N_24  and  C_51
   19  A    between atoms: C_26  and  C_47
   20  A    between atoms: C_26  and  C_56
   21  A    between atoms: C_29  and  C_34
   22  A    between atoms: C_30  and  C_50
   23  A    between atoms: C_31  and  C_42
   24  A    between atoms: C_33  and  C_44
   25  A    between atoms: C_34  and  C_55
   26  A    between atoms: C_35  and  C_59
   27  A    between atoms: C_42  and  C_48
   28  A    between atoms: N_45  and  C_53
   29  A    between atoms: N_45  and  C_56
   30  A    between atoms: C_46  and  N_58
                            x       y       z     vdW  Elec       q    Type
                         _______ _______ _______ _____ _____    ______ ____

>  <TORSDO>
F 30

$$$$
=
 OpenBabel11062416373D

 62 65  0  0  1  0  0  0  0  0999 V2000
  190.6680  177.1870  142.2850 C   0  0  1  0  0  3  0  0  0  0  0  0
  189.4080  176.7830  143.0360 C   0  0  1  0  0  3  0  0  0  0  0  0
  190.7140  176.0470  143.2940 C   0  0  0  0  0  2  0  0  0  0  0  0
  190.5580  176.6710  140.9300 N   0  0  0  0  0  2  0  0  0  0  0  0
  193.6050  177.0540  138.0690 C   0  0  0  0  0  3  0  0  0  0  0  0
  193.7740  177.6240  139.3320 C   0  0  0  0  0  3  0  0  0  0  0  0
  191.4120  176.3380  138.6400 C   0  0  0  0  0  0  0  0  0  0  0  0
  192.7410  177.5400  140.2660 C   0  0  0  0  0  3  0  0  0  0  0  0
  192.4400  176.4330  137.7530 N   0  0  0  0  0  0  0  0  0  0  0  0
  191.5480  176.9050  139.9280 C   0  0  0  0  0  0  0  0  0  0  0  0
  190.1620  175.6230  138.2210 C   0  0  2  0  0  3  0  0  0  0  0  0
  190.2900  175.1230  136.8130 C   0  0  0  0  0  3  0  0  0  0  0  0
  190.0060  172.5850  136.2660 C   0  0  0  0  0  3  0  0  0  0  0  0
  190.1650  173.8560  136.5210 C   0  0  0  0  0  0  0  0  0  0  0  0
  188.6700  172.0760  135.8390 C   0  0  0  0  0  2  0  0  0  0  0  0
  188.8260  170.9470  134.8300 C   0  0  0  0  0  2  0  0  0  0  0  0
  188.1270  169.7680  135.3010 N   0  0  0  0  0  1  0  0  0  0  0  0
  189.0050  176.5000  138.3910 N   0  0  0  0  0  2  0  0  0  0  0  0
  188.6200  177.0120  137.0820 C   0  0  0  0  0  2  0  0  0  0  0  0
  187.1660  176.7060  136.7560 C   0  0  1  0  0  3  0  0  0  0  0  0
  186.6290  177.6510  135.6820 C   0  0  0  0  0  2  0  0  0  0  0  0
  185.8540  174.9340  135.4410 C   0  0  2  0  0  3  0  0  0  0  0  0
  182.5370  177.2700  135.9830 Cl  0  0  0  0  0  0  0  0  0  0  0  0
  187.0640  175.2460  136.3200 C   0  0  0  0  0  2  0  0  0  0  0  0
  185.1400  177.8240  135.7840 C   0  0  0  0  0  3  0  0  0  0  0  0
  184.2370  176.8300  135.9150 C   0  0  0  0  0  0  0  0  0  0  0  0
  184.5700  175.3710  136.1280 C   0  0  0  0  0  2  0  0  0  0  0  0
  185.8020  173.4420  135.1450 C   0  0  0  0  0  2  0  0  0  0  0  0
  184.2380  171.4950  135.5260 C   0  0  0  0  0  0  0  0  0  0  0  0
  184.5880  172.8700  135.7100 N   0  0  0  0  0  2  0  0  0  0  0  0
  184.7790  170.8360  134.5980 O   0  0  0  0  0  0  0  0  0  0  0  0
  182.6080  169.6280  135.7670 C   0  0  0  0  0  1  0  0  0  0  0  0
  182.1030  171.8180  136.7830 C   0  0  0  0  0  1  0  0  0  0  0  0
  183.2200  170.8510  136.4260 C   0  0  0  0  0  3  0  0  0  0  0  0
  189.0330  177.6940  144.2240 C   0  0  2  0  0  3  0  0  0  0  0  0
  189.4700  177.0760  145.4680 N   0  0  0  0  0  2  0  0  0  0  0  0
  188.8250  176.7940  147.8020 C   0  0  0  0  0  1  0  0  0  0  0  0
  188.6980  177.6510  146.5590 C   0  0  0  0  0  2  0  0  0  0  0  0
  187.5520  178.0700  144.3560 C   0  0  0  0  0  2  0  0  0  0  0  0
  186.8680  178.2120  143.0000 C   0  0  0  0  0  2  0  0  0  0  0  0
  185.4760  177.5960  143.0290 C   0  0  0  0  0  2  0  0  0  0  0  0
  184.5780  178.4630  143.8860 C   0  0  0  0  0  2  0  0  0  0  0  0
  182.2830  178.5570  144.4940 O   0  0  0  0  0  1  0  0  0  0  0  0
  183.1380  178.3530  143.4060 C   0  0  1  0  0  3  0  0  0  0  0  0
  182.8500  179.4110  142.3460 C   0  0  0  0  0  2  0  0  0  0  0  0
  180.4340  179.7100  142.9730 C   0  0  0  0  0  1  0  0  0  0  0  0
  181.4070  179.3630  141.8630 C   0  0  2  0  0  3  0  0  0  0  0  0
  181.0520  178.0830  141.0890 C   0  0  0  0  0  2  0  0  0  0  0  0
  182.1300  179.0490  139.1460 O   0  0  0  0  0  1  0  0  0  0  0  0
  181.7110  177.8350  139.7140 C   0  0  1  0  0  0  0  0  0  0  0  0
  183.9720  177.3460  139.0450 O   0  0  0  0  0  1  0  0  0  0  0  0
  182.9700  177.0120  139.9580 C   0  0  0  0  0  2  0  0  0  0  0  0
  180.8810  177.0900  138.8360 O   0  0  0  0  0  0  0  0  0  0  0  0
  179.6110  177.6880  138.7090 C   0  0  0  0  0  2  0  0  0  0  0  0
  179.1350  177.6410  137.2610 C   0  0  0  0  0  2  0  0  0  0  0  0
  179.6620  178.8400  136.4740 C   0  0  0  0  0  2  0  0  0  0  0  0
  179.0520  181.0580  135.8160 O   0  0  0  0  0  0  0  0  0  0  0  0
  180.1820  181.9790  137.6640 C   0  0  0  0  0  2  0  0  0  0  0  0
  179.3980  182.2760  136.4210 C   0  0  1  0  0  3  0  0  0  0  0  0
  180.2190  183.1180  135.4680 C   0  0  0  0  0  1  0  0  0  0  0  0
  178.9380  180.1220  136.8640 C   0  0  2  0  0  3  0  0  0  0  0  0
  179.5550  180.7060  138.1260 C   0  0  0  0  0  2  0  0  0  0  0  0
  1  4  1  6  0  0  0
  1  2  1  0  0  0  0
  1  3  1  0  0  0  0
  2  3  1  0  0  0  0
  2 35  1  1  0  0  0
  5  6  1  0  0  0  0
  6  8  2  0  0  0  0
  7 10  2  0  0  0  0
  9  5  2  0  0  0  0
  9  7  1  0  0  0  0
 10  8  1  0  0  0  0
 10  4  1  0  0  0  0
 11 12  1  6  0  0  0
 11 18  1  0  0  0  0
 11  7  1  0  0  0  0
 13 14  2  0  0  0  0
 14 12  2  0  0  0  0
 15 13  1  0  0  0  0
 16 17  1  0  0  0  0
 16 15  1  0  0  0  0
 19 18  1  0  0  0  0
 20 19  1  6  0  0  0
 21 25  1  0  0  0  0
 21 20  1  0  0  0  0
 22 28  1  1  0  0  0
 22 27  1  0  0  0  0
 22 24  1  0  0  0  0
 24 20  1  0  0  0  0
 25 26  2  0  0  0  0
 26 23  1  0  0  0  0
 26 27  1  0  0  0  0
 28 30  1  0  0  0  0
 29 30  1  0  0  0  0
 29 34  1  0  0  0  0
 31 29  2  0  0  0  0
 32 34  1  0  0  0  0
 34 33  1  0  0  0  0
 35 39  1  1  0  0  0
 35 36  1  0  0  0  0
 36 38  1  0  0  0  0
 38 37  1  0  0  0  0
 40 41  1  0  0  0  0
 40 39  1  0  0  0  0
 41 42  1  0  0  0  0
 44 42  1  0  0  0  0
 44 43  1  1  0  0  0
 45 44  1  0  0  0  0
 47 45  1  0  0  0  0
 47 46  1  1  0  0  0
 48 47  1  0  0  0  0
 50 49  1  6  0  0  0
 50 52  1  0  0  0  0
 50 48  1  0  0  0  0
 51 52  1  0  0  0  0
 53 50  1  0  0  0  0
 54 53  1  0  0  0  0
 55 54  1  0  0  0  0
 56 55  1  0  0  0  0
 57 59  1  0  0  0  0
 57 61  1  0  0  0  0
 58 62  1  0  0  0  0
 59 60  1  6  0  0  0
 59 58  1  0  0  0  0
 61 56  1  6  0  0  0
 61 62  1  0  0  0  0
M  END
>  <MODEL>
2

>  <REMARK>
 VINA RESULT:      -3.7      3.605     10.613
  Name = 
  30 active torsions:
  status: ('A' for Active; 'I' for Inactive)
    1  A    between atoms: C_1  and  C_51
    2  A    between atoms: C_2  and  C_50
    3  A    between atoms: C_2  and  C_60
    4  A    between atoms: C_4  and  C_33
    5  A    between atoms: C_4  and  C_47
    6  A    between atoms: C_5  and  C_12
    7  A    between atoms: C_5  and  C_44
    8  A    between atoms: O_6  and  C_30
    9  A    between atoms: O_6  and  C_42
   10  A    between atoms: C_10  and  C_16
   11  A    between atoms: C_10  and  N_20
   12  A    between atoms: C_12  and  C_31
   13  A    between atoms: C_13  and  C_35
   14  A    between atoms: C_19  and  C_54
   15  A    between atoms: C_21  and  N_58
   16  A    between atoms: C_22  and  C_56
   17  A    between atoms: N_24  and  C_34
   18  A    between atoms: N_24  and  C_51
   19  A    between atoms: C_26  and  C_47
   20  A    between atoms: C_26  and  C_56
   21  A    between atoms: C_29  and  C_34
   22  A    between atoms: C_30  and  C_50
   23  A    between atoms: C_31  and  C_42
   24  A    between atoms: C_33  and  C_44
   25  A    between atoms: C_34  and  C_55
   26  A    between atoms: C_35  and  C_59
   27  A    between atoms: C_42  and  C_48
   28  A    between atoms: N_45  and  C_53
   29  A    between atoms: N_45  and  C_56
   30  A    between atoms: C_46  and  N_58
                            x       y       z     vdW  Elec       q    Type
                         _______ _______ _______ _____ _____    ______ ____

>  <TORSDO>
F 30

$$$$
=
 OpenBabel11062416373D

 62 65  0  0  1  0  0  0  0  0999 V2000
  191.1840  177.2640  142.0000 C   0  0  1  0  0  3  0  0  0  0  0  0
  190.0160  176.9440  142.9210 C   0  0  1  0  0  3  0  0  0  0  0  0
  191.3440  176.2260  143.1050 C   0  0  0  0  0  2  0  0  0  0  0  0
  190.9270  176.6180  140.7230 N   0  0  0  0  0  2  0  0  0  0  0  0
  193.6100  176.5530  137.4960 C   0  0  0  0  0  3  0  0  0  0  0  0
  194.0760  176.8900  138.7680 C   0  0  0  0  0  3  0  0  0  0  0  0
  191.3850  176.3720  138.3120 C   0  0  0  0  0  0  0  0  0  0  0  0
  193.1740  176.9600  139.8310 C   0  0  0  0  0  3  0  0  0  0  0  0
  192.2900  176.3070  137.2970 N   0  0  0  0  0  0  0  0  0  0  0  0
  191.8210  176.7110  139.6130 C   0  0  0  0  0  0  0  0  0  0  0  0
  189.9460  176.0730  138.0150 C   0  0  2  0  0  3  0  0  0  0  0  0
  189.7920  175.5760  136.6080 C   0  0  0  0  0  3  0  0  0  0  0  0
  191.5720  173.9830  135.5510 C   0  0  0  0  0  3  0  0  0  0  0  0
  190.6780  174.7900  136.0570 C   0  0  0  0  0  0  0  0  0  0  0  0
  191.3560  172.5080  135.6090 C   0  0  0  0  0  2  0  0  0  0  0  0
  192.6860  171.7700  135.5660 C   0  0  0  0  0  2  0  0  0  0  0  0
  193.7770  172.7240  135.6020 N   0  0  0  0  0  1  0  0  0  0  0  0
  189.1260  177.2550  138.2730 N   0  0  0  0  0  2  0  0  0  0  0  0
  188.6620  177.7810  136.9960 C   0  0  0  0  0  2  0  0  0  0  0  0
  187.2230  177.3810  136.7070 C   0  0  1  0  0  3  0  0  0  0  0  0
  186.8710  177.6050  135.2360 C   0  0  0  0  0  2  0  0  0  0  0  0
  185.8870  175.2100  136.3940 C   0  0  2  0  0  3  0  0  0  0  0  0
  182.7510  177.5440  135.1810 Cl  0  0  0  0  0  0  0  0  0  0  0  0
  187.0340  175.9210  137.1120 C   0  0  0  0  0  2  0  0  0  0  0  0
  185.4000  177.8400  135.0430 C   0  0  0  0  0  3  0  0  0  0  0  0
  184.4050  177.0970  135.5730 C   0  0  0  0  0  0  0  0  0  0  0  0
  184.5890  175.9800  136.5730 C   0  0  0  0  0  2  0  0  0  0  0  0
  185.7340  173.7980  136.9400 C   0  0  0  0  0  2  0  0  0  0  0  0
  187.2430  171.9090  136.2080 C   0  0  0  0  0  0  0  0  0  0  0  0
  186.1840  172.8350  135.9450 N   0  0  0  0  0  2  0  0  0  0  0  0
  188.0350  172.1270  137.1640 O   0  0  0  0  0  0  0  0  0  0  0  0
  186.1280  169.8920  135.2640 C   0  0  0  0  0  1  0  0  0  0  0  0
  188.5200  169.7900  135.8580 C   0  0  0  0  0  1  0  0  0  0  0  0
  187.4150  170.6940  135.3380 C   0  0  0  0  0  3  0  0  0  0  0  0
  189.7710  177.9700  144.0480 C   0  0  2  0  0  3  0  0  0  0  0  0
  190.3250  177.4630  145.2960 N   0  0  0  0  0  2  0  0  0  0  0  0
  188.7610  176.8640  147.0670 C   0  0  0  0  0  1  0  0  0  0  0  0
  189.5280  177.9850  146.3950 C   0  0  0  0  0  2  0  0  0  0  0  0
  188.3150  178.3850  144.2900 C   0  0  0  0  0  2  0  0  0  0  0  0
  187.4340  178.1450  143.0680 C   0  0  0  0  0  2  0  0  0  0  0  0
  186.0580  177.6440  143.4840 C   0  0  0  0  0  2  0  0  0  0  0  0
  185.4080  178.6870  144.3700 C   0  0  0  0  0  2  0  0  0  0  0  0
  183.3880  178.9620  145.5910 O   0  0  0  0  0  1  0  0  0  0  0  0
  183.8980  178.4960  144.3750 C   0  0  1  0  0  3  0  0  0  0  0  0
  183.2590  179.2860  143.2370 C   0  0  0  0  0  2  0  0  0  0  0  0
  181.1840  178.4770  144.4020 C   0  0  0  0  0  1  0  0  0  0  0  0
  181.7690  179.0020  143.1050 C   0  0  2  0  0  3  0  0  0  0  0  0
  181.4010  178.1720  141.8640 C   0  0  0  0  0  2  0  0  0  0  0  0
  182.0450  180.1130  140.5650 O   0  0  0  0  0  1  0  0  0  0  0  0
  181.6800  178.7620  140.4640 C   0  0  1  0  0  0  0  0  0  0  0  0
  183.8330  178.9240  139.3950 O   0  0  0  0  0  1  0  0  0  0  0  0
  182.8870  178.0260  139.8960 C   0  0  0  0  0  2  0  0  0  0  0  0
  180.6000  178.5630  139.5620 O   0  0  0  0  0  0  0  0  0  0  0  0
  179.5970  179.5360  139.7500 C   0  0  0  0  0  2  0  0  0  0  0  0
  179.2630  180.2270  138.4330 C   0  0  0  0  0  2  0  0  0  0  0  0
  180.0180  181.5490  138.3040 C   0  0  0  0  0  2  0  0  0  0  0  0
  180.5980  182.9320  136.4390 O   0  0  0  0  0  0  0  0  0  0  0  0
  179.5510  181.4480  134.9410 C   0  0  0  0  0  2  0  0  0  0  0  0
  180.2780  182.7520  135.0840 C   0  0  1  0  0  3  0  0  0  0  0  0
  179.4160  183.8950  134.5940 C   0  0  0  0  0  1  0  0  0  0  0  0
  180.7590  181.6380  136.9750 C   0  0  2  0  0  3  0  0  0  0  0  0
  180.1980  180.6160  135.9970 C   0  0  0  0  0  2  0  0  0  0  0  0
  1  4  1  6  0  0  0
  1  2  1  0  0  0  0
  1  3  1  0  0  0  0
  2  3  1  0  0  0  0
  2 35  1  1  0  0  0
  5  6  1  0  0  0  0
  6  8  2  0  0  0  0
  7 10  2  0  0  0  0
  9  5  2  0  0  0  0
  9  7  1  0  0  0  0
 10  8  1  0  0  0  0
 10  4  1  0  0  0  0
 11 12  1  6  0  0  0
 11 18  1  0  0  0  0
 11  7  1  0  0  0  0
 13 15  1  0  0  0  0
 13 14  2  0  0  0  0
 14 12  2  0  0  0  0
 16 17  1  0  0  0  0
 16 15  1  0  0  0  0
 19 18  1  0  0  0  0
 20 19  1  6  0  0  0
 20 24  1  0  0  0  0
 21 20  1  0  0  0  0
 22 27  1  0  0  0  0
 22 28  1  1  0  0  0
 22 24  1  0  0  0  0
 23 26  1  0  0  0  0
 25 21  1  0  0  0  0
 25 26  2  0  0  0  0
 26 27  1  0  0  0  0
 29 31  2  0  0  0  0
 30 29  1  0  0  0  0
 30 28  1  0  0  0  0
 32 34  1  0  0  0  0
 34 33  1  0  0  0  0
 34 29  1  0  0  0  0
 35 39  1  1  0  0  0
 35 36  1  0  0  0  0
 36 38  1  0  0  0  0
 38 37  1  0  0  0  0
 40 41  1  0  0  0  0
 40 39  1  0  0  0  0
 41 42  1  0  0  0  0
 42 44  1  0  0  0  0
 44 43  1  1  0  0  0
 45 44  1  0  0  0  0
 47 45  1  0  0  0  0
 47 46  1  1  0  0  0
 48 47  1  0  0  0  0
 50 49  1  1  0  0  0
 50 48  1  0  0  0  0
 51 52  1  0  0  0  0
 52 50  1  0  0  0  0
 53 54  1  0  0  0  0
 53 50  1  0  0  0  0
 55 54  1  0  0  0  0
 56 55  1  0  0  0  0
 57 61  1  0  0  0  0
 58 59  1  0  0  0  0
 58 62  1  0  0  0  0
 59 60  1  1  0  0  0
 59 57  1  0  0  0  0
 61 56  1  1  0  0  0
 62 61  1  0  0  0  0
M  END
>  <MODEL>
3

>  <REMARK>
 VINA RESULT:      -3.0      3.736     10.701
  Name = 
  30 active torsions:
  status: ('A' for Active; 'I' for Inactive)
    1  A    between atoms: C_1  and  C_51
    2  A    between atoms: C_2  and  C_50
    3  A    between atoms: C_2  and  C_60
    4  A    between atoms: C_4  and  C_33
    5  A    between atoms: C_4  and  C_47
    6  A    between atoms: C_5  and  C_12
    7  A    between atoms: C_5  and  C_44
    8  A    between atoms: O_6  and  C_30
    9  A    between atoms: O_6  and  C_42
   10  A    between atoms: C_10  and  C_16
   11  A    between atoms: C_10  and  N_20
   12  A    between atoms: C_12  and  C_31
   13  A    between atoms: C_13  and  C_35
   14  A    between atoms: C_19  and  C_54
   15  A    between atoms: C_21  and  N_58
   16  A    between atoms: C_22  and  C_56
   17  A    between atoms: N_24  and  C_34
   18  A    between atoms: N_24  and  C_51
   19  A    between atoms: C_26  and  C_47
   20  A    between atoms: C_26  and  C_56
   21  A    between atoms: C_29  and  C_34
   22  A    between atoms: C_30  and  C_50
   23  A    between atoms: C_31  and  C_42
   24  A    between atoms: C_33  and  C_44
   25  A    between atoms: C_34  and  C_55
   26  A    between atoms: C_35  and  C_59
   27  A    between atoms: C_42  and  C_48
   28  A    between atoms: N_45  and  C_53
   29  A    between atoms: N_45  and  C_56
   30  A    between atoms: C_46  and  N_58
                            x       y       z     vdW  Elec       q    Type
                         _______ _______ _______ _____ _____    ______ ____

>  <TORSDO>
F 30

$$$$
=
 OpenBabel11062416373D

 62 65  0  0  1  0  0  0  0  0999 V2000
  184.1480  178.6590  138.3390 C   0  0  1  0  0  3  0  0  0  0  0  0
  185.1270  179.0420  137.2380 C   0  0  1  0  0  3  0  0  0  0  0  0
  185.4120  179.4380  138.6790 C   0  0  0  0  0  2  0  0  0  0  0  0
  183.0050  179.5530  138.2410 N   0  0  0  0  0  2  0  0  0  0  0  0
  179.6590  179.2320  140.7540 C   0  0  0  0  0  3  0  0  0  0  0  0
  179.6860  180.2220  139.7720 C   0  0  0  0  0  3  0  0  0  0  0  0
  181.8540  178.5320  140.1680 C   0  0  0  0  0  0  0  0  0  0  0  0
  180.8200  180.3610  138.9690 C   0  0  0  0  0  3  0  0  0  0  0  0
  180.7320  178.4180  140.9310 N   0  0  0  0  0  0  0  0  0  0  0  0
  181.9160  179.5250  139.1640 C   0  0  0  0  0  0  0  0  0  0  0  0
  182.9910  177.5870  140.4150 C   0  0  2  0  0  3  0  0  0  0  0  0
  182.6270  176.2000  139.9790 C   0  0  0  0  0  3  0  0  0  0  0  0
  180.1800  175.6200  139.2720 C   0  0  0  0  0  3  0  0  0  0  0  0
  181.4070  175.8860  139.6350 C   0  0  0  0  0  0  0  0  0  0  0  0
  179.8060  175.6780  137.8280 C   0  0  0  0  0  2  0  0  0  0  0  0
  181.0250  175.9870  136.9710 C   0  0  0  0  0  2  0  0  0  0  0  0
  180.9140  177.3250  136.4240 N   0  0  0  0  0  1  0  0  0  0  0  0
  183.3850  177.6360  141.8220 N   0  0  0  0  0  2  0  0  0  0  0  0
  184.3110  178.7470  142.0020 C   0  0  0  0  0  2  0  0  0  0  0  0
  185.7450  178.2690  142.1760 C   0  0  1  0  0  3  0  0  0  0  0  0
  186.7400  179.3060  141.6560 C   0  0  0  0  0  2  0  0  0  0  0  0
  187.4410  178.0280  144.0880 C   0  0  2  0  0  3  0  0  0  0  0  0
  190.2480  177.1860  141.2310 Cl  0  0  0  0  0  0  0  0  0  0  0  0
  185.9770  177.9600  143.6530 C   0  0  0  0  0  2  0  0  0  0  0  0
  188.0310  178.6720  141.2220 C   0  0  0  0  0  3  0  0  0  0  0  0
  188.7430  177.7680  141.9280 C   0  0  0  0  0  0  0  0  0  0  0  0
  188.2970  177.1210  143.2180 C   0  0  0  0  0  2  0  0  0  0  0  0
  187.5640  177.6140  145.5480 C   0  0  0  0  0  2  0  0  0  0  0  0
  189.4130  177.1060  147.1930 C   0  0  0  0  0  0  0  0  0  0  0  0
  188.9500  177.2860  145.8510 N   0  0  0  0  0  2  0  0  0  0  0  0
  188.7300  177.5580  148.1510 O   0  0  0  0  0  0  0  0  0  0  0  0
  191.7100  177.3160  148.1300 C   0  0  0  0  0  1  0  0  0  0  0  0
  191.3300  175.8790  146.1610 C   0  0  0  0  0  1  0  0  0  0  0  0
  190.7130  176.3950  147.4520 C   0  0  0  0  0  3  0  0  0  0  0  0
  186.0640  177.9070  136.7730 C   0  0  2  0  0  3  0  0  0  0  0  0
  185.2770  176.7200  136.4700 N   0  0  0  0  0  2  0  0  0  0  0  0
  183.8040  175.7020  134.8160 C   0  0  0  0  0  1  0  0  0  0  0  0
  184.6830  176.8900  135.1530 C   0  0  0  0  0  2  0  0  0  0  0  0
  187.1930  177.5160  137.7340 C   0  0  0  0  0  2  0  0  0  0  0  0
  187.3450  176.0030  137.8640 C   0  0  0  0  0  2  0  0  0  0  0  0
  188.0980  175.4320  136.6710 C   0  0  0  0  0  2  0  0  0  0  0  0
  188.2700  173.9410  136.8730 C   0  0  0  0  0  2  0  0  0  0  0  0
  189.3030  174.2580  134.7570 O   0  0  0  0  0  1  0  0  0  0  0  0
  189.2510  173.3870  135.8490 C   0  0  1  0  0  3  0  0  0  0  0  0
  190.6450  173.2720  136.4570 C   0  0  0  0  0  2  0  0  0  0  0  0
  192.5290  172.9780  134.8190 C   0  0  0  0  0  1  0  0  0  0  0  0
  191.7000  173.9700  135.6100 C   0  0  2  0  0  3  0  0  0  0  0  0
  192.5270  175.0110  136.3820 C   0  0  0  0  0  2  0  0  0  0  0  0
  194.1530  175.2250  134.5990 O   0  0  0  0  0  1  0  0  0  0  0  0
  194.0080  175.2230  135.9950 C   0  0  1  0  0  0  0  0  0  0  0  0
  195.2050  177.2610  135.5310 O   0  0  0  0  0  1  0  0  0  0  0  0
  194.4060  176.6130  136.4760 C   0  0  0  0  0  2  0  0  0  0  0  0
  194.8770  174.2920  136.6240 O   0  0  0  0  0  0  0  0  0  0  0  0
  194.4090  173.9510  137.9100 C   0  0  0  0  0  2  0  0  0  0  0  0
  195.3900  173.0170  138.6100 C   0  0  0  0  0  2  0  0  0  0  0  0
  196.7820  173.1250  137.9920 C   0  0  0  0  0  2  0  0  0  0  0  0
  195.6800  171.8500  136.2930 O   0  0  0  0  0  0  0  0  0  0  0  0
  196.5570  169.8410  137.1530 C   0  0  0  0  0  2  0  0  0  0  0  0
  195.6640  170.4580  136.1170 C   0  0  1  0  0  3  0  0  0  0  0  0
  194.2530  169.9300  136.2540 C   0  0  0  0  0  1  0  0  0  0  0  0
  196.9490  172.1600  136.8250 C   0  0  2  0  0  3  0  0  0  0  0  0
  197.6190  170.8790  137.3010 C   0  0  0  0  0  2  0  0  0  0  0  0
  1  4  1  6  0  0  0
  1  3  1  0  0  0  0
  2 35  1  1  0  0  0
  2  1  1  0  0  0  0
  2  3  1  0  0  0  0
  4 10  1  0  0  0  0
  5  9  1  0  0  0  0
  6  5  2  0  0  0  0
  7 11  1  0  0  0  0
  7  9  2  0  0  0  0
  8 10  2  0  0  0  0
  8  6  1  0  0  0  0
 10  7  1  0  0  0  0
 11 12  1  1  0  0  0
 11 18  1  0  0  0  0
 13 14  2  0  0  0  0
 14 12  2  0  0  0  0
 15 13  1  0  0  0  0
 16 15  1  0  0  0  0
 17 16  1  0  0  0  0
 18 19  1  0  0  0  0
 20 19  1  1  0  0  0
 20 24  1  0  0  0  0
 21 20  1  0  0  0  0
 22 28  1  1  0  0  0
 23 26  1  0  0  0  0
 24 22  1  0  0  0  0
 25 21  1  0  0  0  0
 25 26  2  0  0  0  0
 26 27  1  0  0  0  0
 27 22  1  0  0  0  0
 28 30  1  0  0  0  0
 29 34  1  0  0  0  0
 29 31  2  0  0  0  0
 30 29  1  0  0  0  0
 33 34  1  0  0  0  0
 34 32  1  0  0  0  0
 35 39  1  1  0  0  0
 36 35  1  0  0  0  0
 37 38  1  0  0  0  0
 38 36  1  0  0  0  0
 39 40  1  0  0  0  0
 41 42  1  0  0  0  0
 41 40  1  0  0  0  0
 44 43  1  6  0  0  0
 44 45  1  0  0  0  0
 44 42  1  0  0  0  0
 47 46  1  1  0  0  0
 47 48  1  0  0  0  0
 47 45  1  0  0  0  0
 50 49  1  6  0  0  0
 50 48  1  0  0  0  0
 50 52  1  0  0  0  0
 50 53  1  0  0  0  0
 51 52  1  0  0  0  0
 53 54  1  0  0  0  0
 54 55  1  0  0  0  0
 56 55  1  0  0  0  0
 57 61  1  0  0  0  0
 58 62  1  0  0  0  0
 59 60  1  1  0  0  0
 59 57  1  0  0  0  0
 59 58  1  0  0  0  0
 61 62  1  0  0  0  0
 61 56  1  1  0  0  0
M  END
>  <MODEL>
4

>  <REMARK>
 VINA RESULT:      -2.8      2.917      5.366
  Name = 
  30 active torsions:
  status: ('A' for Active; 'I' for Inactive)
    1  A    between atoms: C_1  and  C_51
    2  A    between atoms: C_2  and  C_50
    3  A    between atoms: C_2  and  C_60
    4  A    between atoms: C_4  and  C_33
    5  A    between atoms: C_4  and  C_47
    6  A    between atoms: C_5  and  C_12
    7  A    between atoms: C_5  and  C_44
    8  A    between atoms: O_6  and  C_30
    9  A    between atoms: O_6  and  C_42
   10  A    between atoms: C_10  and  C_16
   11  A    between atoms: C_10  and  N_20
   12  A    between atoms: C_12  and  C_31
   13  A    between atoms: C_13  and  C_35
   14  A    between atoms: C_19  and  C_54
   15  A    between atoms: C_21  and  N_58
   16  A    between atoms: C_22  and  C_56
   17  A    between atoms: N_24  and  C_34
   18  A    between atoms: N_24  and  C_51
   19  A    between atoms: C_26  and  C_47
   20  A    between atoms: C_26  and  C_56
   21  A    between atoms: C_29  and  C_34
   22  A    between atoms: C_30  and  C_50
   23  A    between atoms: C_31  and  C_42
   24  A    between atoms: C_33  and  C_44
   25  A    between atoms: C_34  and  C_55
   26  A    between atoms: C_35  and  C_59
   27  A    between atoms: C_42  and  C_48
   28  A    between atoms: N_45  and  C_53
   29  A    between atoms: N_45  and  C_56
   30  A    between atoms: C_46  and  N_58
                            x       y       z     vdW  Elec       q    Type
                         _______ _______ _______ _____ _____    ______ ____

>  <TORSDO>
F 30

$$$$
=
 OpenBabel11062416373D

 62 65  0  0  1  0  0  0  0  0999 V2000
  183.8580  178.9040  138.3740 C   0  0  1  0  0  3  0  0  0  0  0  0
  184.6980  179.2040  137.1410 C   0  0  1  0  0  3  0  0  0  0  0  0
  185.1510  179.6990  138.5070 C   0  0  0  0  0  2  0  0  0  0  0  0
  182.7080  179.7940  138.3510 N   0  0  0  0  0  2  0  0  0  0  0  0
  179.4860  179.2720  140.9900 C   0  0  0  0  0  3  0  0  0  0  0  0
  179.3270  180.0810  139.8650 C   0  0  0  0  0  3  0  0  0  0  0  0
  181.7710  178.8990  140.4500 C   0  0  0  0  0  0  0  0  0  0  0  0
  180.4130  180.2950  139.0140 C   0  0  0  0  0  3  0  0  0  0  0  0
  180.6920  178.7060  141.2570 N   0  0  0  0  0  0  0  0  0  0  0  0
  181.6460  179.7140  139.3020 C   0  0  0  0  0  0  0  0  0  0  0  0
  183.0650  178.2300  140.8040 C   0  0  2  0  0  3  0  0  0  0  0  0
  183.1510  176.8780  140.1600 C   0  0  0  0  0  3  0  0  0  0  0  0
  180.9980  175.4670  139.7210 C   0  0  0  0  0  3  0  0  0  0  0  0
  182.0880  176.1510  139.9440 C   0  0  0  0  0  0  0  0  0  0  0  0
  180.3300  175.5520  138.3890 C   0  0  0  0  0  2  0  0  0  0  0  0
  180.3870  176.9750  137.8510 C   0  0  0  0  0  2  0  0  0  0  0  0
  179.0830  177.3650  137.3540 N   0  0  0  0  0  1  0  0  0  0  0  0
  183.2080  178.1570  142.2570 N   0  0  0  0  0  2  0  0  0  0  0  0
  183.9720  179.3150  142.7020 C   0  0  0  0  0  2  0  0  0  0  0  0
  185.0150  178.9420  143.7450 C   0  0  1  0  0  3  0  0  0  0  0  0
  184.3580  178.4150  145.0210 C   0  0  0  0  0  2  0  0  0  0  0  0
  186.6770  177.0280  144.1580 C   0  0  2  0  0  3  0  0  0  0  0  0
  187.3450  178.6670  147.8490 Cl  0  0  0  0  0  0  0  0  0  0  0  0
  185.9620  177.9100  143.1350 C   0  0  0  0  0  2  0  0  0  0  0  0
  185.2250  178.6370  146.2270 C   0  0  0  0  0  3  0  0  0  0  0  0
  186.5400  178.3490  146.3190 C   0  0  0  0  0  0  0  0  0  0  0  0
  187.4130  177.8840  145.1760 C   0  0  0  0  0  2  0  0  0  0  0  0
  187.6580  176.1070  143.4480 C   0  0  0  0  0  2  0  0  0  0  0  0
  190.0200  176.7380  142.8110 C   0  0  0  0  0  0  0  0  0  0  0  0
  189.0220  176.4740  143.8020 N   0  0  0  0  0  2  0  0  0  0  0  0
  189.8460  176.3300  141.6320 O   0  0  0  0  0  0  0  0  0  0  0  0
  192.0460  176.7410  144.2590 C   0  0  0  0  0  1  0  0  0  0  0  0
  190.9560  178.8800  143.6930 C   0  0  0  0  0  1  0  0  0  0  0  0
  191.2720  177.4830  143.1840 C   0  0  0  0  0  3  0  0  0  0  0  0
  185.5770  178.0350  136.6480 C   0  0  2  0  0  3  0  0  0  0  0  0
  184.8490  176.7820  136.7960 N   0  0  0  0  0  2  0  0  0  0  0  0
  184.3550  174.9700  135.2420 C   0  0  0  0  0  1  0  0  0  0  0  0
  184.2380  176.4560  135.5160 C   0  0  0  0  0  2  0  0  0  0  0  0
  186.9510  177.8860  137.3140 C   0  0  0  0  0  2  0  0  0  0  0  0
  187.2510  176.4420  137.7060 C   0  0  0  0  0  2  0  0  0  0  0  0
  187.8520  175.6780  136.5350 C   0  0  0  0  0  2  0  0  0  0  0  0
  188.2830  174.3090  137.0170 C   0  0  0  0  0  2  0  0  0  0  0  0
  188.5160  174.1690  134.6570 O   0  0  0  0  0  1  0  0  0  0  0  0
  188.7750  173.4750  135.8430 C   0  0  1  0  0  3  0  0  0  0  0  0
  190.2770  173.2330  135.9560 C   0  0  0  0  0  2  0  0  0  0  0  0
  191.3940  175.2090  134.8760 C   0  0  0  0  0  1  0  0  0  0  0  0
  191.0510  174.5230  136.1840 C   0  0  2  0  0  3  0  0  0  0  0  0
  192.2390  174.3730  137.1490 C   0  0  0  0  0  2  0  0  0  0  0  0
  194.0340  174.4980  135.5270 O   0  0  0  0  0  1  0  0  0  0  0  0
  193.5560  173.7620  136.6220 C   0  0  1  0  0  0  0  0  0  0  0  0
  194.6290  175.2080  138.2200 O   0  0  0  0  0  1  0  0  0  0  0  0
  194.5940  173.9020  137.7280 C   0  0  0  0  0  2  0  0  0  0  0  0
  193.4360  172.3770  136.3260 O   0  0  0  0  0  0  0  0  0  0  0  0
  194.5700  171.9060  135.6350 C   0  0  0  0  0  2  0  0  0  0  0  0
  194.6570  170.3850  135.7150 C   0  0  0  0  0  2  0  0  0  0  0  0
  195.9280  169.8760  135.0380 C   0  0  0  0  0  2  0  0  0  0  0  0
  197.2830  171.7140  135.7580 O   0  0  0  0  0  0  0  0  0  0  0  0
  199.1500  170.8620  134.6050 C   0  0  0  0  0  2  0  0  0  0  0  0
  198.6210  171.9900  135.4410 C   0  0  1  0  0  3  0  0  0  0  0  0
  198.7220  173.2980  134.6870 C   0  0  0  0  0  1  0  0  0  0  0  0
  197.1750  170.3080  135.8000 C   0  0  2  0  0  3  0  0  0  0  0  0
  198.4130  169.6920  135.1660 C   0  0  0  0  0  2  0  0  0  0  0  0
  1  4  1  6  0  0  0
  1  3  1  0  0  0  0
  2 35  1  1  0  0  0
  2  1  1  0  0  0  0
  2  3  1  0  0  0  0
  4 10  1  0  0  0  0
  5  9  1  0  0  0  0
  6  5  2  0  0  0  0
  7 11  1  0  0  0  0
  7  9  2  0  0  0  0
  8 10  2  0  0  0  0
  8  6  1  0  0  0  0
 10  7  1  0  0  0  0
 11 12  1  1  0  0  0
 11 18  1  0  0  0  0
 13 14  2  0  0  0  0
 14 12  2  0  0  0  0
 15 13  1  0  0  0  0
 16 15  1  0  0  0  0
 17 16  1  0  0  0  0
 18 19  1  0  0  0  0
 20 19  1  6  0  0  0
 20 21  1  0  0  0  0
 21 25  1  0  0  0  0
 22 28  1  6  0  0  0
 22 27  1  0  0  0  0
 24 20  1  0  0  0  0
 24 22  1  0  0  0  0
 25 26  2  0  0  0  0
 26 23  1  0  0  0  0
 27 26  1  0  0  0  0
 28 30  1  0  0  0  0
 29 34  1  0  0  0  0
 29 30  1  0  0  0  0
 31 29  2  0  0  0  0
 34 33  1  0  0  0  0
 34 32  1  0  0  0  0
 35 36  1  0  0  0  0
 35 39  1  1  0  0  0
 37 38  1  0  0  0  0
 38 36  1  0  0  0  0
 39 40  1  0  0  0  0
 41 42  1  0  0  0  0
 41 40  1  0  0  0  0
 44 43  1  6  0  0  0
 44 45  1  0  0  0  0
 44 42  1  0  0  0  0
 45 47  1  0  0  0  0
 47 46  1  6  0  0  0
 47 48  1  0  0  0  0
 50 49  1  6  0  0  0
 50 48  1  0  0  0  0
 50 52  1  0  0  0  0
 52 51  1  0  0  0  0
 53 50  1  0  0  0  0
 54 55  1  0  0  0  0
 54 53  1  0  0  0  0
 56 55  1  0  0  0  0
 57 61  1  0  0  0  0
 58 62  1  0  0  0  0
 58 59  1  0  0  0  0
 59 60  1  6  0  0  0
 59 57  1  0  0  0  0
 61 56  1  6  0  0  0
 62 61  1  0  0  0  0
M  END
>  <MODEL>
5

>  <REMARK>
 VINA RESULT:      -2.7      3.123      5.696
  Name = 
  30 active torsions:
  status: ('A' for Active; 'I' for Inactive)
    1  A    between atoms: C_1  and  C_51
    2  A    between atoms: C_2  and  C_50
    3  A    between atoms: C_2  and  C_60
    4  A    between atoms: C_4  and  C_33
    5  A    between atoms: C_4  and  C_47
    6  A    between atoms: C_5  and  C_12
    7  A    between atoms: C_5  and  C_44
    8  A    between atoms: O_6  and  C_30
    9  A    between atoms: O_6  and  C_42
   10  A    between atoms: C_10  and  C_16
   11  A    between atoms: C_10  and  N_20
   12  A    between atoms: C_12  and  C_31
   13  A    between atoms: C_13  and  C_35
   14  A    between atoms: C_19  and  C_54
   15  A    between atoms: C_21  and  N_58
   16  A    between atoms: C_22  and  C_56
   17  A    between atoms: N_24  and  C_34
   18  A    between atoms: N_24  and  C_51
   19  A    between atoms: C_26  and  C_47
   20  A    between atoms: C_26  and  C_56
   21  A    between atoms: C_29  and  C_34
   22  A    between atoms: C_30  and  C_50
   23  A    between atoms: C_31  and  C_42
   24  A    between atoms: C_33  and  C_44
   25  A    between atoms: C_34  and  C_55
   26  A    between atoms: C_35  and  C_59
   27  A    between atoms: C_42  and  C_48
   28  A    between atoms: N_45  and  C_53
   29  A    between atoms: N_45  and  C_56
   30  A    between atoms: C_46  and  N_58
                            x       y       z     vdW  Elec       q    Type
                         _______ _______ _______ _____ _____    ______ ____

>  <TORSDO>
F 30

$$$$
=
 OpenBabel11062416373D

 62 65  0  0  1  0  0  0  0  0999 V2000
  184.2980  177.4890  137.8950 C   0  0  1  0  0  3  0  0  0  0  0  0
  183.7900  176.1800  137.3080 C   0  0  1  0  0  3  0  0  0  0  0  0
  183.7370  176.4090  138.8110 C   0  0  0  0  0  2  0  0  0  0  0  0
  185.7520  177.4440  137.8790 N   0  0  0  0  0  2  0  0  0  0  0  0
  188.2270  178.2940  134.5980 C   0  0  0  0  0  3  0  0  0  0  0  0
  187.0950  179.0790  134.8250 C   0  0  0  0  0  3  0  0  0  0  0  0
  187.6780  176.8950  136.4400 C   0  0  0  0  0  0  0  0  0  0  0  0
  186.2450  178.7650  135.8860 C   0  0  0  0  0  3  0  0  0  0  0  0
  188.4890  177.2300  135.3990 N   0  0  0  0  0  0  0  0  0  0  0  0
  186.5220  177.6670  136.6980 C   0  0  0  0  0  0  0  0  0  0  0  0
  188.0420  175.7140  137.2870 C   0  0  2  0  0  3  0  0  0  0  0  0
  187.0450  174.6090  137.1060 C   0  0  0  0  0  3  0  0  0  0  0  0
  187.4960  172.6650  135.4210 C   0  0  0  0  0  3  0  0  0  0  0  0
  187.2450  173.6350  136.2580 C   0  0  0  0  0  0  0  0  0  0  0  0
  188.1190  171.4020  135.9150 C   0  0  0  0  0  2  0  0  0  0  0  0
  187.2380  170.2060  135.5800 C   0  0  0  0  0  2  0  0  0  0  0  0
  186.0060  170.6590  134.9660 N   0  0  0  0  0  1  0  0  0  0  0  0
  188.1640  176.1210  138.6860 N   0  0  0  0  0  2  0  0  0  0  0  0
  188.6970  177.4770  138.7260 C   0  0  0  0  0  2  0  0  0  0  0  0
  189.7520  177.6410  139.8090 C   0  0  1  0  0  3  0  0  0  0  0  0
  189.4010  176.8230  141.0520 C   0  0  0  0  0  2  0  0  0  0  0  0
  192.1300  176.7950  140.2800 C   0  0  2  0  0  3  0  0  0  0  0  0
  191.7690  178.4450  144.0080 Cl  0  0  0  0  0  0  0  0  0  0  0  0
  191.1060  177.2340  139.2330 C   0  0  0  0  0  2  0  0  0  0  0  0
  190.0010  177.4120  142.2960 C   0  0  0  0  0  3  0  0  0  0  0  0
  191.2820  177.8130  142.4430 C   0  0  0  0  0  0  0  0  0  0  0  0
  192.3080  177.8740  141.3350 C   0  0  0  0  0  2  0  0  0  0  0  0
  193.4620  176.5030  139.6060 C   0  0  0  0  0  2  0  0  0  0  0  0
  193.4710  175.7080  137.2080 C   0  0  0  0  0  0  0  0  0  0  0  0
  193.3560  176.7550  138.1760 N   0  0  0  0  0  2  0  0  0  0  0  0
  194.0040  174.6140  137.5370 O   0  0  0  0  0  0  0  0  0  0  0  0
  191.9130  174.8970  135.4430 C   0  0  0  0  0  1  0  0  0  0  0  0
  194.1040  175.8250  134.7930 C   0  0  0  0  0  1  0  0  0  0  0  0
  192.9730  175.9210  135.8050 C   0  0  0  0  0  3  0  0  0  0  0  0
  182.3830  176.2470  136.6790 C   0  0  2  0  0  3  0  0  0  0  0  0
  182.5010  176.4500  135.2420 N   0  0  0  0  0  2  0  0  0  0  0  0
  183.1290  174.1110  134.9680 C   0  0  0  0  0  1  0  0  0  0  0  0
  183.5300  175.5540  134.7370 C   0  0  0  0  0  2  0  0  0  0  0  0
  181.4310  177.3060  137.2480 C   0  0  0  0  0  2  0  0  0  0  0  0
  179.9990  176.7930  137.3700 C   0  0  0  0  0  2  0  0  0  0  0  0
  179.5180  176.8700  138.8120 C   0  0  0  0  0  2  0  0  0  0  0  0
  180.3730  177.8740  139.5560 C   0  0  0  0  0  2  0  0  0  0  0  0
  178.9330  177.0180  141.2410 O   0  0  0  0  0  1  0  0  0  0  0  0
  180.0620  177.8190  141.0450 C   0  0  1  0  0  3  0  0  0  0  0  0
  181.2350  177.2150  141.8100 C   0  0  0  0  0  2  0  0  0  0  0  0
  180.9120  179.0710  143.4740 C   0  0  0  0  0  1  0  0  0  0  0  0
  181.9190  178.2340  142.7110 C   0  0  2  0  0  3  0  0  0  0  0  0
  183.0150  179.0510  142.0060 C   0  0  0  0  0  2  0  0  0  0  0  0
  185.3030  179.8230  141.8010 O   0  0  0  0  0  1  0  0  0  0  0  0
  184.4520  179.0170  142.5740 C   0  0  1  0  0  0  0  0  0  0  0  0
  185.0590  180.8740  143.9820 O   0  0  0  0  0  1  0  0  0  0  0  0
  184.4030  179.6420  143.9630 C   0  0  0  0  0  2  0  0  0  0  0  0
  184.9510  177.6960  142.7210 O   0  0  0  0  0  0  0  0  0  0  0  0
  186.3350  177.7030  142.9900 C   0  0  0  0  0  2  0  0  0  0  0  0
  186.5950  177.9370  144.4740 C   0  0  0  0  0  2  0  0  0  0  0  0
  187.8980  177.2690  144.9100 C   0  0  0  0  0  2  0  0  0  0  0  0
  187.8430  178.1590  147.1310 O   0  0  0  0  0  0  0  0  0  0  0  0
  189.8970  177.1340  147.6530 C   0  0  0  0  0  2  0  0  0  0  0  0
  188.8010  178.0310  148.1480 C   0  0  1  0  0  3  0  0  0  0  0  0
  189.3580  179.3890  148.5160 C   0  0  0  0  0  1  0  0  0  0  0  0
  187.8880  176.9530  146.4010 C   0  0  2  0  0  3  0  0  0  0  0  0
  189.1460  176.1860  146.7780 C   0  0  0  0  0  2  0  0  0  0  0  0
  1  4  1  1  0  0  0
  1  3  1  0  0  0  0
  2 35  1  6  0  0  0
  2  1  1  0  0  0  0
  2  3  1  0  0  0  0
  5  6  2  0  0  0  0
  5  9  1  0  0  0  0
  6  8  1  0  0  0  0
  7 10  1  0  0  0  0
  7 11  1  0  0  0  0
  8 10  2  0  0  0  0
  9  7  2  0  0  0  0
 10  4  1  0  0  0  0
 11 12  1  1  0  0  0
 11 18  1  0  0  0  0
 13 15  1  0  0  0  0
 13 14  2  0  0  0  0
 14 12  2  0  0  0  0
 16 15  1  0  0  0  0
 17 16  1  0  0  0  0
 18 19  1  0  0  0  0
 20 19  1  6  0  0  0
 20 21  1  0  0  0  0
 21 25  1  0  0  0  0
 22 28  1  6  0  0  0
 22 27  1  0  0  0  0
 24 20  1  0  0  0  0
 24 22  1  0  0  0  0
 25 26  2  0  0  0  0
 26 23  1  0  0  0  0
 27 26  1  0  0  0  0
 29 31  2  0  0  0  0
 29 30  1  0  0  0  0
 30 28  1  0  0  0  0
 32 34  1  0  0  0  0
 33 34  1  0  0  0  0
 34 29  1  0  0  0  0
 35 39  1  1  0  0  0
 36 35  1  0  0  0  0
 38 37  1  0  0  0  0
 38 36  1  0  0  0  0
 39 40  1  0  0  0  0
 40 41  1  0  0  0  0
 41 42  1  0  0  0  0
 42 44  1  0  0  0  0
 44 43  1  6  0  0  0
 44 45  1  0  0  0  0
 45 47  1  0  0  0  0
 47 46  1  6  0  0  0
 48 50  1  0  0  0  0
 48 47  1  0  0  0  0
 50 49  1  6  0  0  0
 50 53  1  0  0  0  0
 50 52  1  0  0  0  0
 52 51  1  0  0  0  0
 53 54  1  0  0  0  0
 54 55  1  0  0  0  0
 55 56  1  0  0  0  0
 57 59  1  0  0  0  0
 58 59  1  0  0  0  0
 59 60  1  6  0  0  0
 61 56  1  6  0  0  0
 61 62  1  0  0  0  0
 61 57  1  0  0  0  0
 62 58  1  0  0  0  0
M  END
>  <MODEL>
6

>  <REMARK>
 VINA RESULT:      -2.0      3.068      8.641
  Name = 
  30 active torsions:
  status: ('A' for Active; 'I' for Inactive)
    1  A    between atoms: C_1  and  C_51
    2  A    between atoms: C_2  and  C_50
    3  A    between atoms: C_2  and  C_60
    4  A    between atoms: C_4  and  C_33
    5  A    between atoms: C_4  and  C_47
    6  A    between atoms: C_5  and  C_12
    7  A    between atoms: C_5  and  C_44
    8  A    between atoms: O_6  and  C_30
    9  A    between atoms: O_6  and  C_42
   10  A    between atoms: C_10  and  C_16
   11  A    between atoms: C_10  and  N_20
   12  A    between atoms: C_12  and  C_31
   13  A    between atoms: C_13  and  C_35
   14  A    between atoms: C_19  and  C_54
   15  A    between atoms: C_21  and  N_58
   16  A    between atoms: C_22  and  C_56
   17  A    between atoms: N_24  and  C_34
   18  A    between atoms: N_24  and  C_51
   19  A    between atoms: C_26  and  C_47
   20  A    between atoms: C_26  and  C_56
   21  A    between atoms: C_29  and  C_34
   22  A    between atoms: C_30  and  C_50
   23  A    between atoms: C_31  and  C_42
   24  A    between atoms: C_33  and  C_44
   25  A    between atoms: C_34  and  C_55
   26  A    between atoms: C_35  and  C_59
   27  A    between atoms: C_42  and  C_48
   28  A    between atoms: N_45  and  C_53
   29  A    between atoms: N_45  and  C_56
   30  A    between atoms: C_46  and  N_58
                            x       y       z     vdW  Elec       q    Type
                         _______ _______ _______ _____ _____    ______ ____

>  <TORSDO>
F 30

$$$$
=
 OpenBabel11062416373D

 62 65  0  0  1  0  0  0  0  0999 V2000
  184.3190  177.4950  137.9970 C   0  0  1  0  0  3  0  0  0  0  0  0
  183.7340  176.2490  137.3470 C   0  0  1  0  0  3  0  0  0  0  0  0
  183.6840  176.4110  138.8590 C   0  0  0  0  0  2  0  0  0  0  0  0
  185.7670  177.3590  137.9860 N   0  0  0  0  0  2  0  0  0  0  0  0
  188.2780  178.1500  134.7170 C   0  0  0  0  0  3  0  0  0  0  0  0
  187.0970  178.8780  134.8660 C   0  0  0  0  0  3  0  0  0  0  0  0
  187.7610  176.8390  136.6310 C   0  0  0  0  0  0  0  0  0  0  0  0
  186.2380  178.5800  135.9250 C   0  0  0  0  0  3  0  0  0  0  0  0
  188.5810  177.1560  135.5910 N   0  0  0  0  0  0  0  0  0  0  0  0
  186.5560  177.5540  136.8110 C   0  0  0  0  0  0  0  0  0  0  0  0
  188.1710  175.7370  137.5610 C   0  0  2  0  0  3  0  0  0  0  0  0
  187.1210  174.6670  137.6030 C   0  0  0  0  0  3  0  0  0  0  0  0
  186.4780  173.3400  135.4480 C   0  0  0  0  0  3  0  0  0  0  0  0
  186.7750  174.0010  136.5340 C   0  0  0  0  0  0  0  0  0  0  0  0
  187.1440  172.0330  135.1700 C   0  0  0  0  0  2  0  0  0  0  0  0
  188.6470  172.1430  135.3870 C   0  0  0  0  0  2  0  0  0  0  0  0
  189.2410  170.8210  135.3810 N   0  0  0  0  0  1  0  0  0  0  0  0
  188.4550  176.2820  138.8870 N   0  0  0  0  0  2  0  0  0  0  0  0
  189.3120  177.4500  138.7300 C   0  0  0  0  0  2  0  0  0  0  0  0
  190.7880  177.0820  138.7670 C   0  0  1  0  0  3  0  0  0  0  0  0
  191.1600  176.4230  140.0940 C   0  0  0  0  0  2  0  0  0  0  0  0
  192.3110  175.2700  137.7730 C   0  0  2  0  0  3  0  0  0  0  0  0
  195.2700  176.6940  140.2150 Cl  0  0  0  0  0  0  0  0  0  0  0  0
  191.0880  176.1660  137.5820 C   0  0  0  0  0  2  0  0  0  0  0  0
  192.6110  176.6230  140.4300 C   0  0  0  0  0  3  0  0  0  0  0  0
  193.6500  176.4250  139.5910 C   0  0  0  0  0  0  0  0  0  0  0  0
  193.5340  176.1040  138.1180 C   0  0  0  0  0  2  0  0  0  0  0  0
  192.5690  174.4730  136.5020 C   0  0  0  0  0  2  0  0  0  0  0  0
  194.5400  173.0260  137.1370 C   0  0  0  0  0  0  0  0  0  0  0  0
  193.1490  173.1810  136.8410 N   0  0  0  0  0  2  0  0  0  0  0  0
  195.3540  173.9200  136.7820 O   0  0  0  0  0  0  0  0  0  0  0  0
  196.5410  171.7480  137.8880 C   0  0  0  0  0  1  0  0  0  0  0  0
  194.5160  170.5280  137.1870 C   0  0  0  0  0  1  0  0  0  0  0  0
  195.0250  171.7960  137.8540 C   0  0  0  0  0  3  0  0  0  0  0  0
  182.3390  176.4350  136.7160 C   0  0  2  0  0  3  0  0  0  0  0  0
  182.4750  176.6200  135.2770 N   0  0  0  0  0  2  0  0  0  0  0  0
  182.7800  174.2350  134.8770 C   0  0  0  0  0  1  0  0  0  0  0  0
  181.9180  175.4530  134.6120 C   0  0  0  0  0  2  0  0  0  0  0  0
  181.4810  177.5750  137.2780 C   0  0  0  0  0  2  0  0  0  0  0  0
  180.0310  177.1550  137.4980 C   0  0  0  0  0  2  0  0  0  0  0  0
  179.6280  177.3460  138.9530 C   0  0  0  0  0  2  0  0  0  0  0  0
  180.6290  178.2670  139.6180 C   0  0  0  0  0  2  0  0  0  0  0  0
  179.5960  177.1580  141.4480 O   0  0  0  0  0  1  0  0  0  0  0  0
  180.6500  178.0150  141.1190 C   0  0  1  0  0  3  0  0  0  0  0  0
  181.9650  177.3600  141.5290 C   0  0  0  0  0  2  0  0  0  0  0  0
  181.6720  178.8250  143.5500 C   0  0  0  0  0  1  0  0  0  0  0  0
  182.6650  178.1240  142.6450 C   0  0  2  0  0  3  0  0  0  0  0  0
  183.8170  179.0180  142.1590 C   0  0  0  0  0  2  0  0  0  0  0  0
  186.0280  179.9630  142.4620 O   0  0  0  0  0  1  0  0  0  0  0  0
  185.1930  178.9040  142.8530 C   0  0  1  0  0  0  0  0  0  0  0  0
  184.6940  180.3960  144.6770 O   0  0  0  0  0  1  0  0  0  0  0  0
  184.9580  179.0640  144.3500 C   0  0  0  0  0  2  0  0  0  0  0  0
  185.8030  177.6370  142.6520 O   0  0  0  0  0  0  0  0  0  0  0  0
  187.1890  177.6970  142.9020 C   0  0  0  0  0  2  0  0  0  0  0  0
  187.6750  176.4080  143.5580 C   0  0  0  0  0  2  0  0  0  0  0  0
  188.3460  176.6990  144.8990 C   0  0  0  0  0  2  0  0  0  0  0  0
  190.4890  176.5330  143.8460 O   0  0  0  0  0  0  0  0  0  0  0  0
  191.5770  176.5210  145.9330 C   0  0  0  0  0  2  0  0  0  0  0  0
  191.7520  176.4260  144.4470 C   0  0  1  0  0  3  0  0  0  0  0  0
  192.3990  175.1100  144.0750 C   0  0  0  0  0  1  0  0  0  0  0  0
  189.7160  177.3390  144.7080 C   0  0  2  0  0  3  0  0  0  0  0  0
  190.4250  177.4630  146.0480 C   0  0  0  0  0  2  0  0  0  0  0  0
  1  4  1  1  0  0  0
  1  3  1  0  0  0  0
  2 35  1  6  0  0  0
  2  1  1  0  0  0  0
  2  3  1  0  0  0  0
  5  6  2  0  0  0  0
  5  9  1  0  0  0  0
  6  8  1  0  0  0  0
  7 10  1  0  0  0  0
  7 11  1  0  0  0  0
  8 10  2  0  0  0  0
  9  7  2  0  0  0  0
 10  4  1  0  0  0  0
 11 12  1  1  0  0  0
 11 18  1  0  0  0  0
 13 14  2  0  0  0  0
 14 12  2  0  0  0  0
 15 16  1  0  0  0  0
 15 13  1  0  0  0  0
 17 16  1  0  0  0  0
 19 18  1  0  0  0  0
 20 19  1  1  0  0  0
 20 21  1  0  0  0  0
 21 25  1  0  0  0  0
 22 28  1  6  0  0  0
 22 27  1  0  0  0  0
 24 22  1  0  0  0  0
 24 20  1  0  0  0  0
 26 23  1  0  0  0  0
 26 25  2  0  0  0  0
 27 26  1  0  0  0  0
 28 30  1  0  0  0  0
 29 34  1  0  0  0  0
 30 29  1  0  0  0  0
 31 29  2  0  0  0  0
 33 34  1  0  0  0  0
 34 32  1  0  0  0  0
 35 39  1  1  0  0  0
 36 35  1  0  0  0  0
 38 37  1  0  0  0  0
 38 36  1  0  0  0  0
 39 40  1  0  0  0  0
 40 41  1  0  0  0  0
 41 42  1  0  0  0  0
 42 44  1  0  0  0  0
 44 43  1  6  0  0  0
 44 45  1  0  0  0  0
 45 47  1  0  0  0  0
 47 46  1  6  0  0  0
 48 47  1  0  0  0  0
 48 50  1  0  0  0  0
 50 49  1  6  0  0  0
 50 52  1  0  0  0  0
 52 51  1  0  0  0  0
 53 50  1  0  0  0  0
 53 54  1  0  0  0  0
 54 55  1  0  0  0  0
 55 56  1  0  0  0  0
 57 59  1  0  0  0  0
 57 61  1  0  0  0  0
 58 62  1  0  0  0  0
 59 60  1  1  0  0  0
 59 58  1  0  0  0  0
 61 56  1  1  0  0  0
 61 62  1  0  0  0  0
M  END
>  <MODEL>
7

>  <REMARK>
 VINA RESULT:      -1.9      3.381      8.784
  Name = 
  30 active torsions:
  status: ('A' for Active; 'I' for Inactive)
    1  A    between atoms: C_1  and  C_51
    2  A    between atoms: C_2  and  C_50
    3  A    between atoms: C_2  and  C_60
    4  A    between atoms: C_4  and  C_33
    5  A    between atoms: C_4  and  C_47
    6  A    between atoms: C_5  and  C_12
    7  A    between atoms: C_5  and  C_44
    8  A    between atoms: O_6  and  C_30
    9  A    between atoms: O_6  and  C_42
   10  A    between atoms: C_10  and  C_16
   11  A    between atoms: C_10  and  N_20
   12  A    between atoms: C_12  and  C_31
   13  A    between atoms: C_13  and  C_35
   14  A    between atoms: C_19  and  C_54
   15  A    between atoms: C_21  and  N_58
   16  A    between atoms: C_22  and  C_56
   17  A    between atoms: N_24  and  C_34
   18  A    between atoms: N_24  and  C_51
   19  A    between atoms: C_26  and  C_47
   20  A    between atoms: C_26  and  C_56
   21  A    between atoms: C_29  and  C_34
   22  A    between atoms: C_30  and  C_50
   23  A    between atoms: C_31  and  C_42
   24  A    between atoms: C_33  and  C_44
   25  A    between atoms: C_34  and  C_55
   26  A    between atoms: C_35  and  C_59
   27  A    between atoms: C_42  and  C_48
   28  A    between atoms: N_45  and  C_53
   29  A    between atoms: N_45  and  C_56
   30  A    between atoms: C_46  and  N_58
                            x       y       z     vdW  Elec       q    Type
                         _______ _______ _______ _____ _____    ______ ____

>  <TORSDO>
F 30

$$$$
=
 OpenBabel11062416373D

 62 65  0  0  1  0  0  0  0  0999 V2000
  183.1380  178.4860  137.0350 C   0  0  1  0  0  3  0  0  0  0  0  0
  182.2950  177.9600  135.8820 C   0  0  1  0  0  3  0  0  0  0  0  0
  183.6200  178.6510  135.5990 C   0  0  0  0  0  2  0  0  0  0  0  0
  182.5170  179.7120  137.5120 N   0  0  0  0  0  2  0  0  0  0  0  0
  179.1270  179.4450  139.9730 C   0  0  0  0  0  3  0  0  0  0  0  0
  179.0710  180.2160  138.8100 C   0  0  0  0  0  3  0  0  0  0  0  0
  181.4180  178.9470  139.5840 C   0  0  0  0  0  0  0  0  0  0  0  0
  180.2140  180.3450  138.0190 C   0  0  0  0  0  3  0  0  0  0  0  0
  180.2860  178.8360  140.3320 N   0  0  0  0  0  0  0  0  0  0  0  0
  181.3990  179.7200  138.4010 C   0  0  0  0  0  0  0  0  0  0  0  0
  182.6550  178.2330  140.0390 C   0  0  2  0  0  3  0  0  0  0  0  0
  182.3010  176.9230  140.6780 C   0  0  0  0  0  3  0  0  0  0  0  0
  180.4680  175.3810  139.6380 C   0  0  0  0  0  3  0  0  0  0  0  0
  181.3780  176.1440  140.1820 C   0  0  0  0  0  0  0  0  0  0  0  0
  180.8760  174.2910  138.7040 C   0  0  0  0  0  2  0  0  0  0  0  0
  179.8000  173.2170  138.6330 C   0  0  0  0  0  2  0  0  0  0  0  0
  179.8180  172.5890  137.3260 N   0  0  0  0  0  1  0  0  0  0  0  0
  183.4260  179.0920  140.9360 N   0  0  0  0  0  2  0  0  0  0  0  0
  182.8500  178.9980  142.2710 C   0  0  0  0  0  2  0  0  0  0  0  0
  183.9190  178.9970  143.3530 C   0  0  1  0  0  3  0  0  0  0  0  0
  183.3810  178.4190  144.6620 C   0  0  0  0  0  2  0  0  0  0  0  0
  186.0090  177.6280  143.9470 C   0  0  2  0  0  3  0  0  0  0  0  0
  186.1020  179.6730  147.4910 Cl  0  0  0  0  0  0  0  0  0  0  0  0
  185.1220  178.2060  142.8440 C   0  0  0  0  0  2  0  0  0  0  0  0
  184.1190  178.9570  145.8550 C   0  0  0  0  0  3  0  0  0  0  0  0
  185.4600  179.0340  145.9850 C   0  0  0  0  0  0  0  0  0  0  0  0
  186.4620  178.7260  144.8960 C   0  0  0  0  0  2  0  0  0  0  0  0
  187.2200  176.9450  143.3290 C   0  0  0  0  0  2  0  0  0  0  0  0
  189.6940  176.7070  143.7870 C   0  0  0  0  0  0  0  0  0  0  0  0
  188.3950  177.1850  144.1540 N   0  0  0  0  0  2  0  0  0  0  0  0
  189.7980  175.7860  142.9340 O   0  0  0  0  0  0  0  0  0  0  0  0
  190.5680  178.0130  145.7190 C   0  0  0  0  0  1  0  0  0  0  0  0
  191.6180  178.2760  143.5020 C   0  0  0  0  0  1  0  0  0  0  0  0
  190.9200  177.2940  144.4300 C   0  0  0  0  0  3  0  0  0  0  0  0
  182.3920  176.4390  135.6420 C   0  0  2  0  0  3  0  0  0  0  0  0
  181.2960  175.7670  136.3260 N   0  0  0  0  0  2  0  0  0  0  0  0
  178.9920  176.4710  135.9570 C   0  0  0  0  0  1  0  0  0  0  0  0
  180.1680  175.6860  135.4110 C   0  0  0  0  0  2  0  0  0  0  0  0
  183.7100  175.7660  136.0460 C   0  0  0  0  0  2  0  0  0  0  0  0
  184.5080  176.6060  137.0390 C   0  0  0  0  0  2  0  0  0  0  0  0
  185.9910  176.5810  136.6980 C   0  0  0  0  0  2  0  0  0  0  0  0
  186.5920  177.9290  137.0400 C   0  0  0  0  0  2  0  0  0  0  0  0
  187.4280  176.5050  138.7480 O   0  0  0  0  0  1  0  0  0  0  0  0
  187.3310  177.8470  138.3680 C   0  0  1  0  0  3  0  0  0  0  0  0
  188.7360  178.4250  138.2300 C   0  0  0  0  0  2  0  0  0  0  0  0
  189.1150  178.6230  135.7530 C   0  0  0  0  0  1  0  0  0  0  0  0
  189.4700  177.8670  137.0180 C   0  0  2  0  0  3  0  0  0  0  0  0
  189.3820  176.3380  136.8870 C   0  0  0  0  0  2  0  0  0  0  0  0
  190.9640  176.4470  135.0550 O   0  0  0  0  0  1  0  0  0  0  0  0
  190.4470  175.5990  136.0470 C   0  0  1  0  0  0  0  0  0  0  0  0
  192.7000  176.0940  136.7380 O   0  0  0  0  0  1  0  0  0  0  0  0
  191.6040  175.2630  136.9790 C   0  0  0  0  0  2  0  0  0  0  0  0
  189.9670  174.3750  135.5090 O   0  0  0  0  0  0  0  0  0  0  0  0
  188.8280  174.5860  134.7060 C   0  0  0  0  0  2  0  0  0  0  0  0
  187.5970  173.9390  135.3340 C   0  0  0  0  0  2  0  0  0  0  0  0
  187.5510  172.4440  135.0240 C   0  0  0  0  0  2  0  0  0  0  0  0
  185.2950  171.6540  135.1600 O   0  0  0  0  0  0  0  0  0  0  0  0
  184.8770  173.0030  137.0440 C   0  0  0  0  0  2  0  0  0  0  0  0
  184.2890  172.0350  136.0610 C   0  0  1  0  0  3  0  0  0  0  0  0
  183.1360  172.6730  135.3180 C   0  0  0  0  0  1  0  0  0  0  0  0
  186.5070  171.7320  135.8770 C   0  0  2  0  0  3  0  0  0  0  0  0
  186.2780  172.5020  137.1680 C   0  0  0  0  0  2  0  0  0  0  0  0
  1  4  1  6  0  0  0
  2 35  1  1  0  0  0
  2  1  1  0  0  0  0
  3  2  1  0  0  0  0
  3  1  1  0  0  0  0
  4 10  1  0  0  0  0
  5  9  1  0  0  0  0
  6  5  2  0  0  0  0
  7 11  1  0  0  0  0
  7  9  2  0  0  0  0
  8 10  2  0  0  0  0
  8  6  1  0  0  0  0
 10  7  1  0  0  0  0
 11 12  1  1  0  0  0
 11 18  1  0  0  0  0
 13 14  2  0  0  0  0
 14 12  2  0  0  0  0
 15 13  1  0  0  0  0
 16 15  1  0  0  0  0
 17 16  1  0  0  0  0
 18 19  1  0  0  0  0
 20 19  1  6  0  0  0
 20 21  1  0  0  0  0
 21 25  1  0  0  0  0
 22 28  1  6  0  0  0
 22 27  1  0  0  0  0
 24 20  1  0  0  0  0
 24 22  1  0  0  0  0
 25 26  2  0  0  0  0
 26 23  1  0  0  0  0
 27 26  1  0  0  0  0
 28 30  1  0  0  0  0
 29 30  1  0  0  0  0
 29 34  1  0  0  0  0
 31 29  2  0  0  0  0
 33 34  1  0  0  0  0
 34 32  1  0  0  0  0
 35 39  1  1  0  0  0
 35 36  1  0  0  0  0
 38 37  1  0  0  0  0
 38 36  1  0  0  0  0
 39 40  1  0  0  0  0
 41 40  1  0  0  0  0
 41 42  1  0  0  0  0
 42 44  1  0  0  0  0
 44 43  1  6  0  0  0
 45 44  1  0  0  0  0
 47 46  1  6  0  0  0
 47 45  1  0  0  0  0
 48 47  1  0  0  0  0
 50 49  1  6  0  0  0
 50 48  1  0  0  0  0
 50 52  1  0  0  0  0
 51 52  1  0  0  0  0
 53 50  1  0  0  0  0
 54 55  1  0  0  0  0
 54 53  1  0  0  0  0
 56 55  1  0  0  0  0
 57 61  1  0  0  0  0
 57 59  1  0  0  0  0
 58 62  1  0  0  0  0
 59 60  1  6  0  0  0
 59 58  1  0  0  0  0
 61 56  1  6  0  0  0
 61 62  1  0  0  0  0
M  END
>  <MODEL>
8

>  <REMARK>
 VINA RESULT:      -1.6      2.001      4.429
  Name = 
  30 active torsions:
  status: ('A' for Active; 'I' for Inactive)
    1  A    between atoms: C_1  and  C_51
    2  A    between atoms: C_2  and  C_50
    3  A    between atoms: C_2  and  C_60
    4  A    between atoms: C_4  and  C_33
    5  A    between atoms: C_4  and  C_47
    6  A    between atoms: C_5  and  C_12
    7  A    between atoms: C_5  and  C_44
    8  A    between atoms: O_6  and  C_30
    9  A    between atoms: O_6  and  C_42
   10  A    between atoms: C_10  and  C_16
   11  A    between atoms: C_10  and  N_20
   12  A    between atoms: C_12  and  C_31
   13  A    between atoms: C_13  and  C_35
   14  A    between atoms: C_19  and  C_54
   15  A    between atoms: C_21  and  N_58
   16  A    between atoms: C_22  and  C_56
   17  A    between atoms: N_24  and  C_34
   18  A    between atoms: N_24  and  C_51
   19  A    between atoms: C_26  and  C_47
   20  A    between atoms: C_26  and  C_56
   21  A    between atoms: C_29  and  C_34
   22  A    between atoms: C_30  and  C_50
   23  A    between atoms: C_31  and  C_42
   24  A    between atoms: C_33  and  C_44
   25  A    between atoms: C_34  and  C_55
   26  A    between atoms: C_35  and  C_59
   27  A    between atoms: C_42  and  C_48
   28  A    between atoms: N_45  and  C_53
   29  A    between atoms: N_45  and  C_56
   30  A    between atoms: C_46  and  N_58
                            x       y       z     vdW  Elec       q    Type
                         _______ _______ _______ _____ _____    ______ ____

>  <TORSDO>
F 30

$$$$
=
 OpenBabel11062416373D

 62 65  0  0  1  0  0  0  0  0999 V2000
  188.0610  178.4750  139.8240 C   0  0  1  0  0  3  0  0  0  0  0  0
  188.5620  177.2290  140.5410 C   0  0  1  0  0  3  0  0  0  0  0  0
  189.5030  178.0180  139.6430 C   0  0  0  0  0  2  0  0  0  0  0  0
  187.2400  178.0400  138.7060 N   0  0  0  0  0  2  0  0  0  0  0  0
  183.1180  178.7450  138.3450 C   0  0  0  0  0  3  0  0  0  0  0  0
  183.8660  179.4990  139.2500 C   0  0  0  0  0  3  0  0  0  0  0  0
  185.0340  177.4630  137.7650 C   0  0  0  0  0  0  0  0  0  0  0  0
  185.2270  179.2300  139.4060 C   0  0  0  0  0  3  0  0  0  0  0  0
  183.7110  177.7530  137.6320 N   0  0  0  0  0  0  0  0  0  0  0  0
  185.8220  178.2060  138.6730 C   0  0  0  0  0  0  0  0  0  0  0  0
  185.6180  176.3620  136.9320 C   0  0  2  0  0  3  0  0  0  0  0  0
  187.0920  176.2400  137.1800 C   0  0  0  0  0  3  0  0  0  0  0  0
  188.3170  173.9560  136.8560 C   0  0  0  0  0  3  0  0  0  0  0  0
  187.7210  175.1040  137.0370 C   0  0  0  0  0  0  0  0  0  0  0  0
  188.9790  173.6620  135.5510 C   0  0  0  0  0  2  0  0  0  0  0  0
  190.4610  174.0030  135.6140 C   0  0  0  0  0  2  0  0  0  0  0  0
  190.6410  175.4360  135.4980 N   0  0  0  0  0  1  0  0  0  0  0  0
  185.3160  176.5890  135.5200 N   0  0  0  0  0  2  0  0  0  0  0  0
  185.1990  175.2940  134.8610 C   0  0  0  0  0  2  0  0  0  0  0  0
  183.9220  174.5680  135.2570 C   0  0  1  0  0  3  0  0  0  0  0  0
  184.0290  173.9930  136.6690 C   0  0  0  0  0  2  0  0  0  0  0  0
  181.5450  175.1890  136.0040 C   0  0  2  0  0  3  0  0  0  0  0  0
  180.9830  171.2230  136.8430 Cl  0  0  0  0  0  0  0  0  0  0  0  0
  182.7530  175.5420  135.1360 C   0  0  0  0  0  2  0  0  0  0  0  0
  183.1380  172.7980  136.8540 C   0  0  0  0  0  3  0  0  0  0  0  0
  181.8380  172.7190  136.4980 C   0  0  0  0  0  0  0  0  0  0  0  0
  181.0820  173.7700  135.7180 C   0  0  0  0  0  2  0  0  0  0  0  0
  180.4120  176.1690  135.7330 C   0  0  0  0  0  2  0  0  0  0  0  0
  179.7730  178.3300  136.8750 C   0  0  0  0  0  0  0  0  0  0  0  0
  180.1400  176.9480  136.9330 N   0  0  0  0  0  2  0  0  0  0  0  0
  180.0090  178.9920  135.8290 O   0  0  0  0  0  0  0  0  0  0  0  0
  179.9150  180.2040  138.5080 C   0  0  0  0  0  1  0  0  0  0  0  0
  179.0130  178.0270  139.2360 C   0  0  0  0  0  1  0  0  0  0  0  0
  179.1250  178.9870  138.0620 C   0  0  0  0  0  3  0  0  0  0  0  0
  188.9100  177.4270  142.0310 C   0  0  2  0  0  3  0  0  0  0  0  0
  189.8440  178.5360  142.1700 N   0  0  0  0  0  2  0  0  0  0  0  0
  191.2100  179.4090  143.9900 C   0  0  0  0  0  1  0  0  0  0  0  0
  189.8230  178.9790  143.5550 C   0  0  0  0  0  2  0  0  0  0  0  0
  189.4820  176.2080  142.7660 C   0  0  0  0  0  2  0  0  0  0  0  0
  190.9780  176.0330  142.5210 C   0  0  0  0  0  2  0  0  0  0  0  0
  191.7100  175.7590  143.8270 C   0  0  0  0  0  2  0  0  0  0  0  0
  190.9030  174.7680  144.6390 C   0  0  0  0  0  2  0  0  0  0  0  0
  192.8710  174.9750  145.9530 O   0  0  0  0  0  1  0  0  0  0  0  0
  191.5280  174.5920  146.0150 C   0  0  1  0  0  3  0  0  0  0  0  0
  190.8110  175.4660  147.0390 C   0  0  0  0  0  2  0  0  0  0  0  0
  192.0900  177.5710  146.5380 C   0  0  0  0  0  1  0  0  0  0  0  0
  190.7230  176.9190  146.5930 C   0  0  2  0  0  3  0  0  0  0  0  0
  189.6620  177.7370  147.3470 C   0  0  0  0  0  2  0  0  0  0  0  0
  188.0430  176.1230  146.5450 O   0  0  0  0  0  1  0  0  0  0  0  0
  188.1710  177.3780  147.1600 C   0  0  1  0  0  0  0  0  0  0  0  0
  188.2640  178.0130  149.4810 O   0  0  0  0  0  1  0  0  0  0  0  0
  187.5600  177.2470  148.5490 C   0  0  0  0  0  2  0  0  0  0  0  0
  187.4470  178.3890  146.4720 O   0  0  0  0  0  0  0  0  0  0  0  0
  186.7710  179.2330  147.3770 C   0  0  0  0  0  2  0  0  0  0  0  0
  185.2960  179.3480  147.0070 C   0  0  0  0  0  2  0  0  0  0  0  0
  184.9660  178.4720  145.8010 C   0  0  0  0  0  2  0  0  0  0  0  0
  183.3510  179.5210  144.3790 O   0  0  0  0  0  0  0  0  0  0  0  0
  184.0730  178.2560  142.5300 C   0  0  0  0  0  2  0  0  0  0  0  0
  183.0870  179.2730  143.0240 C   0  0  1  0  0  3  0  0  0  0  0  0
  181.6730  178.7640  142.8510 C   0  0  0  0  0  1  0  0  0  0  0  0
  184.7350  179.3120  144.5500 C   0  0  2  0  0  3  0  0  0  0  0  0
  185.2880  178.5910  143.3300 C   0  0  0  0  0  2  0  0  0  0  0  0
  1  4  1  6  0  0  0
  1  2  1  0  0  0  0
  2 35  1  1  0  0  0
  3  1  1  0  0  0  0
  3  2  1  0  0  0  0
  5  6  1  0  0  0  0
  6  8  2  0  0  0  0
  7 10  2  0  0  0  0
  9  7  1  0  0  0  0
  9  5  2  0  0  0  0
 10  4  1  0  0  0  0
 10  8  1  0  0  0  0
 11 12  1  6  0  0  0
 11  7  1  0  0  0  0
 13 14  2  0  0  0  0
 14 12  2  0  0  0  0
 15 16  1  0  0  0  0
 15 13  1  0  0  0  0
 17 16  1  0  0  0  0
 18 11  1  0  0  0  0
 19 18  1  0  0  0  0
 20 19  1  1  0  0  0
 20 21  1  0  0  0  0
 21 25  1  0  0  0  0
 22 28  1  6  0  0  0
 24 20  1  0  0  0  0
 24 22  1  0  0  0  0
 26 23  1  0  0  0  0
 26 25  2  0  0  0  0
 27 22  1  0  0  0  0
 27 26  1  0  0  0  0
 28 30  1  0  0  0  0
 29 30  1  0  0  0  0
 29 34  1  0  0  0  0
 31 29  2  0  0  0  0
 34 32  1  0  0  0  0
 34 33  1  0  0  0  0
 35 36  1  0  0  0  0
 35 39  1  6  0  0  0
 36 38  1  0  0  0  0
 38 37  1  0  0  0  0
 40 39  1  0  0  0  0
 40 41  1  0  0  0  0
 41 42  1  0  0  0  0
 42 44  1  0  0  0  0
 44 43  1  6  0  0  0
 44 45  1  0  0  0  0
 47 46  1  1  0  0  0
 47 45  1  0  0  0  0
 47 48  1  0  0  0  0
 50 49  1  6  0  0  0
 50 48  1  0  0  0  0
 50 52  1  0  0  0  0
 52 51  1  0  0  0  0
 53 50  1  0  0  0  0
 53 54  1  0  0  0  0
 55 54  1  0  0  0  0
 56 55  1  0  0  0  0
 57 61  1  0  0  0  0
 58 59  1  0  0  0  0
 58 62  1  0  0  0  0
 59 60  1  1  0  0  0
 59 57  1  0  0  0  0
 61 56  1  1  0  0  0
 62 61  1  0  0  0  0
M  END
>  <MODEL>
9

>  <REMARK>
 VINA RESULT:      -1.5      3.630      9.358
  Name = 
  30 active torsions:
  status: ('A' for Active; 'I' for Inactive)
    1  A    between atoms: C_1  and  C_51
    2  A    between atoms: C_2  and  C_50
    3  A    between atoms: C_2  and  C_60
    4  A    between atoms: C_4  and  C_33
    5  A    between atoms: C_4  and  C_47
    6  A    between atoms: C_5  and  C_12
    7  A    between atoms: C_5  and  C_44
    8  A    between atoms: O_6  and  C_30
    9  A    between atoms: O_6  and  C_42
   10  A    between atoms: C_10  and  C_16
   11  A    between atoms: C_10  and  N_20
   12  A    between atoms: C_12  and  C_31
   13  A    between atoms: C_13  and  C_35
   14  A    between atoms: C_19  and  C_54
   15  A    between atoms: C_21  and  N_58
   16  A    between atoms: C_22  and  C_56
   17  A    between atoms: N_24  and  C_34
   18  A    between atoms: N_24  and  C_51
   19  A    between atoms: C_26  and  C_47
   20  A    between atoms: C_26  and  C_56
   21  A    between atoms: C_29  and  C_34
   22  A    between atoms: C_30  and  C_50
   23  A    between atoms: C_31  and  C_42
   24  A    between atoms: C_33  and  C_44
   25  A    between atoms: C_34  and  C_55
   26  A    between atoms: C_35  and  C_59
   27  A    between atoms: C_42  and  C_48
   28  A    between atoms: N_45  and  C_53
   29  A    between atoms: N_45  and  C_56
   30  A    between atoms: C_46  and  N_58
                            x       y       z     vdW  Elec       q    Type
                         _______ _______ _______ _____ _____    ______ ____

>  <TORSDO>
F 30

$$$$
