=
 OpenBabel11062417183D

 26 28  0  0  1  0  0  0  0  0999 V2000
  191.3130  176.1030  145.2830 C   0  0  0  0  0  2  0  0  0  0  0  0
  189.9490  176.4260  144.6400 C   0  0  1  0  0  3  0  0  0  0  0  0
  188.7170  178.3260  143.7800 O   0  0  0  0  0  0  0  0  0  0  0  0
  189.5700  178.4880  142.6710 C   0  0  1  0  0  3  0  0  0  0  0  0
  189.5400  177.9000  144.8350 C   0  0  1  0  0  3  0  0  0  0  0  0
  190.7570  176.8670  147.3410 C   0  0  0  0  0  2  0  0  0  0  0  0
  189.8350  178.0850  147.3610 C   0  0  0  0  0  2  0  0  0  0  0  0
  191.6820  177.0090  146.2960 O   0  0  0  0  0  0  0  0  0  0  0  0
  189.8450  176.0050  143.1620 C   0  0  2  0  0  3  0  0  0  0  0  0
  188.8480  178.1100  146.1880 C   0  0  2  0  0  3  0  0  0  0  0  0
  190.6270  174.8840  142.8740 O   0  0  0  0  0  1  0  0  0  0  0  0
  190.1660  177.1490  142.1970 C   0  0  0  0  0  2  0  0  0  0  0  0
  188.8140  179.1390  141.5240 C   0  0  0  0  0  2  0  0  0  0  0  0
  187.6780  178.2480  141.0400 C   0  0  1  0  0  3  0  0  0  0  0  0
  185.5860  179.2860  140.4430 O   0  0  0  0  0  1  0  0  0  0  0  0
  186.3220  178.7710  141.5120 C   0  0  0  0  0  2  0  0  0  0  0  0
  187.7310  178.1320  139.5250 C   0  0  0  0  0  2  0  0  0  0  0  0
  188.8550  179.3970  137.8770 O   0  0  0  0  0  0  0  0  0  0  0  0
  189.0650  178.6320  139.0010 C   0  0  0  0  0  3  0  0  0  0  0  0
  189.2770  178.1320  137.7360 O   0  0  0  0  0  0  0  0  0  0  0  0
  187.8300  177.1690  146.3850 O   0  0  0  0  0  0  0  0  0  0  0  0
  186.8470  177.8490  147.1100 C   0  0  0  0  0  2  0  0  0  0  0  0
  185.8110  177.6230  144.9830 F   0  0  0  0  0  0  0  0  0  0  0  0
  185.7370  178.3090  146.1810 C   0  0  0  0  0  0  0  0  0  0  0  0
  185.8540  179.6670  145.9440 F   0  0  0  0  0  0  0  0  0  0  0  0
  184.5150  178.0560  146.7740 F   0  0  0  0  0  0  0  0  0  0  0  0
  1  8  1  0  0  0  0
  2  5  1  0  0  0  0
  2  1  1  6  0  0  0
  4 13  1  6  0  0  0
  4  3  1  0  0  0  0
  5  3  1  6  0  0  0
  5 10  1  0  0  0  0
  6  7  1  0  0  0  0
  8  6  1  0  0  0  0
  9 11  1  1  0  0  0
  9  2  1  0  0  0  0
 10 21  1  1  0  0  0
 10  7  1  0  0  0  0
 12  4  1  0  0  0  0
 12  9  1  0  0  0  0
 14 17  1  6  0  0  0
 14 16  1  0  0  0  0
 14 13  1  0  0  0  0
 15 16  1  0  0  0  0
 18 19  1  0  0  0  0
 19 17  1  0  0  0  0
 20 18  1  0  0  0  0
 20 19  1  0  0  0  0
 21 22  1  0  0  0  0
 23 24  1  0  0  0  0
 24 26  1  0  0  0  0
 24 22  1  0  0  0  0
 25 24  1  0  0  0  0
M  END
>  <MODEL>
1

>  <REMARK>
 VINA RESULT:      -6.6      0.000      0.000
  Name = 
  8 active torsions:
  status: ('A' for Active; 'I' for Inactive)
    1  A    between atoms: C_1  and  C_17
    2  A    between atoms: C_1  and  C_24
    3  A    between atoms: C_5  and  C_14
    4  A    between atoms: C_9  and  C_21
    5  A    between atoms: C_10  and  C_24
    6  A    between atoms: C_14  and  O_22
    7  A    between atoms: C_20  and  O_22
    8  A    between atoms: C_21  and  C_24
                            x       y       z     vdW  Elec       q    Type
                         _______ _______ _______ _____ _____    ______ ____

>  <TORSDO>
F 8

$$$$
=
 OpenBabel11062417183D

 26 28  0  0  1  0  0  0  0  0999 V2000
  191.2970  177.8250  141.8030 C   0  0  0  0  0  2  0  0  0  0  0  0
  189.9450  178.3230  142.3520 C   0  0  1  0  0  3  0  0  0  0  0  0
  187.8500  177.4330  143.1830 O   0  0  0  0  0  0  0  0  0  0  0  0
  188.4330  176.9210  144.3590 C   0  0  1  0  0  3  0  0  0  0  0  0
  188.8200  177.2810  142.1800 C   0  0  1  0  0  3  0  0  0  0  0  0
  190.5120  177.3300  139.7380 C   0  0  0  0  0  2  0  0  0  0  0  0
  189.0840  176.7890  139.6910 C   0  0  0  0  0  2  0  0  0  0  0  0
  191.1700  176.7930  140.8540 O   0  0  0  0  0  0  0  0  0  0  0  0
  190.0150  178.8380  143.8020 C   0  0  2  0  0  3  0  0  0  0  0  0
  188.1850  177.3760  140.7860 C   0  0  2  0  0  3  0  0  0  0  0  0
  191.2600  179.3900  144.1080 O   0  0  0  0  0  1  0  0  0  0  0  0
  189.6300  177.7690  144.8290 C   0  0  0  0  0  2  0  0  0  0  0  0
  187.3950  176.8550  145.4680 C   0  0  0  0  0  2  0  0  0  0  0  0
  186.8330  178.2360  145.7770 C   0  0  1  0  0  3  0  0  0  0  0  0
  184.5550  178.8930  146.2110 O   0  0  0  0  0  1  0  0  0  0  0  0
  185.4150  178.3920  145.2310 C   0  0  0  0  0  2  0  0  0  0  0  0
  186.8800  178.4820  147.2770 C   0  0  0  0  0  2  0  0  0  0  0  0
  188.0980  177.9840  149.2400 O   0  0  0  0  0  0  0  0  0  0  0  0
  187.9430  177.6120  147.9230 C   0  0  0  0  0  3  0  0  0  0  0  0
  188.9940  178.4010  148.3330 O   0  0  0  0  0  0  0  0  0  0  0  0
  187.8370  178.6960  140.4780 O   0  0  0  0  0  0  0  0  0  0  0  0
  186.5380  178.6180  139.9690 C   0  0  0  0  0  2  0  0  0  0  0  0
  184.4310  179.5900  140.4800 F   0  0  0  0  0  0  0  0  0  0  0  0
  185.5300  178.9740  141.0480 C   0  0  0  0  0  0  0  0  0  0  0  0
  186.1110  179.8270  141.9700 F   0  0  0  0  0  0  0  0  0  0  0  0
  185.1250  177.8200  141.6900 F   0  0  0  0  0  0  0  0  0  0  0  0
  2  1  1  1  0  0  0
  2  9  1  0  0  0  0
  3  4  1  0  0  0  0
  4 12  1  0  0  0  0
  4 13  1  1  0  0  0
  5  2  1  0  0  0  0
  5  3  1  1  0  0  0
  6  8  1  0  0  0  0
  7  6  1  0  0  0  0
  7 10  1  0  0  0  0
  8  1  1  0  0  0  0
  9 11  1  1  0  0  0
  9 12  1  0  0  0  0
 10 21  1  6  0  0  0
 10  5  1  0  0  0  0
 13 14  1  0  0  0  0
 14 16  1  1  0  0  0
 14 17  1  0  0  0  0
 16 15  1  0  0  0  0
 17 19  1  0  0  0  0
 19 20  1  0  0  0  0
 19 18  1  0  0  0  0
 20 18  1  0  0  0  0
 22 21  1  0  0  0  0
 22 24  1  0  0  0  0
 23 24  1  0  0  0  0
 24 26  1  0  0  0  0
 24 25  1  0  0  0  0
M  END
>  <MODEL>
2

>  <REMARK>
 VINA RESULT:      -6.5      2.356      5.962
  Name = 
  8 active torsions:
  status: ('A' for Active; 'I' for Inactive)
    1  A    between atoms: C_1  and  C_17
    2  A    between atoms: C_1  and  C_24
    3  A    between atoms: C_5  and  C_14
    4  A    between atoms: C_9  and  C_21
    5  A    between atoms: C_10  and  C_24
    6  A    between atoms: C_14  and  O_22
    7  A    between atoms: C_20  and  O_22
    8  A    between atoms: C_21  and  C_24
                            x       y       z     vdW  Elec       q    Type
                         _______ _______ _______ _____ _____    ______ ____

>  <TORSDO>
F 8

$$$$
=
 OpenBabel11062417183D

 26 28  0  0  1  0  0  0  0  0999 V2000
  192.1820  177.7150  141.8090 C   0  0  0  0  0  2  0  0  0  0  0  0
  190.6890  178.1010  141.8240 C   0  0  1  0  0  3  0  0  0  0  0  0
  188.5090  177.0440  141.8560 O   0  0  0  0  0  0  0  0  0  0  0  0
  188.6650  176.5660  143.1730 C   0  0  1  0  0  3  0  0  0  0  0  0
  189.7850  176.9780  141.2740 C   0  0  1  0  0  3  0  0  0  0  0  0
  192.2370  177.1830  139.6090 C   0  0  0  0  0  2  0  0  0  0  0  0
  190.9670  176.5350  139.0590 C   0  0  0  0  0  2  0  0  0  0  0  0
  192.4850  176.6860  140.8970 O   0  0  0  0  0  0  0  0  0  0  0  0
  190.1910  178.6040  143.1910 C   0  0  2  0  0  3  0  0  0  0  0  0
  189.6910  177.0390  139.7440 C   0  0  2  0  0  3  0  0  0  0  0  0
  191.1960  179.2460  143.9170 O   0  0  0  0  0  1  0  0  0  0  0  0
  189.5430  177.4980  144.0280 C   0  0  0  0  0  2  0  0  0  0  0  0
  187.3040  176.4080  143.8330 C   0  0  0  0  0  2  0  0  0  0  0  0
  186.6960  177.7630  144.1680 C   0  0  1  0  0  3  0  0  0  0  0  0
  185.8520  179.0320  142.2990 O   0  0  0  0  0  1  0  0  0  0  0  0
  185.5080  178.0780  143.2590 C   0  0  0  0  0  2  0  0  0  0  0  0
  186.2950  177.7940  145.6340 C   0  0  0  0  0  2  0  0  0  0  0  0
  185.5640  179.4300  147.1740 O   0  0  0  0  0  0  0  0  0  0  0  0
  185.3500  178.9510  145.9010 C   0  0  0  0  0  3  0  0  0  0  0  0
  184.5130  178.6280  146.9450 O   0  0  0  0  0  0  0  0  0  0  0  0
  189.3800  178.3320  139.3080 O   0  0  0  0  0  0  0  0  0  0  0  0
  188.2380  178.1810  138.5170 C   0  0  0  0  0  2  0  0  0  0  0  0
  189.3140  179.8170  137.1710 F   0  0  0  0  0  0  0  0  0  0  0  0
  188.5010  178.7000  137.1140 C   0  0  0  0  0  0  0  0  0  0  0  0
  187.3050  179.0310  136.5030 F   0  0  0  0  0  0  0  0  0  0  0  0
  189.1300  177.7160  136.3770 F   0  0  0  0  0  0  0  0  0  0  0  0
  2  1  1  1  0  0  0
  2  9  1  0  0  0  0
  3  4  1  0  0  0  0
  4 13  1  1  0  0  0
  4 12  1  0  0  0  0
  5  2  1  0  0  0  0
  5  3  1  1  0  0  0
  6  8  1  0  0  0  0
  7  6  1  0  0  0  0
  7 10  1  0  0  0  0
  8  1  1  0  0  0  0
  9 11  1  1  0  0  0
  9 12  1  0  0  0  0
 10 21  1  1  0  0  0
 10  5  1  0  0  0  0
 13 14  1  0  0  0  0
 14 16  1  6  0  0  0
 14 17  1  0  0  0  0
 15 16  1  0  0  0  0
 17 19  1  0  0  0  0
 19 20  1  0  0  0  0
 19 18  1  0  0  0  0
 20 18  1  0  0  0  0
 22 21  1  0  0  0  0
 24 23  1  0  0  0  0
 24 22  1  0  0  0  0
 25 24  1  0  0  0  0
 26 24  1  0  0  0  0
M  END
>  <MODEL>
3

>  <REMARK>
 VINA RESULT:      -6.4      3.869      6.646
  Name = 
  8 active torsions:
  status: ('A' for Active; 'I' for Inactive)
    1  A    between atoms: C_1  and  C_17
    2  A    between atoms: C_1  and  C_24
    3  A    between atoms: C_5  and  C_14
    4  A    between atoms: C_9  and  C_21
    5  A    between atoms: C_10  and  C_24
    6  A    between atoms: C_14  and  O_22
    7  A    between atoms: C_20  and  O_22
    8  A    between atoms: C_21  and  C_24
                            x       y       z     vdW  Elec       q    Type
                         _______ _______ _______ _____ _____    ______ ____

>  <TORSDO>
F 8

$$$$
=
 OpenBabel11062417183D

 26 28  0  0  1  0  0  0  0  0999 V2000
  192.7520  175.2760  138.2320 C   0  0  0  0  0  2  0  0  0  0  0  0
  191.9220  176.5420  138.5300 C   0  0  1  0  0  3  0  0  0  0  0  0
  189.8870  177.1880  139.6750 O   0  0  0  0  0  0  0  0  0  0  0  0
  190.4190  176.9220  140.9520 C   0  0  1  0  0  3  0  0  0  0  0  0
  190.4420  176.2200  138.8230 C   0  0  1  0  0  3  0  0  0  0  0  0
  191.4010  174.5280  136.5760 C   0  0  0  0  0  2  0  0  0  0  0  0
  189.9100  174.7980  136.7740 C   0  0  0  0  0  2  0  0  0  0  0  0
  191.9720  174.1830  137.8100 O   0  0  0  0  0  0  0  0  0  0  0  0
  192.5300  177.4380  139.6250 C   0  0  2  0  0  3  0  0  0  0  0  0
  189.6320  176.1060  137.5250 C   0  0  2  0  0  3  0  0  0  0  0  0
  193.9230  177.3620  139.6590 O   0  0  0  0  0  1  0  0  0  0  0  0
  191.9390  177.1620  141.0100 C   0  0  0  0  0  2  0  0  0  0  0  0
  189.7300  177.7900  141.9940 C   0  0  0  0  0  2  0  0  0  0  0  0
  188.2250  177.5580  141.9920 C   0  0  1  0  0  3  0  0  0  0  0  0
  188.5510  177.6990  144.3760 O   0  0  0  0  0  1  0  0  0  0  0  0
  187.7210  177.1760  143.3830 C   0  0  0  0  0  2  0  0  0  0  0  0
  187.5190  178.8000  141.4680 C   0  0  0  0  0  2  0  0  0  0  0  0
  185.4200  179.5640  140.6990 O   0  0  0  0  0  0  0  0  0  0  0  0
  186.0150  178.5960  141.4770 C   0  0  0  0  0  3  0  0  0  0  0  0
  185.4070  179.6990  142.0340 O   0  0  0  0  0  0  0  0  0  0  0  0
  189.8570  177.2070  136.6900 O   0  0  0  0  0  0  0  0  0  0  0  0
  188.5870  177.5950  136.2560 C   0  0  0  0  0  2  0  0  0  0  0  0
  189.1640  179.5430  137.4900 F   0  0  0  0  0  0  0  0  0  0  0  0
  188.0920  178.7740  137.0750 C   0  0  0  0  0  0  0  0  0  0  0  0
  187.3960  178.3190  138.1810 F   0  0  0  0  0  0  0  0  0  0  0  0
  187.2520  179.5470  136.2970 F   0  0  0  0  0  0  0  0  0  0  0  0
  2  1  1  1  0  0  0
  2  5  1  0  0  0  0
  2  9  1  0  0  0  0
  3  4  1  0  0  0  0
  4 12  1  0  0  0  0
  4 13  1  1  0  0  0
  5  3  1  1  0  0  0
  6  7  1  0  0  0  0
  6  8  1  0  0  0  0
  7 10  1  0  0  0  0
  8  1  1  0  0  0  0
  9 11  1  1  0  0  0
  9 12  1  0  0  0  0
 10 21  1  6  0  0  0
 10  5  1  0  0  0  0
 14 17  1  1  0  0  0
 14 13  1  0  0  0  0
 14 16  1  0  0  0  0
 16 15  1  0  0  0  0
 17 19  1  0  0  0  0
 18 19  1  0  0  0  0
 18 20  1  0  0  0  0
 19 20  1  0  0  0  0
 22 21  1  0  0  0  0
 22 24  1  0  0  0  0
 24 23  1  0  0  0  0
 24 25  1  0  0  0  0
 26 24  1  0  0  0  0
M  END
>  <MODEL>
4

>  <REMARK>
 VINA RESULT:      -5.9      3.948      7.057
  Name = 
  8 active torsions:
  status: ('A' for Active; 'I' for Inactive)
    1  A    between atoms: C_1  and  C_17
    2  A    between atoms: C_1  and  C_24
    3  A    between atoms: C_5  and  C_14
    4  A    between atoms: C_9  and  C_21
    5  A    between atoms: C_10  and  C_24
    6  A    between atoms: C_14  and  O_22
    7  A    between atoms: C_20  and  O_22
    8  A    between atoms: C_21  and  C_24
                            x       y       z     vdW  Elec       q    Type
                         _______ _______ _______ _____ _____    ______ ____

>  <TORSDO>
F 8

$$$$
=
 OpenBabel11062417183D

 26 28  0  0  1  0  0  0  0  0999 V2000
  186.9100  177.8110  144.7120 C   0  0  0  0  0  2  0  0  0  0  0  0
  186.7750  177.4580  143.2170 C   0  0  1  0  0  3  0  0  0  0  0  0
  186.9710  178.5150  141.0460 O   0  0  0  0  0  0  0  0  0  0  0  0
  188.3680  178.6660  141.1490 C   0  0  1  0  0  3  0  0  0  0  0  0
  186.4720  178.6940  142.3450 C   0  0  1  0  0  3  0  0  0  0  0  0
  184.9020  178.8440  144.8630 C   0  0  0  0  0  2  0  0  0  0  0  0
  184.4710  179.6250  143.6230 C   0  0  0  0  0  2  0  0  0  0  0  0
  186.2790  179.0200  145.0600 O   0  0  0  0  0  0  0  0  0  0  0  0
  187.9650  176.6550  142.6590 C   0  0  2  0  0  3  0  0  0  0  0  0
  184.9680  178.9960  142.3150 C   0  0  2  0  0  3  0  0  0  0  0  0
  188.5570  175.8430  143.6270 O   0  0  0  0  0  1  0  0  0  0  0  0
  189.0130  177.5440  141.9840 C   0  0  0  0  0  2  0  0  0  0  0  0
  188.9940  178.6880  139.7630 C   0  0  0  0  0  2  0  0  0  0  0  0
  188.1420  177.9150  138.7660 C   0  0  1  0  0  3  0  0  0  0  0  0
  188.9510  179.7020  137.3650 O   0  0  0  0  0  1  0  0  0  0  0  0
  188.0150  178.6690  137.4430 C   0  0  0  0  0  2  0  0  0  0  0  0
  188.7320  176.5280  138.5590 C   0  0  0  0  0  2  0  0  0  0  0  0
  190.7520  175.3490  138.2240 O   0  0  0  0  0  0  0  0  0  0  0  0
  190.2460  176.6040  138.4750 C   0  0  0  0  0  3  0  0  0  0  0  0
  190.8000  175.8340  139.4730 O   0  0  0  0  0  0  0  0  0  0  0  0
  184.2270  177.8480  142.0130 O   0  0  0  0  0  0  0  0  0  0  0  0
  183.6490  178.1090  140.7680 C   0  0  0  0  0  2  0  0  0  0  0  0
  181.8130  178.4050  142.2480 F   0  0  0  0  0  0  0  0  0  0  0  0
  182.1450  178.2670  140.9130 C   0  0  0  0  0  0  0  0  0  0  0  0
  181.5030  177.1590  140.3910 F   0  0  0  0  0  0  0  0  0  0  0  0
  181.7380  179.3930  140.2240 F   0  0  0  0  0  0  0  0  0  0  0  0
  1  8  1  0  0  0  0
  2  1  1  1  0  0  0
  3  4  1  0  0  0  0
  4 13  1  6  0  0  0
  4 12  1  0  0  0  0
  5  3  1  6  0  0  0
  5  2  1  0  0  0  0
  6  8  1  0  0  0  0
  7  6  1  0  0  0  0
  9  2  1  0  0  0  0
  9 11  1  1  0  0  0
 10 21  1  1  0  0  0
 10  5  1  0  0  0  0
 10  7  1  0  0  0  0
 12  9  1  0  0  0  0
 14 16  1  6  0  0  0
 14 13  1  0  0  0  0
 15 16  1  0  0  0  0
 17 14  1  0  0  0  0
 18 19  1  0  0  0  0
 18 20  1  0  0  0  0
 19 17  1  0  0  0  0
 19 20  1  0  0  0  0
 22 24  1  0  0  0  0
 22 21  1  0  0  0  0
 24 23  1  0  0  0  0
 25 24  1  0  0  0  0
 26 24  1  0  0  0  0
M  END
>  <MODEL>
5

>  <REMARK>
 VINA RESULT:      -5.8      2.935      4.721
  Name = 
  8 active torsions:
  status: ('A' for Active; 'I' for Inactive)
    1  A    between atoms: C_1  and  C_17
    2  A    between atoms: C_1  and  C_24
    3  A    between atoms: C_5  and  C_14
    4  A    between atoms: C_9  and  C_21
    5  A    between atoms: C_10  and  C_24
    6  A    between atoms: C_14  and  O_22
    7  A    between atoms: C_20  and  O_22
    8  A    between atoms: C_21  and  C_24
                            x       y       z     vdW  Elec       q    Type
                         _______ _______ _______ _____ _____    ______ ____

>  <TORSDO>
F 8

$$$$
=
 OpenBabel11062417183D

 26 28  0  0  1  0  0  0  0  0999 V2000
  192.1900  175.4140  138.3050 C   0  0  0  0  0  2  0  0  0  0  0  0
  191.4520  176.7110  138.6940 C   0  0  1  0  0  3  0  0  0  0  0  0
  189.5170  177.4230  139.9660 O   0  0  0  0  0  0  0  0  0  0  0  0
  190.0940  177.0740  141.2040 C   0  0  1  0  0  3  0  0  0  0  0  0
  189.9720  176.4620  139.0500 C   0  0  1  0  0  3  0  0  0  0  0  0
  190.7180  174.8140  136.6930 C   0  0  0  0  0  2  0  0  0  0  0  0
  189.2570  175.1580  136.9770 C   0  0  0  0  0  2  0  0  0  0  0  0
  191.3280  174.3860  137.8820 O   0  0  0  0  0  0  0  0  0  0  0  0
  192.1630  177.5260  139.7900 C   0  0  2  0  0  3  0  0  0  0  0  0
  189.0930  176.4480  137.7920 C   0  0  2  0  0  3  0  0  0  0  0  0
  193.5500  177.3700  139.7500 O   0  0  0  0  0  1  0  0  0  0  0  0
  191.6260  177.2260  141.1920 C   0  0  0  0  0  2  0  0  0  0  0  0
  189.5090  177.9360  142.3120 C   0  0  0  0  0  2  0  0  0  0  0  0
  189.7610  177.3160  143.6790 C   0  0  1  0  0  3  0  0  0  0  0  0
  190.8800  179.4370  143.9270 O   0  0  0  0  0  1  0  0  0  0  0  0
  190.4380  178.3090  144.6220 C   0  0  0  0  0  2  0  0  0  0  0  0
  188.4500  176.8070  144.2580 C   0  0  0  0  0  2  0  0  0  0  0  0
  187.5190  177.3140  146.3700 O   0  0  0  0  0  0  0  0  0  0  0  0
  187.8170  177.8640  145.1430 C   0  0  0  0  0  3  0  0  0  0  0  0
  186.5360  177.4790  145.4720 O   0  0  0  0  0  0  0  0  0  0  0  0
  189.3410  177.5680  136.9900 O   0  0  0  0  0  0  0  0  0  0  0  0
  188.5250  177.3960  135.8680 C   0  0  0  0  0  2  0  0  0  0  0  0
  186.2990  177.5880  136.6760 F   0  0  0  0  0  0  0  0  0  0  0  0
  187.2860  178.2650  135.9850 C   0  0  0  0  0  0  0  0  0  0  0  0
  186.8220  178.5940  134.7230 F   0  0  0  0  0  0  0  0  0  0  0  0
  187.6060  179.4240  136.6660 F   0  0  0  0  0  0  0  0  0  0  0  0
  2  1  1  1  0  0  0
  2  5  1  0  0  0  0
  2  9  1  0  0  0  0
  3  4  1  0  0  0  0
  4 13  1  1  0  0  0
  5  3  1  1  0  0  0
  6  7  1  0  0  0  0
  6  8  1  0  0  0  0
  7 10  1  0  0  0  0
  8  1  1  0  0  0  0
  9 11  1  1  0  0  0
  9 12  1  0  0  0  0
 10 21  1  6  0  0  0
 10  5  1  0  0  0  0
 12  4  1  0  0  0  0
 14 13  1  6  0  0  0
 14 17  1  0  0  0  0
 14 16  1  0  0  0  0
 15 16  1  0  0  0  0
 17 19  1  0  0  0  0
 19 20  1  0  0  0  0
 19 18  1  0  0  0  0
 20 18  1  0  0  0  0
 22 24  1  0  0  0  0
 22 21  1  0  0  0  0
 24 26  1  0  0  0  0
 24 23  1  0  0  0  0
 25 24  1  0  0  0  0
M  END
>  <MODEL>
6

>  <REMARK>
 VINA RESULT:      -5.8      4.091      7.610
  Name = 
  8 active torsions:
  status: ('A' for Active; 'I' for Inactive)
    1  A    between atoms: C_1  and  C_17
    2  A    between atoms: C_1  and  C_24
    3  A    between atoms: C_5  and  C_14
    4  A    between atoms: C_9  and  C_21
    5  A    between atoms: C_10  and  C_24
    6  A    between atoms: C_14  and  O_22
    7  A    between atoms: C_20  and  O_22
    8  A    between atoms: C_21  and  C_24
                            x       y       z     vdW  Elec       q    Type
                         _______ _______ _______ _____ _____    ______ ____

>  <TORSDO>
F 8

$$$$
=
 OpenBabel11062417183D

 26 28  0  0  1  0  0  0  0  0999 V2000
  187.7400  178.2970  139.8590 C   0  0  0  0  0  2  0  0  0  0  0  0
  188.7020  177.3210  140.5660 C   0  0  1  0  0  3  0  0  0  0  0  0
  190.9790  177.2470  141.3910 O   0  0  0  0  0  0  0  0  0  0  0  0
  190.7230  178.1580  142.4350 C   0  0  1  0  0  3  0  0  0  0  0  0
  190.1840  177.6680  140.3140 C   0  0  1  0  0  3  0  0  0  0  0  0
  188.6390  178.0170  137.8000 C   0  0  0  0  0  2  0  0  0  0  0  0
  190.1520  177.8090  137.7670 C   0  0  0  0  0  2  0  0  0  0  0  0
  188.3290  178.9760  138.7760 O   0  0  0  0  0  0  0  0  0  0  0  0
  188.4150  177.1460  142.0690 C   0  0  2  0  0  3  0  0  0  0  0  0
  190.6800  177.0580  138.9960 C   0  0  2  0  0  3  0  0  0  0  0  0
  187.0610  177.3020  142.3720 O   0  0  0  0  0  1  0  0  0  0  0  0
  189.2730  178.0620  142.9460 C   0  0  0  0  0  2  0  0  0  0  0  0
  191.6830  177.9120  143.5880 C   0  0  0  0  0  2  0  0  0  0  0  0
  191.1920  176.7780  144.4770 C   0  0  1  0  0  3  0  0  0  0  0  0
  190.6910  174.7840  143.2180 O   0  0  0  0  0  1  0  0  0  0  0  0
  191.6800  175.4230  143.9690 C   0  0  0  0  0  2  0  0  0  0  0  0
  191.6360  177.0260  145.9110 C   0  0  0  0  0  2  0  0  0  0  0  0
  191.4680  175.6230  147.8040 O   0  0  0  0  0  0  0  0  0  0  0  0
  192.0610  175.7240  146.5650 C   0  0  0  0  0  3  0  0  0  0  0  0
  192.7540  175.9980  147.7230 O   0  0  0  0  0  0  0  0  0  0  0  0
  190.3570  175.6990  138.9160 O   0  0  0  0  0  0  0  0  0  0  0  0
  191.2410  175.1730  137.9700 C   0  0  0  0  0  2  0  0  0  0  0  0
  191.2490  173.1710  136.6900 F   0  0  0  0  0  0  0  0  0  0  0  0
  190.4920  174.2890  136.9880 C   0  0  0  0  0  0  0  0  0  0  0  0
  190.2320  174.9930  135.8260 F   0  0  0  0  0  0  0  0  0  0  0  0
  189.2970  173.8920  137.5550 F   0  0  0  0  0  0  0  0  0  0  0  0
  2  1  1  1  0  0  0
  2  9  1  0  0  0  0
  3  4  1  0  0  0  0
  4 12  1  0  0  0  0
  4 13  1  1  0  0  0
  5  2  1  0  0  0  0
  5  3  1  1  0  0  0
  6  8  1  0  0  0  0
  7  6  1  0  0  0  0
  7 10  1  0  0  0  0
  8  1  1  0  0  0  0
  9 11  1  6  0  0  0
  9 12  1  0  0  0  0
 10 21  1  6  0  0  0
 10  5  1  0  0  0  0
 14 13  1  6  0  0  0
 14 17  1  0  0  0  0
 15 16  1  0  0  0  0
 16 14  1  0  0  0  0
 17 19  1  0  0  0  0
 19 20  1  0  0  0  0
 19 18  1  0  0  0  0
 20 18  1  0  0  0  0
 22 21  1  0  0  0  0
 23 24  1  0  0  0  0
 24 26  1  0  0  0  0
 24 22  1  0  0  0  0
 25 24  1  0  0  0  0
M  END
>  <MODEL>
7

>  <REMARK>
 VINA RESULT:      -5.8      4.167      7.931
  Name = 
  8 active torsions:
  status: ('A' for Active; 'I' for Inactive)
    1  A    between atoms: C_1  and  C_17
    2  A    between atoms: C_1  and  C_24
    3  A    between atoms: C_5  and  C_14
    4  A    between atoms: C_9  and  C_21
    5  A    between atoms: C_10  and  C_24
    6  A    between atoms: C_14  and  O_22
    7  A    between atoms: C_20  and  O_22
    8  A    between atoms: C_21  and  C_24
                            x       y       z     vdW  Elec       q    Type
                         _______ _______ _______ _____ _____    ______ ____

>  <TORSDO>
F 8

$$$$
=
 OpenBabel11062417183D

 26 28  0  0  1  0  0  0  0  0999 V2000
  189.8750  177.0710  147.7150 C   0  0  0  0  0  2  0  0  0  0  0  0
  189.3610  177.8310  146.4760 C   0  0  1  0  0  3  0  0  0  0  0  0
  188.2870  177.3850  144.3500 O   0  0  0  0  0  0  0  0  0  0  0  0
  187.0670  177.0110  144.9470 C   0  0  1  0  0  3  0  0  0  0  0  0
  189.2910  176.9350  145.2220 C   0  0  1  0  0  3  0  0  0  0  0  0
  191.7780  176.3360  146.7340 C   0  0  0  0  0  2  0  0  0  0  0  0
  191.6600  175.9900  145.2500 C   0  0  0  0  0  2  0  0  0  0  0  0
  190.6150  175.9170  147.3970 O   0  0  0  0  0  0  0  0  0  0  0  0
  188.0330  178.5750  146.7090 C   0  0  2  0  0  3  0  0  0  0  0  0
  190.6480  176.8710  144.5080 C   0  0  2  0  0  3  0  0  0  0  0  0
  187.8900  179.0000  148.0310 O   0  0  0  0  0  1  0  0  0  0  0  0
  186.8140  177.7600  146.2690 C   0  0  0  0  0  2  0  0  0  0  0  0
  185.9170  177.2750  143.9880 C   0  0  0  0  0  2  0  0  0  0  0  0
  186.0300  178.6600  143.3650 C   0  0  1  0  0  3  0  0  0  0  0  0
  185.7040  179.7510  141.2400 O   0  0  0  0  0  1  0  0  0  0  0  0
  186.1560  178.5760  141.8450 C   0  0  0  0  0  2  0  0  0  0  0  0
  184.8320  179.5030  143.7760 C   0  0  0  0  0  2  0  0  0  0  0  0
  182.8560  178.6990  142.7620 O   0  0  0  0  0  0  0  0  0  0  0  0
  183.5970  178.6340  143.9200 C   0  0  0  0  0  3  0  0  0  0  0  0
  182.4700  179.4190  143.8250 O   0  0  0  0  0  0  0  0  0  0  0  0
  191.1720  178.1530  144.3040 O   0  0  0  0  0  0  0  0  0  0  0  0
  191.9870  178.0340  143.1760 C   0  0  0  0  0  2  0  0  0  0  0  0
  190.9170  176.2300  142.0590 F   0  0  0  0  0  0  0  0  0  0  0  0
  191.1630  177.5880  141.9800 C   0  0  0  0  0  0  0  0  0  0  0  0
  191.8450  177.8670  140.8090 F   0  0  0  0  0  0  0  0  0  0  0  0
  189.9610  178.2690  141.9780 F   0  0  0  0  0  0  0  0  0  0  0  0
  2  9  1  0  0  0  0
  2  1  1  1  0  0  0
  3  4  1  0  0  0  0
  4 13  1  6  0  0  0
  4 12  1  0  0  0  0
  5  3  1  6  0  0  0
  5  2  1  0  0  0  0
  6  8  1  0  0  0  0
  7  6  1  0  0  0  0
  8  1  1  0  0  0  0
  9 11  1  1  0  0  0
 10 21  1  1  0  0  0
 10  5  1  0  0  0  0
 10  7  1  0  0  0  0
 12  9  1  0  0  0  0
 14 16  1  6  0  0  0
 14 17  1  0  0  0  0
 14 13  1  0  0  0  0
 15 16  1  0  0  0  0
 17 19  1  0  0  0  0
 18 20  1  0  0  0  0
 18 19  1  0  0  0  0
 20 19  1  0  0  0  0
 22 21  1  0  0  0  0
 24 23  1  0  0  0  0
 24 22  1  0  0  0  0
 25 24  1  0  0  0  0
 26 24  1  0  0  0  0
M  END
>  <MODEL>
8

>  <REMARK>
 VINA RESULT:      -5.7      3.002      5.089
  Name = 
  8 active torsions:
  status: ('A' for Active; 'I' for Inactive)
    1  A    between atoms: C_1  and  C_17
    2  A    between atoms: C_1  and  C_24
    3  A    between atoms: C_5  and  C_14
    4  A    between atoms: C_9  and  C_21
    5  A    between atoms: C_10  and  C_24
    6  A    between atoms: C_14  and  O_22
    7  A    between atoms: C_20  and  O_22
    8  A    between atoms: C_21  and  C_24
                            x       y       z     vdW  Elec       q    Type
                         _______ _______ _______ _____ _____    ______ ____

>  <TORSDO>
F 8

$$$$
=
 OpenBabel11062417183D

 26 28  0  0  1  0  0  0  0  0999 V2000
  191.6240  177.7900  142.1820 C   0  0  0  0  0  2  0  0  0  0  0  0
  190.2030  177.2000  142.2740 C   0  0  1  0  0  3  0  0  0  0  0  0
  187.8950  177.9380  142.3020 O   0  0  0  0  0  0  0  0  0  0  0  0
  187.9180  178.3460  140.9540 C   0  0  1  0  0  3  0  0  0  0  0  0
  189.1750  178.2190  142.8070 C   0  0  1  0  0  3  0  0  0  0  0  0
  191.7080  178.4670  144.3410 C   0  0  0  0  0  2  0  0  0  0  0  0
  190.3860  178.9670  144.9230 C   0  0  0  0  0  2  0  0  0  0  0  0
  191.8210  178.9080  143.0140 O   0  0  0  0  0  0  0  0  0  0  0  0
  189.7170  176.5430  140.9680 C   0  0  2  0  0  3  0  0  0  0  0  0
  189.1640  178.2460  144.3410 C   0  0  2  0  0  3  0  0  0  0  0  0
  190.7680  176.0010  140.2250 O   0  0  0  0  0  1  0  0  0  0  0  0
  188.8790  177.4910  140.1060 C   0  0  0  0  0  2  0  0  0  0  0  0
  186.5190  178.2700  140.3630 C   0  0  0  0  0  2  0  0  0  0  0  0
  185.5280  179.0700  141.1970 C   0  0  1  0  0  3  0  0  0  0  0  0
  184.5560  180.0910  139.2410 O   0  0  0  0  0  1  0  0  0  0  0  0
  184.2580  179.3780  140.4040 C   0  0  0  0  0  2  0  0  0  0  0  0
  185.2120  178.3150  142.4780 C   0  0  0  0  0  2  0  0  0  0  0  0
  185.0860  178.7980  144.7870 O   0  0  0  0  0  0  0  0  0  0  0  0
  184.7170  179.2710  143.5480 C   0  0  0  0  0  3  0  0  0  0  0  0
  183.8250  178.6180  144.3690 O   0  0  0  0  0  0  0  0  0  0  0  0
  189.0610  176.9540  144.8680 O   0  0  0  0  0  0  0  0  0  0  0  0
  188.1930  177.0760  145.9560 C   0  0  0  0  0  2  0  0  0  0  0  0
  190.2380  176.4900  147.0150 F   0  0  0  0  0  0  0  0  0  0  0  0
  188.9700  176.9840  147.2580 C   0  0  0  0  0  0  0  0  0  0  0  0
  188.3110  176.1480  148.1410 F   0  0  0  0  0  0  0  0  0  0  0  0
  189.0730  178.2440  147.8160 F   0  0  0  0  0  0  0  0  0  0  0  0
  1  8  1  0  0  0  0
  2  1  1  6  0  0  0
  2  5  1  0  0  0  0
  4 13  1  6  0  0  0
  4  3  1  0  0  0  0
  5  3  1  1  0  0  0
  5 10  1  0  0  0  0
  6  7  1  0  0  0  0
  8  6  1  0  0  0  0
  9 11  1  6  0  0  0
  9  2  1  0  0  0  0
 10 21  1  1  0  0  0
 10  7  1  0  0  0  0
 12  4  1  0  0  0  0
 12  9  1  0  0  0  0
 14 13  1  6  0  0  0
 14 17  1  0  0  0  0
 15 16  1  0  0  0  0
 16 14  1  0  0  0  0
 17 19  1  0  0  0  0
 19 20  1  0  0  0  0
 19 18  1  0  0  0  0
 20 18  1  0  0  0  0
 21 22  1  0  0  0  0
 22 24  1  0  0  0  0
 23 24  1  0  0  0  0
 24 26  1  0  0  0  0
 24 25  1  0  0  0  0
M  END
>  <MODEL>
9

>  <REMARK>
 VINA RESULT:      -5.7      2.441      3.888
  Name = 
  8 active torsions:
  status: ('A' for Active; 'I' for Inactive)
    1  A    between atoms: C_1  and  C_17
    2  A    between atoms: C_1  and  C_24
    3  A    between atoms: C_5  and  C_14
    4  A    between atoms: C_9  and  C_21
    5  A    between atoms: C_10  and  C_24
    6  A    between atoms: C_14  and  O_22
    7  A    between atoms: C_20  and  O_22
    8  A    between atoms: C_21  and  C_24
                            x       y       z     vdW  Elec       q    Type
                         _______ _______ _______ _____ _____    ______ ____

>  <TORSDO>
F 8

$$$$
