=
 OpenBabel11062418013D

 58 62  0  0  1  0  0  0  0  0999 V2000
  188.4100  179.3200  137.1680 O   0  0  0  0  0  1  0  0  0  0  0  0
  189.1060  176.0940  136.8550 C   0  0  1  0  0  3  0  0  0  0  0  0
  187.6340  178.2890  137.6970 C   0  0  1  0  0  3  0  0  0  0  0  0
  187.2280  177.3280  136.5620 C   0  0  1  0  0  3  0  0  0  0  0  0
  187.7090  176.0110  136.7470 O   0  0  0  0  0  0  0  0  0  0  0  0
  189.4980  176.6450  138.2320 C   0  0  0  0  0  2  0  0  0  0  0  0
  188.4010  177.5450  138.8030 C   0  0  1  0  0  3  0  0  0  0  0  0
  189.7330  174.7180  136.6450 C   0  0  2  0  0  0  0  0  0  0  0  0
  189.5630  174.2620  135.3300 O   0  0  0  0  0  0  0  0  0  0  0  0
  189.4270  173.7110  137.5610 O   0  0  0  0  0  1  0  0  0  0  0  0
  190.8960  174.4620  135.7530 C   0  0  1  0  0  3  0  0  0  0  0  0
  192.8610  175.9650  135.0580 N   0  0  0  0  0  2  0  0  0  0  0  0
  196.0090  174.1010  136.3450 C   0  0  0  0  0  3  0  0  0  0  0  0
  194.8740  173.2940  136.4190 C   0  0  0  0  0  0  0  0  0  0  0  0
  195.5060  175.5670  135.6790 S   0  0  0  0  0  0  0  0  0  0  0  0
  193.7130  173.8440  135.9690 N   0  0  0  0  0  0  0  0  0  0  0  0
  193.9020  175.1060  135.5320 C   0  0  0  0  0  0  0  0  0  0  0  0
  194.9190  171.9130  136.9660 C   0  0  0  0  0  1  0  0  0  0  0  0
  190.6640  176.5270  134.5960 O   0  0  0  0  0  0  0  0  0  0  0  0
  191.4550  175.7030  135.1170 C   0  0  0  0  0  0  0  0  0  0  0  0
  188.9800  178.4670  139.8730 C   0  0  0  0  0  2  0  0  0  0  0  0
  187.5440  177.6730  141.7570 O   0  0  0  0  0  1  0  0  0  0  0  0
  188.8370  177.9100  141.2850 C   0  0  1  0  0  0  0  0  0  0  0  0
  189.9970  177.1800  141.9530 C   0  0  1  0  0  3  0  0  0  0  0  0
  189.6920  178.6290  142.3020 C   0  0  0  0  0  2  0  0  0  0  0  0
  190.1510  175.0200  142.9430 O   0  0  0  0  0  1  0  0  0  0  0  0
  189.5290  176.2600  143.0690 C   0  0  1  0  0  3  0  0  0  0  0  0
  189.8720  176.8490  144.3560 N   0  0  0  0  0  2  0  0  0  0  0  0
  188.9260  177.1040  145.4010 C   0  0  0  0  0  0  0  0  0  0  0  0
  186.6460  177.7220  146.1990 C   0  0  1  0  0  3  0  0  0  0  0  0
  188.4410  177.3840  147.8490 N   0  0  0  0  0  0  0  0  0  0  0  0
  187.6780  177.4970  145.1250 C   0  0  0  0  0  3  0  0  0  0  0  0
  189.3390  176.9800  146.8110 C   0  0  0  0  0  0  0  0  0  0  0  0
  187.2220  177.7530  147.5960 C   0  0  0  0  0  3  0  0  0  0  0  0
  190.4830  176.5440  147.1070 O   0  0  0  0  0  0  0  0  0  0  0  0
  185.8790  179.0020  145.9140 C   0  0  0  0  0  2  0  0  0  0  0  0
  184.3940  178.7270  145.7220 C   0  0  0  0  0  2  0  0  0  0  0  0
  184.8170  179.5220  143.5130 O   0  0  0  0  0  0  0  0  0  0  0  0
  183.9800  179.0510  144.3250 C   0  0  0  0  0  0  0  0  0  0  0  0
  182.6620  178.8670  143.9340 O   0  0  0  0  0  1  0  0  0  0  0  0
  185.7130  177.3330  136.3890 C   0  0  0  0  0  2  0  0  0  0  0  0
  185.0070  176.5780  137.5210 C   0  0  1  0  0  3  0  0  0  0  0  0
  184.0570  177.4380  138.3810 C   0  0  1  0  0  3  0  0  0  0  0  0
  184.8610  178.1530  139.4510 C   0  0  0  0  0  1  0  0  0  0  0  0
  183.2500  178.4720  137.6050 C   0  0  0  0  0  2  0  0  0  0  0  0
  181.7800  178.3510  137.9640 C   0  0  0  0  0  2  0  0  0  0  0  0
  181.1150  179.7200  137.9420 C   0  0  1  0  0  3  0  0  0  0  0  0
  179.8050  179.6330  137.1840 C   0  0  0  0  0  1  0  0  0  0  0  0
  180.9070  180.2520  139.3610 C   0  0  0  0  0  3  0  0  0  0  0  0
  181.1180  179.2510  140.3130 O   0  0  0  0  0  1  0  0  0  0  0  0
  179.6240  180.7700  139.4970 O   0  0  0  0  0  1  0  0  0  0  0  0
  184.2910  175.3620  136.9240 C   0  0  1  0  0  3  0  0  0  0  0  0
  185.5790  173.8080  135.4600 O   0  0  0  0  0  0  0  0  0  0  0  0
  185.2000  174.1880  136.7410 C   0  0  0  0  0  0  0  0  0  0  0  0
  185.6140  173.5380  137.7380 O   0  0  0  0  0  1  0  0  0  0  0  0
  183.1630  175.0090  137.6700 O   0  0  0  0  0  0  0  0  0  0  0  0
  182.2180  174.6090  136.7240 C   0  0  0  0  0  2  0  0  0  0  0  0
  181.7380  173.2120  137.0500 C   0  0  0  0  0  1  0  0  0  0  0  0
  2  6  1  1  0  0  0
  3  1  1  6  0  0  0
  3  7  1  0  0  0  0
  4 41  1  1  0  0  0
  4  5  1  0  0  0  0
  4  3  1  0  0  0  0
  5  2  1  0  0  0  0
  6  7  1  0  0  0  0
  7 21  1  1  0  0  0
  8  2  1  0  0  0  0
  8 10  1  1  0  0  0
  9 11  1  0  0  0  0
  9  8  1  0  0  0  0
 11 20  1  6  0  0  0
 11  8  1  0  0  0  0
 12 20  1  0  0  0  0
 12 17  1  0  0  0  0
 13 14  2  0  0  0  0
 14 18  1  0  0  0  0
 15 13  1  0  0  0  0
 16 14  1  0  0  0  0
 17 15  1  0  0  0  0
 17 16  2  0  0  0  0
 19 20  2  0  0  0  0
 21 23  1  0  0  0  0
 23 22  1  1  0  0  0
 23 24  1  0  0  0  0
 23 25  1  0  0  0  0
 24 25  1  0  0  0  0
 24 27  1  1  0  0  0
 27 26  1  6  0  0  0
 27 28  1  0  0  0  0
 28 29  1  0  0  0  0
 29 33  1  0  0  0  0
 30 36  1  6  0  0  0
 30 34  1  0  0  0  0
 32 29  2  0  0  0  0
 32 30  1  0  0  0  0
 33 35  2  0  0  0  0
 33 31  1  0  0  0  0
 34 31  2  0  0  0  0
 37 36  1  0  0  0  0
 38 39  2  0  0  0  0
 39 37  1  0  0  0  0
 40 39  1  0  0  0  0
 42 41  1  6  0  0  0
 42 43  1  0  0  0  0
 43 44  1  1  0  0  0
 45 46  1  0  0  0  0
 45 43  1  0  0  0  0
 47 48  1  1  0  0  0
 47 46  1  0  0  0  0
 47 49  1  0  0  0  0
 49 51  1  0  0  0  0
 49 50  1  0  0  0  0
 52 54  1  1  0  0  0
 52 42  1  0  0  0  0
 52 56  1  0  0  0  0
 53 54  2  0  0  0  0
 54 55  1  0  0  0  0
 57 58  1  0  0  0  0
 57 56  1  0  0  0  0
M  END
>  <MODEL>
1

>  <REMARK>
 VINA RESULT:      -7.0      0.000      0.000
  Name = 
  21 active torsions:
  status: ('A' for Active; 'I' for Inactive)
    1  A    between atoms: C_2  and  C_32
    2  A    between atoms: C_2  and  C_34
    3  A    between atoms: C_3  and  N_54
    4  A    between atoms: C_5  and  C_10
    5  A    between atoms: C_6  and  C_48
    6  A    between atoms: C_7  and  C_9
    7  A    between atoms: C_7  and  C_32
    8  A    between atoms: C_7  and  O_53
    9  A    between atoms: C_8  and  C_20
   10  A    between atoms: C_8  and  C_58
   11  A    between atoms: C_13  and  O_53
   12  A    between atoms: C_17  and  C_35
   13  A    between atoms: C_17  and  C_58
   14  A    between atoms: C_21  and  C_23
   15  A    between atoms: C_21  and  C_48
   16  A    between atoms: C_24  and  C_29
   17  A    between atoms: C_24  and  C_44
   18  A    between atoms: C_32  and  C_35
   19  A    between atoms: C_39  and  C_55
   20  A    between atoms: C_49  and  C_56
   21  A    between atoms: N_54  and  C_55
                            x       y       z     vdW  Elec       q    Type
                         _______ _______ _______ _____ _____    ______ ____

>  <TORSDO>
F 21

$$$$
=
 OpenBabel11062418013D

 58 62  0  0  1  0  0  0  0  0999 V2000
  184.6810  180.0260  138.9330 O   0  0  0  0  0  1  0  0  0  0  0  0
  185.0610  177.2310  137.1920 C   0  0  1  0  0  3  0  0  0  0  0  0
  184.4950  178.7430  139.4470 C   0  0  1  0  0  3  0  0  0  0  0  0
  183.4520  178.0000  138.5890 C   0  0  1  0  0  3  0  0  0  0  0  0
  183.9630  176.8360  137.9720 O   0  0  0  0  0  0  0  0  0  0  0  0
  186.2690  177.5280  138.0890 C   0  0  0  0  0  2  0  0  0  0  0  0
  185.8270  177.9750  139.4840 C   0  0  1  0  0  3  0  0  0  0  0  0
  185.4130  176.1370  136.1860 C   0  0  2  0  0  0  0  0  0  0  0  0
  185.0350  176.4860  134.8810 O   0  0  0  0  0  0  0  0  0  0  0  0
  185.0290  174.8290  136.4800 O   0  0  0  0  0  1  0  0  0  0  0  0
  186.4180  176.2990  135.1010 C   0  0  1  0  0  3  0  0  0  0  0  0
  188.4250  177.7960  135.6820 N   0  0  0  0  0  2  0  0  0  0  0  0
  190.9170  175.4260  137.4750 C   0  0  0  0  0  3  0  0  0  0  0  0
  189.8820  174.7140  136.8710 C   0  0  0  0  0  0  0  0  0  0  0  0
  190.6390  177.0540  137.1250 S   0  0  0  0  0  0  0  0  0  0  0  0
  188.9600  175.4500  136.1910 N   0  0  0  0  0  0  0  0  0  0  0  0
  189.2420  176.7670  136.2470 C   0  0  0  0  0  0  0  0  0  0  0  0
  189.7780  173.2340  136.9660 C   0  0  0  0  0  1  0  0  0  0  0  0
  186.5530  178.6200  134.5990 O   0  0  0  0  0  0  0  0  0  0  0  0
  187.1190  177.6280  135.1180 C   0  0  0  0  0  0  0  0  0  0  0  0
  186.9550  178.7390  140.1730 C   0  0  0  0  0  2  0  0  0  0  0  0
  186.2900  177.8790  142.4240 O   0  0  0  0  0  1  0  0  0  0  0  0
  187.3290  178.1570  141.5330 C   0  0  1  0  0  0  0  0  0  0  0  0
  188.6630  177.4470  141.7330 C   0  0  1  0  0  3  0  0  0  0  0  0
  188.4730  178.8820  142.2000 C   0  0  0  0  0  2  0  0  0  0  0  0
  189.1570  175.2630  142.5420 O   0  0  0  0  0  1  0  0  0  0  0  0
  188.6360  176.4990  142.9210 C   0  0  1  0  0  3  0  0  0  0  0  0
  189.4370  177.0560  144.0020 N   0  0  0  0  0  2  0  0  0  0  0  0
  188.9480  177.2850  145.3290 C   0  0  0  0  0  0  0  0  0  0  0  0
  187.0990  177.7010  146.9490 C   0  0  1  0  0  3  0  0  0  0  0  0
  189.4230  177.7010  147.7600 N   0  0  0  0  0  0  0  0  0  0  0  0
  187.6510  177.5100  145.5600 C   0  0  0  0  0  3  0  0  0  0  0  0
  189.8900  177.3210  146.4620 C   0  0  0  0  0  0  0  0  0  0  0  0
  188.1640  177.9080  148.0000 C   0  0  0  0  0  3  0  0  0  0  0  0
  191.1070  177.0420  146.2910 O   0  0  0  0  0  0  0  0  0  0  0  0
  186.1150  178.8590  146.9550 C   0  0  0  0  0  2  0  0  0  0  0  0
  184.7130  178.3960  146.5850 C   0  0  0  0  0  2  0  0  0  0  0  0
  183.4220  178.3330  144.5810 O   0  0  0  0  0  0  0  0  0  0  0  0
  184.3380  178.8980  145.2310 C   0  0  0  0  0  0  0  0  0  0  0  0
  185.0260  179.9670  144.6750 O   0  0  0  0  0  1  0  0  0  0  0  0
  182.2220  177.6730  139.4290 C   0  0  0  0  0  2  0  0  0  0  0  0
  181.1680  176.9040  138.6240 C   0  0  1  0  0  3  0  0  0  0  0  0
  179.8710  176.5780  139.3940 C   0  0  1  0  0  3  0  0  0  0  0  0
  180.1030  175.3590  140.2670 C   0  0  0  0  0  1  0  0  0  0  0  0
  179.3440  177.7090  140.2670 C   0  0  0  0  0  2  0  0  0  0  0  0
  179.7120  177.4530  141.7180 C   0  0  0  0  0  2  0  0  0  0  0  0
  179.4340  178.6880  142.5620 C   0  0  1  0  0  3  0  0  0  0  0  0
  179.6650  178.3620  144.0250 C   0  0  0  0  0  1  0  0  0  0  0  0
  180.2940  179.8670  142.1080 C   0  0  0  0  0  3  0  0  0  0  0  0
  181.5820  179.7910  142.6440 O   0  0  0  0  0  1  0  0  0  0  0  0
  179.6990  181.0680  142.4780 O   0  0  0  0  0  1  0  0  0  0  0  0
  180.8840  177.6770  137.3310 C   0  0  1  0  0  3  0  0  0  0  0  0
  179.3600  177.1260  135.4360 O   0  0  0  0  0  0  0  0  0  0  0  0
  180.4670  176.7870  136.2040 C   0  0  0  0  0  0  0  0  0  0  0  0
  181.1060  175.7310  135.9530 O   0  0  0  0  0  1  0  0  0  0  0  0
  179.9480  178.6960  137.5350 O   0  0  0  0  0  0  0  0  0  0  0  0
  180.5850  179.8600  137.0990 C   0  0  0  0  0  2  0  0  0  0  0  0
  179.5570  180.9510  136.8940 C   0  0  0  0  0  1  0  0  0  0  0  0
  2  5  1  0  0  0  0
  2  6  1  1  0  0  0
  3  1  1  6  0  0  0
  3  7  1  0  0  0  0
  4 41  1  1  0  0  0
  4  3  1  0  0  0  0
  5  4  1  0  0  0  0
  6  7  1  0  0  0  0
  7 21  1  6  0  0  0
  8 10  1  1  0  0  0
  8  2  1  0  0  0  0
  9 11  1  0  0  0  0
  9  8  1  0  0  0  0
 11 20  1  1  0  0  0
 11  8  1  0  0  0  0
 12 17  1  0  0  0  0
 14 18  1  0  0  0  0
 14 13  2  0  0  0  0
 15 13  1  0  0  0  0
 16 17  2  0  0  0  0
 16 14  1  0  0  0  0
 17 15  1  0  0  0  0
 19 20  2  0  0  0  0
 20 12  1  0  0  0  0
 21 23  1  0  0  0  0
 23 24  1  0  0  0  0
 23 25  1  0  0  0  0
 23 22  1  1  0  0  0
 24 25  1  0  0  0  0
 24 27  1  1  0  0  0
 27 26  1  6  0  0  0
 27 28  1  0  0  0  0
 28 29  1  0  0  0  0
 29 32  2  0  0  0  0
 29 33  1  0  0  0  0
 30 36  1  6  0  0  0
 30 34  1  0  0  0  0
 31 34  2  0  0  0  0
 32 30  1  0  0  0  0
 33 31  1  0  0  0  0
 35 33  2  0  0  0  0
 37 36  1  0  0  0  0
 38 39  2  0  0  0  0
 39 37  1  0  0  0  0
 40 39  1  0  0  0  0
 42 43  1  0  0  0  0
 42 41  1  1  0  0  0
 43 45  1  0  0  0  0
 43 44  1  1  0  0  0
 45 46  1  0  0  0  0
 46 47  1  0  0  0  0
 47 48  1  1  0  0  0
 49 51  1  0  0  0  0
 49 47  1  0  0  0  0
 49 50  1  0  0  0  0
 52 54  1  6  0  0  0
 52 56  1  0  0  0  0
 52 42  1  0  0  0  0
 53 54  2  0  0  0  0
 55 54  1  0  0  0  0
 57 56  1  0  0  0  0
 58 57  1  0  0  0  0
M  END
>  <MODEL>
2

>  <REMARK>
 VINA RESULT:      -6.3      2.484      4.002
  Name = 
  21 active torsions:
  status: ('A' for Active; 'I' for Inactive)
    1  A    between atoms: C_2  and  C_32
    2  A    between atoms: C_2  and  C_34
    3  A    between atoms: C_3  and  N_54
    4  A    between atoms: C_5  and  C_10
    5  A    between atoms: C_6  and  C_48
    6  A    between atoms: C_7  and  C_9
    7  A    between atoms: C_7  and  C_32
    8  A    between atoms: C_7  and  O_53
    9  A    between atoms: C_8  and  C_20
   10  A    between atoms: C_8  and  C_58
   11  A    between atoms: C_13  and  O_53
   12  A    between atoms: C_17  and  C_35
   13  A    between atoms: C_17  and  C_58
   14  A    between atoms: C_21  and  C_23
   15  A    between atoms: C_21  and  C_48
   16  A    between atoms: C_24  and  C_29
   17  A    between atoms: C_24  and  C_44
   18  A    between atoms: C_32  and  C_35
   19  A    between atoms: C_39  and  C_55
   20  A    between atoms: C_49  and  C_56
   21  A    between atoms: N_54  and  C_55
                            x       y       z     vdW  Elec       q    Type
                         _______ _______ _______ _____ _____    ______ ____

>  <TORSDO>
F 21

$$$$
=
 OpenBabel11062418013D

 58 62  0  0  1  0  0  0  0  0999 V2000
  184.5730  180.0210  139.0070 O   0  0  0  0  0  1  0  0  0  0  0  0
  184.3960  177.0330  137.5840 C   0  0  1  0  0  3  0  0  0  0  0  0
  184.3730  178.8270  139.6980 C   0  0  1  0  0  3  0  0  0  0  0  0
  183.1340  178.1120  139.1250 C   0  0  1  0  0  3  0  0  0  0  0  0
  183.4260  176.8410  138.5790 O   0  0  0  0  0  0  0  0  0  0  0  0
  185.7650  177.2950  138.2220 C   0  0  0  0  0  2  0  0  0  0  0  0
  185.6200  177.9320  139.6060 C   0  0  1  0  0  3  0  0  0  0  0  0
  184.4680  175.8070  136.6750 C   0  0  2  0  0  0  0  0  0  0  0  0
  183.8360  176.0320  135.4440 O   0  0  0  0  0  0  0  0  0  0  0  0
  184.0920  174.5740  137.2070 O   0  0  0  0  0  1  0  0  0  0  0  0
  185.2230  175.7670  135.3940 C   0  0  1  0  0  3  0  0  0  0  0  0
  187.3820  177.1590  135.3340 N   0  0  0  0  0  2  0  0  0  0  0  0
  190.0910  174.8130  136.8150 C   0  0  0  0  0  3  0  0  0  0  0  0
  188.9120  174.1210  136.5440 C   0  0  0  0  0  0  0  0  0  0  0  0
  189.8250  176.4090  136.3380 S   0  0  0  0  0  0  0  0  0  0  0  0
  187.8990  174.8470  135.9970 N   0  0  0  0  0  0  0  0  0  0  0  0
  188.2520  176.1370  135.8290 C   0  0  0  0  0  0  0  0  0  0  0  0
  188.7570  172.6720  136.8400 C   0  0  0  0  0  1  0  0  0  0  0  0
  185.3580  178.0030  134.5940 O   0  0  0  0  0  0  0  0  0  0  0  0
  185.9760  177.0320  135.0940 C   0  0  0  0  0  0  0  0  0  0  0  0
  186.9140  178.6410  139.9970 C   0  0  0  0  0  2  0  0  0  0  0  0
  186.5630  177.8580  142.3450 O   0  0  0  0  0  1  0  0  0  0  0  0
  187.4760  178.1670  141.3340 C   0  0  1  0  0  0  0  0  0  0  0  0
  188.8790  177.5780  141.4200 C   0  0  1  0  0  3  0  0  0  0  0  0
  188.6190  179.0160  141.8370 C   0  0  0  0  0  2  0  0  0  0  0  0
  189.9770  175.6890  142.3670 O   0  0  0  0  0  1  0  0  0  0  0  0
  189.0570  176.6980  142.6470 C   0  0  1  0  0  3  0  0  0  0  0  0
  189.5420  177.5070  143.7550 N   0  0  0  0  0  2  0  0  0  0  0  0
  188.9730  177.4940  145.0700 C   0  0  0  0  0  0  0  0  0  0  0  0
  187.0290  177.6390  146.6240 C   0  0  1  0  0  3  0  0  0  0  0  0
  189.2970  177.4380  147.5590 N   0  0  0  0  0  0  0  0  0  0  0  0
  187.6660  177.6990  145.2600 C   0  0  0  0  0  3  0  0  0  0  0  0
  189.8420  177.2970  146.2440 C   0  0  0  0  0  0  0  0  0  0  0  0
  188.0270  177.6230  147.7580 C   0  0  0  0  0  3  0  0  0  0  0  0
  191.0640  177.0300  146.0980 O   0  0  0  0  0  0  0  0  0  0  0  0
  186.0580  178.7970  146.7890 C   0  0  0  0  0  2  0  0  0  0  0  0
  184.6250  178.3600  146.5190 C   0  0  0  0  0  2  0  0  0  0  0  0
  183.0410  178.5400  144.7450 O   0  0  0  0  0  1  0  0  0  0  0  0
  184.1560  178.8930  145.2060 C   0  0  0  0  0  0  0  0  0  0  0  0
  184.9680  179.7510  144.4780 O   0  0  0  0  0  0  0  0  0  0  0  0
  182.0500  178.0070  140.1930 C   0  0  0  0  0  2  0  0  0  0  0  0
  180.6510  177.8930  139.5780 C   0  0  1  0  0  3  0  0  0  0  0  0
  179.7760  179.1580  139.7130 C   0  0  1  0  0  3  0  0  0  0  0  0
  178.9740  179.0750  140.9990 C   0  0  0  0  0  1  0  0  0  0  0  0
  180.5470  180.4720  139.7040 C   0  0  0  0  0  2  0  0  0  0  0  0
  179.6250  181.6060  139.2900 C   0  0  0  0  0  2  0  0  0  0  0  0
  180.3930  182.6500  138.4940 C   0  0  1  0  0  3  0  0  0  0  0  0
  181.7560  182.0990  138.1210 C   0  0  0  0  0  1  0  0  0  0  0  0
  179.6070  183.0850  137.2570 C   0  0  0  0  0  3  0  0  0  0  0  0
  178.9310  182.0060  136.6820 O   0  0  0  0  0  1  0  0  0  0  0  0
  180.4590  183.6600  136.3220 O   0  0  0  0  0  1  0  0  0  0  0  0
  180.7960  177.4550  138.1160 C   0  0  1  0  0  3  0  0  0  0  0  0
  180.6960  175.3730  136.7480 O   0  0  0  0  0  0  0  0  0  0  0  0
  180.2760  176.0740  137.8720 C   0  0  0  0  0  0  0  0  0  0  0  0
  179.4570  175.5480  138.6710 O   0  0  0  0  0  1  0  0  0  0  0  0
  180.2050  178.3730  137.2420 O   0  0  0  0  0  0  0  0  0  0  0  0
  181.2290  178.7440  136.3670 C   0  0  0  0  0  2  0  0  0  0  0  0
  180.6490  179.5440  135.2220 C   0  0  0  0  0  1  0  0  0  0  0  0
  2  6  1  1  0  0  0
  2  5  1  0  0  0  0
  3  1  1  6  0  0  0
  4  3  1  0  0  0  0
  4 41  1  1  0  0  0
  5  4  1  0  0  0  0
  6  7  1  0  0  0  0
  7  3  1  0  0  0  0
  7 21  1  6  0  0  0
  8 10  1  1  0  0  0
  8  2  1  0  0  0  0
  9  8  1  0  0  0  0
 11 20  1  1  0  0  0
 11  9  1  0  0  0  0
 11  8  1  0  0  0  0
 12 17  1  0  0  0  0
 14 13  2  0  0  0  0
 14 18  1  0  0  0  0
 15 13  1  0  0  0  0
 16 14  1  0  0  0  0
 17 16  2  0  0  0  0
 17 15  1  0  0  0  0
 19 20  2  0  0  0  0
 20 12  1  0  0  0  0
 21 23  1  0  0  0  0
 23 24  1  0  0  0  0
 23 25  1  0  0  0  0
 23 22  1  1  0  0  0
 24 25  1  0  0  0  0
 24 27  1  1  0  0  0
 27 26  1  6  0  0  0
 27 28  1  0  0  0  0
 28 29  1  0  0  0  0
 29 32  2  0  0  0  0
 29 33  1  0  0  0  0
 30 36  1  1  0  0  0
 30 34  1  0  0  0  0
 31 34  2  0  0  0  0
 32 30  1  0  0  0  0
 33 31  1  0  0  0  0
 35 33  2  0  0  0  0
 37 36  1  0  0  0  0
 38 39  1  0  0  0  0
 39 37  1  0  0  0  0
 40 39  2  0  0  0  0
 42 43  1  0  0  0  0
 42 41  1  6  0  0  0
 43 44  1  1  0  0  0
 45 43  1  0  0  0  0
 46 45  1  0  0  0  0
 47 48  1  6  0  0  0
 47 46  1  0  0  0  0
 49 47  1  0  0  0  0
 50 49  1  0  0  0  0
 51 49  1  0  0  0  0
 52 56  1  6  0  0  0
 52 42  1  0  0  0  0
 53 54  2  0  0  0  0
 54 52  1  0  0  0  0
 54 55  1  0  0  0  0
 57 56  1  0  0  0  0
 58 57  1  0  0  0  0
M  END
>  <MODEL>
3

>  <REMARK>
 VINA RESULT:      -6.2      2.755      4.192
  Name = 
  21 active torsions:
  status: ('A' for Active; 'I' for Inactive)
    1  A    between atoms: C_2  and  C_32
    2  A    between atoms: C_2  and  C_34
    3  A    between atoms: C_3  and  N_54
    4  A    between atoms: C_5  and  C_10
    5  A    between atoms: C_6  and  C_48
    6  A    between atoms: C_7  and  C_9
    7  A    between atoms: C_7  and  C_32
    8  A    between atoms: C_7  and  O_53
    9  A    between atoms: C_8  and  C_20
   10  A    between atoms: C_8  and  C_58
   11  A    between atoms: C_13  and  O_53
   12  A    between atoms: C_17  and  C_35
   13  A    between atoms: C_17  and  C_58
   14  A    between atoms: C_21  and  C_23
   15  A    between atoms: C_21  and  C_48
   16  A    between atoms: C_24  and  C_29
   17  A    between atoms: C_24  and  C_44
   18  A    between atoms: C_32  and  C_35
   19  A    between atoms: C_39  and  C_55
   20  A    between atoms: C_49  and  C_56
   21  A    between atoms: N_54  and  C_55
                            x       y       z     vdW  Elec       q    Type
                         _______ _______ _______ _____ _____    ______ ____

>  <TORSDO>
F 21

$$$$
=
 OpenBabel11062418013D

 58 62  0  0  1  0  0  0  0  0999 V2000
  187.5100  179.0850  136.7690 O   0  0  0  0  0  1  0  0  0  0  0  0
  186.0040  176.1460  137.0500 C   0  0  1  0  0  3  0  0  0  0  0  0
  186.8160  178.6570  137.9000 C   0  0  1  0  0  3  0  0  0  0  0  0
  185.3770  178.2770  137.4980 C   0  0  1  0  0  3  0  0  0  0  0  0
  185.0670  176.9210  137.7510 O   0  0  0  0  0  0  0  0  0  0  0  0
  187.3600  176.1780  137.7650 C   0  0  0  0  0  2  0  0  0  0  0  0
  187.5370  177.4710  138.5620 C   0  0  1  0  0  3  0  0  0  0  0  0
  185.5100  174.7060  136.9280 C   0  0  2  0  0  0  0  0  0  0  0  0
  184.1660  174.5800  137.3090 O   0  0  0  0  0  0  0  0  0  0  0  0
  186.2840  173.6980  137.5020 O   0  0  0  0  0  1  0  0  0  0  0  0
  184.4660  174.2640  135.9650 C   0  0  1  0  0  3  0  0  0  0  0  0
  182.5910  175.5120  134.7270 N   0  0  0  0  0  2  0  0  0  0  0  0
  179.3690  173.5410  135.6060 C   0  0  0  0  0  3  0  0  0  0  0  0
  180.4420  173.1430  136.4020 C   0  0  0  0  0  0  0  0  0  0  0  0
  179.9530  174.7630  134.6000 S   0  0  0  0  0  0  0  0  0  0  0  0
  181.6210  173.7900  136.1920 N   0  0  0  0  0  0  0  0  0  0  0  0
  181.5090  174.7140  135.2170 C   0  0  0  0  0  0  0  0  0  0  0  0
  180.3170  172.0670  137.4200 C   0  0  0  0  0  1  0  0  0  0  0  0
  184.8020  176.1820  134.5990 O   0  0  0  0  0  0  0  0  0  0  0  0
  183.9750  175.3580  135.0600 C   0  0  0  0  0  0  0  0  0  0  0  0
  189.0180  177.7270  138.8290 C   0  0  0  0  0  2  0  0  0  0  0  0
  190.3370  176.2260  140.3300 O   0  0  0  0  0  1  0  0  0  0  0  0
  189.4560  177.3050  140.2280 C   0  0  1  0  0  0  0  0  0  0  0  0
  189.3670  178.2800  141.3970 C   0  0  1  0  0  3  0  0  0  0  0  0
  188.3110  177.2010  141.2070 C   0  0  0  0  0  2  0  0  0  0  0  0
  190.7850  179.0600  143.1430 O   0  0  0  0  0  1  0  0  0  0  0  0
  190.3070  177.9030  142.5300 C   0  0  1  0  0  3  0  0  0  0  0  0
  189.5880  177.0960  143.5060 N   0  0  0  0  0  2  0  0  0  0  0  0
  189.9950  176.9330  144.8700 C   0  0  0  0  0  0  0  0  0  0  0  0
  189.5640  177.0580  147.3220 C   0  0  1  0  0  3  0  0  0  0  0  0
  191.8050  176.4160  146.5320 N   0  0  0  0  0  0  0  0  0  0  0  0
  189.1850  177.2670  145.8790 C   0  0  0  0  0  3  0  0  0  0  0  0
  191.3470  176.4320  145.1770 C   0  0  0  0  0  0  0  0  0  0  0  0
  191.0230  176.7240  147.5220 C   0  0  0  0  0  3  0  0  0  0  0  0
  192.1090  176.0410  144.2540 O   0  0  0  0  0  0  0  0  0  0  0  0
  189.1830  178.2840  148.1350 C   0  0  0  0  0  2  0  0  0  0  0  0
  187.7950  178.1370  148.7430 C   0  0  0  0  0  2  0  0  0  0  0  0
  186.3600  177.5310  146.9360 O   0  0  0  0  0  0  0  0  0  0  0  0
  186.7460  178.4330  147.7230 C   0  0  0  0  0  0  0  0  0  0  0  0
  186.2220  179.7130  147.6210 O   0  0  0  0  0  1  0  0  0  0  0  0
  184.3790  179.1990  138.1900 C   0  0  0  0  0  2  0  0  0  0  0  0
  183.1720  178.4280  138.7340 C   0  0  1  0  0  3  0  0  0  0  0  0
  183.2540  178.0640  140.2320 C   0  0  1  0  0  3  0  0  0  0  0  0
  182.9260  176.5930  140.4070 C   0  0  0  0  0  1  0  0  0  0  0  0
  184.6020  178.3440  140.8850 C   0  0  0  0  0  2  0  0  0  0  0  0
  184.4020  179.1840  142.1350 C   0  0  0  0  0  2  0  0  0  0  0  0
  184.3700  178.2970  143.3700 C   0  0  1  0  0  3  0  0  0  0  0  0
  185.7530  178.2470  143.9910 C   0  0  0  0  0  1  0  0  0  0  0  0
  183.3240  178.7870  144.3720 C   0  0  0  0  0  3  0  0  0  0  0  0
  182.6050  179.8710  143.8630 O   0  0  0  0  0  1  0  0  0  0  0  0
  183.9340  179.1450  145.5690 O   0  0  0  0  0  1  0  0  0  0  0  0
  181.9010  179.2210  138.4100 C   0  0  1  0  0  3  0  0  0  0  0  0
  181.1260  177.3900  136.9050 O   0  0  0  0  0  0  0  0  0  0  0  0
  180.8130  178.3650  137.8430 C   0  0  0  0  0  0  0  0  0  0  0  0
  179.6170  178.5270  138.2050 O   0  0  0  0  0  1  0  0  0  0  0  0
  181.4440  179.9400  139.5190 O   0  0  0  0  0  0  0  0  0  0  0  0
  180.6860  180.9830  138.9830 C   0  0  0  0  0  2  0  0  0  0  0  0
  181.5680  181.8570  138.1200 C   0  0  0  0  0  1  0  0  0  0  0  0
  2  5  1  0  0  0  0
  2  6  1  1  0  0  0
  3  1  1  6  0  0  0
  3  7  1  0  0  0  0
  4  5  1  0  0  0  0
  4  3  1  0  0  0  0
  4 41  1  1  0  0  0
  6  7  1  0  0  0  0
  7 21  1  6  0  0  0
  8  2  1  0  0  0  0
  8  9  1  0  0  0  0
  8 10  1  1  0  0  0
 11 20  1  6  0  0  0
 11  8  1  0  0  0  0
 11  9  1  0  0  0  0
 12 20  1  0  0  0  0
 12 17  1  0  0  0  0
 13 14  2  0  0  0  0
 14 18  1  0  0  0  0
 15 17  1  0  0  0  0
 15 13  1  0  0  0  0
 16 14  1  0  0  0  0
 17 16  2  0  0  0  0
 19 20  2  0  0  0  0
 21 23  1  0  0  0  0
 23 22  1  1  0  0  0
 23 25  1  0  0  0  0
 23 24  1  0  0  0  0
 24 27  1  1  0  0  0
 25 24  1  0  0  0  0
 27 26  1  1  0  0  0
 27 28  1  0  0  0  0
 28 29  1  0  0  0  0
 29 33  1  0  0  0  0
 29 32  2  0  0  0  0
 30 34  1  0  0  0  0
 30 36  1  1  0  0  0
 31 34  2  0  0  0  0
 32 30  1  0  0  0  0
 33 31  1  0  0  0  0
 35 33  2  0  0  0  0
 36 37  1  0  0  0  0
 38 39  2  0  0  0  0
 39 37  1  0  0  0  0
 40 39  1  0  0  0  0
 42 41  1  1  0  0  0
 42 43  1  0  0  0  0
 43 44  1  6  0  0  0
 43 45  1  0  0  0  0
 45 46  1  0  0  0  0
 46 47  1  0  0  0  0
 47 48  1  1  0  0  0
 47 49  1  0  0  0  0
 49 51  1  0  0  0  0
 50 49  1  0  0  0  0
 52 54  1  1  0  0  0
 52 42  1  0  0  0  0
 52 56  1  0  0  0  0
 53 54  2  0  0  0  0
 54 55  1  0  0  0  0
 57 56  1  0  0  0  0
 58 57  1  0  0  0  0
M  END
>  <MODEL>
4

>  <REMARK>
 VINA RESULT:      -6.0      3.884      6.420
  Name = 
  21 active torsions:
  status: ('A' for Active; 'I' for Inactive)
    1  A    between atoms: C_2  and  C_32
    2  A    between atoms: C_2  and  C_34
    3  A    between atoms: C_3  and  N_54
    4  A    between atoms: C_5  and  C_10
    5  A    between atoms: C_6  and  C_48
    6  A    between atoms: C_7  and  C_9
    7  A    between atoms: C_7  and  C_32
    8  A    between atoms: C_7  and  O_53
    9  A    between atoms: C_8  and  C_20
   10  A    between atoms: C_8  and  C_58
   11  A    between atoms: C_13  and  O_53
   12  A    between atoms: C_17  and  C_35
   13  A    between atoms: C_17  and  C_58
   14  A    between atoms: C_21  and  C_23
   15  A    between atoms: C_21  and  C_48
   16  A    between atoms: C_24  and  C_29
   17  A    between atoms: C_24  and  C_44
   18  A    between atoms: C_32  and  C_35
   19  A    between atoms: C_39  and  C_55
   20  A    between atoms: C_49  and  C_56
   21  A    between atoms: N_54  and  C_55
                            x       y       z     vdW  Elec       q    Type
                         _______ _______ _______ _____ _____    ______ ____

>  <TORSDO>
F 21

$$$$
=
 OpenBabel11062418013D

 58 62  0  0  1  0  0  0  0  0999 V2000
  184.1120  180.6110  138.6500 O   0  0  0  0  0  1  0  0  0  0  0  0
  184.0220  177.3990  137.8330 C   0  0  1  0  0  3  0  0  0  0  0  0
  183.6750  179.5910  139.4960 C   0  0  1  0  0  3  0  0  0  0  0  0
  182.5400  178.8120  138.8030 C   0  0  1  0  0  3  0  0  0  0  0  0
  182.8450  177.4470  138.5970 O   0  0  0  0  0  0  0  0  0  0  0  0
  185.2340  177.7450  138.7060 C   0  0  0  0  0  2  0  0  0  0  0  0
  184.8390  178.6590  139.8680 C   0  0  1  0  0  3  0  0  0  0  0  0
  184.1970  176.0110  137.2220 C   0  0  2  0  0  0  0  0  0  0  0  0
  183.3010  175.7880  136.1670 O   0  0  0  0  0  0  0  0  0  0  0  0
  184.2290  174.9150  138.0840 O   0  0  0  0  0  1  0  0  0  0  0  0
  184.6740  175.7680  135.8340 C   0  0  1  0  0  3  0  0  0  0  0  0
  186.3990  177.4320  134.9060 N   0  0  0  0  0  2  0  0  0  0  0  0
  189.8250  176.0030  136.0260 C   0  0  0  0  0  3  0  0  0  0  0  0
  188.7980  175.0840  136.2340 C   0  0  0  0  0  0  0  0  0  0  0  0
  189.1100  177.3640  135.3300 S   0  0  0  0  0  0  0  0  0  0  0  0
  187.5520  175.4760  135.8510 N   0  0  0  0  0  0  0  0  0  0  0  0
  187.5630  176.7220  135.3370 C   0  0  0  0  0  0  0  0  0  0  0  0
  189.0400  173.7510  136.8450 C   0  0  0  0  0  1  0  0  0  0  0  0
  184.1240  177.7230  134.5950 O   0  0  0  0  0  0  0  0  0  0  0  0
  185.0390  177.0220  135.0920 C   0  0  0  0  0  0  0  0  0  0  0  0
  186.0660  179.3940  140.4010 C   0  0  0  0  0  2  0  0  0  0  0  0
  186.0520  177.8860  142.3940 O   0  0  0  0  0  1  0  0  0  0  0  0
  186.8140  178.6100  141.4750 C   0  0  1  0  0  0  0  0  0  0  0  0
  188.2730  178.2140  141.2720 C   0  0  1  0  0  3  0  0  0  0  0  0
  187.9100  179.4060  142.1430 C   0  0  0  0  0  2  0  0  0  0  0  0
  189.1310  175.9940  141.3290 O   0  0  0  0  0  1  0  0  0  0  0  0
  188.6720  177.0310  142.1390 C   0  0  1  0  0  3  0  0  0  0  0  0
  189.7270  177.4380  143.0560 N   0  0  0  0  0  2  0  0  0  0  0  0
  189.7070  177.1870  144.4660 C   0  0  0  0  0  0  0  0  0  0  0  0
  188.5000  176.8430  146.6210 C   0  0  1  0  0  3  0  0  0  0  0  0
  190.9600  176.9110  146.6250 N   0  0  0  0  0  0  0  0  0  0  0  0
  188.5580  177.1550  145.1480 C   0  0  0  0  0  3  0  0  0  0  0  0
  190.9740  177.0060  145.1970 C   0  0  0  0  0  0  0  0  0  0  0  0
  189.8510  176.8650  147.2970 C   0  0  0  0  0  3  0  0  0  0  0  0
  192.0700  176.9580  144.5770 O   0  0  0  0  0  0  0  0  0  0  0  0
  187.5450  177.8020  147.3120 C   0  0  0  0  0  2  0  0  0  0  0  0
  186.1890  177.8270  146.6200 C   0  0  0  0  0  2  0  0  0  0  0  0
  185.0460  179.6510  145.5930 O   0  0  0  0  0  0  0  0  0  0  0  0
  185.6320  179.2110  146.6150 C   0  0  0  0  0  0  0  0  0  0  0  0
  185.7920  180.0260  147.7270 O   0  0  0  0  0  1  0  0  0  0  0  0
  181.2440  178.9630  139.5930 C   0  0  0  0  0  2  0  0  0  0  0  0
  180.0940  178.1710  138.9610 C   0  0  1  0  0  3  0  0  0  0  0  0
  179.2460  177.3500  139.9550 C   0  0  1  0  0  3  0  0  0  0  0  0
  179.9630  176.0500  140.2690 C   0  0  0  0  0  1  0  0  0  0  0  0
  178.9310  178.0610  141.2660 C   0  0  0  0  0  2  0  0  0  0  0  0
  179.9940  177.7280  142.2990 C   0  0  0  0  0  2  0  0  0  0  0  0
  180.2930  178.9440  143.1620 C   0  0  1  0  0  3  0  0  0  0  0  0
  179.5590  178.8190  144.4830 C   0  0  0  0  0  1  0  0  0  0  0  0
  181.7990  179.1100  143.3720 C   0  0  0  0  0  3  0  0  0  0  0  0
  182.5260  178.3440  142.4570 O   0  0  0  0  0  1  0  0  0  0  0  0
  182.1470  178.7530  144.6690 O   0  0  0  0  0  1  0  0  0  0  0  0
  179.2320  179.1360  138.1380 C   0  0  1  0  0  3  0  0  0  0  0  0
  179.0050  180.9010  139.8840 O   0  0  0  0  0  1  0  0  0  0  0  0
  179.3640  180.5560  138.5880 C   0  0  0  0  0  0  0  0  0  0  0  0
  179.7900  181.4400  137.7970 O   0  0  0  0  0  0  0  0  0  0  0  0
  179.4910  179.0180  136.7690 O   0  0  0  0  0  0  0  0  0  0  0  0
  179.3580  177.6560  136.4950 C   0  0  0  0  0  2  0  0  0  0  0  0
  180.3050  177.2710  135.3800 C   0  0  0  0  0  1  0  0  0  0  0  0
  2  5  1  0  0  0  0
  2  6  1  1  0  0  0
  3  1  1  6  0  0  0
  3  7  1  0  0  0  0
  4  3  1  0  0  0  0
  4 41  1  1  0  0  0
  5  4  1  0  0  0  0
  6  7  1  0  0  0  0
  7 21  1  6  0  0  0
  8  2  1  0  0  0  0
  8 10  1  1  0  0  0
  9  8  1  0  0  0  0
 11 20  1  6  0  0  0
 11  9  1  0  0  0  0
 11  8  1  0  0  0  0
 12 20  1  0  0  0  0
 12 17  1  0  0  0  0
 13 14  2  0  0  0  0
 14 18  1  0  0  0  0
 15 17  1  0  0  0  0
 15 13  1  0  0  0  0
 16 14  1  0  0  0  0
 17 16  2  0  0  0  0
 19 20  2  0  0  0  0
 21 23  1  0  0  0  0
 23 25  1  0  0  0  0
 23 22  1  1  0  0  0
 24 23  1  0  0  0  0
 24 27  1  1  0  0  0
 24 25  1  0  0  0  0
 27 26  1  6  0  0  0
 27 28  1  0  0  0  0
 28 29  1  0  0  0  0
 29 32  2  0  0  0  0
 29 33  1  0  0  0  0
 30 34  1  0  0  0  0
 30 36  1  1  0  0  0
 31 34  2  0  0  0  0
 32 30  1  0  0  0  0
 33 31  1  0  0  0  0
 35 33  2  0  0  0  0
 37 36  1  0  0  0  0
 38 39  2  0  0  0  0
 39 37  1  0  0  0  0
 39 40  1  0  0  0  0
 42 41  1  1  0  0  0
 42 43  1  0  0  0  0
 43 44  1  1  0  0  0
 43 45  1  0  0  0  0
 45 46  1  0  0  0  0
 46 47  1  0  0  0  0
 47 49  1  0  0  0  0
 47 48  1  1  0  0  0
 49 51  1  0  0  0  0
 50 49  1  0  0  0  0
 52 56  1  6  0  0  0
 52 54  1  0  0  0  0
 52 42  1  0  0  0  0
 54 53  1  0  0  0  0
 55 54  2  0  0  0  0
 57 56  1  0  0  0  0
 58 57  1  0  0  0  0
M  END
>  <MODEL>
5

>  <REMARK>
 VINA RESULT:      -5.6      3.013      5.122
  Name = 
  21 active torsions:
  status: ('A' for Active; 'I' for Inactive)
    1  A    between atoms: C_2  and  C_32
    2  A    between atoms: C_2  and  C_34
    3  A    between atoms: C_3  and  N_54
    4  A    between atoms: C_5  and  C_10
    5  A    between atoms: C_6  and  C_48
    6  A    between atoms: C_7  and  C_9
    7  A    between atoms: C_7  and  C_32
    8  A    between atoms: C_7  and  O_53
    9  A    between atoms: C_8  and  C_20
   10  A    between atoms: C_8  and  C_58
   11  A    between atoms: C_13  and  O_53
   12  A    between atoms: C_17  and  C_35
   13  A    between atoms: C_17  and  C_58
   14  A    between atoms: C_21  and  C_23
   15  A    between atoms: C_21  and  C_48
   16  A    between atoms: C_24  and  C_29
   17  A    between atoms: C_24  and  C_44
   18  A    between atoms: C_32  and  C_35
   19  A    between atoms: C_39  and  C_55
   20  A    between atoms: C_49  and  C_56
   21  A    between atoms: N_54  and  C_55
                            x       y       z     vdW  Elec       q    Type
                         _______ _______ _______ _____ _____    ______ ____

>  <TORSDO>
F 21

$$$$
=
 OpenBabel11062418013D

 58 62  0  0  1  0  0  0  0  0999 V2000
  187.0600  179.2010  137.4840 O   0  0  0  0  0  1  0  0  0  0  0  0
  186.0690  176.0610  137.1020 C   0  0  1  0  0  3  0  0  0  0  0  0
  186.3600  178.4700  138.4440 C   0  0  1  0  0  3  0  0  0  0  0  0
  185.0480  177.9500  137.8250 C   0  0  1  0  0  3  0  0  0  0  0  0
  184.9580  176.5390  137.8130 O   0  0  0  0  0  0  0  0  0  0  0  0
  187.3360  176.1730  137.9600 C   0  0  0  0  0  2  0  0  0  0  0  0
  187.2190  177.3110  138.9760 C   0  0  1  0  0  3  0  0  0  0  0  0
  185.8450  174.6080  136.6880 C   0  0  2  0  0  0  0  0  0  0  0  0
  184.5910  174.1350  137.1010 O   0  0  0  0  0  0  0  0  0  0  0  0
  186.8450  173.6820  136.9830 O   0  0  0  0  0  1  0  0  0  0  0  0
  184.8160  174.1740  135.7060 C   0  0  1  0  0  3  0  0  0  0  0  0
  182.6140  175.3300  135.0580 N   0  0  0  0  0  2  0  0  0  0  0  0
  179.8490  172.8680  136.2130 C   0  0  0  0  0  3  0  0  0  0  0  0
  181.0970  172.5050  136.7180 C   0  0  0  0  0  0  0  0  0  0  0  0
  180.0910  174.2780  135.3190 S   0  0  0  0  0  0  0  0  0  0  0  0
  182.1390  173.3180  136.3920 N   0  0  0  0  0  0  0  0  0  0  0  0
  181.7390  174.3430  135.6130 C   0  0  0  0  0  0  0  0  0  0  0  0
  181.2890  171.2950  137.5590 C   0  0  0  0  0  1  0  0  0  0  0  0
  184.6760  176.2850  134.6200 O   0  0  0  0  0  0  0  0  0  0  0  0
  184.0460  175.3090  135.0940 C   0  0  0  0  0  0  0  0  0  0  0  0
  188.6060  177.7430  139.4450 C   0  0  0  0  0  2  0  0  0  0  0  0
  187.6690  177.7560  141.7620 O   0  0  0  0  0  1  0  0  0  0  0  0
  188.7970  177.6060  140.9530 C   0  0  1  0  0  0  0  0  0  0  0  0
  190.0000  176.8590  141.5180 C   0  0  1  0  0  3  0  0  0  0  0  0
  189.9840  178.3790  141.4770 C   0  0  0  0  0  2  0  0  0  0  0  0
  190.6490  175.3400  143.2320 O   0  0  0  0  0  1  0  0  0  0  0  0
  189.7550  176.3670  142.9350 C   0  0  1  0  0  3  0  0  0  0  0  0
  189.9490  177.4680  143.8680 N   0  0  0  0  0  2  0  0  0  0  0  0
  189.5760  177.4240  145.2510 C   0  0  0  0  0  0  0  0  0  0  0  0
  187.8720  177.4840  147.0700 C   0  0  1  0  0  3  0  0  0  0  0  0
  190.2570  177.3670  147.6670 N   0  0  0  0  0  0  0  0  0  0  0  0
  188.3030  177.5770  145.6290 C   0  0  0  0  0  3  0  0  0  0  0  0
  190.6120  177.2550  146.2860 C   0  0  0  0  0  0  0  0  0  0  0  0
  189.0230  177.5010  148.0480 C   0  0  0  0  0  3  0  0  0  0  0  0
  191.8090  177.0370  145.9630 O   0  0  0  0  0  0  0  0  0  0  0  0
  186.8910  178.6020  147.3850 C   0  0  0  0  0  2  0  0  0  0  0  0
  186.1340  179.0420  146.1400 C   0  0  0  0  0  2  0  0  0  0  0  0
  184.2330  178.1900  147.3030 O   0  0  0  0  0  1  0  0  0  0  0  0
  184.7100  178.6030  146.2150 C   0  0  0  0  0  0  0  0  0  0  0  0
  183.9200  178.6180  145.0740 O   0  0  0  0  0  0  0  0  0  0  0  0
  183.8510  178.5630  138.5450 C   0  0  0  0  0  2  0  0  0  0  0  0
  182.5210  178.0750  137.9580 C   0  0  1  0  0  3  0  0  0  0  0  0
  181.5860  177.3710  138.9630 C   0  0  1  0  0  3  0  0  0  0  0  0
  182.1620  176.0110  139.3110 C   0  0  0  0  0  1  0  0  0  0  0  0
  181.3390  178.1410  140.2550 C   0  0  0  0  0  2  0  0  0  0  0  0
  179.9540  177.8180  140.7880 C   0  0  0  0  0  2  0  0  0  0  0  0
  179.5890  178.7630  141.9220 C   0  0  1  0  0  3  0  0  0  0  0  0
  179.6890  178.0270  143.2450 C   0  0  0  0  0  1  0  0  0  0  0  0
  180.4760  180.0090  141.9050 C   0  0  0  0  0  3  0  0  0  0  0  0
  181.3180  180.0460  143.0190 O   0  0  0  0  0  1  0  0  0  0  0  0
  179.6930  181.1570  141.8680 O   0  0  0  0  0  1  0  0  0  0  0  0
  181.8300  179.2580  137.2700 C   0  0  1  0  0  3  0  0  0  0  0  0
  180.0540  179.2320  135.5200 O   0  0  0  0  0  1  0  0  0  0  0  0
  181.3580  178.9300  135.8890 C   0  0  0  0  0  0  0  0  0  0  0  0
  182.1310  178.3740  135.0640 O   0  0  0  0  0  0  0  0  0  0  0  0
  180.7860  179.7680  138.0470 O   0  0  0  0  0  0  0  0  0  0  0  0
  180.5250  181.0320  137.5130 C   0  0  0  0  0  2  0  0  0  0  0  0
  180.2000  181.9950  138.6320 C   0  0  0  0  0  1  0  0  0  0  0  0
  2  5  1  0  0  0  0
  2  6  1  1  0  0  0
  3  1  1  6  0  0  0
  3  7  1  0  0  0  0
  4  3  1  0  0  0  0
  4 41  1  1  0  0  0
  5  4  1  0  0  0  0
  6  7  1  0  0  0  0
  7 21  1  6  0  0  0
  8 10  1  1  0  0  0
  8  9  1  0  0  0  0
  8  2  1  0  0  0  0
 11 20  1  6  0  0  0
 11  8  1  0  0  0  0
 11  9  1  0  0  0  0
 12 20  1  0  0  0  0
 12 17  1  0  0  0  0
 13 14  2  0  0  0  0
 14 18  1  0  0  0  0
 15 17  1  0  0  0  0
 15 13  1  0  0  0  0
 16 14  1  0  0  0  0
 17 16  2  0  0  0  0
 19 20  2  0  0  0  0
 21 23  1  0  0  0  0
 23 25  1  0  0  0  0
 23 24  1  0  0  0  0
 23 22  1  1  0  0  0
 24 27  1  1  0  0  0
 25 24  1  0  0  0  0
 27 26  1  1  0  0  0
 27 28  1  0  0  0  0
 28 29  1  0  0  0  0
 29 32  2  0  0  0  0
 29 33  1  0  0  0  0
 30 36  1  1  0  0  0
 30 34  1  0  0  0  0
 31 34  2  0  0  0  0
 32 30  1  0  0  0  0
 33 31  1  0  0  0  0
 35 33  2  0  0  0  0
 37 39  1  0  0  0  0
 37 36  1  0  0  0  0
 39 38  1  0  0  0  0
 40 39  2  0  0  0  0
 42 41  1  1  0  0  0
 42 43  1  0  0  0  0
 43 44  1  1  0  0  0
 43 45  1  0  0  0  0
 45 46  1  0  0  0  0
 46 47  1  0  0  0  0
 47 48  1  1  0  0  0
 49 47  1  0  0  0  0
 49 50  1  0  0  0  0
 51 49  1  0  0  0  0
 52 54  1  6  0  0  0
 52 42  1  0  0  0  0
 52 56  1  0  0  0  0
 53 54  1  0  0  0  0
 55 54  2  0  0  0  0
 57 56  1  0  0  0  0
 57 58  1  0  0  0  0
M  END
>  <MODEL>
6

>  <REMARK>
 VINA RESULT:      -5.0      3.855      5.851
  Name = 
  21 active torsions:
  status: ('A' for Active; 'I' for Inactive)
    1  A    between atoms: C_2  and  C_32
    2  A    between atoms: C_2  and  C_34
    3  A    between atoms: C_3  and  N_54
    4  A    between atoms: C_5  and  C_10
    5  A    between atoms: C_6  and  C_48
    6  A    between atoms: C_7  and  C_9
    7  A    between atoms: C_7  and  C_32
    8  A    between atoms: C_7  and  O_53
    9  A    between atoms: C_8  and  C_20
   10  A    between atoms: C_8  and  C_58
   11  A    between atoms: C_13  and  O_53
   12  A    between atoms: C_17  and  C_35
   13  A    between atoms: C_17  and  C_58
   14  A    between atoms: C_21  and  C_23
   15  A    between atoms: C_21  and  C_48
   16  A    between atoms: C_24  and  C_29
   17  A    between atoms: C_24  and  C_44
   18  A    between atoms: C_32  and  C_35
   19  A    between atoms: C_39  and  C_55
   20  A    between atoms: C_49  and  C_56
   21  A    between atoms: N_54  and  C_55
                            x       y       z     vdW  Elec       q    Type
                         _______ _______ _______ _____ _____    ______ ____

>  <TORSDO>
F 21

$$$$
=
 OpenBabel11062418013D

 58 62  0  0  1  0  0  0  0  0999 V2000
  189.1850  175.8260  138.5060 O   0  0  0  0  0  1  0  0  0  0  0  0
  186.9950  178.0860  139.5460 C   0  0  1  0  0  3  0  0  0  0  0  0
  189.2330  177.1810  138.1820 C   0  0  1  0  0  3  0  0  0  0  0  0
  187.8990  177.5930  137.5280 C   0  0  1  0  0  3  0  0  0  0  0  0
  187.2070  178.5900  138.2540 O   0  0  0  0  0  0  0  0  0  0  0  0
  188.3000  178.1250  140.3500 C   0  0  0  0  0  2  0  0  0  0  0  0
  189.5200  178.0280  139.4330 C   0  0  1  0  0  3  0  0  0  0  0  0
  185.9170  178.9010  140.2580 C   0  0  2  0  0  0  0  0  0  0  0  0
  185.1980  179.7090  139.3660 O   0  0  0  0  0  0  0  0  0  0  0  0
  186.2850  179.6220  141.3940 O   0  0  0  0  0  1  0  0  0  0  0  0
  184.4570  178.7150  140.0430 C   0  0  1  0  0  3  0  0  0  0  0  0
  182.8540  176.9280  139.1250 N   0  0  0  0  0  2  0  0  0  0  0  0
  179.6750  177.2550  141.3220 C   0  0  0  0  0  3  0  0  0  0  0  0
  180.5470  178.3240  141.5260 C   0  0  0  0  0  0  0  0  0  0  0  0
  180.3930  176.2750  140.1510 S   0  0  0  0  0  0  0  0  0  0  0  0
  181.6890  178.3210  140.7840 N   0  0  0  0  0  0  0  0  0  0  0  0
  181.7490  177.2420  139.9780 C   0  0  0  0  0  0  0  0  0  0  0  0
  180.2580  179.4060  142.5030 C   0  0  0  0  0  1  0  0  0  0  0  0
  184.9710  177.2450  138.2450 O   0  0  0  0  0  0  0  0  0  0  0  0
  184.1220  177.5940  139.1010 C   0  0  0  0  0  0  0  0  0  0  0  0
  190.7380  177.5580  140.2240 C   0  0  0  0  0  2  0  0  0  0  0  0
  189.2080  176.5390  141.9170 O   0  0  0  0  0  1  0  0  0  0  0  0
  190.4120  177.2030  141.6710 C   0  0  1  0  0  0  0  0  0  0  0  0
  191.5190  177.1050  142.7150 C   0  0  1  0  0  3  0  0  0  0  0  0
  190.6400  178.3440  142.6330 C   0  0  0  0  0  2  0  0  0  0  0  0
  192.0020  175.1850  144.0380 O   0  0  0  0  0  1  0  0  0  0  0  0
  191.1110  176.2490  143.9040 C   0  0  1  0  0  3  0  0  0  0  0  0
  191.1350  177.0600  145.1130 N   0  0  0  0  0  2  0  0  0  0  0  0
  190.0240  177.2010  146.0070 C   0  0  0  0  0  0  0  0  0  0  0  0
  187.5780  177.3650  146.4650 C   0  0  1  0  0  3  0  0  0  0  0  0
  189.1650  177.6170  148.3300 N   0  0  0  0  0  0  0  0  0  0  0  0
  188.7700  177.2690  145.5480 C   0  0  0  0  0  3  0  0  0  0  0  0
  190.2590  177.3220  147.4570 C   0  0  0  0  0  0  0  0  0  0  0  0
  187.9410  177.6720  147.8990 C   0  0  0  0  0  3  0  0  0  0  0  0
  191.4190  177.1900  147.9300 O   0  0  0  0  0  0  0  0  0  0  0  0
  186.6030  178.4010  145.9310 C   0  0  0  0  0  2  0  0  0  0  0  0
  185.8020  177.8550  144.7570 C   0  0  0  0  0  2  0  0  0  0  0  0
  184.1100  179.3550  145.5170 O   0  0  0  0  0  1  0  0  0  0  0  0
  184.5380  178.6280  144.5840 C   0  0  0  0  0  0  0  0  0  0  0  0
  183.8150  178.5170  143.4050 O   0  0  0  0  0  0  0  0  0  0  0  0
  188.1370  178.0370  136.0890 C   0  0  0  0  0  2  0  0  0  0  0  0
  188.2550  176.8430  135.1340 C   0  0  1  0  0  3  0  0  0  0  0  0
  189.3650  175.8330  135.4910 C   0  0  1  0  0  3  0  0  0  0  0  0
  189.2370  174.6140  134.5950 C   0  0  0  0  0  1  0  0  0  0  0  0
  190.7840  176.3750  135.3760 C   0  0  0  0  0  2  0  0  0  0  0  0
  191.7810  175.2750  135.6980 C   0  0  0  0  0  2  0  0  0  0  0  0
  192.9580  175.8390  136.4810 C   0  0  1  0  0  3  0  0  0  0  0  0
  192.7010  175.6770  137.9670 C   0  0  0  0  0  1  0  0  0  0  0  0
  194.2670  175.1690  136.0620 C   0  0  0  0  0  3  0  0  0  0  0  0
  194.0700  173.8200  135.7550 O   0  0  0  0  0  1  0  0  0  0  0  0
  195.2140  175.2900  137.0730 O   0  0  0  0  0  1  0  0  0  0  0  0
  186.8820  176.1680  135.0280 C   0  0  1  0  0  3  0  0  0  0  0  0
  186.5740  175.1150  137.2670 O   0  0  0  0  0  1  0  0  0  0  0  0
  186.7640  174.9590  135.9010 C   0  0  0  0  0  0  0  0  0  0  0  0
  186.8430  173.8030  135.4050 O   0  0  0  0  0  0  0  0  0  0  0  0
  185.8440  177.0700  135.2800 O   0  0  0  0  0  0  0  0  0  0  0  0
  184.6740  176.3390  135.0610 C   0  0  0  0  0  2  0  0  0  0  0  0
  183.4780  177.2570  135.1700 C   0  0  0  0  0  1  0  0  0  0  0  0
  2  8  1  0  0  0  0
  2  6  1  1  0  0  0
  3  1  1  1  0  0  0
  3  7  1  0  0  0  0
  4 41  1  6  0  0  0
  4  3  1  0  0  0  0
  4  5  1  0  0  0  0
  5  2  1  0  0  0  0
  7 21  1  1  0  0  0
  7  6  1  0  0  0  0
  8 10  1  1  0  0  0
  9 11  1  0  0  0  0
  9  8  1  0  0  0  0
 11 20  1  6  0  0  0
 11  8  1  0  0  0  0
 12 17  1  0  0  0  0
 13 14  2  0  0  0  0
 14 18  1  0  0  0  0
 15 13  1  0  0  0  0
 16 14  1  0  0  0  0
 17 15  1  0  0  0  0
 17 16  2  0  0  0  0
 19 20  2  0  0  0  0
 20 12  1  0  0  0  0
 21 23  1  0  0  0  0
 23 22  1  1  0  0  0
 23 25  1  0  0  0  0
 23 24  1  0  0  0  0
 24 27  1  1  0  0  0
 25 24  1  0  0  0  0
 27 26  1  1  0  0  0
 27 28  1  0  0  0  0
 28 29  1  0  0  0  0
 29 33  1  0  0  0  0
 30 36  1  6  0  0  0
 30 34  1  0  0  0  0
 32 29  2  0  0  0  0
 32 30  1  0  0  0  0
 33 35  2  0  0  0  0
 33 31  1  0  0  0  0
 34 31  2  0  0  0  0
 37 36  1  0  0  0  0
 39 37  1  0  0  0  0
 39 38  1  0  0  0  0
 40 39  2  0  0  0  0
 42 43  1  0  0  0  0
 42 41  1  1  0  0  0
 43 44  1  6  0  0  0
 45 43  1  0  0  0  0
 45 46  1  0  0  0  0
 46 47  1  0  0  0  0
 47 48  1  1  0  0  0
 49 47  1  0  0  0  0
 49 51  1  0  0  0  0
 50 49  1  0  0  0  0
 52 42  1  0  0  0  0
 52 56  1  1  0  0  0
 52 54  1  0  0  0  0
 54 53  1  0  0  0  0
 55 54  2  0  0  0  0
 57 58  1  0  0  0  0
 57 56  1  0  0  0  0
M  END
>  <MODEL>
7

>  <REMARK>
 VINA RESULT:      -5.0      3.505      7.750
  Name = 
  21 active torsions:
  status: ('A' for Active; 'I' for Inactive)
    1  A    between atoms: C_2  and  C_32
    2  A    between atoms: C_2  and  C_34
    3  A    between atoms: C_3  and  N_54
    4  A    between atoms: C_5  and  C_10
    5  A    between atoms: C_6  and  C_48
    6  A    between atoms: C_7  and  C_9
    7  A    between atoms: C_7  and  C_32
    8  A    between atoms: C_7  and  O_53
    9  A    between atoms: C_8  and  C_20
   10  A    between atoms: C_8  and  C_58
   11  A    between atoms: C_13  and  O_53
   12  A    between atoms: C_17  and  C_35
   13  A    between atoms: C_17  and  C_58
   14  A    between atoms: C_21  and  C_23
   15  A    between atoms: C_21  and  C_48
   16  A    between atoms: C_24  and  C_29
   17  A    between atoms: C_24  and  C_44
   18  A    between atoms: C_32  and  C_35
   19  A    between atoms: C_39  and  C_55
   20  A    between atoms: C_49  and  C_56
   21  A    between atoms: N_54  and  C_55
                            x       y       z     vdW  Elec       q    Type
                         _______ _______ _______ _____ _____    ______ ____

>  <TORSDO>
F 21

$$$$
=
 OpenBabel11062418013D

 58 62  0  0  1  0  0  0  0  0999 V2000
  189.1040  178.9480  136.5940 O   0  0  0  0  0  1  0  0  0  0  0  0
  189.8090  175.7090  136.5930 C   0  0  1  0  0  3  0  0  0  0  0  0
  188.2590  177.9550  137.0880 C   0  0  1  0  0  3  0  0  0  0  0  0
  187.9940  176.9190  135.9780 C   0  0  1  0  0  3  0  0  0  0  0  0
  188.4370  175.6180  136.3120 O   0  0  0  0  0  0  0  0  0  0  0  0
  190.0270  176.3540  137.9670 C   0  0  0  0  0  2  0  0  0  0  0  0
  188.8730  177.2900  138.3310 C   0  0  1  0  0  3  0  0  0  0  0  0
  190.4470  174.3230  136.5580 C   0  0  2  0  0  0  0  0  0  0  0  0
  190.4930  173.8010  135.2570 O   0  0  0  0  0  0  0  0  0  0  0  0
  189.9830  173.3650  137.4600 O   0  0  0  0  0  1  0  0  0  0  0  0
  191.7400  174.0190  135.8860 C   0  0  1  0  0  3  0  0  0  0  0  0
  193.8070  175.4860  135.4650 N   0  0  0  0  0  2  0  0  0  0  0  0
  196.6690  173.7020  137.3810 C   0  0  0  0  0  3  0  0  0  0  0  0
  195.5320  172.8980  137.3000 C   0  0  0  0  0  0  0  0  0  0  0  0
  196.3000  175.1290  136.5590 S   0  0  0  0  0  0  0  0  0  0  0  0
  194.4720  173.4210  136.6240 N   0  0  0  0  0  0  0  0  0  0  0  0
  194.7430  174.6560  136.1600 C   0  0  0  0  0  0  0  0  0  0  0  0
  195.4710  171.5490  137.9200 C   0  0  0  0  0  1  0  0  0  0  0  0
  191.7290  176.0170  134.5960 O   0  0  0  0  0  0  0  0  0  0  0  0
  192.4100  175.2240  135.2910 C   0  0  0  0  0  0  0  0  0  0  0  0
  189.3180  178.2840  139.4010 C   0  0  0  0  0  2  0  0  0  0  0  0
  187.1410  178.6870  140.5600 O   0  0  0  0  0  1  0  0  0  0  0  0
  188.4580  178.2340  140.6600 C   0  0  1  0  0  0  0  0  0  0  0  0
  188.8160  177.2960  141.8070 C   0  0  1  0  0  3  0  0  0  0  0  0
  189.1570  178.7760  141.8830 C   0  0  0  0  0  2  0  0  0  0  0  0
  187.9590  175.9920  143.6050 O   0  0  0  0  0  1  0  0  0  0  0  0
  187.6180  176.9860  142.6900 C   0  0  1  0  0  3  0  0  0  0  0  0
  187.2190  178.1910  143.4030 N   0  0  0  0  0  2  0  0  0  0  0  0
  185.9920  178.3240  144.1320 C   0  0  0  0  0  0  0  0  0  0  0  0
  183.5020  178.3260  144.2620 C   0  0  1  0  0  3  0  0  0  0  0  0
  184.8060  178.8880  146.2720 N   0  0  0  0  0  0  0  0  0  0  0  0
  184.8090  178.2420  143.5160 C   0  0  0  0  0  3  0  0  0  0  0  0
  186.0250  178.6020  145.5790 C   0  0  0  0  0  0  0  0  0  0  0  0
  183.6500  178.7980  145.6890 C   0  0  0  0  0  3  0  0  0  0  0  0
  187.1190  178.6140  146.2040 O   0  0  0  0  0  0  0  0  0  0  0  0
  182.5350  179.2210  143.5040 C   0  0  0  0  0  2  0  0  0  0  0  0
  181.1800  178.5490  143.3300 C   0  0  0  0  0  2  0  0  0  0  0  0
  179.1880  179.1640  142.1710 O   0  0  0  0  0  0  0  0  0  0  0  0
  180.1630  179.5400  142.8720 C   0  0  0  0  0  0  0  0  0  0  0  0
  180.3110  180.8820  143.1890 O   0  0  0  0  0  1  0  0  0  0  0  0
  186.5130  176.9090  135.6130 C   0  0  0  0  0  2  0  0  0  0  0  0
  185.7280  175.8830  136.4380 C   0  0  1  0  0  3  0  0  0  0  0  0
  184.5240  176.4560  137.2130 C   0  0  1  0  0  3  0  0  0  0  0  0
  185.0190  177.4770  138.2210 C   0  0  0  0  0  1  0  0  0  0  0  0
  183.4550  177.1090  136.3440 C   0  0  0  0  0  2  0  0  0  0  0  0
  182.7600  178.2100  137.1260 C   0  0  0  0  0  2  0  0  0  0  0  0
  181.3380  177.7970  137.4730 C   0  0  1  0  0  3  0  0  0  0  0  0
  180.7740  176.9380  136.3570 C   0  0  0  0  0  1  0  0  0  0  0  0
  181.2910  177.0690  138.8170 C   0  0  0  0  0  3  0  0  0  0  0  0
  180.0590  176.4390  139.0090 O   0  0  0  0  0  1  0  0  0  0  0  0
  181.5320  177.9600  139.8560 O   0  0  0  0  0  1  0  0  0  0  0  0
  185.3160  174.7310  135.5150 C   0  0  1  0  0  3  0  0  0  0  0  0
  186.3880  173.2010  137.1670 O   0  0  0  0  0  1  0  0  0  0  0  0
  185.9970  173.4430  135.8570 C   0  0  0  0  0  0  0  0  0  0  0  0
  186.2270  172.5850  134.9640 O   0  0  0  0  0  0  0  0  0  0  0  0
  183.9270  174.5680  135.4840 O   0  0  0  0  0  0  0  0  0  0  0  0
  183.6880  173.3950  136.2020 C   0  0  0  0  0  2  0  0  0  0  0  0
  182.6010  173.6420  137.2240 C   0  0  0  0  0  1  0  0  0  0  0  0
  2  6  1  1  0  0  0
  3  1  1  6  0  0  0
  3  7  1  0  0  0  0
  4 41  1  1  0  0  0
  4  5  1  0  0  0  0
  4  3  1  0  0  0  0
  5  2  1  0  0  0  0
  6  7  1  0  0  0  0
  7 21  1  1  0  0  0
  8  2  1  0  0  0  0
  8 10  1  1  0  0  0
  9 11  1  0  0  0  0
  9  8  1  0  0  0  0
 11 20  1  6  0  0  0
 11  8  1  0  0  0  0
 12 17  1  0  0  0  0
 14 13  2  0  0  0  0
 14 18  1  0  0  0  0
 15 13  1  0  0  0  0
 16 14  1  0  0  0  0
 17 15  1  0  0  0  0
 17 16  2  0  0  0  0
 19 20  2  0  0  0  0
 20 12  1  0  0  0  0
 21 23  1  0  0  0  0
 23 22  1  6  0  0  0
 23 24  1  0  0  0  0
 23 25  1  0  0  0  0
 24 25  1  0  0  0  0
 24 27  1  1  0  0  0
 27 28  1  0  0  0  0
 27 26  1  1  0  0  0
 28 29  1  0  0  0  0
 29 33  1  0  0  0  0
 30 36  1  6  0  0  0
 30 34  1  0  0  0  0
 32 29  2  0  0  0  0
 32 30  1  0  0  0  0
 33 35  2  0  0  0  0
 33 31  1  0  0  0  0
 34 31  2  0  0  0  0
 37 36  1  0  0  0  0
 38 39  2  0  0  0  0
 39 40  1  0  0  0  0
 39 37  1  0  0  0  0
 42 41  1  6  0  0  0
 42 43  1  0  0  0  0
 43 44  1  1  0  0  0
 45 46  1  0  0  0  0
 45 43  1  0  0  0  0
 46 47  1  0  0  0  0
 47 48  1  6  0  0  0
 47 49  1  0  0  0  0
 49 50  1  0  0  0  0
 49 51  1  0  0  0  0
 52 56  1  1  0  0  0
 52 54  1  0  0  0  0
 52 42  1  0  0  0  0
 54 53  1  0  0  0  0
 55 54  2  0  0  0  0
 56 57  1  0  0  0  0
 57 58  1  0  0  0  0
M  END
>  <MODEL>
8

>  <REMARK>
 VINA RESULT:      -5.0      1.823      2.394
  Name = 
  21 active torsions:
  status: ('A' for Active; 'I' for Inactive)
    1  A    between atoms: C_2  and  C_32
    2  A    between atoms: C_2  and  C_34
    3  A    between atoms: C_3  and  N_54
    4  A    between atoms: C_5  and  C_10
    5  A    between atoms: C_6  and  C_48
    6  A    between atoms: C_7  and  C_9
    7  A    between atoms: C_7  and  C_32
    8  A    between atoms: C_7  and  O_53
    9  A    between atoms: C_8  and  C_20
   10  A    between atoms: C_8  and  C_58
   11  A    between atoms: C_13  and  O_53
   12  A    between atoms: C_17  and  C_35
   13  A    between atoms: C_17  and  C_58
   14  A    between atoms: C_21  and  C_23
   15  A    between atoms: C_21  and  C_48
   16  A    between atoms: C_24  and  C_29
   17  A    between atoms: C_24  and  C_44
   18  A    between atoms: C_32  and  C_35
   19  A    between atoms: C_39  and  C_55
   20  A    between atoms: C_49  and  C_56
   21  A    between atoms: N_54  and  C_55
                            x       y       z     vdW  Elec       q    Type
                         _______ _______ _______ _____ _____    ______ ____

>  <TORSDO>
F 21

$$$$
=
 OpenBabel11062418013D

 58 62  0  0  1  0  0  0  0  0999 V2000
  183.4980  177.4300  140.9480 O   0  0  0  0  0  1  0  0  0  0  0  0
  185.8750  178.1050  138.7390 C   0  0  1  0  0  3  0  0  0  0  0  0
  184.2390  178.6110  140.9200 C   0  0  1  0  0  3  0  0  0  0  0  0
  185.7400  178.2680  140.9950 C   0  0  1  0  0  3  0  0  0  0  0  0
  186.4680  178.7010  139.8620 O   0  0  0  0  0  0  0  0  0  0  0  0
  184.5510  178.8050  138.4050 C   0  0  0  0  0  2  0  0  0  0  0  0
  183.9190  179.4220  139.6540 C   0  0  1  0  0  3  0  0  0  0  0  0
  186.8210  178.1780  137.5430 C   0  0  2  0  0  0  0  0  0  0  0  0
  187.9560  177.3750  137.7250 O   0  0  0  0  0  0  0  0  0  0  0  0
  187.1790  179.4390  137.0660 O   0  0  0  0  0  1  0  0  0  0  0  0
  187.1140  177.0300  136.6440 C   0  0  1  0  0  3  0  0  0  0  0  0
  186.9090  174.4780  136.8780 N   0  0  0  0  0  2  0  0  0  0  0  0
  190.3680  173.1220  135.7660 C   0  0  0  0  0  3  0  0  0  0  0  0
  190.3950  174.5050  135.9380 C   0  0  0  0  0  0  0  0  0  0  0  0
  188.8040  172.6260  136.1580 S   0  0  0  0  0  0  0  0  0  0  0  0
  189.2350  175.0840  136.3520 N   0  0  0  0  0  0  0  0  0  0  0  0
  188.2570  174.1700  136.5110 C   0  0  0  0  0  0  0  0  0  0  0  0
  191.6160  175.3120  135.6770 C   0  0  0  0  0  1  0  0  0  0  0  0
  185.1530  175.9010  137.3760 O   0  0  0  0  0  0  0  0  0  0  0  0
  186.3370  175.7880  136.9760 C   0  0  0  0  0  0  0  0  0  0  0  0
  182.4250  179.6470  139.4320 C   0  0  0  0  0  2  0  0  0  0  0  0
  182.7640  178.2650  137.3770 O   0  0  0  0  0  1  0  0  0  0  0  0
  181.9420  179.1550  138.0710 C   0  0  1  0  0  0  0  0  0  0  0  0
  180.4610  179.2080  137.7090 C   0  0  1  0  0  3  0  0  0  0  0  0
  181.4230  180.2630  137.1850 C   0  0  0  0  0  2  0  0  0  0  0  0
  180.6480  178.6640  135.3980 O   0  0  0  0  0  1  0  0  0  0  0  0
  180.1070  178.2240  136.6050 C   0  0  1  0  0  3  0  0  0  0  0  0
  180.6490  176.9140  136.9340 N   0  0  0  0  0  2  0  0  0  0  0  0
  180.1230  176.0610  137.9580 C   0  0  0  0  0  0  0  0  0  0  0  0
  178.9310  175.6960  140.1170 C   0  0  1  0  0  3  0  0  0  0  0  0
  179.8770  173.7580  138.9300 N   0  0  0  0  0  0  0  0  0  0  0  0
  179.5390  176.5660  139.0490 C   0  0  0  0  0  3  0  0  0  0  0  0
  180.2640  174.5980  137.8380 C   0  0  0  0  0  0  0  0  0  0  0  0
  179.2970  174.2360  139.9890 C   0  0  0  0  0  3  0  0  0  0  0  0
  180.7420  174.0850  136.7920 O   0  0  0  0  0  0  0  0  0  0  0  0
  179.3170  176.2210  141.4890 C   0  0  0  0  0  2  0  0  0  0  0  0
  180.1020  177.5210  141.3840 C   0  0  0  0  0  2  0  0  0  0  0  0
  179.6800  177.7220  143.7230 O   0  0  0  0  0  1  0  0  0  0  0  0
  179.9910  178.3010  142.6510 C   0  0  0  0  0  0  0  0  0  0  0  0
  180.1970  179.6740  142.6390 O   0  0  0  0  0  0  0  0  0  0  0  0
  186.3430  178.8340  142.2760 C   0  0  0  0  0  2  0  0  0  0  0  0
  186.1180  177.9040  143.4730 C   0  0  1  0  0  3  0  0  0  0  0  0
  187.3840  177.1850  143.9850 C   0  0  1  0  0  3  0  0  0  0  0  0
  188.0060  176.3980  142.8460 C   0  0  0  0  0  1  0  0  0  0  0  0
  188.4460  178.1030  144.5780 C   0  0  0  0  0  2  0  0  0  0  0  0
  189.8150  177.4600  144.4420 C   0  0  0  0  0  2  0  0  0  0  0  0
  190.6940  178.2770  143.5070 C   0  0  1  0  0  3  0  0  0  0  0  0
  191.4100  179.3540  144.3000 C   0  0  0  0  0  1  0  0  0  0  0  0
  191.6820  177.3810  142.7600 C   0  0  0  0  0  3  0  0  0  0  0  0
  191.4420  177.3990  141.3840 O   0  0  0  0  0  1  0  0  0  0  0  0
  191.6060  176.0770  143.2360 O   0  0  0  0  0  1  0  0  0  0  0  0
  185.4270  178.7010  144.5850 C   0  0  1  0  0  3  0  0  0  0  0  0
  183.7630  180.4520  143.9680 O   0  0  0  0  0  0  0  0  0  0  0  0
  184.0360  179.1140  144.2220 C   0  0  0  0  0  0  0  0  0  0  0  0
  183.1120  178.2600  144.1540 O   0  0  0  0  0  1  0  0  0  0  0  0
  185.4420  178.0090  145.8000 O   0  0  0  0  0  0  0  0  0  0  0  0
  185.6880  178.9870  146.7660 C   0  0  0  0  0  2  0  0  0  0  0  0
  186.7540  178.4970  147.7200 C   0  0  0  0  0  1  0  0  0  0  0  0
  2  6  1  6  0  0  0
  2  5  1  0  0  0  0
  3  1  1  6  0  0  0
  3  4  1  0  0  0  0
  4 41  1  1  0  0  0
  5  4  1  0  0  0  0
  6  7  1  0  0  0  0
  7 21  1  6  0  0  0
  7  3  1  0  0  0  0
  8 10  1  6  0  0  0
  8  9  1  0  0  0  0
  8  2  1  0  0  0  0
 11 20  1  1  0  0  0
 11  8  1  0  0  0  0
 11  9  1  0  0  0  0
 12 20  1  0  0  0  0
 13 14  2  0  0  0  0
 13 15  1  0  0  0  0
 14 16  1  0  0  0  0
 15 17  1  0  0  0  0
 16 17  2  0  0  0  0
 17 12  1  0  0  0  0
 18 14  1  0  0  0  0
 20 19  2  0  0  0  0
 23 22  1  6  0  0  0
 23 21  1  0  0  0  0
 24 27  1  6  0  0  0
 24 23  1  0  0  0  0
 25 24  1  0  0  0  0
 25 23  1  0  0  0  0
 27 26  1  6  0  0  0
 27 28  1  0  0  0  0
 28 29  1  0  0  0  0
 29 32  2  0  0  0  0
 30 36  1  1  0  0  0
 31 34  2  0  0  0  0
 32 30  1  0  0  0  0
 33 29  1  0  0  0  0
 33 31  1  0  0  0  0
 34 30  1  0  0  0  0
 35 33  2  0  0  0  0
 37 36  1  0  0  0  0
 37 39  1  0  0  0  0
 39 38  1  0  0  0  0
 40 39  2  0  0  0  0
 42 41  1  6  0  0  0
 42 43  1  0  0  0  0
 42 52  1  0  0  0  0
 43 44  1  6  0  0  0
 43 45  1  0  0  0  0
 46 45  1  0  0  0  0
 47 48  1  1  0  0  0
 47 46  1  0  0  0  0
 49 51  1  0  0  0  0
 49 47  1  0  0  0  0
 50 49  1  0  0  0  0
 52 54  1  6  0  0  0
 52 56  1  0  0  0  0
 53 54  2  0  0  0  0
 55 54  1  0  0  0  0
 56 57  1  0  0  0  0
 57 58  1  0  0  0  0
M  END
>  <MODEL>
9

>  <REMARK>
 VINA RESULT:      -4.9      3.395      8.640
  Name = 
  21 active torsions:
  status: ('A' for Active; 'I' for Inactive)
    1  A    between atoms: C_2  and  C_32
    2  A    between atoms: C_2  and  C_34
    3  A    between atoms: C_3  and  N_54
    4  A    between atoms: C_5  and  C_10
    5  A    between atoms: C_6  and  C_48
    6  A    between atoms: C_7  and  C_9
    7  A    between atoms: C_7  and  C_32
    8  A    between atoms: C_7  and  O_53
    9  A    between atoms: C_8  and  C_20
   10  A    between atoms: C_8  and  C_58
   11  A    between atoms: C_13  and  O_53
   12  A    between atoms: C_17  and  C_35
   13  A    between atoms: C_17  and  C_58
   14  A    between atoms: C_21  and  C_23
   15  A    between atoms: C_21  and  C_48
   16  A    between atoms: C_24  and  C_29
   17  A    between atoms: C_24  and  C_44
   18  A    between atoms: C_32  and  C_35
   19  A    between atoms: C_39  and  C_55
   20  A    between atoms: C_49  and  C_56
   21  A    between atoms: N_54  and  C_55
                            x       y       z     vdW  Elec       q    Type
                         _______ _______ _______ _____ _____    ______ ____

>  <TORSDO>
F 21

$$$$
