=
 OpenBabel11062413033D

 38 41  0  0  1  0  0  0  0  0999 V2000
  189.8380  177.1450  141.3740 C   0  0  0  0  0  0  0  0  0  0  0  0
  192.2510  177.0320  141.7590 O   0  0  0  0  0  1  0  0  0  0  0  0
  188.7860  177.3310  140.4620 C   0  0  0  0  0  3  0  0  0  0  0  0
  190.3600  177.5910  138.6470 C   0  0  0  0  0  3  0  0  0  0  0  0
  191.4180  177.4110  139.5410 C   0  0  0  0  0  3  0  0  0  0  0  0
  191.1690  177.1950  140.9000 C   0  0  0  0  0  0  0  0  0  0  0  0
  189.0390  177.5580  139.1090 C   0  0  0  0  0  0  0  0  0  0  0  0
  185.8200  176.4240  135.0800 C   0  0  0  0  0  1  0  0  0  0  0  0
  187.8830  177.7150  138.1760 C   0  0  2  0  0  3  0  0  0  0  0  0
  186.6980  178.2850  138.8920 C   0  0  0  0  0  3  0  0  0  0  0  0
  185.2710  177.7280  137.0290 N   0  0  0  0  0  0  0  0  0  0  0  0
  187.4410  176.1320  137.3890 S   0  0  0  0  0  0  0  0  0  0  0  0
  185.4840  178.3010  138.3300 C   0  0  0  0  0  0  0  0  0  0  0  0
  186.0730  176.8640  136.4750 C   0  0  0  0  0  0  0  0  0  0  0  0
  182.7120  176.9060  140.0630 C   0  0  0  0  0  2  0  0  0  0  0  0
  183.3550  178.1980  139.6820 N   0  0  0  0  0  0  0  0  0  0  0  0
  184.3620  178.9650  139.0170 C   0  0  0  0  0  0  0  0  0  0  0  0
  180.9650  178.3870  139.6990 N   0  0  0  0  0  1  0  0  0  0  0  0
  182.1240  178.0690  140.5140 C   0  0  1  0  0  3  0  0  0  0  0  0
  184.2920  180.2230  139.0350 O   0  0  0  0  0  0  0  0  0  0  0  0
  189.5060  176.9440  142.8000 C   0  0  0  0  0  0  0  0  0  0  0  0
  189.7490  177.9960  143.7370 N   0  0  0  0  0  2  0  0  0  0  0  0
  189.0420  175.8440  143.2070 O   0  0  0  0  0  0  0  0  0  0  0  0
  189.7640  177.7780  145.1770 C   0  0  2  0  0  3  0  0  0  0  0  0
  191.0850  177.1610  145.6310 C   0  0  0  0  0  2  0  0  0  0  0  0
  191.0420  176.7980  147.0390 N   0  0  0  0  0  2  0  0  0  0  0  0
  192.8380  176.1780  148.3760 O   0  0  0  0  0  1  0  0  0  0  0  0
  192.1010  175.8270  147.2490 C   0  0  0  0  0  2  0  0  0  0  0  0
  188.5330  176.9860  145.6400 C   0  0  0  0  0  2  0  0  0  0  0  0
  187.5310  178.3180  147.3330 O   0  0  0  0  0  0  0  0  0  0  0  0
  187.4250  177.8520  146.1680 C   0  0  0  0  0  0  0  0  0  0  0  0
  183.8730  178.8030  145.1820 C   0  0  0  0  0  3  0  0  0  0  0  0
  185.1450  178.2890  143.1880 C   0  0  0  0  0  3  0  0  0  0  0  0
  186.2670  178.0160  143.9760 C   0  0  0  0  0  3  0  0  0  0  0  0
  183.9490  178.6870  143.7900 C   0  0  0  0  0  3  0  0  0  0  0  0
  186.2090  178.1410  145.3740 C   0  0  0  0  0  0  0  0  0  0  0  0
  184.9930  178.5280  145.9760 C   0  0  0  0  0  0  0  0  0  0  0  0
  184.8730  178.6260  147.3220 F   0  0  0  0  0  0  0  0  0  0  0  0
  1 21  1  0  0  0  0
  3  1  2  0  0  0  0
  4  7  2  0  0  0  0
  4  5  1  0  0  0  0
  5  6  2  0  0  0  0
  6  1  1  0  0  0  0
  6  2  1  0  0  0  0
  7  3  1  0  0  0  0
  8 14  1  0  0  0  0
  9 10  1  0  0  0  0
  9  7  1  1  0  0  0
 11 13  1  0  0  0  0
 12  9  1  0  0  0  0
 13 10  2  0  0  0  0
 13 17  1  0  0  0  0
 14 11  2  0  0  0  0
 14 12  1  0  0  0  0
 15 19  1  0  0  0  0
 16 15  1  0  0  0  0
 16 19  1  0  0  0  0
 17 20  2  0  0  0  0
 17 16  1  0  0  0  0
 19 18  1  6  0  0  0
 21 23  2  0  0  0  0
 21 22  1  0  0  0  0
 22 24  1  0  0  0  0
 24 25  1  6  0  0  0
 24 29  1  0  0  0  0
 25 26  1  0  0  0  0
 26 28  1  0  0  0  0
 28 27  1  0  0  0  0
 29 31  1  0  0  0  0
 31 30  2  0  0  0  0
 32 37  1  0  0  0  0
 33 35  1  0  0  0  0
 33 34  2  0  0  0  0
 34 36  1  0  0  0  0
 35 32  2  0  0  0  0
 36 37  2  0  0  0  0
 36 31  1  0  0  0  0
 37 38  1  0  0  0  0
M  END
>  <MODEL>
1

>  <REMARK>
 VINA RESULT:      -9.5      0.000      0.000
  Name = 
  10 active torsions:
  status: ('A' for Active; 'I' for Inactive)
    1  A    between atoms: C_3  and  C_34
    2  A    between atoms: N_8  and  C_12
    3  A    between atoms: N_8  and  C_17
    4  A    between atoms: C_9  and  C_11
    5  A    between atoms: C_10  and  C_17
    6  A    between atoms: C_10  and  N_22
    7  A    between atoms: C_10  and  C_23
    8  A    between atoms: C_16  and  C_23
    9  A    between atoms: C_16  and  C_30
   10  A    between atoms: C_21  and  C_37
                            x       y       z     vdW  Elec       q    Type
                         _______ _______ _______ _____ _____    ______ ____

>  <TORSDO>
F 10

$$$$
=
 OpenBabel11062413033D

 38 41  0  0  1  0  0  0  0  0999 V2000
  190.3990  177.0170  139.3920 C   0  0  0  0  0  0  0  0  0  0  0  0
  192.6870  176.4160  138.7690 O   0  0  0  0  0  1  0  0  0  0  0  0
  189.0840  177.2850  138.9780 C   0  0  0  0  0  3  0  0  0  0  0  0
  189.6880  176.8650  136.6760 C   0  0  0  0  0  3  0  0  0  0  0  0
  191.0010  176.5980  137.0710 C   0  0  0  0  0  3  0  0  0  0  0  0
  191.3650  176.6770  138.4180 C   0  0  0  0  0  0  0  0  0  0  0  0
  188.7260  177.2170  137.6310 C   0  0  0  0  0  0  0  0  0  0  0  0
  184.1200  176.4940  135.1530 C   0  0  0  0  0  1  0  0  0  0  0  0
  187.3070  177.4780  137.2480 C   0  0  2  0  0  3  0  0  0  0  0  0
  186.5340  178.0180  138.4120 C   0  0  0  0  0  3  0  0  0  0  0  0
  184.4590  177.6490  137.2390 N   0  0  0  0  0  0  0  0  0  0  0  0
  186.5030  175.9760  136.6020 S   0  0  0  0  0  0  0  0  0  0  0  0
  185.2000  178.1090  138.3830 C   0  0  0  0  0  0  0  0  0  0  0  0
  184.9280  176.8130  136.3570 C   0  0  0  0  0  0  0  0  0  0  0  0
  182.0410  177.3240  139.8100 C   0  0  0  0  0  2  0  0  0  0  0  0
  183.2120  178.2400  139.9320 N   0  0  0  0  0  0  0  0  0  0  0  0
  184.4800  178.7420  139.5010 C   0  0  0  0  0  0  0  0  0  0  0  0
  181.1710  179.3580  140.5040 N   0  0  0  0  0  1  0  0  0  0  0  0
  182.0300  178.2390  140.8420 C   0  0  1  0  0  3  0  0  0  0  0  0
  184.9880  179.7300  140.0970 O   0  0  0  0  0  0  0  0  0  0  0  0
  190.7230  177.1410  140.8300 C   0  0  0  0  0  0  0  0  0  0  0  0
  189.9240  176.4540  141.7960 N   0  0  0  0  0  2  0  0  0  0  0  0
  191.6760  177.8720  141.2160 O   0  0  0  0  0  0  0  0  0  0  0  0
  189.9630  176.7730  143.2170 C   0  0  2  0  0  3  0  0  0  0  0  0
  191.1630  176.1220  143.8990 C   0  0  0  0  0  2  0  0  0  0  0  0
  191.6920  176.9680  144.9570 N   0  0  0  0  0  2  0  0  0  0  0  0
  191.8960  176.9030  147.2710 O   0  0  0  0  0  1  0  0  0  0  0  0
  191.8610  176.1180  146.1220 C   0  0  0  0  0  2  0  0  0  0  0  0
  188.6270  176.4530  143.9030 C   0  0  0  0  0  2  0  0  0  0  0  0
  188.8600  178.1880  145.5080 O   0  0  0  0  0  0  0  0  0  0  0  0
  188.0830  177.5900  144.7190 C   0  0  0  0  0  0  0  0  0  0  0  0
  184.6420  178.5350  143.3900 C   0  0  0  0  0  3  0  0  0  0  0  0
  184.6190  178.6310  145.8090 C   0  0  0  0  0  3  0  0  0  0  0  0
  185.9640  178.2510  145.8360 C   0  0  0  0  0  3  0  0  0  0  0  0
  183.9560  178.7690  144.5870 C   0  0  0  0  0  3  0  0  0  0  0  0
  186.6630  178.0010  144.6430 C   0  0  0  0  0  0  0  0  0  0  0  0
  185.9900  178.1570  143.4110 C   0  0  0  0  0  0  0  0  0  0  0  0
  186.6280  177.9650  142.2310 F   0  0  0  0  0  0  0  0  0  0  0  0
  1 21  1  0  0  0  0
  3  1  1  0  0  0  0
  4  5  2  0  0  0  0
  4  7  1  0  0  0  0
  5  6  1  0  0  0  0
  6  2  1  0  0  0  0
  6  1  2  0  0  0  0
  7  3  2  0  0  0  0
  8 14  1  0  0  0  0
  9  7  1  1  0  0  0
  9 10  1  0  0  0  0
 11 13  1  0  0  0  0
 12  9  1  0  0  0  0
 13 10  2  0  0  0  0
 13 17  1  0  0  0  0
 14 12  1  0  0  0  0
 14 11  2  0  0  0  0
 15 16  1  0  0  0  0
 15 19  1  0  0  0  0
 16 19  1  0  0  0  0
 17 16  1  0  0  0  0
 17 20  2  0  0  0  0
 19 18  1  6  0  0  0
 21 23  2  0  0  0  0
 21 22  1  0  0  0  0
 22 24  1  0  0  0  0
 24 25  1  1  0  0  0
 24 29  1  0  0  0  0
 25 26  1  0  0  0  0
 26 28  1  0  0  0  0
 28 27  1  0  0  0  0
 29 31  1  0  0  0  0
 31 30  2  0  0  0  0
 32 37  2  0  0  0  0
 32 35  1  0  0  0  0
 33 34  1  0  0  0  0
 35 33  2  0  0  0  0
 36 31  1  0  0  0  0
 36 34  2  0  0  0  0
 37 36  1  0  0  0  0
 38 37  1  0  0  0  0
M  END
>  <MODEL>
2

>  <REMARK>
 VINA RESULT:      -9.3      1.594      2.041
  Name = 
  10 active torsions:
  status: ('A' for Active; 'I' for Inactive)
    1  A    between atoms: C_3  and  C_34
    2  A    between atoms: N_8  and  C_12
    3  A    between atoms: N_8  and  C_17
    4  A    between atoms: C_9  and  C_11
    5  A    between atoms: C_10  and  C_17
    6  A    between atoms: C_10  and  N_22
    7  A    between atoms: C_10  and  C_23
    8  A    between atoms: C_16  and  C_23
    9  A    between atoms: C_16  and  C_30
   10  A    between atoms: C_21  and  C_37
                            x       y       z     vdW  Elec       q    Type
                         _______ _______ _______ _____ _____    ______ ____

>  <TORSDO>
F 10

$$$$
=
 OpenBabel11062413033D

 38 41  0  0  1  0  0  0  0  0999 V2000
  190.6870  176.9230  138.9990 C   0  0  0  0  0  0  0  0  0  0  0  0
  192.8780  176.2050  138.1820 O   0  0  0  0  0  1  0  0  0  0  0  0
  189.3400  177.1930  138.7110 C   0  0  0  0  0  3  0  0  0  0  0  0
  189.6720  176.5630  136.4020 C   0  0  0  0  0  3  0  0  0  0  0  0
  191.0160  176.2920  136.6710 C   0  0  0  0  0  3  0  0  0  0  0  0
  191.5310  176.4740  137.9580 C   0  0  0  0  0  0  0  0  0  0  0  0
  188.8310  177.0210  137.4230 C   0  0  0  0  0  0  0  0  0  0  0  0
  183.9030  176.1080  135.7620 C   0  0  0  0  0  1  0  0  0  0  0  0
  187.3820  177.2900  137.1780 C   0  0  2  0  0  3  0  0  0  0  0  0
  186.7990  178.1050  138.2910 C   0  0  0  0  0  3  0  0  0  0  0  0
  184.5690  177.6400  137.4970 N   0  0  0  0  0  0  0  0  0  0  0  0
  186.4420  175.7430  136.9700 S   0  0  0  0  0  0  0  0  0  0  0  0
  185.4780  178.2740  138.4140 C   0  0  0  0  0  0  0  0  0  0  0  0
  184.8810  176.6130  136.7580 C   0  0  0  0  0  0  0  0  0  0  0  0
  185.8660  178.1640  141.9450 C   0  0  0  0  0  2  0  0  0  0  0  0
  185.2500  178.9490  140.8350 N   0  0  0  0  0  0  0  0  0  0  0  0
  184.9420  179.1670  139.4560 C   0  0  0  0  0  0  0  0  0  0  0  0
  183.8740  178.9890  142.7970 N   0  0  0  0  0  1  0  0  0  0  0  0
  185.1890  179.3180  142.2790 C   0  0  1  0  0  3  0  0  0  0  0  0
  184.2160  180.1450  139.1330 O   0  0  0  0  0  0  0  0  0  0  0  0
  191.1740  177.1590  140.3760 C   0  0  0  0  0  0  0  0  0  0  0  0
  190.4010  176.6980  141.4870 N   0  0  0  0  0  2  0  0  0  0  0  0
  192.2460  177.7900  140.5820 O   0  0  0  0  0  0  0  0  0  0  0  0
  190.6280  177.1640  142.8480 C   0  0  2  0  0  3  0  0  0  0  0  0
  191.0290  176.0130  143.7680 C   0  0  0  0  0  2  0  0  0  0  0  0
  191.8950  176.4720  144.8420 N   0  0  0  0  0  2  0  0  0  0  0  0
  192.4040  175.8630  147.0260 O   0  0  0  0  0  1  0  0  0  0  0  0
  192.0030  175.3740  145.7850 C   0  0  0  0  0  2  0  0  0  0  0  0
  189.4340  177.9730  143.3740 C   0  0  0  0  0  2  0  0  0  0  0  0
  187.9370  176.1660  143.7490 O   0  0  0  0  0  0  0  0  0  0  0  0
  188.5040  177.1760  144.2440 C   0  0  0  0  0  0  0  0  0  0  0  0
  186.6910  178.2580  147.4120 C   0  0  0  0  0  3  0  0  0  0  0  0
  189.0380  177.9360  147.9050 C   0  0  0  0  0  3  0  0  0  0  0  0
  189.2700  177.5870  146.5720 C   0  0  0  0  0  3  0  0  0  0  0  0
  187.7490  178.2680  148.3270 C   0  0  0  0  0  3  0  0  0  0  0  0
  188.2150  177.5610  145.6430 C   0  0  0  0  0  0  0  0  0  0  0  0
  186.9170  177.9120  146.0740 C   0  0  0  0  0  0  0  0  0  0  0  0
  185.8730  177.9400  145.2110 F   0  0  0  0  0  0  0  0  0  0  0  0
  1 21  1  0  0  0  0
  3  1  1  0  0  0  0
  4  5  2  0  0  0  0
  4  7  1  0  0  0  0
  5  6  1  0  0  0  0
  6  2  1  0  0  0  0
  6  1  2  0  0  0  0
  7  3  2  0  0  0  0
  8 14  1  0  0  0  0
  9  7  1  1  0  0  0
  9 10  1  0  0  0  0
 10 13  2  0  0  0  0
 11 13  1  0  0  0  0
 12  9  1  0  0  0  0
 13 17  1  0  0  0  0
 14 12  1  0  0  0  0
 14 11  2  0  0  0  0
 15 19  1  0  0  0  0
 16 15  1  0  0  0  0
 16 19  1  0  0  0  0
 17 16  1  0  0  0  0
 19 18  1  1  0  0  0
 20 17  2  0  0  0  0
 21 23  2  0  0  0  0
 21 22  1  0  0  0  0
 22 24  1  0  0  0  0
 24 29  1  1  0  0  0
 24 25  1  0  0  0  0
 25 26  1  0  0  0  0
 26 28  1  0  0  0  0
 28 27  1  0  0  0  0
 29 31  1  0  0  0  0
 30 31  2  0  0  0  0
 31 36  1  0  0  0  0
 32 35  1  0  0  0  0
 33 35  2  0  0  0  0
 34 33  1  0  0  0  0
 36 37  1  0  0  0  0
 36 34  2  0  0  0  0
 37 32  2  0  0  0  0
 38 37  1  0  0  0  0
M  END
>  <MODEL>
3

>  <REMARK>
 VINA RESULT:      -9.3      1.929      2.903
  Name = 
  10 active torsions:
  status: ('A' for Active; 'I' for Inactive)
    1  A    between atoms: C_3  and  C_34
    2  A    between atoms: N_8  and  C_12
    3  A    between atoms: N_8  and  C_17
    4  A    between atoms: C_9  and  C_11
    5  A    between atoms: C_10  and  C_17
    6  A    between atoms: C_10  and  N_22
    7  A    between atoms: C_10  and  C_23
    8  A    between atoms: C_16  and  C_23
    9  A    between atoms: C_16  and  C_30
   10  A    between atoms: C_21  and  C_37
                            x       y       z     vdW  Elec       q    Type
                         _______ _______ _______ _____ _____    ______ ____

>  <TORSDO>
F 10

$$$$
=
 OpenBabel11062413033D

 38 41  0  0  1  0  0  0  0  0999 V2000
  183.5860  178.9030  141.2330 C   0  0  0  0  0  0  0  0  0  0  0  0
  181.1640  179.0190  140.9130 O   0  0  0  0  0  1  0  0  0  0  0  0
  184.6650  178.8280  142.1280 C   0  0  0  0  0  3  0  0  0  0  0  0
  183.1480  178.7910  144.0090 C   0  0  0  0  0  3  0  0  0  0  0  0
  182.0630  178.8680  143.1320 C   0  0  0  0  0  3  0  0  0  0  0  0
  182.2710  178.9310  141.7510 C   0  0  0  0  0  0  0  0  0  0  0  0
  184.4550  178.7770  143.5070 C   0  0  0  0  0  0  0  0  0  0  0  0
  187.1160  178.5210  148.0590 C   0  0  0  0  0  1  0  0  0  0  0  0
  185.6370  178.6630  144.4130 C   0  0  2  0  0  3  0  0  0  0  0  0
  186.6780  177.7680  143.8150 C   0  0  0  0  0  3  0  0  0  0  0  0
  187.8430  177.6730  145.9250 N   0  0  0  0  0  0  0  0  0  0  0  0
  185.1570  178.0580  146.0630 S   0  0  0  0  0  0  0  0  0  0  0  0
  187.7170  177.3290  144.5350 C   0  0  0  0  0  0  0  0  0  0  0  0
  186.8530  178.0820  146.6660 C   0  0  0  0  0  0  0  0  0  0  0  0
  191.2490  177.5080  144.8940 C   0  0  0  0  0  2  0  0  0  0  0  0
  190.1540  176.7640  144.2050 N   0  0  0  0  0  0  0  0  0  0  0  0
  188.7790  176.5370  143.8890 C   0  0  0  0  0  0  0  0  0  0  0  0
  192.0960  176.9440  142.8110 N   0  0  0  0  0  1  0  0  0  0  0  0
  191.6080  176.4510  144.0860 C   0  0  1  0  0  3  0  0  0  0  0  0
  188.4750  175.6390  143.0590 O   0  0  0  0  0  0  0  0  0  0  0  0
  183.8760  178.9890  139.7860 C   0  0  0  0  0  0  0  0  0  0  0  0
  183.7930  177.8120  138.9780 N   0  0  0  0  0  2  0  0  0  0  0  0
  184.2270  180.0810  139.2620 O   0  0  0  0  0  0  0  0  0  0  0  0
  184.3680  177.7350  137.6410 C   0  0  2  0  0  3  0  0  0  0  0  0
  183.3760  177.1400  136.6440 C   0  0  0  0  0  2  0  0  0  0  0  0
  182.0030  177.3590  137.0700 N   0  0  0  0  0  2  0  0  0  0  0  0
  181.2120  179.5310  137.3100 O   0  0  0  0  0  1  0  0  0  0  0  0
  181.5390  178.5490  136.3790 C   0  0  0  0  0  2  0  0  0  0  0  0
  185.7240  177.0160  137.6510 C   0  0  0  0  0  2  0  0  0  0  0  0
  186.8190  179.0680  137.1700 O   0  0  0  0  0  0  0  0  0  0  0  0
  186.8980  177.9480  137.7400 C   0  0  0  0  0  0  0  0  0  0  0  0
  189.5800  177.5540  140.4140 C   0  0  0  0  0  3  0  0  0  0  0  0
  190.3080  176.4550  138.3840 C   0  0  0  0  0  3  0  0  0  0  0  0
  189.1210  176.8370  137.7530 C   0  0  0  0  0  3  0  0  0  0  0  0
  190.5360  176.8100  139.7160 C   0  0  0  0  0  3  0  0  0  0  0  0
  188.1450  177.5740  138.4450 C   0  0  0  0  0  0  0  0  0  0  0  0
  188.3900  177.9420  139.7850 C   0  0  0  0  0  0  0  0  0  0  0  0
  187.4990  178.6850  140.4850 F   0  0  0  0  0  0  0  0  0  0  0  0
  1  6  2  0  0  0  0
  1  3  1  0  0  0  0
  2  6  1  0  0  0  0
  3  7  2  0  0  0  0
  5  4  2  0  0  0  0
  6  5  1  0  0  0  0
  7  4  1  0  0  0  0
  9  7  1  6  0  0  0
  9 12  1  0  0  0  0
 10  9  1  0  0  0  0
 10 13  2  0  0  0  0
 11 14  2  0  0  0  0
 12 14  1  0  0  0  0
 13 11  1  0  0  0  0
 14  8  1  0  0  0  0
 16 15  1  0  0  0  0
 17 16  1  0  0  0  0
 17 13  1  0  0  0  0
 19 18  1  6  0  0  0
 19 16  1  0  0  0  0
 19 15  1  0  0  0  0
 20 17  2  0  0  0  0
 21  1  1  0  0  0  0
 22 21  1  0  0  0  0
 23 21  2  0  0  0  0
 24 25  1  6  0  0  0
 24 29  1  0  0  0  0
 24 22  1  0  0  0  0
 25 26  1  0  0  0  0
 28 26  1  0  0  0  0
 28 27  1  0  0  0  0
 29 31  1  0  0  0  0
 30 31  2  0  0  0  0
 31 36  1  0  0  0  0
 33 35  1  0  0  0  0
 34 33  2  0  0  0  0
 34 36  1  0  0  0  0
 35 32  2  0  0  0  0
 36 37  2  0  0  0  0
 37 32  1  0  0  0  0
 37 38  1  0  0  0  0
M  END
>  <MODEL>
4

>  <REMARK>
 VINA RESULT:      -9.3      2.853      9.282
  Name = 
  10 active torsions:
  status: ('A' for Active; 'I' for Inactive)
    1  A    between atoms: C_3  and  C_34
    2  A    between atoms: N_8  and  C_12
    3  A    between atoms: N_8  and  C_17
    4  A    between atoms: C_9  and  C_11
    5  A    between atoms: C_10  and  C_17
    6  A    between atoms: C_10  and  N_22
    7  A    between atoms: C_10  and  C_23
    8  A    between atoms: C_16  and  C_23
    9  A    between atoms: C_16  and  C_30
   10  A    between atoms: C_21  and  C_37
                            x       y       z     vdW  Elec       q    Type
                         _______ _______ _______ _____ _____    ______ ____

>  <TORSDO>
F 10

$$$$
=
 OpenBabel11062413033D

 38 41  0  0  1  0  0  0  0  0999 V2000
  185.6670  178.7830  140.5920 C   0  0  0  0  0  0  0  0  0  0  0  0
  183.4720  179.6070  139.8950 O   0  0  0  0  0  1  0  0  0  0  0  0
  186.8730  178.1610  140.2330 C   0  0  0  0  0  3  0  0  0  0  0  0
  186.1500  178.0120  137.9320 C   0  0  0  0  0  3  0  0  0  0  0  0
  184.9430  178.6270  138.2730 C   0  0  0  0  0  3  0  0  0  0  0  0
  184.6910  179.0080  139.5950 C   0  0  0  0  0  0  0  0  0  0  0  0
  187.1170  177.7710  138.9150 C   0  0  0  0  0  0  0  0  0  0  0  0
  191.0990  176.0920  135.8820 C   0  0  0  0  0  1  0  0  0  0  0  0
  188.4310  177.1440  138.5800 C   0  0  2  0  0  3  0  0  0  0  0  0
  189.4350  177.4100  139.6590 C   0  0  0  0  0  3  0  0  0  0  0  0
  191.2170  176.6490  138.2230 N   0  0  0  0  0  0  0  0  0  0  0  0
  189.0600  177.7330  136.9750 S   0  0  0  0  0  0  0  0  0  0  0  0
  190.7360  177.1530  139.4800 C   0  0  0  0  0  0  0  0  0  0  0  0
  190.5630  176.7500  137.1010 C   0  0  0  0  0  0  0  0  0  0  0  0
  190.2550  176.7300  142.9760 C   0  0  0  0  0  2  0  0  0  0  0  0
  191.2760  177.0730  141.9440 N   0  0  0  0  0  0  0  0  0  0  0  0
  191.6810  177.3260  140.5970 C   0  0  0  0  0  0  0  0  0  0  0  0
  191.6400  178.3020  143.9700 N   0  0  0  0  0  1  0  0  0  0  0  0
  191.5420  176.9670  143.4080 C   0  0  1  0  0  3  0  0  0  0  0  0
  192.8670  177.6870  140.3660 O   0  0  0  0  0  0  0  0  0  0  0  0
  185.4540  179.1400  142.0120 C   0  0  0  0  0  0  0  0  0  0  0  0
  184.7920  178.2170  142.8800 N   0  0  0  0  0  2  0  0  0  0  0  0
  185.8200  180.2620  142.4570 O   0  0  0  0  0  0  0  0  0  0  0  0
  184.2560  178.6070  144.1780 C   0  0  2  0  0  3  0  0  0  0  0  0
  183.0030  179.4670  144.0250 C   0  0  0  0  0  2  0  0  0  0  0  0
  181.8210  178.6460  143.8170 N   0  0  0  0  0  2  0  0  0  0  0  0
  180.4600  180.3070  142.9280 O   0  0  0  0  0  1  0  0  0  0  0  0
  181.1720  179.1500  142.6200 C   0  0  0  0  0  2  0  0  0  0  0  0
  185.3320  179.2540  145.0620 C   0  0  0  0  0  2  0  0  0  0  0  0
  184.6000  178.2470  147.0850 O   0  0  0  0  0  0  0  0  0  0  0  0
  185.5820  178.5110  146.3430 C   0  0  0  0  0  0  0  0  0  0  0  0
  189.1000  177.0540  146.3630 C   0  0  0  0  0  3  0  0  0  0  0  0
  188.6620  178.1160  148.4940 C   0  0  0  0  0  3  0  0  0  0  0  0
  187.3800  178.4620  148.0570 C   0  0  0  0  0  3  0  0  0  0  0  0
  189.5240  177.4160  147.6460 C   0  0  0  0  0  3  0  0  0  0  0  0
  186.9440  178.1160  146.7670 C   0  0  0  0  0  0  0  0  0  0  0  0
  187.8150  177.3950  145.9220 C   0  0  0  0  0  0  0  0  0  0  0  0
  187.4290  177.0040  144.6820 F   0  0  0  0  0  0  0  0  0  0  0  0
  1 21  1  0  0  0  0
  3  1  1  0  0  0  0
  4  5  2  0  0  0  0
  4  7  1  0  0  0  0
  5  6  1  0  0  0  0
  6  2  1  0  0  0  0
  6  1  2  0  0  0  0
  7  3  2  0  0  0  0
  8 14  1  0  0  0  0
  9  7  1  1  0  0  0
  9 10  1  0  0  0  0
 11 13  1  0  0  0  0
 12 14  1  0  0  0  0
 12  9  1  0  0  0  0
 13 10  2  0  0  0  0
 13 17  1  0  0  0  0
 14 11  2  0  0  0  0
 15 19  1  0  0  0  0
 16 15  1  0  0  0  0
 16 19  1  0  0  0  0
 17 16  1  0  0  0  0
 19 18  1  1  0  0  0
 20 17  2  0  0  0  0
 21 23  2  0  0  0  0
 21 22  1  0  0  0  0
 22 24  1  0  0  0  0
 24 25  1  6  0  0  0
 24 29  1  0  0  0  0
 26 25  1  0  0  0  0
 28 27  1  0  0  0  0
 28 26  1  0  0  0  0
 29 31  1  0  0  0  0
 31 36  1  0  0  0  0
 31 30  2  0  0  0  0
 32 35  1  0  0  0  0
 34 33  1  0  0  0  0
 35 33  2  0  0  0  0
 36 34  2  0  0  0  0
 37 32  2  0  0  0  0
 37 36  1  0  0  0  0
 38 37  1  0  0  0  0
M  END
>  <MODEL>
5

>  <REMARK>
 VINA RESULT:      -9.2      2.677      6.673
  Name = 
  10 active torsions:
  status: ('A' for Active; 'I' for Inactive)
    1  A    between atoms: C_3  and  C_34
    2  A    between atoms: N_8  and  C_12
    3  A    between atoms: N_8  and  C_17
    4  A    between atoms: C_9  and  C_11
    5  A    between atoms: C_10  and  C_17
    6  A    between atoms: C_10  and  N_22
    7  A    between atoms: C_10  and  C_23
    8  A    between atoms: C_16  and  C_23
    9  A    between atoms: C_16  and  C_30
   10  A    between atoms: C_21  and  C_37
                            x       y       z     vdW  Elec       q    Type
                         _______ _______ _______ _____ _____    ______ ____

>  <TORSDO>
F 10

$$$$
=
 OpenBabel11062413033D

 38 41  0  0  1  0  0  0  0  0999 V2000
  187.9230  177.9070  144.8530 C   0  0  0  0  0  0  0  0  0  0  0  0
  188.9780  177.9220  147.0590 O   0  0  0  0  0  1  0  0  0  0  0  0
  186.7370  177.9360  144.1010 C   0  0  0  0  0  3  0  0  0  0  0  0
  185.4200  178.0910  146.1210 C   0  0  0  0  0  3  0  0  0  0  0  0
  186.5900  178.0610  146.8840 C   0  0  0  0  0  3  0  0  0  0  0  0
  187.8380  177.9630  146.2630 C   0  0  0  0  0  0  0  0  0  0  0  0
  185.4920  178.0220  144.7240 C   0  0  0  0  0  0  0  0  0  0  0  0
  180.4540  178.9980  143.4830 C   0  0  0  0  0  1  0  0  0  0  0  0
  184.2640  178.0840  143.8770 C   0  0  2  0  0  3  0  0  0  0  0  0
  184.6170  178.3880  142.4530 C   0  0  0  0  0  3  0  0  0  0  0  0
  182.3020  178.8390  141.9480 N   0  0  0  0  0  0  0  0  0  0  0  0
  183.0790  179.3160  144.5080 S   0  0  0  0  0  0  0  0  0  0  0  0
  183.6810  178.7220  141.5580 C   0  0  0  0  0  0  0  0  0  0  0  0
  181.9070  179.0040  143.1780 C   0  0  0  0  0  0  0  0  0  0  0  0
  182.4620  177.1030  138.6380 C   0  0  0  0  0  2  0  0  0  0  0  0
  183.4030  178.1590  139.1130 N   0  0  0  0  0  0  0  0  0  0  0  0
  184.0490  178.9110  140.1430 C   0  0  0  0  0  0  0  0  0  0  0  0
  184.2750  177.0170  137.1940 N   0  0  0  0  0  1  0  0  0  0  0  0
  183.1610  177.8100  137.6830 C   0  0  1  0  0  3  0  0  0  0  0  0
  184.9320  179.7540  139.8310 O   0  0  0  0  0  0  0  0  0  0  0  0
  189.2090  177.7790  144.1350 C   0  0  0  0  0  0  0  0  0  0  0  0
  189.5850  176.5160  143.5790 N   0  0  0  0  0  2  0  0  0  0  0  0
  189.9940  178.7610  144.0360 O   0  0  0  0  0  0  0  0  0  0  0  0
  190.9460  176.2190  143.1540 C   0  0  2  0  0  3  0  0  0  0  0  0
  191.7550  175.5880  144.2860 C   0  0  0  0  0  2  0  0  0  0  0  0
  191.9420  176.5220  145.3850 N   0  0  0  0  0  2  0  0  0  0  0  0
  192.2180  176.5620  147.6920 O   0  0  0  0  0  1  0  0  0  0  0  0
  192.0530  175.7230  146.5930 C   0  0  0  0  0  2  0  0  0  0  0  0
  191.6260  177.4490  142.5360 C   0  0  0  0  0  2  0  0  0  0  0  0
  192.8020  177.4380  140.4720 O   0  0  0  0  0  0  0  0  0  0  0  0
  191.6760  177.4160  141.0350 C   0  0  0  0  0  0  0  0  0  0  0  0
  189.1230  176.5450  138.3480 C   0  0  0  0  0  3  0  0  0  0  0  0
  188.2060  178.2520  139.7980 C   0  0  0  0  0  3  0  0  0  0  0  0
  189.3870  178.2500  140.5460 C   0  0  0  0  0  3  0  0  0  0  0  0
  188.0720  177.3960  138.7020 C   0  0  0  0  0  3  0  0  0  0  0  0
  190.4480  177.3920  140.2100 C   0  0  0  0  0  0  0  0  0  0  0  0
  190.3100  176.5410  139.0920 C   0  0  0  0  0  0  0  0  0  0  0  0
  191.3170  175.7220  138.7020 F   0  0  0  0  0  0  0  0  0  0  0  0
  1  6  1  0  0  0  0
  3  7  1  0  0  0  0
  3  1  2  0  0  0  0
  4  5  1  0  0  0  0
  6  5  2  0  0  0  0
  6  2  1  0  0  0  0
  7  4  2  0  0  0  0
  9 12  1  0  0  0  0
  9  7  1  1  0  0  0
 10  9  1  0  0  0  0
 11 14  2  0  0  0  0
 13 11  1  0  0  0  0
 13 10  2  0  0  0  0
 14  8  1  0  0  0  0
 14 12  1  0  0  0  0
 15 16  1  0  0  0  0
 16 17  1  0  0  0  0
 17 13  1  0  0  0  0
 19 18  1  1  0  0  0
 19 15  1  0  0  0  0
 19 16  1  0  0  0  0
 20 17  2  0  0  0  0
 21  1  1  0  0  0  0
 22 21  1  0  0  0  0
 23 21  2  0  0  0  0
 24 29  1  1  0  0  0
 24 22  1  0  0  0  0
 24 25  1  0  0  0  0
 25 26  1  0  0  0  0
 26 28  1  0  0  0  0
 28 27  1  0  0  0  0
 30 31  2  0  0  0  0
 31 29  1  0  0  0  0
 32 35  2  0  0  0  0
 32 37  1  0  0  0  0
 33 34  2  0  0  0  0
 35 33  1  0  0  0  0
 36 34  1  0  0  0  0
 36 31  1  0  0  0  0
 37 36  2  0  0  0  0
 38 37  1  0  0  0  0
M  END
>  <MODEL>
6

>  <REMARK>
 VINA RESULT:      -8.9      2.805      5.852
  Name = 
  10 active torsions:
  status: ('A' for Active; 'I' for Inactive)
    1  A    between atoms: C_3  and  C_34
    2  A    between atoms: N_8  and  C_12
    3  A    between atoms: N_8  and  C_17
    4  A    between atoms: C_9  and  C_11
    5  A    between atoms: C_10  and  C_17
    6  A    between atoms: C_10  and  N_22
    7  A    between atoms: C_10  and  C_23
    8  A    between atoms: C_16  and  C_23
    9  A    between atoms: C_16  and  C_30
   10  A    between atoms: C_21  and  C_37
                            x       y       z     vdW  Elec       q    Type
                         _______ _______ _______ _____ _____    ______ ____

>  <TORSDO>
F 10

$$$$
=
 OpenBabel11062413033D

 38 41  0  0  1  0  0  0  0  0999 V2000
  187.4000  177.8390  138.1420 C   0  0  0  0  0  0  0  0  0  0  0  0
  188.9300  177.5040  136.2630 O   0  0  0  0  0  1  0  0  0  0  0  0
  186.0790  177.8300  138.6170 C   0  0  0  0  0  3  0  0  0  0  0  0
  185.2690  177.1340  136.4490 C   0  0  0  0  0  3  0  0  0  0  0  0
  186.5780  177.1410  135.9600 C   0  0  0  0  0  3  0  0  0  0  0  0
  187.6430  177.4970  136.7930 C   0  0  0  0  0  0  0  0  0  0  0  0
  185.0160  177.4860  137.7810 C   0  0  0  0  0  0  0  0  0  0  0  0
  180.1830  175.6130  138.7840 C   0  0  0  0  0  1  0  0  0  0  0  0
  183.6340  177.4580  138.3450 C   0  0  2  0  0  3  0  0  0  0  0  0
  183.5960  178.1240  139.6870 C   0  0  0  0  0  3  0  0  0  0  0  0
  181.3950  177.2260  140.0980 N   0  0  0  0  0  0  0  0  0  0  0  0
  182.9970  175.7550  138.4700 S   0  0  0  0  0  0  0  0  0  0  0  0
  182.5290  178.0200  140.4870 C   0  0  0  0  0  0  0  0  0  0  0  0
  181.4380  176.2930  139.1900 C   0  0  0  0  0  0  0  0  0  0  0  0
  185.0070  178.4360  143.0000 C   0  0  0  0  0  2  0  0  0  0  0  0
  183.6200  178.8280  142.6150 N   0  0  0  0  0  0  0  0  0  0  0  0
  182.4810  178.7730  141.7520 C   0  0  0  0  0  0  0  0  0  0  0  0
  183.8280  178.5900  144.9910 N   0  0  0  0  0  1  0  0  0  0  0  0
  184.3350  179.3050  143.8330 C   0  0  1  0  0  3  0  0  0  0  0  0
  181.4310  179.3900  142.0770 O   0  0  0  0  0  0  0  0  0  0  0  0
  188.4780  178.2470  139.0690 C   0  0  0  0  0  0  0  0  0  0  0  0
  188.8310  177.3940  140.1600 N   0  0  0  0  0  2  0  0  0  0  0  0
  189.0670  179.3530  138.9270 O   0  0  0  0  0  0  0  0  0  0  0  0
  189.6320  177.8530  141.2880 C   0  0  2  0  0  3  0  0  0  0  0  0
  190.7200  176.8410  141.6430 C   0  0  0  0  0  2  0  0  0  0  0  0
  192.0410  177.4460  141.5870 N   0  0  0  0  0  2  0  0  0  0  0  0
  193.7670  177.1240  140.0640 O   0  0  0  0  0  1  0  0  0  0  0  0
  192.4250  177.4730  140.1870 C   0  0  0  0  0  2  0  0  0  0  0  0
  188.7510  178.2420  142.4840 C   0  0  0  0  0  2  0  0  0  0  0  0
  188.0280  176.0230  142.9310 O   0  0  0  0  0  0  0  0  0  0  0  0
  188.4660  177.0990  143.4170 C   0  0  0  0  0  0  0  0  0  0  0  0
  190.0400  177.1550  146.8830 C   0  0  0  0  0  3  0  0  0  0  0  0
  187.6780  177.6530  147.0700 C   0  0  0  0  0  3  0  0  0  0  0  0
  187.5430  177.5240  145.6840 C   0  0  0  0  0  3  0  0  0  0  0  0
  188.9270  177.4730  147.6690 C   0  0  0  0  0  3  0  0  0  0  0  0
  188.6530  177.2160  144.8800 C   0  0  0  0  0  0  0  0  0  0  0  0
  189.9090  177.0210  145.4950 C   0  0  0  0  0  0  0  0  0  0  0  0
  191.0040  176.6860  144.7700 F   0  0  0  0  0  0  0  0  0  0  0  0
  1  3  1  0  0  0  0
  1 21  1  0  0  0  0
  2  6  1  0  0  0  0
  4  7  1  0  0  0  0
  5  4  2  0  0  0  0
  5  6  1  0  0  0  0
  6  1  2  0  0  0  0
  7  3  2  0  0  0  0
  8 14  1  0  0  0  0
  9  7  1  1  0  0  0
  9 12  1  0  0  0  0
  9 10  1  0  0  0  0
 10 13  2  0  0  0  0
 11 13  1  0  0  0  0
 12 14  1  0  0  0  0
 13 17  1  0  0  0  0
 14 11  2  0  0  0  0
 15 19  1  0  0  0  0
 16 15  1  0  0  0  0
 16 19  1  0  0  0  0
 17 20  2  0  0  0  0
 17 16  1  0  0  0  0
 19 18  1  1  0  0  0
 21 22  1  0  0  0  0
 22 24  1  0  0  0  0
 23 21  2  0  0  0  0
 24 25  1  1  0  0  0
 24 29  1  0  0  0  0
 26 25  1  0  0  0  0
 27 28  1  0  0  0  0
 28 26  1  0  0  0  0
 29 31  1  0  0  0  0
 30 31  2  0  0  0  0
 31 36  1  0  0  0  0
 32 35  1  0  0  0  0
 33 35  2  0  0  0  0
 34 33  1  0  0  0  0
 36 37  1  0  0  0  0
 36 34  2  0  0  0  0
 37 32  2  0  0  0  0
 38 37  1  0  0  0  0
M  END
>  <MODEL>
7

>  <REMARK>
 VINA RESULT:      -8.9      2.728      4.977
  Name = 
  10 active torsions:
  status: ('A' for Active; 'I' for Inactive)
    1  A    between atoms: C_3  and  C_34
    2  A    between atoms: N_8  and  C_12
    3  A    between atoms: N_8  and  C_17
    4  A    between atoms: C_9  and  C_11
    5  A    between atoms: C_10  and  C_17
    6  A    between atoms: C_10  and  N_22
    7  A    between atoms: C_10  and  C_23
    8  A    between atoms: C_16  and  C_23
    9  A    between atoms: C_16  and  C_30
   10  A    between atoms: C_21  and  C_37
                            x       y       z     vdW  Elec       q    Type
                         _______ _______ _______ _____ _____    ______ ____

>  <TORSDO>
F 10

$$$$
=
 OpenBabel11062413033D

 38 41  0  0  1  0  0  0  0  0999 V2000
  186.8560  178.2120  138.8840 C   0  0  0  0  0  0  0  0  0  0  0  0
  187.3560  177.4960  136.6000 O   0  0  0  0  0  1  0  0  0  0  0  0
  185.8860  178.5760  139.8320 C   0  0  0  0  0  3  0  0  0  0  0  0
  184.1240  178.2070  138.2190 C   0  0  0  0  0  3  0  0  0  0  0  0
  185.0780  177.8450  137.2640 C   0  0  0  0  0  3  0  0  0  0  0  0
  186.4380  177.8510  137.5830 C   0  0  0  0  0  0  0  0  0  0  0  0
  184.5290  178.5800  139.5060 C   0  0  0  0  0  0  0  0  0  0  0  0
  179.8240  178.9280  141.8760 C   0  0  0  0  0  1  0  0  0  0  0  0
  183.5350  178.9420  140.5610 C   0  0  2  0  0  3  0  0  0  0  0  0
  184.1550  178.8620  141.9220 C   0  0  0  0  0  3  0  0  0  0  0  0
  181.9780  179.0070  142.9500 N   0  0  0  0  0  0  0  0  0  0  0  0
  182.0580  177.8800  140.4790 S   0  0  0  0  0  0  0  0  0  0  0  0
  183.4100  178.9140  143.0320 C   0  0  0  0  0  0  0  0  0  0  0  0
  181.2880  178.6850  141.8930 C   0  0  0  0  0  0  0  0  0  0  0  0
  186.6700  177.8830  144.0050 C   0  0  0  0  0  2  0  0  0  0  0  0
  185.4080  178.4930  144.5170 N   0  0  0  0  0  0  0  0  0  0  0  0
  184.0590  178.9400  144.3550 C   0  0  0  0  0  0  0  0  0  0  0  0
  186.4310  177.0940  146.1720 N   0  0  0  0  0  1  0  0  0  0  0  0
  186.6350  178.2590  145.3310 C   0  0  1  0  0  3  0  0  0  0  0  0
  183.4280  179.3720  145.3560 O   0  0  0  0  0  0  0  0  0  0  0  0
  188.2800  178.2620  139.2800 C   0  0  0  0  0  0  0  0  0  0  0  0
  188.7830  177.3170  140.2280 N   0  0  0  0  0  2  0  0  0  0  0  0
  189.0480  179.1480  138.8170 O   0  0  0  0  0  0  0  0  0  0  0  0
  190.0580  177.4920  140.9110 C   0  0  2  0  0  3  0  0  0  0  0  0
  191.2280  177.1080  140.0080 C   0  0  0  0  0  2  0  0  0  0  0  0
  190.8860  175.9860  139.1490 N   0  0  0  0  0  2  0  0  0  0  0  0
  192.2570  175.7920  137.2820 O   0  0  0  0  0  1  0  0  0  0  0  0
  191.1210  176.4220  137.7840 C   0  0  0  0  0  2  0  0  0  0  0  0
  190.0750  176.7700  142.2660 C   0  0  0  0  0  2  0  0  0  0  0  0
  190.6390  178.8830  143.1960 O   0  0  0  0  0  0  0  0  0  0  0  0
  190.4900  177.6510  143.4100 C   0  0  0  0  0  0  0  0  0  0  0  0
  191.9410  175.6270  146.2900 C   0  0  0  0  0  3  0  0  0  0  0  0
  190.2460  177.1300  147.1440 C   0  0  0  0  0  3  0  0  0  0  0  0
  190.0200  177.6080  145.8500 C   0  0  0  0  0  3  0  0  0  0  0  0
  191.2100  176.1430  147.3650 C   0  0  0  0  0  3  0  0  0  0  0  0
  190.7550  177.1080  144.7620 C   0  0  0  0  0  0  0  0  0  0  0  0
  191.7160  176.1000  144.9910 C   0  0  0  0  0  0  0  0  0  0  0  0
  192.4250  175.5580  143.9710 F   0  0  0  0  0  0  0  0  0  0  0  0
  1 21  1  0  0  0  0
  1  3  1  0  0  0  0
  2  6  1  0  0  0  0
  4  7  1  0  0  0  0
  5  6  1  0  0  0  0
  5  4  2  0  0  0  0
  6  1  2  0  0  0  0
  7  3  2  0  0  0  0
  8 14  1  0  0  0  0
  9  7  1  6  0  0  0
  9 10  1  0  0  0  0
 10 13  2  0  0  0  0
 11 13  1  0  0  0  0
 12  9  1  0  0  0  0
 12 14  1  0  0  0  0
 13 17  1  0  0  0  0
 14 11  2  0  0  0  0
 15 16  1  0  0  0  0
 15 19  1  0  0  0  0
 16 19  1  0  0  0  0
 17 16  1  0  0  0  0
 17 20  2  0  0  0  0
 19 18  1  1  0  0  0
 21 22  1  0  0  0  0
 22 24  1  0  0  0  0
 23 21  2  0  0  0  0
 24 25  1  6  0  0  0
 24 29  1  0  0  0  0
 26 25  1  0  0  0  0
 27 28  1  0  0  0  0
 28 26  1  0  0  0  0
 29 31  1  0  0  0  0
 30 31  2  0  0  0  0
 31 36  1  0  0  0  0
 32 35  1  0  0  0  0
 33 35  2  0  0  0  0
 34 33  1  0  0  0  0
 36 37  1  0  0  0  0
 36 34  2  0  0  0  0
 37 32  2  0  0  0  0
 38 37  1  0  0  0  0
M  END
>  <MODEL>
8

>  <REMARK>
 VINA RESULT:      -8.9      3.033      6.433
  Name = 
  10 active torsions:
  status: ('A' for Active; 'I' for Inactive)
    1  A    between atoms: C_3  and  C_34
    2  A    between atoms: N_8  and  C_12
    3  A    between atoms: N_8  and  C_17
    4  A    between atoms: C_9  and  C_11
    5  A    between atoms: C_10  and  C_17
    6  A    between atoms: C_10  and  N_22
    7  A    between atoms: C_10  and  C_23
    8  A    between atoms: C_16  and  C_23
    9  A    between atoms: C_16  and  C_30
   10  A    between atoms: C_21  and  C_37
                            x       y       z     vdW  Elec       q    Type
                         _______ _______ _______ _____ _____    ______ ____

>  <TORSDO>
F 10

$$$$
=
 OpenBabel11062413033D

 38 41  0  0  1  0  0  0  0  0999 V2000
  185.3540  178.2910  142.9340 C   0  0  0  0  0  0  0  0  0  0  0  0
  185.5430  178.7500  145.3290 O   0  0  0  0  0  1  0  0  0  0  0  0
  184.5370  178.2420  141.7930 C   0  0  0  0  0  3  0  0  0  0  0  0
  182.6370  179.0030  143.0790 C   0  0  0  0  0  3  0  0  0  0  0  0
  183.4360  179.0550  144.2240 C   0  0  0  0  0  3  0  0  0  0  0  0
  184.7860  178.6970  144.1630 C   0  0  0  0  0  0  0  0  0  0  0  0
  183.1870  178.5890  141.8590 C   0  0  0  0  0  0  0  0  0  0  0  0
  181.1480  180.3040  137.3010 C   0  0  0  0  0  1  0  0  0  0  0  0
  182.3710  178.5520  140.6090 C   0  0  2  0  0  3  0  0  0  0  0  0
  182.3290  177.1650  140.0440 C   0  0  0  0  0  3  0  0  0  0  0  0
  181.4150  178.0080  137.9770 N   0  0  0  0  0  0  0  0  0  0  0  0
  183.0050  179.7200  139.3630 S   0  0  0  0  0  0  0  0  0  0  0  0
  181.8590  176.9270  138.8150 C   0  0  0  0  0  0  0  0  0  0  0  0
  181.7560  179.2520  138.1550 C   0  0  0  0  0  0  0  0  0  0  0  0
  184.2630  174.8130  137.2690 C   0  0  0  0  0  2  0  0  0  0  0  0
  182.8530  174.8630  137.7560 N   0  0  0  0  0  0  0  0  0  0  0  0
  181.7330  175.5410  138.3300 C   0  0  0  0  0  0  0  0  0  0  0  0
  183.0500  173.4970  135.7960 N   0  0  0  0  0  1  0  0  0  0  0  0
  183.5110  173.6630  137.1620 C   0  0  1  0  0  3  0  0  0  0  0  0
  180.6320  174.9370  138.4330 O   0  0  0  0  0  0  0  0  0  0  0  0
  186.7680  177.8780  142.8060 C   0  0  0  0  0  0  0  0  0  0  0  0
  187.6870  178.7140  142.1000 N   0  0  0  0  0  2  0  0  0  0  0  0
  187.1650  176.7810  143.2840 O   0  0  0  0  0  0  0  0  0  0  0  0
  188.9900  178.2440  141.6480 C   0  0  2  0  0  3  0  0  0  0  0  0
  188.9150  177.6780  140.2320 C   0  0  0  0  0  2  0  0  0  0  0  0
  188.2740  178.6150  139.3220 N   0  0  0  0  0  2  0  0  0  0  0  0
  188.6810  179.6940  137.3050 O   0  0  0  0  0  1  0  0  0  0  0  0
  189.0740  178.6280  138.1100 C   0  0  0  0  0  2  0  0  0  0  0  0
  189.6190  177.2720  142.6570 C   0  0  0  0  0  2  0  0  0  0  0  0
  190.9950  179.0320  143.4660 O   0  0  0  0  0  0  0  0  0  0  0  0
  190.4020  177.9560  143.7420 C   0  0  0  0  0  0  0  0  0  0  0  0
  189.6540  176.9740  147.3430 C   0  0  0  0  0  3  0  0  0  0  0  0
  191.8270  176.1120  146.7140 C   0  0  0  0  0  3  0  0  0  0  0  0
  191.6810  176.6740  145.4430 C   0  0  0  0  0  3  0  0  0  0  0  0
  190.8120  176.2580  147.6630 C   0  0  0  0  0  3  0  0  0  0  0  0
  190.5180  177.3870  145.1030 C   0  0  0  0  0  0  0  0  0  0  0  0
  189.5040  177.5420  146.0720 C   0  0  0  0  0  0  0  0  0  0  0  0
  188.3800  178.2520  145.8080 F   0  0  0  0  0  0  0  0  0  0  0  0
  1  6  1  0  0  0  0
  3  7  1  0  0  0  0
  3  1  2  0  0  0  0
  4  5  1  0  0  0  0
  6  5  2  0  0  0  0
  6  2  1  0  0  0  0
  7  4  2  0  0  0  0
  8 14  1  0  0  0  0
  9  7  1  1  0  0  0
 10  9  1  0  0  0  0
 11 14  2  0  0  0  0
 11 13  1  0  0  0  0
 12  9  1  0  0  0  0
 13 10  2  0  0  0  0
 14 12  1  0  0  0  0
 15 16  1  0  0  0  0
 16 17  1  0  0  0  0
 17 20  2  0  0  0  0
 17 13  1  0  0  0  0
 19 18  1  6  0  0  0
 19 15  1  0  0  0  0
 19 16  1  0  0  0  0
 21  1  1  0  0  0  0
 21 23  2  0  0  0  0
 22 21  1  0  0  0  0
 24 25  1  6  0  0  0
 24 22  1  0  0  0  0
 24 29  1  0  0  0  0
 26 25  1  0  0  0  0
 27 28  1  0  0  0  0
 28 26  1  0  0  0  0
 29 31  1  0  0  0  0
 30 31  2  0  0  0  0
 31 36  1  0  0  0  0
 32 35  1  0  0  0  0
 33 35  2  0  0  0  0
 34 33  1  0  0  0  0
 36 34  2  0  0  0  0
 36 37  1  0  0  0  0
 37 32  2  0  0  0  0
 38 37  1  0  0  0  0
M  END
>  <MODEL>
9

>  <REMARK>
 VINA RESULT:      -8.5      2.741      6.148
  Name = 
  10 active torsions:
  status: ('A' for Active; 'I' for Inactive)
    1  A    between atoms: C_3  and  C_34
    2  A    between atoms: N_8  and  C_12
    3  A    between atoms: N_8  and  C_17
    4  A    between atoms: C_9  and  C_11
    5  A    between atoms: C_10  and  C_17
    6  A    between atoms: C_10  and  N_22
    7  A    between atoms: C_10  and  C_23
    8  A    between atoms: C_16  and  C_23
    9  A    between atoms: C_16  and  C_30
   10  A    between atoms: C_21  and  C_37
                            x       y       z     vdW  Elec       q    Type
                         _______ _______ _______ _____ _____    ______ ____

>  <TORSDO>
F 10

$$$$
