=
 OpenBabel11062413233D

 46 49  0  0  1  0  0  0  0  0999 V2000
  189.3660  178.9020  139.0990 C   0  0  0  0  0  2  0  0  0  0  0  0
  188.4590  177.9970  139.9380 C   0  0  2  0  0  3  0  0  0  0  0  0
  187.8880  177.9160  137.2050 C   0  0  2  0  0  3  0  0  0  0  0  0
  189.0900  178.8040  137.5820 C   0  0  0  0  0  2  0  0  0  0  0  0
  187.0340  178.1480  139.5010 C   0  0  0  0  0  3  0  0  0  0  0  0
  186.7590  178.1150  138.1960 C   0  0  0  0  0  0  0  0  0  0  0  0
  188.5950  178.3220  141.3470 N   0  0  0  0  0  2  0  0  0  0  0  0
  191.1680  177.8000  141.6330 O   0  0  0  0  0  0  0  0  0  0  0  0
  189.8080  177.2710  141.9990 S   0  0  0  0  0  0  0  0  0  0  0  0
  189.6500  175.8950  141.4160 O   0  0  0  0  0  0  0  0  0  0  0  0
  189.6570  177.1870  143.7560 C   0  0  0  0  0  0  0  0  0  0  0  0
  188.4030  177.2530  144.3960 C   0  0  0  0  0  0  0  0  0  0  0  0
  191.8790  176.9930  146.6610 F   0  0  0  0  0  0  0  0  0  0  0  0
  189.4130  177.1130  147.9100 F   0  0  0  0  0  0  0  0  0  0  0  0
  189.4970  177.1360  146.5570 C   0  0  0  0  0  0  0  0  0  0  0  0
  190.7440  177.0740  145.9260 C   0  0  0  0  0  0  0  0  0  0  0  0
  190.8200  177.1030  144.5320 C   0  0  0  0  0  3  0  0  0  0  0  0
  187.1320  177.3610  143.6240 C   0  0  0  0  0  1  0  0  0  0  0  0
  188.3330  177.2260  145.7920 C   0  0  0  0  0  3  0  0  0  0  0  0
  188.3440  176.4470  137.0820 C   0  0  1  0  0  3  0  0  0  0  0  0
  187.5210  175.5630  136.1420 C   0  0  0  0  0  2  0  0  0  0  0  0
  186.9500  172.9510  135.1740 O   0  0  0  0  0  0  0  0  0  0  0  0
  186.7970  174.5380  136.8750 N   0  0  0  0  0  2  0  0  0  0  0  0
  186.4990  173.2640  136.3090 C   0  0  0  0  0  0  0  0  0  0  0  0
  185.2620  172.8860  138.2870 O   0  0  0  0  0  1  0  0  0  0  0  0
  185.6170  172.3220  137.0600 C   0  0  1  0  0  3  0  0  0  0  0  0
  184.3690  171.9830  136.2600 C   0  0  0  0  0  2  0  0  0  0  0  0
  183.2400  172.4440  136.9350 O   0  0  0  0  0  1  0  0  0  0  0  0
  189.8600  176.2600  136.9050 C   0  0  0  0  0  2  0  0  0  0  0  0
  190.5630  174.1290  137.7180 O   0  0  0  0  0  1  0  0  0  0  0  0
  190.5340  175.4860  138.0360 C   0  0  1  0  0  3  0  0  0  0  0  0
  191.9470  175.9860  138.2730 C   0  0  0  0  0  2  0  0  0  0  0  0
  192.9520  175.0870  137.5770 C   0  0  0  0  0  2  0  0  0  0  0  0
  196.2290  173.9670  139.2350 N   0  0  0  0  0  0  0  0  0  0  0  0
  195.2340  173.0610  139.0780 O   0  0  0  0  0  0  0  0  0  0  0  0
  194.2940  175.3630  138.0640 N   0  0  0  0  0  2  0  0  0  0  0  0
  195.0870  174.3480  138.6670 C   0  0  0  0  0  0  0  0  0  0  0  0
  185.4380  178.2820  137.7700 O   0  0  0  0  0  0  0  0  0  0  0  0
  182.2060  178.9420  139.5300 C   0  0  1  0  0  3  0  0  0  0  0  0
  181.4580  178.0800  138.7110 O   0  0  0  0  0  0  0  0  0  0  0  0
  183.5340  179.2810  138.8540 C   0  0  0  0  0  2  0  0  0  0  0  0
  183.4300  176.9370  137.9540 C   0  0  1  0  0  3  0  0  0  0  0  0
  181.4920  180.1020  139.7390 F   0  0  0  0  0  0  0  0  0  0  0  0
  184.0590  175.7070  137.9600 F   0  0  0  0  0  0  0  0  0  0  0  0
  182.1150  176.8380  138.7280 C   0  0  0  0  0  2  0  0  0  0  0  0
  184.3230  177.9970  138.6060 C   0  0  1  0  0  3  0  0  0  0  0  0
  1  2  1  0  0  0  0
  2  7  1  1  0  0  0
  3 20  1  1  0  0  0
  3  4  1  0  0  0  0
  3  6  1  0  0  0  0
  4  1  1  0  0  0  0
  5  2  1  0  0  0  0
  6  5  2  0  0  0  0
  7  9  1  0  0  0  0
  8  9  2  0  0  0  0
  9 11  1  0  0  0  0
 10  9  2  0  0  0  0
 11 12  2  0  0  0  0
 11 17  1  0  0  0  0
 12 19  1  0  0  0  0
 15 14  1  0  0  0  0
 16 15  1  0  0  0  0
 16 13  1  0  0  0  0
 17 16  2  0  0  0  0
 18 12  1  0  0  0  0
 19 15  2  0  0  0  0
 20 21  1  6  0  0  0
 21 23  1  0  0  0  0
 22 24  2  0  0  0  0
 24 23  1  0  0  0  0
 24 26  1  0  0  0  0
 26 25  1  1  0  0  0
 27 28  1  0  0  0  0
 27 26  1  0  0  0  0
 29 20  1  0  0  0  0
 29 31  1  0  0  0  0
 31 30  1  6  0  0  0
 31 32  1  0  0  0  0
 33 36  1  0  0  0  0
 33 32  1  0  0  0  0
 35 34  1  0  0  0  0
 36 37  1  0  0  0  0
 37 35  1  0  0  0  0
 37 34  2  0  0  0  0
 38  6  1  0  0  0  0
 39 43  1  6  0  0  0
 40 45  1  0  0  0  0
 40 39  1  0  0  0  0
 41 39  1  0  0  0  0
 42 44  1  1  0  0  0
 42 46  1  0  0  0  0
 42 45  1  0  0  0  0
 46 38  1  6  0  0  0
 46 41  1  0  0  0  0
M  END
>  <MODEL>
1

>  <REMARK>
 VINA RESULT:      -7.5      0.000      0.000
  Name = 
  15 active torsions:
  status: ('A' for Active; 'I' for Inactive)
    1  A    between atoms: C_2  and  N_3
    2  A    between atoms: N_3  and  S_24
    3  A    between atoms: C_4  and  C_10
    4  A    between atoms: C_7  and  C_20
    5  A    between atoms: C_8  and  S_24
    6  A    between atoms: C_10  and  C_12
    7  A    between atoms: C_10  and  C_34
    8  A    between atoms: C_12  and  N_30
    9  A    between atoms: N_15  and  C_28
   10  A    between atoms: C_20  and  C_43
   11  A    between atoms: O_25  and  C_37
   12  A    between atoms: O_25  and  C_45
   13  A    between atoms: C_28  and  C_36
   14  A    between atoms: C_34  and  C_39
   15  A    between atoms: C_36  and  C_39
                            x       y       z     vdW  Elec       q    Type
                         _______ _______ _______ _____ _____    ______ ____

>  <TORSDO>
F 15

$$$$
=
 OpenBabel11062413233D

 46 49  0  0  1  0  0  0  0  0999 V2000
  189.1000  178.9190  139.1860 C   0  0  0  0  0  2  0  0  0  0  0  0
  188.1680  178.1930  140.1600 C   0  0  2  0  0  3  0  0  0  0  0  0
  187.5780  177.6920  137.4770 C   0  0  2  0  0  3  0  0  0  0  0  0
  188.8110  178.5880  137.7050 C   0  0  0  0  0  2  0  0  0  0  0  0
  186.7470  178.3200  139.7060 C   0  0  0  0  0  3  0  0  0  0  0  0
  186.4620  178.0870  138.4240 C   0  0  0  0  0  0  0  0  0  0  0  0
  188.3250  178.7350  141.4990 N   0  0  0  0  0  2  0  0  0  0  0  0
  190.6000  177.7750  142.4330 O   0  0  0  0  0  0  0  0  0  0  0  0
  189.1170  177.5260  142.4520 S   0  0  0  0  0  0  0  0  0  0  0  0
  188.8470  176.1670  141.8690 O   0  0  0  0  0  0  0  0  0  0  0  0
  188.5260  177.5800  144.1140 C   0  0  0  0  0  0  0  0  0  0  0  0
  187.1510  177.6780  144.4090 C   0  0  0  0  0  0  0  0  0  0  0  0
  189.9400  177.6530  147.4920 F   0  0  0  0  0  0  0  0  0  0  0  0
  187.2390  177.8350  148.0640 F   0  0  0  0  0  0  0  0  0  0  0  0
  187.6630  177.7510  146.7790 C   0  0  0  0  0  0  0  0  0  0  0  0
  189.0280  177.6570  146.4900 C   0  0  0  0  0  0  0  0  0  0  0  0
  189.4550  177.5760  145.1630 C   0  0  0  0  0  3  0  0  0  0  0  0
  186.1180  177.7040  143.3360 C   0  0  0  0  0  1  0  0  0  0  0  0
  186.7300  177.7610  145.7400 C   0  0  0  0  0  3  0  0  0  0  0  0
  187.9840  176.2080  137.5920 C   0  0  1  0  0  3  0  0  0  0  0  0
  187.3770  175.2620  136.5530 C   0  0  0  0  0  2  0  0  0  0  0  0
  186.5550  172.6660  137.3720 O   0  0  0  0  0  0  0  0  0  0  0  0
  186.0180  174.8860  136.9050 N   0  0  0  0  0  2  0  0  0  0  0  0
  185.6640  173.5520  137.2570 C   0  0  0  0  0  0  0  0  0  0  0  0
  183.4260  174.0930  136.7250 O   0  0  0  0  0  1  0  0  0  0  0  0
  184.2240  173.2080  137.4520 C   0  0  1  0  0  3  0  0  0  0  0  0
  183.9390  171.7770  137.0260 C   0  0  0  0  0  2  0  0  0  0  0  0
  182.5940  171.4820  137.2460 O   0  0  0  0  0  1  0  0  0  0  0  0
  189.4870  175.9700  137.8120 C   0  0  0  0  0  2  0  0  0  0  0  0
  190.7850  176.1140  135.8140 O   0  0  0  0  0  1  0  0  0  0  0  0
  190.1750  175.2090  136.6810 C   0  0  1  0  0  3  0  0  0  0  0  0
  191.2100  174.2420  137.2240 C   0  0  0  0  0  2  0  0  0  0  0  0
  192.3580  174.0880  136.2440 C   0  0  0  0  0  2  0  0  0  0  0  0
  195.1710  174.9900  138.6960 N   0  0  0  0  0  0  0  0  0  0  0  0
  194.2080  175.9080  138.4420 O   0  0  0  0  0  0  0  0  0  0  0  0
  193.5840  173.7610  136.9540 N   0  0  0  0  0  2  0  0  0  0  0  0
  194.1960  174.6890  137.8420 C   0  0  0  0  0  0  0  0  0  0  0  0
  185.1450  178.2280  137.9770 O   0  0  0  0  0  0  0  0  0  0  0  0
  182.0360  179.7120  139.4300 C   0  0  1  0  0  3  0  0  0  0  0  0
  181.1970  178.6840  138.9640 O   0  0  0  0  0  0  0  0  0  0  0  0
  183.3600  179.6900  138.6660 C   0  0  0  0  0  2  0  0  0  0  0  0
  183.0520  177.1960  138.6310 C   0  0  1  0  0  3  0  0  0  0  0  0
  181.4170  180.9270  139.2320 F   0  0  0  0  0  0  0  0  0  0  0  0
  183.5890  175.9950  139.0550 F   0  0  0  0  0  0  0  0  0  0  0  0
  181.7620  177.4750  139.4030 C   0  0  0  0  0  2  0  0  0  0  0  0
  184.0430  178.3380  138.8700 C   0  0  1  0  0  3  0  0  0  0  0  0
  1  2  1  0  0  0  0
  2  7  1  1  0  0  0
  3 20  1  1  0  0  0
  3  4  1  0  0  0  0
  3  6  1  0  0  0  0
  4  1  1  0  0  0  0
  5  2  1  0  0  0  0
  6  5  2  0  0  0  0
  7  9  1  0  0  0  0
  8  9  2  0  0  0  0
  9 11  1  0  0  0  0
 10  9  2  0  0  0  0
 11 12  2  0  0  0  0
 11 17  1  0  0  0  0
 12 19  1  0  0  0  0
 15 14  1  0  0  0  0
 16 15  1  0  0  0  0
 16 13  1  0  0  0  0
 17 16  2  0  0  0  0
 18 12  1  0  0  0  0
 19 15  2  0  0  0  0
 20 21  1  6  0  0  0
 20 29  1  0  0  0  0
 21 23  1  0  0  0  0
 23 24  1  0  0  0  0
 24 22  2  0  0  0  0
 24 26  1  0  0  0  0
 26 25  1  6  0  0  0
 27 28  1  0  0  0  0
 27 26  1  0  0  0  0
 31 30  1  6  0  0  0
 31 32  1  0  0  0  0
 31 29  1  0  0  0  0
 33 36  1  0  0  0  0
 33 32  1  0  0  0  0
 35 34  1  0  0  0  0
 36 37  1  0  0  0  0
 37 35  1  0  0  0  0
 37 34  2  0  0  0  0
 38  6  1  0  0  0  0
 39 43  1  6  0  0  0
 40 45  1  0  0  0  0
 40 39  1  0  0  0  0
 41 46  1  0  0  0  0
 41 39  1  0  0  0  0
 42 46  1  0  0  0  0
 42 44  1  1  0  0  0
 42 45  1  0  0  0  0
 46 38  1  6  0  0  0
M  END
>  <MODEL>
2

>  <REMARK>
 VINA RESULT:      -7.3      1.239      1.431
  Name = 
  15 active torsions:
  status: ('A' for Active; 'I' for Inactive)
    1  A    between atoms: C_2  and  N_3
    2  A    between atoms: N_3  and  S_24
    3  A    between atoms: C_4  and  C_10
    4  A    between atoms: C_7  and  C_20
    5  A    between atoms: C_8  and  S_24
    6  A    between atoms: C_10  and  C_12
    7  A    between atoms: C_10  and  C_34
    8  A    between atoms: C_12  and  N_30
    9  A    between atoms: N_15  and  C_28
   10  A    between atoms: C_20  and  C_43
   11  A    between atoms: O_25  and  C_37
   12  A    between atoms: O_25  and  C_45
   13  A    between atoms: C_28  and  C_36
   14  A    between atoms: C_34  and  C_39
   15  A    between atoms: C_36  and  C_39
                            x       y       z     vdW  Elec       q    Type
                         _______ _______ _______ _____ _____    ______ ____

>  <TORSDO>
F 15

$$$$
=
 OpenBabel11062413233D

 46 49  0  0  1  0  0  0  0  0999 V2000
  189.1300  178.8440  138.8970 C   0  0  0  0  0  2  0  0  0  0  0  0
  188.4450  178.0490  140.0130 C   0  0  2  0  0  3  0  0  0  0  0  0
  187.3610  177.5710  137.4840 C   0  0  2  0  0  3  0  0  0  0  0  0
  188.5700  178.5260  137.4920 C   0  0  0  0  0  2  0  0  0  0  0  0
  186.9570  178.1100  139.8500 C   0  0  0  0  0  3  0  0  0  0  0  0
  186.4360  177.8870  138.6430 C   0  0  0  0  0  0  0  0  0  0  0  0
  188.8360  178.5730  141.3100 N   0  0  0  0  0  2  0  0  0  0  0  0
  191.3350  177.8590  141.7750 O   0  0  0  0  0  0  0  0  0  0  0  0
  189.9170  177.4230  142.0220 S   0  0  0  0  0  0  0  0  0  0  0  0
  189.7080  176.0760  141.3900 O   0  0  0  0  0  0  0  0  0  0  0  0
  189.6240  177.3090  143.7590 C   0  0  0  0  0  0  0  0  0  0  0  0
  188.3210  177.3330  144.2940 C   0  0  0  0  0  0  0  0  0  0  0  0
  191.6050  177.1280  146.8350 F   0  0  0  0  0  0  0  0  0  0  0  0
  189.0420  177.1670  147.8770 F   0  0  0  0  0  0  0  0  0  0  0  0
  189.2370  177.2130  146.5370 C   0  0  0  0  0  0  0  0  0  0  0  0
  190.5320  177.1910  146.0100 C   0  0  0  0  0  0  0  0  0  0  0  0
  190.7220  177.2430  144.6270 C   0  0  0  0  0  3  0  0  0  0  0  0
  187.1160  177.4200  143.4220 C   0  0  0  0  0  1  0  0  0  0  0  0
  188.1370  177.2840  145.6790 C   0  0  0  0  0  3  0  0  0  0  0  0
  187.8530  176.1080  137.4730 C   0  0  1  0  0  3  0  0  0  0  0  0
  186.8010  175.0470  137.1430 C   0  0  0  0  0  2  0  0  0  0  0  0
  183.9660  174.9550  137.3500 O   0  0  0  0  0  0  0  0  0  0  0  0
  185.8720  175.5160  136.1290 N   0  0  0  0  0  2  0  0  0  0  0  0
  184.4600  175.3920  136.2740 C   0  0  0  0  0  0  0  0  0  0  0  0
  182.3480  175.0980  135.2550 O   0  0  0  0  0  1  0  0  0  0  0  0
  183.5760  175.7500  135.1260 C   0  0  1  0  0  3  0  0  0  0  0  0
  183.3620  177.2530  135.0450 C   0  0  0  0  0  2  0  0  0  0  0  0
  182.0110  177.5250  134.8400 O   0  0  0  0  0  1  0  0  0  0  0  0
  189.1810  175.8860  136.7310 C   0  0  0  0  0  2  0  0  0  0  0  0
  190.0160  173.8130  137.5690 O   0  0  0  0  0  1  0  0  0  0  0  0
  190.2550  175.1860  137.5610 C   0  0  1  0  0  3  0  0  0  0  0  0
  191.6400  175.4610  137.0060 C   0  0  0  0  0  2  0  0  0  0  0  0
  191.6360  175.3470  135.4920 C   0  0  0  0  0  2  0  0  0  0  0  0
  195.1910  176.7730  135.7570 N   0  0  0  0  0  0  0  0  0  0  0  0
  194.2970  177.0640  136.7320 O   0  0  0  0  0  0  0  0  0  0  0  0
  192.9840  175.5150  134.9740 N   0  0  0  0  0  2  0  0  0  0  0  0
  193.9550  176.2880  135.6700 C   0  0  0  0  0  0  0  0  0  0  0  0
  185.0520  177.9660  138.4680 O   0  0  0  0  0  0  0  0  0  0  0  0
  182.3180  180.3970  139.2430 C   0  0  1  0  0  3  0  0  0  0  0  0
  181.4880  179.4370  139.8480 O   0  0  0  0  0  0  0  0  0  0  0  0
  183.3850  179.7020  138.3960 C   0  0  0  0  0  2  0  0  0  0  0  0
  183.3190  177.9160  140.1630 C   0  0  1  0  0  3  0  0  0  0  0  0
  181.5550  181.2110  138.4350 F   0  0  0  0  0  0  0  0  0  0  0  0
  184.0640  177.2770  141.1360 F   0  0  0  0  0  0  0  0  0  0  0  0
  182.2630  178.7980  140.8300 C   0  0  0  0  0  2  0  0  0  0  0  0
  184.2240  178.7860  139.2850 C   0  0  1  0  0  3  0  0  0  0  0  0
  1  2  1  0  0  0  0
  2  7  1  1  0  0  0
  3 20  1  1  0  0  0
  3  4  1  0  0  0  0
  3  6  1  0  0  0  0
  4  1  1  0  0  0  0
  5  2  1  0  0  0  0
  6  5  2  0  0  0  0
  7  9  1  0  0  0  0
  8  9  2  0  0  0  0
  9 11  1  0  0  0  0
 10  9  2  0  0  0  0
 11 12  2  0  0  0  0
 11 17  1  0  0  0  0
 12 19  1  0  0  0  0
 15 14  1  0  0  0  0
 16 15  1  0  0  0  0
 16 13  1  0  0  0  0
 17 16  2  0  0  0  0
 18 12  1  0  0  0  0
 19 15  2  0  0  0  0
 20 29  1  6  0  0  0
 21 20  1  0  0  0  0
 23 24  1  0  0  0  0
 23 21  1  0  0  0  0
 24 22  2  0  0  0  0
 26 25  1  1  0  0  0
 26 24  1  0  0  0  0
 27 26  1  0  0  0  0
 28 27  1  0  0  0  0
 29 31  1  0  0  0  0
 31 30  1  6  0  0  0
 32 31  1  0  0  0  0
 33 32  1  0  0  0  0
 34 35  1  0  0  0  0
 36 33  1  0  0  0  0
 36 37  1  0  0  0  0
 37 34  2  0  0  0  0
 37 35  1  0  0  0  0
 38  6  1  0  0  0  0
 39 43  1  6  0  0  0
 39 40  1  0  0  0  0
 40 45  1  0  0  0  0
 41 39  1  0  0  0  0
 41 46  1  0  0  0  0
 42 45  1  0  0  0  0
 42 44  1  1  0  0  0
 46 38  1  6  0  0  0
 46 42  1  0  0  0  0
M  END
>  <MODEL>
3

>  <REMARK>
 VINA RESULT:      -6.8      1.896      2.345
  Name = 
  15 active torsions:
  status: ('A' for Active; 'I' for Inactive)
    1  A    between atoms: C_2  and  N_3
    2  A    between atoms: N_3  and  S_24
    3  A    between atoms: C_4  and  C_10
    4  A    between atoms: C_7  and  C_20
    5  A    between atoms: C_8  and  S_24
    6  A    between atoms: C_10  and  C_12
    7  A    between atoms: C_10  and  C_34
    8  A    between atoms: C_12  and  N_30
    9  A    between atoms: N_15  and  C_28
   10  A    between atoms: C_20  and  C_43
   11  A    between atoms: O_25  and  C_37
   12  A    between atoms: O_25  and  C_45
   13  A    between atoms: C_28  and  C_36
   14  A    between atoms: C_34  and  C_39
   15  A    between atoms: C_36  and  C_39
                            x       y       z     vdW  Elec       q    Type
                         _______ _______ _______ _____ _____    ______ ____

>  <TORSDO>
F 15

$$$$
=
 OpenBabel11062413233D

 46 49  0  0  1  0  0  0  0  0999 V2000
  190.0240  176.1900  141.7850 C   0  0  0  0  0  2  0  0  0  0  0  0
  190.9760  177.3890  141.8370 C   0  0  2  0  0  3  0  0  0  0  0  0
  189.8500  176.9740  139.3150 C   0  0  2  0  0  3  0  0  0  0  0  0
  189.3540  176.0050  140.4050 C   0  0  0  0  0  2  0  0  0  0  0  0
  191.8810  177.3810  140.6430 C   0  0  0  0  0  3  0  0  0  0  0  0
  191.3470  177.1780  139.4380 C   0  0  0  0  0  0  0  0  0  0  0  0
  191.7530  177.3570  143.0640 N   0  0  0  0  0  2  0  0  0  0  0  0
  190.2680  179.5290  143.2770 O   0  0  0  0  0  0  0  0  0  0  0  0
  191.1500  178.6180  144.0860 S   0  0  0  0  0  0  0  0  0  0  0  0
  192.3000  179.4170  144.6330 O   0  0  0  0  0  0  0  0  0  0  0  0
  190.2260  177.9270  145.4210 C   0  0  0  0  0  0  0  0  0  0  0  0
  190.7340  176.8720  146.2070 C   0  0  0  0  0  0  0  0  0  0  0  0
  186.9100  178.3390  146.9210 F   0  0  0  0  0  0  0  0  0  0  0  0
  187.9180  176.2750  148.4650 F   0  0  0  0  0  0  0  0  0  0  0  0
  188.6660  176.8170  147.4730 C   0  0  0  0  0  0  0  0  0  0  0  0
  188.1580  177.8610  146.6940 C   0  0  0  0  0  0  0  0  0  0  0  0
  188.9340  178.4090  145.6710 C   0  0  0  0  0  3  0  0  0  0  0  0
  192.0930  176.3070  145.9770 C   0  0  0  0  0  1  0  0  0  0  0  0
  189.9500  176.3260  147.2280 C   0  0  0  0  0  3  0  0  0  0  0  0
  189.0450  178.2890  139.3810 C   0  0  1  0  0  3  0  0  0  0  0  0
  189.1250  179.1900  138.1460 C   0  0  0  0  0  2  0  0  0  0  0  0
  187.0280  178.4280  136.3840 O   0  0  0  0  0  0  0  0  0  0  0  0
  189.2950  178.4120  136.9300 N   0  0  0  0  0  2  0  0  0  0  0  0
  188.1910  178.0200  136.1180 C   0  0  0  0  0  0  0  0  0  0  0  0
  189.7830  176.7790  134.8890 O   0  0  0  0  0  1  0  0  0  0  0  0
  188.4250  177.0900  134.9730 C   0  0  1  0  0  3  0  0  0  0  0  0
  187.6060  175.8180  135.1230 C   0  0  0  0  0  2  0  0  0  0  0  0
  188.0070  175.1350  136.2710 O   0  0  0  0  0  1  0  0  0  0  0  0
  187.6120  178.1350  139.9180 C   0  0  0  0  0  2  0  0  0  0  0  0
  186.1810  179.6770  141.0470 O   0  0  0  0  0  1  0  0  0  0  0  0
  187.3370  178.9140  141.2030 C   0  0  1  0  0  3  0  0  0  0  0  0
  187.1750  177.9760  142.3850 C   0  0  0  0  0  2  0  0  0  0  0  0
  185.7170  177.8940  142.8010 C   0  0  0  0  0  2  0  0  0  0  0  0
  183.6130  179.0670  145.7900 N   0  0  0  0  0  0  0  0  0  0  0  0
  183.0250  178.9770  144.5730 O   0  0  0  0  0  0  0  0  0  0  0  0
  185.5790  178.2290  144.2090 N   0  0  0  0  0  2  0  0  0  0  0  0
  184.3360  178.6680  144.7470 C   0  0  0  0  0  0  0  0  0  0  0  0
  192.1810  177.1390  138.3160 O   0  0  0  0  0  0  0  0  0  0  0  0
  191.6420  173.8140  136.6930 C   0  0  1  0  0  3  0  0  0  0  0  0
  191.9750  174.2670  135.4050 O   0  0  0  0  0  0  0  0  0  0  0  0
  191.3270  175.0050  137.5980 C   0  0  0  0  0  2  0  0  0  0  0  0
  193.0950  176.2040  136.2750 C   0  0  1  0  0  3  0  0  0  0  0  0
  190.5340  172.9980  136.6140 F   0  0  0  0  0  0  0  0  0  0  0  0
  194.3310  176.8170  136.3560 F   0  0  0  0  0  0  0  0  0  0  0  0
  193.2310  174.8880  135.5100 C   0  0  0  0  0  2  0  0  0  0  0  0
  192.5460  175.9220  137.6770 C   0  0  1  0  0  3  0  0  0  0  0  0
  1  2  1  0  0  0  0
  2  7  1  1  0  0  0
  3 20  1  1  0  0  0
  3  6  1  0  0  0  0
  3  4  1  0  0  0  0
  4  1  1  0  0  0  0
  5  2  1  0  0  0  0
  6  5  2  0  0  0  0
  7  9  1  0  0  0  0
  8  9  2  0  0  0  0
  9 10  2  0  0  0  0
  9 11  1  0  0  0  0
 11 17  2  0  0  0  0
 11 12  1  0  0  0  0
 12 19  2  0  0  0  0
 15 14  1  0  0  0  0
 16 13  1  0  0  0  0
 16 15  2  0  0  0  0
 17 16  1  0  0  0  0
 18 12  1  0  0  0  0
 19 15  1  0  0  0  0
 20 21  1  6  0  0  0
 20 29  1  0  0  0  0
 23 21  1  0  0  0  0
 24 22  2  0  0  0  0
 24 23  1  0  0  0  0
 26 25  1  1  0  0  0
 26 27  1  0  0  0  0
 26 24  1  0  0  0  0
 27 28  1  0  0  0  0
 29 31  1  0  0  0  0
 31 30  1  6  0  0  0
 31 32  1  0  0  0  0
 32 33  1  0  0  0  0
 33 36  1  0  0  0  0
 35 37  1  0  0  0  0
 35 34  1  0  0  0  0
 36 37  1  0  0  0  0
 37 34  2  0  0  0  0
 38  6  1  0  0  0  0
 39 43  1  6  0  0  0
 39 41  1  0  0  0  0
 40 45  1  0  0  0  0
 40 39  1  0  0  0  0
 41 46  1  0  0  0  0
 42 44  1  1  0  0  0
 42 46  1  0  0  0  0
 45 42  1  0  0  0  0
 46 38  1  6  0  0  0
M  END
>  <MODEL>
4

>  <REMARK>
 VINA RESULT:      -6.6      3.714      7.256
  Name = 
  15 active torsions:
  status: ('A' for Active; 'I' for Inactive)
    1  A    between atoms: C_2  and  N_3
    2  A    between atoms: N_3  and  S_24
    3  A    between atoms: C_4  and  C_10
    4  A    between atoms: C_7  and  C_20
    5  A    between atoms: C_8  and  S_24
    6  A    between atoms: C_10  and  C_12
    7  A    between atoms: C_10  and  C_34
    8  A    between atoms: C_12  and  N_30
    9  A    between atoms: N_15  and  C_28
   10  A    between atoms: C_20  and  C_43
   11  A    between atoms: O_25  and  C_37
   12  A    between atoms: O_25  and  C_45
   13  A    between atoms: C_28  and  C_36
   14  A    between atoms: C_34  and  C_39
   15  A    between atoms: C_36  and  C_39
                            x       y       z     vdW  Elec       q    Type
                         _______ _______ _______ _____ _____    ______ ____

>  <TORSDO>
F 15

$$$$
=
 OpenBabel11062413233D

 46 49  0  0  1  0  0  0  0  0999 V2000
  187.4700  178.4210  136.7830 C   0  0  0  0  0  2  0  0  0  0  0  0
  187.6740  176.9030  136.7350 C   0  0  2  0  0  3  0  0  0  0  0  0
  189.5470  178.2260  138.3300 C   0  0  2  0  0  3  0  0  0  0  0  0
  188.4680  179.1400  137.7180 C   0  0  0  0  0  2  0  0  0  0  0  0
  189.1250  176.5840  136.5470 C   0  0  0  0  0  3  0  0  0  0  0  0
  190.0230  177.2170  137.3030 C   0  0  0  0  0  0  0  0  0  0  0  0
  186.8830  176.3270  135.6610 N   0  0  0  0  0  2  0  0  0  0  0  0
  186.9020  174.4380  137.5060 O   0  0  0  0  0  0  0  0  0  0  0  0
  186.1530  174.8840  136.2810 S   0  0  0  0  0  0  0  0  0  0  0  0
  186.2270  173.7970  135.2450 O   0  0  0  0  0  0  0  0  0  0  0  0
  184.4640  175.1880  136.6940 C   0  0  0  0  0  0  0  0  0  0  0  0
  183.6060  174.1520  137.1160 C   0  0  0  0  0  0  0  0  0  0  0  0
  182.1380  178.0180  136.6820 F   0  0  0  0  0  0  0  0  0  0  0  0
  180.4630  175.9810  137.5190 F   0  0  0  0  0  0  0  0  0  0  0  0
  181.7670  175.7280  137.2500 C   0  0  0  0  0  0  0  0  0  0  0  0
  182.6140  176.7570  136.8280 C   0  0  0  0  0  0  0  0  0  0  0  0
  183.9550  176.4850  136.5490 C   0  0  0  0  0  3  0  0  0  0  0  0
  184.0860  172.7500  137.2720 C   0  0  0  0  0  1  0  0  0  0  0  0
  182.2640  174.4300  137.3920 C   0  0  0  0  0  3  0  0  0  0  0  0
  189.0080  177.5770  139.6230 C   0  0  1  0  0  3  0  0  0  0  0  0
  189.9110  176.5270  140.2760 C   0  0  0  0  0  2  0  0  0  0  0  0
  190.3830  175.3750  142.8320 O   0  0  0  0  0  0  0  0  0  0  0  0
  190.7370  177.1120  141.3180 N   0  0  0  0  0  2  0  0  0  0  0  0
  190.8900  176.5050  142.5990 C   0  0  0  0  0  0  0  0  0  0  0  0
  191.6790  178.6010  143.3550 O   0  0  0  0  0  1  0  0  0  0  0  0
  191.6250  177.2420  143.6700 C   0  0  1  0  0  3  0  0  0  0  0  0
  190.9620  177.0450  145.0240 C   0  0  0  0  0  2  0  0  0  0  0  0
  190.0660  178.0860  145.2630 O   0  0  0  0  0  1  0  0  0  0  0  0
  188.4120  178.5680  140.6360 C   0  0  0  0  0  2  0  0  0  0  0  0
  187.8530  177.7170  142.7950 O   0  0  0  0  0  1  0  0  0  0  0  0
  187.3250  177.9740  141.5300 C   0  0  1  0  0  3  0  0  0  0  0  0
  186.1420  178.9160  141.6510 C   0  0  0  0  0  2  0  0  0  0  0  0
  184.8620  178.1340  141.8840 C   0  0  0  0  0  2  0  0  0  0  0  0
  183.2900  179.9280  138.8760 N   0  0  0  0  0  0  0  0  0  0  0  0
  184.5790  179.5180  138.7910 O   0  0  0  0  0  0  0  0  0  0  0  0
  183.7420  178.8010  141.2400 N   0  0  0  0  0  2  0  0  0  0  0  0
  183.8460  179.3110  139.9160 C   0  0  0  0  0  0  0  0  0  0  0  0
  191.3830  176.9520  137.1210 O   0  0  0  0  0  0  0  0  0  0  0  0
  192.7400  173.5260  136.4870 C   0  0  1  0  0  3  0  0  0  0  0  0
  194.0760  173.8930  136.7220 O   0  0  0  0  0  0  0  0  0  0  0  0
  191.8940  174.7730  136.2320 C   0  0  0  0  0  2  0  0  0  0  0  0
  193.4200  175.8860  137.8890 C   0  0  1  0  0  3  0  0  0  0  0  0
  192.6830  172.7030  135.3830 F   0  0  0  0  0  0  0  0  0  0  0  0
  193.4710  176.5050  139.1240 F   0  0  0  0  0  0  0  0  0  0  0  0
  194.1050  174.5220  137.9780 C   0  0  0  0  0  2  0  0  0  0  0  0
  191.9660  175.6960  137.4470 C   0  0  1  0  0  3  0  0  0  0  0  0
  1  4  1  0  0  0  0
  2  7  1  6  0  0  0
  2  1  1  0  0  0  0
  3 20  1  1  0  0  0
  4  3  1  0  0  0  0
  5  2  1  0  0  0  0
  5  6  2  0  0  0  0
  6  3  1  0  0  0  0
  7  9  1  0  0  0  0
  9 11  1  0  0  0  0
  9  8  2  0  0  0  0
 10  9  2  0  0  0  0
 11 12  1  0  0  0  0
 12 18  1  0  0  0  0
 12 19  2  0  0  0  0
 13 16  1  0  0  0  0
 15 19  1  0  0  0  0
 15 14  1  0  0  0  0
 16 15  2  0  0  0  0
 17 11  2  0  0  0  0
 17 16  1  0  0  0  0
 20 21  1  1  0  0  0
 20 29  1  0  0  0  0
 21 23  1  0  0  0  0
 23 24  1  0  0  0  0
 24 22  2  0  0  0  0
 24 26  1  0  0  0  0
 26 25  1  6  0  0  0
 26 27  1  0  0  0  0
 27 28  1  0  0  0  0
 29 31  1  0  0  0  0
 31 32  1  0  0  0  0
 31 30  1  1  0  0  0
 32 33  1  0  0  0  0
 34 37  2  0  0  0  0
 35 34  1  0  0  0  0
 35 37  1  0  0  0  0
 36 33  1  0  0  0  0
 37 36  1  0  0  0  0
 38  6  1  0  0  0  0
 39 43  1  6  0  0  0
 39 40  1  0  0  0  0
 40 45  1  0  0  0  0
 41 39  1  0  0  0  0
 41 46  1  0  0  0  0
 42 45  1  0  0  0  0
 42 44  1  1  0  0  0
 46 38  1  6  0  0  0
 46 42  1  0  0  0  0
M  END
>  <MODEL>
5

>  <REMARK>
 VINA RESULT:      -6.4      3.098      9.401
  Name = 
  15 active torsions:
  status: ('A' for Active; 'I' for Inactive)
    1  A    between atoms: C_2  and  N_3
    2  A    between atoms: N_3  and  S_24
    3  A    between atoms: C_4  and  C_10
    4  A    between atoms: C_7  and  C_20
    5  A    between atoms: C_8  and  S_24
    6  A    between atoms: C_10  and  C_12
    7  A    between atoms: C_10  and  C_34
    8  A    between atoms: C_12  and  N_30
    9  A    between atoms: N_15  and  C_28
   10  A    between atoms: C_20  and  C_43
   11  A    between atoms: O_25  and  C_37
   12  A    between atoms: O_25  and  C_45
   13  A    between atoms: C_28  and  C_36
   14  A    between atoms: C_34  and  C_39
   15  A    between atoms: C_36  and  C_39
                            x       y       z     vdW  Elec       q    Type
                         _______ _______ _______ _____ _____    ______ ____

>  <TORSDO>
F 15

$$$$
=
 OpenBabel11062413233D

 46 49  0  0  1  0  0  0  0  0999 V2000
  187.6950  178.3310  137.0490 C   0  0  0  0  0  2  0  0  0  0  0  0
  187.3860  177.9080  138.4880 C   0  0  2  0  0  3  0  0  0  0  0  0
  185.6290  176.8210  136.6090 C   0  0  2  0  0  3  0  0  0  0  0  0
  186.7610  177.6750  136.0080 C   0  0  0  0  0  2  0  0  0  0  0  0
  185.9130  178.0030  138.7480 C   0  0  0  0  0  3  0  0  0  0  0  0
  185.0710  177.4890  137.8500 C   0  0  0  0  0  0  0  0  0  0  0  0
  188.1220  178.7420  139.4230 N   0  0  0  0  0  2  0  0  0  0  0  0
  190.4740  178.2220  140.5040 O   0  0  0  0  0  0  0  0  0  0  0  0
  189.0720  177.6850  140.4130 S   0  0  0  0  0  0  0  0  0  0  0  0
  189.1160  176.3170  139.7930 O   0  0  0  0  0  0  0  0  0  0  0  0
  188.3710  177.5760  142.0290 C   0  0  0  0  0  0  0  0  0  0  0  0
  188.9850  176.8280  143.0540 C   0  0  0  0  0  0  0  0  0  0  0  0
  185.3570  178.7320  143.7600 F   0  0  0  0  0  0  0  0  0  0  0  0
  186.5720  177.2690  145.7700 F   0  0  0  0  0  0  0  0  0  0  0  0
  187.1540  177.3730  144.5500 C   0  0  0  0  0  0  0  0  0  0  0  0
  186.5410  178.1130  143.5350 C   0  0  0  0  0  0  0  0  0  0  0  0
  187.1470  178.2090  142.2800 C   0  0  0  0  0  3  0  0  0  0  0  0
  190.2780  176.1180  142.8420 C   0  0  0  0  0  1  0  0  0  0  0  0
  188.3720  176.7330  144.3070 C   0  0  0  0  0  3  0  0  0  0  0  0
  186.1370  175.3850  136.8610 C   0  0  1  0  0  3  0  0  0  0  0  0
  185.0640  174.2960  136.9370 C   0  0  0  0  0  2  0  0  0  0  0  0
  182.6020  172.8980  137.1990 O   0  0  0  0  0  0  0  0  0  0  0  0
  183.7690  174.7930  136.5040 N   0  0  0  0  0  2  0  0  0  0  0  0
  182.5790  174.0170  136.6170 C   0  0  0  0  0  0  0  0  0  0  0  0
  180.3110  173.5670  136.1290 O   0  0  0  0  0  1  0  0  0  0  0  0
  181.3160  174.5280  136.0080 C   0  0  1  0  0  3  0  0  0  0  0  0
  180.8770  175.8280  136.6630 C   0  0  0  0  0  2  0  0  0  0  0  0
  180.7490  176.8220  135.6940 O   0  0  0  0  0  1  0  0  0  0  0  0
  187.3470  174.9750  136.0060 C   0  0  0  0  0  2  0  0  0  0  0  0
  187.6530  172.9210  134.8310 O   0  0  0  0  0  1  0  0  0  0  0  0
  187.7090  173.4950  136.1000 C   0  0  1  0  0  3  0  0  0  0  0  0
  189.0960  173.3080  136.6850 C   0  0  0  0  0  2  0  0  0  0  0  0
  189.7410  174.6550  136.9590 C   0  0  0  0  0  2  0  0  0  0  0  0
  193.1610  175.9530  138.1250 N   0  0  0  0  0  0  0  0  0  0  0  0
  192.3740  176.7660  137.3800 O   0  0  0  0  0  0  0  0  0  0  0  0
  191.0030  174.4730  137.6590 N   0  0  0  0  0  2  0  0  0  0  0  0
  191.9770  175.5090  137.7110 C   0  0  0  0  0  0  0  0  0  0  0  0
  183.6940  177.5940  138.0640 O   0  0  0  0  0  0  0  0  0  0  0  0
  181.2670  180.2750  139.0120 C   0  0  1  0  0  3  0  0  0  0  0  0
  180.6490  179.5120  140.0170 O   0  0  0  0  0  0  0  0  0  0  0  0
  182.0590  179.3610  138.0770 C   0  0  0  0  0  2  0  0  0  0  0  0
  182.5080  177.9970  140.1390 C   0  0  1  0  0  3  0  0  0  0  0  0
  180.3000  180.9390  138.2870 F   0  0  0  0  0  0  0  0  0  0  0  0
  183.5010  177.5400  140.9850 F   0  0  0  0  0  0  0  0  0  0  0  0
  181.6740  179.0550  140.8620 C   0  0  0  0  0  2  0  0  0  0  0  0
  183.1220  178.6110  138.8770 C   0  0  1  0  0  3  0  0  0  0  0  0
  1  2  1  0  0  0  0
  2  5  1  0  0  0  0
  2  7  1  1  0  0  0
  3 20  1  1  0  0  0
  3  6  1  0  0  0  0
  4  3  1  0  0  0  0
  4  1  1  0  0  0  0
  6 38  1  0  0  0  0
  6  5  2  0  0  0  0
  7  9  1  0  0  0  0
  9  8  2  0  0  0  0
  9 11  1  0  0  0  0
 10  9  2  0  0  0  0
 11 17  2  0  0  0  0
 11 12  1  0  0  0  0
 12 19  2  0  0  0  0
 15 14  1  0  0  0  0
 16 13  1  0  0  0  0
 16 15  2  0  0  0  0
 17 16  1  0  0  0  0
 18 12  1  0  0  0  0
 19 15  1  0  0  0  0
 20 29  1  6  0  0  0
 20 21  1  0  0  0  0
 23 24  1  0  0  0  0
 23 21  1  0  0  0  0
 24 22  2  0  0  0  0
 26 25  1  1  0  0  0
 26 24  1  0  0  0  0
 26 27  1  0  0  0  0
 28 27  1  0  0  0  0
 29 31  1  0  0  0  0
 31 30  1  6  0  0  0
 31 32  1  0  0  0  0
 32 33  1  0  0  0  0
 33 36  1  0  0  0  0
 35 37  1  0  0  0  0
 35 34  1  0  0  0  0
 36 37  1  0  0  0  0
 37 34  2  0  0  0  0
 39 43  1  6  0  0  0
 39 40  1  0  0  0  0
 40 45  1  0  0  0  0
 41 46  1  0  0  0  0
 41 39  1  0  0  0  0
 42 45  1  0  0  0  0
 42 44  1  1  0  0  0
 46 38  1  6  0  0  0
 46 42  1  0  0  0  0
M  END
>  <MODEL>
6

>  <REMARK>
 VINA RESULT:      -6.3      2.239      3.428
  Name = 
  15 active torsions:
  status: ('A' for Active; 'I' for Inactive)
    1  A    between atoms: C_2  and  N_3
    2  A    between atoms: N_3  and  S_24
    3  A    between atoms: C_4  and  C_10
    4  A    between atoms: C_7  and  C_20
    5  A    between atoms: C_8  and  S_24
    6  A    between atoms: C_10  and  C_12
    7  A    between atoms: C_10  and  C_34
    8  A    between atoms: C_12  and  N_30
    9  A    between atoms: N_15  and  C_28
   10  A    between atoms: C_20  and  C_43
   11  A    between atoms: O_25  and  C_37
   12  A    between atoms: O_25  and  C_45
   13  A    between atoms: C_28  and  C_36
   14  A    between atoms: C_34  and  C_39
   15  A    between atoms: C_36  and  C_39
                            x       y       z     vdW  Elec       q    Type
                         _______ _______ _______ _____ _____    ______ ____

>  <TORSDO>
F 15

$$$$
=
 OpenBabel11062413233D

 46 49  0  0  1  0  0  0  0  0999 V2000
  187.5780  175.9910  143.0800 C   0  0  0  0  0  2  0  0  0  0  0  0
  187.2800  177.4930  143.0650 C   0  0  2  0  0  3  0  0  0  0  0  0
  189.9970  176.8980  142.8200 C   0  0  2  0  0  3  0  0  0  0  0  0
  189.0750  175.6660  142.8790 C   0  0  0  0  0  2  0  0  0  0  0  0
  188.2520  178.2200  143.9420 C   0  0  0  0  0  3  0  0  0  0  0  0
  189.5500  177.9360  143.8310 C   0  0  0  0  0  0  0  0  0  0  0  0
  185.9170  177.7350  143.5060 N   0  0  0  0  0  2  0  0  0  0  0  0
  185.5020  178.2490  140.9500 O   0  0  0  0  0  0  0  0  0  0  0  0
  185.1710  178.7590  142.3260 S   0  0  0  0  0  0  0  0  0  0  0  0
  185.7000  180.1580  142.4650 O   0  0  0  0  0  0  0  0  0  0  0  0
  183.4200  178.7670  142.5500 C   0  0  0  0  0  0  0  0  0  0  0  0
  182.8370  178.8640  143.8300 C   0  0  0  0  0  0  0  0  0  0  0  0
  180.4200  178.4460  140.4730 F   0  0  0  0  0  0  0  0  0  0  0  0
  179.2830  178.6460  142.9880 F   0  0  0  0  0  0  0  0  0  0  0  0
  180.6300  178.6860  142.8400 C   0  0  0  0  0  0  0  0  0  0  0  0
  181.2050  178.5860  141.5690 C   0  0  0  0  0  0  0  0  0  0  0  0
  182.5930  178.6230  141.4280 C   0  0  0  0  0  3  0  0  0  0  0  0
  183.6650  179.0020  145.0610 C   0  0  0  0  0  1  0  0  0  0  0  0
  181.4460  178.8240  143.9650 C   0  0  0  0  0  3  0  0  0  0  0  0
  190.0560  177.4370  141.3740 C   0  0  1  0  0  3  0  0  0  0  0  0
  191.4550  177.6330  140.7850 C   0  0  0  0  0  2  0  0  0  0  0  0
  193.9270  177.1260  139.4740 O   0  0  0  0  0  0  0  0  0  0  0  0
  191.6040  176.9280  139.5230 N   0  0  0  0  0  2  0  0  0  0  0  0
  192.8710  176.7540  138.8930 C   0  0  0  0  0  0  0  0  0  0  0  0
  194.0530  176.6380  136.8500 O   0  0  0  0  0  1  0  0  0  0  0  0
  192.9270  176.1610  137.5240 C   0  0  1  0  0  3  0  0  0  0  0  0
  192.9600  174.6420  137.5850 C   0  0  0  0  0  2  0  0  0  0  0  0
  191.6570  174.1460  137.6120 O   0  0  0  0  0  1  0  0  0  0  0  0
  189.0860  176.7530  140.3970 C   0  0  0  0  0  2  0  0  0  0  0  0
  188.6780  179.0280  139.8030 O   0  0  0  0  0  1  0  0  0  0  0  0
  188.2740  177.7210  139.5380 C   0  0  1  0  0  3  0  0  0  0  0  0
  188.4500  177.4190  138.0620 C   0  0  0  0  0  2  0  0  0  0  0  0
  187.8850  178.5480  137.2190 C   0  0  0  0  0  2  0  0  0  0  0  0
  184.4070  176.9210  137.2800 N   0  0  0  0  0  0  0  0  0  0  0  0
  185.4840  176.1500  136.9960 O   0  0  0  0  0  0  0  0  0  0  0  0
  186.4430  178.6270  137.3900 N   0  0  0  0  0  2  0  0  0  0  0  0
  185.6160  177.4780  137.2500 C   0  0  0  0  0  0  0  0  0  0  0  0
  190.4680  178.5850  144.6600 O   0  0  0  0  0  0  0  0  0  0  0  0
  189.4600  177.8770  148.1910 C   0  0  1  0  0  3  0  0  0  0  0  0
  189.6770  176.4920  148.0900 O   0  0  0  0  0  0  0  0  0  0  0  0
  189.3570  178.4910  146.7950 C   0  0  0  0  0  2  0  0  0  0  0  0
  191.0520  176.7550  146.1400 C   0  0  1  0  0  3  0  0  0  0  0  0
  188.2850  178.1040  148.8750 F   0  0  0  0  0  0  0  0  0  0  0  0
  192.3370  176.5690  145.6660 F   0  0  0  0  0  0  0  0  0  0  0  0
  190.9840  176.3240  147.6050 C   0  0  0  0  0  2  0  0  0  0  0  0
  190.6500  178.2290  146.0260 C   0  0  1  0  0  3  0  0  0  0  0  0
  2  1  1  0  0  0  0
  2  7  1  1  0  0  0
  2  5  1  0  0  0  0
  3 20  1  6  0  0  0
  3  4  1  0  0  0  0
  3  6  1  0  0  0  0
  4  1  1  0  0  0  0
  6  5  2  0  0  0  0
  6 38  1  0  0  0  0
  8  9  2  0  0  0  0
  9 10  2  0  0  0  0
  9 11  1  0  0  0  0
  9  7  1  0  0  0  0
 11 12  1  0  0  0  0
 12 19  2  0  0  0  0
 12 18  1  0  0  0  0
 13 16  1  0  0  0  0
 15 14  1  0  0  0  0
 15 19  1  0  0  0  0
 16 15  2  0  0  0  0
 17 16  1  0  0  0  0
 17 11  2  0  0  0  0
 20 29  1  6  0  0  0
 21 20  1  0  0  0  0
 23 21  1  0  0  0  0
 24 22  2  0  0  0  0
 24 23  1  0  0  0  0
 26 25  1  1  0  0  0
 26 27  1  0  0  0  0
 26 24  1  0  0  0  0
 27 28  1  0  0  0  0
 31 30  1  6  0  0  0
 31 29  1  0  0  0  0
 32 31  1  0  0  0  0
 33 36  1  0  0  0  0
 33 32  1  0  0  0  0
 35 37  1  0  0  0  0
 35 34  1  0  0  0  0
 37 34  2  0  0  0  0
 37 36  1  0  0  0  0
 39 43  1  1  0  0  0
 40 39  1  0  0  0  0
 41 39  1  0  0  0  0
 42 44  1  1  0  0  0
 42 45  1  0  0  0  0
 45 40  1  0  0  0  0
 46 38  1  6  0  0  0
 46 42  1  0  0  0  0
 46 41  1  0  0  0  0
M  END
>  <MODEL>
7

>  <REMARK>
 VINA RESULT:      -6.2      2.946      8.363
  Name = 
  15 active torsions:
  status: ('A' for Active; 'I' for Inactive)
    1  A    between atoms: C_2  and  N_3
    2  A    between atoms: N_3  and  S_24
    3  A    between atoms: C_4  and  C_10
    4  A    between atoms: C_7  and  C_20
    5  A    between atoms: C_8  and  S_24
    6  A    between atoms: C_10  and  C_12
    7  A    between atoms: C_10  and  C_34
    8  A    between atoms: C_12  and  N_30
    9  A    between atoms: N_15  and  C_28
   10  A    between atoms: C_20  and  C_43
   11  A    between atoms: O_25  and  C_37
   12  A    between atoms: O_25  and  C_45
   13  A    between atoms: C_28  and  C_36
   14  A    between atoms: C_34  and  C_39
   15  A    between atoms: C_36  and  C_39
                            x       y       z     vdW  Elec       q    Type
                         _______ _______ _______ _____ _____    ______ ____

>  <TORSDO>
F 15

$$$$
=
 OpenBabel11062413233D

 46 49  0  0  1  0  0  0  0  0999 V2000
  187.0170  178.0040  136.7570 C   0  0  0  0  0  2  0  0  0  0  0  0
  187.4060  176.5250  136.8410 C   0  0  2  0  0  3  0  0  0  0  0  0
  189.1610  178.2140  138.2080 C   0  0  2  0  0  3  0  0  0  0  0  0
  187.9540  178.9270  137.5680 C   0  0  0  0  0  2  0  0  0  0  0  0
  188.8770  176.3650  136.6090 C   0  0  0  0  0  3  0  0  0  0  0  0
  189.7180  177.1730  137.2570 C   0  0  0  0  0  0  0  0  0  0  0  0
  186.6520  175.7540  135.8680 N   0  0  0  0  0  2  0  0  0  0  0  0
  184.1150  176.4480  135.6300 O   0  0  0  0  0  0  0  0  0  0  0  0
  185.0350  175.6080  136.4720 S   0  0  0  0  0  0  0  0  0  0  0  0
  184.9810  176.1010  137.8900 O   0  0  0  0  0  0  0  0  0  0  0  0
  184.5170  173.9210  136.4160 C   0  0  0  0  0  0  0  0  0  0  0  0
  183.2480  173.5200  136.8800 C   0  0  0  0  0  0  0  0  0  0  0  0
  185.9360  170.6810  135.4620 F   0  0  0  0  0  0  0  0  0  0  0  0
  183.4390  169.9020  136.3650 F   0  0  0  0  0  0  0  0  0  0  0  0
  183.7940  171.2100  136.3790 C   0  0  0  0  0  0  0  0  0  0  0  0
  185.0560  171.6040  135.9210 C   0  0  0  0  0  0  0  0  0  0  0  0
  185.4140  172.9530  135.9440 C   0  0  0  0  0  3  0  0  0  0  0  0
  182.2590  174.5000  137.4080 C   0  0  0  0  0  1  0  0  0  0  0  0
  182.8960  172.1670  136.8560 C   0  0  0  0  0  3  0  0  0  0  0  0
  188.7580  177.6360  139.5810 C   0  0  1  0  0  3  0  0  0  0  0  0
  189.7610  176.6790  140.2290 C   0  0  0  0  0  2  0  0  0  0  0  0
  190.3160  175.5250  142.7680 O   0  0  0  0  0  0  0  0  0  0  0  0
  190.4980  177.3280  141.3010 N   0  0  0  0  0  2  0  0  0  0  0  0
  190.6960  176.7120  142.5700 C   0  0  0  0  0  0  0  0  0  0  0  0
  190.8600  178.8150  143.6340 O   0  0  0  0  0  1  0  0  0  0  0  0
  191.3240  177.5000  143.6720 C   0  0  1  0  0  3  0  0  0  0  0  0
  191.0280  176.8800  145.0280 C   0  0  0  0  0  2  0  0  0  0  0  0
  190.2720  177.7660  145.7940 O   0  0  0  0  0  1  0  0  0  0  0  0
  188.1920  178.6700  140.5690 C   0  0  0  0  0  2  0  0  0  0  0  0
  187.4650  177.8680  142.6960 O   0  0  0  0  0  1  0  0  0  0  0  0
  187.0210  178.1610  141.4080 C   0  0  1  0  0  3  0  0  0  0  0  0
  185.9080  179.1900  141.4710 C   0  0  0  0  0  2  0  0  0  0  0  0
  184.9210  178.9740  140.3380 C   0  0  0  0  0  2  0  0  0  0  0  0
  181.4990  177.3300  139.7670 N   0  0  0  0  0  0  0  0  0  0  0  0
  182.1860  177.7960  138.6970 O   0  0  0  0  0  0  0  0  0  0  0  0
  183.7180  178.3290  140.8380 N   0  0  0  0  0  2  0  0  0  0  0  0
  182.6830  177.9070  139.9560 C   0  0  0  0  0  0  0  0  0  0  0  0
  191.0920  177.0550  137.0310 O   0  0  0  0  0  0  0  0  0  0  0  0
  192.9060  173.8390  136.4450 C   0  0  1  0  0  3  0  0  0  0  0  0
  194.1750  174.3780  136.7180 O   0  0  0  0  0  0  0  0  0  0  0  0
  191.9120  174.9650  136.1620 C   0  0  0  0  0  2  0  0  0  0  0  0
  193.2290  176.2660  137.8600 C   0  0  1  0  0  3  0  0  0  0  0  0
  192.9900  173.0180  135.3410 F   0  0  0  0  0  0  0  0  0  0  0  0
  193.1620  176.8850  139.0950 F   0  0  0  0  0  0  0  0  0  0  0  0
  194.0850  175.0040  137.9720 C   0  0  0  0  0  2  0  0  0  0  0  0
  191.8260  175.8870  137.3770 C   0  0  1  0  0  3  0  0  0  0  0  0
  1  2  1  0  0  0  0
  1  4  1  0  0  0  0
  2  7  1  6  0  0  0
  3 20  1  1  0  0  0
  4  3  1  0  0  0  0
  5  2  1  0  0  0  0
  5  6  2  0  0  0  0
  6  3  1  0  0  0  0
  7  9  1  0  0  0  0
  8  9  2  0  0  0  0
  9 10  2  0  0  0  0
 11  9  1  0  0  0  0
 11 12  1  0  0  0  0
 12 18  1  0  0  0  0
 13 16  1  0  0  0  0
 14 15  1  0  0  0  0
 15 19  1  0  0  0  0
 16 17  1  0  0  0  0
 16 15  2  0  0  0  0
 17 11  2  0  0  0  0
 19 12  2  0  0  0  0
 20 21  1  1  0  0  0
 20 29  1  0  0  0  0
 21 23  1  0  0  0  0
 23 24  1  0  0  0  0
 24 22  2  0  0  0  0
 24 26  1  0  0  0  0
 26 25  1  1  0  0  0
 26 27  1  0  0  0  0
 27 28  1  0  0  0  0
 29 31  1  0  0  0  0
 31 32  1  0  0  0  0
 31 30  1  1  0  0  0
 33 36  1  0  0  0  0
 33 32  1  0  0  0  0
 34 37  2  0  0  0  0
 35 34  1  0  0  0  0
 35 37  1  0  0  0  0
 37 36  1  0  0  0  0
 38  6  1  0  0  0  0
 39 43  1  6  0  0  0
 39 40  1  0  0  0  0
 40 45  1  0  0  0  0
 41 39  1  0  0  0  0
 41 46  1  0  0  0  0
 42 45  1  0  0  0  0
 42 44  1  1  0  0  0
 46 38  1  6  0  0  0
 46 42  1  0  0  0  0
M  END
>  <MODEL>
8

>  <REMARK>
 VINA RESULT:      -6.1      3.593      9.638
  Name = 
  15 active torsions:
  status: ('A' for Active; 'I' for Inactive)
    1  A    between atoms: C_2  and  N_3
    2  A    between atoms: N_3  and  S_24
    3  A    between atoms: C_4  and  C_10
    4  A    between atoms: C_7  and  C_20
    5  A    between atoms: C_8  and  S_24
    6  A    between atoms: C_10  and  C_12
    7  A    between atoms: C_10  and  C_34
    8  A    between atoms: C_12  and  N_30
    9  A    between atoms: N_15  and  C_28
   10  A    between atoms: C_20  and  C_43
   11  A    between atoms: O_25  and  C_37
   12  A    between atoms: O_25  and  C_45
   13  A    between atoms: C_28  and  C_36
   14  A    between atoms: C_34  and  C_39
   15  A    between atoms: C_36  and  C_39
                            x       y       z     vdW  Elec       q    Type
                         _______ _______ _______ _____ _____    ______ ____

>  <TORSDO>
F 15

$$$$
=
 OpenBabel11062413233D

 46 49  0  0  1  0  0  0  0  0999 V2000
  182.3020  176.5310  140.1010 C   0  0  0  0  0  2  0  0  0  0  0  0
  183.3510  177.6350  140.2650 C   0  0  2  0  0  3  0  0  0  0  0  0
  181.9350  177.7970  137.8630 C   0  0  2  0  0  3  0  0  0  0  0  0
  181.4760  176.6640  138.8020 C   0  0  0  0  0  2  0  0  0  0  0  0
  184.1210  177.8070  138.9920 C   0  0  0  0  0  3  0  0  0  0  0  0
  183.4480  177.8800  137.8420 C   0  0  0  0  0  0  0  0  0  0  0  0
  184.2470  177.3120  141.3620 N   0  0  0  0  0  2  0  0  0  0  0  0
  183.1510  179.3710  142.5990 O   0  0  0  0  0  0  0  0  0  0  0  0
  184.4890  178.7660  142.2710 S   0  0  0  0  0  0  0  0  0  0  0  0
  185.2760  179.7490  141.4510 O   0  0  0  0  0  0  0  0  0  0  0  0
  185.3630  178.4110  143.7620 C   0  0  0  0  0  0  0  0  0  0  0  0
  186.6760  177.8990  143.7480 C   0  0  0  0  0  0  0  0  0  0  0  0
  184.7120  178.4770  147.3660 F   0  0  0  0  0  0  0  0  0  0  0  0
  187.2930  177.4810  147.3300 F   0  0  0  0  0  0  0  0  0  0  0  0
  186.6610  177.7860  146.1710 C   0  0  0  0  0  0  0  0  0  0  0  0
  185.3570  178.2910  146.1890 C   0  0  0  0  0  0  0  0  0  0  0  0
  184.7120  178.5980  144.9890 C   0  0  0  0  0  3  0  0  0  0  0  0
  187.4130  177.6630  142.4740 C   0  0  0  0  0  1  0  0  0  0  0  0
  187.3150  177.5910  144.9530 C   0  0  0  0  0  3  0  0  0  0  0  0
  181.2540  179.1200  138.2730 C   0  0  1  0  0  3  0  0  0  0  0  0
  181.7650  180.3840  137.5760 C   0  0  0  0  0  2  0  0  0  0  0  0
  180.8990  181.7350  135.2290 O   0  0  0  0  0  0  0  0  0  0  0  0
  180.7430  181.4170  137.5330 N   0  0  0  0  0  2  0  0  0  0  0  0
  180.3940  182.0920  136.3280 C   0  0  0  0  0  0  0  0  0  0  0  0
  179.0130  183.4310  137.7020 O   0  0  0  0  0  1  0  0  0  0  0  0
  179.4510  183.2480  136.3890 C   0  0  1  0  0  3  0  0  0  0  0  0
  180.1080  184.5200  135.8760 C   0  0  0  0  0  2  0  0  0  0  0  0
  181.4520  184.5350  136.2450 O   0  0  0  0  0  1  0  0  0  0  0  0
  179.7200  179.0550  138.3450 C   0  0  0  0  0  2  0  0  0  0  0  0
  178.9350  177.7310  140.1700 O   0  0  0  0  0  1  0  0  0  0  0  0
  179.1580  179.0460  139.7660 C   0  0  1  0  0  3  0  0  0  0  0  0
  180.1100  179.7240  140.7330 C   0  0  0  0  0  2  0  0  0  0  0  0
  179.3720  180.7550  141.5690 C   0  0  0  0  0  2  0  0  0  0  0  0
  179.7480  178.2400  144.4450 N   0  0  0  0  0  0  0  0  0  0  0  0
  179.6400  177.7710  143.1780 O   0  0  0  0  0  0  0  0  0  0  0  0
  179.5120  180.4470  142.9830 N   0  0  0  0  0  2  0  0  0  0  0  0
  179.6110  179.1040  143.4420 C   0  0  0  0  0  0  0  0  0  0  0  0
  184.1530  178.0120  136.6430 O   0  0  0  0  0  0  0  0  0  0  0  0
  187.2100  175.8860  136.3020 C   0  0  1  0  0  3  0  0  0  0  0  0
  186.6150  174.7480  136.8740 O   0  0  0  0  0  0  0  0  0  0  0  0
  186.3940  177.1310  136.6510 C   0  0  0  0  0  2  0  0  0  0  0  0
  184.4030  175.6050  136.5040 C   0  0  1  0  0  3  0  0  0  0  0  0
  188.4880  176.0270  136.7980 F   0  0  0  0  0  0  0  0  0  0  0  0
  183.2280  175.3600  135.8170 F   0  0  0  0  0  0  0  0  0  0  0  0
  185.4240  174.5190  136.1650 C   0  0  0  0  0  2  0  0  0  0  0  0
  184.9710  176.9730  136.1180 C   0  0  1  0  0  3  0  0  0  0  0  0
  1  2  1  0  0  0  0
  2  7  1  1  0  0  0
  3 20  1  1  0  0  0
  3  4  1  0  0  0  0
  4  1  1  0  0  0  0
  5  2  1  0  0  0  0
  6  3  1  0  0  0  0
  6  5  2  0  0  0  0
  7  9  1  0  0  0  0
  9  8  2  0  0  0  0
  9 11  1  0  0  0  0
 10  9  2  0  0  0  0
 11 17  1  0  0  0  0
 12 11  2  0  0  0  0
 12 19  1  0  0  0  0
 15 16  1  0  0  0  0
 15 14  1  0  0  0  0
 16 13  1  0  0  0  0
 17 16  2  0  0  0  0
 18 12  1  0  0  0  0
 19 15  2  0  0  0  0
 20 21  1  6  0  0  0
 20 29  1  0  0  0  0
 22 24  2  0  0  0  0
 23 21  1  0  0  0  0
 24 26  1  0  0  0  0
 24 23  1  0  0  0  0
 26 25  1  1  0  0  0
 27 28  1  0  0  0  0
 27 26  1  0  0  0  0
 29 31  1  0  0  0  0
 31 30  1  1  0  0  0
 31 32  1  0  0  0  0
 32 33  1  0  0  0  0
 33 36  1  0  0  0  0
 35 37  1  0  0  0  0
 35 34  1  0  0  0  0
 36 37  1  0  0  0  0
 37 34  2  0  0  0  0
 38  6  1  0  0  0  0
 39 41  1  0  0  0  0
 39 43  1  1  0  0  0
 39 40  1  0  0  0  0
 42 44  1  6  0  0  0
 45 42  1  0  0  0  0
 45 40  1  0  0  0  0
 46 42  1  0  0  0  0
 46 38  1  1  0  0  0
 46 41  1  0  0  0  0
M  END
>  <MODEL>
9

>  <REMARK>
 VINA RESULT:      -6.0      4.463      9.045
  Name = 
  15 active torsions:
  status: ('A' for Active; 'I' for Inactive)
    1  A    between atoms: C_2  and  N_3
    2  A    between atoms: N_3  and  S_24
    3  A    between atoms: C_4  and  C_10
    4  A    between atoms: C_7  and  C_20
    5  A    between atoms: C_8  and  S_24
    6  A    between atoms: C_10  and  C_12
    7  A    between atoms: C_10  and  C_34
    8  A    between atoms: C_12  and  N_30
    9  A    between atoms: N_15  and  C_28
   10  A    between atoms: C_20  and  C_43
   11  A    between atoms: O_25  and  C_37
   12  A    between atoms: O_25  and  C_45
   13  A    between atoms: C_28  and  C_36
   14  A    between atoms: C_34  and  C_39
   15  A    between atoms: C_36  and  C_39
                            x       y       z     vdW  Elec       q    Type
                         _______ _______ _______ _____ _____    ______ ____

>  <TORSDO>
F 15

$$$$
