=
 OpenBabel11062412453D

 54 61  0  0  1  0  0  0  0  0999 V2000
  190.2100  176.7500  146.8270 O   0  0  0  0  0  0  0  0  0  0  0  0
  190.3750  177.1900  143.5610 C   0  0  2  0  0  3  0  0  0  0  0  0
  189.5240  178.3680  138.2020 N   0  0  0  0  0  2  0  0  0  0  0  0
  187.3170  178.0890  145.4080 C   0  0  2  0  0  3  0  0  0  0  0  0
  191.3840  176.9760  138.8250 C   0  0  2  0  0  3  0  0  0  0  0  0
  186.8120  177.8240  141.4110 O   0  0  0  0  0  0  0  0  0  0  0  0
  191.6790  177.0920  141.3820 C   0  0  1  0  0  3  0  0  0  0  0  0
  191.8330  177.8070  140.0440 C   0  0  0  0  0  2  0  0  0  0  0  0
  187.4490  177.7580  139.1030 C   0  0  0  0  0  2  0  0  0  0  0  0
  189.0520  177.1440  146.5320 C   0  0  0  0  0  0  0  0  0  0  0  0
  189.4520  176.5680  142.5360 C   0  0  2  0  0  3  0  0  0  0  0  0
  188.9390  177.7310  139.3780 C   0  0  1  0  0  0  0  0  0  0  0  0
  187.9220  177.2020  147.4520 C   0  0  0  0  0  2  0  0  0  0  0  0
  186.7360  178.5280  140.2050 C   0  0  0  0  0  2  0  0  0  0  0  0
  192.8340  177.3140  142.1400 O   0  0  0  0  0  1  0  0  0  0  0  0
  186.8810  177.8570  146.7500 O   0  0  0  0  0  0  0  0  0  0  0  0
  189.6330  178.2570  144.3480 C   0  0  0  0  0  2  0  0  0  0  0  0
  186.4170  177.3090  144.4440 C   0  0  0  0  0  2  0  0  0  0  0  0
  189.8880  176.9820  138.4600 C   0  0  1  0  0  0  0  0  0  0  0  0
  189.2120  176.3690  139.5050 O   0  0  0  0  0  0  0  0  0  0  0  0
  186.5800  178.7790  142.3960 C   0  0  0  0  0  2  0  0  0  0  0  0
  185.6560  178.2080  143.4580 C   0  0  2  0  0  3  0  0  0  0  0  0
  188.6920  177.6490  145.2790 N   0  0  0  0  0  0  0  0  0  0  0  0
  189.8970  175.2760  142.2460 O   0  0  0  0  0  1  0  0  0  0  0  0
  190.4560  177.6500  142.1150 C   0  0  1  0  0  3  0  0  0  0  0  0
  191.9190  175.6180  138.8520 N   0  0  0  0  0  2  0  0  0  0  0  0
  192.2210  175.2280  137.4810 C   0  0  1  0  0  3  0  0  0  0  0  0
  193.1400  176.2610  136.8570 C   0  0  0  0  0  1  0  0  0  0  0  0
  192.8490  173.9790  137.4700 O   0  0  0  0  0  0  0  0  0  0  0  0
  194.2090  174.2620  137.6230 C   0  0  0  0  0  2  0  0  0  0  0  0
  194.9660  172.9920  137.9900 C   0  0  1  0  0  3  0  0  0  0  0  0
  195.9460  173.3930  135.7300 O   0  0  0  0  0  0  0  0  0  0  0  0
  196.5770  171.5570  136.9440 O   0  0  0  0  0  1  0  0  0  0  0  0
  195.8740  172.5990  136.8670 C   0  0  0  0  0  0  0  0  0  0  0  0
  195.7080  173.1940  139.1580 O   0  0  0  0  0  0  0  0  0  0  0  0
  198.0870  175.6880  138.3370 O   0  0  0  0  0  1  0  0  0  0  0  0
  197.6670  174.5300  138.9930 C   0  0  2  0  0  3  0  0  0  0  0  0
  196.9100  176.2240  140.5530 O   0  0  0  0  0  1  0  0  0  0  0  0
  196.1530  174.5170  139.0810 C   0  0  2  0  0  3  0  0  0  0  0  0
  196.9680  174.8490  140.3160 C   0  0  1  0  0  3  0  0  0  0  0  0
  184.8890  179.3380  144.1380 C   0  0  0  0  0  2  0  0  0  0  0  0
  182.5540  178.5140  145.1640 O   0  0  0  0  0  0  0  0  0  0  0  0
  182.4870  180.5080  143.7290 O   0  0  0  0  0  0  0  0  0  0  0  0
  183.1240  179.1580  143.9300 S   0  0  0  0  0  0  0  0  0  0  0  0
  182.8220  178.1550  142.5500 N   0  0  0  0  0  2  0  0  0  0  0  0
  182.3650  179.0040  141.4510 C   0  0  1  0  0  3  0  0  0  0  0  0
  180.0930  178.1260  142.0590 C   0  0  0  0  0  2  0  0  0  0  0  0
  183.1580  178.7040  140.1630 C   0  0  0  0  0  2  0  0  0  0  0  0
  180.8430  178.9300  141.2100 C   0  0  2  0  0  3  0  0  0  0  0  0
  182.0510  176.7130  138.9740 C   0  0  0  0  0  2  0  0  0  0  0  0
  180.8680  176.4990  139.8580 C   0  0  0  0  0  0  0  0  0  0  0  0
  183.2510  177.2100  139.7920 C   0  0  0  0  0  2  0  0  0  0  0  0
  180.5550  177.5410  140.7640 N   0  0  0  0  0  0  0  0  0  0  0  0
  180.4100  175.3080  140.0560 N   0  0  0  0  0  2  0  0  0  0  0  0
  2 17  1  1  0  0  0
  3 12  1  0  0  0  0
  4 18  1  6  0  0  0
  4 16  1  0  0  0  0
  5 26  1  1  0  0  0
  5  8  1  0  0  0  0
  6 21  1  0  0  0  0
  7 25  1  0  0  0  0
  7 15  1  1  0  0  0
  8  7  1  0  0  0  0
  9 14  1  0  0  0  0
 10  1  2  0  0  0  0
 10 13  1  0  0  0  0
 11 24  1  6  0  0  0
 11  2  1  0  0  0  0
 12  9  1  6  0  0  0
 12 20  1  0  0  0  0
 14  6  1  0  0  0  0
 16 13  1  0  0  0  0
 17 23  1  0  0  0  0
 19  3  1  6  0  0  0
 19  5  1  0  0  0  0
 19 12  1  0  0  0  0
 19 20  1  0  0  0  0
 21 22  1  0  0  0  0
 22 41  1  1  0  0  0
 22 18  1  0  0  0  0
 23  4  1  0  0  0  0
 23 10  1  0  0  0  0
 25 11  1  0  0  0  0
 25  2  1  0  0  0  0
 27 26  1  0  0  0  0
 28 27  1  0  0  0  0
 29 27  1  0  0  0  0
 29 30  1  0  0  0  0
 30 31  1  0  0  0  0
 31 35  1  0  0  0  0
 32 34  2  0  0  0  0
 34 33  1  0  0  0  0
 34 31  1  0  0  0  0
 36 37  1  0  0  0  0
 37 39  1  0  0  0  0
 37 40  1  0  0  0  0
 39 35  1  0  0  0  0
 39 40  1  0  0  0  0
 40 38  1  0  0  0  0
 43 44  2  0  0  0  0
 44 41  1  0  0  0  0
 44 42  2  0  0  0  0
 45 44  1  0  0  0  0
 46 45  1  0  0  0  0
 48 46  1  0  0  0  0
 49 46  1  0  0  0  0
 49 47  1  0  0  0  0
 50 52  1  0  0  0  0
 50 51  1  0  0  0  0
 51 54  2  0  0  0  0
 51 53  1  0  0  0  0
 52 48  1  0  0  0  0
 53 49  1  0  0  0  0
 53 47  1  0  0  0  0
M  END
>  <MODEL>
1

>  <REMARK>
 VINA RESULT:      -7.2      0.000      0.000
  Name = 
  12 active torsions:
  status: ('A' for Active; 'I' for Inactive)
    1  A    between atoms: C_4  and  N_10
    2  A    between atoms: C_8  and  N_23
    3  A    between atoms: O_9  and  C_28
    4  A    between atoms: O_9  and  C_40
    5  A    between atoms: N_10  and  S_43
    6  A    between atoms: O_17  and  C_41
    7  A    between atoms: O_17  and  C_45
    8  A    between atoms: N_23  and  C_28
    9  A    between atoms: C_29  and  S_43
   10  A    between atoms: C_29  and  C_49
   11  A    between atoms: C_40  and  C_41
   12  A    between atoms: C_41  and  C_52
                            x       y       z     vdW  Elec       q    Type
                         _______ _______ _______ _____ _____    ______ ____

>  <TORSDO>
F 12

$$$$
=
 OpenBabel11062412453D

 54 61  0  0  1  0  0  0  0  0999 V2000
  188.3840  178.2080  145.4180 O   0  0  0  0  0  0  0  0  0  0  0  0
  186.3660  178.0890  142.8090 C   0  0  2  0  0  3  0  0  0  0  0  0
  183.9770  177.5470  137.8270 N   0  0  0  0  0  2  0  0  0  0  0  0
  189.9440  177.2980  142.4330 C   0  0  2  0  0  3  0  0  0  0  0  0
  182.7970  178.6860  139.5860 C   0  0  2  0  0  3  0  0  0  0  0  0
  188.0360  178.0140  138.9470 O   0  0  0  0  0  0  0  0  0  0  0  0
  184.0390  178.2840  141.8060 C   0  0  1  0  0  3  0  0  0  0  0  0
  183.1520  177.6980  140.7140 C   0  0  0  0  0  2  0  0  0  0  0  0
  186.1790  178.2540  137.4530 C   0  0  0  0  0  2  0  0  0  0  0  0
  189.1640  177.9560  144.4630 C   0  0  0  0  0  0  0  0  0  0  0  0
  186.5130  178.8950  141.5390 C   0  0  2  0  0  3  0  0  0  0  0  0
  185.1230  178.1130  138.5310 C   0  0  1  0  0  0  0  0  0  0  0  0
  190.6190  177.9110  144.5530 C   0  0  0  0  0  2  0  0  0  0  0  0
  187.4130  177.4470  137.8310 C   0  0  0  0  0  2  0  0  0  0  0  0
  183.5410  177.8780  143.0490 O   0  0  0  0  0  1  0  0  0  0  0  0
  191.0720  177.4320  143.3010 O   0  0  0  0  0  0  0  0  0  0  0  0
  187.4460  177.0210  142.8750 C   0  0  0  0  0  2  0  0  0  0  0  0
  190.1050  178.2530  141.2450 C   0  0  0  0  0  2  0  0  0  0  0  0
  183.8050  178.8580  138.4340 C   0  0  1  0  0  0  0  0  0  0  0  0
  184.9500  179.4230  138.9770 O   0  0  0  0  0  0  0  0  0  0  0  0
  188.8130  176.9900  139.4800 C   0  0  0  0  0  2  0  0  0  0  0  0
  190.1710  177.5340  139.8900 C   0  0  2  0  0  3  0  0  0  0  0  0
  188.7410  177.6170  143.1740 N   0  0  0  0  0  0  0  0  0  0  0  0
  185.9590  180.1620  141.7350 O   0  0  0  0  0  1  0  0  0  0  0  0
  185.4710  177.7720  141.6230 C   0  0  1  0  0  3  0  0  0  0  0  0
  182.3530  179.9790  140.0990 N   0  0  0  0  0  2  0  0  0  0  0  0
  180.9030  180.0410  139.9640 C   0  0  1  0  0  3  0  0  0  0  0  0
  180.2620  179.7730  141.3130 C   0  0  0  0  0  1  0  0  0  0  0  0
  180.5220  181.3060  139.5100 O   0  0  0  0  0  0  0  0  0  0  0  0
  181.4310  181.6070  138.4910 C   0  0  0  0  0  2  0  0  0  0  0  0
  180.6810  181.9830  137.2200 C   0  0  1  0  0  3  0  0  0  0  0  0
  179.5070  179.8280  136.7650 O   0  0  0  0  0  1  0  0  0  0  0  0
  181.1280  180.5760  135.3300 O   0  0  0  0  0  0  0  0  0  0  0  0
  180.4600  180.7630  136.3810 C   0  0  0  0  0  0  0  0  0  0  0  0
  179.4540  182.5720  137.5400 O   0  0  0  0  0  0  0  0  0  0  0  0
  180.8270  184.9440  135.2940 O   0  0  0  0  0  1  0  0  0  0  0  0
  180.8280  184.1880  136.4680 C   0  0  2  0  0  3  0  0  0  0  0  0
  179.5120  186.0980  137.1700 O   0  0  0  0  0  1  0  0  0  0  0  0
  179.4120  183.7520  136.7930 C   0  0  2  0  0  3  0  0  0  0  0  0
  180.0480  184.8780  137.5870 C   0  0  1  0  0  3  0  0  0  0  0  0
  191.2100  176.4180  139.8450 C   0  0  0  0  0  2  0  0  0  0  0  0
  190.7680  174.5540  137.9700 O   0  0  0  0  0  0  0  0  0  0  0  0
  190.9990  176.8720  137.1890 O   0  0  0  0  0  0  0  0  0  0  0  0
  191.5010  175.8510  138.1760 S   0  0  0  0  0  0  0  0  0  0  0  0
  193.2020  175.6070  137.9560 N   0  0  0  0  0  2  0  0  0  0  0  0
  193.4000  174.3500  137.2370 C   0  0  1  0  0  3  0  0  0  0  0  0
  195.4620  174.1600  138.6570 C   0  0  0  0  0  2  0  0  0  0  0  0
  193.3450  174.5780  135.7120 C   0  0  0  0  0  2  0  0  0  0  0  0
  194.6830  173.6000  137.6520 C   0  0  2  0  0  3  0  0  0  0  0  0
  195.6770  175.3050  134.9160 C   0  0  0  0  0  2  0  0  0  0  0  0
  196.4440  175.1830  136.1900 C   0  0  0  0  0  0  0  0  0  0  0  0
  194.2300  175.7310  135.1970 C   0  0  0  0  0  2  0  0  0  0  0  0
  195.8240  174.4610  137.2390 N   0  0  0  0  0  0  0  0  0  0  0  0
  197.4110  175.9990  136.4490 N   0  0  0  0  0  2  0  0  0  0  0  0
  2 17  1  6  0  0  0
  3 12  1  0  0  0  0
  4 18  1  6  0  0  0
  4 23  1  0  0  0  0
  4 16  1  0  0  0  0
  5 26  1  1  0  0  0
  5  8  1  0  0  0  0
  6 21  1  0  0  0  0
  7 15  1  1  0  0  0
  8  7  1  0  0  0  0
  9 14  1  0  0  0  0
 10 13  1  0  0  0  0
 10  1  2  0  0  0  0
 11 25  1  0  0  0  0
 11 24  1  1  0  0  0
 11  2  1  0  0  0  0
 12  9  1  6  0  0  0
 12 20  1  0  0  0  0
 14  6  1  0  0  0  0
 16 13  1  0  0  0  0
 17 23  1  0  0  0  0
 19  3  1  6  0  0  0
 19 12  1  0  0  0  0
 19 20  1  0  0  0  0
 19  5  1  0  0  0  0
 21 22  1  0  0  0  0
 22 41  1  1  0  0  0
 22 18  1  0  0  0  0
 23 10  1  0  0  0  0
 25  7  1  0  0  0  0
 25  2  1  0  0  0  0
 27 26  1  0  0  0  0
 27 28  1  0  0  0  0
 29 27  1  0  0  0  0
 30 29  1  0  0  0  0
 31 35  1  0  0  0  0
 31 30  1  0  0  0  0
 33 34  2  0  0  0  0
 34 32  1  0  0  0  0
 34 31  1  0  0  0  0
 36 37  1  0  0  0  0
 37 39  1  0  0  0  0
 37 40  1  0  0  0  0
 38 40  1  0  0  0  0
 39 35  1  0  0  0  0
 39 40  1  0  0  0  0
 42 44  2  0  0  0  0
 43 44  2  0  0  0  0
 44 41  1  0  0  0  0
 45 44  1  0  0  0  0
 46 49  1  0  0  0  0
 46 45  1  0  0  0  0
 48 46  1  0  0  0  0
 49 47  1  0  0  0  0
 50 52  1  0  0  0  0
 50 51  1  0  0  0  0
 51 54  2  0  0  0  0
 51 53  1  0  0  0  0
 52 48  1  0  0  0  0
 53 49  1  0  0  0  0
 53 47  1  0  0  0  0
M  END
>  <MODEL>
2

>  <REMARK>
 VINA RESULT:      -6.9      4.114     11.913
  Name = 
  12 active torsions:
  status: ('A' for Active; 'I' for Inactive)
    1  A    between atoms: C_4  and  N_10
    2  A    between atoms: C_8  and  N_23
    3  A    between atoms: O_9  and  C_28
    4  A    between atoms: O_9  and  C_40
    5  A    between atoms: N_10  and  S_43
    6  A    between atoms: O_17  and  C_41
    7  A    between atoms: O_17  and  C_45
    8  A    between atoms: N_23  and  C_28
    9  A    between atoms: C_29  and  S_43
   10  A    between atoms: C_29  and  C_49
   11  A    between atoms: C_40  and  C_41
   12  A    between atoms: C_41  and  C_52
                            x       y       z     vdW  Elec       q    Type
                         _______ _______ _______ _____ _____    ______ ____

>  <TORSDO>
F 12

$$$$
=
 OpenBabel11062412453D

 54 61  0  0  1  0  0  0  0  0999 V2000
  191.6320  176.0720  136.6270 O   0  0  0  0  0  0  0  0  0  0  0  0
  188.4800  177.0200  136.8720 C   0  0  2  0  0  3  0  0  0  0  0  0
  183.5190  178.9960  138.3900 N   0  0  0  0  0  2  0  0  0  0  0  0
  190.8060  177.5430  139.6810 C   0  0  2  0  0  3  0  0  0  0  0  0
  183.6830  177.5720  136.4590 C   0  0  2  0  0  3  0  0  0  0  0  0
  186.9080  177.8910  140.6780 O   0  0  0  0  0  0  0  0  0  0  0  0
  186.1700  177.2950  135.8490 C   0  0  1  0  0  3  0  0  0  0  0  0
  184.9540  178.2130  135.8670 C   0  0  0  0  0  2  0  0  0  0  0  0
  184.5590  178.2020  140.3330 C   0  0  0  0  0  2  0  0  0  0  0  0
  191.5460  176.4790  137.8150 C   0  0  0  0  0  0  0  0  0  0  0  0
  187.4910  176.5420  137.9120 C   0  0  2  0  0  3  0  0  0  0  0  0
  184.6420  178.1700  138.8200 C   0  0  1  0  0  0  0  0  0  0  0  0
  192.5950  176.3650  138.8210 C   0  0  0  0  0  2  0  0  0  0  0  0
  185.8470  178.7720  140.9080 C   0  0  0  0  0  2  0  0  0  0  0  0
  186.8070  177.4260  134.6100 O   0  0  0  0  0  1  0  0  0  0  0  0
  192.1380  177.0950  139.9450 O   0  0  0  0  0  0  0  0  0  0  0  0
  189.5110  177.9320  137.5160 C   0  0  0  0  0  2  0  0  0  0  0  0
  189.8470  176.9000  140.6900 C   0  0  0  0  0  2  0  0  0  0  0  0
  183.5090  177.5970  137.9900 C   0  0  1  0  0  0  0  0  0  0  0  0
  184.5190  176.8110  138.5260 O   0  0  0  0  0  0  0  0  0  0  0  0
  188.0530  178.6750  140.7920 C   0  0  0  0  0  2  0  0  0  0  0  0
  189.1170  177.9230  141.5720 C   0  0  2  0  0  3  0  0  0  0  0  0
  190.4420  177.1630  138.3310 N   0  0  0  0  0  0  0  0  0  0  0  0
  186.9480  175.3230  137.4990 O   0  0  0  0  0  1  0  0  0  0  0  0
  187.1260  177.7010  136.9740 C   0  0  1  0  0  3  0  0  0  0  0  0
  183.4300  176.2400  135.9180 N   0  0  0  0  0  2  0  0  0  0  0  0
  181.9870  176.0440  135.8650 C   0  0  1  0  0  3  0  0  0  0  0  0
  181.4200  176.8000  134.6790 C   0  0  0  0  0  1  0  0  0  0  0  0
  181.6970  174.6830  135.7320 O   0  0  0  0  0  0  0  0  0  0  0  0
  181.5060  174.2290  137.0410 C   0  0  0  0  0  2  0  0  0  0  0  0
  181.7700  172.7310  137.1150 C   0  0  1  0  0  3  0  0  0  0  0  0
  180.3220  170.8920  136.2490 O   0  0  0  0  0  0  0  0  0  0  0  0
  179.5160  172.3370  137.8320 O   0  0  0  0  0  1  0  0  0  0  0  0
  180.4720  171.9850  137.0920 C   0  0  0  0  0  0  0  0  0  0  0  0
  182.5720  172.3290  136.0420 O   0  0  0  0  0  0  0  0  0  0  0  0
  185.3100  172.6630  138.2650 O   0  0  0  0  0  1  0  0  0  0  0  0
  184.4940  173.0880  137.2150 C   0  0  2  0  0  3  0  0  0  0  0  0
  186.0550  171.6670  136.0210 O   0  0  0  0  0  1  0  0  0  0  0  0
  183.7660  171.8960  136.6240 C   0  0  2  0  0  3  0  0  0  0  0  0
  184.9410  172.4970  135.8770 C   0  0  1  0  0  3  0  0  0  0  0  0
  190.0540  178.9140  142.2550 C   0  0  0  0  0  2  0  0  0  0  0  0
  190.9990  176.7990  143.6040 O   0  0  0  0  0  0  0  0  0  0  0  0
  191.9710  178.9860  144.1590 O   0  0  0  0  0  0  0  0  0  0  0  0
  190.7040  178.2630  143.7860 S   0  0  0  0  0  0  0  0  0  0  0  0
  189.5190  178.4740  145.0330 N   0  0  0  0  0  2  0  0  0  0  0  0
  189.0610  177.1550  145.4650 C   0  0  1  0  0  3  0  0  0  0  0  0
  186.8920  177.8440  144.4050 C   0  0  0  0  0  2  0  0  0  0  0  0
  189.3310  176.9490  146.9700 C   0  0  0  0  0  2  0  0  0  0  0  0
  187.5880  176.8690  145.1090 C   0  0  2  0  0  3  0  0  0  0  0  0
  187.3770  177.9690  148.2910 C   0  0  0  0  0  2  0  0  0  0  0  0
  186.4800  178.3750  147.1700 C   0  0  0  0  0  0  0  0  0  0  0  0
  188.8490  178.0990  147.8780 C   0  0  0  0  0  2  0  0  0  0  0  0
  186.7710  177.8330  145.8940 N   0  0  0  0  0  0  0  0  0  0  0  0
  185.7500  179.4350  147.2710 N   0  0  0  0  0  2  0  0  0  0  0  0
  1 10  2  0  0  0  0
  2 25  1  0  0  0  0
  2 17  1  1  0  0  0
  2 11  1  0  0  0  0
  3 12  1  0  0  0  0
  4 16  1  0  0  0  0
  4 18  1  1  0  0  0
  5 26  1  1  0  0  0
  5 19  1  0  0  0  0
  6 21  1  0  0  0  0
  6 14  1  0  0  0  0
  7 15  1  6  0  0  0
  7  8  1  0  0  0  0
  7 25  1  0  0  0  0
  8  5  1  0  0  0  0
  9 14  1  0  0  0  0
 10 23  1  0  0  0  0
 10 13  1  0  0  0  0
 11 24  1  6  0  0  0
 12  9  1  1  0  0  0
 13 16  1  0  0  0  0
 17 23  1  0  0  0  0
 18 22  1  0  0  0  0
 19  3  1  1  0  0  0
 19 20  1  0  0  0  0
 19 12  1  0  0  0  0
 20 12  1  0  0  0  0
 21 22  1  0  0  0  0
 22 41  1  6  0  0  0
 23  4  1  0  0  0  0
 25 11  1  0  0  0  0
 27 26  1  0  0  0  0
 28 27  1  0  0  0  0
 29 27  1  0  0  0  0
 29 30  1  0  0  0  0
 30 31  1  0  0  0  0
 32 34  2  0  0  0  0
 34 31  1  0  0  0  0
 34 33  1  0  0  0  0
 35 39  1  0  0  0  0
 35 31  1  0  0  0  0
 37 36  1  0  0  0  0
 39 37  1  0  0  0  0
 40 38  1  0  0  0  0
 40 39  1  0  0  0  0
 40 37  1  0  0  0  0
 41 44  1  0  0  0  0
 42 44  2  0  0  0  0
 44 43  2  0  0  0  0
 44 45  1  0  0  0  0
 45 46  1  0  0  0  0
 46 48  1  0  0  0  0
 47 49  1  0  0  0  0
 47 53  1  0  0  0  0
 48 52  1  0  0  0  0
 49 46  1  0  0  0  0
 49 53  1  0  0  0  0
 51 54  2  0  0  0  0
 51 50  1  0  0  0  0
 52 50  1  0  0  0  0
 53 51  1  0  0  0  0
M  END
>  <MODEL>
3

>  <REMARK>
 VINA RESULT:      -6.9      4.081      9.387
  Name = 
  12 active torsions:
  status: ('A' for Active; 'I' for Inactive)
    1  A    between atoms: C_4  and  N_10
    2  A    between atoms: C_8  and  N_23
    3  A    between atoms: O_9  and  C_28
    4  A    between atoms: O_9  and  C_40
    5  A    between atoms: N_10  and  S_43
    6  A    between atoms: O_17  and  C_41
    7  A    between atoms: O_17  and  C_45
    8  A    between atoms: N_23  and  C_28
    9  A    between atoms: C_29  and  S_43
   10  A    between atoms: C_29  and  C_49
   11  A    between atoms: C_40  and  C_41
   12  A    between atoms: C_41  and  C_52
                            x       y       z     vdW  Elec       q    Type
                         _______ _______ _______ _____ _____    ______ ____

>  <TORSDO>
F 12

$$$$
=
 OpenBabel11062412453D

 54 61  0  0  1  0  0  0  0  0999 V2000
  188.7650  178.3200  145.0900 O   0  0  0  0  0  0  0  0  0  0  0  0
  186.5900  178.1060  142.6180 C   0  0  2  0  0  3  0  0  0  0  0  0
  183.8920  177.3490  137.8250 N   0  0  0  0  0  2  0  0  0  0  0  0
  190.1230  177.2130  142.0730 C   0  0  2  0  0  3  0  0  0  0  0  0
  182.8440  178.6100  139.5850 C   0  0  2  0  0  3  0  0  0  0  0  0
  188.0190  177.7830  138.6730 O   0  0  0  0  0  0  0  0  0  0  0  0
  184.2110  178.3000  141.7460 C   0  0  1  0  0  3  0  0  0  0  0  0
  183.2470  177.6760  140.7440 C   0  0  0  0  0  2  0  0  0  0  0  0
  186.0810  177.9840  137.2820 C   0  0  0  0  0  2  0  0  0  0  0  0
  189.4800  177.9980  144.1060 C   0  0  0  0  0  0  0  0  0  0  0  0
  186.6760  178.8380  141.2980 C   0  0  2  0  0  3  0  0  0  0  0  0
  185.0900  177.9260  138.4270 C   0  0  1  0  0  0  0  0  0  0  0  0
  190.9370  177.9250  144.1120 C   0  0  0  0  0  2  0  0  0  0  0  0
  187.3190  177.1700  137.6290 C   0  0  0  0  0  2  0  0  0  0  0  0
  183.7810  177.9740  143.0370 O   0  0  0  0  0  1  0  0  0  0  0  0
  191.3040  177.3680  142.8630 O   0  0  0  0  0  0  0  0  0  0  0  0
  187.6510  177.0190  142.6790 C   0  0  0  0  0  2  0  0  0  0  0  0
  190.2290  178.0980  140.8260 C   0  0  0  0  0  2  0  0  0  0  0  0
  183.7830  178.6960  138.3670 C   0  0  1  0  0  0  0  0  0  0  0  0
  184.9700  179.2630  138.8090 O   0  0  0  0  0  0  0  0  0  0  0  0
  188.8080  176.7710  139.2140 C   0  0  0  0  0  2  0  0  0  0  0  0
  190.1980  177.3060  139.5110 C   0  0  2  0  0  3  0  0  0  0  0  0
  188.9740  177.6000  142.8660 N   0  0  0  0  0  0  0  0  0  0  0  0
  186.1600  180.1270  141.4560 O   0  0  0  0  0  1  0  0  0  0  0  0
  185.6180  177.7460  141.5070 C   0  0  1  0  0  3  0  0  0  0  0  0
  182.4570  179.9380  140.0510 N   0  0  0  0  0  2  0  0  0  0  0  0
  181.1890  180.2830  139.4230 C   0  0  1  0  0  3  0  0  0  0  0  0
  180.0490  179.8960  140.3460 C   0  0  0  0  0  1  0  0  0  0  0  0
  181.1400  181.6570  139.1740 O   0  0  0  0  0  0  0  0  0  0  0  0
  181.5670  181.7950  137.8490 C   0  0  0  0  0  2  0  0  0  0  0  0
  180.7170  182.8360  137.1340 C   0  0  1  0  0  3  0  0  0  0  0  0
  181.0380  185.1150  136.1690 O   0  0  0  0  0  0  0  0  0  0  0  0
  182.4620  184.3440  137.7890 O   0  0  0  0  0  1  0  0  0  0  0  0
  181.4600  184.1330  137.0560 C   0  0  0  0  0  0  0  0  0  0  0  0
  180.3910  182.3920  135.8490 O   0  0  0  0  0  0  0  0  0  0  0  0
  181.4280  179.1750  134.7890 O   0  0  0  0  0  1  0  0  0  0  0  0
  180.8370  180.4240  134.5940 C   0  0  2  0  0  3  0  0  0  0  0  0
  178.9560  179.1720  135.4720 O   0  0  0  0  0  1  0  0  0  0  0  0
  180.4090  180.9970  135.9310 C   0  0  2  0  0  3  0  0  0  0  0  0
  179.3620  180.4210  134.9980 C   0  0  1  0  0  3  0  0  0  0  0  0
  191.2100  176.1640  139.4670 C   0  0  0  0  0  2  0  0  0  0  0  0
  190.8980  174.2580  137.6080 O   0  0  0  0  0  0  0  0  0  0  0  0
  190.9060  176.5830  136.8150 O   0  0  0  0  0  0  0  0  0  0  0  0
  191.5170  175.6170  137.7950 S   0  0  0  0  0  0  0  0  0  0  0  0
  193.2280  175.5240  137.5400 N   0  0  0  0  0  2  0  0  0  0  0  0
  193.4880  174.5370  136.4940 C   0  0  1  0  0  3  0  0  0  0  0  0
  194.9000  173.4280  138.2480 C   0  0  0  0  0  2  0  0  0  0  0  0
  193.9840  175.2240  135.2050 C   0  0  0  0  0  2  0  0  0  0  0  0
  194.4410  173.4080  136.9370 C   0  0  2  0  0  3  0  0  0  0  0  0
  196.5240  175.5680  135.3960 C   0  0  0  0  0  2  0  0  0  0  0  0
  196.7890  174.8810  136.6940 C   0  0  0  0  0  0  0  0  0  0  0  0
  195.1380  176.2270  135.4090 C   0  0  0  0  0  2  0  0  0  0  0  0
  195.7590  174.0480  137.1950 N   0  0  0  0  0  0  0  0  0  0  0  0
  197.7100  175.3170  137.4860 N   0  0  0  0  0  2  0  0  0  0  0  0
  2 17  1  6  0  0  0
  3 12  1  0  0  0  0
  4 18  1  6  0  0  0
  4 16  1  0  0  0  0
  4 23  1  0  0  0  0
  5 26  1  1  0  0  0
  5  8  1  0  0  0  0
  6 21  1  0  0  0  0
  7 15  1  1  0  0  0
  8  7  1  0  0  0  0
  9 14  1  0  0  0  0
 10 13  1  0  0  0  0
 10  1  2  0  0  0  0
 11 24  1  1  0  0  0
 11 25  1  0  0  0  0
 11  2  1  0  0  0  0
 12  9  1  6  0  0  0
 12 20  1  0  0  0  0
 14  6  1  0  0  0  0
 16 13  1  0  0  0  0
 17 23  1  0  0  0  0
 19  3  1  6  0  0  0
 19 12  1  0  0  0  0
 19 20  1  0  0  0  0
 19  5  1  0  0  0  0
 21 22  1  0  0  0  0
 22 41  1  1  0  0  0
 22 18  1  0  0  0  0
 23 10  1  0  0  0  0
 25  7  1  0  0  0  0
 25  2  1  0  0  0  0
 27 26  1  0  0  0  0
 27 28  1  0  0  0  0
 29 27  1  0  0  0  0
 30 29  1  0  0  0  0
 31 30  1  0  0  0  0
 32 34  2  0  0  0  0
 34 31  1  0  0  0  0
 34 33  1  0  0  0  0
 35 39  1  0  0  0  0
 35 31  1  0  0  0  0
 37 36  1  0  0  0  0
 37 40  1  0  0  0  0
 37 39  1  0  0  0  0
 40 38  1  0  0  0  0
 40 39  1  0  0  0  0
 42 44  2  0  0  0  0
 43 44  2  0  0  0  0
 44 41  1  0  0  0  0
 45 44  1  0  0  0  0
 46 49  1  0  0  0  0
 46 45  1  0  0  0  0
 48 52  1  0  0  0  0
 48 46  1  0  0  0  0
 49 53  1  0  0  0  0
 49 47  1  0  0  0  0
 50 52  1  0  0  0  0
 50 51  1  0  0  0  0
 51 53  1  0  0  0  0
 51 54  2  0  0  0  0
 53 47  1  0  0  0  0
M  END
>  <MODEL>
4

>  <REMARK>
 VINA RESULT:      -6.7      4.121     11.848
  Name = 
  12 active torsions:
  status: ('A' for Active; 'I' for Inactive)
    1  A    between atoms: C_4  and  N_10
    2  A    between atoms: C_8  and  N_23
    3  A    between atoms: O_9  and  C_28
    4  A    between atoms: O_9  and  C_40
    5  A    between atoms: N_10  and  S_43
    6  A    between atoms: O_17  and  C_41
    7  A    between atoms: O_17  and  C_45
    8  A    between atoms: N_23  and  C_28
    9  A    between atoms: C_29  and  S_43
   10  A    between atoms: C_29  and  C_49
   11  A    between atoms: C_40  and  C_41
   12  A    between atoms: C_41  and  C_52
                            x       y       z     vdW  Elec       q    Type
                         _______ _______ _______ _____ _____    ______ ____

>  <TORSDO>
F 12

$$$$
=
 OpenBabel11062412453D

 54 61  0  0  1  0  0  0  0  0999 V2000
  191.6940  176.0300  136.6710 O   0  0  0  0  0  0  0  0  0  0  0  0
  188.5370  176.9700  136.8840 C   0  0  2  0  0  3  0  0  0  0  0  0
  183.5560  178.9370  138.3500 N   0  0  0  0  0  2  0  0  0  0  0  0
  190.8360  177.5100  139.7120 C   0  0  2  0  0  3  0  0  0  0  0  0
  183.7430  177.5060  136.4250 C   0  0  2  0  0  3  0  0  0  0  0  0
  186.9280  177.8500  140.6720 O   0  0  0  0  0  0  0  0  0  0  0  0
  186.2360  177.2350  135.8390 C   0  0  1  0  0  3  0  0  0  0  0  0
  185.0170  178.1490  135.8420 C   0  0  0  0  0  2  0  0  0  0  0  0
  184.5810  178.1520  140.3050 C   0  0  0  0  0  2  0  0  0  0  0  0
  191.5960  176.4410  137.8570 C   0  0  0  0  0  0  0  0  0  0  0  0
  187.5400  176.4930  137.9160 C   0  0  2  0  0  3  0  0  0  0  0  0
  184.6780  178.1150  138.7930 C   0  0  1  0  0  0  0  0  0  0  0  0
  192.6360  176.3340  138.8740 C   0  0  0  0  0  2  0  0  0  0  0  0
  185.8620  178.7290  140.8900 C   0  0  0  0  0  2  0  0  0  0  0  0
  186.8840  177.3630  134.6050 O   0  0  0  0  0  1  0  0  0  0  0  0
  192.1660  177.0660  139.9900 O   0  0  0  0  0  0  0  0  0  0  0  0
  189.5590  177.8880  137.5350 C   0  0  0  0  0  2  0  0  0  0  0  0
  189.8700  176.8680  140.7140 C   0  0  0  0  0  2  0  0  0  0  0  0
  183.5540  177.5360  137.9540 C   0  0  1  0  0  0  0  0  0  0  0  0
  184.5610  176.7550  138.5020 O   0  0  0  0  0  0  0  0  0  0  0  0
  188.0690  178.6380  140.7940 C   0  0  0  0  0  2  0  0  0  0  0  0
  189.1280  177.8910  141.5870 C   0  0  2  0  0  3  0  0  0  0  0  0
  190.4860  177.1240  138.3600 N   0  0  0  0  0  0  0  0  0  0  0  0
  187.0050  175.2710  137.5030 O   0  0  0  0  0  1  0  0  0  0  0  0
  187.1810  177.6470  136.9720 C   0  0  1  0  0  3  0  0  0  0  0  0
  183.4980  176.1710  135.8870 N   0  0  0  0  0  2  0  0  0  0  0  0
  182.3050  175.6390  136.5310 C   0  0  1  0  0  3  0  0  0  0  0  0
  181.1190  175.7930  135.5980 C   0  0  0  0  0  1  0  0  0  0  0  0
  182.4900  174.2860  136.8310 O   0  0  0  0  0  0  0  0  0  0  0  0
  182.8510  173.6980  135.6150 C   0  0  0  0  0  2  0  0  0  0  0  0
  183.2360  172.2420  135.8360 C   0  0  1  0  0  3  0  0  0  0  0  0
  184.6770  172.8330  137.7860 O   0  0  0  0  0  1  0  0  0  0  0  0
  185.4990  171.5010  136.1140 O   0  0  0  0  0  0  0  0  0  0  0  0
  184.5350  172.1660  136.5760 C   0  0  0  0  0  0  0  0  0  0  0  0
  182.2350  171.5830  136.5560 O   0  0  0  0  0  0  0  0  0  0  0  0
  178.9770  172.6070  135.6160 O   0  0  0  0  0  1  0  0  0  0  0  0
  179.9030  172.0370  136.4910 C   0  0  2  0  0  3  0  0  0  0  0  0
  179.3430  170.1160  135.1240 O   0  0  0  0  0  1  0  0  0  0  0  0
  181.1220  171.5800  135.7120 C   0  0  2  0  0  3  0  0  0  0  0  0
  180.1190  170.5520  136.2000 C   0  0  1  0  0  3  0  0  0  0  0  0
  190.0560  178.8880  142.2750 C   0  0  0  0  0  2  0  0  0  0  0  0
  191.0290  176.7450  143.5590 O   0  0  0  0  0  0  0  0  0  0  0  0
  192.0550  178.9130  144.0930 O   0  0  0  0  0  0  0  0  0  0  0  0
  190.7630  178.2110  143.7690 S   0  0  0  0  0  0  0  0  0  0  0  0
  189.6360  178.4240  145.0680 N   0  0  0  0  0  2  0  0  0  0  0  0
  189.1960  177.1060  145.5210 C   0  0  1  0  0  3  0  0  0  0  0  0
  187.0070  177.7630  144.4830 C   0  0  0  0  0  2  0  0  0  0  0  0
  189.4880  176.9190  147.0240 C   0  0  0  0  0  2  0  0  0  0  0  0
  187.7210  176.8020  145.1880 C   0  0  2  0  0  3  0  0  0  0  0  0
  187.5430  177.9350  148.3610 C   0  0  0  0  0  2  0  0  0  0  0  0
  186.6280  178.3210  147.2470 C   0  0  0  0  0  0  0  0  0  0  0  0
  189.0080  178.0740  147.9260 C   0  0  0  0  0  2  0  0  0  0  0  0
  186.9060  177.7680  145.9740 N   0  0  0  0  0  0  0  0  0  0  0  0
  185.8890  179.3760  147.3470 N   0  0  0  0  0  2  0  0  0  0  0  0
  1 10  2  0  0  0  0
  2 25  1  0  0  0  0
  2 17  1  1  0  0  0
  2 11  1  0  0  0  0
  3 12  1  0  0  0  0
  4 16  1  0  0  0  0
  4 18  1  1  0  0  0
  5 26  1  1  0  0  0
  5 19  1  0  0  0  0
  6 21  1  0  0  0  0
  6 14  1  0  0  0  0
  7 15  1  6  0  0  0
  7  8  1  0  0  0  0
  7 25  1  0  0  0  0
  8  5  1  0  0  0  0
  9 14  1  0  0  0  0
 10 23  1  0  0  0  0
 10 13  1  0  0  0  0
 11 24  1  6  0  0  0
 12  9  1  1  0  0  0
 13 16  1  0  0  0  0
 17 23  1  0  0  0  0
 18 22  1  0  0  0  0
 19  3  1  1  0  0  0
 19 20  1  0  0  0  0
 19 12  1  0  0  0  0
 20 12  1  0  0  0  0
 21 22  1  0  0  0  0
 22 41  1  6  0  0  0
 23  4  1  0  0  0  0
 25 11  1  0  0  0  0
 26 27  1  0  0  0  0
 27 29  1  0  0  0  0
 28 27  1  0  0  0  0
 30 31  1  0  0  0  0
 30 29  1  0  0  0  0
 31 35  1  0  0  0  0
 31 34  1  0  0  0  0
 33 34  2  0  0  0  0
 34 32  1  0  0  0  0
 36 37  1  0  0  0  0
 38 40  1  0  0  0  0
 39 40  1  0  0  0  0
 39 37  1  0  0  0  0
 39 35  1  0  0  0  0
 40 37  1  0  0  0  0
 41 44  1  0  0  0  0
 42 44  2  0  0  0  0
 44 43  2  0  0  0  0
 44 45  1  0  0  0  0
 45 46  1  0  0  0  0
 46 48  1  0  0  0  0
 47 49  1  0  0  0  0
 47 53  1  0  0  0  0
 48 52  1  0  0  0  0
 49 46  1  0  0  0  0
 49 53  1  0  0  0  0
 51 54  2  0  0  0  0
 51 50  1  0  0  0  0
 52 50  1  0  0  0  0
 53 51  1  0  0  0  0
M  END
>  <MODEL>
5

>  <REMARK>
 VINA RESULT:      -6.4      4.330      9.725
  Name = 
  12 active torsions:
  status: ('A' for Active; 'I' for Inactive)
    1  A    between atoms: C_4  and  N_10
    2  A    between atoms: C_8  and  N_23
    3  A    between atoms: O_9  and  C_28
    4  A    between atoms: O_9  and  C_40
    5  A    between atoms: N_10  and  S_43
    6  A    between atoms: O_17  and  C_41
    7  A    between atoms: O_17  and  C_45
    8  A    between atoms: N_23  and  C_28
    9  A    between atoms: C_29  and  S_43
   10  A    between atoms: C_29  and  C_49
   11  A    between atoms: C_40  and  C_41
   12  A    between atoms: C_41  and  C_52
                            x       y       z     vdW  Elec       q    Type
                         _______ _______ _______ _____ _____    ______ ____

>  <TORSDO>
F 12

$$$$
=
 OpenBabel11062412453D

 54 61  0  0  1  0  0  0  0  0999 V2000
  189.8780  176.9910  146.4460 O   0  0  0  0  0  0  0  0  0  0  0  0
  190.2310  177.3160  143.1810 C   0  0  2  0  0  3  0  0  0  0  0  0
  189.6980  178.3180  137.7460 N   0  0  0  0  0  2  0  0  0  0  0  0
  187.0880  178.3160  144.8220 C   0  0  2  0  0  3  0  0  0  0  0  0
  191.5000  176.9270  138.5200 C   0  0  2  0  0  3  0  0  0  0  0  0
  186.8040  177.9190  140.8130 O   0  0  0  0  0  0  0  0  0  0  0  0
  191.6540  177.1270  141.0830 C   0  0  1  0  0  3  0  0  0  0  0  0
  191.8920  177.7930  139.7330 C   0  0  0  0  0  2  0  0  0  0  0  0
  187.5670  177.7650  138.5490 C   0  0  0  0  0  2  0  0  0  0  0  0
  188.7440  177.3900  146.0730 C   0  0  0  0  0  0  0  0  0  0  0  0
  189.3590  176.6710  142.1280 C   0  0  2  0  0  3  0  0  0  0  0  0
  189.0390  177.7290  138.9080 C   0  0  1  0  0  0  0  0  0  0  0  0
  187.5650  177.4930  146.9250 C   0  0  0  0  0  2  0  0  0  0  0  0
  186.8040  178.5810  139.5820 C   0  0  0  0  0  2  0  0  0  0  0  0
  192.7680  177.3610  141.8970 O   0  0  0  0  0  1  0  0  0  0  0  0
  186.5750  178.1360  146.1440 O   0  0  0  0  0  0  0  0  0  0  0  0
  189.4610  178.4190  143.8880 C   0  0  0  0  0  2  0  0  0  0  0  0
  186.2330  177.5140  143.8350 C   0  0  0  0  0  2  0  0  0  0  0  0
  190.0270  176.9380  138.0710 C   0  0  1  0  0  0  0  0  0  0  0  0
  189.2860  176.3690  139.0960 O   0  0  0  0  0  0  0  0  0  0  0  0
  186.5300  178.9100  141.7510 C   0  0  0  0  0  2  0  0  0  0  0  0
  185.5410  178.3870  142.7790 C   0  0  2  0  0  3  0  0  0  0  0  0
  188.4610  177.8550  144.7850 N   0  0  0  0  0  0  0  0  0  0  0  0
  189.8010  175.3640  141.9060 O   0  0  0  0  0  1  0  0  0  0  0  0
  190.3990  177.7250  141.7270 C   0  0  1  0  0  3  0  0  0  0  0  0
  192.0130  175.5630  138.6220 N   0  0  0  0  0  2  0  0  0  0  0  0
  192.9570  175.3560  137.5320 C   0  0  1  0  0  3  0  0  0  0  0  0
  193.8860  174.2090  137.8830 C   0  0  0  0  0  1  0  0  0  0  0  0
  192.2650  175.0520  136.3560 O   0  0  0  0  0  0  0  0  0  0  0  0
  191.5730  173.8720  136.6450 C   0  0  0  0  0  2  0  0  0  0  0  0
  191.0360  173.2570  135.3590 C   0  0  1  0  0  3  0  0  0  0  0  0
  193.2990  172.3130  134.8950 O   0  0  0  0  0  1  0  0  0  0  0  0
  191.4330  171.0200  134.5940 O   0  0  0  0  0  0  0  0  0  0  0  0
  191.9230  172.1310  134.9260 C   0  0  0  0  0  0  0  0  0  0  0  0
  189.7320  172.7910  135.5560 O   0  0  0  0  0  0  0  0  0  0  0  0
  186.7100  174.6250  135.7830 O   0  0  0  0  0  1  0  0  0  0  0  0
  187.6820  173.9000  135.0930 C   0  0  2  0  0  3  0  0  0  0  0  0
  188.6460  176.1230  135.0160 O   0  0  0  0  0  1  0  0  0  0  0  0
  188.9840  173.9290  135.8690 C   0  0  2  0  0  3  0  0  0  0  0  0
  188.8340  174.7930  134.6320 C   0  0  1  0  0  3  0  0  0  0  0  0
  184.7520  179.5500  143.3750 C   0  0  0  0  0  2  0  0  0  0  0  0
  182.9380  178.4750  145.0290 O   0  0  0  0  0  0  0  0  0  0  0  0
  182.1800  180.3410  143.6220 O   0  0  0  0  0  0  0  0  0  0  0  0
  183.0470  179.1110  143.6700 S   0  0  0  0  0  0  0  0  0  0  0  0
  182.5390  177.9870  142.4520 N   0  0  0  0  0  2  0  0  0  0  0  0
  182.1230  178.7410  141.2710 C   0  0  1  0  0  3  0  0  0  0  0  0
  179.8320  177.8990  141.8570 C   0  0  0  0  0  2  0  0  0  0  0  0
  182.9690  178.3440  140.0440 C   0  0  0  0  0  2  0  0  0  0  0  0
  180.6130  178.6370  140.9760 C   0  0  2  0  0  3  0  0  0  0  0  0
  181.9190  176.2540  138.9770 C   0  0  0  0  0  2  0  0  0  0  0  0
  180.7020  176.1040  139.8280 C   0  0  0  0  0  0  0  0  0  0  0  0
  183.0830  176.8250  139.7990 C   0  0  0  0  0  2  0  0  0  0  0  0
  180.3490  177.2130  140.6340 N   0  0  0  0  0  0  0  0  0  0  0  0
  180.2410  174.9300  140.1040 N   0  0  0  0  0  2  0  0  0  0  0  0
  2 17  1  1  0  0  0
  3 12  1  0  0  0  0
  4 18  1  6  0  0  0
  4 16  1  0  0  0  0
  5 26  1  1  0  0  0
  5  8  1  0  0  0  0
  6 21  1  0  0  0  0
  7 25  1  0  0  0  0
  7 15  1  1  0  0  0
  8  7  1  0  0  0  0
  9 14  1  0  0  0  0
 10  1  2  0  0  0  0
 10 13  1  0  0  0  0
 11 24  1  6  0  0  0
 11  2  1  0  0  0  0
 12  9  1  6  0  0  0
 12 20  1  0  0  0  0
 14  6  1  0  0  0  0
 16 13  1  0  0  0  0
 17 23  1  0  0  0  0
 19  3  1  6  0  0  0
 19  5  1  0  0  0  0
 19 12  1  0  0  0  0
 19 20  1  0  0  0  0
 21 22  1  0  0  0  0
 22 41  1  1  0  0  0
 22 18  1  0  0  0  0
 23  4  1  0  0  0  0
 23 10  1  0  0  0  0
 25 11  1  0  0  0  0
 25  2  1  0  0  0  0
 27 28  1  0  0  0  0
 27 26  1  0  0  0  0
 29 30  1  0  0  0  0
 29 27  1  0  0  0  0
 31 35  1  0  0  0  0
 31 30  1  0  0  0  0
 32 34  1  0  0  0  0
 33 34  2  0  0  0  0
 34 31  1  0  0  0  0
 35 39  1  0  0  0  0
 37 36  1  0  0  0  0
 37 39  1  0  0  0  0
 40 38  1  0  0  0  0
 40 37  1  0  0  0  0
 40 39  1  0  0  0  0
 41 44  1  0  0  0  0
 43 44  2  0  0  0  0
 44 42  2  0  0  0  0
 45 44  1  0  0  0  0
 46 45  1  0  0  0  0
 48 46  1  0  0  0  0
 49 46  1  0  0  0  0
 49 47  1  0  0  0  0
 50 52  1  0  0  0  0
 50 51  1  0  0  0  0
 51 54  2  0  0  0  0
 51 53  1  0  0  0  0
 52 48  1  0  0  0  0
 53 49  1  0  0  0  0
 53 47  1  0  0  0  0
M  END
>  <MODEL>
6

>  <REMARK>
 VINA RESULT:      -5.9      1.871      3.525
  Name = 
  12 active torsions:
  status: ('A' for Active; 'I' for Inactive)
    1  A    between atoms: C_4  and  N_10
    2  A    between atoms: C_8  and  N_23
    3  A    between atoms: O_9  and  C_28
    4  A    between atoms: O_9  and  C_40
    5  A    between atoms: N_10  and  S_43
    6  A    between atoms: O_17  and  C_41
    7  A    between atoms: O_17  and  C_45
    8  A    between atoms: N_23  and  C_28
    9  A    between atoms: C_29  and  S_43
   10  A    between atoms: C_29  and  C_49
   11  A    between atoms: C_40  and  C_41
   12  A    between atoms: C_41  and  C_52
                            x       y       z     vdW  Elec       q    Type
                         _______ _______ _______ _____ _____    ______ ____

>  <TORSDO>
F 12

$$$$
=
 OpenBabel11062412453D

 54 61  0  0  1  0  0  0  0  0999 V2000
  187.5840  171.0000  134.6160 O   0  0  0  0  0  0  0  0  0  0  0  0
  186.7840  174.0630  135.5480 C   0  0  2  0  0  3  0  0  0  0  0  0
  186.6430  179.3930  137.0970 N   0  0  0  0  0  2  0  0  0  0  0  0
  190.3170  173.1100  135.1210 C   0  0  2  0  0  3  0  0  0  0  0  0
  184.6690  178.0400  137.3350 C   0  0  2  0  0  3  0  0  0  0  0  0
  189.7690  176.5370  137.1860 O   0  0  0  0  0  0  0  0  0  0  0  0
  185.0290  175.8260  136.0690 C   0  0  1  0  0  3  0  0  0  0  0  0
  184.7710  177.3250  135.9730 C   0  0  0  0  0  2  0  0  0  0  0  0
  188.6150  178.4810  137.9730 C   0  0  0  0  0  2  0  0  0  0  0  0
  188.7030  171.5390  134.8230 C   0  0  0  0  0  0  0  0  0  0  0  0
  187.2260  174.7440  136.8240 C   0  0  2  0  0  3  0  0  0  0  0  0
  187.2850  178.1070  137.3490 C   0  0  1  0  0  0  0  0  0  0  0  0
  189.9870  170.8490  134.7960 C   0  0  0  0  0  2  0  0  0  0  0  0
  189.7540  177.9330  137.1270 C   0  0  0  0  0  2  0  0  0  0  0  0
  184.1960  175.1720  135.1550 O   0  0  0  0  0  1  0  0  0  0  0  0
  190.9740  171.8570  134.9120 O   0  0  0  0  0  0  0  0  0  0  0  0
  187.9600  173.9340  134.5940 C   0  0  0  0  0  2  0  0  0  0  0  0
  190.7080  173.6620  136.4970 C   0  0  0  0  0  2  0  0  0  0  0  0
  185.9760  178.4840  138.0180 C   0  0  1  0  0  0  0  0  0  0  0  0
  186.6790  177.3310  138.3370 O   0  0  0  0  0  0  0  0  0  0  0  0
  190.4860  176.1400  136.0610 C   0  0  0  0  0  2  0  0  0  0  0  0
  191.4360  175.0120  136.4270 C   0  0  2  0  0  3  0  0  0  0  0  0
  188.8840  172.9050  135.0510 N   0  0  0  0  0  0  0  0  0  0  0  0
  186.3810  174.3550  137.8660 O   0  0  0  0  0  1  0  0  0  0  0  0
  186.4970  175.5430  135.7360 C   0  0  1  0  0  3  0  0  0  0  0  0
  183.7960  177.3340  138.2690 N   0  0  0  0  0  2  0  0  0  0  0  0
  183.4830  178.2410  139.3650 C   0  0  1  0  0  3  0  0  0  0  0  0
  182.3540  179.1640  138.9450 C   0  0  0  0  0  1  0  0  0  0  0  0
  183.0940  177.5100  140.4900 O   0  0  0  0  0  0  0  0  0  0  0  0
  184.1840  177.5890  141.3620 C   0  0  0  0  0  2  0  0  0  0  0  0
  184.3220  179.0090  141.8940 C   0  0  1  0  0  3  0  0  0  0  0  0
  182.4590  178.6460  143.5150 O   0  0  0  0  0  0  0  0  0  0  0  0
  184.4370  179.5560  144.2260 O   0  0  0  0  0  1  0  0  0  0  0  0
  183.7530  179.0910  143.2760 C   0  0  0  0  0  0  0  0  0  0  0  0
  185.6670  179.3900  141.9070 O   0  0  0  0  0  0  0  0  0  0  0  0
  187.5780  176.8800  143.5180 O   0  0  0  0  0  1  0  0  0  0  0  0
  187.3220  178.1940  143.1230 C   0  0  2  0  0  3  0  0  0  0  0  0
  188.4730  177.3560  141.1610 O   0  0  0  0  0  1  0  0  0  0  0  0
  186.3840  178.1920  141.9310 C   0  0  2  0  0  3  0  0  0  0  0  0
  187.8580  178.4790  141.7190 C   0  0  1  0  0  3  0  0  0  0  0  0
  192.6270  175.0100  135.4740 C   0  0  0  0  0  2  0  0  0  0  0  0
  194.4860  176.9140  135.1470 O   0  0  0  0  0  0  0  0  0  0  0  0
  193.6150  176.5990  137.4230 O   0  0  0  0  0  0  0  0  0  0  0  0
  194.0200  175.8980  136.1540 S   0  0  0  0  0  0  0  0  0  0  0  0
  195.2940  174.7710  136.4860 N   0  0  0  0  0  2  0  0  0  0  0  0
  194.8560  173.8810  137.5590 C   0  0  1  0  0  3  0  0  0  0  0  0
  197.1470  174.3020  138.4950 C   0  0  0  0  0  2  0  0  0  0  0  0
  194.3220  172.5530  136.9840 C   0  0  0  0  0  2  0  0  0  0  0  0
  195.9350  173.6380  138.6350 C   0  0  2  0  0  3  0  0  0  0  0  0
  196.3130  170.9750  136.5990 C   0  0  0  0  0  2  0  0  0  0  0  0
  197.4200  171.8000  137.1660 C   0  0  0  0  0  0  0  0  0  0  0  0
  195.2480  171.8730  135.9550 C   0  0  0  0  0  2  0  0  0  0  0  0
  197.0430  172.9090  137.9620 N   0  0  0  0  0  0  0  0  0  0  0  0
  198.6030  171.7450  136.6520 N   0  0  0  0  0  2  0  0  0  0  0  0
  1 10  2  0  0  0  0
  2 17  1  6  0  0  0
  2 25  1  0  0  0  0
  2 11  1  0  0  0  0
  3 12  1  0  0  0  0
  4 18  1  1  0  0  0
  5 19  1  0  0  0  0
  5 26  1  1  0  0  0
  7 15  1  6  0  0  0
  8  7  1  0  0  0  0
  8  5  1  0  0  0  0
 10 23  1  0  0  0  0
 11 24  1  1  0  0  0
 12  9  1  1  0  0  0
 12 19  1  0  0  0  0
 12 20  1  0  0  0  0
 13 10  1  0  0  0  0
 13 16  1  0  0  0  0
 14  6  1  0  0  0  0
 14  9  1  0  0  0  0
 16  4  1  0  0  0  0
 17 23  1  0  0  0  0
 19  3  1  1  0  0  0
 19 20  1  0  0  0  0
 21 22  1  0  0  0  0
 21  6  1  0  0  0  0
 22 41  1  6  0  0  0
 22 18  1  0  0  0  0
 23  4  1  0  0  0  0
 25  7  1  0  0  0  0
 25 11  1  0  0  0  0
 26 27  1  0  0  0  0
 27 29  1  0  0  0  0
 28 27  1  0  0  0  0
 29 30  1  0  0  0  0
 30 31  1  0  0  0  0
 31 35  1  0  0  0  0
 31 34  1  0  0  0  0
 34 32  2  0  0  0  0
 34 33  1  0  0  0  0
 35 39  1  0  0  0  0
 37 36  1  0  0  0  0
 38 40  1  0  0  0  0
 39 37  1  0  0  0  0
 40 39  1  0  0  0  0
 40 37  1  0  0  0  0
 41 44  1  0  0  0  0
 42 44  2  0  0  0  0
 44 45  1  0  0  0  0
 44 43  2  0  0  0  0
 45 46  1  0  0  0  0
 46 49  1  0  0  0  0
 47 49  1  0  0  0  0
 48 46  1  0  0  0  0
 50 51  1  0  0  0  0
 51 53  1  0  0  0  0
 52 50  1  0  0  0  0
 52 48  1  0  0  0  0
 53 47  1  0  0  0  0
 53 49  1  0  0  0  0
 54 51  2  0  0  0  0
M  END
>  <MODEL>
7

>  <REMARK>
 VINA RESULT:      -5.7      3.903     11.787
  Name = 
  12 active torsions:
  status: ('A' for Active; 'I' for Inactive)
    1  A    between atoms: C_4  and  N_10
    2  A    between atoms: C_8  and  N_23
    3  A    between atoms: O_9  and  C_28
    4  A    between atoms: O_9  and  C_40
    5  A    between atoms: N_10  and  S_43
    6  A    between atoms: O_17  and  C_41
    7  A    between atoms: O_17  and  C_45
    8  A    between atoms: N_23  and  C_28
    9  A    between atoms: C_29  and  S_43
   10  A    between atoms: C_29  and  C_49
   11  A    between atoms: C_40  and  C_41
   12  A    between atoms: C_41  and  C_52
                            x       y       z     vdW  Elec       q    Type
                         _______ _______ _______ _____ _____    ______ ____

>  <TORSDO>
F 12

$$$$
=
 OpenBabel11062412453D

 54 61  0  0  1  0  0  0  0  0999 V2000
  182.7070  177.6440  136.3330 O   0  0  0  0  0  0  0  0  0  0  0  0
  185.8250  176.9000  137.1150 C   0  0  2  0  0  3  0  0  0  0  0  0
  190.7370  176.0080  139.5440 N   0  0  0  0  0  2  0  0  0  0  0  0
  183.5320  178.2350  139.6710 C   0  0  2  0  0  3  0  0  0  0  0  0
  190.5910  176.0180  137.1440 C   0  0  2  0  0  3  0  0  0  0  0  0
  187.4320  178.3880  140.7090 O   0  0  0  0  0  0  0  0  0  0  0  0
  188.1050  175.9790  136.4700 C   0  0  1  0  0  3  0  0  0  0  0  0
  189.2870  175.2020  137.0370 C   0  0  0  0  0  2  0  0  0  0  0  0
  189.7620  177.8400  140.6320 C   0  0  0  0  0  2  0  0  0  0  0  0
  182.7990  178.0160  137.5320 C   0  0  0  0  0  0  0  0  0  0  0  0
  186.8500  177.8600  137.6770 C   0  0  2  0  0  3  0  0  0  0  0  0
  189.6530  176.9730  139.3930 C   0  0  1  0  0  0  0  0  0  0  0  0
  181.7730  178.7460  138.2680 C   0  0  0  0  0  2  0  0  0  0  0  0
  188.4640  177.7730  141.4240 C   0  0  0  0  0  2  0  0  0  0  0  0
  187.4410  175.1660  135.5440 O   0  0  0  0  0  1  0  0  0  0  0  0
  182.2230  178.8050  139.6080 O   0  0  0  0  0  0  0  0  0  0  0  0
  184.7740  176.5880  138.1670 C   0  0  0  0  0  2  0  0  0  0  0  0
  184.5320  179.3110  140.1100 C   0  0  0  0  0  2  0  0  0  0  0  0
  190.7910  176.8970  138.3930 C   0  0  1  0  0  0  0  0  0  0  0  0
  189.8210  177.8880  138.3530 O   0  0  0  0  0  0  0  0  0  0  0  0
  186.2610  177.8700  141.2560 C   0  0  0  0  0  2  0  0  0  0  0  0
  185.2400  178.9810  141.4320 C   0  0  2  0  0  3  0  0  0  0  0  0
  183.8850  177.7260  138.3610 N   0  0  0  0  0  0  0  0  0  0  0  0
  187.4290  178.5750  136.6260 O   0  0  0  0  0  1  0  0  0  0  0  0
  187.1550  176.3580  137.6100 C   0  0  1  0  0  3  0  0  0  0  0  0
  190.8830  176.7600  135.9210 N   0  0  0  0  0  2  0  0  0  0  0  0
  192.1190  176.2310  135.3590 C   0  0  1  0  0  3  0  0  0  0  0  0
  193.2740  176.5640  136.2850 C   0  0  0  0  0  1  0  0  0  0  0  0
  192.0200  174.8440  135.2170 O   0  0  0  0  0  0  0  0  0  0  0  0
  193.3270  174.4180  134.9600 C   0  0  0  0  0  2  0  0  0  0  0  0
  193.7510  173.3890  135.9990 C   0  0  1  0  0  3  0  0  0  0  0  0
  192.0250  172.0070  134.8430 O   0  0  0  0  0  0  0  0  0  0  0  0
  193.5830  171.0050  136.1900 O   0  0  0  0  0  1  0  0  0  0  0  0
  193.1230  172.0660  135.6910 C   0  0  0  0  0  0  0  0  0  0  0  0
  195.1440  173.2660  136.0140 O   0  0  0  0  0  0  0  0  0  0  0  0
  197.4930  175.5200  137.4120 O   0  0  0  0  0  1  0  0  0  0  0  0
  197.0910  174.2710  136.9350 C   0  0  2  0  0  3  0  0  0  0  0  0
  196.3440  174.1300  139.2370 O   0  0  0  0  0  1  0  0  0  0  0  0
  195.5780  174.1720  136.9860 C   0  0  2  0  0  3  0  0  0  0  0  0
  196.4090  173.4420  138.0240 C   0  0  1  0  0  3  0  0  0  0  0  0
  184.2790  178.6250  142.5630 C   0  0  0  0  0  2  0  0  0  0  0  0
  184.7240  180.9960  143.7300 O   0  0  0  0  0  0  0  0  0  0  0  0
  183.5750  179.2980  145.0830 O   0  0  0  0  0  0  0  0  0  0  0  0
  184.6520  179.5300  144.0570 S   0  0  0  0  0  0  0  0  0  0  0  0
  186.1780  178.9890  144.6740 N   0  0  0  0  0  2  0  0  0  0  0  0
  186.0390  177.5970  145.0980 C   0  0  1  0  0  3  0  0  0  0  0  0
  185.6970  178.5950  147.3760 C   0  0  0  0  0  2  0  0  0  0  0  0
  187.2450  176.7590  144.6270 C   0  0  0  0  0  2  0  0  0  0  0  0
  185.7950  177.4380  146.6130 C   0  0  2  0  0  3  0  0  0  0  0  0
  189.1310  177.0100  146.3540 C   0  0  0  0  0  2  0  0  0  0  0  0
  188.4380  177.8340  147.3880 C   0  0  0  0  0  0  0  0  0  0  0  0
  188.6240  177.3690  144.9510 C   0  0  0  0  0  2  0  0  0  0  0  0
  187.0280  177.9220  147.2900 N   0  0  0  0  0  0  0  0  0  0  0  0
  189.0960  178.7090  148.0710 N   0  0  0  0  0  2  0  0  0  0  0  0
  1 10  2  0  0  0  0
  2 25  1  0  0  0  0
  2 11  1  0  0  0  0
  2 17  1  1  0  0  0
  4 18  1  6  0  0  0
  5 26  1  6  0  0  0
  5 19  1  0  0  0  0
  6 21  1  0  0  0  0
  6 14  1  0  0  0  0
  7 15  1  6  0  0  0
  7  8  1  0  0  0  0
  7 25  1  0  0  0  0
  8  5  1  0  0  0  0
  9 14  1  0  0  0  0
 10 13  1  0  0  0  0
 10 23  1  0  0  0  0
 11 24  1  6  0  0  0
 12  3  1  0  0  0  0
 12  9  1  1  0  0  0
 13 16  1  0  0  0  0
 16  4  1  0  0  0  0
 17 23  1  0  0  0  0
 18 22  1  0  0  0  0
 19 20  1  6  0  0  0
 19 12  1  0  0  0  0
 19  3  1  0  0  0  0
 20 12  1  0  0  0  0
 21 22  1  0  0  0  0
 22 41  1  1  0  0  0
 23  4  1  0  0  0  0
 25 11  1  0  0  0  0
 27 26  1  0  0  0  0
 27 28  1  0  0  0  0
 29 27  1  0  0  0  0
 30 29  1  0  0  0  0
 30 31  1  0  0  0  0
 31 35  1  0  0  0  0
 32 34  2  0  0  0  0
 34 31  1  0  0  0  0
 34 33  1  0  0  0  0
 35 39  1  0  0  0  0
 37 39  1  0  0  0  0
 37 36  1  0  0  0  0
 37 40  1  0  0  0  0
 39 40  1  0  0  0  0
 40 38  1  0  0  0  0
 41 44  1  0  0  0  0
 42 44  2  0  0  0  0
 44 45  1  0  0  0  0
 44 43  2  0  0  0  0
 45 46  1  0  0  0  0
 46 49  1  0  0  0  0
 48 52  1  0  0  0  0
 48 46  1  0  0  0  0
 49 53  1  0  0  0  0
 49 47  1  0  0  0  0
 50 51  1  0  0  0  0
 51 54  2  0  0  0  0
 52 50  1  0  0  0  0
 53 47  1  0  0  0  0
 53 51  1  0  0  0  0
M  END
>  <MODEL>
8

>  <REMARK>
 VINA RESULT:      -5.7      2.456      5.923
  Name = 
  12 active torsions:
  status: ('A' for Active; 'I' for Inactive)
    1  A    between atoms: C_4  and  N_10
    2  A    between atoms: C_8  and  N_23
    3  A    between atoms: O_9  and  C_28
    4  A    between atoms: O_9  and  C_40
    5  A    between atoms: N_10  and  S_43
    6  A    between atoms: O_17  and  C_41
    7  A    between atoms: O_17  and  C_45
    8  A    between atoms: N_23  and  C_28
    9  A    between atoms: C_29  and  S_43
   10  A    between atoms: C_29  and  C_49
   11  A    between atoms: C_40  and  C_41
   12  A    between atoms: C_41  and  C_52
                            x       y       z     vdW  Elec       q    Type
                         _______ _______ _______ _____ _____    ______ ____

>  <TORSDO>
F 12

$$$$
=
 OpenBabel11062412453D

 54 61  0  0  1  0  0  0  0  0999 V2000
  188.1120  178.0360  145.5480 O   0  0  0  0  0  0  0  0  0  0  0  0
  186.0110  178.1070  143.0040 C   0  0  2  0  0  3  0  0  0  0  0  0
  183.4520  177.8890  138.0820 N   0  0  0  0  0  2  0  0  0  0  0  0
  189.5500  177.2350  142.4710 C   0  0  2  0  0  3  0  0  0  0  0  0
  182.3620  178.9700  139.9330 C   0  0  2  0  0  3  0  0  0  0  0  0
  187.5560  178.1820  139.0900 O   0  0  0  0  0  0  0  0  0  0  0  0
  183.6610  178.4200  142.0890 C   0  0  1  0  0  3  0  0  0  0  0  0
  182.7230  177.9160  140.9990 C   0  0  0  0  0  2  0  0  0  0  0  0
  185.6620  178.5510  137.6720 C   0  0  0  0  0  2  0  0  0  0  0  0
  188.8540  177.8100  144.5560 C   0  0  0  0  0  0  0  0  0  0  0  0
  186.1430  178.9730  141.7720 C   0  0  2  0  0  3  0  0  0  0  0  0
  184.6360  178.3850  138.7760 C   0  0  1  0  0  0  0  0  0  0  0  0
  190.3090  177.7190  144.5970 C   0  0  0  0  0  2  0  0  0  0  0  0
  186.8810  177.6910  137.9690 C   0  0  0  0  0  2  0  0  0  0  0  0
  183.1890  177.9660  143.3260 O   0  0  0  0  0  1  0  0  0  0  0  0
  190.7080  177.2920  143.3080 O   0  0  0  0  0  0  0  0  0  0  0  0
  187.0600  177.0070  142.9810 C   0  0  0  0  0  2  0  0  0  0  0  0
  189.7020  178.2450  141.3280 C   0  0  0  0  0  2  0  0  0  0  0  0
  183.3390  179.1720  138.7590 C   0  0  1  0  0  0  0  0  0  0  0  0
  184.5170  179.6760  139.2930 O   0  0  0  0  0  0  0  0  0  0  0  0
  188.3180  177.1100  139.5450 C   0  0  0  0  0  2  0  0  0  0  0  0
  189.7040  177.5940  139.9370 C   0  0  2  0  0  3  0  0  0  0  0  0
  188.3810  177.5500  143.2670 N   0  0  0  0  0  0  0  0  0  0  0  0
  185.6330  180.2440  142.0500 O   0  0  0  0  0  1  0  0  0  0  0  0
  185.0700  177.8780  141.8340 C   0  0  1  0  0  3  0  0  0  0  0  0
  181.9730  180.2470  140.5250 N   0  0  0  0  0  2  0  0  0  0  0  0
  180.5850  180.5030  140.1660 C   0  0  1  0  0  3  0  0  0  0  0  0
  179.7190  180.4090  141.4080 C   0  0  0  0  0  1  0  0  0  0  0  0
  180.4660  181.7810  139.6110 O   0  0  0  0  0  0  0  0  0  0  0  0
  180.7290  181.6040  138.2490 C   0  0  0  0  0  2  0  0  0  0  0  0
  179.8660  182.5510  137.4260 C   0  0  1  0  0  3  0  0  0  0  0  0
  180.9570  183.8330  135.5850 O   0  0  0  0  0  0  0  0  0  0  0  0
  181.1480  184.5500  137.7520 O   0  0  0  0  0  1  0  0  0  0  0  0
  180.6930  183.7000  136.9420 C   0  0  0  0  0  0  0  0  0  0  0  0
  179.3060  181.8710  136.3400 O   0  0  0  0  0  0  0  0  0  0  0  0
  181.6130  179.5060  135.0620 O   0  0  0  0  0  1  0  0  0  0  0  0
  180.5280  180.3770  134.9540 C   0  0  2  0  0  3  0  0  0  0  0  0
  179.4160  178.3760  135.7520 O   0  0  0  0  0  1  0  0  0  0  0  0
  179.9360  180.6240  136.3280 C   0  0  2  0  0  3  0  0  0  0  0  0
  179.2180  179.7020  135.3610 C   0  0  1  0  0  3  0  0  0  0  0  0
  190.7070  176.4520  139.8030 C   0  0  0  0  0  2  0  0  0  0  0  0
  191.0130  177.1060  137.2210 O   0  0  0  0  0  0  0  0  0  0  0  0
  192.0680  175.0150  137.9630 O   0  0  0  0  0  0  0  0  0  0  0  0
  190.8600  175.9030  138.1100 S   0  0  0  0  0  0  0  0  0  0  0  0
  189.4300  175.0260  137.6740 N   0  0  0  0  0  2  0  0  0  0  0  0
  189.7390  174.1810  136.5220 C   0  0  1  0  0  3  0  0  0  0  0  0
  188.6040  175.9960  135.2110 C   0  0  0  0  0  2  0  0  0  0  0  0
  189.2260  172.7440  136.7460 C   0  0  0  0  0  2  0  0  0  0  0  0
  189.2360  174.7590  135.1830 C   0  0  2  0  0  3  0  0  0  0  0  0
  186.7540  172.6470  136.0510 C   0  0  0  0  0  2  0  0  0  0  0  0
  186.5720  174.0290  135.5190 C   0  0  0  0  0  0  0  0  0  0  0  0
  187.7580  172.6440  137.2110 C   0  0  0  0  0  2  0  0  0  0  0  0
  187.7510  174.7710  135.2620 N   0  0  0  0  0  0  0  0  0  0  0  0
  185.4410  174.6360  135.6560 N   0  0  0  0  0  2  0  0  0  0  0  0
  2 17  1  6  0  0  0
  3 12  1  0  0  0  0
  4 18  1  6  0  0  0
  4 23  1  0  0  0  0
  4 16  1  0  0  0  0
  5 26  1  1  0  0  0
  5  8  1  0  0  0  0
  6 21  1  0  0  0  0
  7 15  1  1  0  0  0
  8  7  1  0  0  0  0
  9 14  1  0  0  0  0
 10 13  1  0  0  0  0
 10  1  2  0  0  0  0
 11 25  1  0  0  0  0
 11 24  1  1  0  0  0
 11  2  1  0  0  0  0
 12  9  1  6  0  0  0
 12 20  1  0  0  0  0
 14  6  1  0  0  0  0
 16 13  1  0  0  0  0
 17 23  1  0  0  0  0
 19  3  1  6  0  0  0
 19 12  1  0  0  0  0
 19 20  1  0  0  0  0
 19  5  1  0  0  0  0
 21 22  1  0  0  0  0
 22 41  1  1  0  0  0
 22 18  1  0  0  0  0
 23 10  1  0  0  0  0
 25  7  1  0  0  0  0
 25  2  1  0  0  0  0
 27 26  1  0  0  0  0
 27 28  1  0  0  0  0
 29 27  1  0  0  0  0
 30 29  1  0  0  0  0
 31 30  1  0  0  0  0
 32 34  2  0  0  0  0
 34 31  1  0  0  0  0
 34 33  1  0  0  0  0
 35 31  1  0  0  0  0
 37 36  1  0  0  0  0
 37 40  1  0  0  0  0
 37 39  1  0  0  0  0
 39 35  1  0  0  0  0
 40 38  1  0  0  0  0
 40 39  1  0  0  0  0
 42 44  2  0  0  0  0
 43 44  2  0  0  0  0
 44 41  1  0  0  0  0
 45 44  1  0  0  0  0
 46 48  1  0  0  0  0
 46 45  1  0  0  0  0
 47 53  1  0  0  0  0
 48 52  1  0  0  0  0
 49 47  1  0  0  0  0
 49 53  1  0  0  0  0
 49 46  1  0  0  0  0
 50 52  1  0  0  0  0
 51 54  2  0  0  0  0
 51 50  1  0  0  0  0
 53 51  1  0  0  0  0
M  END
>  <MODEL>
9

>  <REMARK>
 VINA RESULT:      -5.7      4.252     10.867
  Name = 
  12 active torsions:
  status: ('A' for Active; 'I' for Inactive)
    1  A    between atoms: C_4  and  N_10
    2  A    between atoms: C_8  and  N_23
    3  A    between atoms: O_9  and  C_28
    4  A    between atoms: O_9  and  C_40
    5  A    between atoms: N_10  and  S_43
    6  A    between atoms: O_17  and  C_41
    7  A    between atoms: O_17  and  C_45
    8  A    between atoms: N_23  and  C_28
    9  A    between atoms: C_29  and  S_43
   10  A    between atoms: C_29  and  C_49
   11  A    between atoms: C_40  and  C_41
   12  A    between atoms: C_41  and  C_52
                            x       y       z     vdW  Elec       q    Type
                         _______ _______ _______ _____ _____    ______ ____

>  <TORSDO>
F 12

$$$$
