=
 OpenBabel11062414223D

 45 53  0  0  1  0  0  0  0  0999 V2000
  188.3770  177.0080  135.6680 O   0  0  0  0  0  0  0  0  0  0  0  0
  188.2810  173.8230  135.9000 C   0  0  0  0  0  2  0  0  0  0  0  0
  186.1730  177.6730  136.3630 C   0  0  2  0  0  3  0  0  0  0  0  0
  189.9970  172.5840  134.5940 C   0  0  0  0  0  2  0  0  0  0  0  0
  192.8310  175.5400  136.7730 C   0  0  0  0  0  0  0  0  0  0  0  0
  189.2790  177.8800  137.6820 C   0  0  1  0  0  3  0  0  0  0  0  0
  183.0140  178.6420  138.4140 C   0  0  1  0  0  3  0  0  0  0  0  0
  183.7170  174.9630  137.9600 C   0  0  0  0  0  2  0  0  0  0  0  0
  185.5800  177.2440  135.1730 O   0  0  0  0  0  1  0  0  0  0  0  0
  190.3660  175.0200  135.2850 C   0  0  2  0  0  3  0  0  0  0  0  0
  191.7100  176.1290  137.2010 C   0  0  0  0  0  3  0  0  0  0  0  0
  187.8080  178.3460  140.1140 O   0  0  0  0  0  1  0  0  0  0  0  0
  187.3950  176.8080  136.6650 C   0  0  2  0  0  3  0  0  0  0  0  0
  182.5470  175.8110  137.4640 C   0  0  0  0  0  2  0  0  0  0  0  0
  187.1030  177.6030  139.1640 C   0  0  1  0  0  3  0  0  0  0  0  0
  185.6280  173.8260  136.9160 C   0  0  1  0  0  3  0  0  0  0  0  0
  187.5610  169.9470  135.6230 C   0  0  0  0  0  1  0  0  0  0  0  0
  191.7320  174.9460  134.5940 C   0  0  0  0  0  2  0  0  0  0  0  0
  184.9640  178.4730  139.7770 O   0  0  0  0  0  0  0  0  0  0  0  0
  183.7830  178.0700  137.2070 C   0  0  2  0  0  3  0  0  0  0  0  0
  183.9720  179.3660  139.3560 C   0  0  0  0  0  2  0  0  0  0  0  0
  189.6030  177.2660  136.3290 C   0  0  1  0  0  3  0  0  0  0  0  0
  190.3770  175.9510  136.5180 C   0  0  1  0  0  3  0  0  0  0  0  0
  184.6640  173.5960  134.6850 O   0  0  0  0  0  1  0  0  0  0  0  0
  189.0170  179.3690  137.5030 C   0  0  0  0  0  1  0  0  0  0  0  0
  188.0580  171.3100  135.1630 C   0  0  2  0  0  3  0  0  0  0  0  0
  185.8560  178.3560  138.7010 C   0  0  2  0  0  3  0  0  0  0  0  0
  189.5210  171.2940  135.0930 N   0  0  0  0  0  2  0  0  0  0  0  0
  182.9820  176.9450  136.5240 C   0  0  0  0  0  2  0  0  0  0  0  0
  192.7970  174.7680  135.5710 N   0  0  0  0  0  2  0  0  0  0  0  0
  187.2930  172.1440  137.3780 O   0  0  0  0  0  0  0  0  0  0  0  0
  189.7810  173.6540  135.6660 C   0  0  1  0  0  3  0  0  0  0  0  0
  187.5650  172.4790  136.0410 C   0  0  1  0  0  0  0  0  0  0  0  0
  186.1690  172.4350  136.5670 C   0  0  2  0  0  3  0  0  0  0  0  0
  184.8210  174.4530  135.7770 C   0  0  1  0  0  3  0  0  0  0  0  0
  188.0240  177.1250  138.0180 C   0  0  2  0  0  3  0  0  0  0  0  0
  184.1120  173.8640  136.9790 C   0  0  2  0  0  3  0  0  0  0  0  0
  185.2080  177.5820  137.5440 C   0  0  2  0  0  3  0  0  0  0  0  0
  181.9350  179.6060  137.9420 C   0  0  0  0  0  3  0  0  0  0  0  0
  181.2850  180.2810  139.1350 C   0  0  0  0  0  2  0  0  0  0  0  0
  180.5800  179.1370  138.4400 C   0  0  0  0  0  2  0  0  0  0  0  0
  194.0540  176.3440  138.6330 O   0  0  0  0  0  0  0  0  0  0  0  0
  194.0860  175.7000  137.5510 C   0  0  0  0  0  0  0  0  0  0  0  0
  196.0990  174.2640  137.9090 C   0  0  0  0  0  1  0  0  0  0  0  0
  195.3210  175.1730  137.1460 O   0  0  0  0  0  0  0  0  0  0  0  0
  1 22  1  0  0  0  0
  2 33  1  0  0  0  0
  3  9  1  6  0  0  0
  3 13  1  0  0  0  0
  3 38  1  0  0  0  0
  4 28  1  0  0  0  0
  4 32  1  0  0  0  0
  5 11  2  0  0  0  0
  5 43  1  0  0  0  0
  6 25  1  6  0  0  0
  6 36  1  0  0  0  0
  7 39  1  6  0  0  0
  7 21  1  0  0  0  0
 10 18  1  1  0  0  0
 10 32  1  0  0  0  0
 10 23  1  0  0  0  0
 13  1  1  6  0  0  0
 13 36  1  0  0  0  0
 14  8  1  0  0  0  0
 15 12  1  1  0  0  0
 16 37  1  0  0  0  0
 18 30  1  0  0  0  0
 20 38  1  0  0  0  0
 20  7  1  0  0  0  0
 21 19  1  0  0  0  0
 22 23  1  0  0  0  0
 22  6  1  0  0  0  0
 23 11  1  0  0  0  0
 24 35  1  0  0  0  0
 26 17  1  0  0  0  0
 26 33  1  0  0  0  0
 27 15  1  0  0  0  0
 27 19  1  0  0  0  0
 28 26  1  0  0  0  0
 29 20  1  0  0  0  0
 29 14  1  0  0  0  0
 30  5  1  0  0  0  0
 32  2  1  0  0  0  0
 33 34  1  0  0  0  0
 33 31  1  0  0  0  0
 34 16  1  0  0  0  0
 34 31  1  0  0  0  0
 35 16  1  0  0  0  0
 35 37  1  0  0  0  0
 36 15  1  0  0  0  0
 37  8  1  0  0  0  0
 38 27  1  0  0  0  0
 39 41  1  0  0  0  0
 39 40  1  0  0  0  0
 41 40  1  0  0  0  0
 43 42  2  0  0  0  0
 45 43  1  0  0  0  0
 45 44  1  0  0  0  0
M  END
>  <MODEL>
1

>  <REMARK>
 VINA RESULT:      -7.0      0.000      0.000
  Name = 
  3 active torsions:
  status: ('A' for Active; 'I' for Inactive)
    1  A    between atoms: C_5  and  C_8
    2  A    between atoms: C_6  and  C_28
    3  A    between atoms: C_28  and  O_41
                            x       y       z     vdW  Elec       q    Type
                         _______ _______ _______ _____ _____    ______ ____

>  <TORSDO>
F 3

$$$$
=
 OpenBabel11062414223D

 45 53  0  0  1  0  0  0  0  0999 V2000
  186.2520  178.7830  138.4790 O   0  0  0  0  0  0  0  0  0  0  0  0
  185.8790  178.1870  141.5960 C   0  0  0  0  0  2  0  0  0  0  0  0
  188.5290  178.1250  138.0670 C   0  0  2  0  0  3  0  0  0  0  0  0
  184.0030  179.3780  142.7140 C   0  0  0  0  0  2  0  0  0  0  0  0
  181.6280  177.6050  139.1450 C   0  0  0  0  0  0  0  0  0  0  0  0
  185.4830  176.8990  137.2580 C   0  0  1  0  0  3  0  0  0  0  0  0
  191.7900  176.1350  137.3370 C   0  0  1  0  0  3  0  0  0  0  0  0
  190.5550  176.1810  140.9020 C   0  0  0  0  0  2  0  0  0  0  0  0
  189.0550  179.2460  138.7110 O   0  0  0  0  0  1  0  0  0  0  0  0
  183.9940  178.9760  140.1860 C   0  0  2  0  0  3  0  0  0  0  0  0
  182.8230  177.2260  138.6800 C   0  0  0  0  0  3  0  0  0  0  0  0
  187.0000  174.5080  136.7340 O   0  0  0  0  0  1  0  0  0  0  0  0
  187.1920  177.7500  138.7030 C   0  0  2  0  0  3  0  0  0  0  0  0
  191.8390  176.7470  140.2970 C   0  0  0  0  0  2  0  0  0  0  0  0
  187.5910  175.3520  137.6760 C   0  0  1  0  0  3  0  0  0  0  0  0
  188.5010  177.1270  141.8610 C   0  0  1  0  0  3  0  0  0  0  0  0
  186.0220  178.0070  145.5410 C   0  0  0  0  0  1  0  0  0  0  0  0
  182.6340  179.6810  140.1400 C   0  0  0  0  0  2  0  0  0  0  0  0
  189.8330  174.8010  137.0620 O   0  0  0  0  0  0  0  0  0  0  0  0
  190.9490  177.2830  137.9270 C   0  0  2  0  0  3  0  0  0  0  0  0
  190.9470  175.3010  136.3770 C   0  0  0  0  0  2  0  0  0  0  0  0
  185.0760  178.1800  137.9710 C   0  0  1  0  0  3  0  0  0  0  0  0
  184.1170  177.8570  139.1280 C   0  0  1  0  0  3  0  0  0  0  0  0
  189.4270  179.2970  142.4860 O   0  0  0  0  0  1  0  0  0  0  0  0
  185.9620  177.2410  135.8530 C   0  0  0  0  0  1  0  0  0  0  0  0
  185.7320  178.6290  144.1820 C   0  0  2  0  0  3  0  0  0  0  0  0
  188.9360  175.8740  137.1710 C   0  0  2  0  0  3  0  0  0  0  0  0
  184.2830  178.7250  143.9930 N   0  0  0  0  0  2  0  0  0  0  0  0
  191.5780  177.8180  139.2280 C   0  0  0  0  0  2  0  0  0  0  0  0
  181.5510  178.7110  140.0470 N   0  0  0  0  0  2  0  0  0  0  0  0
  186.6050  176.5080  143.2190 O   0  0  0  0  0  0  0  0  0  0  0  0
  184.3710  178.4300  141.5700 C   0  0  1  0  0  3  0  0  0  0  0  0
  186.3890  177.8800  143.0040 C   0  0  1  0  0  0  0  0  0  0  0  0
  187.7620  177.3250  143.1900 C   0  0  2  0  0  3  0  0  0  0  0  0
  189.3950  178.3130  141.4940 C   0  0  1  0  0  3  0  0  0  0  0  0
  186.6120  176.4540  138.1440 C   0  0  2  0  0  3  0  0  0  0  0  0
  190.0050  177.0380  142.0380 C   0  0  2  0  0  3  0  0  0  0  0  0
  189.4660  176.9220  138.1600 C   0  0  2  0  0  3  0  0  0  0  0  0
  193.0010  176.6920  136.6020 C   0  0  0  0  0  3  0  0  0  0  0  0
  193.4510  175.7160  135.5310 C   0  0  0  0  0  2  0  0  0  0  0  0
  194.2000  175.7950  136.8430 C   0  0  0  0  0  2  0  0  0  0  0  0
  179.4960  177.5120  138.1210 O   0  0  0  0  0  0  0  0  0  0  0  0
  180.4080  176.8760  138.7150 C   0  0  0  0  0  0  0  0  0  0  0  0
  180.0500  174.9130  140.2170 C   0  0  0  0  0  1  0  0  0  0  0  0
  180.2050  175.5070  138.9370 O   0  0  0  0  0  0  0  0  0  0  0  0
  2 33  1  0  0  0  0
  3 38  1  0  0  0  0
  3 13  1  0  0  0  0
  3  9  1  1  0  0  0
  4 28  1  0  0  0  0
  5 30  1  0  0  0  0
  6 25  1  6  0  0  0
  6 22  1  0  0  0  0
  6 36  1  0  0  0  0
  7 39  1  6  0  0  0
  7 20  1  0  0  0  0
  8 37  1  0  0  0  0
 10 18  1  1  0  0  0
 10 32  1  0  0  0  0
 11 23  1  0  0  0  0
 11  5  2  0  0  0  0
 13  1  1  6  0  0  0
 14  8  1  0  0  0  0
 15 12  1  6  0  0  0
 15 36  1  0  0  0  0
 16 37  1  0  0  0  0
 16 34  1  0  0  0  0
 19 27  1  0  0  0  0
 20 38  1  0  0  0  0
 20 29  1  0  0  0  0
 21 19  1  0  0  0  0
 21  7  1  0  0  0  0
 22  1  1  0  0  0  0
 22 23  1  0  0  0  0
 23 10  1  0  0  0  0
 26 17  1  0  0  0  0
 27 15  1  0  0  0  0
 27 38  1  0  0  0  0
 28 26  1  0  0  0  0
 29 14  1  0  0  0  0
 30 18  1  0  0  0  0
 32  2  1  0  0  0  0
 32  4  1  0  0  0  0
 33 34  1  0  0  0  0
 33 31  1  0  0  0  0
 33 26  1  0  0  0  0
 34 31  1  0  0  0  0
 35 16  1  0  0  0  0
 35 37  1  0  0  0  0
 35 24  1  0  0  0  0
 36 13  1  0  0  0  0
 39 41  1  0  0  0  0
 40 39  1  0  0  0  0
 40 41  1  0  0  0  0
 42 43  2  0  0  0  0
 43 45  1  0  0  0  0
 43  5  1  0  0  0  0
 45 44  1  0  0  0  0
M  END
>  <MODEL>
2

>  <REMARK>
 VINA RESULT:      -5.1      3.830      9.425
  Name = 
  3 active torsions:
  status: ('A' for Active; 'I' for Inactive)
    1  A    between atoms: C_5  and  C_8
    2  A    between atoms: C_6  and  C_28
    3  A    between atoms: C_28  and  O_41
                            x       y       z     vdW  Elec       q    Type
                         _______ _______ _______ _____ _____    ______ ____

>  <TORSDO>
F 3

$$$$
=
 OpenBabel11062414223D

 45 53  0  0  1  0  0  0  0  0999 V2000
  188.8400  178.7430  139.6490 O   0  0  0  0  0  0  0  0  0  0  0  0
  186.5400  177.6040  137.7460 C   0  0  0  0  0  2  0  0  0  0  0  0
  187.7230  178.9990  141.7630 C   0  0  2  0  0  3  0  0  0  0  0  0
  186.9130  177.8780  135.3030 C   0  0  0  0  0  2  0  0  0  0  0  0
  190.9810  175.9250  136.3800 C   0  0  0  0  0  0  0  0  0  0  0  0
  190.0710  176.9100  140.5170 C   0  0  1  0  0  3  0  0  0  0  0  0
  186.1210  178.4190  145.2600 C   0  0  1  0  0  3  0  0  0  0  0  0
  184.0540  177.5030  142.2390 C   0  0  0  0  0  2  0  0  0  0  0  0
  187.0130  180.1270  141.3440 O   0  0  0  0  0  1  0  0  0  0  0  0
  188.8740  177.8740  136.9470 C   0  0  2  0  0  3  0  0  0  0  0  0
  190.5870  176.0640  137.6500 C   0  0  0  0  0  3  0  0  0  0  0  0
  189.3180  175.3130  142.7930 O   0  0  0  0  0  1  0  0  0  0  0  0
  187.9870  178.0880  140.5670 C   0  0  2  0  0  3  0  0  0  0  0  0
  183.8170  178.5680  143.3080 C   0  0  0  0  0  2  0  0  0  0  0  0
  188.3060  176.1640  142.3440 C   0  0  1  0  0  3  0  0  0  0  0  0
  184.6350  177.5110  139.8520 C   0  0  1  0  0  3  0  0  0  0  0  0
  183.3170  176.9090  135.5680 C   0  0  0  0  0  1  0  0  0  0  0  0
  189.8060  178.0520  135.7440 C   0  0  0  0  0  2  0  0  0  0  0  0
  187.3800  176.5360  144.5150 O   0  0  0  0  0  0  0  0  0  0  0  0
  186.2830  179.0970  143.8850 C   0  0  2  0  0  3  0  0  0  0  0  0
  187.3010  177.4910  145.5340 C   0  0  0  0  0  2  0  0  0  0  0  0
  189.8880  177.8450  139.3320 C   0  0  1  0  0  3  0  0  0  0  0  0
  189.5190  177.0380  138.0760 C   0  0  1  0  0  3  0  0  0  0  0  0
  183.8110  179.7520  139.3450 O   0  0  0  0  0  1  0  0  0  0  0  0
  190.9280  177.6010  141.5690 C   0  0  0  0  0  1  0  0  0  0  0  0
  184.6310  177.5810  135.9400 C   0  0  2  0  0  3  0  0  0  0  0  0
  187.9470  177.1940  143.4140 C   0  0  2  0  0  3  0  0  0  0  0  0
  185.6650  177.1860  134.9820 N   0  0  0  0  0  2  0  0  0  0  0  0
  184.9320  179.6220  143.3640 C   0  0  0  0  0  2  0  0  0  0  0  0
  190.4310  176.7870  135.3810 N   0  0  0  0  0  2  0  0  0  0  0  0
  184.6420  176.0710  137.9170 O   0  0  0  0  0  0  0  0  0  0  0  0
  187.4960  177.3000  136.5950 C   0  0  1  0  0  3  0  0  0  0  0  0
  185.0860  177.2930  137.3860 C   0  0  1  0  0  0  0  0  0  0  0  0
  184.0530  177.2380  138.4610 C   0  0  2  0  0  3  0  0  0  0  0  0
  184.5110  178.9760  140.2730 C   0  0  1  0  0  3  0  0  0  0  0  0
  188.6420  176.7670  140.9610 C   0  0  2  0  0  3  0  0  0  0  0  0
  183.5780  177.9340  140.8550 C   0  0  2  0  0  3  0  0  0  0  0  0
  186.9560  178.2050  142.8200 C   0  0  2  0  0  3  0  0  0  0  0  0
  186.0300  179.4690  146.3570 C   0  0  0  0  0  3  0  0  0  0  0  0
  186.8030  179.0100  147.5790 C   0  0  0  0  0  2  0  0  0  0  0  0
  185.2950  178.8930  147.5530 C   0  0  0  0  0  2  0  0  0  0  0  0
  192.3110  174.7360  134.8230 O   0  0  0  0  0  0  0  0  0  0  0  0
  191.9800  174.8830  136.0310 C   0  0  0  0  0  0  0  0  0  0  0  0
  193.8380  174.2890  137.5910 C   0  0  0  0  0  1  0  0  0  0  0  0
  192.5830  174.0410  136.9760 O   0  0  0  0  0  0  0  0  0  0  0  0
  3  9  1  6  0  0  0
  3 38  1  0  0  0  0
  4 32  1  0  0  0  0
  5 11  2  0  0  0  0
  6 36  1  0  0  0  0
  6 25  1  1  0  0  0
  7 21  1  0  0  0  0
  7 39  1  1  0  0  0
  8 14  1  0  0  0  0
 10 18  1  6  0  0  0
 10 23  1  0  0  0  0
 11 23  1  0  0  0  0
 13  1  1  6  0  0  0
 13 36  1  0  0  0  0
 13  3  1  0  0  0  0
 14 29  1  0  0  0  0
 15 12  1  1  0  0  0
 15 27  1  0  0  0  0
 16 35  1  0  0  0  0
 16 37  1  0  0  0  0
 17 26  1  0  0  0  0
 19 21  1  0  0  0  0
 20  7  1  0  0  0  0
 22  1  1  0  0  0  0
 22  6  1  0  0  0  0
 23 22  1  0  0  0  0
 24 35  1  0  0  0  0
 26 33  1  0  0  0  0
 27 19  1  0  0  0  0
 28  4  1  0  0  0  0
 28 26  1  0  0  0  0
 29 20  1  0  0  0  0
 30 18  1  0  0  0  0
 30  5  1  0  0  0  0
 31 34  1  0  0  0  0
 32 10  1  0  0  0  0
 32  2  1  0  0  0  0
 33  2  1  0  0  0  0
 33 31  1  0  0  0  0
 33 34  1  0  0  0  0
 34 16  1  0  0  0  0
 35 37  1  0  0  0  0
 36 15  1  0  0  0  0
 37  8  1  0  0  0  0
 38 27  1  0  0  0  0
 38 20  1  0  0  0  0
 39 41  1  0  0  0  0
 39 40  1  0  0  0  0
 41 40  1  0  0  0  0
 42 43  2  0  0  0  0
 43  5  1  0  0  0  0
 43 45  1  0  0  0  0
 45 44  1  0  0  0  0
M  END
>  <MODEL>
3

>  <REMARK>
 VINA RESULT:      -4.7      3.685      5.681
  Name = 
  3 active torsions:
  status: ('A' for Active; 'I' for Inactive)
    1  A    between atoms: C_5  and  C_8
    2  A    between atoms: C_6  and  C_28
    3  A    between atoms: C_28  and  O_41
                            x       y       z     vdW  Elec       q    Type
                         _______ _______ _______ _____ _____    ______ ____

>  <TORSDO>
F 3

$$$$
=
 OpenBabel11062414223D

 45 53  0  0  1  0  0  0  0  0999 V2000
  186.1130  179.2730  139.5650 O   0  0  0  0  0  0  0  0  0  0  0  0
  186.5300  176.6040  137.8580 C   0  0  0  0  0  2  0  0  0  0  0  0
  183.7300  179.5880  139.5110 C   0  0  2  0  0  3  0  0  0  0  0  0
  188.8150  176.2400  136.9470 C   0  0  0  0  0  2  0  0  0  0  0  0
  189.9820  177.0370  141.3660 C   0  0  0  0  0  0  0  0  0  0  0  0
  185.9870  178.6830  141.8590 C   0  0  1  0  0  3  0  0  0  0  0  0
  179.9030  179.4240  140.1860 C   0  0  1  0  0  3  0  0  0  0  0  0
  181.3990  176.6980  138.0480 C   0  0  0  0  0  2  0  0  0  0  0  0
  183.7330  180.0110  138.1800 O   0  0  0  0  0  1  0  0  0  0  0  0
  188.4280  177.7360  138.9870 C   0  0  2  0  0  3  0  0  0  0  0  0
  188.6950  177.3530  141.5350 C   0  0  0  0  0  3  0  0  0  0  0  0
  183.6310  177.7370  143.2200 O   0  0  0  0  0  1  0  0  0  0  0  0
  184.8770  178.6070  139.7390 C   0  0  2  0  0  3  0  0  0  0  0  0
  180.3750  177.7770  137.6950 C   0  0  0  0  0  2  0  0  0  0  0  0
  183.5000  177.7760  141.8300 C   0  0  1  0  0  3  0  0  0  0  0  0
  183.7400  176.2420  137.4620 C   0  0  1  0  0  3  0  0  0  0  0  0
  186.7080  173.7450  135.1350 C   0  0  0  0  0  1  0  0  0  0  0  0
  189.9420  177.9650  139.0320 C   0  0  0  0  0  2  0  0  0  0  0  0
  181.1690  178.2980  141.8640 O   0  0  0  0  0  0  0  0  0  0  0  0
  181.1700  179.6180  139.3310 C   0  0  2  0  0  3  0  0  0  0  0  0
  180.2690  179.3520  141.6650 C   0  0  0  0  0  2  0  0  0  0  0  0
  186.9160  178.9720  140.6910 C   0  0  1  0  0  3  0  0  0  0  0  0
  187.7880  177.7400  140.3940 C   0  0  1  0  0  3  0  0  0  0  0  0
  183.7740  177.4780  135.3570 O   0  0  0  0  0  1  0  0  0  0  0  0
  185.5420  180.0010  142.4800 C   0  0  0  0  0  1  0  0  0  0  0  0
  187.0810  175.0610  135.8030 C   0  0  2  0  0  3  0  0  0  0  0  0
  182.4120  178.7660  141.4150 C   0  0  2  0  0  3  0  0  0  0  0  0
  188.4320  174.9570  136.3580 N   0  0  0  0  0  2  0  0  0  0  0  0
  180.9200  179.2020  137.8690 C   0  0  0  0  0  2  0  0  0  0  0  0
  190.5610  177.1420  140.0630 N   0  0  0  0  0  2  0  0  0  0  0  0
  185.3790  174.4730  137.5190 O   0  0  0  0  0  0  0  0  0  0  0  0
  188.0060  176.4720  138.2260 C   0  0  1  0  0  3  0  0  0  0  0  0
  186.0790  175.5130  136.8850 C   0  0  1  0  0  0  0  0  0  0  0  0
  184.6230  175.2920  136.6450 C   0  0  2  0  0  3  0  0  0  0  0  0
  183.3340  177.4950  136.6830 C   0  0  1  0  0  3  0  0  0  0  0  0
  184.8640  177.9940  141.1360 C   0  0  2  0  0  3  0  0  0  0  0  0
  182.3390  176.3720  136.8930 C   0  0  2  0  0  3  0  0  0  0  0  0
  182.4180  178.8980  139.8850 C   0  0  2  0  0  3  0  0  0  0  0  0
  178.9310  180.5720  139.9550 C   0  0  0  0  0  3  0  0  0  0  0  0
  179.6850  181.8870  139.9030 C   0  0  0  0  0  2  0  0  0  0  0  0
  178.9390  181.4960  141.1590 C   0  0  0  0  0  2  0  0  0  0  0  0
  190.6300  175.4110  142.9590 O   0  0  0  0  0  0  0  0  0  0  0  0
  190.7860  176.5860  142.5300 C   0  0  0  0  0  0  0  0  0  0  0  0
  191.3950  178.6100  143.8610 C   0  0  0  0  0  1  0  0  0  0  0  0
  191.7160  177.4000  143.1920 O   0  0  0  0  0  0  0  0  0  0  0  0
  1 22  1  0  0  0  0
  2 32  1  0  0  0  0
  3  9  1  6  0  0  0
  3 13  1  0  0  0  0
  3 38  1  0  0  0  0
  4 32  1  0  0  0  0
  5 11  2  0  0  0  0
  5 43  1  0  0  0  0
  6 25  1  6  0  0  0
  7 39  1  1  0  0  0
  7 21  1  0  0  0  0
 10 18  1  1  0  0  0
 10 23  1  0  0  0  0
 13  1  1  1  0  0  0
 13 36  1  0  0  0  0
 14 29  1  0  0  0  0
 14  8  1  0  0  0  0
 15 12  1  1  0  0  0
 17 26  1  0  0  0  0
 18 30  1  0  0  0  0
 20 38  1  0  0  0  0
 20  7  1  0  0  0  0
 21 19  1  0  0  0  0
 22  6  1  0  0  0  0
 23 22  1  0  0  0  0
 23 11  1  0  0  0  0
 24 35  1  0  0  0  0
 26 28  1  0  0  0  0
 26 33  1  0  0  0  0
 27 15  1  0  0  0  0
 27 19  1  0  0  0  0
 28  4  1  0  0  0  0
 29 20  1  0  0  0  0
 30  5  1  0  0  0  0
 32 10  1  0  0  0  0
 33 31  1  0  0  0  0
 33  2  1  0  0  0  0
 34 33  1  0  0  0  0
 34 16  1  0  0  0  0
 34 31  1  0  0  0  0
 35 37  1  0  0  0  0
 35 16  1  0  0  0  0
 36 15  1  0  0  0  0
 36  6  1  0  0  0  0
 37 16  1  0  0  0  0
 37  8  1  0  0  0  0
 38 27  1  0  0  0  0
 39 41  1  0  0  0  0
 40 39  1  0  0  0  0
 40 41  1  0  0  0  0
 43 42  2  0  0  0  0
 43 45  1  0  0  0  0
 45 44  1  0  0  0  0
M  END
>  <MODEL>
4

>  <REMARK>
 VINA RESULT:      -4.6      2.925      4.623
  Name = 
  3 active torsions:
  status: ('A' for Active; 'I' for Inactive)
    1  A    between atoms: C_5  and  C_8
    2  A    between atoms: C_6  and  C_28
    3  A    between atoms: C_28  and  O_41
                            x       y       z     vdW  Elec       q    Type
                         _______ _______ _______ _____ _____    ______ ____

>  <TORSDO>
F 3

$$$$
=
 OpenBabel11062414223D

 45 53  0  0  1  0  0  0  0  0999 V2000
  186.1040  177.0180  136.2680 O   0  0  0  0  0  0  0  0  0  0  0  0
  185.6720  177.9770  139.2850 C   0  0  0  0  0  2  0  0  0  0  0  0
  188.4480  176.4870  136.1950 C   0  0  2  0  0  3  0  0  0  0  0  0
  183.6460  179.3560  139.7090 C   0  0  0  0  0  2  0  0  0  0  0  0
  181.5970  175.8330  137.4920 C   0  0  0  0  0  0  0  0  0  0  0  0
  185.5730  174.7100  136.1310 C   0  0  1  0  0  3  0  0  0  0  0  0
  191.9170  174.7490  136.4790 C   0  0  1  0  0  3  0  0  0  0  0  0
  190.5470  176.3920  139.5870 C   0  0  0  0  0  2  0  0  0  0  0  0
  188.8360  177.8280  136.2040 O   0  0  0  0  0  1  0  0  0  0  0  0
  183.7740  177.7780  137.6980 C   0  0  2  0  0  3  0  0  0  0  0  0
  182.8400  175.4040  137.2530 C   0  0  0  0  0  3  0  0  0  0  0  0
  187.3380  172.5400  136.8160 O   0  0  0  0  0  1  0  0  0  0  0  0
  187.1320  176.3300  136.9530 C   0  0  2  0  0  3  0  0  0  0  0  0
  191.7900  176.7240  138.7640 C   0  0  0  0  0  2  0  0  0  0  0  0
  187.8060  173.7930  137.2180 C   0  0  1  0  0  3  0  0  0  0  0  0
  188.3740  177.4620  139.9950 C   0  0  1  0  0  3  0  0  0  0  0  0
  185.6800  179.7530  142.8150 C   0  0  0  0  0  1  0  0  0  0  0  0
  182.3530  178.2240  137.3350 C   0  0  0  0  0  2  0  0  0  0  0  0
  190.1140  173.2520  136.9170 O   0  0  0  0  0  0  0  0  0  0  0  0
  190.9440  175.9440  136.4470 C   0  0  2  0  0  3  0  0  0  0  0  0
  191.1980  173.4700  136.0600 C   0  0  0  0  0  2  0  0  0  0  0  0
  185.0140  176.1240  136.1350 C   0  0  1  0  0  3  0  0  0  0  0  0
  184.0470  176.3060  137.3180 C   0  0  1  0  0  3  0  0  0  0  0  0
  189.0550  179.7460  139.4680 O   0  0  0  0  0  1  0  0  0  0  0  0
  186.0690  174.3740  134.7310 C   0  0  0  0  0  1  0  0  0  0  0  0
  185.3830  179.6020  141.3300 C   0  0  2  0  0  3  0  0  0  0  0  0
  189.1110  174.1410  136.5040 C   0  0  2  0  0  3  0  0  0  0  0  0
  183.9400  179.4400  141.1400 N   0  0  0  0  0  2  0  0  0  0  0  0
  191.4660  177.1060  137.3120 C   0  0  0  0  0  2  0  0  0  0  0  0
  181.3760  177.2230  137.7420 N   0  0  0  0  0  2  0  0  0  0  0  0
  186.4980  177.3850  141.5090 O   0  0  0  0  0  0  0  0  0  0  0  0
  184.1500  178.0160  139.1660 C   0  0  1  0  0  3  0  0  0  0  0  0
  186.1550  178.4480  140.6570 C   0  0  1  0  0  0  0  0  0  0  0  0
  187.5680  178.2020  141.0690 C   0  0  2  0  0  3  0  0  0  0  0  0
  189.1590  178.4070  139.0830 C   0  0  1  0  0  3  0  0  0  0  0  0
  186.7050  174.8730  137.1050 C   0  0  2  0  0  3  0  0  0  0  0  0
  189.8720  177.6290  140.1700 C   0  0  2  0  0  3  0  0  0  0  0  0
  189.4960  175.5870  136.8480 C   0  0  2  0  0  3  0  0  0  0  0  0
  193.0930  175.0030  135.5470 C   0  0  0  0  0  3  0  0  0  0  0  0
  194.0160  173.7990  135.5380 C   0  0  0  0  0  2  0  0  0  0  0  0
  194.3820  175.0230  136.3490 C   0  0  0  0  0  2  0  0  0  0  0  0
  179.4040  175.1720  136.8980 O   0  0  0  0  0  0  0  0  0  0  0  0
  180.4730  174.8630  137.4900 C   0  0  0  0  0  0  0  0  0  0  0  0
  179.8330  172.4560  137.6750 C   0  0  0  0  0  1  0  0  0  0  0  0
  180.5280  173.6110  138.1180 O   0  0  0  0  0  0  0  0  0  0  0  0
  2 33  1  0  0  0  0
  3  9  1  1  0  0  0
  3 38  1  0  0  0  0
  3 13  1  0  0  0  0
  4 28  1  0  0  0  0
  5 30  1  0  0  0  0
  6 25  1  6  0  0  0
  6 22  1  0  0  0  0
  6 36  1  0  0  0  0
  7 39  1  6  0  0  0
  8 37  1  0  0  0  0
 10 18  1  1  0  0  0
 10 32  1  0  0  0  0
 11 23  1  0  0  0  0
 11  5  2  0  0  0  0
 13  1  1  6  0  0  0
 13 36  1  0  0  0  0
 14  8  1  0  0  0  0
 15 12  1  6  0  0  0
 16 37  1  0  0  0  0
 16 34  1  0  0  0  0
 18 30  1  0  0  0  0
 20  7  1  0  0  0  0
 20 38  1  0  0  0  0
 20 29  1  0  0  0  0
 21  7  1  0  0  0  0
 21 19  1  0  0  0  0
 22  1  1  0  0  0  0
 22 23  1  0  0  0  0
 23 10  1  0  0  0  0
 26 17  1  0  0  0  0
 27 38  1  0  0  0  0
 27 19  1  0  0  0  0
 27 15  1  0  0  0  0
 28 26  1  0  0  0  0
 29 14  1  0  0  0  0
 32  2  1  0  0  0  0
 32  4  1  0  0  0  0
 33 34  1  0  0  0  0
 33 26  1  0  0  0  0
 33 31  1  0  0  0  0
 34 31  1  0  0  0  0
 35 24  1  0  0  0  0
 35 16  1  0  0  0  0
 35 37  1  0  0  0  0
 36 15  1  0  0  0  0
 39 41  1  0  0  0  0
 40 39  1  0  0  0  0
 40 41  1  0  0  0  0
 42 43  2  0  0  0  0
 43  5  1  0  0  0  0
 43 45  1  0  0  0  0
 44 45  1  0  0  0  0
M  END
>  <MODEL>
5

>  <REMARK>
 VINA RESULT:      -4.1      3.114      9.162
  Name = 
  3 active torsions:
  status: ('A' for Active; 'I' for Inactive)
    1  A    between atoms: C_5  and  C_8
    2  A    between atoms: C_6  and  C_28
    3  A    between atoms: C_28  and  O_41
                            x       y       z     vdW  Elec       q    Type
                         _______ _______ _______ _____ _____    ______ ____

>  <TORSDO>
F 3

$$$$
