=
 OpenBabel11062414143D

 32 34  0  0  1  0  0  0  0  0999 V2000
  191.5790  177.8760  142.7110 N   0  0  0  0  0  2  0  0  0  0  0  0
  190.8260  177.1570  141.9480 C   0  0  0  0  0  0  0  0  0  0  0  0
  190.5650  177.5980  140.6120 N   0  0  0  0  0  2  0  0  0  0  0  0
  190.1540  175.9530  142.5210 C   0  0  0  0  0  2  0  0  0  0  0  0
  188.8970  176.3670  143.2000 C   0  0  0  0  0  3  0  0  0  0  0  0
  188.9290  177.0100  144.3590 C   0  0  0  0  0  3  0  0  0  0  0  0
  184.4580  180.4160  143.8140 O   0  0  0  0  0  1  0  0  0  0  0  0
  185.6740  178.1670  145.5490 C   0  0  0  0  0  0  0  0  0  0  0  0
  187.7000  177.4250  145.0650 C   0  0  0  0  0  0  0  0  0  0  0  0
  186.1650  178.0950  143.0640 C   0  0  0  0  0  2  0  0  0  0  0  0
  186.3300  177.8620  146.7250 C   0  0  0  0  0  3  0  0  0  0  0  0
  183.9930  179.1060  143.9540 C   0  0  2  0  0  3  0  0  0  0  0  0
  184.2510  178.5970  145.3820 C   0  0  0  0  0  2  0  0  0  0  0  0
  184.6400  178.1940  142.8950 C   0  0  0  0  0  2  0  0  0  0  0  0
  187.5650  177.4160  146.4090 N   0  0  0  0  0  0  0  0  0  0  0  0
  186.5160  177.8690  144.5020 C   0  0  0  0  0  0  0  0  0  0  0  0
  188.5730  177.0030  147.3770 C   0  0  0  0  0  2  0  0  0  0  0  0
  189.0630  178.2020  148.1690 C   0  0  0  0  0  2  0  0  0  0  0  0
  188.3530  178.2890  149.3650 O   0  0  0  0  0  1  0  0  0  0  0  0
  189.7940  176.8520  139.6230 C   0  0  0  0  0  2  0  0  0  0  0  0
  188.6730  177.6960  139.0310 C   0  0  1  0  0  3  0  0  0  0  0  0
  188.2800  178.6950  139.9260 O   0  0  0  0  0  1  0  0  0  0  0  0
  188.9850  179.6990  137.7390 O   0  0  0  0  0  1  0  0  0  0  0  0
  189.1270  178.3080  137.7100 C   0  0  2  0  0  3  0  0  0  0  0  0
  188.3520  177.7000  136.5390 C   0  0  2  0  0  3  0  0  0  0  0  0
  187.1620  176.9450  137.0630 C   0  0  2  0  0  3  0  0  0  0  0  0
  188.2700  175.6150  135.4330 O   0  0  0  0  0  0  0  0  0  0  0  0
  187.2790  175.5720  136.4240 C   0  0  1  0  0  3  0  0  0  0  0  0
  189.1540  176.6220  135.8390 C   0  0  0  0  0  2  0  0  0  0  0  0
  187.6310  174.6440  137.3850 F   0  0  0  0  0  0  0  0  0  0  0  0
  184.9150  177.7180  137.7800 C   0  0  0  0  0  1  0  0  0  0  0  0
  185.8820  177.6260  136.6190 C   0  0  0  0  0  2  0  0  0  0  0  0
  2  4  1  0  0  0  0
  2  1  2  0  0  0  0
  3  2  1  0  0  0  0
  4  5  1  0  0  0  0
  5  6  2  0  0  0  0
  6  9  1  0  0  0  0
  8 11  2  0  0  0  0
  9 15  1  0  0  0  0
 10 16  1  0  0  0  0
 12  7  1  1  0  0  0
 12 13  1  0  0  0  0
 13  8  1  0  0  0  0
 14 10  1  0  0  0  0
 14 12  1  0  0  0  0
 15 11  1  0  0  0  0
 15 17  1  0  0  0  0
 16  9  2  0  0  0  0
 16  8  1  0  0  0  0
 17 18  1  0  0  0  0
 18 19  1  0  0  0  0
 20  3  1  0  0  0  0
 21 20  1  0  0  0  0
 21 22  1  1  0  0  0
 24 23  1  1  0  0  0
 24 21  1  0  0  0  0
 25 26  1  0  0  0  0
 25 24  1  1  0  0  0
 26 32  1  6  0  0  0
 27 29  1  0  0  0  0
 27 28  1  0  0  0  0
 28 26  1  0  0  0  0
 28 30  1  1  0  0  0
 29 25  1  0  0  0  0
 32 31  1  0  0  0  0
M  END
>  <MODEL>
1

>  <REMARK>
 VINA RESULT:      -8.1      0.000      0.000
  Name = 
  10 active torsions:
  status: ('A' for Active; 'I' for Inactive)
    1  A    between atoms: C_1  and  C_15
    2  A    between atoms: C_3  and  C_20
    3  A    between atoms: C_6  and  C_9
    4  A    between atoms: C_8  and  C_9
    5  A    between atoms: C_12  and  C_14
    6  A    between atoms: N_13  and  C_23
    7  A    between atoms: C_15  and  C_27
    8  A    between atoms: C_22  and  N_26
    9  A    between atoms: C_22  and  C_28
   10  A    between atoms: C_23  and  C_27
                            x       y       z     vdW  Elec       q    Type
                         _______ _______ _______ _____ _____    ______ ____

>  <TORSDO>
F 10

$$$$
=
 OpenBabel11062414143D

 32 34  0  0  1  0  0  0  0  0999 V2000
  185.1950  179.4340  146.7340 N   0  0  0  0  0  2  0  0  0  0  0  0
  186.1020  178.5330  146.5490 C   0  0  0  0  0  0  0  0  0  0  0  0
  187.0160  178.2370  147.6090 N   0  0  0  0  0  2  0  0  0  0  0  0
  186.2450  177.9170  145.1960 C   0  0  0  0  0  2  0  0  0  0  0  0
  185.0940  178.3230  144.3460 C   0  0  0  0  0  3  0  0  0  0  0  0
  185.1030  178.1050  143.0380 C   0  0  0  0  0  3  0  0  0  0  0  0
  179.5300  177.4420  142.4190 O   0  0  0  0  0  1  0  0  0  0  0  0
  181.9790  179.0030  141.3670 C   0  0  0  0  0  0  0  0  0  0  0  0
  183.9820  178.5060  142.1640 C   0  0  0  0  0  0  0  0  0  0  0  0
  181.9740  178.3930  143.8270 C   0  0  0  0  0  2  0  0  0  0  0  0
  182.9070  179.1210  140.3510 C   0  0  0  0  0  3  0  0  0  0  0  0
  179.7920  178.8070  142.5630 C   0  0  2  0  0  3  0  0  0  0  0  0
  180.5240  179.3430  141.3210 C   0  0  0  0  0  2  0  0  0  0  0  0
  180.5910  179.0630  143.8540 C   0  0  0  0  0  2  0  0  0  0  0  0
  184.1200  178.8090  140.8550 N   0  0  0  0  0  0  0  0  0  0  0  0
  182.6500  178.6450  142.5150 C   0  0  0  0  0  0  0  0  0  0  0  0
  185.3610  178.8020  140.0920 C   0  0  0  0  0  2  0  0  0  0  0  0
  185.0900  178.4070  138.6510 C   0  0  0  0  0  2  0  0  0  0  0  0
  186.1960  178.7280  137.8670 O   0  0  0  0  0  1  0  0  0  0  0  0
  188.0390  177.1990  147.5630 C   0  0  0  0  0  2  0  0  0  0  0  0
  189.3940  177.7620  147.1550 C   0  0  1  0  0  3  0  0  0  0  0  0
  190.2630  177.8020  148.2480 O   0  0  0  0  0  1  0  0  0  0  0  0
  191.3270  176.6210  146.2940 O   0  0  0  0  0  1  0  0  0  0  0  0
  189.9860  176.9200  146.0300 C   0  0  2  0  0  3  0  0  0  0  0  0
  189.8380  177.6350  144.6850 C   0  0  2  0  0  3  0  0  0  0  0  0
  189.9770  176.6390  143.5680 C   0  0  2  0  0  3  0  0  0  0  0  0
  191.2870  178.5570  143.0640 O   0  0  0  0  0  0  0  0  0  0  0  0
  191.0380  177.2380  142.6610 C   0  0  1  0  0  3  0  0  0  0  0  0
  190.9890  178.5890  144.4310 C   0  0  0  0  0  2  0  0  0  0  0  0
  192.2010  176.5000  142.7610 F   0  0  0  0  0  0  0  0  0  0  0  0
  188.4970  177.6610  141.8580 C   0  0  0  0  0  1  0  0  0  0  0  0
  188.6610  176.5090  142.8270 C   0  0  0  0  0  2  0  0  0  0  0  0
  2  1  2  0  0  0  0
  2  3  1  0  0  0  0
  4  2  1  0  0  0  0
  5  4  1  0  0  0  0
  6  5  2  0  0  0  0
  8 16  1  0  0  0  0
  9 16  2  0  0  0  0
  9  6  1  0  0  0  0
 10 14  1  0  0  0  0
 11 15  1  0  0  0  0
 11  8  2  0  0  0  0
 12  7  1  6  0  0  0
 12 14  1  0  0  0  0
 13  8  1  0  0  0  0
 13 12  1  0  0  0  0
 15  9  1  0  0  0  0
 16 10  1  0  0  0  0
 17 15  1  0  0  0  0
 18 17  1  0  0  0  0
 19 18  1  0  0  0  0
 20  3  1  0  0  0  0
 21 20  1  0  0  0  0
 21 22  1  1  0  0  0
 24 23  1  1  0  0  0
 24 21  1  0  0  0  0
 25 24  1  1  0  0  0
 26 32  1  6  0  0  0
 26 25  1  0  0  0  0
 27 29  1  0  0  0  0
 28 30  1  1  0  0  0
 28 27  1  0  0  0  0
 28 26  1  0  0  0  0
 29 25  1  0  0  0  0
 31 32  1  0  0  0  0
M  END
>  <MODEL>
2

>  <REMARK>
 VINA RESULT:      -8.0      3.283      7.212
  Name = 
  10 active torsions:
  status: ('A' for Active; 'I' for Inactive)
    1  A    between atoms: C_1  and  C_15
    2  A    between atoms: C_3  and  C_20
    3  A    between atoms: C_6  and  C_9
    4  A    between atoms: C_8  and  C_9
    5  A    between atoms: C_12  and  C_14
    6  A    between atoms: N_13  and  C_23
    7  A    between atoms: C_15  and  C_27
    8  A    between atoms: C_22  and  N_26
    9  A    between atoms: C_22  and  C_28
   10  A    between atoms: C_23  and  C_27
                            x       y       z     vdW  Elec       q    Type
                         _______ _______ _______ _____ _____    ______ ____

>  <TORSDO>
F 10

$$$$
=
 OpenBabel11062414143D

 32 34  0  0  1  0  0  0  0  0999 V2000
  185.7040  179.7070  146.8720 N   0  0  0  0  0  2  0  0  0  0  0  0
  185.3230  178.9090  145.9320 C   0  0  0  0  0  0  0  0  0  0  0  0
  184.1960  179.2700  145.1270 N   0  0  0  0  0  2  0  0  0  0  0  0
  185.9920  177.5810  145.7930 C   0  0  0  0  0  2  0  0  0  0  0  0
  187.3460  177.7710  145.2060 C   0  0  0  0  0  3  0  0  0  0  0  0
  187.8820  176.8500  144.4180 C   0  0  0  0  0  3  0  0  0  0  0  0
  190.7290  175.9690  139.6220 O   0  0  0  0  0  1  0  0  0  0  0  0
  190.9180  177.2520  142.4260 C   0  0  0  0  0  0  0  0  0  0  0  0
  189.2270  177.0010  143.8290 C   0  0  0  0  0  0  0  0  0  0  0  0
  188.6480  177.2790  141.3000 C   0  0  0  0  0  2  0  0  0  0  0  0
  191.4170  177.1250  143.7070 C   0  0  0  0  0  3  0  0  0  0  0  0
  190.8040  177.3300  139.9290 C   0  0  2  0  0  3  0  0  0  0  0  0
  191.6800  177.5480  141.1740 C   0  0  0  0  0  2  0  0  0  0  0  0
  189.3910  177.9140  140.1140 C   0  0  0  0  0  2  0  0  0  0  0  0
  190.3710  176.9680  144.5480 N   0  0  0  0  0  0  0  0  0  0  0  0
  189.5450  177.2040  142.4970 C   0  0  0  0  0  0  0  0  0  0  0  0
  190.4820  176.7880  145.9890 C   0  0  0  0  0  2  0  0  0  0  0  0
  191.8840  176.3350  146.3560 C   0  0  0  0  0  2  0  0  0  0  0  0
  192.1570  176.6950  147.6740 O   0  0  0  0  0  1  0  0  0  0  0  0
  183.7030  178.5010  143.9900 C   0  0  0  0  0  2  0  0  0  0  0  0
  184.3780  178.9220  142.6910 C   0  0  1  0  0  3  0  0  0  0  0  0
  185.4270  178.0550  142.3750 O   0  0  0  0  0  1  0  0  0  0  0  0
  182.0720  178.6880  142.0550 O   0  0  0  0  0  1  0  0  0  0  0  0
  183.3530  178.9580  141.5620 C   0  0  2  0  0  3  0  0  0  0  0  0
  183.7340  177.9720  140.4560 C   0  0  2  0  0  3  0  0  0  0  0  0
  184.1330  178.7320  139.2220 C   0  0  2  0  0  3  0  0  0  0  0  0
  182.6600  176.9710  138.6060 O   0  0  0  0  0  0  0  0  0  0  0  0
  183.2810  178.1300  138.1180 C   0  0  1  0  0  3  0  0  0  0  0  0
  182.5360  177.1710  139.9860 C   0  0  0  0  0  2  0  0  0  0  0  0
  182.3170  179.0390  137.7300 F   0  0  0  0  0  0  0  0  0  0  0  0
  185.7760  177.9020  137.5570 C   0  0  0  0  0  1  0  0  0  0  0  0
  185.6050  178.5110  138.9330 C   0  0  0  0  0  2  0  0  0  0  0  0
  2  1  2  0  0  0  0
  3  2  1  0  0  0  0
  4  2  1  0  0  0  0
  5  4  1  0  0  0  0
  6  5  2  0  0  0  0
  8 16  1  0  0  0  0
  8 11  2  0  0  0  0
  9  6  1  0  0  0  0
  9 15  1  0  0  0  0
 10 16  1  0  0  0  0
 11 15  1  0  0  0  0
 12  7  1  1  0  0  0
 12 14  1  0  0  0  0
 12 13  1  0  0  0  0
 13  8  1  0  0  0  0
 14 10  1  0  0  0  0
 15 17  1  0  0  0  0
 16  9  2  0  0  0  0
 17 18  1  0  0  0  0
 18 19  1  0  0  0  0
 20  3  1  0  0  0  0
 21 22  1  6  0  0  0
 21 20  1  0  0  0  0
 24 23  1  1  0  0  0
 24 21  1  0  0  0  0
 25 24  1  1  0  0  0
 26 32  1  6  0  0  0
 26 25  1  0  0  0  0
 27 29  1  0  0  0  0
 28 30  1  1  0  0  0
 28 27  1  0  0  0  0
 28 26  1  0  0  0  0
 29 25  1  0  0  0  0
 31 32  1  0  0  0  0
M  END
>  <MODEL>
3

>  <REMARK>
 VINA RESULT:      -8.0      2.730      5.781
  Name = 
  10 active torsions:
  status: ('A' for Active; 'I' for Inactive)
    1  A    between atoms: C_1  and  C_15
    2  A    between atoms: C_3  and  C_20
    3  A    between atoms: C_6  and  C_9
    4  A    between atoms: C_8  and  C_9
    5  A    between atoms: C_12  and  C_14
    6  A    between atoms: N_13  and  C_23
    7  A    between atoms: C_15  and  C_27
    8  A    between atoms: C_22  and  N_26
    9  A    between atoms: C_22  and  C_28
   10  A    between atoms: C_23  and  C_27
                            x       y       z     vdW  Elec       q    Type
                         _______ _______ _______ _____ _____    ______ ____

>  <TORSDO>
F 10

$$$$
=
 OpenBabel11062414143D

 32 34  0  0  1  0  0  0  0  0999 V2000
  185.3680  178.8270  140.9240 N   0  0  0  0  0  2  0  0  0  0  0  0
  186.2240  178.6240  139.9800 C   0  0  0  0  0  0  0  0  0  0  0  0
  185.7580  178.5060  138.6310 N   0  0  0  0  0  2  0  0  0  0  0  0
  187.6560  178.3980  140.3370 C   0  0  0  0  0  2  0  0  0  0  0  0
  187.8180  178.4960  141.8120 C   0  0  0  0  0  3  0  0  0  0  0  0
  187.9690  177.4090  142.5550 C   0  0  0  0  0  3  0  0  0  0  0  0
  185.8610  180.0020  147.1060 O   0  0  0  0  0  1  0  0  0  0  0  0
  187.7590  177.7450  146.1870 C   0  0  0  0  0  0  0  0  0  0  0  0
  188.1190  177.4700  144.0220 C   0  0  0  0  0  0  0  0  0  0  0  0
  185.7180  178.1870  144.7500 C   0  0  0  0  0  2  0  0  0  0  0  0
  189.0730  177.3650  145.9980 C   0  0  0  0  0  3  0  0  0  0  0  0
  185.6840  178.6260  147.2680 C   0  0  2  0  0  3  0  0  0  0  0  0
  187.0400  177.9360  147.4850 C   0  0  0  0  0  2  0  0  0  0  0  0
  184.9280  178.0390  146.0610 C   0  0  0  0  0  2  0  0  0  0  0  0
  189.2750  177.2080  144.6720 N   0  0  0  0  0  0  0  0  0  0  0  0
  187.1460  177.7850  144.9550 C   0  0  0  0  0  0  0  0  0  0  0  0
  190.5410  176.8230  144.0630 C   0  0  0  0  0  2  0  0  0  0  0  0
  191.6290  177.8100  144.4440 C   0  0  0  0  0  2  0  0  0  0  0  0
  191.4990  178.9630  143.6720 O   0  0  0  0  0  1  0  0  0  0  0  0
  186.6170  178.3490  137.4630 C   0  0  0  0  0  2  0  0  0  0  0  0
  187.1540  176.9280  137.3470 C   0  0  1  0  0  3  0  0  0  0  0  0
  186.4930  176.2310  136.3320 O   0  0  0  0  0  1  0  0  0  0  0  0
  188.9240  176.7030  135.7360 O   0  0  0  0  0  1  0  0  0  0  0  0
  188.6560  176.9620  137.0840 C   0  0  2  0  0  3  0  0  0  0  0  0
  189.3850  175.9680  137.9900 C   0  0  2  0  0  3  0  0  0  0  0  0
  190.6770  176.5740  138.4640 C   0  0  2  0  0  3  0  0  0  0  0  0
  191.0830  174.3460  137.7400 O   0  0  0  0  0  0  0  0  0  0  0  0
  191.7270  175.5320  138.1200 C   0  0  1  0  0  3  0  0  0  0  0  0
  189.8470  174.7470  137.2190 C   0  0  0  0  0  2  0  0  0  0  0  0
  192.5050  175.9880  137.0750 F   0  0  0  0  0  0  0  0  0  0  0  0
  191.8880  177.4830  140.4300 C   0  0  0  0  0  1  0  0  0  0  0  0
  190.6230  176.7940  139.9630 C   0  0  0  0  0  2  0  0  0  0  0  0
  2  4  1  0  0  0  0
  2  1  2  0  0  0  0
  3  2  1  0  0  0  0
  4  5  1  0  0  0  0
  5  6  2  0  0  0  0
  6  9  1  0  0  0  0
  8 13  1  0  0  0  0
  9 15  1  0  0  0  0
  9 16  2  0  0  0  0
 10 16  1  0  0  0  0
 10 14  1  0  0  0  0
 11  8  2  0  0  0  0
 12  7  1  6  0  0  0
 12 13  1  0  0  0  0
 14 12  1  0  0  0  0
 15 11  1  0  0  0  0
 16  8  1  0  0  0  0
 17 18  1  0  0  0  0
 17 15  1  0  0  0  0
 19 18  1  0  0  0  0
 20  3  1  0  0  0  0
 21 22  1  6  0  0  0
 21 20  1  0  0  0  0
 24 23  1  6  0  0  0
 24 21  1  0  0  0  0
 25 24  1  6  0  0  0
 25 26  1  0  0  0  0
 26 32  1  1  0  0  0
 27 28  1  0  0  0  0
 28 30  1  6  0  0  0
 28 26  1  0  0  0  0
 29 27  1  0  0  0  0
 29 25  1  0  0  0  0
 32 31  1  0  0  0  0
M  END
>  <MODEL>
4

>  <REMARK>
 VINA RESULT:      -8.0      2.558      4.027
  Name = 
  10 active torsions:
  status: ('A' for Active; 'I' for Inactive)
    1  A    between atoms: C_1  and  C_15
    2  A    between atoms: C_3  and  C_20
    3  A    between atoms: C_6  and  C_9
    4  A    between atoms: C_8  and  C_9
    5  A    between atoms: C_12  and  C_14
    6  A    between atoms: N_13  and  C_23
    7  A    between atoms: C_15  and  C_27
    8  A    between atoms: C_22  and  N_26
    9  A    between atoms: C_22  and  C_28
   10  A    between atoms: C_23  and  C_27
                            x       y       z     vdW  Elec       q    Type
                         _______ _______ _______ _____ _____    ______ ____

>  <TORSDO>
F 10

$$$$
=
 OpenBabel11062414143D

 32 34  0  0  1  0  0  0  0  0999 V2000
  187.3270  178.4590  140.9100 N   0  0  0  0  0  2  0  0  0  0  0  0
  188.4460  178.1710  140.3340 C   0  0  0  0  0  0  0  0  0  0  0  0
  188.5100  178.1600  138.9040 N   0  0  0  0  0  2  0  0  0  0  0  0
  189.6040  177.7410  141.1740 C   0  0  0  0  0  2  0  0  0  0  0  0
  189.3070  178.0240  142.6040 C   0  0  0  0  0  3  0  0  0  0  0  0
  189.4760  177.0920  143.5320 C   0  0  0  0  0  3  0  0  0  0  0  0
  185.8960  179.8930  146.8820 O   0  0  0  0  0  1  0  0  0  0  0  0
  188.1710  177.8040  146.8700 C   0  0  0  0  0  0  0  0  0  0  0  0
  189.1790  177.3360  144.9570 C   0  0  0  0  0  0  0  0  0  0  0  0
  186.6170  177.8230  144.8680 C   0  0  0  0  0  2  0  0  0  0  0  0
  189.5110  177.5740  147.1150 C   0  0  0  0  0  3  0  0  0  0  0  0
  185.8000  178.5330  147.1830 C   0  0  2  0  0  3  0  0  0  0  0  0
  187.0870  178.0460  147.8710 C   0  0  0  0  0  2  0  0  0  0  0  0
  185.4900  177.7240  145.9090 C   0  0  0  0  0  2  0  0  0  0  0  0
  190.1090  177.2960  145.9370 N   0  0  0  0  0  0  0  0  0  0  0  0
  187.9500  177.6280  145.5230 C   0  0  0  0  0  0  0  0  0  0  0  0
  191.5280  177.0070  145.7720 C   0  0  0  0  0  2  0  0  0  0  0  0
  191.9230  175.8130  146.6230 C   0  0  0  0  0  2  0  0  0  0  0  0
  192.5530  176.2610  147.7830 O   0  0  0  0  0  1  0  0  0  0  0  0
  189.7210  177.9240  138.1260 C   0  0  0  0  0  2  0  0  0  0  0  0
  189.5720  176.7180  137.2070 C   0  0  1  0  0  3  0  0  0  0  0  0
  189.7300  177.0920  135.8700 O   0  0  0  0  0  1  0  0  0  0  0  0
  190.7220  175.5710  138.9800 O   0  0  0  0  0  1  0  0  0  0  0  0
  190.5910  175.6490  137.5890 C   0  0  2  0  0  3  0  0  0  0  0  0
  191.9400  175.9270  136.9250 C   0  0  2  0  0  3  0  0  0  0  0  0
  192.5780  174.6270  136.5180 C   0  0  2  0  0  3  0  0  0  0  0  0
  194.2040  175.9860  137.5970 O   0  0  0  0  0  0  0  0  0  0  0  0
  193.9690  174.6860  137.1260 C   0  0  1  0  0  3  0  0  0  0  0  0
  192.9390  176.4990  137.9110 C   0  0  0  0  0  2  0  0  0  0  0  0
  194.0520  173.7950  138.1770 F   0  0  0  0  0  0  0  0  0  0  0  0
  193.9280  173.8160  134.6000 C   0  0  0  0  0  1  0  0  0  0  0  0
  192.6650  174.5460  135.0070 C   0  0  0  0  0  2  0  0  0  0  0  0
  2  1  2  0  0  0  0
  2  4  1  0  0  0  0
  3  2  1  0  0  0  0
  4  5  1  0  0  0  0
  5  6  2  0  0  0  0
  6  9  1  0  0  0  0
  8 11  2  0  0  0  0
  8 13  1  0  0  0  0
  9 16  2  0  0  0  0
  9 15  1  0  0  0  0
 10 16  1  0  0  0  0
 10 14  1  0  0  0  0
 12  7  1  6  0  0  0
 12 13  1  0  0  0  0
 14 12  1  0  0  0  0
 15 11  1  0  0  0  0
 16  8  1  0  0  0  0
 17 15  1  0  0  0  0
 17 18  1  0  0  0  0
 18 19  1  0  0  0  0
 20  3  1  0  0  0  0
 21 22  1  6  0  0  0
 21 24  1  0  0  0  0
 21 20  1  0  0  0  0
 24 23  1  1  0  0  0
 25 24  1  1  0  0  0
 25 29  1  0  0  0  0
 26 32  1  6  0  0  0
 26 25  1  0  0  0  0
 26 28  1  0  0  0  0
 27 29  1  0  0  0  0
 28 27  1  0  0  0  0
 28 30  1  1  0  0  0
 31 32  1  0  0  0  0
M  END
>  <MODEL>
5

>  <REMARK>
 VINA RESULT:      -7.8      3.199      4.358
  Name = 
  10 active torsions:
  status: ('A' for Active; 'I' for Inactive)
    1  A    between atoms: C_1  and  C_15
    2  A    between atoms: C_3  and  C_20
    3  A    between atoms: C_6  and  C_9
    4  A    between atoms: C_8  and  C_9
    5  A    between atoms: C_12  and  C_14
    6  A    between atoms: N_13  and  C_23
    7  A    between atoms: C_15  and  C_27
    8  A    between atoms: C_22  and  N_26
    9  A    between atoms: C_22  and  C_28
   10  A    between atoms: C_23  and  C_27
                            x       y       z     vdW  Elec       q    Type
                         _______ _______ _______ _____ _____    ______ ____

>  <TORSDO>
F 10

$$$$
=
 OpenBabel11062414143D

 32 34  0  0  1  0  0  0  0  0999 V2000
  192.0300  177.7950  141.7950 N   0  0  0  0  0  2  0  0  0  0  0  0
  191.1030  177.1280  141.1930 C   0  0  0  0  0  0  0  0  0  0  0  0
  190.8140  177.4200  139.8220 N   0  0  0  0  0  2  0  0  0  0  0  0
  190.2790  176.1610  141.9790 C   0  0  0  0  0  2  0  0  0  0  0  0
  189.5470  176.8920  143.0480 C   0  0  0  0  0  3  0  0  0  0  0  0
  188.2870  176.5980  143.3340 C   0  0  0  0  0  3  0  0  0  0  0  0
  187.5640  176.7580  148.9310 O   0  0  0  0  0  1  0  0  0  0  0  0
  186.8710  178.2080  146.2930 C   0  0  0  0  0  0  0  0  0  0  0  0
  187.5280  177.3120  144.3800 C   0  0  0  0  0  0  0  0  0  0  0  0
  189.1350  177.0770  146.4230 C   0  0  0  0  0  2  0  0  0  0  0  0
  185.9010  178.4340  145.3360 C   0  0  0  0  0  3  0  0  0  0  0  0
  188.0040  178.0160  148.5130 C   0  0  2  0  0  3  0  0  0  0  0  0
  186.9080  178.7210  147.6970 C   0  0  0  0  0  2  0  0  0  0  0  0
  189.3170  177.8860  147.7180 C   0  0  0  0  0  2  0  0  0  0  0  0
  186.3170  177.8770  144.1790 N   0  0  0  0  0  0  0  0  0  0  0  0
  187.9080  177.5290  145.6940 C   0  0  0  0  0  0  0  0  0  0  0  0
  185.5660  177.8900  142.9310 C   0  0  0  0  0  2  0  0  0  0  0  0
  184.9400  179.2560  142.7090 C   0  0  0  0  0  2  0  0  0  0  0  0
  185.3150  179.7370  141.4560 O   0  0  0  0  0  1  0  0  0  0  0  0
  189.8470  176.7000  139.0020 C   0  0  0  0  0  2  0  0  0  0  0  0
  188.6290  177.5590  138.6850 C   0  0  1  0  0  3  0  0  0  0  0  0
  188.5070  178.6030  139.6040 O   0  0  0  0  0  1  0  0  0  0  0  0
  188.6430  179.4990  137.2660 O   0  0  0  0  0  1  0  0  0  0  0  0
  188.7360  178.1040  137.2640 C   0  0  2  0  0  3  0  0  0  0  0  0
  187.6640  177.4830  136.3660 C   0  0  2  0  0  3  0  0  0  0  0  0
  186.6120  176.8280  137.2180 C   0  0  2  0  0  3  0  0  0  0  0  0
  187.2140  175.3510  135.4550 O   0  0  0  0  0  0  0  0  0  0  0  0
  186.5040  175.4190  136.6620 C   0  0  1  0  0  3  0  0  0  0  0  0
  188.2160  176.3230  135.5600 C   0  0  0  0  0  2  0  0  0  0  0  0
  187.0450  174.5240  137.5630 F   0  0  0  0  0  0  0  0  0  0  0  0
  184.9280  178.2490  138.3590 C   0  0  0  0  0  1  0  0  0  0  0  0
  185.2940  177.5590  137.0620 C   0  0  0  0  0  2  0  0  0  0  0  0
  2  1  2  0  0  0  0
  2  4  1  0  0  0  0
  3  2  1  0  0  0  0
  4  5  1  0  0  0  0
  5  6  2  0  0  0  0
  6  9  1  0  0  0  0
  8 13  1  0  0  0  0
  9 16  2  0  0  0  0
 10 14  1  0  0  0  0
 11  8  2  0  0  0  0
 12  7  1  6  0  0  0
 13 12  1  0  0  0  0
 14 12  1  0  0  0  0
 15  9  1  0  0  0  0
 15 11  1  0  0  0  0
 16  8  1  0  0  0  0
 16 10  1  0  0  0  0
 17 15  1  0  0  0  0
 18 17  1  0  0  0  0
 19 18  1  0  0  0  0
 20  3  1  0  0  0  0
 21 20  1  0  0  0  0
 21 22  1  1  0  0  0
 24 23  1  1  0  0  0
 24 21  1  0  0  0  0
 25 26  1  0  0  0  0
 25 24  1  1  0  0  0
 26 32  1  6  0  0  0
 27 29  1  0  0  0  0
 27 28  1  0  0  0  0
 28 26  1  0  0  0  0
 28 30  1  1  0  0  0
 29 25  1  0  0  0  0
 32 31  1  0  0  0  0
M  END
>  <MODEL>
6

>  <REMARK>
 VINA RESULT:      -7.8      1.105      3.281
  Name = 
  10 active torsions:
  status: ('A' for Active; 'I' for Inactive)
    1  A    between atoms: C_1  and  C_15
    2  A    between atoms: C_3  and  C_20
    3  A    between atoms: C_6  and  C_9
    4  A    between atoms: C_8  and  C_9
    5  A    between atoms: C_12  and  C_14
    6  A    between atoms: N_13  and  C_23
    7  A    between atoms: C_15  and  C_27
    8  A    between atoms: C_22  and  N_26
    9  A    between atoms: C_22  and  C_28
   10  A    between atoms: C_23  and  C_27
                            x       y       z     vdW  Elec       q    Type
                         _______ _______ _______ _____ _____    ______ ____

>  <TORSDO>
F 10

$$$$
=
 OpenBabel11062414143D

 32 34  0  0  1  0  0  0  0  0999 V2000
  191.8850  179.3030  144.0170 N   0  0  0  0  0  2  0  0  0  0  0  0
  191.4220  178.1630  143.6270 C   0  0  0  0  0  0  0  0  0  0  0  0
  191.1800  177.9500  142.2320 N   0  0  0  0  0  2  0  0  0  0  0  0
  191.0390  177.1480  144.6530 C   0  0  0  0  0  2  0  0  0  0  0  0
  189.7650  177.5580  145.3000 C   0  0  0  0  0  3  0  0  0  0  0  0
  188.5970  177.1350  144.8370 C   0  0  0  0  0  3  0  0  0  0  0  0
  184.1470  180.4990  143.9680 O   0  0  0  0  0  1  0  0  0  0  0  0
  185.2490  178.2530  145.7800 C   0  0  0  0  0  0  0  0  0  0  0  0
  187.3140  177.5330  145.4480 C   0  0  0  0  0  0  0  0  0  0  0  0
  185.9300  178.2000  143.3390 C   0  0  0  0  0  2  0  0  0  0  0  0
  185.8170  177.9470  147.0010 C   0  0  0  0  0  3  0  0  0  0  0  0
  183.6860  179.1840  144.0650 C   0  0  2  0  0  3  0  0  0  0  0  0
  183.8390  178.6690  145.5060 C   0  0  0  0  0  2  0  0  0  0  0  0
  184.4220  178.2850  143.0540 C   0  0  0  0  0  2  0  0  0  0  0  0
  187.0770  177.5150  146.7780 N   0  0  0  0  0  0  0  0  0  0  0  0
  186.1720  177.9690  144.7990 C   0  0  0  0  0  0  0  0  0  0  0  0
  188.0120  177.1060  147.8180 C   0  0  0  0  0  2  0  0  0  0  0  0
  188.2590  178.2530  148.7830 C   0  0  0  0  0  2  0  0  0  0  0  0
  189.6020  178.6210  148.7300 O   0  0  0  0  0  1  0  0  0  0  0  0
  190.7280  176.6930  141.6470 C   0  0  0  0  0  2  0  0  0  0  0  0
  189.5540  176.9030  140.7000 C   0  0  1  0  0  3  0  0  0  0  0  0
  188.6210  177.7820  141.2570 O   0  0  0  0  0  1  0  0  0  0  0  0
  189.4160  178.6320  139.0350 O   0  0  0  0  0  1  0  0  0  0  0  0
  190.0570  177.4320  139.3610 C   0  0  2  0  0  3  0  0  0  0  0  0
  189.8610  176.3880  138.2600 C   0  0  2  0  0  3  0  0  0  0  0  0
  190.5560  176.8440  137.0070 C   0  0  2  0  0  3  0  0  0  0  0  0
  188.3810  176.0620  136.4490 O   0  0  0  0  0  0  0  0  0  0  0  0
  189.4870  176.7500  135.9320 C   0  0  1  0  0  3  0  0  0  0  0  0
  188.4110  176.2990  137.8290 C   0  0  0  0  0  2  0  0  0  0  0  0
  189.1010  178.0210  135.5530 F   0  0  0  0  0  0  0  0  0  0  0  0
  191.6580  174.6990  137.5930 C   0  0  0  0  0  1  0  0  0  0  0  0
  191.7080  175.9120  136.6880 C   0  0  0  0  0  2  0  0  0  0  0  0
  2  1  2  0  0  0  0
  2  4  1  0  0  0  0
  3  2  1  0  0  0  0
  4  5  1  0  0  0  0
  6  5  2  0  0  0  0
  6  9  1  0  0  0  0
  8 11  2  0  0  0  0
  9 15  1  0  0  0  0
 10 16  1  0  0  0  0
 12  7  1  1  0  0  0
 12 13  1  0  0  0  0
 13  8  1  0  0  0  0
 14 10  1  0  0  0  0
 14 12  1  0  0  0  0
 15 11  1  0  0  0  0
 15 17  1  0  0  0  0
 16  9  2  0  0  0  0
 16  8  1  0  0  0  0
 17 18  1  0  0  0  0
 19 18  1  0  0  0  0
 20  3  1  0  0  0  0
 21 22  1  1  0  0  0
 21 20  1  0  0  0  0
 24 23  1  6  0  0  0
 24 21  1  0  0  0  0
 25 24  1  1  0  0  0
 26 32  1  6  0  0  0
 26 25  1  0  0  0  0
 27 29  1  0  0  0  0
 28 30  1  1  0  0  0
 28 27  1  0  0  0  0
 28 26  1  0  0  0  0
 29 25  1  0  0  0  0
 32 31  1  0  0  0  0
M  END
>  <MODEL>
7

>  <REMARK>
 VINA RESULT:      -7.7      1.562      2.431
  Name = 
  10 active torsions:
  status: ('A' for Active; 'I' for Inactive)
    1  A    between atoms: C_1  and  C_15
    2  A    between atoms: C_3  and  C_20
    3  A    between atoms: C_6  and  C_9
    4  A    between atoms: C_8  and  C_9
    5  A    between atoms: C_12  and  C_14
    6  A    between atoms: N_13  and  C_23
    7  A    between atoms: C_15  and  C_27
    8  A    between atoms: C_22  and  N_26
    9  A    between atoms: C_22  and  C_28
   10  A    between atoms: C_23  and  C_27
                            x       y       z     vdW  Elec       q    Type
                         _______ _______ _______ _____ _____    ______ ____

>  <TORSDO>
F 10

$$$$
=
 OpenBabel11062414143D

 32 34  0  0  1  0  0  0  0  0999 V2000
  183.4620  178.9300  145.3560 N   0  0  0  0  0  2  0  0  0  0  0  0
  183.0880  179.0170  144.1230 C   0  0  0  0  0  0  0  0  0  0  0  0
  181.6890  179.0700  143.8230 N   0  0  0  0  0  2  0  0  0  0  0  0
  184.1180  178.9340  143.0460 C   0  0  0  0  0  2  0  0  0  0  0  0
  185.4650  178.7990  143.6620 C   0  0  0  0  0  3  0  0  0  0  0  0
  186.2280  177.7450  143.4080 C   0  0  0  0  0  3  0  0  0  0  0  0
  189.1250  178.8910  148.1170 O   0  0  0  0  0  1  0  0  0  0  0  0
  189.2420  177.3590  145.4370 C   0  0  0  0  0  0  0  0  0  0  0  0
  187.5640  177.5750  144.0120 C   0  0  0  0  0  0  0  0  0  0  0  0
  186.9750  177.5510  146.5540 C   0  0  0  0  0  2  0  0  0  0  0  0
  189.7440  177.3460  144.1510 C   0  0  0  0  0  3  0  0  0  0  0  0
  189.1270  177.5070  147.9300 C   0  0  2  0  0  3  0  0  0  0  0  0
  189.9890  177.1340  146.7130 C   0  0  0  0  0  2  0  0  0  0  0  0
  187.6850  176.9840  147.7930 C   0  0  0  0  0  2  0  0  0  0  0  0
  188.7080  177.4840  143.2970 N   0  0  0  0  0  0  0  0  0  0  0  0
  187.8730  177.4730  145.3580 C   0  0  0  0  0  0  0  0  0  0  0  0
  188.8260  177.5300  141.8450 C   0  0  0  0  0  2  0  0  0  0  0  0
  190.2550  177.2370  141.4250 C   0  0  0  0  0  2  0  0  0  0  0  0
  190.2500  176.3210  140.3750 O   0  0  0  0  0  1  0  0  0  0  0  0
  181.1290  179.2400  142.4870 C   0  0  0  0  0  2  0  0  0  0  0  0
  180.8640  177.8990  141.8140 C   0  0  1  0  0  3  0  0  0  0  0  0
  179.5380  177.5030  142.0080 O   0  0  0  0  0  1  0  0  0  0  0  0
  180.1520  177.4330  139.5650 O   0  0  0  0  0  1  0  0  0  0  0  0
  181.1830  177.9950  140.3260 C   0  0  2  0  0  3  0  0  0  0  0  0
  182.5220  177.3220  140.0170 C   0  0  2  0  0  3  0  0  0  0  0  0
  183.1660  178.0010  138.8400 C   0  0  2  0  0  3  0  0  0  0  0  0
  183.3010  175.6460  138.5470 O   0  0  0  0  0  0  0  0  0  0  0  0
  183.4880  176.8660  137.8830 C   0  0  1  0  0  3  0  0  0  0  0  0
  182.3320  175.9010  139.5240 C   0  0  0  0  0  2  0  0  0  0  0  0
  182.6450  176.9290  136.7910 F   0  0  0  0  0  0  0  0  0  0  0  0
  185.5870  178.2950  138.3790 C   0  0  0  0  0  1  0  0  0  0  0  0
  184.4380  178.6990  139.2790 C   0  0  0  0  0  2  0  0  0  0  0  0
  2  1  2  0  0  0  0
  3  2  1  0  0  0  0
  4  5  1  0  0  0  0
  4  2  1  0  0  0  0
  6  5  2  0  0  0  0
  6  9  1  0  0  0  0
  8 13  1  0  0  0  0
  9 16  2  0  0  0  0
 10 14  1  0  0  0  0
 11  8  2  0  0  0  0
 12  7  1  6  0  0  0
 13 12  1  0  0  0  0
 14 12  1  0  0  0  0
 15  9  1  0  0  0  0
 15 11  1  0  0  0  0
 16  8  1  0  0  0  0
 16 10  1  0  0  0  0
 17 15  1  0  0  0  0
 18 17  1  0  0  0  0
 19 18  1  0  0  0  0
 20  3  1  0  0  0  0
 21 22  1  6  0  0  0
 21 20  1  0  0  0  0
 24 23  1  6  0  0  0
 24 21  1  0  0  0  0
 25 24  1  6  0  0  0
 26 32  1  1  0  0  0
 26 25  1  0  0  0  0
 27 29  1  0  0  0  0
 28 30  1  6  0  0  0
 28 27  1  0  0  0  0
 28 26  1  0  0  0  0
 29 25  1  0  0  0  0
 31 32  1  0  0  0  0
M  END
>  <MODEL>
8

>  <REMARK>
 VINA RESULT:      -7.6      3.194      6.397
  Name = 
  10 active torsions:
  status: ('A' for Active; 'I' for Inactive)
    1  A    between atoms: C_1  and  C_15
    2  A    between atoms: C_3  and  C_20
    3  A    between atoms: C_6  and  C_9
    4  A    between atoms: C_8  and  C_9
    5  A    between atoms: C_12  and  C_14
    6  A    between atoms: N_13  and  C_23
    7  A    between atoms: C_15  and  C_27
    8  A    between atoms: C_22  and  N_26
    9  A    between atoms: C_22  and  C_28
   10  A    between atoms: C_23  and  C_27
                            x       y       z     vdW  Elec       q    Type
                         _______ _______ _______ _____ _____    ______ ____

>  <TORSDO>
F 10

$$$$
=
 OpenBabel11062414143D

 32 34  0  0  1  0  0  0  0  0999 V2000
  186.2240  179.3610  140.9580 N   0  0  0  0  0  2  0  0  0  0  0  0
  186.8780  178.5570  140.1890 C   0  0  0  0  0  0  0  0  0  0  0  0
  186.6660  178.6200  138.7750 N   0  0  0  0  0  2  0  0  0  0  0  0
  187.7410  177.5060  140.8070 C   0  0  0  0  0  2  0  0  0  0  0  0
  187.9630  177.8310  142.2410 C   0  0  0  0  0  3  0  0  0  0  0  0
  187.9620  176.8790  143.1630 C   0  0  0  0  0  3  0  0  0  0  0  0
  191.1690  175.3730  147.5600 O   0  0  0  0  0  1  0  0  0  0  0  0
  189.0390  177.4020  146.6150 C   0  0  0  0  0  0  0  0  0  0  0  0
  188.1660  177.1690  144.5970 C   0  0  0  0  0  0  0  0  0  0  0  0
  190.6920  176.5780  144.8800 C   0  0  0  0  0  2  0  0  0  0  0  0
  187.7070  177.7610  146.6610 C   0  0  0  0  0  3  0  0  0  0  0  0
  191.3370  176.7430  147.3470 C   0  0  2  0  0  3  0  0  0  0  0  0
  190.0510  177.5020  147.7120 C   0  0  0  0  0  2  0  0  0  0  0  0
  191.7660  177.0080  145.8920 C   0  0  0  0  0  2  0  0  0  0  0  0
  187.1910  177.6080  145.4220 N   0  0  0  0  0  0  0  0  0  0  0  0
  189.3420  177.0560  145.3180 C   0  0  0  0  0  0  0  0  0  0  0  0
  185.8050  177.8730  145.0590 C   0  0  0  0  0  2  0  0  0  0  0  0
  185.2800  179.0700  145.8320 C   0  0  0  0  0  2  0  0  0  0  0  0
  184.5600  178.6260  146.9390 O   0  0  0  0  0  1  0  0  0  0  0  0
  187.3870  177.8240  137.7880 C   0  0  0  0  0  2  0  0  0  0  0  0
  188.5000  178.6240  137.1240 C   0  0  1  0  0  3  0  0  0  0  0  0
  188.9780  179.6140  137.9860 O   0  0  0  0  0  1  0  0  0  0  0  0
  189.5330  177.3910  135.3380 O   0  0  0  0  0  1  0  0  0  0  0  0
  189.6280  177.6890  136.7010 C   0  0  2  0  0  3  0  0  0  0  0  0
  189.6150  176.4120  137.5450 C   0  0  2  0  0  3  0  0  0  0  0  0
  190.9310  176.2680  138.2580 C   0  0  2  0  0  3  0  0  0  0  0  0
  190.3400  174.1790  137.2880 O   0  0  0  0  0  0  0  0  0  0  0  0
  191.3940  174.8650  137.9080 C   0  0  1  0  0  3  0  0  0  0  0  0
  189.5640  175.1710  136.6760 C   0  0  0  0  0  2  0  0  0  0  0  0
  192.4680  174.9350  137.0430 F   0  0  0  0  0  0  0  0  0  0  0  0
  191.6020  177.5000  140.3050 C   0  0  0  0  0  1  0  0  0  0  0  0
  190.7230  176.3970  139.7540 C   0  0  0  0  0  2  0  0  0  0  0  0
  2  4  1  0  0  0  0
  2  1  2  0  0  0  0
  3  2  1  0  0  0  0
  4  5  1  0  0  0  0
  5  6  2  0  0  0  0
  6  9  1  0  0  0  0
  8 11  2  0  0  0  0
  8 13  1  0  0  0  0
  9 16  2  0  0  0  0
  9 15  1  0  0  0  0
 10 16  1  0  0  0  0
 10 14  1  0  0  0  0
 12  7  1  6  0  0  0
 12 13  1  0  0  0  0
 14 12  1  0  0  0  0
 15 11  1  0  0  0  0
 16  8  1  0  0  0  0
 17 15  1  0  0  0  0
 17 18  1  0  0  0  0
 18 19  1  0  0  0  0
 20  3  1  0  0  0  0
 21 20  1  0  0  0  0
 21 22  1  1  0  0  0
 24 23  1  6  0  0  0
 24 21  1  0  0  0  0
 25 24  1  6  0  0  0
 25 26  1  0  0  0  0
 26 32  1  1  0  0  0
 27 28  1  0  0  0  0
 28 30  1  6  0  0  0
 28 26  1  0  0  0  0
 29 27  1  0  0  0  0
 29 25  1  0  0  0  0
 32 31  1  0  0  0  0
M  END
>  <MODEL>
9

>  <REMARK>
 VINA RESULT:      -7.6      2.403      4.509
  Name = 
  10 active torsions:
  status: ('A' for Active; 'I' for Inactive)
    1  A    between atoms: C_1  and  C_15
    2  A    between atoms: C_3  and  C_20
    3  A    between atoms: C_6  and  C_9
    4  A    between atoms: C_8  and  C_9
    5  A    between atoms: C_12  and  C_14
    6  A    between atoms: N_13  and  C_23
    7  A    between atoms: C_15  and  C_27
    8  A    between atoms: C_22  and  N_26
    9  A    between atoms: C_22  and  C_28
   10  A    between atoms: C_23  and  C_27
                            x       y       z     vdW  Elec       q    Type
                         _______ _______ _______ _____ _____    ______ ____

>  <TORSDO>
F 10

$$$$
