=
 OpenBabel11062414063D

 53 59  0  0  1  0  0  0  0  0999 V2000
  184.8900  176.6930  138.3840 O   0  0  0  0  0  0  0  0  0  0  0  0
  179.3820  176.4970  135.2920 O   0  0  0  0  0  1  0  0  0  0  0  0
  182.4270  176.8400  138.2960 C   0  0  2  0  0  3  0  0  0  0  0  0
  183.3500  179.5020  140.2200 C   0  0  2  0  0  3  0  0  0  0  0  0
  181.8530  179.6730  139.9620 C   0  0  2  0  0  0  0  0  0  0  0  0
  183.7800  177.5210  138.5920 C   0  0  1  0  0  3  0  0  0  0  0  0
  179.5130  178.7140  139.8160 C   0  0  0  0  0  1  0  0  0  0  0  0
  185.3130  177.1410  135.8440 O   0  0  0  0  0  0  0  0  0  0  0  0
  186.2910  172.8430  137.8510 O   0  0  0  0  0  0  0  0  0  0  0  0
  184.2330  177.4050  140.9130 O   0  0  0  0  0  0  0  0  0  0  0  0
  185.7870  179.1630  137.4170 O   0  0  0  0  0  1  0  0  0  0  0  0
  180.1890  177.7720  137.1650 C   0  0  2  0  0  3  0  0  0  0  0  0
  185.8470  177.4810  137.2160 P   0  0  1  0  0  0  0  0  0  0  0  0
  183.8080  178.0810  139.9880 C   0  0  0  0  0  0  0  0  0  0  0  0
  181.1210  175.5530  136.5620 C   0  0  0  0  0  2  0  0  0  0  0  0
  182.3640  179.7310  141.3920 C   0  0  1  0  0  3  0  0  0  0  0  0
  185.4170  172.8830  135.6370 C   0  0  0  0  0  2  0  0  0  0  0  0
  186.9800  174.6390  136.5300 N   0  0  0  0  0  2  0  0  0  0  0  0
  182.5050  175.8410  137.1210 C   0  0  2  0  0  3  0  0  0  0  0  0
  181.3770  177.9720  138.1410 C   0  0  1  0  0  3  0  0  0  0  0  0
  187.5750  175.3670  137.6340 C   0  0  0  0  0  2  0  0  0  0  0  0
  180.9940  178.4700  139.5500 C   0  0  1  0  0  3  0  0  0  0  0  0
  180.5340  176.8270  136.0090 C   0  0  1  0  0  3  0  0  0  0  0  0
  186.2600  173.4270  136.7350 C   0  0  0  0  0  0  0  0  0  0  0  0
  181.5220  180.9180  139.4290 O   0  0  0  0  0  1  0  0  0  0  0  0
  184.1670  173.7340  135.4560 C   0  0  0  0  0  2  0  0  0  0  0  0
  183.1450  173.4350  136.5410 C   0  0  0  0  0  2  0  0  0  0  0  0
  183.1200  174.5250  137.6140 C   0  0  0  0  0  2  0  0  0  0  0  0
  187.5780  176.8630  137.3360 C   0  0  2  0  0  3  0  0  0  0  0  0
  179.8030  179.1580  136.6320 C   0  0  2  0  0  3  0  0  0  0  0  0
  180.6650  179.5110  135.4770 C   0  0  2  0  0  3  0  0  0  0  0  0
  180.8700  180.0750  136.7500 O   0  0  0  0  0  0  0  0  0  0  0  0
  180.5170  181.8980  134.8280 C   0  0  0  0  0  1  0  0  0  0  0  0
  179.9460  180.5110  134.5940 C   0  0  0  0  0  2  0  0  0  0  0  0
  189.7640  177.0150  138.2680 O   0  0  0  0  0  1  0  0  0  0  0  0
  188.5060  177.6270  138.3120 C   0  0  1  0  0  0  0  0  0  0  0  0
  188.6930  179.0650  137.8480 C   0  0  0  0  0  1  0  0  0  0  0  0
  187.0440  178.5920  139.9880 F   0  0  0  0  0  0  0  0  0  0  0  0
  187.9760  177.5920  139.7640 C   0  0  2  0  0  3  0  0  0  0  0  0
  188.6320  177.0540  142.0850 C   0  0  2  0  0  3  0  0  0  0  0  0
  189.0970  177.7040  140.7940 C   0  0  2  0  0  3  0  0  0  0  0  0
  188.6500  178.5650  141.9640 C   0  0  0  0  0  2  0  0  0  0  0  0
  189.9510  175.1430  142.8280 F   0  0  0  0  0  0  0  0  0  0  0  0
  189.8190  176.5190  142.8950 C   0  0  1  0  0  3  0  0  0  0  0  0
  191.0480  177.1500  142.4440 N   0  0  0  0  0  2  0  0  0  0  0  0
  191.6810  177.7490  143.6070 C   0  0  0  0  0  1  0  0  0  0  0  0
  182.0790  178.5540  142.0920 O   0  0  0  0  0  0  0  0  0  0  0  0
  182.0540  178.9400  143.4400 C   0  0  0  0  0  2  0  0  0  0  0  0
  184.2140  178.6060  146.2840 O   0  0  0  0  0  1  0  0  0  0  0  0
  183.6910  179.3350  145.2670 N   0  0  0  0  0  0  0  0  0  0  0  0
  184.4620  179.1220  144.0110 C   0  0  2  0  0  3  0  0  0  0  0  0
  183.2310  178.3750  144.2520 C   0  0  2  0  0  3  0  0  0  0  0  0
  185.6630  178.1950  144.1610 C   0  0  0  0  0  1  0  0  0  0  0  0
  1  6  1  0  0  0  0
  2 23  1  0  0  0  0
  3  6  1  0  0  0  0
  4 16  1  0  0  0  0
  5  4  1  0  0  0  0
  5 16  1  0  0  0  0
  6 14  1  0  0  0  0
  8 13  2  0  0  0  0
 12 20  1  0  0  0  0
 13 29  1  0  0  0  0
 13 11  1  0  0  0  0
 13  1  1  0  0  0  0
 14  4  1  0  0  0  0
 14 10  2  0  0  0  0
 15 19  1  0  0  0  0
 16 47  1  0  0  0  0
 17 24  1  0  0  0  0
 18 24  1  0  0  0  0
 18 21  1  0  0  0  0
 19 28  1  0  0  0  0
 19  3  1  0  0  0  0
 20  3  1  0  0  0  0
 20 22  1  0  0  0  0
 22  7  1  0  0  0  0
 22  5  1  0  0  0  0
 23 15  1  0  0  0  0
 23 12  1  0  0  0  0
 24  9  2  0  0  0  0
 25  5  1  0  0  0  0
 26 17  1  0  0  0  0
 26 27  1  0  0  0  0
 27 28  1  0  0  0  0
 29 21  1  0  0  0  0
 29 36  1  0  0  0  0
 30 32  1  0  0  0  0
 30 12  1  0  0  0  0
 31 30  1  0  0  0  0
 31 32  1  0  0  0  0
 34 33  1  0  0  0  0
 34 31  1  0  0  0  0
 35 36  1  0  0  0  0
 36 39  1  0  0  0  0
 37 36  1  0  0  0  0
 39 38  1  0  0  0  0
 39 41  1  0  0  0  0
 40 44  1  0  0  0  0
 41 42  1  0  0  0  0
 41 40  1  0  0  0  0
 42 40  1  0  0  0  0
 43 44  1  0  0  0  0
 45 44  1  0  0  0  0
 45 46  1  0  0  0  0
 47 48  1  0  0  0  0
 48 52  1  0  0  0  0
 50 49  1  0  0  0  0
 51 53  1  0  0  0  0
 51 52  1  0  0  0  0
 51 50  1  0  0  0  0
 52 50  1  0  0  0  0
M  END
>  <MODEL>
1

>  <REMARK>
 VINA RESULT:      -6.4      0.000      0.000
  Name = 
  10 active torsions:
  status: ('A' for Active; 'I' for Inactive)
    1  A    between atoms: C_1  and  C_41
    2  A    between atoms: C_9  and  C_48
    3  A    between atoms: C_17  and  C_25
    4  A    between atoms: N_19  and  C_41
    5  A    between atoms: C_21  and  C_26
    6  A    between atoms: C_23  and  O_35
    7  A    between atoms: C_26  and  O_35
    8  A    between atoms: C_34  and  C_47
    9  A    between atoms: C_38  and  C_48
   10  A    between atoms: C_38  and  C_51
                            x       y       z     vdW  Elec       q    Type
                         _______ _______ _______ _____ _____    ______ ____

>  <TORSDO>
F 10

$$$$
=
 OpenBabel11062414063D

 53 59  0  0  1  0  0  0  0  0999 V2000
  186.1980  175.8450  137.2280 O   0  0  0  0  0  0  0  0  0  0  0  0
  180.0970  174.5660  136.1930 O   0  0  0  0  0  1  0  0  0  0  0  0
  183.8210  175.8530  137.8930 C   0  0  2  0  0  3  0  0  0  0  0  0
  184.9200  178.9780  138.7070 C   0  0  2  0  0  3  0  0  0  0  0  0
  183.4050  179.0050  138.9040 C   0  0  2  0  0  0  0  0  0  0  0  0
  185.1020  176.6490  137.5670 C   0  0  1  0  0  3  0  0  0  0  0  0
  181.2680  177.9390  139.7480 C   0  0  0  0  0  1  0  0  0  0  0  0
  185.7950  175.6000  134.6570 O   0  0  0  0  0  0  0  0  0  0  0  0
  187.8610  172.0630  137.2420 O   0  0  0  0  0  0  0  0  0  0  0  0
  186.2280  177.1920  139.5770 O   0  0  0  0  0  0  0  0  0  0  0  0
  186.4480  177.9940  135.4500 O   0  0  0  0  0  1  0  0  0  0  0  0
  181.2490  176.3390  137.3380 C   0  0  2  0  0  3  0  0  0  0  0  0
  186.6610  176.3260  135.6610 P   0  0  1  0  0  0  0  0  0  0  0  0
  185.4680  177.5690  138.6990 C   0  0  0  0  0  0  0  0  0  0  0  0
  182.2380  174.0840  137.0370 C   0  0  0  0  0  2  0  0  0  0  0  0
  184.3020  179.4750  140.0370 C   0  0  1  0  0  3  0  0  0  0  0  0
  186.3760  171.4560  135.4830 C   0  0  0  0  0  2  0  0  0  0  0  0
  187.8950  173.4580  135.3720 N   0  0  0  0  0  2  0  0  0  0  0  0
  183.6760  174.5750  137.0380 C   0  0  2  0  0  3  0  0  0  0  0  0
  182.6350  176.8510  137.8060 C   0  0  1  0  0  3  0  0  0  0  0  0
  188.6910  174.4860  136.0160 C   0  0  0  0  0  2  0  0  0  0  0  0
  182.6230  177.6980  139.0960 C   0  0  1  0  0  3  0  0  0  0  0  0
  181.3570  175.1300  136.4030 C   0  0  1  0  0  3  0  0  0  0  0  0
  187.4280  172.3180  136.0870 C   0  0  0  0  0  0  0  0  0  0  0  0
  182.7750  180.0410  138.2150 O   0  0  0  0  0  1  0  0  0  0  0  0
  185.0300  172.1680  135.5040 C   0  0  0  0  0  2  0  0  0  0  0  0
  184.4200  172.1330  136.8960 C   0  0  0  0  0  2  0  0  0  0  0  0
  184.5720  173.4730  137.6180 C   0  0  0  0  0  2  0  0  0  0  0  0
  188.4150  175.8420  135.3730 C   0  0  2  0  0  3  0  0  0  0  0  0
  180.5500  177.5070  136.6320 C   0  0  2  0  0  3  0  0  0  0  0  0
  179.3130  177.8710  137.3670 C   0  0  2  0  0  3  0  0  0  0  0  0
  179.2690  177.1400  136.1650 O   0  0  0  0  0  0  0  0  0  0  0  0
  178.9320  180.0930  138.3950 C   0  0  0  0  0  1  0  0  0  0  0  0
  178.9630  179.3190  137.0890 C   0  0  0  0  0  2  0  0  0  0  0  0
  190.6840  176.1990  136.0000 O   0  0  0  0  0  1  0  0  0  0  0  0
  189.4830  176.8850  135.7850 C   0  0  1  0  0  0  0  0  0  0  0  0
  189.7280  177.8670  134.6480 C   0  0  0  0  0  1  0  0  0  0  0  0
  189.5280  178.9530  137.0490 F   0  0  0  0  0  0  0  0  0  0  0  0
  189.0920  177.6390  137.0760 C   0  0  2  0  0  3  0  0  0  0  0  0
  189.4190  177.8860  139.5130 C   0  0  2  0  0  3  0  0  0  0  0  0
  189.6230  176.9540  138.3330 C   0  0  2  0  0  3  0  0  0  0  0  0
  190.7970  177.7350  138.8990 C   0  0  0  0  0  2  0  0  0  0  0  0
  190.4480  176.4900  141.2260 F   0  0  0  0  0  0  0  0  0  0  0  0
  189.2740  177.1010  140.8210 C   0  0  1  0  0  3  0  0  0  0  0  0
  188.7930  177.9820  141.8740 N   0  0  0  0  0  2  0  0  0  0  0  0
  189.8670  178.1270  142.8420 C   0  0  0  0  0  1  0  0  0  0  0  0
  184.3880  178.5220  141.0580 O   0  0  0  0  0  0  0  0  0  0  0  0
  183.8710  179.1700  142.1900 C   0  0  0  0  0  2  0  0  0  0  0  0
  184.0580  178.7830  145.7510 O   0  0  0  0  0  1  0  0  0  0  0  0
  184.3190  179.4750  144.6140 N   0  0  0  0  0  0  0  0  0  0  0  0
  185.5790  178.9980  143.9810 C   0  0  2  0  0  3  0  0  0  0  0  0
  184.2890  178.5030  143.5110 C   0  0  2  0  0  3  0  0  0  0  0  0
  186.2970  177.9010  144.7590 C   0  0  0  0  0  1  0  0  0  0  0  0
  1  6  1  0  0  0  0
  2 23  1  0  0  0  0
  4  5  1  0  0  0  0
  4 16  1  0  0  0  0
  5 22  1  0  0  0  0
  5 16  1  0  0  0  0
  6  3  1  0  0  0  0
  6 14  1  0  0  0  0
  8 13  2  0  0  0  0
 11 13  1  0  0  0  0
 12 20  1  0  0  0  0
 13  1  1  0  0  0  0
 14  4  1  0  0  0  0
 14 10  2  0  0  0  0
 15 19  1  0  0  0  0
 16 47  1  0  0  0  0
 17 26  1  0  0  0  0
 17 24  1  0  0  0  0
 18 21  1  0  0  0  0
 18 24  1  0  0  0  0
 19 28  1  0  0  0  0
 19  3  1  0  0  0  0
 20  3  1  0  0  0  0
 20 22  1  0  0  0  0
 22  7  1  0  0  0  0
 23 15  1  0  0  0  0
 23 12  1  0  0  0  0
 24  9  2  0  0  0  0
 25  5  1  0  0  0  0
 26 27  1  0  0  0  0
 27 28  1  0  0  0  0
 29 13  1  0  0  0  0
 29 36  1  0  0  0  0
 29 21  1  0  0  0  0
 30 12  1  0  0  0  0
 30 31  1  0  0  0  0
 32 30  1  0  0  0  0
 32 31  1  0  0  0  0
 34 31  1  0  0  0  0
 34 33  1  0  0  0  0
 36 35  1  0  0  0  0
 36 39  1  0  0  0  0
 37 36  1  0  0  0  0
 38 39  1  0  0  0  0
 39 41  1  0  0  0  0
 40 44  1  0  0  0  0
 41 42  1  0  0  0  0
 41 40  1  0  0  0  0
 42 40  1  0  0  0  0
 44 43  1  0  0  0  0
 44 45  1  0  0  0  0
 45 46  1  0  0  0  0
 47 48  1  0  0  0  0
 48 52  1  0  0  0  0
 50 49  1  0  0  0  0
 51 50  1  0  0  0  0
 51 53  1  0  0  0  0
 52 51  1  0  0  0  0
 52 50  1  0  0  0  0
M  END
>  <MODEL>
2

>  <REMARK>
 VINA RESULT:      -6.2      1.780      2.304
  Name = 
  10 active torsions:
  status: ('A' for Active; 'I' for Inactive)
    1  A    between atoms: C_1  and  C_41
    2  A    between atoms: C_9  and  C_48
    3  A    between atoms: C_17  and  C_25
    4  A    between atoms: N_19  and  C_41
    5  A    between atoms: C_21  and  C_26
    6  A    between atoms: C_23  and  O_35
    7  A    between atoms: C_26  and  O_35
    8  A    between atoms: C_34  and  C_47
    9  A    between atoms: C_38  and  C_48
   10  A    between atoms: C_38  and  C_51
                            x       y       z     vdW  Elec       q    Type
                         _______ _______ _______ _____ _____    ______ ____

>  <TORSDO>
F 10

$$$$
=
 OpenBabel11062414063D

 53 59  0  0  1  0  0  0  0  0999 V2000
  185.4020  176.5540  137.8060 O   0  0  0  0  0  0  0  0  0  0  0  0
  179.9710  176.9070  134.5940 O   0  0  0  0  0  1  0  0  0  0  0  0
  182.9690  176.9480  137.6630 C   0  0  2  0  0  3  0  0  0  0  0  0
  184.1120  179.5070  139.6090 C   0  0  2  0  0  3  0  0  0  0  0  0
  182.6460  179.8270  139.3180 C   0  0  2  0  0  0  0  0  0  0  0  0
  184.3760  177.4900  137.9900 C   0  0  1  0  0  3  0  0  0  0  0  0
  180.2250  179.1080  139.1190 C   0  0  0  0  0  1  0  0  0  0  0  0
  185.9240  176.9520  135.2750 O   0  0  0  0  0  0  0  0  0  0  0  0
  186.4210  172.5810  137.3030 O   0  0  0  0  0  0  0  0  0  0  0  0
  184.7640  177.3330  140.3200 O   0  0  0  0  0  0  0  0  0  0  0  0
  186.5640  178.9190  136.8600 O   0  0  0  0  0  1  0  0  0  0  0  0
  180.8620  178.0970  136.4840 C   0  0  2  0  0  3  0  0  0  0  0  0
  186.4590  177.2390  136.6600 P   0  0  1  0  0  0  0  0  0  0  0  0
  184.4300  178.0460  139.3860 C   0  0  0  0  0  0  0  0  0  0  0  0
  181.5780  175.7950  135.9010 C   0  0  0  0  0  2  0  0  0  0  0  0
  183.1290  179.8360  140.7580 C   0  0  1  0  0  3  0  0  0  0  0  0
  185.6030  172.7050  135.0700 C   0  0  0  0  0  2  0  0  0  0  0  0
  187.3150  174.2970  135.9980 N   0  0  0  0  0  2  0  0  0  0  0  0
  182.9710  175.9430  136.4900 C   0  0  2  0  0  3  0  0  0  0  0  0
  182.0410  178.1790  137.4860 C   0  0  1  0  0  3  0  0  0  0  0  0
  187.9560  174.9630  137.1150 C   0  0  0  0  0  2  0  0  0  0  0  0
  181.6790  178.7150  138.8870 C   0  0  1  0  0  3  0  0  0  0  0  0
  181.1350  177.1200  135.3350 C   0  0  1  0  0  3  0  0  0  0  0  0
  186.4730  173.1640  136.1870 C   0  0  0  0  0  0  0  0  0  0  0  0
  182.4530  181.0980  138.7780 O   0  0  0  0  0  1  0  0  0  0  0  0
  184.4490  173.6760  134.8610 C   0  0  0  0  0  2  0  0  0  0  0  0
  183.3800  173.4840  135.9240 C   0  0  0  0  0  2  0  0  0  0  0  0
  183.4400  174.5730  136.9960 C   0  0  0  0  0  2  0  0  0  0  0  0
  188.1160  176.4510  136.8180 C   0  0  2  0  0  3  0  0  0  0  0  0
  180.6280  179.5140  135.9430 C   0  0  2  0  0  3  0  0  0  0  0  0
  179.4010  180.0880  136.5490 C   0  0  2  0  0  3  0  0  0  0  0  0
  179.4140  179.6030  135.2280 O   0  0  0  0  0  0  0  0  0  0  0  0
  178.9310  182.1540  137.8340 C   0  0  0  0  0  1  0  0  0  0  0  0
  179.4850  181.6000  136.5320 C   0  0  0  0  0  2  0  0  0  0  0  0
  189.6300  178.2510  137.1880 O   0  0  0  0  0  1  0  0  0  0  0  0
  189.0940  177.1200  137.8140 C   0  0  1  0  0  0  0  0  0  0  0  0
  188.3430  177.6070  139.0460 C   0  0  0  0  0  1  0  0  0  0  0  0
  190.3380  176.0500  139.5990 F   0  0  0  0  0  0  0  0  0  0  0  0
  190.2460  176.1720  138.2220 C   0  0  2  0  0  3  0  0  0  0  0  0
  192.6040  175.5140  137.8960 C   0  0  2  0  0  3  0  0  0  0  0  0
  191.5920  176.6200  137.6610 C   0  0  2  0  0  3  0  0  0  0  0  0
  192.6120  176.7440  138.7810 C   0  0  0  0  0  2  0  0  0  0  0  0
  193.7630  176.7330  136.1310 F   0  0  0  0  0  0  0  0  0  0  0  0
  193.7170  175.5460  136.8410 C   0  0  1  0  0  3  0  0  0  0  0  0
  195.0030  175.3050  137.4750 N   0  0  0  0  0  2  0  0  0  0  0  0
  194.9560  173.9760  138.0620 C   0  0  0  0  0  1  0  0  0  0  0  0
  182.7110  178.6950  141.4510 O   0  0  0  0  0  0  0  0  0  0  0  0
  182.4340  179.1500  142.7490 C   0  0  0  0  0  2  0  0  0  0  0  0
  183.9800  178.8710  145.9740 O   0  0  0  0  0  1  0  0  0  0  0  0
  183.7400  179.5500  144.8240 N   0  0  0  0  0  0  0  0  0  0  0  0
  184.7000  179.1460  143.7600 C   0  0  2  0  0  3  0  0  0  0  0  0
  183.3690  178.5490  143.8120 C   0  0  2  0  0  3  0  0  0  0  0  0
  185.7390  178.1230  144.2060 C   0  0  0  0  0  1  0  0  0  0  0  0
  1  6  1  0  0  0  0
  2 23  1  0  0  0  0
  3  6  1  0  0  0  0
  4 16  1  0  0  0  0
  5  4  1  0  0  0  0
  5 16  1  0  0  0  0
  6 14  1  0  0  0  0
  8 13  2  0  0  0  0
 12 20  1  0  0  0  0
 13 29  1  0  0  0  0
 13 11  1  0  0  0  0
 13  1  1  0  0  0  0
 14  4  1  0  0  0  0
 14 10  2  0  0  0  0
 15 19  1  0  0  0  0
 16 47  1  0  0  0  0
 17 24  1  0  0  0  0
 18 24  1  0  0  0  0
 18 21  1  0  0  0  0
 19 28  1  0  0  0  0
 19  3  1  0  0  0  0
 20  3  1  0  0  0  0
 20 22  1  0  0  0  0
 22  7  1  0  0  0  0
 22  5  1  0  0  0  0
 23 15  1  0  0  0  0
 23 12  1  0  0  0  0
 24  9  2  0  0  0  0
 25  5  1  0  0  0  0
 26 17  1  0  0  0  0
 26 27  1  0  0  0  0
 27 28  1  0  0  0  0
 29 21  1  0  0  0  0
 29 36  1  0  0  0  0
 30 12  1  0  0  0  0
 30 31  1  0  0  0  0
 32 30  1  0  0  0  0
 32 31  1  0  0  0  0
 34 31  1  0  0  0  0
 34 33  1  0  0  0  0
 35 36  1  0  0  0  0
 36 39  1  0  0  0  0
 36 37  1  0  0  0  0
 39 38  1  0  0  0  0
 40 42  1  0  0  0  0
 41 40  1  0  0  0  0
 41 39  1  0  0  0  0
 41 42  1  0  0  0  0
 43 44  1  0  0  0  0
 44 45  1  0  0  0  0
 44 40  1  0  0  0  0
 45 46  1  0  0  0  0
 47 48  1  0  0  0  0
 48 52  1  0  0  0  0
 50 49  1  0  0  0  0
 51 52  1  0  0  0  0
 51 53  1  0  0  0  0
 51 50  1  0  0  0  0
 52 50  1  0  0  0  0
M  END
>  <MODEL>
3

>  <REMARK>
 VINA RESULT:      -6.0      2.417      2.679
  Name = 
  10 active torsions:
  status: ('A' for Active; 'I' for Inactive)
    1  A    between atoms: C_1  and  C_41
    2  A    between atoms: C_9  and  C_48
    3  A    between atoms: C_17  and  C_25
    4  A    between atoms: N_19  and  C_41
    5  A    between atoms: C_21  and  C_26
    6  A    between atoms: C_23  and  O_35
    7  A    between atoms: C_26  and  O_35
    8  A    between atoms: C_34  and  C_47
    9  A    between atoms: C_38  and  C_48
   10  A    between atoms: C_38  and  C_51
                            x       y       z     vdW  Elec       q    Type
                         _______ _______ _______ _____ _____    ______ ____

>  <TORSDO>
F 10

$$$$
=
 OpenBabel11062414063D

 53 59  0  0  1  0  0  0  0  0999 V2000
  186.1580  175.7710  137.1050 O   0  0  0  0  0  0  0  0  0  0  0  0
  179.9810  174.4820  136.7500 O   0  0  0  0  0  1  0  0  0  0  0  0
  183.8630  175.8050  138.0140 C   0  0  2  0  0  3  0  0  0  0  0  0
  185.0420  178.9490  138.6190 C   0  0  2  0  0  3  0  0  0  0  0  0
  183.5550  178.9860  138.9710 C   0  0  2  0  0  0  0  0  0  0  0  0
  185.1030  176.5870  137.5340 C   0  0  1  0  0  3  0  0  0  0  0  0
  181.5180  177.9520  140.0650 C   0  0  0  0  0  1  0  0  0  0  0  0
  185.4880  175.4530  134.5980 O   0  0  0  0  0  0  0  0  0  0  0  0
  187.8120  171.9850  137.0560 O   0  0  0  0  0  0  0  0  0  0  0  0
  186.4330  177.1840  139.3990 O   0  0  0  0  0  0  0  0  0  0  0  0
  186.2220  177.8670  135.2500 O   0  0  0  0  0  1  0  0  0  0  0  0
  181.2480  176.2830  137.7170 C   0  0  2  0  0  3  0  0  0  0  0  0
  186.4540  176.2040  135.4850 P   0  0  1  0  0  0  0  0  0  0  0  0
  185.5860  177.5390  138.5940 C   0  0  0  0  0  0  0  0  0  0  0  0
  182.1980  174.0170  137.3790 C   0  0  0  0  0  2  0  0  0  0  0  0
  184.5660  179.4860  139.9900 C   0  0  1  0  0  3  0  0  0  0  0  0
  186.1510  171.3330  135.4780 C   0  0  0  0  0  2  0  0  0  0  0  0
  187.6510  173.3260  135.1520 N   0  0  0  0  0  2  0  0  0  0  0  0
  183.6290  174.5030  137.2160 C   0  0  2  0  0  3  0  0  0  0  0  0
  182.6750  176.8040  138.0220 C   0  0  1  0  0  3  0  0  0  0  0  0
  188.5100  174.3690  135.6790 C   0  0  0  0  0  2  0  0  0  0  0  0
  182.7980  177.6880  139.2810 C   0  0  1  0  0  3  0  0  0  0  0  0
  181.2560  175.0480  136.8110 C   0  0  1  0  0  3  0  0  0  0  0  0
  187.2610  172.2080  135.9440 C   0  0  0  0  0  0  0  0  0  0  0  0
  182.8580  180.0040  138.3220 O   0  0  0  0  0  1  0  0  0  0  0  0
  184.8150  172.0500  135.6200 C   0  0  0  0  0  2  0  0  0  0  0  0
  184.3530  172.0560  137.0680 C   0  0  0  0  0  2  0  0  0  0  0  0
  184.5800  173.4160  137.7310 C   0  0  0  0  0  2  0  0  0  0  0  0
  188.1680  175.7070  135.0300 C   0  0  2  0  0  3  0  0  0  0  0  0
  180.4790  177.4330  137.0540 C   0  0  2  0  0  3  0  0  0  0  0  0
  179.3400  177.8390  137.9150 C   0  0  2  0  0  3  0  0  0  0  0  0
  179.1490  177.0650  136.7560 O   0  0  0  0  0  0  0  0  0  0  0  0
  179.0210  180.0850  138.9120 C   0  0  0  0  0  1  0  0  0  0  0  0
  178.9710  179.2800  137.6250 C   0  0  0  0  0  2  0  0  0  0  0  0
  190.4190  176.3560  134.6000 O   0  0  0  0  0  1  0  0  0  0  0  0
  189.2740  176.7570  135.2980 C   0  0  1  0  0  0  0  0  0  0  0  0
  188.8630  178.1120  134.7370 C   0  0  0  0  0  1  0  0  0  0  0  0
  189.1050  178.0430  137.3460 F   0  0  0  0  0  0  0  0  0  0  0  0
  189.6130  176.8750  136.8020 C   0  0  2  0  0  3  0  0  0  0  0  0
  191.4240  175.4670  137.7190 C   0  0  2  0  0  3  0  0  0  0  0  0
  191.1140  176.8020  137.0670 C   0  0  2  0  0  3  0  0  0  0  0  0
  191.3800  176.7280  138.5610 C   0  0  0  0  0  2  0  0  0  0  0  0
  193.1550  173.7610  137.9050 F   0  0  0  0  0  0  0  0  0  0  0  0
  192.8580  175.0200  137.4140 C   0  0  1  0  0  3  0  0  0  0  0  0
  193.0880  175.0510  135.9780 N   0  0  0  0  0  2  0  0  0  0  0  0
  194.2370  175.9090  135.7410 C   0  0  0  0  0  1  0  0  0  0  0  0
  184.7570  178.5620  141.0240 O   0  0  0  0  0  0  0  0  0  0  0  0
  185.3260  179.3110  142.0660 C   0  0  0  0  0  2  0  0  0  0  0  0
  184.1980  178.9640  145.4540 O   0  0  0  0  0  1  0  0  0  0  0  0
  184.5300  178.4340  144.2500 N   0  0  0  0  0  0  0  0  0  0  0  0
  183.3650  178.4550  143.3230 C   0  0  2  0  0  3  0  0  0  0  0  0
  184.3740  179.5080  143.2570 C   0  0  2  0  0  3  0  0  0  0  0  0
  182.0840  179.0090  143.9360 C   0  0  0  0  0  1  0  0  0  0  0  0
  1  6  1  0  0  0  0
  2 23  1  0  0  0  0
  3 20  1  0  0  0  0
  4  5  1  0  0  0  0
  4 16  1  0  0  0  0
  5 22  1  0  0  0  0
  5 16  1  0  0  0  0
  6  3  1  0  0  0  0
  6 14  1  0  0  0  0
  8 13  2  0  0  0  0
 11 13  1  0  0  0  0
 12 20  1  0  0  0  0
 13  1  1  0  0  0  0
 14  4  1  0  0  0  0
 14 10  2  0  0  0  0
 16 47  1  0  0  0  0
 17 26  1  0  0  0  0
 17 24  1  0  0  0  0
 18 21  1  0  0  0  0
 18 24  1  0  0  0  0
 19 15  1  0  0  0  0
 19 28  1  0  0  0  0
 19  3  1  0  0  0  0
 20 22  1  0  0  0  0
 22  7  1  0  0  0  0
 23 15  1  0  0  0  0
 23 12  1  0  0  0  0
 24  9  2  0  0  0  0
 25  5  1  0  0  0  0
 26 27  1  0  0  0  0
 27 28  1  0  0  0  0
 29 36  1  0  0  0  0
 29 13  1  0  0  0  0
 29 21  1  0  0  0  0
 30 12  1  0  0  0  0
 30 31  1  0  0  0  0
 32 30  1  0  0  0  0
 32 31  1  0  0  0  0
 34 31  1  0  0  0  0
 34 33  1  0  0  0  0
 35 36  1  0  0  0  0
 36 39  1  0  0  0  0
 37 36  1  0  0  0  0
 39 41  1  0  0  0  0
 39 38  1  0  0  0  0
 40 42  1  0  0  0  0
 41 40  1  0  0  0  0
 41 42  1  0  0  0  0
 44 40  1  0  0  0  0
 44 43  1  0  0  0  0
 45 44  1  0  0  0  0
 46 45  1  0  0  0  0
 47 48  1  0  0  0  0
 48 52  1  0  0  0  0
 50 49  1  0  0  0  0
 51 53  1  0  0  0  0
 51 50  1  0  0  0  0
 52 51  1  0  0  0  0
 52 50  1  0  0  0  0
M  END
>  <MODEL>
4

>  <REMARK>
 VINA RESULT:      -5.9      2.568      3.262
  Name = 
  10 active torsions:
  status: ('A' for Active; 'I' for Inactive)
    1  A    between atoms: C_1  and  C_41
    2  A    between atoms: C_9  and  C_48
    3  A    between atoms: C_17  and  C_25
    4  A    between atoms: N_19  and  C_41
    5  A    between atoms: C_21  and  C_26
    6  A    between atoms: C_23  and  O_35
    7  A    between atoms: C_26  and  O_35
    8  A    between atoms: C_34  and  C_47
    9  A    between atoms: C_38  and  C_48
   10  A    between atoms: C_38  and  C_51
                            x       y       z     vdW  Elec       q    Type
                         _______ _______ _______ _____ _____    ______ ____

>  <TORSDO>
F 10

$$$$
=
 OpenBabel11062414063D

 53 59  0  0  1  0  0  0  0  0999 V2000
  184.9950  175.4150  136.4570 O   0  0  0  0  0  0  0  0  0  0  0  0
  186.6800  179.4010  141.0630 O   0  0  0  0  0  1  0  0  0  0  0  0
  184.9140  177.6090  137.5870 C   0  0  2  0  0  3  0  0  0  0  0  0
  181.6500  176.9260  136.8640 C   0  0  2  0  0  3  0  0  0  0  0  0
  181.6290  178.1710  137.7510 C   0  0  2  0  0  0  0  0  0  0  0  0
  184.1720  176.3430  137.1080 C   0  0  1  0  0  3  0  0  0  0  0  0
  182.5420  180.4460  138.3850 C   0  0  0  0  0  1  0  0  0  0  0  0
  185.8390  174.0430  138.5160 O   0  0  0  0  0  1  0  0  0  0  0  0
  188.6150  174.6960  134.6010 O   0  0  0  0  0  0  0  0  0  0  0  0
  183.1430  176.7710  135.0200 O   0  0  0  0  0  0  0  0  0  0  0  0
  183.3060  173.7710  137.9690 O   0  0  0  0  0  0  0  0  0  0  0  0
  184.6540  179.0750  139.8100 C   0  0  2  0  0  3  0  0  0  0  0  0
  184.8730  173.9730  137.3550 P   0  0  1  0  0  0  0  0  0  0  0  0
  183.0040  176.7010  136.2310 C   0  0  0  0  0  0  0  0  0  0  0  0
  186.8840  178.4430  138.9260 C   0  0  0  0  0  2  0  0  0  0  0  0
  180.8810  178.1970  136.4280 C   0  0  1  0  0  3  0  0  0  0  0  0
  189.6590  174.7060  136.7410 C   0  0  0  0  0  2  0  0  0  0  0  0
  187.6870  173.2480  136.1790 N   0  0  0  0  0  2  0  0  0  0  0  0
  186.3580  177.3170  138.0490 C   0  0  2  0  0  3  0  0  0  0  0  0
  184.0020  178.2940  138.6400 C   0  0  1  0  0  3  0  0  0  0  0  0
  186.5130  172.9520  135.3810 C   0  0  0  0  0  2  0  0  0  0  0  0
  182.8820  179.0460  137.8900 C   0  0  1  0  0  3  0  0  0  0  0  0
  186.0420  178.5350  140.1730 C   0  0  1  0  0  3  0  0  0  0  0  0
  188.6470  174.2160  135.7650 C   0  0  0  0  0  0  0  0  0  0  0  0
  180.8010  178.0430  138.8660 O   0  0  0  0  0  1  0  0  0  0  0  0
  189.0070  175.6190  137.7690 C   0  0  0  0  0  2  0  0  0  0  0  0
  188.7410  176.9950  137.1810 C   0  0  0  0  0  2  0  0  0  0  0  0
  187.2670  177.1860  136.8200 C   0  0  0  0  0  2  0  0  0  0  0  0
  185.3510  172.5520  136.2850 C   0  0  2  0  0  3  0  0  0  0  0  0
  183.7030  178.9700  141.0090 C   0  0  2  0  0  3  0  0  0  0  0  0
  184.4440  178.4780  142.1970 C   0  0  2  0  0  3  0  0  0  0  0  0
  183.5860  177.6380  141.4640 O   0  0  0  0  0  0  0  0  0  0  0  0
  184.6110  178.6240  144.6650 C   0  0  0  0  0  1  0  0  0  0  0  0
  183.7420  178.9370  143.4590 C   0  0  0  0  0  2  0  0  0  0  0  0
  183.6850  172.8760  134.6150 O   0  0  0  0  0  1  0  0  0  0  0  0
  184.2070  171.9000  135.4720 C   0  0  1  0  0  0  0  0  0  0  0  0
  184.7540  170.7820  134.5940 C   0  0  0  0  0  1  0  0  0  0  0  0
  183.3080  170.0560  136.7650 F   0  0  0  0  0  0  0  0  0  0  0  0
  183.0770  171.3680  136.3820 C   0  0  2  0  0  3  0  0  0  0  0  0
  180.7330  172.0720  136.7210 C   0  0  2  0  0  3  0  0  0  0  0  0
  181.7040  171.4690  135.7230 C   0  0  2  0  0  3  0  0  0  0  0  0
  180.7070  170.5810  136.4480 C   0  0  0  0  0  2  0  0  0  0  0  0
  179.1420  173.9190  136.7110 F   0  0  0  0  0  0  0  0  0  0  0  0
  179.5960  172.8150  136.0110 C   0  0  1  0  0  3  0  0  0  0  0  0
  180.0280  173.2220  134.6830 N   0  0  0  0  0  2  0  0  0  0  0  0
  179.8570  174.6630  134.5940 C   0  0  0  0  0  1  0  0  0  0  0  0
  181.5700  178.9350  135.4600 O   0  0  0  0  0  0  0  0  0  0  0  0
  180.5990  179.7780  134.9010 C   0  0  0  0  0  2  0  0  0  0  0  0
  179.3100  182.1410  137.2730 O   0  0  0  0  0  1  0  0  0  0  0  0
  179.1550  181.3300  136.1970 N   0  0  0  0  0  0  0  0  0  0  0  0
  179.5540  182.0290  134.9450 C   0  0  2  0  0  3  0  0  0  0  0  0
  180.4920  181.1350  135.6170 C   0  0  2  0  0  3  0  0  0  0  0  0
  179.9910  183.4760  135.1440 C   0  0  0  0  0  1  0  0  0  0  0  0
  1  6  1  0  0  0  0
  1 13  1  0  0  0  0
  3 19  1  0  0  0  0
  3 20  1  0  0  0  0
  4  5  1  0  0  0  0
  5 22  1  0  0  0  0
  5 25  1  0  0  0  0
  6  3  1  0  0  0  0
  9 24  2  0  0  0  0
 10 14  2  0  0  0  0
 12 23  1  0  0  0  0
 12 30  1  0  0  0  0
 13 11  2  0  0  0  0
 13  8  1  0  0  0  0
 14  4  1  0  0  0  0
 14  6  1  0  0  0  0
 15 23  1  0  0  0  0
 16  4  1  0  0  0  0
 16  5  1  0  0  0  0
 17 26  1  0  0  0  0
 19 15  1  0  0  0  0
 20 12  1  0  0  0  0
 21 18  1  0  0  0  0
 21 29  1  0  0  0  0
 22  7  1  0  0  0  0
 22 20  1  0  0  0  0
 23  2  1  0  0  0  0
 24 18  1  0  0  0  0
 24 17  1  0  0  0  0
 27 26  1  0  0  0  0
 28 27  1  0  0  0  0
 28 19  1  0  0  0  0
 29 13  1  0  0  0  0
 30 32  1  0  0  0  0
 30 31  1  0  0  0  0
 31 34  1  0  0  0  0
 32 31  1  0  0  0  0
 34 33  1  0  0  0  0
 35 36  1  0  0  0  0
 36 29  1  0  0  0  0
 36 39  1  0  0  0  0
 37 36  1  0  0  0  0
 39 38  1  0  0  0  0
 41 39  1  0  0  0  0
 41 42  1  0  0  0  0
 41 40  1  0  0  0  0
 42 40  1  0  0  0  0
 44 43  1  0  0  0  0
 44 40  1  0  0  0  0
 45 44  1  0  0  0  0
 46 45  1  0  0  0  0
 47 16  1  0  0  0  0
 48 47  1  0  0  0  0
 48 52  1  0  0  0  0
 50 49  1  0  0  0  0
 51 53  1  0  0  0  0
 51 52  1  0  0  0  0
 51 50  1  0  0  0  0
 52 50  1  0  0  0  0
M  END
>  <MODEL>
5

>  <REMARK>
 VINA RESULT:      -4.2      3.525      7.811
  Name = 
  10 active torsions:
  status: ('A' for Active; 'I' for Inactive)
    1  A    between atoms: C_1  and  C_41
    2  A    between atoms: C_9  and  C_48
    3  A    between atoms: C_17  and  C_25
    4  A    between atoms: N_19  and  C_41
    5  A    between atoms: C_21  and  C_26
    6  A    between atoms: C_23  and  O_35
    7  A    between atoms: C_26  and  O_35
    8  A    between atoms: C_34  and  C_47
    9  A    between atoms: C_38  and  C_48
   10  A    between atoms: C_38  and  C_51
                            x       y       z     vdW  Elec       q    Type
                         _______ _______ _______ _____ _____    ______ ____

>  <TORSDO>
F 10

$$$$
=
 OpenBabel11062414063D

 53 59  0  0  1  0  0  0  0  0999 V2000
  187.9270  176.9290  139.4830 O   0  0  0  0  0  0  0  0  0  0  0  0
  194.2420  177.0560  139.7210 O   0  0  0  0  0  1  0  0  0  0  0  0
  190.1530  175.9970  138.9610 C   0  0  2  0  0  3  0  0  0  0  0  0
  188.4390  175.7520  136.0210 C   0  0  2  0  0  3  0  0  0  0  0  0
  189.8860  175.3850  135.6920 C   0  0  2  0  0  0  0  0  0  0  0  0
  188.8140  176.5770  138.4580 C   0  0  1  0  0  3  0  0  0  0  0  0
  192.0320  174.1580  136.2410 C   0  0  0  0  0  1  0  0  0  0  0  0
  188.7220  179.3770  139.9410 O   0  0  0  0  0  1  0  0  0  0  0  0
  186.9420  176.5930  143.4820 O   0  0  0  0  0  0  0  0  0  0  0  0
  187.3430  174.8060  137.9070 O   0  0  0  0  0  0  0  0  0  0  0  0
  187.5700  179.0010  137.6340 O   0  0  0  0  0  0  0  0  0  0  0  0
  192.6580  176.3080  138.0740 C   0  0  2  0  0  3  0  0  0  0  0  0
  187.6140  178.5910  139.2780 P   0  0  1  0  0  0  0  0  0  0  0  0
  188.1430  175.6320  137.4980 C   0  0  0  0  0  0  0  0  0  0  0  0
  192.1160  176.4120  140.4920 C   0  0  0  0  0  2  0  0  0  0  0  0
  188.7730  174.4400  135.2700 C   0  0  1  0  0  3  0  0  0  0  0  0
  188.7390  178.0670  143.9990 C   0  0  0  0  0  2  0  0  0  0  0  0
  186.9340  178.6270  142.3380 N   0  0  0  0  0  2  0  0  0  0  0  0
  190.6290  176.6460  140.2790 C   0  0  2  0  0  3  0  0  0  0  0  0
  191.1530  176.0800  137.7760 C   0  0  1  0  0  3  0  0  0  0  0  0
  185.8940  178.2280  141.4100 C   0  0  0  0  0  2  0  0  0  0  0  0
  190.8420  174.9260  136.8020 C   0  0  1  0  0  3  0  0  0  0  0  0
  192.8880  177.0750  139.3800 C   0  0  1  0  0  3  0  0  0  0  0  0
  187.4820  177.7140  143.2840 C   0  0  0  0  0  0  0  0  0  0  0  0
  190.4220  176.1310  134.6420 O   0  0  0  0  0  1  0  0  0  0  0  0
  189.9290  177.9850  143.0520 C   0  0  0  0  0  2  0  0  0  0  0  0
  190.3350  176.5400  142.8160 C   0  0  0  0  0  2  0  0  0  0  0  0
  189.8600  176.0300  141.4540 C   0  0  0  0  0  2  0  0  0  0  0  0
  186.0250  179.0130  140.1070 C   0  0  2  0  0  3  0  0  0  0  0  0
  193.2420  177.0800  136.8840 C   0  0  2  0  0  3  0  0  0  0  0  0
  194.2300  176.2330  136.1700 C   0  0  2  0  0  3  0  0  0  0  0  0
  194.6330  177.2760  137.0250 O   0  0  0  0  0  0  0  0  0  0  0  0
  195.5100  177.6520  134.5940 C   0  0  0  0  0  1  0  0  0  0  0  0
  194.3440  176.6880  134.7300 C   0  0  0  0  0  2  0  0  0  0  0  0
  184.3100  180.1670  138.9260 O   0  0  0  0  0  1  0  0  0  0  0  0
  184.7490  178.8760  139.2410 C   0  0  1  0  0  0  0  0  0  0  0  0
  185.0760  178.1830  137.9250 C   0  0  0  0  0  1  0  0  0  0  0  0
  183.8180  176.7530  139.9500 F   0  0  0  0  0  0  0  0  0  0  0  0
  183.6210  178.1240  139.9830 C   0  0  2  0  0  3  0  0  0  0  0  0
  181.5140  179.3400  140.4160 C   0  0  2  0  0  3  0  0  0  0  0  0
  182.2390  178.4500  139.4230 C   0  0  2  0  0  3  0  0  0  0  0  0
  181.1590  177.8700  140.3200 C   0  0  0  0  0  2  0  0  0  0  0  0
  180.1210  181.3400  140.4630 F   0  0  0  0  0  0  0  0  0  0  0  0
  180.4880  180.2360  139.7140 C   0  0  1  0  0  3  0  0  0  0  0  0
  181.0120  180.6710  138.4290 N   0  0  0  0  0  2  0  0  0  0  0  0
  180.2970  181.8810  138.0550 C   0  0  0  0  0  1  0  0  0  0  0  0
  188.7070  173.3150  136.1000 O   0  0  0  0  0  0  0  0  0  0  0  0
  188.2890  172.2770  135.2550 C   0  0  0  0  0  2  0  0  0  0  0  0
  184.8650  172.5900  136.2790 O   0  0  0  0  0  1  0  0  0  0  0  0
  186.0930  172.0230  136.3890 N   0  0  0  0  0  0  0  0  0  0  0  0
  186.2410  170.8890  135.4360 C   0  0  2  0  0  3  0  0  0  0  0  0
  186.7620  172.2080  135.0920 C   0  0  2  0  0  3  0  0  0  0  0  0
  184.9940  170.5970  134.6070 C   0  0  0  0  0  1  0  0  0  0  0  0
  3 19  1  0  0  0  0
  4 14  1  0  0  0  0
  5  4  1  0  0  0  0
  5 22  1  0  0  0  0
  6  3  1  0  0  0  0
  6  1  1  0  0  0  0
  7 22  1  0  0  0  0
 11 13  2  0  0  0  0
 12 23  1  0  0  0  0
 13  1  1  0  0  0  0
 13  8  1  0  0  0  0
 13 29  1  0  0  0  0
 14 10  2  0  0  0  0
 14  6  1  0  0  0  0
 16  5  1  0  0  0  0
 16  4  1  0  0  0  0
 16 47  1  0  0  0  0
 18 24  1  0  0  0  0
 19 15  1  0  0  0  0
 19 28  1  0  0  0  0
 20 12  1  0  0  0  0
 20  3  1  0  0  0  0
 21 18  1  0  0  0  0
 22 20  1  0  0  0  0
 23  2  1  0  0  0  0
 23 15  1  0  0  0  0
 24  9  2  0  0  0  0
 24 17  1  0  0  0  0
 25  5  1  0  0  0  0
 26 17  1  0  0  0  0
 27 26  1  0  0  0  0
 28 27  1  0  0  0  0
 29 21  1  0  0  0  0
 30 32  1  0  0  0  0
 30 12  1  0  0  0  0
 31 30  1  0  0  0  0
 31 32  1  0  0  0  0
 33 34  1  0  0  0  0
 34 31  1  0  0  0  0
 35 36  1  0  0  0  0
 36 39  1  0  0  0  0
 36 29  1  0  0  0  0
 37 36  1  0  0  0  0
 38 39  1  0  0  0  0
 41 39  1  0  0  0  0
 41 42  1  0  0  0  0
 41 40  1  0  0  0  0
 42 40  1  0  0  0  0
 44 40  1  0  0  0  0
 44 43  1  0  0  0  0
 45 44  1  0  0  0  0
 46 45  1  0  0  0  0
 48 47  1  0  0  0  0
 49 50  1  0  0  0  0
 51 50  1  0  0  0  0
 52 48  1  0  0  0  0
 52 51  1  0  0  0  0
 52 50  1  0  0  0  0
 53 51  1  0  0  0  0
M  END
>  <MODEL>
6

>  <REMARK>
 VINA RESULT:      -4.0      3.468      9.890
  Name = 
  10 active torsions:
  status: ('A' for Active; 'I' for Inactive)
    1  A    between atoms: C_1  and  C_41
    2  A    between atoms: C_9  and  C_48
    3  A    between atoms: C_17  and  C_25
    4  A    between atoms: N_19  and  C_41
    5  A    between atoms: C_21  and  C_26
    6  A    between atoms: C_23  and  O_35
    7  A    between atoms: C_26  and  O_35
    8  A    between atoms: C_34  and  C_47
    9  A    between atoms: C_38  and  C_48
   10  A    between atoms: C_38  and  C_51
                            x       y       z     vdW  Elec       q    Type
                         _______ _______ _______ _____ _____    ______ ____

>  <TORSDO>
F 10

$$$$
