=
 OpenBabel11062413323D

 28 31  0  0  1  0  0  0  0  0999 V2000
  186.8370  178.9380  137.8000 N   0  0  0  0  0  1  0  0  0  0  0  0
  187.7130  178.1730  140.0090 C   0  0  0  0  0  0  0  0  0  0  0  0
  189.4500  177.0610  139.2360 N   0  0  0  0  0  0  0  0  0  0  0  0
  190.6130  176.1950  139.1460 C   0  0  0  0  0  1  0  0  0  0  0  0
  187.9220  177.3100  142.7270 C   0  0  0  0  0  0  0  0  0  0  0  0
  188.8450  177.5870  138.1790 N   0  0  0  0  0  0  0  0  0  0  0  0
  186.7110  178.5830  140.9850 C   0  0  0  0  0  0  0  0  0  0  0  0
  185.7410  179.3200  140.6690 O   0  0  0  0  0  0  0  0  0  0  0  0
  187.7800  178.2790  138.6380 C   0  0  0  0  0  0  0  0  0  0  0  0
  188.7800  177.4000  140.3580 C   0  0  0  0  0  0  0  0  0  0  0  0
  189.1030  177.0360  141.7880 C   0  0  1  0  0  3  0  0  0  0  0  0
  186.8560  178.0550  142.3510 C   0  0  0  0  0  3  0  0  0  0  0  0
  191.6970  177.4300  141.6970 C   0  0  0  0  0  2  0  0  0  0  0  0
  190.8860  179.2250  144.1700 C   0  0  0  0  0  2  0  0  0  0  0  0
  191.3410  177.0810  143.1300 C   0  0  2  0  0  0  0  0  0  0  0  0
  190.3390  177.8150  142.2670 C   0  0  2  0  0  0  0  0  0  0  0  0
  190.2190  179.2310  142.8030 C   0  0  0  0  0  2  0  0  0  0  0  0
  191.8200  178.0250  144.2110 C   0  0  0  0  0  2  0  0  0  0  0  0
  191.1300  175.6030  143.4170 C   0  0  0  0  0  1  0  0  0  0  0  0
  187.9950  176.7890  144.0260 O   0  0  0  0  0  0  0  0  0  0  0  0
  187.2140  177.2780  145.1110 C   0  0  0  0  0  2  0  0  0  0  0  0
  188.1270  177.7730  146.2210 C   0  0  0  0  0  2  0  0  0  0  0  0
  189.2310  176.7630  146.4850 C   0  0  0  0  0  2  0  0  0  0  0  0
  189.6480  178.2420  148.4680 C   0  0  0  0  0  1  0  0  0  0  0  0
  190.1340  177.2520  147.5200 N   0  0  0  0  0  0  0  0  0  0  0  0
  191.8960  175.8850  146.8160 O   0  0  0  0  0  0  0  0  0  0  0  0
  191.4670  176.7380  147.6390 C   0  0  0  0  0  0  0  0  0  0  0  0
  192.3000  177.1770  148.6610 O   0  0  0  0  0  1  0  0  0  0  0  0
  1  9  1  0  0  0  0
  2 10  2  0  0  0  0
  2  7  1  0  0  0  0
  3 10  1  0  0  0  0
  4  3  1  0  0  0  0
  5 20  1  0  0  0  0
  6  9  2  0  0  0  0
  6  3  1  0  0  0  0
  7 12  1  0  0  0  0
  8  7  2  0  0  0  0
  9  2  1  0  0  0  0
 11 10  1  6  0  0  0
 11 16  1  0  0  0  0
 11  5  1  0  0  0  0
 12  5  2  0  0  0  0
 13 15  1  0  0  0  0
 14 18  1  0  0  0  0
 15 19  1  1  0  0  0
 15 18  1  0  0  0  0
 16 13  1  6  0  0  0
 16 17  1  0  0  0  0
 16 15  1  0  0  0  0
 17 14  1  0  0  0  0
 20 21  1  0  0  0  0
 21 22  1  0  0  0  0
 22 23  1  0  0  0  0
 23 25  1  0  0  0  0
 25 27  1  0  0  0  0
 25 24  1  0  0  0  0
 26 27  2  0  0  0  0
 27 28  1  0  0  0  0
M  END
>  <MODEL>
1

>  <REMARK>
 VINA RESULT:      -7.6      0.000      0.000
  Name = 
  6 active torsions:
  status: ('A' for Active; 'I' for Inactive)
    1  A    between atoms: C_1  and  O_7
    2  A    between atoms: C_1  and  C_27
    3  A    between atoms: O_7  and  C_11
    4  A    between atoms: C_14  and  N_16
    5  A    between atoms: C_14  and  C_27
    6  A    between atoms: C_15  and  C_24
                            x       y       z     vdW  Elec       q    Type
                         _______ _______ _______ _____ _____    ______ ____

>  <TORSDO>
F 6

$$$$
=
 OpenBabel11062413323D

 28 31  0  0  1  0  0  0  0  0999 V2000
  182.2780  178.5230  144.2440 N   0  0  0  0  0  1  0  0  0  0  0  0
  184.6900  178.4810  143.6010 C   0  0  0  0  0  0  0  0  0  0  0  0
  185.5050  178.9370  145.5970 N   0  0  0  0  0  0  0  0  0  0  0  0
  186.4140  179.2780  146.6780 C   0  0  0  0  0  1  0  0  0  0  0  0
  187.1480  178.7010  142.1570 C   0  0  0  0  0  0  0  0  0  0  0  0
  184.1870  178.8850  145.7360 N   0  0  0  0  0  0  0  0  0  0  0  0
  184.7010  178.3350  142.1520 C   0  0  0  0  0  0  0  0  0  0  0  0
  183.6490  178.1060  141.5000 O   0  0  0  0  0  0  0  0  0  0  0  0
  183.6720  178.6000  144.5210 C   0  0  0  0  0  0  0  0  0  0  0  0
  185.8350  178.6980  144.3090 C   0  0  0  0  0  0  0  0  0  0  0  0
  187.2110  178.6500  143.6880 C   0  0  1  0  0  3  0  0  0  0  0  0
  185.9950  178.5150  141.4730 C   0  0  0  0  0  3  0  0  0  0  0  0
  188.4130  177.2840  145.5810 C   0  0  0  0  0  2  0  0  0  0  0  0
  189.1300  175.5630  143.0280 C   0  0  0  0  0  2  0  0  0  0  0  0
  189.4190  177.4960  144.4650 C   0  0  2  0  0  0  0  0  0  0  0  0
  187.9480  177.3760  144.1350 C   0  0  2  0  0  0  0  0  0  0  0  0
  187.7440  176.0540  143.4160 C   0  0  0  0  0  2  0  0  0  0  0  0
  190.1280  176.2700  143.9320 C   0  0  0  0  0  2  0  0  0  0  0  0
  190.0800  178.8640  144.4220 C   0  0  0  0  0  1  0  0  0  0  0  0
  188.3500  178.9160  141.4690 O   0  0  0  0  0  0  0  0  0  0  0  0
  188.5740  178.4810  140.1310 C   0  0  0  0  0  2  0  0  0  0  0  0
  189.3420  177.1700  140.1380 C   0  0  0  0  0  2  0  0  0  0  0  0
  190.8370  177.4340  140.2070 C   0  0  0  0  0  2  0  0  0  0  0  0
  190.7280  176.1520  138.0540 C   0  0  0  0  0  1  0  0  0  0  0  0
  191.5210  176.8000  139.0860 N   0  0  0  0  0  0  0  0  0  0  0  0
  193.6410  177.4070  139.8640 O   0  0  0  0  0  1  0  0  0  0  0  0
  192.9490  176.8510  138.9690 C   0  0  0  0  0  0  0  0  0  0  0  0
  193.5830  176.2870  137.8690 O   0  0  0  0  0  0  0  0  0  0  0  0
  1  9  1  0  0  0  0
  2 10  2  0  0  0  0
  2  9  1  0  0  0  0
  3  6  1  0  0  0  0
  3  4  1  0  0  0  0
  7  2  1  0  0  0  0
  8  7  2  0  0  0  0
  9  6  2  0  0  0  0
 10  3  1  0  0  0  0
 11  5  1  6  0  0  0
 11 16  1  0  0  0  0
 11 10  1  0  0  0  0
 12  7  1  0  0  0  0
 12  5  2  0  0  0  0
 14 17  1  0  0  0  0
 14 18  1  0  0  0  0
 15 19  1  6  0  0  0
 15 13  1  0  0  0  0
 16 17  1  6  0  0  0
 16 15  1  0  0  0  0
 16 13  1  0  0  0  0
 18 15  1  0  0  0  0
 20  5  1  0  0  0  0
 21 22  1  0  0  0  0
 21 20  1  0  0  0  0
 22 23  1  0  0  0  0
 24 25  1  0  0  0  0
 25 23  1  0  0  0  0
 27 25  1  0  0  0  0
 27 26  1  0  0  0  0
 28 27  2  0  0  0  0
M  END
>  <MODEL>
2

>  <REMARK>
 VINA RESULT:      -7.0      3.458      6.165
  Name = 
  6 active torsions:
  status: ('A' for Active; 'I' for Inactive)
    1  A    between atoms: C_1  and  O_7
    2  A    between atoms: C_1  and  C_27
    3  A    between atoms: O_7  and  C_11
    4  A    between atoms: C_14  and  N_16
    5  A    between atoms: C_14  and  C_27
    6  A    between atoms: C_15  and  C_24
                            x       y       z     vdW  Elec       q    Type
                         _______ _______ _______ _____ _____    ______ ____

>  <TORSDO>
F 6

$$$$
=
 OpenBabel11062413323D

 28 31  0  0  1  0  0  0  0  0999 V2000
  182.1670  178.5220  144.2790 N   0  0  0  0  0  1  0  0  0  0  0  0
  184.5790  178.4970  143.6340 C   0  0  0  0  0  0  0  0  0  0  0  0
  185.3920  178.9660  145.6270 N   0  0  0  0  0  0  0  0  0  0  0  0
  186.2980  179.3160  146.7060 C   0  0  0  0  0  1  0  0  0  0  0  0
  187.0340  178.7330  142.1870 C   0  0  0  0  0  0  0  0  0  0  0  0
  184.0740  178.9040  145.7680 N   0  0  0  0  0  0  0  0  0  0  0  0
  184.5900  178.3470  142.1850 C   0  0  0  0  0  0  0  0  0  0  0  0
  183.5390  178.1090  141.5350 O   0  0  0  0  0  0  0  0  0  0  0  0
  183.5610  178.6110  144.5540 C   0  0  0  0  0  0  0  0  0  0  0  0
  185.7230  178.7260  144.3400 C   0  0  0  0  0  0  0  0  0  0  0  0
  187.0980  178.6860  143.7180 C   0  0  1  0  0  3  0  0  0  0  0  0
  185.8810  178.5350  141.5050 C   0  0  0  0  0  3  0  0  0  0  0  0
  188.3300  177.3430  145.6090 C   0  0  0  0  0  2  0  0  0  0  0  0
  189.0200  175.5990  143.0640 C   0  0  0  0  0  2  0  0  0  0  0  0
  189.3210  177.5480  144.4770 C   0  0  2  0  0  0  0  0  0  0  0  0
  187.8460  177.4190  144.1680 C   0  0  2  0  0  0  0  0  0  0  0  0
  187.6360  176.0900  143.4650 C   0  0  0  0  0  2  0  0  0  0  0  0
  190.0270  176.3190  143.9470 C   0  0  0  0  0  2  0  0  0  0  0  0
  189.9760  178.9170  144.4120 C   0  0  0  0  0  1  0  0  0  0  0  0
  188.2330  178.9550  141.4970 O   0  0  0  0  0  0  0  0  0  0  0  0
  188.8070  178.0090  140.6010 C   0  0  0  0  0  2  0  0  0  0  0  0
  188.4330  178.3600  139.1710 C   0  0  0  0  0  2  0  0  0  0  0  0
  189.5820  178.0360  138.2290 C   0  0  0  0  0  2  0  0  0  0  0  0
  188.4950  175.9200  137.4300 C   0  0  0  0  0  1  0  0  0  0  0  0
  189.6540  176.6000  137.9870 N   0  0  0  0  0  0  0  0  0  0  0  0
  191.8650  176.4510  138.7340 O   0  0  0  0  0  1  0  0  0  0  0  0
  190.8600  175.8690  138.2460 C   0  0  0  0  0  0  0  0  0  0  0  0
  190.9310  174.5100  137.9620 O   0  0  0  0  0  0  0  0  0  0  0  0
  1  9  1  0  0  0  0
  2 10  2  0  0  0  0
  2  9  1  0  0  0  0
  3  6  1  0  0  0  0
  3  4  1  0  0  0  0
  7  2  1  0  0  0  0
  8  7  2  0  0  0  0
  9  6  2  0  0  0  0
 10  3  1  0  0  0  0
 11  5  1  6  0  0  0
 11 16  1  0  0  0  0
 11 10  1  0  0  0  0
 12  7  1  0  0  0  0
 12  5  2  0  0  0  0
 14 17  1  0  0  0  0
 14 18  1  0  0  0  0
 15 19  1  6  0  0  0
 15 13  1  0  0  0  0
 16 17  1  6  0  0  0
 16 15  1  0  0  0  0
 16 13  1  0  0  0  0
 18 15  1  0  0  0  0
 20  5  1  0  0  0  0
 21 20  1  0  0  0  0
 22 21  1  0  0  0  0
 23 22  1  0  0  0  0
 24 25  1  0  0  0  0
 25 23  1  0  0  0  0
 25 27  1  0  0  0  0
 27 26  1  0  0  0  0
 28 27  2  0  0  0  0
M  END
>  <MODEL>
3

>  <REMARK>
 VINA RESULT:      -6.7      3.358      6.476
  Name = 
  6 active torsions:
  status: ('A' for Active; 'I' for Inactive)
    1  A    between atoms: C_1  and  O_7
    2  A    between atoms: C_1  and  C_27
    3  A    between atoms: O_7  and  C_11
    4  A    between atoms: C_14  and  N_16
    5  A    between atoms: C_14  and  C_27
    6  A    between atoms: C_15  and  C_24
                            x       y       z     vdW  Elec       q    Type
                         _______ _______ _______ _____ _____    ______ ____

>  <TORSDO>
F 6

$$$$
=
 OpenBabel11062413323D

 28 31  0  0  1  0  0  0  0  0999 V2000
  187.3930  178.9120  137.7040 N   0  0  0  0  0  1  0  0  0  0  0  0
  188.1740  178.0800  139.9250 C   0  0  0  0  0  0  0  0  0  0  0  0
  190.0200  177.1120  139.2120 N   0  0  0  0  0  0  0  0  0  0  0  0
  191.2360  176.3200  139.1550 C   0  0  0  0  0  1  0  0  0  0  0  0
  188.2650  177.0840  142.6040 C   0  0  0  0  0  0  0  0  0  0  0  0
  189.4510  177.6600  138.1460 N   0  0  0  0  0  0  0  0  0  0  0  0
  187.0900  178.3780  140.8520 C   0  0  0  0  0  0  0  0  0  0  0  0
  186.0990  179.0740  140.5120 O   0  0  0  0  0  0  0  0  0  0  0  0
  188.3200  178.2630  138.5680 C   0  0  0  0  0  0  0  0  0  0  0  0
  189.2620  177.3510  140.3040 C   0  0  0  0  0  0  0  0  0  0  0  0
  189.5160  176.9290  141.7310 C   0  0  1  0  0  3  0  0  0  0  0  0
  187.1810  177.7860  142.1970 C   0  0  0  0  0  3  0  0  0  0  0  0
  192.0940  177.3830  141.9330 C   0  0  0  0  0  2  0  0  0  0  0  0
  190.9610  179.2240  144.2400 C   0  0  0  0  0  2  0  0  0  0  0  0
  191.5790  177.0640  143.3240 C   0  0  2  0  0  0  0  0  0  0  0  0
  190.6710  177.7500  142.3290 C   0  0  2  0  0  0  0  0  0  0  0  0
  190.4590  179.1770  142.8050 C   0  0  0  0  0  2  0  0  0  0  0  0
  191.9080  178.0480  144.4260 C   0  0  0  0  0  2  0  0  0  0  0  0
  191.3670  175.5900  143.6290 C   0  0  0  0  0  1  0  0  0  0  0  0
  188.2880  176.4980  143.8760 O   0  0  0  0  0  0  0  0  0  0  0  0
  188.4100  177.2470  145.0820 C   0  0  0  0  0  2  0  0  0  0  0  0
  187.0540  177.3600  145.7570 C   0  0  0  0  0  2  0  0  0  0  0  0
  186.4380  178.7220  145.4800 C   0  0  0  0  0  2  0  0  0  0  0  0
  184.4260  178.1830  146.8780 C   0  0  0  0  0  1  0  0  0  0  0  0
  184.9890  178.6670  145.6270 N   0  0  0  0  0  0  0  0  0  0  0  0
  184.6060  179.5380  143.4910 O   0  0  0  0  0  0  0  0  0  0  0  0
  184.1240  179.1230  144.5790 C   0  0  0  0  0  0  0  0  0  0  0  0
  182.7450  179.1120  144.7530 O   0  0  0  0  0  1  0  0  0  0  0  0
  1  9  1  0  0  0  0
  2 10  2  0  0  0  0
  2  7  1  0  0  0  0
  3 10  1  0  0  0  0
  4  3  1  0  0  0  0
  5 20  1  0  0  0  0
  6  9  2  0  0  0  0
  6  3  1  0  0  0  0
  7 12  1  0  0  0  0
  8  7  2  0  0  0  0
  9  2  1  0  0  0  0
 11 10  1  6  0  0  0
 11 16  1  0  0  0  0
 11  5  1  0  0  0  0
 12  5  2  0  0  0  0
 13 15  1  0  0  0  0
 14 18  1  0  0  0  0
 15 19  1  1  0  0  0
 15 18  1  0  0  0  0
 16 13  1  6  0  0  0
 16 17  1  0  0  0  0
 16 15  1  0  0  0  0
 17 14  1  0  0  0  0
 20 21  1  0  0  0  0
 21 22  1  0  0  0  0
 23 25  1  0  0  0  0
 23 22  1  0  0  0  0
 25 24  1  0  0  0  0
 26 27  2  0  0  0  0
 27 28  1  0  0  0  0
 27 25  1  0  0  0  0
M  END
>  <MODEL>
4

>  <REMARK>
 VINA RESULT:      -6.6      2.144      3.476
  Name = 
  6 active torsions:
  status: ('A' for Active; 'I' for Inactive)
    1  A    between atoms: C_1  and  O_7
    2  A    between atoms: C_1  and  C_27
    3  A    between atoms: O_7  and  C_11
    4  A    between atoms: C_14  and  N_16
    5  A    between atoms: C_14  and  C_27
    6  A    between atoms: C_15  and  C_24
                            x       y       z     vdW  Elec       q    Type
                         _______ _______ _______ _____ _____    ______ ____

>  <TORSDO>
F 6

$$$$
=
 OpenBabel11062413323D

 28 31  0  0  1  0  0  0  0  0999 V2000
  184.1290  178.2520  146.5050 N   0  0  0  0  0  1  0  0  0  0  0  0
  186.2000  178.1780  145.1110 C   0  0  0  0  0  0  0  0  0  0  0  0
  187.6410  178.3720  146.7660 N   0  0  0  0  0  0  0  0  0  0  0  0
  188.8700  178.5490  147.5200 C   0  0  0  0  0  1  0  0  0  0  0  0
  188.0780  178.4520  142.9730 C   0  0  0  0  0  0  0  0  0  0  0  0
  186.4360  178.3620  147.3210 N   0  0  0  0  0  0  0  0  0  0  0  0
  185.7370  178.1950  143.7300 C   0  0  0  0  0  0  0  0  0  0  0  0
  184.5170  178.0880  143.4380 O   0  0  0  0  0  0  0  0  0  0  0  0
  185.5410  178.2380  146.3190 C   0  0  0  0  0  0  0  0  0  0  0  0
  187.5240  178.2650  145.4250 C   0  0  0  0  0  0  0  0  0  0  0  0
  188.6220  178.2270  144.3890 C   0  0  1  0  0  3  0  0  0  0  0  0
  186.7570  178.3940  142.6870 C   0  0  0  0  0  3  0  0  0  0  0  0
  190.1190  176.5340  145.7270 C   0  0  0  0  0  2  0  0  0  0  0  0
  190.1730  175.2550  142.8360 C   0  0  0  0  0  2  0  0  0  0  0  0
  190.8740  176.9100  144.4650 C   0  0  2  0  0  0  0  0  0  0  0  0
  189.3620  176.8800  144.4520 C   0  0  2  0  0  0  0  0  0  0  0  0
  188.9320  175.7030  143.5940 C   0  0  0  0  0  2  0  0  0  0  0  0
  191.3800  175.7770  143.6000 C   0  0  0  0  0  2  0  0  0  0  0  0
  191.5890  178.2510  144.4970 C   0  0  0  0  0  1  0  0  0  0  0  0
  189.0100  178.6910  141.9540 O   0  0  0  0  0  0  0  0  0  0  0  0
  188.6890  178.6280  140.5690 C   0  0  0  0  0  2  0  0  0  0  0  0
  189.5540  177.5820  139.8860 C   0  0  0  0  0  2  0  0  0  0  0  0
  188.7180  176.7540  138.9220 C   0  0  0  0  0  2  0  0  0  0  0  0
  189.7220  177.5030  136.7480 C   0  0  0  0  0  1  0  0  0  0  0  0
  188.5790  177.4440  137.6450 N   0  0  0  0  0  0  0  0  0  0  0  0
  186.3330  177.9730  138.0240 O   0  0  0  0  0  1  0  0  0  0  0  0
  187.3260  178.0160  137.2490 C   0  0  0  0  0  0  0  0  0  0  0  0
  187.1940  178.6250  136.0070 O   0  0  0  0  0  0  0  0  0  0  0  0
  2 10  2  0  0  0  0
  2  9  1  0  0  0  0
  3  6  1  0  0  0  0
  3  4  1  0  0  0  0
  7  2  1  0  0  0  0
  8  7  2  0  0  0  0
  9  1  1  0  0  0  0
  9  6  2  0  0  0  0
 10  3  1  0  0  0  0
 11  5  1  6  0  0  0
 11 16  1  0  0  0  0
 11 10  1  0  0  0  0
 12  5  2  0  0  0  0
 12  7  1  0  0  0  0
 14 17  1  0  0  0  0
 14 18  1  0  0  0  0
 15 19  1  6  0  0  0
 15 13  1  0  0  0  0
 16 17  1  6  0  0  0
 16 15  1  0  0  0  0
 16 13  1  0  0  0  0
 18 15  1  0  0  0  0
 20  5  1  0  0  0  0
 21 20  1  0  0  0  0
 22 21  1  0  0  0  0
 23 22  1  0  0  0  0
 24 25  1  0  0  0  0
 25 23  1  0  0  0  0
 27 25  1  0  0  0  0
 27 26  1  0  0  0  0
 28 27  2  0  0  0  0
M  END
>  <MODEL>
5

>  <REMARK>
 VINA RESULT:      -5.6      2.552      6.911
  Name = 
  6 active torsions:
  status: ('A' for Active; 'I' for Inactive)
    1  A    between atoms: C_1  and  O_7
    2  A    between atoms: C_1  and  C_27
    3  A    between atoms: O_7  and  C_11
    4  A    between atoms: C_14  and  N_16
    5  A    between atoms: C_14  and  C_27
    6  A    between atoms: C_15  and  C_24
                            x       y       z     vdW  Elec       q    Type
                         _______ _______ _______ _____ _____    ______ ____

>  <TORSDO>
F 6

$$$$
=
 OpenBabel11062413323D

 28 31  0  0  1  0  0  0  0  0999 V2000
  185.7160  179.6330  147.8250 N   0  0  0  0  0  1  0  0  0  0  0  0
  186.3880  178.5100  145.6990 C   0  0  0  0  0  0  0  0  0  0  0  0
  184.4580  178.7330  144.6590 N   0  0  0  0  0  0  0  0  0  0  0  0
  183.3850  178.6090  143.6880 C   0  0  0  0  0  1  0  0  0  0  0  0
  187.6300  176.7980  143.7740 C   0  0  0  0  0  0  0  0  0  0  0  0
  184.3120  179.3140  145.8430 N   0  0  0  0  0  0  0  0  0  0  0  0
  187.7210  177.9780  145.9470 C   0  0  0  0  0  0  0  0  0  0  0  0
  188.3610  178.2540  146.9960 O   0  0  0  0  0  0  0  0  0  0  0  0
  185.4900  179.1900  146.4910 C   0  0  0  0  0  0  0  0  0  0  0  0
  185.7080  178.2350  144.5490 C   0  0  0  0  0  0  0  0  0  0  0  0
  186.3250  177.5010  143.3820 C   0  0  1  0  0  3  0  0  0  0  0  0
  188.2730  177.0610  144.9360 C   0  0  0  0  0  3  0  0  0  0  0  0
  185.6350  179.6470  142.0350 C   0  0  0  0  0  2  0  0  0  0  0  0
  187.8600  178.4250  140.1500 C   0  0  0  0  0  2  0  0  0  0  0  0
  185.6140  178.4780  141.0680 C   0  0  2  0  0  0  0  0  0  0  0  0
  186.5910  178.4770  142.2230 C   0  0  2  0  0  0  0  0  0  0  0  0
  187.9850  178.6580  141.6480 C   0  0  0  0  0  2  0  0  0  0  0  0
  186.3980  178.6310  139.7830 C   0  0  0  0  0  2  0  0  0  0  0  0
  184.3850  177.5860  141.1350 C   0  0  0  0  0  1  0  0  0  0  0  0
  188.1690  175.8810  142.8620 O   0  0  0  0  0  0  0  0  0  0  0  0
  189.5450  175.5130  142.8430 C   0  0  0  0  0  2  0  0  0  0  0  0
  190.3450  176.5470  142.0700 C   0  0  0  0  0  2  0  0  0  0  0  0
  191.6990  176.7650  142.7260 C   0  0  0  0  0  2  0  0  0  0  0  0
  191.1640  178.8770  143.9690 C   0  0  0  0  0  1  0  0  0  0  0  0
  191.5450  177.4740  143.9910 N   0  0  0  0  0  0  0  0  0  0  0  0
  192.0570  175.5820  145.2660 O   0  0  0  0  0  0  0  0  0  0  0  0
  191.7200  176.7960  145.2410 C   0  0  0  0  0  0  0  0  0  0  0  0
  191.5210  177.4720  146.4390 O   0  0  0  0  0  1  0  0  0  0  0  0
  2  7  1  0  0  0  0
  2  9  1  0  0  0  0
  3  6  1  0  0  0  0
  4  3  1  0  0  0  0
  5 12  2  0  0  0  0
  6  9  2  0  0  0  0
  7  8  2  0  0  0  0
  9  1  1  0  0  0  0
 10  3  1  0  0  0  0
 10  2  2  0  0  0  0
 11  5  1  1  0  0  0
 11 10  1  0  0  0  0
 12  7  1  0  0  0  0
 13 16  1  0  0  0  0
 14 17  1  0  0  0  0
 15 19  1  1  0  0  0
 15 13  1  0  0  0  0
 15 16  1  0  0  0  0
 16 17  1  6  0  0  0
 16 11  1  0  0  0  0
 18 14  1  0  0  0  0
 18 15  1  0  0  0  0
 20  5  1  0  0  0  0
 21 20  1  0  0  0  0
 22 23  1  0  0  0  0
 22 21  1  0  0  0  0
 23 25  1  0  0  0  0
 24 25  1  0  0  0  0
 25 27  1  0  0  0  0
 27 26  2  0  0  0  0
 27 28  1  0  0  0  0
M  END
>  <MODEL>
6

>  <REMARK>
 VINA RESULT:      -5.6      2.782      5.634
  Name = 
  6 active torsions:
  status: ('A' for Active; 'I' for Inactive)
    1  A    between atoms: C_1  and  O_7
    2  A    between atoms: C_1  and  C_27
    3  A    between atoms: O_7  and  C_11
    4  A    between atoms: C_14  and  N_16
    5  A    between atoms: C_14  and  C_27
    6  A    between atoms: C_15  and  C_24
                            x       y       z     vdW  Elec       q    Type
                         _______ _______ _______ _____ _____    ______ ____

>  <TORSDO>
F 6

$$$$
=
 OpenBabel11062413323D

 28 31  0  0  1  0  0  0  0  0999 V2000
  185.4560  178.5170  144.2250 N   0  0  0  0  0  1  0  0  0  0  0  0
  183.7550  178.5860  142.4000 C   0  0  0  0  0  0  0  0  0  0  0  0
  185.1730  178.5780  140.7140 N   0  0  0  0  0  0  0  0  0  0  0  0
  185.7390  178.6580  139.3790 C   0  0  0  0  0  1  0  0  0  0  0  0
  181.3920  179.0870  140.8700 C   0  0  0  0  0  0  0  0  0  0  0  0
  185.9070  178.5140  141.8180 N   0  0  0  0  0  0  0  0  0  0  0  0
  182.4740  178.7640  143.0710 C   0  0  0  0  0  0  0  0  0  0  0  0
  182.3680  178.7000  144.3240 O   0  0  0  0  0  0  0  0  0  0  0  0
  185.0500  178.5120  142.8610 C   0  0  0  0  0  0  0  0  0  0  0  0
  183.8640  178.6260  141.0410 C   0  0  0  0  0  0  0  0  0  0  0  0
  182.6700  178.6970  140.1190 C   0  0  1  0  0  3  0  0  0  0  0  0
  181.3130  179.0730  142.2210 C   0  0  0  0  0  3  0  0  0  0  0  0
  183.4570  176.9420  138.3320 C   0  0  0  0  0  2  0  0  0  0  0  0
  180.6200  175.7900  139.1190 C   0  0  0  0  0  2  0  0  0  0  0  0
  182.0500  177.3700  137.9590 C   0  0  2  0  0  0  0  0  0  0  0  0
  182.4650  177.3460  139.4130 C   0  0  2  0  0  0  0  0  0  0  0  0
  181.7160  176.2100  140.0870 C   0  0  0  0  0  2  0  0  0  0  0  0
  181.0310  176.2740  137.7370 C   0  0  0  0  0  2  0  0  0  0  0  0
  181.9330  178.7060  137.2430 C   0  0  0  0  0  1  0  0  0  0  0  0
  180.2720  179.4330  140.1020 O   0  0  0  0  0  0  0  0  0  0  0  0
  179.8150  180.7720  139.9420 C   0  0  0  0  0  2  0  0  0  0  0  0
  179.8920  181.1710  138.4780 C   0  0  0  0  0  2  0  0  0  0  0  0
  180.9590  182.2350  138.2760 C   0  0  0  0  0  2  0  0  0  0  0  0
  179.6120  182.5940  136.1900 C   0  0  0  0  0  1  0  0  0  0  0  0
  180.6710  183.0290  137.0870 N   0  0  0  0  0  0  0  0  0  0  0  0
  182.3050  184.6230  137.5930 O   0  0  0  0  0  1  0  0  0  0  0  0
  181.3830  184.2450  136.8230 C   0  0  0  0  0  0  0  0  0  0  0  0
  181.0630  185.0170  135.7130 O   0  0  0  0  0  0  0  0  0  0  0  0
  2  9  1  0  0  0  0
  2  7  1  0  0  0  0
  3 10  1  0  0  0  0
  3  6  1  0  0  0  0
  4  3  1  0  0  0  0
  5 12  2  0  0  0  0
  6  9  2  0  0  0  0
  7  8  2  0  0  0  0
  9  1  1  0  0  0  0
 10  2  2  0  0  0  0
 11  5  1  1  0  0  0
 11 10  1  0  0  0  0
 12  7  1  0  0  0  0
 14 17  1  0  0  0  0
 15 19  1  6  0  0  0
 15 13  1  0  0  0  0
 15 16  1  0  0  0  0
 16 13  1  6  0  0  0
 16 17  1  0  0  0  0
 16 11  1  0  0  0  0
 18 15  1  0  0  0  0
 18 14  1  0  0  0  0
 20  5  1  0  0  0  0
 21 20  1  0  0  0  0
 22 21  1  0  0  0  0
 23 22  1  0  0  0  0
 24 25  1  0  0  0  0
 25 23  1  0  0  0  0
 27 25  1  0  0  0  0
 27 26  1  0  0  0  0
 28 27  2  0  0  0  0
M  END
>  <MODEL>
7

>  <REMARK>
 VINA RESULT:      -5.4      5.966     10.389
  Name = 
  6 active torsions:
  status: ('A' for Active; 'I' for Inactive)
    1  A    between atoms: C_1  and  O_7
    2  A    between atoms: C_1  and  C_27
    3  A    between atoms: O_7  and  C_11
    4  A    between atoms: C_14  and  N_16
    5  A    between atoms: C_14  and  C_27
    6  A    between atoms: C_15  and  C_24
                            x       y       z     vdW  Elec       q    Type
                         _______ _______ _______ _____ _____    ______ ____

>  <TORSDO>
F 6

$$$$
=
 OpenBabel11062413323D

 28 31  0  0  1  0  0  0  0  0999 V2000
  187.7320  178.3990  138.9000 N   0  0  0  0  0  1  0  0  0  0  0  0
  185.2540  178.2830  138.6220 C   0  0  0  0  0  0  0  0  0  0  0  0
  185.2510  177.2110  136.6970 N   0  0  0  0  0  0  0  0  0  0  0  0
  184.8220  176.6070  135.4490 C   0  0  0  0  0  1  0  0  0  0  0  0
  182.4540  178.8580  138.7090 C   0  0  0  0  0  0  0  0  0  0  0  0
  186.5240  177.3510  137.0440 N   0  0  0  0  0  0  0  0  0  0  0  0
  184.7050  179.0790  139.7120 C   0  0  0  0  0  0  0  0  0  0  0  0
  185.4320  179.5290  140.6360 O   0  0  0  0  0  0  0  0  0  0  0  0
  186.5420  178.0020  138.2270 C   0  0  0  0  0  0  0  0  0  0  0  0
  184.4610  177.7720  137.6370 C   0  0  0  0  0  0  0  0  0  0  0  0
  182.9530  177.8470  137.6700 C   0  0  1  0  0  3  0  0  0  0  0  0
  183.2650  179.3790  139.6600 C   0  0  0  0  0  3  0  0  0  0  0  0
  182.2930  175.4460  136.8370 C   0  0  0  0  0  2  0  0  0  0  0  0
  180.9310  175.5050  139.6890 C   0  0  0  0  0  2  0  0  0  0  0  0
  181.0280  176.1150  137.3430 C   0  0  2  0  0  0  0  0  0  0  0  0
  182.3600  176.4590  137.9700 C   0  0  2  0  0  0  0  0  0  0  0  0
  182.3700  175.8860  139.3770 C   0  0  0  0  0  2  0  0  0  0  0  0
  180.2050  175.3550  138.3610 C   0  0  0  0  0  2  0  0  0  0  0  0
  180.3780  177.1050  136.3910 C   0  0  0  0  0  1  0  0  0  0  0  0
  181.0980  179.2090  138.6700 O   0  0  0  0  0  0  0  0  0  0  0  0
  180.5200  180.2010  139.5130 C   0  0  0  0  0  2  0  0  0  0  0  0
  180.0470  181.3770  138.6750 C   0  0  0  0  0  2  0  0  0  0  0  0
  181.2370  182.1650  138.1530 C   0  0  0  0  0  2  0  0  0  0  0  0
  179.9140  182.3450  136.0290 C   0  0  0  0  0  1  0  0  0  0  0  0
  180.8660  182.9230  136.9640 N   0  0  0  0  0  0  0  0  0  0  0  0
  182.2170  184.7430  137.5390 O   0  0  0  0  0  1  0  0  0  0  0  0
  181.3880  184.2390  136.7360 C   0  0  0  0  0  0  0  0  0  0  0  0
  180.9860  184.9700  135.6250 O   0  0  0  0  0  0  0  0  0  0  0  0
  2  7  1  0  0  0  0
  3  6  1  0  0  0  0
  3 10  1  0  0  0  0
  4  3  1  0  0  0  0
  5 12  2  0  0  0  0
  6  9  2  0  0  0  0
  7  8  2  0  0  0  0
  9  2  1  0  0  0  0
  9  1  1  0  0  0  0
 10  2  2  0  0  0  0
 11 10  1  1  0  0  0
 11 16  1  0  0  0  0
 11  5  1  0  0  0  0
 12  7  1  0  0  0  0
 13 15  1  0  0  0  0
 15 19  1  6  0  0  0
 15 16  1  0  0  0  0
 15 18  1  0  0  0  0
 16 13  1  6  0  0  0
 16 17  1  0  0  0  0
 17 14  1  0  0  0  0
 18 14  1  0  0  0  0
 20  5  1  0  0  0  0
 20 21  1  0  0  0  0
 22 21  1  0  0  0  0
 23 22  1  0  0  0  0
 24 25  1  0  0  0  0
 25 23  1  0  0  0  0
 27 25  1  0  0  0  0
 27 26  1  0  0  0  0
 28 27  2  0  0  0  0
M  END
>  <MODEL>
8

>  <REMARK>
 VINA RESULT:      -5.3      6.364     10.358
  Name = 
  6 active torsions:
  status: ('A' for Active; 'I' for Inactive)
    1  A    between atoms: C_1  and  O_7
    2  A    between atoms: C_1  and  C_27
    3  A    between atoms: O_7  and  C_11
    4  A    between atoms: C_14  and  N_16
    5  A    between atoms: C_14  and  C_27
    6  A    between atoms: C_15  and  C_24
                            x       y       z     vdW  Elec       q    Type
                         _______ _______ _______ _____ _____    ______ ____

>  <TORSDO>
F 6

$$$$
=
 OpenBabel11062413323D

 28 31  0  0  1  0  0  0  0  0999 V2000
  187.8460  177.0670  137.2470 N   0  0  0  0  0  1  0  0  0  0  0  0
  188.0550  177.6990  139.6530 C   0  0  0  0  0  0  0  0  0  0  0  0
  186.0690  178.6320  139.8550 N   0  0  0  0  0  0  0  0  0  0  0  0
  184.9320  179.3710  140.3750 C   0  0  0  0  0  1  0  0  0  0  0  0
  189.0790  178.4930  142.2010 C   0  0  0  0  0  0  0  0  0  0  0  0
  186.1470  178.1900  138.6070 N   0  0  0  0  0  0  0  0  0  0  0  0
  189.4290  177.3840  140.0180 C   0  0  0  0  0  0  0  0  0  0  0  0
  190.1960  176.7600  139.2390 O   0  0  0  0  0  0  0  0  0  0  0  0
  187.3580  177.6090  138.4690 C   0  0  0  0  0  0  0  0  0  0  0  0
  187.2160  178.3500  140.5090 C   0  0  0  0  0  0  0  0  0  0  0  0
  187.5770  178.6550  141.9440 C   0  0  1  0  0  3  0  0  0  0  0  0
  189.9020  177.8720  141.3230 C   0  0  0  0  0  3  0  0  0  0  0  0
  185.2800  177.6290  142.6970 C   0  0  0  0  0  2  0  0  0  0  0  0
  187.1590  176.7580  145.0860 C   0  0  0  0  0  2  0  0  0  0  0  0
  185.8430  178.3990  143.8780 C   0  0  2  0  0  0  0  0  0  0  0  0
  186.7850  177.7410  142.8940 C   0  0  2  0  0  0  0  0  0  0  0  0
  187.4530  176.5760  143.6040 C   0  0  0  0  0  2  0  0  0  0  0  0
  185.9430  177.6650  145.1970 C   0  0  0  0  0  2  0  0  0  0  0  0
  185.6570  179.9070  143.8320 C   0  0  0  0  0  1  0  0  0  0  0  0
  189.5830  178.9840  143.4130 O   0  0  0  0  0  0  0  0  0  0  0  0
  190.9120  179.4720  143.5690 C   0  0  0  0  0  2  0  0  0  0  0  0
  191.7210  178.5030  144.4150 C   0  0  0  0  0  2  0  0  0  0  0  0
  190.8140  177.4370  145.0080 C   0  0  0  0  0  2  0  0  0  0  0  0
  192.0160  175.2920  144.5120 C   0  0  0  0  0  1  0  0  0  0  0  0
  191.5990  176.3000  145.4740 N   0  0  0  0  0  0  0  0  0  0  0  0
  191.6360  177.0600  147.6850 O   0  0  0  0  0  1  0  0  0  0  0  0
  191.9990  176.1930  146.8460 C   0  0  0  0  0  0  0  0  0  0  0  0
  192.7900  175.1300  147.2650 O   0  0  0  0  0  0  0  0  0  0  0  0
  1  9  1  0  0  0  0
  2  7  1  0  0  0  0
  2 10  2  0  0  0  0
  3  4  1  0  0  0  0
  3 10  1  0  0  0  0
  5 20  1  0  0  0  0
  6  3  1  0  0  0  0
  7 12  1  0  0  0  0
  8  7  2  0  0  0  0
  9  6  2  0  0  0  0
  9  2  1  0  0  0  0
 11 10  1  6  0  0  0
 11  5  1  0  0  0  0
 11 16  1  0  0  0  0
 12  5  2  0  0  0  0
 13 15  1  0  0  0  0
 14 18  1  0  0  0  0
 15 19  1  1  0  0  0
 15 18  1  0  0  0  0
 16 13  1  6  0  0  0
 16 17  1  0  0  0  0
 16 15  1  0  0  0  0
 17 14  1  0  0  0  0
 20 21  1  0  0  0  0
 21 22  1  0  0  0  0
 22 23  1  0  0  0  0
 23 25  1  0  0  0  0
 24 25  1  0  0  0  0
 25 27  1  0  0  0  0
 27 28  2  0  0  0  0
 27 26  1  0  0  0  0
M  END
>  <MODEL>
9

>  <REMARK>
 VINA RESULT:      -5.3      1.838      3.953
  Name = 
  6 active torsions:
  status: ('A' for Active; 'I' for Inactive)
    1  A    between atoms: C_1  and  O_7
    2  A    between atoms: C_1  and  C_27
    3  A    between atoms: O_7  and  C_11
    4  A    between atoms: C_14  and  N_16
    5  A    between atoms: C_14  and  C_27
    6  A    between atoms: C_15  and  C_24
                            x       y       z     vdW  Elec       q    Type
                         _______ _______ _______ _____ _____    ______ ____

>  <TORSDO>
F 6

$$$$
