=
 OpenBabel11062417203D

 60 63  0  0  1  0  0  0  0  0999 V2000
  190.1890  176.9140  139.2670 C   0  0  0  0  0  2  0  0  0  0  0  0
  192.2810  177.0300  137.3030 C   0  0  0  0  0  1  0  0  0  0  0  0
  186.4910  179.8660  141.3080 O   0  0  0  0  0  0  0  0  0  0  0  0
  186.0490  174.1340  137.5300 C   0  0  0  0  0  3  0  0  0  0  0  0
  190.9800  176.2420  137.2200 C   0  0  1  0  0  3  0  0  0  0  0  0
  184.7510  174.2920  137.4420 C   0  0  0  0  0  0  0  0  0  0  0  0
  183.4640  179.7140  139.8170 C   0  0  2  0  0  3  0  0  0  0  0  0
  190.5280  175.7950  138.4840 O   0  0  0  0  0  0  0  0  0  0  0  0
  183.4560  174.4550  137.3550 C   0  0  0  0  0  0  0  0  0  0  0  0
  182.4000  178.7680  137.6440 C   0  0  1  0  0  3  0  0  0  0  0  0
  186.9350  177.6450  140.8610 O   0  0  0  0  0  0  0  0  0  0  0  0
  181.3560  177.6650  137.7110 C   0  0  0  0  0  2  0  0  0  0  0  0
  188.9660  176.6080  140.1050 C   0  0  1  0  0  3  0  0  0  0  0  0
  182.2270  179.5190  136.4950 F   0  0  0  0  0  0  0  0  0  0  0  0
  183.7680  178.3230  140.3760 C   0  0  0  0  0  2  0  0  0  0  0  0
  182.3180  179.6450  138.8570 C   0  0  0  0  0  0  0  0  0  0  0  0
  189.3730  176.0400  141.3100 O   0  0  0  0  0  1  0  0  0  0  0  0
  188.9150  176.0300  135.8150 C   0  0  0  0  0  2  0  0  0  0  0  0
  186.0830  178.6710  141.2640 C   0  0  0  0  0  0  0  0  0  0  0  0
  187.0150  174.4420  136.4160 C   0  0  2  0  0  0  0  0  0  0  0  0
  181.3230  180.3240  139.0600 O   0  0  0  0  0  0  0  0  0  0  0  0
  184.5830  180.2300  139.1630 O   0  0  0  0  0  1  0  0  0  0  0  0
  187.8420  175.6600  136.8350 C   0  0  0  0  0  2  0  0  0  0  0  0
  182.8370  175.6580  137.9980 C   0  0  1  0  0  3  0  0  0  0  0  0
  188.2490  177.9090  140.3940 C   0  0  0  0  0  2  0  0  0  0  0  0
  186.3090  174.7220  135.0890 C   0  0  0  0  0  1  0  0  0  0  0  0
  181.8850  176.3970  137.0580 C   0  0  0  0  0  2  0  0  0  0  0  0
  189.9180  176.9960  136.4190 C   0  0  0  0  0  2  0  0  0  0  0  0
  184.6680  178.3440  141.6120 C   0  0  1  0  0  3  0  0  0  0  0  0
  187.9170  173.2640  136.2510 C   0  0  0  0  0  0  0  0  0  0  0  0
  188.2050  171.9530  136.5390 O   0  0  0  0  0  0  0  0  0  0  0  0
  189.0200  172.6870  135.7140 C   0  0  0  0  0  0  0  0  0  0  0  0
  191.6200  173.1310  136.6940 O   0  0  0  0  0  0  0  0  0  0  0  0
  190.1810  172.7690  134.8920 N   0  0  0  0  0  2  0  0  0  0  0  0
  191.4810  172.9660  135.4520 C   0  0  0  0  0  0  0  0  0  0  0  0
  192.6200  172.9870  134.5940 N   0  0  0  0  0  2  0  0  0  0  0  0
  194.8710  172.0970  134.6420 C   0  0  0  0  0  2  0  0  0  0  0  0
  194.3320  172.0970  136.0540 C   0  0  0  0  0  2  0  0  0  0  0  0
  193.9610  173.2160  135.1070 C   0  0  0  0  0  3  0  0  0  0  0  0
  182.2460  175.3450  139.2420 O   0  0  0  0  0  0  0  0  0  0  0  0
  181.1580  174.6410  138.9880 O   0  0  0  0  0  1  0  0  0  0  0  0
  184.1650  179.2090  142.5940 O   0  0  0  0  0  0  0  0  0  0  0  0
  182.6830  178.3740  144.0980 F   0  0  0  0  0  0  0  0  0  0  0  0
  184.0210  178.4130  143.7380 C   0  0  2  0  0  3  0  0  0  0  0  0
  184.1680  178.7360  146.0770 F   0  0  0  0  0  0  0  0  0  0  0  0
  184.8550  178.9620  144.8970 C   0  0  0  0  0  0  0  0  0  0  0  0
  185.0350  180.3280  144.7420 F   0  0  0  0  0  0  0  0  0  0  0  0
  186.5560  178.0120  146.2980 F   0  0  0  0  0  0  0  0  0  0  0  0
  186.2100  178.2610  144.9840 C   0  0  0  0  0  3  0  0  0  0  0  0
  186.1640  177.0630  144.2980 F   0  0  0  0  0  0  0  0  0  0  0  0
  182.6370  173.5300  136.6900 O   0  0  0  0  0  0  0  0  0  0  0  0
  182.0860  169.9320  135.7100 C   0  0  0  0  0  2  0  0  0  0  0  0
  182.9430  172.1430  136.5470 C   0  0  1  0  0  3  0  0  0  0  0  0
  181.7730  171.4200  135.8710 C   0  0  2  0  0  3  0  0  0  0  0  0
  183.3700  169.7410  134.9020 C   0  0  0  0  0  2  0  0  0  0  0  0
  184.5310  170.4690  135.5730 C   0  0  0  0  0  2  0  0  0  0  0  0
  184.2090  171.9530  135.7090 C   0  0  0  0  0  2  0  0  0  0  0  0
  179.3190  171.8390  135.9310 O   0  0  0  0  0  0  0  0  0  0  0  0
  180.4970  171.6060  136.6300 C   0  0  0  0  0  0  0  0  0  0  0  0
  180.4820  171.5700  137.8900 O   0  0  0  0  0  1  0  0  0  0  0  0
  1 13  1  0  0  0  0
  5  2  1  1  0  0  0
  5  8  1  0  0  0  0
  6  4  2  0  0  0  0
  7 22  1  6  0  0  0
  7 15  1  0  0  0  0
  8  1  1  0  0  0  0
  9  6  2  0  0  0  0
  9 24  1  0  0  0  0
 10 14  1  6  0  0  0
 10 12  1  0  0  0  0
 10 16  1  0  0  0  0
 11 19  1  0  0  0  0
 13 25  1  0  0  0  0
 13 17  1  1  0  0  0
 15 29  1  0  0  0  0
 16 21  2  0  0  0  0
 16  7  1  0  0  0  0
 18 28  1  0  0  0  0
 18 23  1  0  0  0  0
 19  3  2  0  0  0  0
 19 29  1  0  0  0  0
 20 26  1  6  0  0  0
 20 23  1  0  0  0  0
 20  4  1  0  0  0  0
 24 40  1  1  0  0  0
 25 11  1  0  0  0  0
 27 12  1  0  0  0  0
 27 24  1  0  0  0  0
 28  5  1  0  0  0  0
 29 42  1  1  0  0  0
 30 20  1  0  0  0  0
 30 31  1  0  0  0  0
 32 30  2  0  0  0  0
 32 31  1  0  0  0  0
 34 35  1  0  0  0  0
 34 32  1  0  0  0  0
 35 33  2  0  0  0  0
 36 39  1  0  0  0  0
 36 35  1  0  0  0  0
 37 39  1  0  0  0  0
 37 38  1  0  0  0  0
 39 38  1  0  0  0  0
 41 40  1  0  0  0  0
 42 44  1  0  0  0  0
 44 43  1  1  0  0  0
 44 46  1  0  0  0  0
 46 49  1  0  0  0  0
 46 45  1  0  0  0  0
 47 46  1  0  0  0  0
 49 48  1  0  0  0  0
 50 49  1  0  0  0  0
 51  9  1  0  0  0  0
 52 54  1  0  0  0  0
 53 51  1  6  0  0  0
 54 53  1  0  0  0  0
 54 59  1  1  0  0  0
 55 56  1  0  0  0  0
 55 52  1  0  0  0  0
 56 57  1  0  0  0  0
 57 53  1  0  0  0  0
 58 59  2  0  0  0  0
 59 60  1  0  0  0  0
M  END
>  <MODEL>
1

>  <REMARK>
 VINA RESULT:      -6.4      0.000      0.000
  Name = 
  11 active torsions:
  status: ('A' for Active; 'I' for Inactive)
    1  A    between atoms: C_6  and  O_39
    2  A    between atoms: C_13  and  O_39
    3  A    between atoms: O_17  and  C_48
    4  A    between atoms: C_20  and  C_44
    5  A    between atoms: C_21  and  C_34
    6  A    between atoms: O_25  and  C_28
    7  A    between atoms: O_25  and  C_60
    8  A    between atoms: C_28  and  C_34
    9  A    between atoms: C_33  and  C_38
   10  A    between atoms: N_40  and  C_57
   11  A    between atoms: C_53  and  N_55
                            x       y       z     vdW  Elec       q    Type
                         _______ _______ _______ _____ _____    ______ ____

>  <TORSDO>
F 11

$$$$
=
 OpenBabel11062417203D

 60 63  0  0  1  0  0  0  0  0999 V2000
  189.6510  177.2060  139.9600 C   0  0  0  0  0  2  0  0  0  0  0  0
  192.0080  177.2560  138.3210 C   0  0  0  0  0  1  0  0  0  0  0  0
  185.6980  180.2190  141.3240 O   0  0  0  0  0  0  0  0  0  0  0  0
  185.8050  174.3480  137.7380 C   0  0  0  0  0  3  0  0  0  0  0  0
  190.7320  176.4610  138.0770 C   0  0  1  0  0  3  0  0  0  0  0  0
  184.5340  174.4980  137.4550 C   0  0  0  0  0  0  0  0  0  0  0  0
  182.9220  180.0000  139.4100 C   0  0  2  0  0  3  0  0  0  0  0  0
  190.0990  176.0590  139.2770 O   0  0  0  0  0  0  0  0  0  0  0  0
  183.2670  174.6530  137.1720 C   0  0  0  0  0  0  0  0  0  0  0  0
  182.1880  178.9690  137.1420 C   0  0  1  0  0  3  0  0  0  0  0  0
  186.1990  177.9840  141.0300 O   0  0  0  0  0  0  0  0  0  0  0  0
  181.1440  177.8660  137.0960 C   0  0  0  0  0  2  0  0  0  0  0  0
  188.3170  176.9270  140.6200 C   0  0  1  0  0  3  0  0  0  0  0  0
  182.1870  179.6760  135.9520 F   0  0  0  0  0  0  0  0  0  0  0  0
  183.1380  178.6320  140.0600 C   0  0  0  0  0  2  0  0  0  0  0  0
  181.9300  179.8910  138.2960 C   0  0  0  0  0  0  0  0  0  0  0  0
  188.5410  176.4060  141.8920 O   0  0  0  0  0  1  0  0  0  0  0  0
  188.8960  176.1890  136.3930 C   0  0  0  0  0  2  0  0  0  0  0  0
  185.2990  179.0210  141.2650 C   0  0  0  0  0  0  0  0  0  0  0  0
  186.9250  174.6180  136.7680 C   0  0  2  0  0  0  0  0  0  0  0  0
  180.9170  180.5740  138.3250 O   0  0  0  0  0  0  0  0  0  0  0  0
  184.1260  180.4950  138.9090 O   0  0  0  0  0  1  0  0  0  0  0  0
  187.6840  175.8530  137.2580 C   0  0  0  0  0  2  0  0  0  0  0  0
  182.5620  175.8760  137.6730 C   0  0  1  0  0  3  0  0  0  0  0  0
  187.5670  178.2360  140.7520 C   0  0  0  0  0  2  0  0  0  0  0  0
  186.4220  174.8460  135.3420 C   0  0  0  0  0  1  0  0  0  0  0  0
  181.7600  176.5760  136.5750 C   0  0  0  0  0  2  0  0  0  0  0  0
  189.8000  177.1800  137.1020 C   0  0  0  0  0  2  0  0  0  0  0  0
  183.8470  178.7020  141.4130 C   0  0  1  0  0  3  0  0  0  0  0  0
  187.8400  173.4380  136.7820 C   0  0  0  0  0  0  0  0  0  0  0  0
  188.1560  172.2010  137.2850 O   0  0  0  0  0  0  0  0  0  0  0  0
  188.9330  172.7860  136.3160 C   0  0  0  0  0  0  0  0  0  0  0  0
  191.5330  173.5500  137.0730 O   0  0  0  0  0  0  0  0  0  0  0  0
  190.0660  172.7320  135.4530 N   0  0  0  0  0  2  0  0  0  0  0  0
  191.3690  173.1060  135.9060 C   0  0  0  0  0  0  0  0  0  0  0  0
  192.4810  172.9840  135.0210 N   0  0  0  0  0  2  0  0  0  0  0  0
  194.8350  172.5680  134.6380 C   0  0  0  0  0  2  0  0  0  0  0  0
  194.5170  172.2070  136.0720 C   0  0  0  0  0  2  0  0  0  0  0  0
  193.8220  173.3810  135.4200 C   0  0  0  0  0  3  0  0  0  0  0  0
  181.7950  175.6070  138.8260 O   0  0  0  0  0  0  0  0  0  0  0  0
  182.6190  175.6400  139.8570 O   0  0  0  0  0  1  0  0  0  0  0  0
  183.2070  179.6010  142.2770 O   0  0  0  0  0  0  0  0  0  0  0  0
  183.2210  177.5420  143.2350 F   0  0  0  0  0  0  0  0  0  0  0  0
  182.6400  178.8000  143.2780 C   0  0  2  0  0  3  0  0  0  0  0  0
  180.5560  178.3940  144.3210 F   0  0  0  0  0  0  0  0  0  0  0  0
  181.1270  178.6810  143.0930 C   0  0  0  0  0  0  0  0  0  0  0  0
  180.8390  177.6470  142.2160 F   0  0  0  0  0  0  0  0  0  0  0  0
  179.9880  179.8240  141.3160 F   0  0  0  0  0  0  0  0  0  0  0  0
  180.5280  179.9890  142.5760 C   0  0  0  0  0  3  0  0  0  0  0  0
  179.5370  180.4230  143.4350 F   0  0  0  0  0  0  0  0  0  0  0  0
  182.5530  173.7010  136.4290 O   0  0  0  0  0  0  0  0  0  0  0  0
  182.0120  170.0240  135.7940 C   0  0  0  0  0  2  0  0  0  0  0  0
  182.8780  172.3120  136.3800 C   0  0  1  0  0  3  0  0  0  0  0  0
  181.6780  171.5160  135.8530 C   0  0  2  0  0  3  0  0  0  0  0  0
  183.2380  169.7870  134.9130 C   0  0  0  0  0  2  0  0  0  0  0  0
  184.4280  170.5860  135.4350 C   0  0  0  0  0  2  0  0  0  0  0  0
  184.0850  172.0720  135.4710 C   0  0  0  0  0  2  0  0  0  0  0  0
  180.5810  171.8320  138.0650 O   0  0  0  0  0  1  0  0  0  0  0  0
  180.4560  171.7440  136.6840 C   0  0  0  0  0  0  0  0  0  0  0  0
  179.3180  171.8410  136.1500 O   0  0  0  0  0  0  0  0  0  0  0  0
  1 13  1  0  0  0  0
  5  2  1  1  0  0  0
  5  8  1  0  0  0  0
  6  4  2  0  0  0  0
  7 22  1  6  0  0  0
  7 15  1  0  0  0  0
  8  1  1  0  0  0  0
  9  6  2  0  0  0  0
  9 24  1  0  0  0  0
 10 14  1  6  0  0  0
 10 16  1  0  0  0  0
 11 19  1  0  0  0  0
 12 10  1  0  0  0  0
 13 25  1  0  0  0  0
 13 17  1  1  0  0  0
 15 29  1  0  0  0  0
 16 21  2  0  0  0  0
 16  7  1  0  0  0  0
 18 28  1  0  0  0  0
 18 23  1  0  0  0  0
 19  3  2  0  0  0  0
 19 29  1  0  0  0  0
 20 26  1  6  0  0  0
 20 30  1  0  0  0  0
 20 23  1  0  0  0  0
 20  4  1  0  0  0  0
 24 40  1  1  0  0  0
 25 11  1  0  0  0  0
 27 12  1  0  0  0  0
 27 24  1  0  0  0  0
 28  5  1  0  0  0  0
 29 42  1  1  0  0  0
 30 31  1  0  0  0  0
 32 30  2  0  0  0  0
 32 31  1  0  0  0  0
 34 35  1  0  0  0  0
 34 32  1  0  0  0  0
 35 33  2  0  0  0  0
 36 39  1  0  0  0  0
 36 35  1  0  0  0  0
 37 39  1  0  0  0  0
 37 38  1  0  0  0  0
 39 38  1  0  0  0  0
 40 41  1  0  0  0  0
 42 44  1  0  0  0  0
 44 43  1  6  0  0  0
 46 44  1  0  0  0  0
 46 45  1  0  0  0  0
 47 46  1  0  0  0  0
 48 49  1  0  0  0  0
 49 46  1  0  0  0  0
 49 50  1  0  0  0  0
 51  9  1  0  0  0  0
 52 54  1  0  0  0  0
 53 51  1  6  0  0  0
 54 53  1  0  0  0  0
 54 59  1  1  0  0  0
 55 56  1  0  0  0  0
 55 52  1  0  0  0  0
 56 57  1  0  0  0  0
 57 53  1  0  0  0  0
 59 58  1  0  0  0  0
 60 59  2  0  0  0  0
M  END
>  <MODEL>
2

>  <REMARK>
 VINA RESULT:      -4.7      1.311      2.128
  Name = 
  11 active torsions:
  status: ('A' for Active; 'I' for Inactive)
    1  A    between atoms: C_6  and  O_39
    2  A    between atoms: C_13  and  O_39
    3  A    between atoms: O_17  and  C_48
    4  A    between atoms: C_20  and  C_44
    5  A    between atoms: C_21  and  C_34
    6  A    between atoms: O_25  and  C_28
    7  A    between atoms: O_25  and  C_60
    8  A    between atoms: C_28  and  C_34
    9  A    between atoms: C_33  and  C_38
   10  A    between atoms: N_40  and  C_57
   11  A    between atoms: C_53  and  N_55
                            x       y       z     vdW  Elec       q    Type
                         _______ _______ _______ _____ _____    ______ ____

>  <TORSDO>
F 11

$$$$
