=
 OpenBabel11062411043D

 66 70  0  0  1  0  0  0  0  0999 V2000
  186.7290  178.5820  144.7200 N   0  0  0  0  0  0  0  0  0  0  0  0
  184.8770  178.6430  143.5040 N   0  0  0  0  0  0  0  0  0  0  0  0
  186.0970  178.1030  143.6360 C   0  0  0  0  0  0  0  0  0  0  0  0
  185.8270  179.4520  145.2350 C   0  0  0  0  0  3  0  0  0  0  0  0
  184.6960  179.4950  144.4930 N   0  0  0  0  0  0  0  0  0  0  0  0
  184.4430  178.4710  141.0530 C   0  0  0  0  0  2  0  0  0  0  0  0
  183.9180  178.4040  142.4650 C   0  0  0  0  0  0  0  0  0  0  0  0
  183.3160  177.9230  139.7220 S   0  0  0  0  0  0  0  0  0  0  0  0
  181.9100  178.8160  140.4170 C   0  0  2  0  0  3  0  0  0  0  0  0
  180.1480  178.5430  142.2090 C   0  0  0  0  0  1  0  0  0  0  0  0
  182.6040  178.3470  142.7740 C   0  0  0  0  0  0  0  0  0  0  0  0
  181.5350  178.1210  141.7240 C   0  0  2  0  0  3  0  0  0  0  0  0
  182.1850  178.5780  144.1920 C   0  0  0  0  0  1  0  0  0  0  0  0
  180.8040  178.7890  139.4650 N   0  0  0  0  0  2  0  0  0  0  0  0
  181.1460  179.6710  138.3530 C   0  0  1  0  0  3  0  0  0  0  0  0
  182.2350  180.5650  138.7430 N   0  0  0  0  0  0  0  0  0  0  0  0
  181.2720  182.4840  137.7060 N   0  0  0  0  0  1  0  0  0  0  0  0
  182.2890  181.8400  138.4650 C   0  0  0  0  0  3  0  0  0  0  0  0
  181.5740  178.8590  137.1250 C   0  0  0  0  0  2  0  0  0  0  0  0
  180.3820  178.2090  136.4230 C   0  0  0  0  0  2  0  0  0  0  0  0
  181.0950  174.5490  137.5870 C   0  0  0  0  0  2  0  0  0  0  0  0
  180.1330  176.8110  136.9730 C   0  0  1  0  0  3  0  0  0  0  0  0
  179.1410  176.0290  136.1130 C   0  0  0  0  0  2  0  0  0  0  0  0
  181.4220  176.0100  137.2440 C   0  0  2  0  0  3  0  0  0  0  0  0
  179.7200  174.3470  137.7780 O   0  0  0  0  0  0  0  0  0  0  0  0
  179.1150  174.5450  136.5230 C   0  0  0  0  0  2  0  0  0  0  0  0
  183.6340  175.6190  136.1020 C   0  0  0  0  0  0  0  0  0  0  0  0
  182.3590  176.0250  136.0770 C   0  0  0  0  0  3  0  0  0  0  0  0
  184.9300  174.3140  134.6090 O   0  0  0  0  0  1  0  0  0  0  0  0
  184.3620  175.5850  134.7930 C   0  0  2  0  0  3  0  0  0  0  0  0
  185.3780  176.7370  134.6640 C   0  0  0  0  0  3  0  0  0  0  0  0
  185.4430  177.5880  135.9200 C   0  0  0  0  0  2  0  0  0  0  0  0
  184.6970  178.0980  134.7040 C   0  0  0  0  0  2  0  0  0  0  0  0
  184.3010  175.1820  137.2610 O   0  0  0  0  0  0  0  0  0  0  0  0
  185.1010  174.0030  137.3250 C   0  0  0  0  0  2  0  0  0  0  0  0
  184.4040  172.9580  138.1670 C   0  0  0  0  0  2  0  0  0  0  0  0
  184.0280  171.8990  137.3660 F   0  0  0  0  0  0  0  0  0  0  0  0
  186.7050  177.1370  142.6790 C   0  0  0  0  0  2  0  0  0  0  0  0
  187.4480  177.8310  141.7060 O   0  0  0  0  0  0  0  0  0  0  0  0
  190.0110  177.4680  139.8180 C   0  0  0  0  0  0  0  0  0  0  0  0
  189.5290  176.9890  142.5410 C   0  0  2  0  0  3  0  0  0  0  0  0
  190.8460  178.2030  139.2300 O   0  0  0  0  0  0  0  0  0  0  0  0
  189.0580  179.3610  142.6780 O   0  0  0  0  0  1  0  0  0  0  0  0
  189.7560  177.6390  141.2060 N   0  0  0  0  0  0  0  0  0  0  0  0
  188.7480  178.0720  142.2090 C   0  0  2  0  0  0  0  0  0  0  0  0
  189.2480  176.4330  139.0570 C   0  0  0  0  0  2  0  0  0  0  0  0
  189.7080  176.2900  137.5980 C   0  0  1  0  0  3  0  0  0  0  0  0
  190.8780  175.3670  137.4570 C   0  0  0  0  0  0  0  0  0  0  0  0
  190.7990  174.2160  137.9570 O   0  0  0  0  0  0  0  0  0  0  0  0
  193.2600  175.1630  136.6700 C   0  0  0  0  0  3  0  0  0  0  0  0
  192.0900  175.8100  136.7260 C   0  0  0  0  0  3  0  0  0  0  0  0
  193.8620  172.7950  136.3400 C   0  0  0  0  0  1  0  0  0  0  0  0
  193.5540  173.8720  137.3600 C   0  0  1  0  0  3  0  0  0  0  0  0
  194.6480  174.0380  138.2070 O   0  0  0  0  0  1  0  0  0  0  0  0
  188.5530  175.7760  136.7660 C   0  0  0  0  0  2  0  0  0  0  0  0
  188.6740  176.2880  135.3420 C   0  0  0  0  0  2  0  0  0  0  0  0
  189.2300  177.5660  135.3580 O   0  0  0  0  0  1  0  0  0  0  0  0
  190.7850  177.4490  143.8110 S   0  0  0  0  0  0  0  0  0  0  0  0
  191.3380  174.8350  143.7590 O   0  0  0  0  0  1  0  0  0  0  0  0
  191.0150  175.8470  144.6520 C   0  0  1  0  0  3  0  0  0  0  0  0
  192.0070  175.9130  145.8040 C   0  0  0  0  0  2  0  0  0  0  0  0
  191.3900  176.6250  147.0030 C   0  0  1  0  0  3  0  0  0  0  0  0
  189.9720  176.1180  147.2270 C   0  0  0  0  0  2  0  0  0  0  0  0
  189.0690  176.8570  146.4660 O   0  0  0  0  0  1  0  0  0  0  0  0
  192.2170  176.3730  148.2130 C   0  0  0  0  0  3  0  0  0  0  0  0
  193.3330  175.8940  148.1160 O   0  0  0  0  0  0  0  0  0  0  0  0
  1  4  1  0  0  0  0
  2  3  1  0  0  0  0
  2  5  1  0  0  0  0
  3  1  2  0  0  0  0
  5  4  2  0  0  0  0
  6  7  1  0  0  0  0
  7 11  2  0  0  0  0
  7  2  1  0  0  0  0
  8  9  1  0  0  0  0
  8  6  1  0  0  0  0
  9 14  1  6  0  0  0
  9 12  1  0  0  0  0
 11 13  1  0  0  0  0
 12 10  1  1  0  0  0
 12 11  1  0  0  0  0
 15 19  1  6  0  0  0
 15 16  1  0  0  0  0
 15 14  1  0  0  0  0
 17 18  1  0  0  0  0
 18 16  2  0  0  0  0
 20 19  1  0  0  0  0
 21 25  1  0  0  0  0
 22 20  1  6  0  0  0
 22 24  1  0  0  0  0
 23 26  1  0  0  0  0
 23 22  1  0  0  0  0
 24 28  1  6  0  0  0
 24 21  1  0  0  0  0
 26 25  1  0  0  0  0
 27 34  1  0  0  0  0
 28 27  2  0  0  0  0
 30 29  1  1  0  0  0
 30 27  1  0  0  0  0
 31 33  1  0  0  0  0
 31 30  1  0  0  0  0
 31 32  1  0  0  0  0
 33 32  1  0  0  0  0
 34 35  1  0  0  0  0
 35 36  1  0  0  0  0
 37 36  1  0  0  0  0
 38  3  1  0  0  0  0
 39 45  1  0  0  0  0
 39 38  1  0  0  0  0
 40 44  1  0  0  0  0
 41 58  1  1  0  0  0
 42 40  2  0  0  0  0
 44 45  1  0  0  0  0
 44 41  1  0  0  0  0
 45 41  1  0  0  0  0
 45 43  1  1  0  0  0
 46 40  1  0  0  0  0
 47 55  1  6  0  0  0
 47 46  1  0  0  0  0
 48 47  1  0  0  0  0
 48 49  2  0  0  0  0
 50 51  2  0  0  0  0
 50 53  1  0  0  0  0
 51 48  1  0  0  0  0
 53 52  1  6  0  0  0
 53 54  1  0  0  0  0
 56 57  1  0  0  0  0
 56 55  1  0  0  0  0
 58 60  1  0  0  0  0
 60 59  1  6  0  0  0
 60 61  1  0  0  0  0
 62 61  1  6  0  0  0
 62 63  1  0  0  0  0
 62 65  1  0  0  0  0
 64 63  1  0  0  0  0
 66 65  2  0  0  0  0
M  END
>  <MODEL>
1

>  <REMARK>
 VINA RESULT:      -3.4      0.000      0.000
  Name = 
  29 active torsions:
  status: ('A' for Active; 'I' for Inactive)
    1  A    between atoms: C_1  and  C_26
    2  A    between atoms: N_2  and  C_30
    3  A    between atoms: N_2  and  C_40
    4  A    between atoms: C_3  and  O_20
    5  A    between atoms: C_3  and  C_66
    6  A    between atoms: C_5  and  C_66
    7  A    between atoms: C_6  and  C_10
    8  A    between atoms: C_7  and  C_13
    9  A    between atoms: C_7  and  C_32
   10  A    between atoms: C_7  and  C_54
   11  A    between atoms: C_9  and  C_25
   12  A    between atoms: C_10  and  C_38
   13  A    between atoms: C_10  and  C_61
   14  A    between atoms: C_12  and  O_15
   15  A    between atoms: C_12  and  C_57
   16  A    between atoms: C_13  and  C_42
   17  A    between atoms: C_14  and  C_39
   18  A    between atoms: O_15  and  C_59
   19  A    between atoms: C_16  and  N_17
   20  A    between atoms: O_20  and  C_26
   21  A    between atoms: C_21  and  C_23
   22  A    between atoms: C_25  and  C_65
   23  A    between atoms: N_27  and  C_40
   24  A    between atoms: C_29  and  C_54
   25  A    between atoms: C_31  and  C_32
   26  A    between atoms: C_35  and  S_37
   27  A    between atoms: S_37  and  C_56
   28  A    between atoms: C_40  and  C_65
   29  A    between atoms: C_56  and  C_61
                            x       y       z     vdW  Elec       q    Type
                         _______ _______ _______ _____ _____    ______ ____

>  <TORSDO>
F 29

$$$$
=
 OpenBabel11062411043D

 66 70  0  0  1  0  0  0  0  0999 V2000
  188.9430  177.1420  146.1660 N   0  0  0  0  0  0  0  0  0  0  0  0
  187.0170  177.7340  145.2460 N   0  0  0  0  0  0  0  0  0  0  0  0
  188.3490  177.8740  145.2100 C   0  0  0  0  0  0  0  0  0  0  0  0
  187.8950  176.5550  146.7910 C   0  0  0  0  0  3  0  0  0  0  0  0
  186.7160  176.9170  146.2340 N   0  0  0  0  0  0  0  0  0  0  0  0
  184.9630  179.1470  145.1210 C   0  0  0  0  0  2  0  0  0  0  0  0
  186.0430  178.3730  144.4080 C   0  0  0  0  0  0  0  0  0  0  0  0
  183.8630  180.1790  144.0890 S   0  0  0  0  0  0  0  0  0  0  0  0
  183.6530  178.8820  142.8520 C   0  0  2  0  0  3  0  0  0  0  0  0
  184.8540  177.9160  140.8480 C   0  0  0  0  0  1  0  0  0  0  0  0
  186.0120  178.0860  143.0880 C   0  0  0  0  0  0  0  0  0  0  0  0
  184.9970  178.7060  142.1490 C   0  0  2  0  0  3  0  0  0  0  0  0
  186.9730  177.0740  142.5460 C   0  0  0  0  0  1  0  0  0  0  0  0
  182.6100  179.2790  141.9110 N   0  0  0  0  0  2  0  0  0  0  0  0
  181.3720  178.6120  142.3030 C   0  0  1  0  0  3  0  0  0  0  0  0
  180.6850  179.3980  143.3270 N   0  0  0  0  0  0  0  0  0  0  0  0
  179.6690  177.5030  144.3580 N   0  0  0  0  0  1  0  0  0  0  0  0
  179.9260  178.9000  144.2650 C   0  0  0  0  0  3  0  0  0  0  0  0
  180.4440  178.4310  141.0960 C   0  0  0  0  0  2  0  0  0  0  0  0
  181.2240  178.2250  139.7990 C   0  0  0  0  0  2  0  0  0  0  0  0
  180.3820  179.5730  136.2300 C   0  0  0  0  0  2  0  0  0  0  0  0
  180.7070  179.1530  138.7080 C   0  0  1  0  0  3  0  0  0  0  0  0
  181.4140  180.5070  138.7300 C   0  0  0  0  0  2  0  0  0  0  0  0
  180.7080  178.5220  137.3020 C   0  0  2  0  0  3  0  0  0  0  0  0
  179.9610  180.7870  136.7940 O   0  0  0  0  0  0  0  0  0  0  0  0
  181.0780  181.3190  137.4650 C   0  0  0  0  0  2  0  0  0  0  0  0
  182.2070  176.5910  136.6880 C   0  0  0  0  0  0  0  0  0  0  0  0
  182.0200  177.8880  136.9610 C   0  0  0  0  0  3  0  0  0  0  0  0
  184.4560  177.2650  136.3820 O   0  0  0  0  0  1  0  0  0  0  0  0
  183.5750  176.1820  136.2340 C   0  0  2  0  0  3  0  0  0  0  0  0
  183.5610  175.5890  134.8120 C   0  0  0  0  0  3  0  0  0  0  0  0
  183.2910  174.0950  134.8150 C   0  0  0  0  0  2  0  0  0  0  0  0
  184.7020  174.6030  134.6000 C   0  0  0  0  0  2  0  0  0  0  0  0
  181.1930  175.6170  136.7520 O   0  0  0  0  0  0  0  0  0  0  0  0
  180.9050  174.8400  137.9130 C   0  0  0  0  0  2  0  0  0  0  0  0
  180.2600  173.5340  137.5050 C   0  0  0  0  0  2  0  0  0  0  0  0
  181.2360  172.6490  137.0940 F   0  0  0  0  0  0  0  0  0  0  0  0
  189.0830  178.7690  144.2720 C   0  0  0  0  0  2  0  0  0  0  0  0
  189.4750  178.0470  143.1290 O   0  0  0  0  0  0  0  0  0  0  0  0
  191.3810  177.1970  140.6980 C   0  0  0  0  0  0  0  0  0  0  0  0
  190.8320  176.0750  143.2120 C   0  0  2  0  0  3  0  0  0  0  0  0
  192.4540  177.5940  140.1730 O   0  0  0  0  0  0  0  0  0  0  0  0
  191.6880  178.1540  144.1130 O   0  0  0  0  0  1  0  0  0  0  0  0
  191.3120  176.9630  142.0990 N   0  0  0  0  0  0  0  0  0  0  0  0
  190.7260  177.4370  143.3800 C   0  0  2  0  0  0  0  0  0  0  0  0
  190.1570  177.0050  139.8640 C   0  0  0  0  0  2  0  0  0  0  0  0
  190.3690  176.0420  138.6860 C   0  0  1  0  0  3  0  0  0  0  0  0
  189.1000  175.7600  137.9440 C   0  0  0  0  0  0  0  0  0  0  0  0
  189.1140  174.8850  137.0420 O   0  0  0  0  0  0  0  0  0  0  0  0
  187.4170  177.6170  137.7100 C   0  0  0  0  0  3  0  0  0  0  0  0
  187.8580  176.4950  138.2890 C   0  0  0  0  0  3  0  0  0  0  0  0
  187.6610  177.8220  135.2650 C   0  0  0  0  0  1  0  0  0  0  0  0
  188.1220  178.3430  136.6120 C   0  0  1  0  0  3  0  0  0  0  0  0
  187.8440  179.7050  136.7040 O   0  0  0  0  0  1  0  0  0  0  0  0
  191.3870  176.6400  137.7390 C   0  0  0  0  0  2  0  0  0  0  0  0
  191.1780  176.0880  136.3410 C   0  0  0  0  0  2  0  0  0  0  0  0
  192.3050  176.3540  135.5660 O   0  0  0  0  0  1  0  0  0  0  0  0
  192.1940  175.3890  144.2500 S   0  0  0  0  0  0  0  0  0  0  0  0
  191.4330  174.4420  146.6310 O   0  0  0  0  0  1  0  0  0  0  0  0
  191.4980  175.6310  145.9190 C   0  0  1  0  0  3  0  0  0  0  0  0
  192.2090  176.7190  146.7110 C   0  0  0  0  0  2  0  0  0  0  0  0
  191.9480  176.5540  148.2040 C   0  0  1  0  0  3  0  0  0  0  0  0
  193.2410  176.1820  148.9140 C   0  0  0  0  0  2  0  0  0  0  0  0
  193.7660  177.2900  149.5760 O   0  0  0  0  0  1  0  0  0  0  0  0
  191.4100  177.8250  148.7600 C   0  0  0  0  0  3  0  0  0  0  0  0
  190.2250  178.0920  148.6680 O   0  0  0  0  0  0  0  0  0  0  0  0
  1  4  1  0  0  0  0
  2  5  1  0  0  0  0
  3  2  1  0  0  0  0
  3  1  2  0  0  0  0
  5  4  2  0  0  0  0
  7  6  1  0  0  0  0
  7  2  1  0  0  0  0
  8  6  1  0  0  0  0
  9 14  1  6  0  0  0
  9  8  1  0  0  0  0
 11  7  2  0  0  0  0
 12 10  1  6  0  0  0
 12  9  1  0  0  0  0
 12 11  1  0  0  0  0
 13 11  1  0  0  0  0
 14 15  1  0  0  0  0
 15 19  1  6  0  0  0
 15 16  1  0  0  0  0
 16 18  2  0  0  0  0
 18 17  1  0  0  0  0
 20 19  1  0  0  0  0
 21 25  1  0  0  0  0
 21 24  1  0  0  0  0
 22 23  1  0  0  0  0
 22 20  1  1  0  0  0
 24 28  1  6  0  0  0
 24 22  1  0  0  0  0
 25 26  1  0  0  0  0
 26 23  1  0  0  0  0
 27 34  1  0  0  0  0
 27 28  2  0  0  0  0
 30 29  1  6  0  0  0
 30 27  1  0  0  0  0
 31 32  1  0  0  0  0
 31 30  1  0  0  0  0
 33 31  1  0  0  0  0
 33 32  1  0  0  0  0
 34 35  1  0  0  0  0
 36 35  1  0  0  0  0
 37 36  1  0  0  0  0
 38  3  1  0  0  0  0
 39 45  1  0  0  0  0
 39 38  1  0  0  0  0
 40 44  1  0  0  0  0
 41 45  1  0  0  0  0
 41 58  1  1  0  0  0
 42 40  2  0  0  0  0
 44 41  1  0  0  0  0
 44 45  1  0  0  0  0
 45 43  1  1  0  0  0
 46 40  1  0  0  0  0
 47 55  1  6  0  0  0
 47 46  1  0  0  0  0
 48 51  1  0  0  0  0
 48 47  1  0  0  0  0
 49 48  2  0  0  0  0
 50 51  2  0  0  0  0
 53 52  1  6  0  0  0
 53 54  1  0  0  0  0
 53 50  1  0  0  0  0
 56 55  1  0  0  0  0
 57 56  1  0  0  0  0
 58 60  1  0  0  0  0
 60 59  1  1  0  0  0
 60 61  1  0  0  0  0
 62 61  1  6  0  0  0
 62 65  1  0  0  0  0
 62 63  1  0  0  0  0
 63 64  1  0  0  0  0
 66 65  2  0  0  0  0
M  END
>  <MODEL>
2

>  <REMARK>
 VINA RESULT:      -3.4      2.233      4.077
  Name = 
  29 active torsions:
  status: ('A' for Active; 'I' for Inactive)
    1  A    between atoms: C_1  and  C_26
    2  A    between atoms: N_2  and  C_30
    3  A    between atoms: N_2  and  C_40
    4  A    between atoms: C_3  and  O_20
    5  A    between atoms: C_3  and  C_66
    6  A    between atoms: C_5  and  C_66
    7  A    between atoms: C_6  and  C_10
    8  A    between atoms: C_7  and  C_13
    9  A    between atoms: C_7  and  C_32
   10  A    between atoms: C_7  and  C_54
   11  A    between atoms: C_9  and  C_25
   12  A    between atoms: C_10  and  C_38
   13  A    between atoms: C_10  and  C_61
   14  A    between atoms: C_12  and  O_15
   15  A    between atoms: C_12  and  C_57
   16  A    between atoms: C_13  and  C_42
   17  A    between atoms: C_14  and  C_39
   18  A    between atoms: O_15  and  C_59
   19  A    between atoms: C_16  and  N_17
   20  A    between atoms: O_20  and  C_26
   21  A    between atoms: C_21  and  C_23
   22  A    between atoms: C_25  and  C_65
   23  A    between atoms: N_27  and  C_40
   24  A    between atoms: C_29  and  C_54
   25  A    between atoms: C_31  and  C_32
   26  A    between atoms: C_35  and  S_37
   27  A    between atoms: S_37  and  C_56
   28  A    between atoms: C_40  and  C_65
   29  A    between atoms: C_56  and  C_61
                            x       y       z     vdW  Elec       q    Type
                         _______ _______ _______ _____ _____    ______ ____

>  <TORSDO>
F 29

$$$$
=
 OpenBabel11062411043D

 66 70  0  0  1  0  0  0  0  0999 V2000
  188.6320  177.8370  144.9220 N   0  0  0  0  0  0  0  0  0  0  0  0
  186.5430  178.0710  144.2210 N   0  0  0  0  0  0  0  0  0  0  0  0
  187.7760  177.6530  143.9030 C   0  0  0  0  0  0  0  0  0  0  0  0
  187.8500  178.4000  145.8740 C   0  0  0  0  0  3  0  0  0  0  0  0
  186.5740  178.5480  145.4490 N   0  0  0  0  0  0  0  0  0  0  0  0
  185.6150  178.0180  141.9050 C   0  0  0  0  0  2  0  0  0  0  0  0
  185.3710  178.0650  143.3930 C   0  0  0  0  0  0  0  0  0  0  0  0
  184.1580  177.7510  140.8340 S   0  0  0  0  0  0  0  0  0  0  0  0
  183.1510  178.9380  141.7490 C   0  0  2  0  0  3  0  0  0  0  0  0
  181.7550  179.0660  143.8520 C   0  0  0  0  0  1  0  0  0  0  0  0
  184.1640  178.3090  143.9480 C   0  0  0  0  0  0  0  0  0  0  0  0
  182.8890  178.3400  143.1290 C   0  0  2  0  0  3  0  0  0  0  0  0
  184.0910  178.6210  145.4090 C   0  0  0  0  0  1  0  0  0  0  0  0
  181.9050  179.1710  141.0260 N   0  0  0  0  0  2  0  0  0  0  0  0
  181.3380  177.8720  140.6750 C   0  0  1  0  0  3  0  0  0  0  0  0
  179.9960  178.0460  140.1220 N   0  0  0  0  0  0  0  0  0  0  0  0
  178.9910  178.5140  142.2330 N   0  0  0  0  0  1  0  0  0  0  0  0
  178.9360  178.3510  140.8210 C   0  0  0  0  0  3  0  0  0  0  0  0
  182.2190  177.1520  139.6470 C   0  0  0  0  0  2  0  0  0  0  0  0
  181.4700  176.0230  138.9400 C   0  0  0  0  0  2  0  0  0  0  0  0
  181.4020  175.4830  135.0720 C   0  0  0  0  0  2  0  0  0  0  0  0
  181.3100  176.3320  137.4570 C   0  0  1  0  0  3  0  0  0  0  0  0
  182.2880  177.4090  136.9920 C   0  0  0  0  0  2  0  0  0  0  0  0
  181.3510  175.0840  136.5540 C   0  0  2  0  0  3  0  0  0  0  0  0
  181.1890  176.8570  134.8890 O   0  0  0  0  0  0  0  0  0  0  0  0
  182.3010  177.5080  135.4550 C   0  0  0  0  0  2  0  0  0  0  0  0
  182.7250  172.9820  136.3400 C   0  0  0  0  0  0  0  0  0  0  0  0
  182.5250  174.2030  136.8490 C   0  0  0  0  0  3  0  0  0  0  0  0
  184.6280  172.9650  137.7490 O   0  0  0  0  0  1  0  0  0  0  0  0
  184.0330  172.3210  136.6520 C   0  0  2  0  0  3  0  0  0  0  0  0
  184.9510  172.2380  135.4170 C   0  0  0  0  0  3  0  0  0  0  0  0
  186.2520  171.5150  135.7160 C   0  0  0  0  0  2  0  0  0  0  0  0
  186.2380  173.0260  135.6150 C   0  0  0  0  0  2  0  0  0  0  0  0
  181.8120  172.3170  135.5000 O   0  0  0  0  0  0  0  0  0  0  0  0
  181.6890  170.8990  135.4180 C   0  0  0  0  0  2  0  0  0  0  0  0
  180.3030  170.4820  135.8550 C   0  0  0  0  0  2  0  0  0  0  0  0
  179.8260  171.3780  136.7900 F   0  0  0  0  0  0  0  0  0  0  0  0
  188.1700  177.1060  142.5750 C   0  0  0  0  0  2  0  0  0  0  0  0
  188.9580  178.0450  141.8850 O   0  0  0  0  0  0  0  0  0  0  0  0
  191.0520  177.0150  139.6900 C   0  0  0  0  0  0  0  0  0  0  0  0
  190.7500  176.5560  142.4420 C   0  0  2  0  0  3  0  0  0  0  0  0
  192.0060  177.4880  139.0180 O   0  0  0  0  0  0  0  0  0  0  0  0
  191.0640  178.9460  142.6800 O   0  0  0  0  0  1  0  0  0  0  0  0
  191.0190  177.1780  141.1020 N   0  0  0  0  0  0  0  0  0  0  0  0
  190.3150  177.8450  142.2290 C   0  0  2  0  0  0  0  0  0  0  0  0
  189.9240  176.3110  139.0090 C   0  0  0  0  0  2  0  0  0  0  0  0
  189.6010  176.8830  137.6200 C   0  0  1  0  0  3  0  0  0  0  0  0
  190.2790  176.1260  136.5200 C   0  0  0  0  0  0  0  0  0  0  0  0
  191.5310  176.1920  136.4290 O   0  0  0  0  0  0  0  0  0  0  0  0
  189.5890  173.9930  135.3770 C   0  0  0  0  0  3  0  0  0  0  0  0
  189.4770  175.3100  135.5760 C   0  0  0  0  0  3  0  0  0  0  0  0
  191.9100  173.1580  135.3650 C   0  0  0  0  0  1  0  0  0  0  0  0
  190.5700  173.1060  136.0720 C   0  0  1  0  0  3  0  0  0  0  0  0
  190.7230  173.5280  137.3910 O   0  0  0  0  0  1  0  0  0  0  0  0
  188.1030  176.8490  137.4100 C   0  0  0  0  0  2  0  0  0  0  0  0
  187.4750  178.1110  137.9720 C   0  0  0  0  0  2  0  0  0  0  0  0
  188.4710  179.0550  138.2130 O   0  0  0  0  0  1  0  0  0  0  0  0
  192.2190  176.5340  143.5560 S   0  0  0  0  0  0  0  0  0  0  0  0
  191.4470  174.0820  144.2900 O   0  0  0  0  0  1  0  0  0  0  0  0
  191.6620  175.3450  144.8240 C   0  0  1  0  0  3  0  0  0  0  0  0
  192.5770  175.2920  146.0370 C   0  0  0  0  0  2  0  0  0  0  0  0
  192.0540  176.2000  147.1450 C   0  0  1  0  0  3  0  0  0  0  0  0
  190.5330  176.1740  147.1550 C   0  0  0  0  0  2  0  0  0  0  0  0
  190.0370  177.1810  147.9800 O   0  0  0  0  0  1  0  0  0  0  0  0
  192.5800  175.7390  148.4580 C   0  0  0  0  0  3  0  0  0  0  0  0
  193.6890  176.0720  148.8360 O   0  0  0  0  0  0  0  0  0  0  0  0
  1  4  1  0  0  0  0
  2  5  1  0  0  0  0
  3  2  1  0  0  0  0
  3  1  2  0  0  0  0
  5  4  2  0  0  0  0
  6  7  1  0  0  0  0
  7 11  2  0  0  0  0
  7  2  1  0  0  0  0
  8  9  1  0  0  0  0
  8  6  1  0  0  0  0
  9 14  1  6  0  0  0
  9 12  1  0  0  0  0
 11 13  1  0  0  0  0
 12 10  1  1  0  0  0
 12 11  1  0  0  0  0
 15 19  1  6  0  0  0
 15 14  1  0  0  0  0
 16 15  1  0  0  0  0
 16 18  2  0  0  0  0
 18 17  1  0  0  0  0
 20 19  1  0  0  0  0
 21 24  1  0  0  0  0
 22 20  1  1  0  0  0
 23 22  1  0  0  0  0
 24 28  1  1  0  0  0
 24 22  1  0  0  0  0
 25 21  1  0  0  0  0
 25 26  1  0  0  0  0
 26 23  1  0  0  0  0
 27 30  1  0  0  0  0
 27 28  2  0  0  0  0
 30 29  1  1  0  0  0
 31 33  1  0  0  0  0
 31 32  1  0  0  0  0
 31 30  1  0  0  0  0
 33 32  1  0  0  0  0
 34 27  1  0  0  0  0
 35 34  1  0  0  0  0
 35 36  1  0  0  0  0
 36 37  1  0  0  0  0
 38  3  1  0  0  0  0
 39 45  1  0  0  0  0
 39 38  1  0  0  0  0
 40 44  1  0  0  0  0
 41 58  1  1  0  0  0
 42 40  2  0  0  0  0
 44 45  1  0  0  0  0
 44 41  1  0  0  0  0
 45 41  1  0  0  0  0
 45 43  1  1  0  0  0
 46 40  1  0  0  0  0
 47 55  1  6  0  0  0
 47 46  1  0  0  0  0
 48 47  1  0  0  0  0
 49 48  2  0  0  0  0
 50 51  2  0  0  0  0
 50 53  1  0  0  0  0
 51 48  1  0  0  0  0
 53 52  1  6  0  0  0
 53 54  1  0  0  0  0
 55 56  1  0  0  0  0
 56 57  1  0  0  0  0
 58 60  1  0  0  0  0
 60 59  1  6  0  0  0
 60 61  1  0  0  0  0
 62 61  1  6  0  0  0
 62 63  1  0  0  0  0
 62 65  1  0  0  0  0
 63 64  1  0  0  0  0
 65 66  2  0  0  0  0
M  END
>  <MODEL>
3

>  <REMARK>
 VINA RESULT:      -3.4      2.076      2.921
  Name = 
  29 active torsions:
  status: ('A' for Active; 'I' for Inactive)
    1  A    between atoms: C_1  and  C_26
    2  A    between atoms: N_2  and  C_30
    3  A    between atoms: N_2  and  C_40
    4  A    between atoms: C_3  and  O_20
    5  A    between atoms: C_3  and  C_66
    6  A    between atoms: C_5  and  C_66
    7  A    between atoms: C_6  and  C_10
    8  A    between atoms: C_7  and  C_13
    9  A    between atoms: C_7  and  C_32
   10  A    between atoms: C_7  and  C_54
   11  A    between atoms: C_9  and  C_25
   12  A    between atoms: C_10  and  C_38
   13  A    between atoms: C_10  and  C_61
   14  A    between atoms: C_12  and  O_15
   15  A    between atoms: C_12  and  C_57
   16  A    between atoms: C_13  and  C_42
   17  A    between atoms: C_14  and  C_39
   18  A    between atoms: O_15  and  C_59
   19  A    between atoms: C_16  and  N_17
   20  A    between atoms: O_20  and  C_26
   21  A    between atoms: C_21  and  C_23
   22  A    between atoms: C_25  and  C_65
   23  A    between atoms: N_27  and  C_40
   24  A    between atoms: C_29  and  C_54
   25  A    between atoms: C_31  and  C_32
   26  A    between atoms: C_35  and  S_37
   27  A    between atoms: S_37  and  C_56
   28  A    between atoms: C_40  and  C_65
   29  A    between atoms: C_56  and  C_61
                            x       y       z     vdW  Elec       q    Type
                         _______ _______ _______ _____ _____    ______ ____

>  <TORSDO>
F 29

$$$$
=
 OpenBabel11062411043D

 66 70  0  0  1  0  0  0  0  0999 V2000
  188.0070  177.7200  145.9130 N   0  0  0  0  0  0  0  0  0  0  0  0
  186.0260  178.1320  145.0120 N   0  0  0  0  0  0  0  0  0  0  0  0
  187.3530  178.2460  144.8650 C   0  0  0  0  0  0  0  0  0  0  0  0
  187.0010  177.2870  146.7100 C   0  0  0  0  0  3  0  0  0  0  0  0
  185.7890  177.5400  146.1650 N   0  0  0  0  0  0  0  0  0  0  0  0
  183.7600  179.1530  144.7760 C   0  0  0  0  0  2  0  0  0  0  0  0
  185.0000  178.5950  144.1220 C   0  0  0  0  0  0  0  0  0  0  0  0
  182.5500  179.9820  143.6870 S   0  0  0  0  0  0  0  0  0  0  0  0
  182.6460  178.6840  142.4360 C   0  0  2  0  0  3  0  0  0  0  0  0
  184.1090  177.9760  140.5010 C   0  0  0  0  0  1  0  0  0  0  0  0
  185.0930  178.3230  142.8020 C   0  0  0  0  0  0  0  0  0  0  0  0
  184.0350  178.7620  141.8090 C   0  0  2  0  0  3  0  0  0  0  0  0
  186.2490  177.5090  142.3130 C   0  0  0  0  0  1  0  0  0  0  0  0
  181.6010  178.8980  141.4390 N   0  0  0  0  0  2  0  0  0  0  0  0
  180.3980  178.2070  141.8920 C   0  0  1  0  0  3  0  0  0  0  0  0
  179.3990  179.1800  142.3310 N   0  0  0  0  0  0  0  0  0  0  0  0
  179.3450  178.3820  144.5770 N   0  0  0  0  0  1  0  0  0  0  0  0
  178.9310  179.2720  143.5460 C   0  0  0  0  0  3  0  0  0  0  0  0
  179.8070  177.3480  140.7680 C   0  0  0  0  0  2  0  0  0  0  0  0
  180.8920  176.7460  139.8760 C   0  0  0  0  0  2  0  0  0  0  0  0
  181.2850  176.8750  135.9910 C   0  0  0  0  0  2  0  0  0  0  0  0
  180.7330  177.2250  138.4390 C   0  0  1  0  0  3  0  0  0  0  0  0
  181.2860  178.6360  138.2450 C   0  0  0  0  0  2  0  0  0  0  0  0
  181.2810  176.2390  137.3890 C   0  0  2  0  0  3  0  0  0  0  0  0
  180.6040  178.1010  135.9680 O   0  0  0  0  0  0  0  0  0  0  0  0
  181.3660  178.9900  136.7490 C   0  0  0  0  0  2  0  0  0  0  0  0
  183.2950  174.7440  137.1350 C   0  0  0  0  0  0  0  0  0  0  0  0
  182.6710  175.7820  137.7070 C   0  0  0  0  0  3  0  0  0  0  0  0
  185.5450  175.2550  136.5980 O   0  0  0  0  0  1  0  0  0  0  0  0
  184.7350  174.5370  137.4930 C   0  0  2  0  0  3  0  0  0  0  0  0
  185.1000  173.0430  137.5890 C   0  0  0  0  0  3  0  0  0  0  0  0
  186.5870  172.8020  137.3980 C   0  0  0  0  0  2  0  0  0  0  0  0
  185.6260  172.5040  136.2650 C   0  0  0  0  0  2  0  0  0  0  0  0
  182.6980  173.8850  136.1940 O   0  0  0  0  0  0  0  0  0  0  0  0
  181.5230  173.1190  136.4460 C   0  0  0  0  0  2  0  0  0  0  0  0
  181.9080  171.7250  136.8910 C   0  0  0  0  0  2  0  0  0  0  0  0
  180.9660  170.8230  136.4420 F   0  0  0  0  0  0  0  0  0  0  0  0
  188.0250  178.9190  143.7180 C   0  0  0  0  0  2  0  0  0  0  0  0
  188.6960  177.9650  142.9310 O   0  0  0  0  0  0  0  0  0  0  0  0
  190.9380  177.2350  140.7620 C   0  0  0  0  0  0  0  0  0  0  0  0
  190.6740  176.7450  143.5130 C   0  0  2  0  0  3  0  0  0  0  0  0
  191.8230  177.8360  140.0970 O   0  0  0  0  0  0  0  0  0  0  0  0
  190.6460  179.1560  143.7440 O   0  0  0  0  0  1  0  0  0  0  0  0
  190.8680  177.3950  142.1730 N   0  0  0  0  0  0  0  0  0  0  0  0
  190.0650  177.9590  143.2900 C   0  0  2  0  0  0  0  0  0  0  0  0
  189.9280  176.3770  140.0720 C   0  0  0  0  0  2  0  0  0  0  0  0
  189.8050  176.6720  138.5690 C   0  0  1  0  0  3  0  0  0  0  0  0
  190.4840  175.6370  137.7280 C   0  0  0  0  0  0  0  0  0  0  0  0
  189.7760  174.8910  137.0050 O   0  0  0  0  0  0  0  0  0  0  0  0
  192.7000  174.7080  136.9770 C   0  0  0  0  0  3  0  0  0  0  0  0
  191.9630  175.5160  137.7470 C   0  0  0  0  0  3  0  0  0  0  0  0
  192.7570  174.0400  134.6040 C   0  0  0  0  0  1  0  0  0  0  0  0
  192.1490  173.7600  135.9630 C   0  0  1  0  0  3  0  0  0  0  0  0
  192.4410  172.4520  136.3440 O   0  0  0  0  0  1  0  0  0  0  0  0
  188.3400  176.7440  138.2000 C   0  0  0  0  0  2  0  0  0  0  0  0
  187.7680  178.0870  138.6160 C   0  0  0  0  0  2  0  0  0  0  0  0
  187.3340  178.7750  137.4850 O   0  0  0  0  0  1  0  0  0  0  0  0
  192.1200  176.9320  144.6420 S   0  0  0  0  0  0  0  0  0  0  0  0
  190.0970  175.9460  146.0830 O   0  0  0  0  0  1  0  0  0  0  0  0
  191.3520  176.5160  146.2430 C   0  0  1  0  0  3  0  0  0  0  0  0
  192.2450  175.6620  147.1310 C   0  0  0  0  0  2  0  0  0  0  0  0
  192.2730  176.2120  148.5530 C   0  0  1  0  0  3  0  0  0  0  0  0
  193.6970  176.1760  149.0890 C   0  0  0  0  0  2  0  0  0  0  0  0
  193.9460  177.2990  149.8750 O   0  0  0  0  0  1  0  0  0  0  0  0
  191.7620  177.6090  148.5580 C   0  0  0  0  0  3  0  0  0  0  0  0
  190.5760  177.8370  148.7130 O   0  0  0  0  0  0  0  0  0  0  0  0
  1  4  1  0  0  0  0
  2  5  1  0  0  0  0
  3  2  1  0  0  0  0
  3  1  2  0  0  0  0
  5  4  2  0  0  0  0
  7  6  1  0  0  0  0
  7  2  1  0  0  0  0
  8  6  1  0  0  0  0
  9 14  1  6  0  0  0
  9  8  1  0  0  0  0
 11  7  2  0  0  0  0
 12 10  1  6  0  0  0
 12  9  1  0  0  0  0
 12 11  1  0  0  0  0
 13 11  1  0  0  0  0
 14 15  1  0  0  0  0
 15 19  1  6  0  0  0
 15 16  1  0  0  0  0
 16 18  2  0  0  0  0
 18 17  1  0  0  0  0
 20 19  1  0  0  0  0
 21 24  1  0  0  0  0
 22 20  1  1  0  0  0
 23 22  1  0  0  0  0
 24 28  1  1  0  0  0
 24 22  1  0  0  0  0
 25 21  1  0  0  0  0
 25 26  1  0  0  0  0
 26 23  1  0  0  0  0
 27 30  1  0  0  0  0
 27 28  2  0  0  0  0
 30 29  1  6  0  0  0
 30 31  1  0  0  0  0
 32 31  1  0  0  0  0
 33 32  1  0  0  0  0
 33 31  1  0  0  0  0
 34 35  1  0  0  0  0
 34 27  1  0  0  0  0
 35 36  1  0  0  0  0
 37 36  1  0  0  0  0
 38  3  1  0  0  0  0
 39 45  1  0  0  0  0
 39 38  1  0  0  0  0
 40 44  1  0  0  0  0
 41 58  1  1  0  0  0
 42 40  2  0  0  0  0
 44 45  1  0  0  0  0
 44 41  1  0  0  0  0
 45 41  1  0  0  0  0
 45 43  1  1  0  0  0
 46 40  1  0  0  0  0
 47 55  1  6  0  0  0
 47 46  1  0  0  0  0
 48 51  1  0  0  0  0
 48 47  1  0  0  0  0
 49 48  2  0  0  0  0
 50 51  2  0  0  0  0
 53 52  1  6  0  0  0
 53 54  1  0  0  0  0
 53 50  1  0  0  0  0
 55 56  1  0  0  0  0
 57 56  1  0  0  0  0
 58 60  1  0  0  0  0
 60 59  1  6  0  0  0
 60 61  1  0  0  0  0
 62 61  1  6  0  0  0
 62 65  1  0  0  0  0
 62 63  1  0  0  0  0
 63 64  1  0  0  0  0
 65 66  2  0  0  0  0
M  END
>  <MODEL>
4

>  <REMARK>
 VINA RESULT:      -3.3      2.082      3.228
  Name = 
  29 active torsions:
  status: ('A' for Active; 'I' for Inactive)
    1  A    between atoms: C_1  and  C_26
    2  A    between atoms: N_2  and  C_30
    3  A    between atoms: N_2  and  C_40
    4  A    between atoms: C_3  and  O_20
    5  A    between atoms: C_3  and  C_66
    6  A    between atoms: C_5  and  C_66
    7  A    between atoms: C_6  and  C_10
    8  A    between atoms: C_7  and  C_13
    9  A    between atoms: C_7  and  C_32
   10  A    between atoms: C_7  and  C_54
   11  A    between atoms: C_9  and  C_25
   12  A    between atoms: C_10  and  C_38
   13  A    between atoms: C_10  and  C_61
   14  A    between atoms: C_12  and  O_15
   15  A    between atoms: C_12  and  C_57
   16  A    between atoms: C_13  and  C_42
   17  A    between atoms: C_14  and  C_39
   18  A    between atoms: O_15  and  C_59
   19  A    between atoms: C_16  and  N_17
   20  A    between atoms: O_20  and  C_26
   21  A    between atoms: C_21  and  C_23
   22  A    between atoms: C_25  and  C_65
   23  A    between atoms: N_27  and  C_40
   24  A    between atoms: C_29  and  C_54
   25  A    between atoms: C_31  and  C_32
   26  A    between atoms: C_35  and  S_37
   27  A    between atoms: S_37  and  C_56
   28  A    between atoms: C_40  and  C_65
   29  A    between atoms: C_56  and  C_61
                            x       y       z     vdW  Elec       q    Type
                         _______ _______ _______ _____ _____    ______ ____

>  <TORSDO>
F 29

$$$$
=
 OpenBabel11062411043D

 66 70  0  0  1  0  0  0  0  0999 V2000
  182.2220  176.3870  140.0030 N   0  0  0  0  0  0  0  0  0  0  0  0
  183.2000  175.5220  138.2130 N   0  0  0  0  0  0  0  0  0  0  0  0
  183.2820  176.4460  139.1810 C   0  0  0  0  0  0  0  0  0  0  0  0
  181.4860  175.3800  139.4740 C   0  0  0  0  0  3  0  0  0  0  0  0
  182.0780  174.8520  138.3790 N   0  0  0  0  0  0  0  0  0  0  0  0
  184.7580  173.9260  137.0930 C   0  0  0  0  0  2  0  0  0  0  0  0
  184.1210  175.2920  137.1370 C   0  0  0  0  0  0  0  0  0  0  0  0
  185.7320  173.5130  135.6030 S   0  0  0  0  0  0  0  0  0  0  0  0
  186.5620  175.1150  135.5860 C   0  0  2  0  0  3  0  0  0  0  0  0
  186.1510  177.4910  134.8270 C   0  0  0  0  0  1  0  0  0  0  0  0
  184.5230  176.3320  136.3730 C   0  0  0  0  0  0  0  0  0  0  0  0
  185.5100  176.1650  135.2360 C   0  0  2  0  0  3  0  0  0  0  0  0
  184.0240  177.7040  136.7010 C   0  0  0  0  0  1  0  0  0  0  0  0
  187.6370  175.0910  134.5990 N   0  0  0  0  0  2  0  0  0  0  0  0
  188.9070  175.0580  135.3180 C   0  0  1  0  0  3  0  0  0  0  0  0
  188.6700  174.7980  136.7380 N   0  0  0  0  0  0  0  0  0  0  0  0
  189.4180  176.9500  137.4420 N   0  0  0  0  0  1  0  0  0  0  0  0
  188.8860  175.6550  137.6980 C   0  0  0  0  0  3  0  0  0  0  0  0
  189.8260  173.9700  134.7520 C   0  0  0  0  0  2  0  0  0  0  0  0
  190.9920  173.6580  135.6890 C   0  0  0  0  0  2  0  0  0  0  0  0
  194.3520  175.4250  134.7700 C   0  0  0  0  0  2  0  0  0  0  0  0
  192.0580  174.7420  135.6000 C   0  0  1  0  0  3  0  0  0  0  0  0
  192.5550  175.1660  136.9800 C   0  0  0  0  0  2  0  0  0  0  0  0
  193.2190  174.3960  134.6480 C   0  0  2  0  0  3  0  0  0  0  0  0
  193.9770  176.5310  135.5480 O   0  0  0  0  0  0  0  0  0  0  0  0
  193.8090  176.0510  136.8600 C   0  0  0  0  0  2  0  0  0  0  0  0
  195.0370  172.7790  135.3060 C   0  0  0  0  0  0  0  0  0  0  0  0
  193.7850  173.0340  134.9080 C   0  0  0  0  0  3  0  0  0  0  0  0
  194.4750  170.5010  134.9760 O   0  0  0  0  0  1  0  0  0  0  0  0
  195.3650  171.3570  135.6460 C   0  0  2  0  0  3  0  0  0  0  0  0
  195.4140  171.1210  137.1690 C   0  0  0  0  0  3  0  0  0  0  0  0
  196.6520  170.3480  137.5900 C   0  0  0  0  0  2  0  0  0  0  0  0
  195.3140  169.6420  137.5150 C   0  0  0  0  0  2  0  0  0  0  0  0
  196.0300  173.7620  135.4680 O   0  0  0  0  0  0  0  0  0  0  0  0
  197.4200  173.5390  135.2390 C   0  0  0  0  0  2  0  0  0  0  0  0
  198.2070  173.9120  136.4750 C   0  0  0  0  0  2  0  0  0  0  0  0
  199.1300  174.8860  136.1550 F   0  0  0  0  0  0  0  0  0  0  0  0
  184.3740  177.4510  139.3040 C   0  0  0  0  0  2  0  0  0  0  0  0
  185.0380  177.2870  140.5340 O   0  0  0  0  0  0  0  0  0  0  0  0
  187.5330  178.8770  141.7650 C   0  0  0  0  0  0  0  0  0  0  0  0
  184.9410  178.3290  142.6890 C   0  0  2  0  0  3  0  0  0  0  0  0
  188.1400  179.9610  141.5610 O   0  0  0  0  0  0  0  0  0  0  0  0
  184.1930  179.5510  140.7370 O   0  0  0  0  0  1  0  0  0  0  0  0
  186.1210  178.8650  141.9310 N   0  0  0  0  0  0  0  0  0  0  0  0
  184.8320  178.4440  141.3220 C   0  0  2  0  0  0  0  0  0  0  0  0
  188.2840  177.5850  141.7950 C   0  0  0  0  0  2  0  0  0  0  0  0
  189.4960  177.6100  142.7380 C   0  0  1  0  0  3  0  0  0  0  0  0
  189.6520  176.3300  143.4990 C   0  0  0  0  0  0  0  0  0  0  0  0
  188.9780  175.3310  143.1400 O   0  0  0  0  0  0  0  0  0  0  0  0
  190.4230  176.8050  145.8480 C   0  0  0  0  0  3  0  0  0  0  0  0
  190.5960  176.2540  144.6410 C   0  0  0  0  0  3  0  0  0  0  0  0
  187.9710  176.8010  146.1050 C   0  0  0  0  0  1  0  0  0  0  0  0
  189.2380  177.6190  146.2520 C   0  0  1  0  0  3  0  0  0  0  0  0
  189.3820  178.0210  147.5780 O   0  0  0  0  0  1  0  0  0  0  0  0
  190.7460  177.8720  141.9270 C   0  0  0  0  0  2  0  0  0  0  0  0
  190.7510  176.9950  140.6880 C   0  0  0  0  0  2  0  0  0  0  0  0
  191.8420  177.3290  139.8890 O   0  0  0  0  0  1  0  0  0  0  0  0
  183.9530  179.6330  143.5390 S   0  0  0  0  0  0  0  0  0  0  0  0
  181.6180  179.0370  144.6960 O   0  0  0  0  0  1  0  0  0  0  0  0
  182.2910  178.8800  143.4930 C   0  0  1  0  0  3  0  0  0  0  0  0
  181.4530  179.3560  142.3160 C   0  0  0  0  0  2  0  0  0  0  0  0
  180.1070  178.6390  142.2910 C   0  0  1  0  0  3  0  0  0  0  0  0
  179.0410  179.5260  142.9180 C   0  0  0  0  0  2  0  0  0  0  0  0
  179.2720  180.8610  142.5940 O   0  0  0  0  0  1  0  0  0  0  0  0
  179.7390  178.3170  140.8860 C   0  0  0  0  0  3  0  0  0  0  0  0
  179.1710  177.2750  140.6150 O   0  0  0  0  0  0  0  0  0  0  0  0
  2  5  1  0  0  0  0
  2  3  1  0  0  0  0
  3 38  1  0  0  0  0
  3  1  2  0  0  0  0
  4  1  1  0  0  0  0
  5  4  2  0  0  0  0
  6  7  1  0  0  0  0
  7  2  1  0  0  0  0
  8  6  1  0  0  0  0
  9 14  1  6  0  0  0
  9  8  1  0  0  0  0
 11 13  1  0  0  0  0
 11  7  2  0  0  0  0
 12 10  1  1  0  0  0
 12  9  1  0  0  0  0
 12 11  1  0  0  0  0
 14 15  1  0  0  0  0
 15 19  1  6  0  0  0
 15 16  1  0  0  0  0
 16 18  2  0  0  0  0
 17 18  1  0  0  0  0
 19 20  1  0  0  0  0
 21 25  1  0  0  0  0
 22 20  1  1  0  0  0
 22 23  1  0  0  0  0
 24 21  1  0  0  0  0
 24 28  1  1  0  0  0
 24 22  1  0  0  0  0
 25 26  1  0  0  0  0
 26 23  1  0  0  0  0
 27 34  1  0  0  0  0
 27 30  1  0  0  0  0
 28 27  2  0  0  0  0
 30 29  1  6  0  0  0
 30 31  1  0  0  0  0
 31 33  1  0  0  0  0
 31 32  1  0  0  0  0
 33 32  1  0  0  0  0
 35 34  1  0  0  0  0
 35 36  1  0  0  0  0
 37 36  1  0  0  0  0
 38 39  1  0  0  0  0
 39 45  1  0  0  0  0
 40 46  1  0  0  0  0
 40 44  1  0  0  0  0
 41 58  1  1  0  0  0
 42 40  2  0  0  0  0
 44 41  1  0  0  0  0
 45 43  1  6  0  0  0
 45 44  1  0  0  0  0
 45 41  1  0  0  0  0
 47 46  1  6  0  0  0
 47 48  1  0  0  0  0
 48 51  1  0  0  0  0
 49 48  2  0  0  0  0
 50 53  1  0  0  0  0
 51 50  2  0  0  0  0
 53 52  1  1  0  0  0
 53 54  1  0  0  0  0
 55 47  1  0  0  0  0
 56 55  1  0  0  0  0
 57 56  1  0  0  0  0
 60 58  1  0  0  0  0
 60 59  1  1  0  0  0
 61 60  1  0  0  0  0
 62 65  1  6  0  0  0
 62 61  1  0  0  0  0
 62 63  1  0  0  0  0
 64 63  1  0  0  0  0
 66 65  2  0  0  0  0
M  END
>  <MODEL>
5

>  <REMARK>
 VINA RESULT:      -3.1      3.525      9.843
  Name = 
  29 active torsions:
  status: ('A' for Active; 'I' for Inactive)
    1  A    between atoms: C_1  and  C_26
    2  A    between atoms: N_2  and  C_30
    3  A    between atoms: N_2  and  C_40
    4  A    between atoms: C_3  and  O_20
    5  A    between atoms: C_3  and  C_66
    6  A    between atoms: C_5  and  C_66
    7  A    between atoms: C_6  and  C_10
    8  A    between atoms: C_7  and  C_13
    9  A    between atoms: C_7  and  C_32
   10  A    between atoms: C_7  and  C_54
   11  A    between atoms: C_9  and  C_25
   12  A    between atoms: C_10  and  C_38
   13  A    between atoms: C_10  and  C_61
   14  A    between atoms: C_12  and  O_15
   15  A    between atoms: C_12  and  C_57
   16  A    between atoms: C_13  and  C_42
   17  A    between atoms: C_14  and  C_39
   18  A    between atoms: O_15  and  C_59
   19  A    between atoms: C_16  and  N_17
   20  A    between atoms: O_20  and  C_26
   21  A    between atoms: C_21  and  C_23
   22  A    between atoms: C_25  and  C_65
   23  A    between atoms: N_27  and  C_40
   24  A    between atoms: C_29  and  C_54
   25  A    between atoms: C_31  and  C_32
   26  A    between atoms: C_35  and  S_37
   27  A    between atoms: S_37  and  C_56
   28  A    between atoms: C_40  and  C_65
   29  A    between atoms: C_56  and  C_61
                            x       y       z     vdW  Elec       q    Type
                         _______ _______ _______ _____ _____    ______ ____

>  <TORSDO>
F 29

$$$$
=
 OpenBabel11062411043D

 66 70  0  0  1  0  0  0  0  0999 V2000
  189.8310  178.3250  144.4560 N   0  0  0  0  0  0  0  0  0  0  0  0
  189.9550  178.1660  142.2500 N   0  0  0  0  0  0  0  0  0  0  0  0
  189.3830  177.6870  143.3630 C   0  0  0  0  0  0  0  0  0  0  0  0
  190.7170  179.2130  143.9440 C   0  0  0  0  0  3  0  0  0  0  0  0
  190.7970  179.1160  142.5980 N   0  0  0  0  0  0  0  0  0  0  0  0
  188.3190  177.6200  140.4450 C   0  0  0  0  0  2  0  0  0  0  0  0
  189.7540  177.7260  140.8990 C   0  0  0  0  0  0  0  0  0  0  0  0
  188.0330  177.3130  138.6660 S   0  0  0  0  0  0  0  0  0  0  0  0
  189.3110  176.0420  138.5840 C   0  0  2  0  0  3  0  0  0  0  0  0
  191.8210  175.8420  138.3550 C   0  0  0  0  0  1  0  0  0  0  0  0
  190.8010  177.2420  140.1960 C   0  0  0  0  0  0  0  0  0  0  0  0
  190.6560  176.7390  138.7730 C   0  0  2  0  0  3  0  0  0  0  0  0
  192.1350  177.1400  140.8650 C   0  0  0  0  0  1  0  0  0  0  0  0
  189.2390  175.3700  137.2900 N   0  0  0  0  0  2  0  0  0  0  0  0
  187.8580  175.4420  136.8210 C   0  0  1  0  0  3  0  0  0  0  0  0
  187.8280  175.4480  135.3590 N   0  0  0  0  0  0  0  0  0  0  0  0
  189.0140  177.5070  135.1640 N   0  0  0  0  0  1  0  0  0  0  0  0
  188.3620  176.3720  134.6070 C   0  0  0  0  0  3  0  0  0  0  0  0
  187.0450  174.2500  137.3390 C   0  0  0  0  0  2  0  0  0  0  0  0
  185.6850  174.1410  136.6490 C   0  0  0  0  0  2  0  0  0  0  0  0
  182.9490  176.7230  137.7010 C   0  0  0  0  0  2  0  0  0  0  0  0
  184.9260  175.4580  136.7470 C   0  0  1  0  0  3  0  0  0  0  0  0
  184.4250  175.9290  135.3830 C   0  0  0  0  0  2  0  0  0  0  0  0
  183.8050  175.4520  137.8050 C   0  0  2  0  0  3  0  0  0  0  0  0
  183.5100  177.6660  136.8260 O   0  0  0  0  0  0  0  0  0  0  0  0
  183.4380  177.1010  135.5390 C   0  0  0  0  0  2  0  0  0  0  0  0
  181.6580  174.2830  137.1930 C   0  0  0  0  0  0  0  0  0  0  0  0
  182.9060  174.2630  137.6780 C   0  0  0  0  0  3  0  0  0  0  0  0
  180.7980  172.3610  138.2780 O   0  0  0  0  0  1  0  0  0  0  0  0
  180.9750  172.9600  137.0210 C   0  0  2  0  0  3  0  0  0  0  0  0
  181.7060  172.0580  136.0070 C   0  0  0  0  0  3  0  0  0  0  0  0
  182.9180  172.7430  135.3990 C   0  0  0  0  0  2  0  0  0  0  0  0
  181.6390  172.6250  134.5960 C   0  0  0  0  0  2  0  0  0  0  0  0
  180.9840  175.4520  136.7960 O   0  0  0  0  0  0  0  0  0  0  0  0
  180.1450  176.2200  137.6550 C   0  0  0  0  0  2  0  0  0  0  0  0
  178.9340  175.4040  138.0470 C   0  0  0  0  0  2  0  0  0  0  0  0
  178.9900  175.1180  139.3960 F   0  0  0  0  0  0  0  0  0  0  0  0
  188.4150  176.5550  143.4000 C   0  0  0  0  0  2  0  0  0  0  0  0
  187.1070  177.0480  143.5610 O   0  0  0  0  0  0  0  0  0  0  0  0
  184.4240  178.4890  144.5570 C   0  0  0  0  0  0  0  0  0  0  0  0
  187.0510  178.3940  145.5420 C   0  0  2  0  0  3  0  0  0  0  0  0
  183.3240  178.1570  145.0690 O   0  0  0  0  0  0  0  0  0  0  0  0
  186.6960  176.0040  145.7110 O   0  0  0  0  0  1  0  0  0  0  0  0
  185.6470  178.0490  145.1350 N   0  0  0  0  0  0  0  0  0  0  0  0
  186.8330  177.1740  144.9430 C   0  0  2  0  0  0  0  0  0  0  0  0
  184.4600  179.3160  143.3130 C   0  0  0  0  0  2  0  0  0  0  0  0
  184.1860  178.5070  142.0370 C   0  0  1  0  0  3  0  0  0  0  0  0
  182.7470  178.5610  141.6260 C   0  0  0  0  0  0  0  0  0  0  0  0
  182.3760  177.8690  140.6440 O   0  0  0  0  0  0  0  0  0  0  0  0
  180.5500  179.7310  141.9980 C   0  0  0  0  0  3  0  0  0  0  0  0
  181.7900  179.4070  142.3800 C   0  0  0  0  0  3  0  0  0  0  0  0
  180.6510  179.9090  139.5410 C   0  0  0  0  0  1  0  0  0  0  0  0
  179.9130  179.3020  140.7170 C   0  0  1  0  0  3  0  0  0  0  0  0
  179.9500  177.9130  140.6230 O   0  0  0  0  0  1  0  0  0  0  0  0
  185.0530  179.0410  140.9190 C   0  0  0  0  0  2  0  0  0  0  0  0
  184.2240  179.9170  139.9960 C   0  0  0  0  0  2  0  0  0  0  0  0
  184.7110  179.8080  138.6950 O   0  0  0  0  0  1  0  0  0  0  0  0
  187.3690  178.1920  147.3470 S   0  0  0  0  0  0  0  0  0  0  0  0
  189.7460  178.8080  148.4040 O   0  0  0  0  0  1  0  0  0  0  0  0
  189.1900  178.0850  147.3580 C   0  0  1  0  0  3  0  0  0  0  0  0
  189.7050  176.6530  147.3320 C   0  0  0  0  0  2  0  0  0  0  0  0
  191.1540  176.6120  146.8600 C   0  0  1  0  0  3  0  0  0  0  0  0
  192.0390  176.0600  147.9690 C   0  0  0  0  0  2  0  0  0  0  0  0
  192.5800  177.1010  148.7200 O   0  0  0  0  0  1  0  0  0  0  0  0
  191.2610  175.7540  145.6500 C   0  0  0  0  0  3  0  0  0  0  0  0
  192.0530  176.0230  144.7650 O   0  0  0  0  0  0  0  0  0  0  0  0
  2  5  1  0  0  0  0
  2  3  1  0  0  0  0
  3 38  1  0  0  0  0
  3  1  2  0  0  0  0
  4  1  1  0  0  0  0
  5  4  2  0  0  0  0
  6  7  1  0  0  0  0
  7  2  1  0  0  0  0
  8  6  1  0  0  0  0
  9 14  1  6  0  0  0
  9  8  1  0  0  0  0
  9 12  1  0  0  0  0
 11 13  1  0  0  0  0
 11  7  2  0  0  0  0
 12 10  1  1  0  0  0
 12 11  1  0  0  0  0
 15 14  1  0  0  0  0
 15 19  1  6  0  0  0
 16 15  1  0  0  0  0
 18 17  1  0  0  0  0
 18 16  2  0  0  0  0
 20 19  1  0  0  0  0
 21 24  1  0  0  0  0
 22 20  1  6  0  0  0
 22 24  1  0  0  0  0
 23 26  1  0  0  0  0
 23 22  1  0  0  0  0
 24 28  1  6  0  0  0
 25 21  1  0  0  0  0
 26 25  1  0  0  0  0
 27 28  2  0  0  0  0
 30 27  1  0  0  0  0
 30 29  1  1  0  0  0
 31 30  1  0  0  0  0
 32 31  1  0  0  0  0
 33 32  1  0  0  0  0
 33 31  1  0  0  0  0
 34 27  1  0  0  0  0
 34 35  1  0  0  0  0
 35 36  1  0  0  0  0
 36 37  1  0  0  0  0
 38 39  1  0  0  0  0
 39 45  1  0  0  0  0
 40 42  2  0  0  0  0
 40 44  1  0  0  0  0
 41 58  1  1  0  0  0
 44 41  1  0  0  0  0
 45 44  1  0  0  0  0
 45 41  1  0  0  0  0
 45 43  1  1  0  0  0
 46 40  1  0  0  0  0
 47 55  1  6  0  0  0
 47 46  1  0  0  0  0
 48 47  1  0  0  0  0
 48 51  1  0  0  0  0
 49 48  2  0  0  0  0
 50 51  2  0  0  0  0
 53 52  1  6  0  0  0
 53 50  1  0  0  0  0
 54 53  1  0  0  0  0
 56 55  1  0  0  0  0
 57 56  1  0  0  0  0
 58 60  1  0  0  0  0
 60 59  1  1  0  0  0
 61 60  1  0  0  0  0
 62 65  1  6  0  0  0
 62 61  1  0  0  0  0
 62 63  1  0  0  0  0
 63 64  1  0  0  0  0
 66 65  2  0  0  0  0
M  END
>  <MODEL>
6

>  <REMARK>
 VINA RESULT:      -2.9      3.138      7.236
  Name = 
  29 active torsions:
  status: ('A' for Active; 'I' for Inactive)
    1  A    between atoms: C_1  and  C_26
    2  A    between atoms: N_2  and  C_30
    3  A    between atoms: N_2  and  C_40
    4  A    between atoms: C_3  and  O_20
    5  A    between atoms: C_3  and  C_66
    6  A    between atoms: C_5  and  C_66
    7  A    between atoms: C_6  and  C_10
    8  A    between atoms: C_7  and  C_13
    9  A    between atoms: C_7  and  C_32
   10  A    between atoms: C_7  and  C_54
   11  A    between atoms: C_9  and  C_25
   12  A    between atoms: C_10  and  C_38
   13  A    between atoms: C_10  and  C_61
   14  A    between atoms: C_12  and  O_15
   15  A    between atoms: C_12  and  C_57
   16  A    between atoms: C_13  and  C_42
   17  A    between atoms: C_14  and  C_39
   18  A    between atoms: O_15  and  C_59
   19  A    between atoms: C_16  and  N_17
   20  A    between atoms: O_20  and  C_26
   21  A    between atoms: C_21  and  C_23
   22  A    between atoms: C_25  and  C_65
   23  A    between atoms: N_27  and  C_40
   24  A    between atoms: C_29  and  C_54
   25  A    between atoms: C_31  and  C_32
   26  A    between atoms: C_35  and  S_37
   27  A    between atoms: S_37  and  C_56
   28  A    between atoms: C_40  and  C_65
   29  A    between atoms: C_56  and  C_61
                            x       y       z     vdW  Elec       q    Type
                         _______ _______ _______ _____ _____    ______ ____

>  <TORSDO>
F 29

$$$$
=
 OpenBabel11062411043D

 66 70  0  0  1  0  0  0  0  0999 V2000
  190.4440  178.2110  141.9370 N   0  0  0  0  0  0  0  0  0  0  0  0
  190.0320  177.7630  139.8060 N   0  0  0  0  0  0  0  0  0  0  0  0
  189.5110  178.1720  140.9710 C   0  0  0  0  0  0  0  0  0  0  0  0
  191.5600  177.7920  141.2930 C   0  0  0  0  0  3  0  0  0  0  0  0
  191.3120  177.5140  139.9930 N   0  0  0  0  0  0  0  0  0  0  0  0
  187.8610  177.8040  138.5760 C   0  0  0  0  0  2  0  0  0  0  0  0
  189.3500  177.5690  138.5590 C   0  0  0  0  0  0  0  0  0  0  0  0
  187.0050  177.8180  136.9610 S   0  0  0  0  0  0  0  0  0  0  0  0
  187.8820  176.3520  136.3780 C   0  0  2  0  0  3  0  0  0  0  0  0
  190.1020  175.7160  135.3500 C   0  0  0  0  0  1  0  0  0  0  0  0
  190.0080  177.0020  137.5240 C   0  0  0  0  0  0  0  0  0  0  0  0
  189.3440  176.7470  136.1850 C   0  0  2  0  0  3  0  0  0  0  0  0
  191.4210  176.5530  137.7250 C   0  0  0  0  0  1  0  0  0  0  0  0
  187.2850  175.9010  135.1250 N   0  0  0  0  0  2  0  0  0  0  0  0
  187.2240  174.4420  135.1550 C   0  0  1  0  0  3  0  0  0  0  0  0
  187.4240  173.9640  136.5220 N   0  0  0  0  0  0  0  0  0  0  0  0
  188.0590  171.7650  135.8510 N   0  0  0  0  0  1  0  0  0  0  0  0
  187.8150  172.7590  136.8390 C   0  0  0  0  0  3  0  0  0  0  0  0
  185.8700  173.9430  134.6370 C   0  0  0  0  0  2  0  0  0  0  0  0
  184.7580  174.1280  135.6690 C   0  0  0  0  0  2  0  0  0  0  0  0
  181.1110  172.7380  135.4980 C   0  0  0  0  0  2  0  0  0  0  0  0
  183.6050  173.1710  135.3930 C   0  0  1  0  0  3  0  0  0  0  0  0
  183.7510  171.8650  136.1720 C   0  0  0  0  0  2  0  0  0  0  0  0
  182.2130  173.8050  135.5800 C   0  0  2  0  0  3  0  0  0  0  0  0
  181.6090  171.4980  135.0690 O   0  0  0  0  0  0  0  0  0  0  0  0
  182.4550  171.0370  136.0940 C   0  0  0  0  0  2  0  0  0  0  0  0
  181.3990  175.6560  137.0840 C   0  0  0  0  0  0  0  0  0  0  0  0
  182.0820  174.5220  136.8870 C   0  0  0  0  0  3  0  0  0  0  0  0
  182.3600  176.9790  138.7980 O   0  0  0  0  0  1  0  0  0  0  0  0
  181.2760  176.1380  138.4980 C   0  0  2  0  0  3  0  0  0  0  0  0
  181.1050  174.9750  139.4940 C   0  0  0  0  0  3  0  0  0  0  0  0
  179.7180  174.3600  139.4270 C   0  0  0  0  0  2  0  0  0  0  0  0
  180.0710  175.2950  140.5650 C   0  0  0  0  0  2  0  0  0  0  0  0
  180.7590  176.3800  136.0620 O   0  0  0  0  0  0  0  0  0  0  0  0
  181.2760  177.5780  135.4870 C   0  0  0  0  0  2  0  0  0  0  0  0
  180.3290  178.7250  135.7620 C   0  0  0  0  0  2  0  0  0  0  0  0
  180.9990  179.9210  135.6010 F   0  0  0  0  0  0  0  0  0  0  0  0
  188.0730  178.4910  141.1930 C   0  0  0  0  0  2  0  0  0  0  0  0
  187.4760  177.4900  141.9800 O   0  0  0  0  0  0  0  0  0  0  0  0
  187.7820  177.9950  145.1290 C   0  0  0  0  0  0  0  0  0  0  0  0
  185.6350  177.2310  143.4910 C   0  0  2  0  0  3  0  0  0  0  0  0
  187.9380  178.9740  145.9050 O   0  0  0  0  0  0  0  0  0  0  0  0
  185.9780  179.3550  142.3780 O   0  0  0  0  0  1  0  0  0  0  0  0
  186.7310  178.0000  144.1710 N   0  0  0  0  0  0  0  0  0  0  0  0
  186.4140  178.0620  142.7200 C   0  0  2  0  0  0  0  0  0  0  0  0
  188.7210  176.8340  145.1790 C   0  0  0  0  0  2  0  0  0  0  0  0
  190.0250  177.1400  145.9320 C   0  0  1  0  0  3  0  0  0  0  0  0
  190.2830  176.1690  147.0420 C   0  0  0  0  0  0  0  0  0  0  0  0
  189.3800  175.9790  147.8960 O   0  0  0  0  0  0  0  0  0  0  0  0
  192.5050  175.5730  148.0620 C   0  0  0  0  0  3  0  0  0  0  0  0
  191.5750  175.4430  147.1100 C   0  0  0  0  0  3  0  0  0  0  0  0
  193.4970  176.1870  150.2350 C   0  0  0  0  0  1  0  0  0  0  0  0
  192.4070  176.4990  149.2290 C   0  0  1  0  0  3  0  0  0  0  0  0
  192.5410  177.8140  148.7900 O   0  0  0  0  0  1  0  0  0  0  0  0
  191.1780  177.1080  144.9520 C   0  0  0  0  0  2  0  0  0  0  0  0
  191.4890  178.5150  144.4760 C   0  0  0  0  0  2  0  0  0  0  0  0
  192.5500  179.0290  145.2190 O   0  0  0  0  0  1  0  0  0  0  0  0
  183.9570  177.9520  143.7460 S   0  0  0  0  0  0  0  0  0  0  0  0
  182.2560  177.1000  141.8700 O   0  0  0  0  0  1  0  0  0  0  0  0
  183.3310  177.9620  142.0320 C   0  0  1  0  0  3  0  0  0  0  0  0
  183.0120  179.3580  141.5200 C   0  0  0  0  0  2  0  0  0  0  0  0
  181.7340  179.3460  140.6880 C   0  0  1  0  0  3  0  0  0  0  0  0
  180.6430  180.1220  141.4120 C   0  0  0  0  0  2  0  0  0  0  0  0
  180.4210  179.5800  142.6750 O   0  0  0  0  0  1  0  0  0  0  0  0
  181.9980  179.9590  139.3590 C   0  0  0  0  0  3  0  0  0  0  0  0
  182.7870  180.8800  139.2440 O   0  0  0  0  0  0  0  0  0  0  0  0
  2  5  1  0  0  0  0
  2  3  1  0  0  0  0
  3 38  1  0  0  0  0
  3  1  2  0  0  0  0
  4  1  1  0  0  0  0
  5  4  2  0  0  0  0
  7  6  1  0  0  0  0
  7  2  1  0  0  0  0
  8  6  1  0  0  0  0
  9 14  1  6  0  0  0
  9  8  1  0  0  0  0
 11 13  1  0  0  0  0
 11  7  2  0  0  0  0
 12 10  1  1  0  0  0
 12  9  1  0  0  0  0
 12 11  1  0  0  0  0
 14 15  1  0  0  0  0
 15 19  1  1  0  0  0
 15 16  1  0  0  0  0
 16 18  2  0  0  0  0
 17 18  1  0  0  0  0
 19 20  1  0  0  0  0
 21 24  1  0  0  0  0
 22 24  1  0  0  0  0
 22 20  1  1  0  0  0
 22 23  1  0  0  0  0
 24 28  1  1  0  0  0
 25 21  1  0  0  0  0
 25 26  1  0  0  0  0
 26 23  1  0  0  0  0
 27 30  1  0  0  0  0
 28 27  2  0  0  0  0
 30 29  1  1  0  0  0
 30 31  1  0  0  0  0
 31 33  1  0  0  0  0
 32 31  1  0  0  0  0
 32 33  1  0  0  0  0
 34 27  1  0  0  0  0
 35 36  1  0  0  0  0
 35 34  1  0  0  0  0
 37 36  1  0  0  0  0
 38 39  1  0  0  0  0
 39 45  1  0  0  0  0
 40 46  1  0  0  0  0
 40 42  2  0  0  0  0
 41 58  1  1  0  0  0
 41 44  1  0  0  0  0
 44 40  1  0  0  0  0
 45 43  1  6  0  0  0
 45 41  1  0  0  0  0
 45 44  1  0  0  0  0
 46 47  1  0  0  0  0
 47 55  1  6  0  0  0
 47 48  1  0  0  0  0
 48 51  1  0  0  0  0
 48 49  2  0  0  0  0
 50 53  1  0  0  0  0
 51 50  2  0  0  0  0
 53 52  1  1  0  0  0
 54 53  1  0  0  0  0
 56 55  1  0  0  0  0
 56 57  1  0  0  0  0
 60 59  1  1  0  0  0
 60 58  1  0  0  0  0
 61 60  1  0  0  0  0
 62 65  1  6  0  0  0
 62 63  1  0  0  0  0
 62 61  1  0  0  0  0
 63 64  1  0  0  0  0
 66 65  2  0  0  0  0
M  END
>  <MODEL>
7

>  <REMARK>
 VINA RESULT:      -1.3      3.411      8.238
  Name = 
  29 active torsions:
  status: ('A' for Active; 'I' for Inactive)
    1  A    between atoms: C_1  and  C_26
    2  A    between atoms: N_2  and  C_30
    3  A    between atoms: N_2  and  C_40
    4  A    between atoms: C_3  and  O_20
    5  A    between atoms: C_3  and  C_66
    6  A    between atoms: C_5  and  C_66
    7  A    between atoms: C_6  and  C_10
    8  A    between atoms: C_7  and  C_13
    9  A    between atoms: C_7  and  C_32
   10  A    between atoms: C_7  and  C_54
   11  A    between atoms: C_9  and  C_25
   12  A    between atoms: C_10  and  C_38
   13  A    between atoms: C_10  and  C_61
   14  A    between atoms: C_12  and  O_15
   15  A    between atoms: C_12  and  C_57
   16  A    between atoms: C_13  and  C_42
   17  A    between atoms: C_14  and  C_39
   18  A    between atoms: O_15  and  C_59
   19  A    between atoms: C_16  and  N_17
   20  A    between atoms: O_20  and  C_26
   21  A    between atoms: C_21  and  C_23
   22  A    between atoms: C_25  and  C_65
   23  A    between atoms: N_27  and  C_40
   24  A    between atoms: C_29  and  C_54
   25  A    between atoms: C_31  and  C_32
   26  A    between atoms: C_35  and  S_37
   27  A    between atoms: S_37  and  C_56
   28  A    between atoms: C_40  and  C_65
   29  A    between atoms: C_56  and  C_61
                            x       y       z     vdW  Elec       q    Type
                         _______ _______ _______ _____ _____    ______ ____

>  <TORSDO>
F 29

$$$$
=
 OpenBabel11062411043D

 66 70  0  0  1  0  0  0  0  0999 V2000
  190.7420  177.9500  141.1980 N   0  0  0  0  0  0  0  0  0  0  0  0
  190.1020  177.5710  139.1100 N   0  0  0  0  0  0  0  0  0  0  0  0
  189.7090  177.9320  140.3400 C   0  0  0  0  0  0  0  0  0  0  0  0
  191.7850  177.5690  140.4210 C   0  0  0  0  0  3  0  0  0  0  0  0
  191.3970  177.3330  139.1470 N   0  0  0  0  0  0  0  0  0  0  0  0
  187.8330  177.7730  138.0900 C   0  0  0  0  0  2  0  0  0  0  0  0
  189.2900  177.4120  137.9390 C   0  0  0  0  0  0  0  0  0  0  0  0
  186.8290  177.8280  136.5640 S   0  0  0  0  0  0  0  0  0  0  0  0
  187.5220  176.2820  135.9410 C   0  0  2  0  0  3  0  0  0  0  0  0
  189.5710  175.4390  134.7260 C   0  0  0  0  0  1  0  0  0  0  0  0
  189.7950  176.7700  136.8620 C   0  0  0  0  0  0  0  0  0  0  0  0
  188.9860  176.5470  135.6000 C   0  0  2  0  0  3  0  0  0  0  0  0
  191.1790  176.2070  136.9410 C   0  0  0  0  0  1  0  0  0  0  0  0
  186.7710  175.8580  134.7630 N   0  0  0  0  0  2  0  0  0  0  0  0
  185.9290  174.7290  135.1480 C   0  0  1  0  0  3  0  0  0  0  0  0
  185.8900  174.6100  136.6050 N   0  0  0  0  0  0  0  0  0  0  0  0
  186.6390  172.3470  136.6200 N   0  0  0  0  0  1  0  0  0  0  0  0
  186.2240  173.5400  137.2740 C   0  0  0  0  0  3  0  0  0  0  0  0
  184.5020  174.9080  134.6170 C   0  0  0  0  0  2  0  0  0  0  0  0
  183.7780  176.0690  135.2970 C   0  0  0  0  0  2  0  0  0  0  0  0
  179.9740  176.6400  135.9820 C   0  0  0  0  0  2  0  0  0  0  0  0
  182.2880  175.7750  135.4200 C   0  0  1  0  0  3  0  0  0  0  0  0
  182.0070  174.6830  136.4500 C   0  0  0  0  0  2  0  0  0  0  0  0
  181.4240  177.0290  135.6550 C   0  0  2  0  0  3  0  0  0  0  0  0
  179.7390  175.2710  135.7840 O   0  0  0  0  0  0  0  0  0  0  0  0
  180.5000  174.5950  136.7550 C   0  0  0  0  0  2  0  0  0  0  0  0
  181.2670  178.2300  137.8650 C   0  0  0  0  0  0  0  0  0  0  0  0
  181.9480  177.8840  136.7650 C   0  0  0  0  0  3  0  0  0  0  0  0
  182.2510  180.2930  138.4880 O   0  0  0  0  0  1  0  0  0  0  0  0
  182.0200  178.9770  138.9230 C   0  0  2  0  0  3  0  0  0  0  0  0
  183.3020  178.2390  139.3540 C   0  0  0  0  0  3  0  0  0  0  0  0
  183.0780  177.3670  140.5770 C   0  0  0  0  0  2  0  0  0  0  0  0
  183.7850  178.6980  140.7230 C   0  0  0  0  0  2  0  0  0  0  0  0
  179.9220  177.8910  138.0990 O   0  0  0  0  0  0  0  0  0  0  0  0
  179.3530  177.7350  139.3970 C   0  0  0  0  0  2  0  0  0  0  0  0
  179.6140  176.3340  139.9030 C   0  0  0  0  0  2  0  0  0  0  0  0
  179.5370  176.3210  141.2810 F   0  0  0  0  0  0  0  0  0  0  0  0
  188.3000  178.2240  140.7280 C   0  0  0  0  0  2  0  0  0  0  0  0
  187.8670  177.2930  141.6900 O   0  0  0  0  0  0  0  0  0  0  0  0
  188.8980  177.7190  144.6930 C   0  0  0  0  0  0  0  0  0  0  0  0
  186.3800  177.2000  143.5670 C   0  0  2  0  0  3  0  0  0  0  0  0
  189.3180  178.6660  145.4080 O   0  0  0  0  0  0  0  0  0  0  0  0
  186.6890  179.2940  142.3890 O   0  0  0  0  0  1  0  0  0  0  0  0
  187.6710  177.8440  143.9860 N   0  0  0  0  0  0  0  0  0  0  0  0
  187.0550  177.9590  142.6380 C   0  0  2  0  0  0  0  0  0  0  0  0
  189.7020  176.4680  144.5470 C   0  0  0  0  0  2  0  0  0  0  0  0
  191.1850  176.6550  144.9000 C   0  0  1  0  0  3  0  0  0  0  0  0
  191.9330  175.3580  144.9250 C   0  0  0  0  0  0  0  0  0  0  0  0
  192.5050  174.9750  143.8740 O   0  0  0  0  0  0  0  0  0  0  0  0
  192.1860  175.0440  147.4090 C   0  0  0  0  0  3  0  0  0  0  0  0
  192.0000  174.5630  146.1750 C   0  0  0  0  0  3  0  0  0  0  0  0
  191.0390  177.1470  147.9930 C   0  0  0  0  0  1  0  0  0  0  0  0
  192.3800  176.4870  147.7410 C   0  0  1  0  0  3  0  0  0  0  0  0
  193.1740  176.5980  148.8800 O   0  0  0  0  0  1  0  0  0  0  0  0
  191.8180  177.5850  143.8870 C   0  0  0  0  0  2  0  0  0  0  0  0
  191.5810  179.0290  144.2940 C   0  0  0  0  0  2  0  0  0  0  0  0
  192.8010  179.7010  144.3440 O   0  0  0  0  0  1  0  0  0  0  0  0
  184.8800  178.0850  144.1740 S   0  0  0  0  0  0  0  0  0  0  0  0
  184.9560  180.7240  144.5870 O   0  0  0  0  0  1  0  0  0  0  0  0
  185.6430  179.5660  144.9190 C   0  0  1  0  0  3  0  0  0  0  0  0
  185.8410  179.4440  146.4220 C   0  0  0  0  0  2  0  0  0  0  0  0
  185.8000  177.9810  146.8530 C   0  0  1  0  0  3  0  0  0  0  0  0
  187.1550  177.5720  147.4110 C   0  0  0  0  0  2  0  0  0  0  0  0
  187.4480  178.3070  148.5580 O   0  0  0  0  0  1  0  0  0  0  0  0
  184.7460  177.7950  147.8860 C   0  0  0  0  0  3  0  0  0  0  0  0
  183.8780  176.9530  147.7450 O   0  0  0  0  0  0  0  0  0  0  0  0
  2  5  1  0  0  0  0
  2  3  1  0  0  0  0
  3 38  1  0  0  0  0
  3  1  2  0  0  0  0
  4  1  1  0  0  0  0
  5  4  2  0  0  0  0
  7  6  1  0  0  0  0
  7  2  1  0  0  0  0
  8  6  1  0  0  0  0
  9 14  1  6  0  0  0
  9  8  1  0  0  0  0
 11 13  1  0  0  0  0
 11  7  2  0  0  0  0
 12 10  1  1  0  0  0
 12  9  1  0  0  0  0
 12 11  1  0  0  0  0
 14 15  1  0  0  0  0
 15 19  1  1  0  0  0
 15 16  1  0  0  0  0
 16 18  2  0  0  0  0
 17 18  1  0  0  0  0
 19 20  1  0  0  0  0
 22 20  1  1  0  0  0
 22 24  1  0  0  0  0
 22 23  1  0  0  0  0
 23 26  1  0  0  0  0
 24 21  1  0  0  0  0
 24 28  1  1  0  0  0
 25 21  1  0  0  0  0
 25 26  1  0  0  0  0
 27 34  1  0  0  0  0
 27 30  1  0  0  0  0
 28 27  2  0  0  0  0
 30 29  1  6  0  0  0
 30 31  1  0  0  0  0
 31 32  1  0  0  0  0
 31 33  1  0  0  0  0
 32 33  1  0  0  0  0
 34 35  1  0  0  0  0
 35 36  1  0  0  0  0
 36 37  1  0  0  0  0
 38 39  1  0  0  0  0
 39 45  1  0  0  0  0
 40 42  2  0  0  0  0
 41 44  1  0  0  0  0
 41 58  1  1  0  0  0
 44 40  1  0  0  0  0
 45 43  1  6  0  0  0
 45 41  1  0  0  0  0
 45 44  1  0  0  0  0
 46 40  1  0  0  0  0
 46 47  1  0  0  0  0
 47 55  1  6  0  0  0
 47 48  1  0  0  0  0
 48 51  1  0  0  0  0
 49 48  2  0  0  0  0
 50 53  1  0  0  0  0
 51 50  2  0  0  0  0
 53 52  1  1  0  0  0
 53 54  1  0  0  0  0
 55 56  1  0  0  0  0
 56 57  1  0  0  0  0
 58 60  1  0  0  0  0
 60 59  1  1  0  0  0
 60 61  1  0  0  0  0
 62 61  1  1  0  0  0
 62 63  1  0  0  0  0
 62 65  1  0  0  0  0
 63 64  1  0  0  0  0
 66 65  2  0  0  0  0
M  END
>  <MODEL>
8

>  <REMARK>
 VINA RESULT:      -1.2      3.168      7.058
  Name = 
  29 active torsions:
  status: ('A' for Active; 'I' for Inactive)
    1  A    between atoms: C_1  and  C_26
    2  A    between atoms: N_2  and  C_30
    3  A    between atoms: N_2  and  C_40
    4  A    between atoms: C_3  and  O_20
    5  A    between atoms: C_3  and  C_66
    6  A    between atoms: C_5  and  C_66
    7  A    between atoms: C_6  and  C_10
    8  A    between atoms: C_7  and  C_13
    9  A    between atoms: C_7  and  C_32
   10  A    between atoms: C_7  and  C_54
   11  A    between atoms: C_9  and  C_25
   12  A    between atoms: C_10  and  C_38
   13  A    between atoms: C_10  and  C_61
   14  A    between atoms: C_12  and  O_15
   15  A    between atoms: C_12  and  C_57
   16  A    between atoms: C_13  and  C_42
   17  A    between atoms: C_14  and  C_39
   18  A    between atoms: O_15  and  C_59
   19  A    between atoms: C_16  and  N_17
   20  A    between atoms: O_20  and  C_26
   21  A    between atoms: C_21  and  C_23
   22  A    between atoms: C_25  and  C_65
   23  A    between atoms: N_27  and  C_40
   24  A    between atoms: C_29  and  C_54
   25  A    between atoms: C_31  and  C_32
   26  A    between atoms: C_35  and  S_37
   27  A    between atoms: S_37  and  C_56
   28  A    between atoms: C_40  and  C_65
   29  A    between atoms: C_56  and  C_61
                            x       y       z     vdW  Elec       q    Type
                         _______ _______ _______ _____ _____    ______ ____

>  <TORSDO>
F 29

$$$$
=
 OpenBabel11062411043D

 66 70  0  0  1  0  0  0  0  0999 V2000
  190.8790  178.1230  141.8920 N   0  0  0  0  0  0  0  0  0  0  0  0
  190.5970  177.4570  139.7980 N   0  0  0  0  0  0  0  0  0  0  0  0
  190.0030  177.9640  140.8870 C   0  0  0  0  0  0  0  0  0  0  0  0
  192.0390  177.6730  141.3540 C   0  0  0  0  0  3  0  0  0  0  0  0
  191.8700  177.2630  140.0770 N   0  0  0  0  0  0  0  0  0  0  0  0
  188.5030  177.3480  138.4450 C   0  0  0  0  0  2  0  0  0  0  0  0
  189.9910  177.1240  138.5410 C   0  0  0  0  0  0  0  0  0  0  0  0
  187.7440  177.1790  136.7910 S   0  0  0  0  0  0  0  0  0  0  0  0
  188.6560  175.6660  136.4220 C   0  0  2  0  0  3  0  0  0  0  0  0
  190.9340  174.9400  135.6030 C   0  0  0  0  0  1  0  0  0  0  0  0
  190.7100  176.4530  137.6140 C   0  0  0  0  0  0  0  0  0  0  0  0
  190.1270  176.0500  136.2740 C   0  0  2  0  0  3  0  0  0  0  0  0
  192.1090  176.0400  137.9460 C   0  0  0  0  0  1  0  0  0  0  0  0
  188.1350  175.0770  135.1930 N   0  0  0  0  0  2  0  0  0  0  0  0
  188.1270  173.6260  135.3580 C   0  0  1  0  0  3  0  0  0  0  0  0
  188.2090  173.2850  136.7770 N   0  0  0  0  0  0  0  0  0  0  0  0
  188.2250  170.9310  136.3960 N   0  0  0  0  0  1  0  0  0  0  0  0
  188.2690  172.0690  137.2490 C   0  0  0  0  0  3  0  0  0  0  0  0
  186.8500  173.0180  134.7650 C   0  0  0  0  0  2  0  0  0  0  0  0
  185.6890  173.0410  135.7590 C   0  0  0  0  0  2  0  0  0  0  0  0
  182.3900  170.9850  135.3760 C   0  0  0  0  0  2  0  0  0  0  0  0
  184.7660  171.8520  135.5320 C   0  0  1  0  0  3  0  0  0  0  0  0
  184.9740  170.7620  136.5820 C   0  0  0  0  0  2  0  0  0  0  0  0
  183.2800  172.2360  135.3840 C   0  0  2  0  0  3  0  0  0  0  0  0
  183.1420  169.8040  135.2930 O   0  0  0  0  0  0  0  0  0  0  0  0
  183.8560  169.7050  136.5010 C   0  0  0  0  0  2  0  0  0  0  0  0
  182.1250  174.2790  136.3040 C   0  0  0  0  0  0  0  0  0  0  0  0
  182.8140  173.1440  136.4790 C   0  0  0  0  0  3  0  0  0  0  0  0
  182.6480  174.9720  138.5080 O   0  0  0  0  0  1  0  0  0  0  0  0
  181.6320  174.9710  137.5380 C   0  0  2  0  0  3  0  0  0  0  0  0
  180.3010  174.3790  138.0420 C   0  0  0  0  0  3  0  0  0  0  0  0
  179.2410  175.4470  138.2510 C   0  0  0  0  0  2  0  0  0  0  0  0
  179.9640  174.8620  139.4460 C   0  0  0  0  0  2  0  0  0  0  0  0
  181.8010  174.8200  135.0460 O   0  0  0  0  0  0  0  0  0  0  0  0
  181.8190  176.2140  134.7490 C   0  0  0  0  0  2  0  0  0  0  0  0
  182.9010  176.8950  135.5580 C   0  0  0  0  0  2  0  0  0  0  0  0
  184.0160  177.0830  134.7680 F   0  0  0  0  0  0  0  0  0  0  0  0
  188.5480  178.2640  140.9980 C   0  0  0  0  0  2  0  0  0  0  0  0
  187.9330  177.3400  141.8610 O   0  0  0  0  0  0  0  0  0  0  0  0
  188.3450  178.0710  144.9540 C   0  0  0  0  0  0  0  0  0  0  0  0
  186.1300  177.2520  143.4370 C   0  0  2  0  0  3  0  0  0  0  0  0
  188.5520  179.1000  145.6480 O   0  0  0  0  0  0  0  0  0  0  0  0
  186.5020  179.2750  142.1570 O   0  0  0  0  0  1  0  0  0  0  0  0
  187.2680  178.0360  144.0260 N   0  0  0  0  0  0  0  0  0  0  0  0
  186.9110  177.9990  142.5840 C   0  0  2  0  0  0  0  0  0  0  0  0
  189.2510  176.8880  145.0670 C   0  0  0  0  0  2  0  0  0  0  0  0
  190.6680  177.2510  145.5360 C   0  0  1  0  0  3  0  0  0  0  0  0
  190.9040  176.8910  146.9700 C   0  0  0  0  0  0  0  0  0  0  0  0
  190.9920  175.6750  147.2770 O   0  0  0  0  0  0  0  0  0  0  0  0
  190.1050  178.3440  148.8630 C   0  0  0  0  0  3  0  0  0  0  0  0
  191.0420  177.9570  147.9920 C   0  0  0  0  0  3  0  0  0  0  0  0
  187.7110  178.7870  148.4700 C   0  0  0  0  0  1  0  0  0  0  0  0
  188.7290  177.7700  148.9450 C   0  0  1  0  0  3  0  0  0  0  0  0
  188.6540  176.6290  148.1490 O   0  0  0  0  0  1  0  0  0  0  0  0
  191.6750  176.5360  144.6610 C   0  0  0  0  0  2  0  0  0  0  0  0
  191.2530  175.0910  144.4650 C   0  0  0  0  0  2  0  0  0  0  0  0
  190.6500  174.9520  143.2160 O   0  0  0  0  0  1  0  0  0  0  0  0
  184.4820  178.0430  143.6810 S   0  0  0  0  0  0  0  0  0  0  0  0
  182.3730  177.7160  142.0720 O   0  0  0  0  0  1  0  0  0  0  0  0
  183.7560  177.8250  142.0210 C   0  0  1  0  0  3  0  0  0  0  0  0
  184.1970  178.8920  141.0310 C   0  0  0  0  0  2  0  0  0  0  0  0
  183.3880  178.7960  139.7420 C   0  0  1  0  0  3  0  0  0  0  0  0
  183.1170  180.1930  139.2020 C   0  0  0  0  0  2  0  0  0  0  0  0
  181.8140  180.5830  139.5040 O   0  0  0  0  0  1  0  0  0  0  0  0
  184.1430  178.0000  138.7370 C   0  0  0  0  0  3  0  0  0  0  0  0
  185.0830  178.4870  138.1360 O   0  0  0  0  0  0  0  0  0  0  0  0
  2  5  1  0  0  0  0
  2  3  1  0  0  0  0
  3 38  1  0  0  0  0
  3  1  2  0  0  0  0
  4  1  1  0  0  0  0
  5  4  2  0  0  0  0
  6  7  1  0  0  0  0
  7  2  1  0  0  0  0
  8  6  1  0  0  0  0
  9 14  1  6  0  0  0
  9  8  1  0  0  0  0
 11 13  1  0  0  0  0
 11  7  2  0  0  0  0
 12 10  1  1  0  0  0
 12  9  1  0  0  0  0
 12 11  1  0  0  0  0
 14 15  1  0  0  0  0
 15 19  1  1  0  0  0
 15 16  1  0  0  0  0
 16 18  2  0  0  0  0
 17 18  1  0  0  0  0
 19 20  1  0  0  0  0
 21 24  1  0  0  0  0
 22 20  1  1  0  0  0
 22 23  1  0  0  0  0
 24 22  1  0  0  0  0
 24 28  1  1  0  0  0
 25 21  1  0  0  0  0
 25 26  1  0  0  0  0
 26 23  1  0  0  0  0
 27 28  2  0  0  0  0
 27 30  1  0  0  0  0
 30 31  1  0  0  0  0
 30 29  1  1  0  0  0
 31 32  1  0  0  0  0
 31 33  1  0  0  0  0
 32 33  1  0  0  0  0
 34 27  1  0  0  0  0
 35 34  1  0  0  0  0
 35 36  1  0  0  0  0
 37 36  1  0  0  0  0
 38 39  1  0  0  0  0
 39 45  1  0  0  0  0
 40 46  1  0  0  0  0
 40 42  2  0  0  0  0
 41 58  1  1  0  0  0
 41 44  1  0  0  0  0
 44 40  1  0  0  0  0
 45 43  1  6  0  0  0
 45 41  1  0  0  0  0
 45 44  1  0  0  0  0
 46 47  1  0  0  0  0
 47 55  1  6  0  0  0
 47 48  1  0  0  0  0
 48 49  2  0  0  0  0
 48 51  1  0  0  0  0
 50 53  1  0  0  0  0
 51 50  2  0  0  0  0
 53 52  1  6  0  0  0
 54 53  1  0  0  0  0
 56 55  1  0  0  0  0
 57 56  1  0  0  0  0
 60 59  1  1  0  0  0
 60 58  1  0  0  0  0
 61 60  1  0  0  0  0
 62 65  1  6  0  0  0
 62 61  1  0  0  0  0
 63 64  1  0  0  0  0
 63 62  1  0  0  0  0
 66 65  2  0  0  0  0
M  END
>  <MODEL>
9

>  <REMARK>
 VINA RESULT:      -1.1      3.127      8.369
  Name = 
  29 active torsions:
  status: ('A' for Active; 'I' for Inactive)
    1  A    between atoms: C_1  and  C_26
    2  A    between atoms: N_2  and  C_30
    3  A    between atoms: N_2  and  C_40
    4  A    between atoms: C_3  and  O_20
    5  A    between atoms: C_3  and  C_66
    6  A    between atoms: C_5  and  C_66
    7  A    between atoms: C_6  and  C_10
    8  A    between atoms: C_7  and  C_13
    9  A    between atoms: C_7  and  C_32
   10  A    between atoms: C_7  and  C_54
   11  A    between atoms: C_9  and  C_25
   12  A    between atoms: C_10  and  C_38
   13  A    between atoms: C_10  and  C_61
   14  A    between atoms: C_12  and  O_15
   15  A    between atoms: C_12  and  C_57
   16  A    between atoms: C_13  and  C_42
   17  A    between atoms: C_14  and  C_39
   18  A    between atoms: O_15  and  C_59
   19  A    between atoms: C_16  and  N_17
   20  A    between atoms: O_20  and  C_26
   21  A    between atoms: C_21  and  C_23
   22  A    between atoms: C_25  and  C_65
   23  A    between atoms: N_27  and  C_40
   24  A    between atoms: C_29  and  C_54
   25  A    between atoms: C_31  and  C_32
   26  A    between atoms: C_35  and  S_37
   27  A    between atoms: S_37  and  C_56
   28  A    between atoms: C_40  and  C_65
   29  A    between atoms: C_56  and  C_61
                            x       y       z     vdW  Elec       q    Type
                         _______ _______ _______ _____ _____    ______ ____

>  <TORSDO>
F 29

$$$$
