=
 OpenBabel11062416593D

 26 28  0  0  0  0  0  0  0  0999 V2000
  190.5860  177.0460  138.9510 C   0  0  0  0  0  0  0  0  0  0  0  0
  190.3020  176.7030  143.7770 N   0  0  0  0  0  2  0  0  0  0  0  0
  188.6470  177.6420  141.9890 C   0  0  0  0  0  2  0  0  0  0  0  0
  188.0380  178.1430  139.5060 C   0  0  0  0  0  0  0  0  0  0  0  0
  190.7600  176.7390  141.4440 N   0  0  0  0  0  0  0  0  0  0  0  0
  188.8710  177.6780  140.5250 C   0  0  0  0  0  0  0  0  0  0  0  0
  191.9260  176.4680  138.6600 C   0  0  0  0  0  1  0  0  0  0  0  0
  188.4990  178.0550  138.1760 C   0  0  0  0  0  0  0  0  0  0  0  0
  189.9550  177.0200  142.4230 C   0  0  0  0  0  0  0  0  0  0  0  0
  187.6580  178.5350  137.0460 C   0  0  0  0  0  1  0  0  0  0  0  0
  190.1030  177.1470  140.2570 C   0  0  0  0  0  0  0  0  0  0  0  0
  186.7880  178.6770  139.8030 O   0  0  0  0  0  1  0  0  0  0  0  0
  189.7700  177.5080  137.9050 C   0  0  0  0  0  3  0  0  0  0  0  0
  190.2380  177.2390  146.1680 C   0  0  0  0  0  0  0  0  0  0  0  0
  187.4470  177.5000  146.0920 C   0  0  0  0  0  0  0  0  0  0  0  0
  191.6210  177.1170  146.2240 O   0  0  0  0  0  1  0  0  0  0  0  0
  188.1370  177.6900  147.2910 C   0  0  0  0  0  3  0  0  0  0  0  0
  189.5570  177.0370  144.9580 C   0  0  0  0  0  0  0  0  0  0  0  0
  188.1620  177.1800  144.9290 C   0  0  0  0  0  3  0  0  0  0  0  0
  189.5290  177.5630  147.3290 C   0  0  0  0  0  3  0  0  0  0  0  0
  186.0540  177.6310  146.0830 O   0  0  0  0  0  0  0  0  0  0  0  0
  185.3920  178.8920  146.1090 C   0  0  0  0  0  2  0  0  0  0  0  0
  184.2760  178.9400  145.0740 C   0  0  0  0  0  2  0  0  0  0  0  0
  184.7790  179.4660  143.7400 C   0  0  0  0  0  2  0  0  0  0  0  0
  184.8830  178.3550  142.7510 C   0  0  0  0  0  3  0  0  0  0  0  0
  183.9290  178.1850  141.8430 C   0  0  0  0  0  2  0  0  0  0  0  0
  1 11  1  0  0  0  0
  2 18  1  0  0  0  0
  3  9  1  0  0  0  0
  4 12  1  0  0  0  0
  4  6  1  0  0  0  0
  5  9  2  0  0  0  0
  6  3  1  0  0  0  0
  7  1  1  0  0  0  0
  8  4  2  0  0  0  0
  9  2  1  0  0  0  0
 10  8  1  0  0  0  0
 11  6  2  0  0  0  0
 11  5  1  0  0  0  0
 13  8  1  0  0  0  0
 13  1  2  0  0  0  0
 14 16  1  0  0  0  0
 14 20  1  0  0  0  0
 15 17  1  0  0  0  0
 17 20  2  0  0  0  0
 18 14  2  0  0  0  0
 19 18  1  0  0  0  0
 19 15  2  0  0  0  0
 21 15  1  0  0  0  0
 21 22  1  0  0  0  0
 23 22  1  0  0  0  0
 24 23  1  0  0  0  0
 25 24  1  0  0  0  0
 26 25  2  0  0  0  0
M  END
>  <MODEL>
1

>  <REMARK>
 VINA RESULT:      -8.8      0.000      0.000
  Name = 
  6 active torsions:
  status: ('A' for Active; 'I' for Inactive)
    1  A    between atoms: C_1  and  C_23
    2  A    between atoms: C_1  and  O_26
    3  A    between atoms: C_2  and  C_6
    4  A    between atoms: N_5  and  C_19
    5  A    between atoms: C_6  and  C_23
    6  A    between atoms: C_7  and  O_26
                            x       y       z     vdW  Elec       q    Type
                         _______ _______ _______ _____ _____    ______ ____

>  <TORSDO>
F 6

$$$$
=
 OpenBabel11062416593D

 26 28  0  0  0  0  0  0  0  0999 V2000
  190.7290  176.6340  146.5560 C   0  0  0  0  0  0  0  0  0  0  0  0
  190.4060  176.8620  141.7250 N   0  0  0  0  0  2  0  0  0  0  0  0
  188.7630  177.5770  143.6240 C   0  0  0  0  0  2  0  0  0  0  0  0
  188.1910  177.8180  146.1540 C   0  0  0  0  0  0  0  0  0  0  0  0
  190.8700  176.5950  144.0420 N   0  0  0  0  0  0  0  0  0  0  0  0
  189.0030  177.4490  145.0810 C   0  0  0  0  0  0  0  0  0  0  0  0
  192.0650  176.0120  146.7650 C   0  0  0  0  0  1  0  0  0  0  0  0
  188.6680  177.5860  147.4610 C   0  0  0  0  0  0  0  0  0  0  0  0
  190.0520  176.9760  143.1090 C   0  0  0  0  0  0  0  0  0  0  0  0
  187.8490  177.9570  148.6470 C   0  0  0  0  0  1  0  0  0  0  0  0
  190.2300  176.8760  145.2740 C   0  0  0  0  0  0  0  0  0  0  0  0
  186.9480  178.4010  145.9320 O   0  0  0  0  0  1  0  0  0  0  0  0
  189.9330  176.9940  147.6560 C   0  0  0  0  0  3  0  0  0  0  0  0
  189.9330  176.6720  139.3280 C   0  0  0  0  0  0  0  0  0  0  0  0
  187.5900  178.1880  139.6130 C   0  0  0  0  0  0  0  0  0  0  0  0
  191.0880  175.9180  139.1670 O   0  0  0  0  0  1  0  0  0  0  0  0
  187.9670  177.7080  138.3580 C   0  0  0  0  0  3  0  0  0  0  0  0
  189.5710  177.1560  140.5950 C   0  0  0  0  0  0  0  0  0  0  0  0
  188.3930  177.9030  140.7280 C   0  0  0  0  0  3  0  0  0  0  0  0
  189.1330  176.9500  138.2150 C   0  0  0  0  0  3  0  0  0  0  0  0
  186.4200  178.9450  139.7280 O   0  0  0  0  0  0  0  0  0  0  0  0
  185.3420  178.5850  140.5870 C   0  0  0  0  0  2  0  0  0  0  0  0
  185.4640  179.2860  141.9330 C   0  0  0  0  0  2  0  0  0  0  0  0
  185.0700  178.3650  143.0750 C   0  0  0  0  0  2  0  0  0  0  0  0
  183.7320  178.7470  143.6110 C   0  0  0  0  0  3  0  0  0  0  0  0
  183.5770  178.9690  144.9110 C   0  0  0  0  0  2  0  0  0  0  0  0
  1  7  1  0  0  0  0
  1 13  1  0  0  0  0
  2  9  1  0  0  0  0
  3  6  1  0  0  0  0
  4  8  1  0  0  0  0
  5 11  1  0  0  0  0
  6 11  1  0  0  0  0
  6  4  2  0  0  0  0
  8 13  2  0  0  0  0
  8 10  1  0  0  0  0
  9  3  1  0  0  0  0
  9  5  2  0  0  0  0
 11  1  2  0  0  0  0
 12  4  1  0  0  0  0
 14 18  1  0  0  0  0
 15 21  1  0  0  0  0
 15 19  1  0  0  0  0
 16 14  1  0  0  0  0
 17 15  2  0  0  0  0
 18 19  2  0  0  0  0
 18  2  1  0  0  0  0
 20 17  1  0  0  0  0
 20 14  2  0  0  0  0
 21 22  1  0  0  0  0
 22 23  1  0  0  0  0
 23 24  1  0  0  0  0
 24 25  1  0  0  0  0
 25 26  2  0  0  0  0
M  END
>  <MODEL>
2

>  <REMARK>
 VINA RESULT:      -8.8      1.426      6.274
  Name = 
  6 active torsions:
  status: ('A' for Active; 'I' for Inactive)
    1  A    between atoms: C_1  and  C_23
    2  A    between atoms: C_1  and  O_26
    3  A    between atoms: C_2  and  C_6
    4  A    between atoms: N_5  and  C_19
    5  A    between atoms: C_6  and  C_23
    6  A    between atoms: C_7  and  O_26
                            x       y       z     vdW  Elec       q    Type
                         _______ _______ _______ _____ _____    ______ ____

>  <TORSDO>
F 6

$$$$
=
 OpenBabel11062416593D

 26 28  0  0  0  0  0  0  0  0999 V2000
  188.6150  177.6780  147.4720 C   0  0  0  0  0  0  0  0  0  0  0  0
  184.8060  178.6250  144.6290 N   0  0  0  0  0  2  0  0  0  0  0  0
  187.1940  177.7080  144.1060 C   0  0  0  0  0  2  0  0  0  0  0  0
  189.5600  176.9620  144.9030 C   0  0  0  0  0  0  0  0  0  0  0  0
  186.4800  178.2820  146.2830 N   0  0  0  0  0  0  0  0  0  0  0  0
  188.2710  177.4620  145.0950 C   0  0  0  0  0  0  0  0  0  0  0  0
  188.1170  178.0540  148.8230 C   0  0  0  0  0  1  0  0  0  0  0  0
  190.3940  176.8200  146.0310 C   0  0  0  0  0  0  0  0  0  0  0  0
  186.1250  178.2390  145.0350 C   0  0  0  0  0  0  0  0  0  0  0  0
  191.7790  176.2930  145.8930 C   0  0  0  0  0  1  0  0  0  0  0  0
  187.8130  177.8080  146.3360 C   0  0  0  0  0  0  0  0  0  0  0  0
  190.0010  176.6150  143.6310 O   0  0  0  0  0  1  0  0  0  0  0  0
  189.9180  177.1780  147.3100 C   0  0  0  0  0  3  0  0  0  0  0  0
  182.9250  178.6790  143.0580 C   0  0  0  0  0  0  0  0  0  0  0  0
  184.6760  178.9300  140.8820 C   0  0  0  0  0  0  0  0  0  0  0  0
  182.0420  178.5580  144.1240 O   0  0  0  0  0  1  0  0  0  0  0  0
  183.2970  178.8850  140.6720 C   0  0  0  0  0  3  0  0  0  0  0  0
  184.3100  178.7140  143.2850 C   0  0  0  0  0  0  0  0  0  0  0  0
  185.1750  178.8500  142.1910 C   0  0  0  0  0  3  0  0  0  0  0  0
  182.4230  178.7630  141.7560 C   0  0  0  0  0  3  0  0  0  0  0  0
  185.5280  179.0500  139.7800 O   0  0  0  0  0  0  0  0  0  0  0  0
  185.3180  178.3530  138.5550 C   0  0  0  0  0  2  0  0  0  0  0  0
  186.6430  178.0500  137.8700 C   0  0  0  0  0  2  0  0  0  0  0  0
  187.7690  177.9040  138.8790 C   0  0  0  0  0  2  0  0  0  0  0  0
  188.9900  178.6140  138.4010 C   0  0  0  0  0  3  0  0  0  0  0  0
  189.0890  178.9790  137.1280 C   0  0  0  0  0  2  0  0  0  0  0  0
  1  7  1  0  0  0  0
  2  9  1  0  0  0  0
  3  9  1  0  0  0  0
  3  6  1  0  0  0  0
  4  6  2  0  0  0  0
  4  8  1  0  0  0  0
  5 11  1  0  0  0  0
  6 11  1  0  0  0  0
  8 13  2  0  0  0  0
  9  5  2  0  0  0  0
 10  8  1  0  0  0  0
 11  1  2  0  0  0  0
 12  4  1  0  0  0  0
 13  1  1  0  0  0  0
 14 18  1  0  0  0  0
 14 16  1  0  0  0  0
 15 19  1  0  0  0  0
 17 15  2  0  0  0  0
 17 20  1  0  0  0  0
 18  2  1  0  0  0  0
 19 18  2  0  0  0  0
 20 14  2  0  0  0  0
 21 15  1  0  0  0  0
 22 21  1  0  0  0  0
 23 22  1  0  0  0  0
 23 24  1  0  0  0  0
 25 24  1  0  0  0  0
 26 25  2  0  0  0  0
M  END
>  <MODEL>
3

>  <REMARK>
 VINA RESULT:      -8.6      2.460      7.258
  Name = 
  6 active torsions:
  status: ('A' for Active; 'I' for Inactive)
    1  A    between atoms: C_1  and  C_23
    2  A    between atoms: C_1  and  O_26
    3  A    between atoms: C_2  and  C_6
    4  A    between atoms: N_5  and  C_19
    5  A    between atoms: C_6  and  C_23
    6  A    between atoms: C_7  and  O_26
                            x       y       z     vdW  Elec       q    Type
                         _______ _______ _______ _____ _____    ______ ____

>  <TORSDO>
F 6

$$$$
=
 OpenBabel11062416593D

 26 28  0  0  0  0  0  0  0  0999 V2000
  188.4010  178.1440  138.4860 C   0  0  0  0  0  0  0  0  0  0  0  0
  185.5390  178.8810  142.3280 N   0  0  0  0  0  2  0  0  0  0  0  0
  187.9420  177.8870  142.1020 C   0  0  0  0  0  2  0  0  0  0  0  0
  189.9910  177.2210  140.6370 C   0  0  0  0  0  0  0  0  0  0  0  0
  186.6770  178.6390  140.2540 N   0  0  0  0  0  0  0  0  0  0  0  0
  188.7060  177.7240  140.8420 C   0  0  0  0  0  0  0  0  0  0  0  0
  187.5630  178.6300  137.3560 C   0  0  0  0  0  1  0  0  0  0  0  0
  190.4880  177.1810  139.3170 C   0  0  0  0  0  0  0  0  0  0  0  0
  186.6670  178.4760  141.5420 C   0  0  0  0  0  0  0  0  0  0  0  0
  191.8510  176.6550  139.0330 C   0  0  0  0  0  1  0  0  0  0  0  0
  187.9350  178.1710  139.8030 C   0  0  0  0  0  0  0  0  0  0  0  0
  190.7550  176.7750  141.7090 O   0  0  0  0  0  1  0  0  0  0  0  0
  189.6910  177.6410  138.2490 C   0  0  0  0  0  3  0  0  0  0  0  0
  184.1200  179.0050  144.3220 C   0  0  0  0  0  0  0  0  0  0  0  0
  186.1770  177.9650  145.9190 C   0  0  0  0  0  0  0  0  0  0  0  0
  183.0880  179.5190  143.5470 O   0  0  0  0  0  1  0  0  0  0  0  0
  184.9480  178.3020  146.4890 C   0  0  0  0  0  3  0  0  0  0  0  0
  185.3530  178.6800  143.7370 C   0  0  0  0  0  0  0  0  0  0  0  0
  186.3710  178.1510  144.5430 C   0  0  0  0  0  3  0  0  0  0  0  0
  183.9210  178.8170  145.6940 C   0  0  0  0  0  3  0  0  0  0  0  0
  187.1880  177.4530  146.7390 O   0  0  0  0  0  0  0  0  0  0  0  0
  187.6770  178.1360  147.8890 C   0  0  0  0  0  2  0  0  0  0  0  0
  189.1590  177.8560  148.0970 C   0  0  0  0  0  2  0  0  0  0  0  0
  189.6370  176.7130  147.2170 C   0  0  0  0  0  2  0  0  0  0  0  0
  190.6600  177.1970  146.2470 C   0  0  0  0  0  3  0  0  0  0  0  0
  190.2800  177.7200  145.0880 C   0  0  0  0  0  2  0  0  0  0  0  0
  1 11  1  0  0  0  0
  2 18  1  0  0  0  0
  4  6  1  0  0  0  0
  4 12  1  0  0  0  0
  5  9  2  0  0  0  0
  6  3  1  0  0  0  0
  7  1  1  0  0  0  0
  8  4  2  0  0  0  0
  9  3  1  0  0  0  0
  9  2  1  0  0  0  0
 10  8  1  0  0  0  0
 11  5  1  0  0  0  0
 11  6  2  0  0  0  0
 13  1  2  0  0  0  0
 13  8  1  0  0  0  0
 14 20  1  0  0  0  0
 15 17  1  0  0  0  0
 15 21  1  0  0  0  0
 16 14  1  0  0  0  0
 18 14  2  0  0  0  0
 18 19  1  0  0  0  0
 19 15  2  0  0  0  0
 20 17  2  0  0  0  0
 21 22  1  0  0  0  0
 22 23  1  0  0  0  0
 24 23  1  0  0  0  0
 25 24  1  0  0  0  0
 26 25  2  0  0  0  0
M  END
>  <MODEL>
4

>  <REMARK>
 VINA RESULT:      -8.4      2.138      4.616
  Name = 
  6 active torsions:
  status: ('A' for Active; 'I' for Inactive)
    1  A    between atoms: C_1  and  C_23
    2  A    between atoms: C_1  and  O_26
    3  A    between atoms: C_2  and  C_6
    4  A    between atoms: N_5  and  C_19
    5  A    between atoms: C_6  and  C_23
    6  A    between atoms: C_7  and  O_26
                            x       y       z     vdW  Elec       q    Type
                         _______ _______ _______ _____ _____    ______ ____

>  <TORSDO>
F 6

$$$$
=
 OpenBabel11062416593D

 26 28  0  0  0  0  0  0  0  0999 V2000
  190.7050  176.7130  146.3660 C   0  0  0  0  0  0  0  0  0  0  0  0
  190.7320  177.0550  141.5310 N   0  0  0  0  0  2  0  0  0  0  0  0
  188.9360  177.6820  143.3190 C   0  0  0  0  0  2  0  0  0  0  0  0
  188.1740  177.8450  145.8050 C   0  0  0  0  0  0  0  0  0  0  0  0
  191.0320  176.7410  143.8690 N   0  0  0  0  0  0  0  0  0  0  0  0
  189.0720  177.5230  144.7870 C   0  0  0  0  0  0  0  0  0  0  0  0
  192.0380  176.1190  146.6590 C   0  0  0  0  0  1  0  0  0  0  0  0
  188.5590  177.5910  147.1380 C   0  0  0  0  0  0  0  0  0  0  0  0
  190.2740  177.1260  142.8880 C   0  0  0  0  0  0  0  0  0  0  0  0
  187.6460  177.9120  148.2690 C   0  0  0  0  0  1  0  0  0  0  0  0
  190.2960  176.9750  145.0560 C   0  0  0  0  0  0  0  0  0  0  0  0
  186.9360  178.4030  145.5060 O   0  0  0  0  0  1  0  0  0  0  0  0
  189.8220  177.0260  147.4120 C   0  0  0  0  0  3  0  0  0  0  0  0
  190.5560  177.1510  139.0880 C   0  0  0  0  0  0  0  0  0  0  0  0
  187.9360  178.1370  139.2600 C   0  0  0  0  0  0  0  0  0  0  0  0
  191.8520  176.6610  138.9830 O   0  0  0  0  0  1  0  0  0  0  0  0
  188.5300  177.9350  138.0130 C   0  0  0  0  0  3  0  0  0  0  0  0
  189.9760  177.3570  140.3490 C   0  0  0  0  0  0  0  0  0  0  0  0
  188.6620  177.8400  140.4230 C   0  0  0  0  0  3  0  0  0  0  0  0
  189.8350  177.4410  137.9260 C   0  0  0  0  0  3  0  0  0  0  0  0
  186.6310  178.6340  139.3180 O   0  0  0  0  0  0  0  0  0  0  0  0
  185.6120  178.2530  138.3980 C   0  0  0  0  0  2  0  0  0  0  0  0
  184.2370  178.3350  139.0470 C   0  0  0  0  0  2  0  0  0  0  0  0
  184.2940  179.0680  140.3770 C   0  0  0  0  0  2  0  0  0  0  0  0
  184.1030  178.1120  141.5050 C   0  0  0  0  0  3  0  0  0  0  0  0
  184.8130  178.2500  142.6190 C   0  0  0  0  0  2  0  0  0  0  0  0
  1  7  1  0  0  0  0
  1 13  1  0  0  0  0
  2  9  1  0  0  0  0
  3  6  1  0  0  0  0
  4  8  1  0  0  0  0
  5 11  1  0  0  0  0
  6 11  1  0  0  0  0
  6  4  2  0  0  0  0
  8 13  2  0  0  0  0
  8 10  1  0  0  0  0
  9  3  1  0  0  0  0
  9  5  2  0  0  0  0
 11  1  2  0  0  0  0
 12  4  1  0  0  0  0
 14 18  1  0  0  0  0
 15 21  1  0  0  0  0
 15 19  1  0  0  0  0
 16 14  1  0  0  0  0
 17 15  2  0  0  0  0
 18 19  2  0  0  0  0
 18  2  1  0  0  0  0
 20 17  1  0  0  0  0
 20 14  2  0  0  0  0
 22 23  1  0  0  0  0
 22 21  1  0  0  0  0
 23 24  1  0  0  0  0
 24 25  1  0  0  0  0
 25 26  2  0  0  0  0
M  END
>  <MODEL>
5

>  <REMARK>
 VINA RESULT:      -8.3      1.540      6.417
  Name = 
  6 active torsions:
  status: ('A' for Active; 'I' for Inactive)
    1  A    between atoms: C_1  and  C_23
    2  A    between atoms: C_1  and  O_26
    3  A    between atoms: C_2  and  C_6
    4  A    between atoms: N_5  and  C_19
    5  A    between atoms: C_6  and  C_23
    6  A    between atoms: C_7  and  O_26
                            x       y       z     vdW  Elec       q    Type
                         _______ _______ _______ _____ _____    ______ ____

>  <TORSDO>
F 6

$$$$
=
 OpenBabel11062416593D

 26 28  0  0  0  0  0  0  0  0999 V2000
  189.1200  178.0980  138.7700 C   0  0  0  0  0  0  0  0  0  0  0  0
  184.9060  179.0020  140.9890 N   0  0  0  0  0  2  0  0  0  0  0  0
  187.2440  178.2790  141.9000 C   0  0  0  0  0  2  0  0  0  0  0  0
  189.7440  177.6700  141.4970 C   0  0  0  0  0  0  0  0  0  0  0  0
  186.8020  178.6180  139.6050 N   0  0  0  0  0  0  0  0  0  0  0  0
  188.4620  178.0400  141.0900 C   0  0  0  0  0  0  0  0  0  0  0  0
  188.7900  178.3240  137.3370 C   0  0  0  0  0  1  0  0  0  0  0  0
  190.7370  177.5110  140.5070 C   0  0  0  0  0  0  0  0  0  0  0  0
  186.2770  178.6310  140.7920 C   0  0  0  0  0  0  0  0  0  0  0  0
  192.1240  177.1180  140.8760 C   0  0  0  0  0  1  0  0  0  0  0  0
  188.1580  178.2470  139.7720 C   0  0  0  0  0  0  0  0  0  0  0  0
  190.0290  177.4680  142.8430 O   0  0  0  0  0  1  0  0  0  0  0  0
  190.4200  177.7250  139.1490 C   0  0  0  0  0  3  0  0  0  0  0  0
  182.7890  178.7480  142.1970 C   0  0  0  0  0  0  0  0  0  0  0  0
  184.0830  179.1200  144.6570 C   0  0  0  0  0  0  0  0  0  0  0  0
  182.1310  178.5600  140.9880 O   0  0  0  0  0  1  0  0  0  0  0  0
  182.7040  178.9060  144.6150 C   0  0  0  0  0  3  0  0  0  0  0  0
  184.1740  178.9720  142.2230 C   0  0  0  0  0  0  0  0  0  0  0  0
  184.8130  179.1450  143.4590 C   0  0  0  0  0  3  0  0  0  0  0  0
  182.0590  178.7180  143.3890 C   0  0  0  0  0  3  0  0  0  0  0  0
  184.7040  179.3070  145.8960 O   0  0  0  0  0  0  0  0  0  0  0  0
  185.2430  178.2370  146.6660 C   0  0  0  0  0  2  0  0  0  0  0  0
  186.7360  178.4290  146.8920 C   0  0  0  0  0  2  0  0  0  0  0  0
  187.5450  177.9380  145.7030 C   0  0  0  0  0  2  0  0  0  0  0  0
  188.7200  177.1460  146.1660 C   0  0  0  0  0  3  0  0  0  0  0  0
  189.2190  177.3480  147.3800 C   0  0  0  0  0  2  0  0  0  0  0  0
  1 13  2  0  0  0  0
  1 11  1  0  0  0  0
  2 18  1  0  0  0  0
  4 12  1  0  0  0  0
  5 11  1  0  0  0  0
  5  9  2  0  0  0  0
  6  4  1  0  0  0  0
  6  3  1  0  0  0  0
  7  1  1  0  0  0  0
  8 10  1  0  0  0  0
  8  4  2  0  0  0  0
  9  2  1  0  0  0  0
  9  3  1  0  0  0  0
 11  6  2  0  0  0  0
 13  8  1  0  0  0  0
 14 18  2  0  0  0  0
 14 20  1  0  0  0  0
 15 21  1  0  0  0  0
 16 14  1  0  0  0  0
 17 15  1  0  0  0  0
 18 19  1  0  0  0  0
 19 15  2  0  0  0  0
 20 17  2  0  0  0  0
 21 22  1  0  0  0  0
 22 23  1  0  0  0  0
 24 25  1  0  0  0  0
 24 23  1  0  0  0  0
 25 26  2  0  0  0  0
M  END
>  <MODEL>
6

>  <REMARK>
 VINA RESULT:      -8.1      2.300      5.118
  Name = 
  6 active torsions:
  status: ('A' for Active; 'I' for Inactive)
    1  A    between atoms: C_1  and  C_23
    2  A    between atoms: C_1  and  O_26
    3  A    between atoms: C_2  and  C_6
    4  A    between atoms: N_5  and  C_19
    5  A    between atoms: C_6  and  C_23
    6  A    between atoms: C_7  and  O_26
                            x       y       z     vdW  Elec       q    Type
                         _______ _______ _______ _____ _____    ______ ____

>  <TORSDO>
F 6

$$$$
=
 OpenBabel11062416593D

 26 28  0  0  0  0  0  0  0  0999 V2000
  183.5160  178.6820  143.1840 C   0  0  0  0  0  0  0  0  0  0  0  0
  187.3120  177.6870  146.0290 N   0  0  0  0  0  2  0  0  0  0  0  0
  187.1120  178.0980  143.4590 C   0  0  0  0  0  2  0  0  0  0  0  0
  185.6760  178.6480  141.3560 C   0  0  0  0  0  0  0  0  0  0  0  0
  185.2580  178.1450  144.9210 N   0  0  0  0  0  0  0  0  0  0  0  0
  185.8660  178.4010  142.7160 C   0  0  0  0  0  0  0  0  0  0  0  0
  182.3810  178.7010  144.1470 C   0  0  0  0  0  1  0  0  0  0  0  0
  184.3670  178.9180  140.9050 C   0  0  0  0  0  0  0  0  0  0  0  0
  186.5410  177.9560  144.8510 C   0  0  0  0  0  0  0  0  0  0  0  0
  184.0980  179.1900  139.4660 C   0  0  0  0  0  1  0  0  0  0  0  0
  184.8220  178.4170  143.6010 C   0  0  0  0  0  0  0  0  0  0  0  0
  186.7520  178.6280  140.4770 O   0  0  0  0  0  1  0  0  0  0  0  0
  183.2940  178.9340  141.8200 C   0  0  0  0  0  3  0  0  0  0  0  0
  189.3600  177.3550  147.3330 C   0  0  0  0  0  0  0  0  0  0  0  0
  190.8090  176.7530  145.0080 C   0  0  0  0  0  0  0  0  0  0  0  0
  188.6590  177.6480  148.4960 O   0  0  0  0  0  1  0  0  0  0  0  0
  191.4450  176.7520  146.2520 C   0  0  0  0  0  3  0  0  0  0  0  0
  188.7110  177.3690  146.0890 C   0  0  0  0  0  0  0  0  0  0  0  0
  189.4420  177.0560  144.9350 C   0  0  0  0  0  3  0  0  0  0  0  0
  190.7230  177.0490  147.4110 C   0  0  0  0  0  3  0  0  0  0  0  0
  191.5560  176.4550  143.8640 O   0  0  0  0  0  0  0  0  0  0  0  0
  190.9630  176.1850  142.5970 C   0  0  0  0  0  2  0  0  0  0  0  0
  191.0130  177.4150  141.7020 C   0  0  0  0  0  2  0  0  0  0  0  0
  189.7880  177.5020  140.8080 C   0  0  0  0  0  2  0  0  0  0  0  0
  190.1790  177.3610  139.3760 C   0  0  0  0  0  3  0  0  0  0  0  0
  191.3140  176.7520  139.0560 C   0  0  0  0  0  2  0  0  0  0  0  0
  1 11  1  0  0  0  0
  1  7  1  0  0  0  0
  2 18  1  0  0  0  0
  3  9  1  0  0  0  0
  4  6  1  0  0  0  0
  6  3  1  0  0  0  0
  6 11  2  0  0  0  0
  8  4  2  0  0  0  0
  8 13  1  0  0  0  0
  9  5  2  0  0  0  0
  9  2  1  0  0  0  0
 10  8  1  0  0  0  0
 11  5  1  0  0  0  0
 12  4  1  0  0  0  0
 13  1  2  0  0  0  0
 14 20  1  0  0  0  0
 14 16  1  0  0  0  0
 15 17  1  0  0  0  0
 17 20  2  0  0  0  0
 18 14  2  0  0  0  0
 19 15  2  0  0  0  0
 19 18  1  0  0  0  0
 21 15  1  0  0  0  0
 22 21  1  0  0  0  0
 23 22  1  0  0  0  0
 24 23  1  0  0  0  0
 25 24  1  0  0  0  0
 26 25  2  0  0  0  0
M  END
>  <MODEL>
7

>  <REMARK>
 VINA RESULT:      -7.9      2.115      5.491
  Name = 
  6 active torsions:
  status: ('A' for Active; 'I' for Inactive)
    1  A    between atoms: C_1  and  C_23
    2  A    between atoms: C_1  and  O_26
    3  A    between atoms: C_2  and  C_6
    4  A    between atoms: N_5  and  C_19
    5  A    between atoms: C_6  and  C_23
    6  A    between atoms: C_7  and  O_26
                            x       y       z     vdW  Elec       q    Type
                         _______ _______ _______ _____ _____    ______ ____

>  <TORSDO>
F 6

$$$$
=
 OpenBabel11062416593D

 26 28  0  0  0  0  0  0  0  0999 V2000
  187.8360  177.8480  146.5470 C   0  0  0  0  0  0  0  0  0  0  0  0
  184.4580  178.5670  143.1460 N   0  0  0  0  0  2  0  0  0  0  0  0
  186.9560  177.8230  143.0010 C   0  0  0  0  0  2  0  0  0  0  0  0
  189.2150  177.2300  144.1560 C   0  0  0  0  0  0  0  0  0  0  0  0
  185.8740  178.3200  145.0400 N   0  0  0  0  0  0  0  0  0  0  0  0
  187.8810  177.6380  144.1450 C   0  0  0  0  0  0  0  0  0  0  0  0
  187.1080  178.1730  147.8040 C   0  0  0  0  0  1  0  0  0  0  0  0
  189.8710  177.1320  145.4000 C   0  0  0  0  0  0  0  0  0  0  0  0
  185.7220  178.2670  143.7520 C   0  0  0  0  0  0  0  0  0  0  0  0
  191.2950  176.7020  145.4790 C   0  0  0  0  0  1  0  0  0  0  0  0
  187.2120  177.9370  145.3000 C   0  0  0  0  0  0  0  0  0  0  0  0
  189.8720  176.9290  142.9680 O   0  0  0  0  0  1  0  0  0  0  0  0
  189.1790  177.4410  146.5890 C   0  0  0  0  0  3  0  0  0  0  0  0
  182.8370  178.6220  141.3090 C   0  0  0  0  0  0  0  0  0  0  0  0
  184.9000  178.8020  139.4180 C   0  0  0  0  0  0  0  0  0  0  0  0
  181.8010  178.5350  142.2300 O   0  0  0  0  0  1  0  0  0  0  0  0
  183.5680  178.7760  139.0030 C   0  0  0  0  0  3  0  0  0  0  0  0
  184.1720  178.6380  141.7410 C   0  0  0  0  0  0  0  0  0  0  0  0
  185.1950  178.7400  140.7880 C   0  0  0  0  0  3  0  0  0  0  0  0
  182.5380  178.6880  139.9440 C   0  0  0  0  0  3  0  0  0  0  0  0
  185.9110  178.8880  138.4550 O   0  0  0  0  0  0  0  0  0  0  0  0
  186.2420  177.8150  137.5790 C   0  0  0  0  0  2  0  0  0  0  0  0
  187.5780  177.1940  137.9640 C   0  0  0  0  0  2  0  0  0  0  0  0
  188.5860  178.2540  138.3720 C   0  0  0  0  0  2  0  0  0  0  0  0
  189.2720  177.8580  139.6360 C   0  0  0  0  0  3  0  0  0  0  0  0
  190.5160  177.3950  139.5980 C   0  0  0  0  0  2  0  0  0  0  0  0
  1 13  1  0  0  0  0
  1  7  1  0  0  0  0
  2  9  1  0  0  0  0
  3  9  1  0  0  0  0
  3  6  1  0  0  0  0
  4  8  1  0  0  0  0
  5 11  1  0  0  0  0
  6  4  2  0  0  0  0
  6 11  1  0  0  0  0
  8 10  1  0  0  0  0
  8 13  2  0  0  0  0
  9  5  2  0  0  0  0
 11  1  2  0  0  0  0
 12  4  1  0  0  0  0
 14 18  1  0  0  0  0
 14 16  1  0  0  0  0
 15 19  1  0  0  0  0
 17 15  2  0  0  0  0
 17 20  1  0  0  0  0
 18  2  1  0  0  0  0
 19 18  2  0  0  0  0
 20 14  2  0  0  0  0
 21 15  1  0  0  0  0
 22 23  1  0  0  0  0
 22 21  1  0  0  0  0
 23 24  1  0  0  0  0
 24 25  1  0  0  0  0
 26 25  2  0  0  0  0
M  END
>  <MODEL>
8

>  <REMARK>
 VINA RESULT:      -7.9      2.439      7.407
  Name = 
  6 active torsions:
  status: ('A' for Active; 'I' for Inactive)
    1  A    between atoms: C_1  and  C_23
    2  A    between atoms: C_1  and  O_26
    3  A    between atoms: C_2  and  C_6
    4  A    between atoms: N_5  and  C_19
    5  A    between atoms: C_6  and  C_23
    6  A    between atoms: C_7  and  O_26
                            x       y       z     vdW  Elec       q    Type
                         _______ _______ _______ _____ _____    ______ ____

>  <TORSDO>
F 6

$$$$
=
 OpenBabel11062416593D

 26 28  0  0  0  0  0  0  0  0999 V2000
  185.6400  178.2520  138.5030 C   0  0  0  0  0  0  0  0  0  0  0  0
  185.0770  178.2990  143.3170 N   0  0  0  0  0  2  0  0  0  0  0  0
  187.2050  178.2580  141.8040 C   0  0  0  0  0  2  0  0  0  0  0  0
  188.3080  178.2450  139.4440 C   0  0  0  0  0  0  0  0  0  0  0  0
  185.0070  178.2650  140.9400 N   0  0  0  0  0  0  0  0  0  0  0  0
  187.2230  178.2500  140.3220 C   0  0  0  0  0  0  0  0  0  0  0  0
  184.2360  178.2570  138.0090 C   0  0  0  0  0  1  0  0  0  0  0  0
  188.0430  178.2430  138.0590 C   0  0  0  0  0  0  0  0  0  0  0  0
  185.7100  178.2580  142.0310 C   0  0  0  0  0  0  0  0  0  0  0  0
  189.1570  178.2370  137.0710 C   0  0  0  0  0  1  0  0  0  0  0  0
  185.9330  178.2540  139.8690 C   0  0  0  0  0  0  0  0  0  0  0  0
  189.6110  178.2440  139.9300 O   0  0  0  0  0  1  0  0  0  0  0  0
  186.7120  178.2460  137.5950 C   0  0  0  0  0  3  0  0  0  0  0  0
  185.0860  178.7460  145.7270 C   0  0  0  0  0  0  0  0  0  0  0  0
  187.5800  177.4940  146.0060 C   0  0  0  0  0  0  0  0  0  0  0  0
  183.8500  179.3680  145.6080 O   0  0  0  0  0  1  0  0  0  0  0  0
  186.9420  178.0440  147.1190 C   0  0  0  0  0  3  0  0  0  0  0  0
  185.7200  178.2050  144.5970 C   0  0  0  0  0  0  0  0  0  0  0  0
  186.9610  177.5720  144.7500 C   0  0  0  0  0  3  0  0  0  0  0  0
  185.6980  178.6660  146.9820 C   0  0  0  0  0  3  0  0  0  0  0  0
  188.8250  176.8790  146.1720 O   0  0  0  0  0  0  0  0  0  0  0  0
  189.9920  177.5850  146.5840 C   0  0  0  0  0  2  0  0  0  0  0  0
  191.2200  177.0860  145.8360 C   0  0  0  0  0  2  0  0  0  0  0  0
  191.1880  177.5030  144.3750 C   0  0  0  0  0  2  0  0  0  0  0  0
  191.1470  176.3020  143.4930 C   0  0  0  0  0  3  0  0  0  0  0  0
  190.0350  176.0020  142.8320 C   0  0  0  0  0  2  0  0  0  0  0  0
  1 11  1  0  0  0  0
  2 18  1  0  0  0  0
  3  9  1  0  0  0  0
  4 12  1  0  0  0  0
  4  6  1  0  0  0  0
  5  9  2  0  0  0  0
  6  3  1  0  0  0  0
  7  1  1  0  0  0  0
  8  4  2  0  0  0  0
  9  2  1  0  0  0  0
 10  8  1  0  0  0  0
 11  6  2  0  0  0  0
 11  5  1  0  0  0  0
 13  8  1  0  0  0  0
 13  1  2  0  0  0  0
 14 20  1  0  0  0  0
 15 21  1  0  0  0  0
 15 17  1  0  0  0  0
 16 14  1  0  0  0  0
 18 19  1  0  0  0  0
 18 14  2  0  0  0  0
 19 15  2  0  0  0  0
 20 17  2  0  0  0  0
 21 22  1  0  0  0  0
 23 22  1  0  0  0  0
 24 23  1  0  0  0  0
 25 24  1  0  0  0  0
 26 25  2  0  0  0  0
M  END
>  <MODEL>
9

>  <REMARK>
 VINA RESULT:      -7.8      2.323      4.665
  Name = 
  6 active torsions:
  status: ('A' for Active; 'I' for Inactive)
    1  A    between atoms: C_1  and  C_23
    2  A    between atoms: C_1  and  O_26
    3  A    between atoms: C_2  and  C_6
    4  A    between atoms: N_5  and  C_19
    5  A    between atoms: C_6  and  C_23
    6  A    between atoms: C_7  and  O_26
                            x       y       z     vdW  Elec       q    Type
                         _______ _______ _______ _____ _____    ______ ____

>  <TORSDO>
F 6

$$$$
