=
 OpenBabel11062413153D

 42 43  0  0  1  0  0  0  0  0999 V2000
  188.4730  177.5860  144.5160 C   0  0  0  0  0  3  0  0  0  0  0  0
  189.5150  177.8880  143.7290 C   0  0  0  0  0  0  0  0  0  0  0  0
  188.4740  178.4340  140.1250 C   0  0  0  0  0  3  0  0  0  0  0  0
  189.4660  177.7340  139.4280 C   0  0  0  0  0  0  0  0  0  0  0  0
  188.4920  178.4670  141.5200 C   0  0  0  0  0  3  0  0  0  0  0  0
  190.4540  177.0560  141.5320 C   0  0  0  0  0  3  0  0  0  0  0  0
  190.4420  177.0290  140.1370 C   0  0  0  0  0  3  0  0  0  0  0  0
  189.4960  177.8010  142.2410 C   0  0  0  0  0  0  0  0  0  0  0  0
  189.5140  177.7470  137.9340 C   0  0  0  0  0  2  0  0  0  0  0  0
  190.6550  176.2190  136.4940 O   0  0  0  0  0  1  0  0  0  0  0  0
  189.5510  176.3380  137.3390 C   0  0  2  0  0  3  0  0  0  0  0  0
  188.2650  176.0860  135.3360 O   0  0  0  0  0  0  0  0  0  0  0  0
  188.2980  176.0040  136.5940 C   0  0  0  0  0  0  0  0  0  0  0  0
  187.1330  175.6240  137.3310 N   0  0  0  0  0  2  0  0  0  0  0  0
  185.8150  175.4630  136.7270 C   0  0  2  0  0  3  0  0  0  0  0  0
  186.0070  178.6180  137.8300 O   0  0  0  0  0  0  0  0  0  0  0  0
  185.2690  177.6920  137.4050 C   0  0  0  0  0  0  0  0  0  0  0  0
  184.1720  177.1760  136.4680 N   0  0  0  0  0  2  0  0  0  0  0  0
  184.8150  176.3800  137.4200 C   0  0  1  0  0  3  0  0  0  0  0  0
  185.7670  173.0930  135.9150 O   0  0  0  0  0  0  0  0  0  0  0  0
  184.6390  173.6950  137.8170 O   0  0  0  0  0  1  0  0  0  0  0  0
  185.3540  174.0440  136.8430 C   0  0  0  0  0  0  0  0  0  0  0  0
  187.1200  177.1130  144.0720 C   0  0  0  0  0  2  0  0  0  0  0  0
  185.9490  177.9590  144.5900 C   0  0  2  0  0  3  0  0  0  0  0  0
  185.1480  178.6790  143.4940 C   0  0  2  0  0  3  0  0  0  0  0  0
  183.0530  178.7590  144.5810 O   0  0  0  0  0  0  0  0  0  0  0  0
  183.9470  179.3890  144.0390 C   0  0  0  0  0  3  0  0  0  0  0  0
  184.7570  177.7570  142.5150 O   0  0  0  0  0  0  0  0  0  0  0  0
  184.5280  178.5160  141.3650 C   0  0  0  0  0  2  0  0  0  0  0  0
  183.3950  177.9050  140.5590 C   0  0  0  0  0  2  0  0  0  0  0  0
  181.9870  179.5780  139.6130 O   0  0  0  0  0  0  0  0  0  0  0  0
  182.2140  178.8110  140.5840 C   0  0  0  0  0  0  0  0  0  0  0  0
  181.3410  178.7840  141.6640 O   0  0  0  0  0  1  0  0  0  0  0  0
  186.3210  178.8400  145.7820 C   0  0  0  0  0  2  0  0  0  0  0  0
  186.1690  178.0830  147.0940 C   0  0  0  0  0  2  0  0  0  0  0  0
  188.2640  177.0820  148.0170 C   0  0  0  0  0  1  0  0  0  0  0  0
  187.3670  178.3050  148.0040 C   0  0  0  0  0  2  0  0  0  0  0  0
  190.7820  178.2650  144.4330 C   0  0  0  0  0  2  0  0  0  0  0  0
  190.8890  177.6100  145.6920 O   0  0  0  0  0  0  0  0  0  0  0  0
  191.7150  176.5020  145.8940 C   0  0  0  0  0  0  0  0  0  0  0  0
  192.2470  176.2850  147.0150 O   0  0  0  0  0  0  0  0  0  0  0  0
  191.9500  175.6510  144.8660 F   0  0  0  0  0  0  0  0  0  0  0  0
  2 38  1  0  0  0  0
  2  1  2  0  0  0  0
  3  5  1  0  0  0  0
  4  3  2  0  0  0  0
  4  7  1  0  0  0  0
  5  8  2  0  0  0  0
  6  8  1  0  0  0  0
  7  6  2  0  0  0  0
  8  2  1  0  0  0  0
  9  4  1  0  0  0  0
 11 10  1  6  0  0  0
 11  9  1  0  0  0  0
 12 13  2  0  0  0  0
 13 14  1  0  0  0  0
 13 11  1  0  0  0  0
 15 22  1  1  0  0  0
 15 14  1  0  0  0  0
 17 19  1  0  0  0  0
 17 16  2  0  0  0  0
 18 17  1  0  0  0  0
 18 19  1  0  0  0  0
 19 15  1  6  0  0  0
 20 22  2  0  0  0  0
 22 21  1  0  0  0  0
 23  1  1  0  0  0  0
 24 23  1  6  0  0  0
 24 34  1  0  0  0  0
 25 27  1  1  0  0  0
 25 24  1  0  0  0  0
 27 26  2  0  0  0  0
 28 25  1  0  0  0  0
 29 28  1  0  0  0  0
 30 32  1  0  0  0  0
 30 29  1  0  0  0  0
 31 32  2  0  0  0  0
 32 33  1  0  0  0  0
 34 35  1  0  0  0  0
 35 37  1  0  0  0  0
 37 36  1  0  0  0  0
 38 39  1  0  0  0  0
 39 40  1  0  0  0  0
 40 41  2  0  0  0  0
 42 40  1  0  0  0  0
M  END
>  <MODEL>
1

>  <REMARK>
 VINA RESULT:      -7.0      0.000      0.000
  Name = 
  21 active torsions:
  status: ('A' for Active; 'I' for Inactive)
    1  A    between atoms: C_3  and  O_8
    2  A    between atoms: C_7  and  C_19
    3  A    between atoms: O_8  and  C_33
    4  A    between atoms: C_9  and  C_10
    5  A    between atoms: C_10  and  C_26
    6  A    between atoms: C_12  and  C_41
    7  A    between atoms: C_13  and  C_34
    8  A    between atoms: C_17  and  C_26
    9  A    between atoms: C_18  and  C_23
   10  A    between atoms: C_18  and  N_39
   11  A    between atoms: C_18  and  CA_42
   12  A    between atoms: C_19  and  C_30
   13  A    between atoms: C_20  and  O_37
   14  A    between atoms: C_20  and  C_41
   15  A    between atoms: C_24  and  C_33
   16  A    between atoms: C_24  and  C_38
   17  A    between atoms: C_28  and  C_31
   18  A    between atoms: C_30  and  C_32
   19  A    between atoms: C_31  and  C_32
   20  A    between atoms: C_31  and  O_37
   21  A    between atoms: C_32  and  C_34
                            x       y       z     vdW  Elec       q    Type
                         _______ _______ _______ _____ _____    ______ ____

>  <TORSDO>
F 21

$$$$
=
 OpenBabel11062413153D

 42 43  0  0  1  0  0  0  0  0999 V2000
  188.6000  177.1920  144.5460 C   0  0  0  0  0  3  0  0  0  0  0  0
  189.6340  177.5260  143.7610 C   0  0  0  0  0  0  0  0  0  0  0  0
  188.3410  178.5880  140.3600 C   0  0  0  0  0  3  0  0  0  0  0  0
  189.3660  178.1510  139.5120 C   0  0  0  0  0  0  0  0  0  0  0  0
  188.4330  178.3690  141.7350 C   0  0  0  0  0  3  0  0  0  0  0  0
  190.5380  177.2260  141.4180 C   0  0  0  0  0  3  0  0  0  0  0  0
  190.4520  177.4520  140.0430 C   0  0  0  0  0  3  0  0  0  0  0  0
  189.5430  177.7090  142.2850 C   0  0  0  0  0  0  0  0  0  0  0  0
  189.3290  178.4410  138.0450 C   0  0  0  0  0  2  0  0  0  0  0  0
  188.3450  176.2630  138.0550 O   0  0  0  0  0  1  0  0  0  0  0  0
  188.9240  177.2190  137.2190 C   0  0  2  0  0  3  0  0  0  0  0  0
  190.0180  176.4330  135.2400 O   0  0  0  0  0  0  0  0  0  0  0  0
  190.0830  176.6220  136.4850 C   0  0  0  0  0  0  0  0  0  0  0  0
  191.2480  176.2390  137.2210 N   0  0  0  0  0  2  0  0  0  0  0  0
  192.3520  175.4790  136.6440 C   0  0  2  0  0  3  0  0  0  0  0  0
  190.4590  172.9140  135.6230 O   0  0  0  0  0  0  0  0  0  0  0  0
  191.5380  173.2830  136.1540 C   0  0  0  0  0  0  0  0  0  0  0  0
  193.0660  173.2340  136.2570 N   0  0  0  0  0  2  0  0  0  0  0  0
  192.2590  174.0220  137.0820 C   0  0  1  0  0  3  0  0  0  0  0  0
  194.1710  175.7600  138.3440 O   0  0  0  0  0  1  0  0  0  0  0  0
  194.3440  176.7420  136.2810 O   0  0  0  0  0  0  0  0  0  0  0  0
  193.6650  176.0490  137.0810 C   0  0  0  0  0  0  0  0  0  0  0  0
  187.1860  176.9410  144.1090 C   0  0  0  0  0  2  0  0  0  0  0  0
  186.1460  177.8610  144.7620 C   0  0  2  0  0  3  0  0  0  0  0  0
  185.3500  178.7260  143.7730 C   0  0  2  0  0  3  0  0  0  0  0  0
  183.1870  178.6530  144.7200 O   0  0  0  0  0  0  0  0  0  0  0  0
  184.1410  179.3470  144.4040 C   0  0  0  0  0  3  0  0  0  0  0  0
  184.9710  177.9510  142.6700 O   0  0  0  0  0  0  0  0  0  0  0  0
  184.8260  178.8570  141.6160 C   0  0  0  0  0  2  0  0  0  0  0  0
  183.8950  178.2810  140.5640 C   0  0  0  0  0  2  0  0  0  0  0  0
  184.3760  180.2030  139.2390 O   0  0  0  0  0  1  0  0  0  0  0  0
  183.5280  179.3390  139.5830 C   0  0  0  0  0  0  0  0  0  0  0  0
  182.2580  179.3530  139.0200 O   0  0  0  0  0  0  0  0  0  0  0  0
  186.6870  178.6210  145.9720 C   0  0  0  0  0  2  0  0  0  0  0  0
  186.2380  177.9720  147.2740 C   0  0  0  0  0  2  0  0  0  0  0  0
  188.4340  178.5190  148.3340 C   0  0  0  0  0  1  0  0  0  0  0  0
  187.4210  177.4240  148.0570 C   0  0  0  0  0  2  0  0  0  0  0  0
  190.9630  177.6450  144.4420 C   0  0  0  0  0  2  0  0  0  0  0  0
  191.3840  176.3950  144.9770 O   0  0  0  0  0  0  0  0  0  0  0  0
  191.6890  176.2210  146.3290 C   0  0  0  0  0  0  0  0  0  0  0  0
  191.0040  176.7800  147.2260 O   0  0  0  0  0  0  0  0  0  0  0  0
  192.7430  175.4440  146.6790 F   0  0  0  0  0  0  0  0  0  0  0  0
  2 38  1  0  0  0  0
  2  1  2  0  0  0  0
  3  5  1  0  0  0  0
  4  7  1  0  0  0  0
  4  3  2  0  0  0  0
  5  8  2  0  0  0  0
  6  8  1  0  0  0  0
  7  6  2  0  0  0  0
  8  2  1  0  0  0  0
  9  4  1  0  0  0  0
 11  9  1  0  0  0  0
 11 10  1  1  0  0  0
 12 13  2  0  0  0  0
 13 11  1  0  0  0  0
 13 14  1  0  0  0  0
 15 22  1  1  0  0  0
 15 14  1  0  0  0  0
 16 17  2  0  0  0  0
 17 18  1  0  0  0  0
 17 19  1  0  0  0  0
 18 19  1  0  0  0  0
 19 15  1  6  0  0  0
 21 22  2  0  0  0  0
 22 20  1  0  0  0  0
 23  1  1  0  0  0  0
 24 23  1  6  0  0  0
 24 34  1  0  0  0  0
 25 27  1  1  0  0  0
 25 24  1  0  0  0  0
 27 26  2  0  0  0  0
 28 25  1  0  0  0  0
 29 28  1  0  0  0  0
 30 29  1  0  0  0  0
 31 32  1  0  0  0  0
 32 30  1  0  0  0  0
 33 32  2  0  0  0  0
 34 35  1  0  0  0  0
 35 37  1  0  0  0  0
 37 36  1  0  0  0  0
 38 39  1  0  0  0  0
 39 40  1  0  0  0  0
 40 42  1  0  0  0  0
 40 41  2  0  0  0  0
M  END
>  <MODEL>
2

>  <REMARK>
 VINA RESULT:      -6.7      2.246      3.915
  Name = 
  21 active torsions:
  status: ('A' for Active; 'I' for Inactive)
    1  A    between atoms: C_3  and  O_8
    2  A    between atoms: C_7  and  C_19
    3  A    between atoms: O_8  and  C_33
    4  A    between atoms: C_9  and  C_10
    5  A    between atoms: C_10  and  C_26
    6  A    between atoms: C_12  and  C_41
    7  A    between atoms: C_13  and  C_34
    8  A    between atoms: C_17  and  C_26
    9  A    between atoms: C_18  and  C_23
   10  A    between atoms: C_18  and  N_39
   11  A    between atoms: C_18  and  CA_42
   12  A    between atoms: C_19  and  C_30
   13  A    between atoms: C_20  and  O_37
   14  A    between atoms: C_20  and  C_41
   15  A    between atoms: C_24  and  C_33
   16  A    between atoms: C_24  and  C_38
   17  A    between atoms: C_28  and  C_31
   18  A    between atoms: C_30  and  C_32
   19  A    between atoms: C_31  and  C_32
   20  A    between atoms: C_31  and  O_37
   21  A    between atoms: C_32  and  C_34
                            x       y       z     vdW  Elec       q    Type
                         _______ _______ _______ _____ _____    ______ ____

>  <TORSDO>
F 21

$$$$
=
 OpenBabel11062413153D

 42 43  0  0  1  0  0  0  0  0999 V2000
  185.5360  178.0400  144.6440 C   0  0  0  0  0  3  0  0  0  0  0  0
  184.7270  178.6230  143.7480 C   0  0  0  0  0  0  0  0  0  0  0  0
  183.9740  177.8630  140.1120 C   0  0  0  0  0  3  0  0  0  0  0  0
  185.1180  178.3540  139.4710 C   0  0  0  0  0  0  0  0  0  0  0  0
  183.8630  177.9440  141.5010 C   0  0  0  0  0  3  0  0  0  0  0  0
  186.0570  178.9500  141.6210 C   0  0  0  0  0  3  0  0  0  0  0  0
  186.1660  178.8780  140.2320 C   0  0  0  0  0  3  0  0  0  0  0  0
  184.8910  178.5120  142.2710 C   0  0  0  0  0  0  0  0  0  0  0  0
  185.2270  178.3500  137.9800 C   0  0  0  0  0  2  0  0  0  0  0  0
  187.1730  179.0090  136.7580 O   0  0  0  0  0  1  0  0  0  0  0  0
  186.6260  177.9600  137.4990 C   0  0  2  0  0  3  0  0  0  0  0  0
  186.4150  176.7610  135.4380 O   0  0  0  0  0  0  0  0  0  0  0  0
  186.6160  176.7070  136.6820 C   0  0  0  0  0  0  0  0  0  0  0  0
  186.8030  175.4500  137.3360 N   0  0  0  0  0  2  0  0  0  0  0  0
  186.6230  174.1620  136.6740 C   0  0  2  0  0  3  0  0  0  0  0  0
  183.5790  174.6350  137.9860 O   0  0  0  0  0  0  0  0  0  0  0  0
  184.4250  173.8090  137.5550 C   0  0  0  0  0  0  0  0  0  0  0  0
  184.8040  172.6160  136.6730 N   0  0  0  0  0  2  0  0  0  0  0  0
  185.7060  173.2760  137.5100 C   0  0  1  0  0  3  0  0  0  0  0  0
  188.2380  172.3180  137.1920 O   0  0  0  0  0  1  0  0  0  0  0  0
  188.7620  173.9230  135.6420 O   0  0  0  0  0  0  0  0  0  0  0  0
  187.9410  173.4800  136.4860 C   0  0  0  0  0  0  0  0  0  0  0  0
  186.7330  177.1840  144.3500 C   0  0  0  0  0  2  0  0  0  0  0  0
  188.0460  177.6960  144.9560 C   0  0  2  0  0  3  0  0  0  0  0  0
  189.2690  177.5590  144.0360 C   0  0  2  0  0  3  0  0  0  0  0  0
  191.4500  177.6360  144.9380 O   0  0  0  0  0  0  0  0  0  0  0  0
  190.4710  178.2700  144.5770 C   0  0  0  0  0  3  0  0  0  0  0  0
  188.9560  178.0480  142.7620 O   0  0  0  0  0  0  0  0  0  0  0  0
  189.1710  176.9740  141.8930 C   0  0  0  0  0  2  0  0  0  0  0  0
  189.5230  177.4920  140.5090 C   0  0  0  0  0  2  0  0  0  0  0  0
  191.1740  176.4760  139.1220 O   0  0  0  0  0  0  0  0  0  0  0  0
  190.9250  177.1200  140.1750 C   0  0  0  0  0  0  0  0  0  0  0  0
  191.9650  177.5140  141.0070 O   0  0  0  0  0  1  0  0  0  0  0  0
  188.2770  177.2200  146.3890 C   0  0  0  0  0  2  0  0  0  0  0  0
  187.4640  178.0430  147.3790 C   0  0  0  0  0  2  0  0  0  0  0  0
  189.7180  178.1320  148.4550 C   0  0  0  0  0  1  0  0  0  0  0  0
  188.2220  178.2500  148.6810 C   0  0  0  0  0  2  0  0  0  0  0  0
  183.6440  179.4920  144.3100 C   0  0  0  0  0  2  0  0  0  0  0  0
  182.4690  178.7390  144.5920 O   0  0  0  0  0  0  0  0  0  0  0  0
  181.2650  178.9440  143.9150 C   0  0  0  0  0  0  0  0  0  0  0  0
  181.1970  179.7330  142.9360 O   0  0  0  0  0  0  0  0  0  0  0  0
  180.1520  178.2880  144.3230 F   0  0  0  0  0  0  0  0  0  0  0  0
  2 38  1  0  0  0  0
  2  1  2  0  0  0  0
  3  5  1  0  0  0  0
  4  3  2  0  0  0  0
  4  7  1  0  0  0  0
  5  8  2  0  0  0  0
  6  8  1  0  0  0  0
  7  6  2  0  0  0  0
  8  2  1  0  0  0  0
  9  4  1  0  0  0  0
 11 10  1  6  0  0  0
 11  9  1  0  0  0  0
 12 13  2  0  0  0  0
 13 14  1  0  0  0  0
 13 11  1  0  0  0  0
 15 22  1  1  0  0  0
 15 14  1  0  0  0  0
 17 16  2  0  0  0  0
 18 19  1  0  0  0  0
 18 17  1  0  0  0  0
 19 15  1  6  0  0  0
 19 17  1  0  0  0  0
 21 22  2  0  0  0  0
 22 20  1  0  0  0  0
 23  1  1  0  0  0  0
 24 23  1  6  0  0  0
 24 34  1  0  0  0  0
 25 27  1  1  0  0  0
 25 24  1  0  0  0  0
 27 26  2  0  0  0  0
 28 25  1  0  0  0  0
 29 28  1  0  0  0  0
 30 29  1  0  0  0  0
 31 32  2  0  0  0  0
 32 30  1  0  0  0  0
 32 33  1  0  0  0  0
 34 35  1  0  0  0  0
 35 37  1  0  0  0  0
 36 37  1  0  0  0  0
 38 39  1  0  0  0  0
 40 42  1  0  0  0  0
 40 39  1  0  0  0  0
 41 40  2  0  0  0  0
M  END
>  <MODEL>
3

>  <REMARK>
 VINA RESULT:      -6.6      2.571      5.750
  Name = 
  21 active torsions:
  status: ('A' for Active; 'I' for Inactive)
    1  A    between atoms: C_3  and  O_8
    2  A    between atoms: C_7  and  C_19
    3  A    between atoms: O_8  and  C_33
    4  A    between atoms: C_9  and  C_10
    5  A    between atoms: C_10  and  C_26
    6  A    between atoms: C_12  and  C_41
    7  A    between atoms: C_13  and  C_34
    8  A    between atoms: C_17  and  C_26
    9  A    between atoms: C_18  and  C_23
   10  A    between atoms: C_18  and  N_39
   11  A    between atoms: C_18  and  CA_42
   12  A    between atoms: C_19  and  C_30
   13  A    between atoms: C_20  and  O_37
   14  A    between atoms: C_20  and  C_41
   15  A    between atoms: C_24  and  C_33
   16  A    between atoms: C_24  and  C_38
   17  A    between atoms: C_28  and  C_31
   18  A    between atoms: C_30  and  C_32
   19  A    between atoms: C_31  and  C_32
   20  A    between atoms: C_31  and  O_37
   21  A    between atoms: C_32  and  C_34
                            x       y       z     vdW  Elec       q    Type
                         _______ _______ _______ _____ _____    ______ ____

>  <TORSDO>
F 21

$$$$
=
 OpenBabel11062413153D

 42 43  0  0  1  0  0  0  0  0999 V2000
  187.5290  177.3760  144.8690 C   0  0  0  0  0  3  0  0  0  0  0  0
  186.4100  178.0930  145.0500 C   0  0  0  0  0  0  0  0  0  0  0  0
  183.0130  178.6630  143.4680 C   0  0  0  0  0  3  0  0  0  0  0  0
  183.3310  178.6980  142.1050 C   0  0  0  0  0  0  0  0  0  0  0  0
  184.0170  178.4530  144.4130 C   0  0  0  0  0  3  0  0  0  0  0  0
  185.6490  178.2550  142.6430 C   0  0  0  0  0  3  0  0  0  0  0  0
  184.6470  178.4730  141.6950 C   0  0  0  0  0  3  0  0  0  0  0  0
  185.3520  178.2720  144.0160 C   0  0  0  0  0  0  0  0  0  0  0  0
  182.2860  178.9980  141.0780 C   0  0  0  0  0  2  0  0  0  0  0  0
  182.5200  176.6920  140.4930 O   0  0  0  0  0  1  0  0  0  0  0  0
  182.2510  177.9530  139.9600 C   0  0  2  0  0  3  0  0  0  0  0  0
  183.2910  179.4280  138.3870 O   0  0  0  0  0  0  0  0  0  0  0  0
  183.2210  178.2630  138.8650 C   0  0  0  0  0  0  0  0  0  0  0  0
  184.0420  177.2130  138.3470 N   0  0  0  0  0  2  0  0  0  0  0  0
  184.8780  177.3550  137.1600 C   0  0  2  0  0  3  0  0  0  0  0  0
  184.2780  174.1410  137.8810 O   0  0  0  0  0  0  0  0  0  0  0  0
  184.2090  175.0610  137.0250 C   0  0  0  0  0  0  0  0  0  0  0  0
  183.4250  175.8680  135.9860 N   0  0  0  0  0  2  0  0  0  0  0  0
  184.7670  176.1040  136.2970 C   0  0  1  0  0  3  0  0  0  0  0  0
  186.6810  178.7010  138.2630 O   0  0  0  0  0  1  0  0  0  0  0  0
  187.1670  176.6880  137.2810 O   0  0  0  0  0  0  0  0  0  0  0  0
  186.3080  177.5670  137.5480 C   0  0  0  0  0  0  0  0  0  0  0  0
  187.9290  176.6340  143.6280 C   0  0  0  0  0  2  0  0  0  0  0  0
  189.2200  177.1420  142.9720 C   0  0  2  0  0  3  0  0  0  0  0  0
  190.3010  177.5980  143.9640 C   0  0  2  0  0  3  0  0  0  0  0  0
  191.7180  179.4880  143.9430 O   0  0  0  0  0  0  0  0  0  0  0  0
  190.5740  179.0680  143.8720 C   0  0  0  0  0  3  0  0  0  0  0  0
  191.4800  176.8770  143.7390 O   0  0  0  0  0  0  0  0  0  0  0  0
  191.6700  176.1130  144.8940 C   0  0  0  0  0  2  0  0  0  0  0  0
  191.0090  176.7940  146.0790 C   0  0  0  0  0  2  0  0  0  0  0  0
  191.8610  175.1180  147.5430 O   0  0  0  0  0  0  0  0  0  0  0  0
  191.6530  176.3430  147.3420 C   0  0  0  0  0  0  0  0  0  0  0  0
  192.0600  177.2770  148.2870 O   0  0  0  0  0  1  0  0  0  0  0  0
  188.9710  178.1110  141.8180 C   0  0  0  0  0  2  0  0  0  0  0  0
  189.0970  177.4090  140.4740 C   0  0  0  0  0  2  0  0  0  0  0  0
  190.6550  176.3120  138.8570 C   0  0  0  0  0  1  0  0  0  0  0  0
  190.5030  176.8680  140.2600 C   0  0  0  0  0  2  0  0  0  0  0  0
  186.2880  178.8000  146.3640 C   0  0  0  0  0  2  0  0  0  0  0  0
  186.5120  177.9110  147.4530 O   0  0  0  0  0  0  0  0  0  0  0  0
  187.7810  177.6860  147.9910 C   0  0  0  0  0  0  0  0  0  0  0  0
  188.4820  178.6390  148.4220 O   0  0  0  0  0  0  0  0  0  0  0  0
  188.2670  176.4220  148.0430 F   0  0  0  0  0  0  0  0  0  0  0  0
  1  2  2  0  0  0  0
  2 38  1  0  0  0  0
  3  5  1  0  0  0  0
  4  3  2  0  0  0  0
  6  8  1  0  0  0  0
  7  4  1  0  0  0  0
  7  6  2  0  0  0  0
  8  5  2  0  0  0  0
  8  2  1  0  0  0  0
  9  4  1  0  0  0  0
 11 10  1  1  0  0  0
 11  9  1  0  0  0  0
 12 13  2  0  0  0  0
 13 11  1  0  0  0  0
 14 13  1  0  0  0  0
 15 22  1  1  0  0  0
 15 14  1  0  0  0  0
 17 16  2  0  0  0  0
 18 19  1  0  0  0  0
 18 17  1  0  0  0  0
 19 17  1  0  0  0  0
 19 15  1  1  0  0  0
 21 22  2  0  0  0  0
 22 20  1  0  0  0  0
 23  1  1  0  0  0  0
 24 34  1  6  0  0  0
 24 23  1  0  0  0  0
 24 25  1  0  0  0  0
 25 27  1  6  0  0  0
 27 26  2  0  0  0  0
 28 25  1  0  0  0  0
 28 29  1  0  0  0  0
 29 30  1  0  0  0  0
 30 32  1  0  0  0  0
 32 31  2  0  0  0  0
 32 33  1  0  0  0  0
 35 34  1  0  0  0  0
 36 37  1  0  0  0  0
 37 35  1  0  0  0  0
 38 39  1  0  0  0  0
 39 40  1  0  0  0  0
 40 42  1  0  0  0  0
 40 41  2  0  0  0  0
M  END
>  <MODEL>
4

>  <REMARK>
 VINA RESULT:      -6.5      1.898      6.593
  Name = 
  21 active torsions:
  status: ('A' for Active; 'I' for Inactive)
    1  A    between atoms: C_3  and  O_8
    2  A    between atoms: C_7  and  C_19
    3  A    between atoms: O_8  and  C_33
    4  A    between atoms: C_9  and  C_10
    5  A    between atoms: C_10  and  C_26
    6  A    between atoms: C_12  and  C_41
    7  A    between atoms: C_13  and  C_34
    8  A    between atoms: C_17  and  C_26
    9  A    between atoms: C_18  and  C_23
   10  A    between atoms: C_18  and  N_39
   11  A    between atoms: C_18  and  CA_42
   12  A    between atoms: C_19  and  C_30
   13  A    between atoms: C_20  and  O_37
   14  A    between atoms: C_20  and  C_41
   15  A    between atoms: C_24  and  C_33
   16  A    between atoms: C_24  and  C_38
   17  A    between atoms: C_28  and  C_31
   18  A    between atoms: C_30  and  C_32
   19  A    between atoms: C_31  and  C_32
   20  A    between atoms: C_31  and  O_37
   21  A    between atoms: C_32  and  C_34
                            x       y       z     vdW  Elec       q    Type
                         _______ _______ _______ _____ _____    ______ ____

>  <TORSDO>
F 21

$$$$
=
 OpenBabel11062413153D

 42 43  0  0  1  0  0  0  0  0999 V2000
  189.4880  176.9710  142.2260 C   0  0  0  0  0  3  0  0  0  0  0  0
  189.2850  177.4360  140.9850 C   0  0  0  0  0  0  0  0  0  0  0  0
  186.4430  178.2860  138.6250 C   0  0  0  0  0  3  0  0  0  0  0  0
  185.4910  178.8230  139.5000 C   0  0  0  0  0  0  0  0  0  0  0  0
  187.6740  177.8510  139.1150 C   0  0  0  0  0  3  0  0  0  0  0  0
  187.0360  178.5390  141.3420 C   0  0  0  0  0  3  0  0  0  0  0  0
  185.8000  178.9670  140.8540 C   0  0  0  0  0  3  0  0  0  0  0  0
  187.9780  177.9480  140.4830 C   0  0  0  0  0  0  0  0  0  0  0  0
  184.1360  179.2250  139.0120 C   0  0  0  0  0  2  0  0  0  0  0  0
  183.0870  177.8370  137.3730 O   0  0  0  0  0  1  0  0  0  0  0  0
  183.2300  178.0200  138.7490 C   0  0  2  0  0  3  0  0  0  0  0  0
  180.9940  177.2990  139.2070 O   0  0  0  0  0  0  0  0  0  0  0  0
  181.8860  178.1710  139.3880 C   0  0  0  0  0  0  0  0  0  0  0  0
  181.6200  179.3340  140.1770 N   0  0  0  0  0  2  0  0  0  0  0  0
  180.2960  179.6760  140.6850 C   0  0  2  0  0  3  0  0  0  0  0  0
  181.7340  181.8260  138.5590 O   0  0  0  0  0  0  0  0  0  0  0  0
  180.6620  181.3860  139.0510 C   0  0  0  0  0  0  0  0  0  0  0  0
  179.2380  180.8460  138.8930 N   0  0  0  0  0  2  0  0  0  0  0  0
  179.8630  181.0280  140.1290 C   0  0  1  0  0  3  0  0  0  0  0  0
  180.7940  178.6610  142.9210 O   0  0  0  0  0  1  0  0  0  0  0  0
  179.9270  180.7770  142.7710 O   0  0  0  0  0  0  0  0  0  0  0  0
  180.3060  179.7330  142.1800 C   0  0  0  0  0  0  0  0  0  0  0  0
  188.4720  176.8750  143.3260 C   0  0  0  0  0  2  0  0  0  0  0  0
  189.0310  177.1320  144.7320 C   0  0  2  0  0  3  0  0  0  0  0  0
  188.0310  177.7700  145.7080 C   0  0  2  0  0  3  0  0  0  0  0  0
  188.4180  176.6700  147.7630 O   0  0  0  0  0  0  0  0  0  0  0  0
  188.5050  177.7090  147.1280 C   0  0  0  0  0  3  0  0  0  0  0  0
  186.7880  177.1380  145.5900 O   0  0  0  0  0  0  0  0  0  0  0  0
  185.8960  177.9420  146.3040 C   0  0  0  0  0  2  0  0  0  0  0  0
  185.4980  179.1430  145.4640 C   0  0  0  0  0  2  0  0  0  0  0  0
  184.2330  178.2180  143.6690 O   0  0  0  0  0  0  0  0  0  0  0  0
  184.2220  178.8590  144.7520 C   0  0  0  0  0  0  0  0  0  0  0  0
  183.0140  179.2700  145.3010 O   0  0  0  0  0  1  0  0  0  0  0  0
  190.4120  177.7860  144.7230 C   0  0  0  0  0  2  0  0  0  0  0  0
  191.4940  176.7890  145.1120 C   0  0  0  0  0  2  0  0  0  0  0  0
  192.2530  175.4350  147.0710 C   0  0  0  0  0  1  0  0  0  0  0  0
  191.7280  176.7840  146.6150 C   0  0  0  0  0  2  0  0  0  0  0  0
  190.4540  177.3520  140.0530 C   0  0  0  0  0  2  0  0  0  0  0  0
  190.5710  176.0510  139.4850 O   0  0  0  0  0  0  0  0  0  0  0  0
  191.2170  175.8180  138.2690 C   0  0  0  0  0  0  0  0  0  0  0  0
  191.6790  174.6810  137.9880 O   0  0  0  0  0  0  0  0  0  0  0  0
  191.3520  176.8330  137.3810 F   0  0  0  0  0  0  0  0  0  0  0  0
  1 23  1  0  0  0  0
  2  1  2  0  0  0  0
  3  5  2  0  0  0  0
  3  4  1  0  0  0  0
  4  7  2  0  0  0  0
  5  8  1  0  0  0  0
  7  6  1  0  0  0  0
  8  2  1  0  0  0  0
  8  6  2  0  0  0  0
  9  4  1  0  0  0  0
 11 10  1  6  0  0  0
 11  9  1  0  0  0  0
 11 13  1  0  0  0  0
 12 13  2  0  0  0  0
 13 14  1  0  0  0  0
 15 14  1  6  0  0  0
 15 22  1  0  0  0  0
 16 17  2  0  0  0  0
 17 19  1  0  0  0  0
 18 17  1  0  0  0  0
 18 19  1  0  0  0  0
 19 15  1  6  0  0  0
 22 21  2  0  0  0  0
 22 20  1  0  0  0  0
 24 23  1  6  0  0  0
 24 25  1  0  0  0  0
 25 27  1  1  0  0  0
 27 26  2  0  0  0  0
 28 25  1  0  0  0  0
 28 29  1  0  0  0  0
 30 29  1  0  0  0  0
 31 32  2  0  0  0  0
 32 33  1  0  0  0  0
 32 30  1  0  0  0  0
 34 24  1  0  0  0  0
 34 35  1  0  0  0  0
 35 37  1  0  0  0  0
 37 36  1  0  0  0  0
 38  2  1  0  0  0  0
 39 38  1  0  0  0  0
 40 39  1  0  0  0  0
 41 40  2  0  0  0  0
 42 40  1  0  0  0  0
M  END
>  <MODEL>
5

>  <REMARK>
 VINA RESULT:      -6.4      2.899      5.998
  Name = 
  21 active torsions:
  status: ('A' for Active; 'I' for Inactive)
    1  A    between atoms: C_3  and  O_8
    2  A    between atoms: C_7  and  C_19
    3  A    between atoms: O_8  and  C_33
    4  A    between atoms: C_9  and  C_10
    5  A    between atoms: C_10  and  C_26
    6  A    between atoms: C_12  and  C_41
    7  A    between atoms: C_13  and  C_34
    8  A    between atoms: C_17  and  C_26
    9  A    between atoms: C_18  and  C_23
   10  A    between atoms: C_18  and  N_39
   11  A    between atoms: C_18  and  CA_42
   12  A    between atoms: C_19  and  C_30
   13  A    between atoms: C_20  and  O_37
   14  A    between atoms: C_20  and  C_41
   15  A    between atoms: C_24  and  C_33
   16  A    between atoms: C_24  and  C_38
   17  A    between atoms: C_28  and  C_31
   18  A    between atoms: C_30  and  C_32
   19  A    between atoms: C_31  and  C_32
   20  A    between atoms: C_31  and  O_37
   21  A    between atoms: C_32  and  C_34
                            x       y       z     vdW  Elec       q    Type
                         _______ _______ _______ _____ _____    ______ ____

>  <TORSDO>
F 21

$$$$
=
 OpenBabel11062413153D

 42 43  0  0  1  0  0  0  0  0999 V2000
  188.8660  176.8100  143.8420 C   0  0  0  0  0  3  0  0  0  0  0  0
  189.3220  177.0910  142.6130 C   0  0  0  0  0  0  0  0  0  0  0  0
  188.0500  177.6530  139.0870 C   0  0  0  0  0  3  0  0  0  0  0  0
  186.8400  178.3160  139.3190 C   0  0  0  0  0  0  0  0  0  0  0  0
  188.8530  177.2710  140.1620 C   0  0  0  0  0  3  0  0  0  0  0  0
  187.2750  178.2630  141.6990 C   0  0  0  0  0  3  0  0  0  0  0  0
  186.4660  178.6380  140.6260 C   0  0  0  0  0  3  0  0  0  0  0  0
  188.4650  177.5480  141.4830 C   0  0  0  0  0  0  0  0  0  0  0  0
  185.9240  178.6670  138.1890 C   0  0  0  0  0  2  0  0  0  0  0  0
  183.9800  177.5360  137.3800 O   0  0  0  0  0  1  0  0  0  0  0  0
  184.4750  178.2610  138.4650 C   0  0  2  0  0  3  0  0  0  0  0  0
  184.1060  180.5710  138.9720 O   0  0  0  0  0  0  0  0  0  0  0  0
  183.5970  179.4410  138.7350 C   0  0  0  0  0  0  0  0  0  0  0  0
  182.1790  179.2620  138.7540 N   0  0  0  0  0  2  0  0  0  0  0  0
  181.2420  180.2910  139.1910 C   0  0  2  0  0  3  0  0  0  0  0  0
  178.9590  177.9680  138.4210 O   0  0  0  0  0  0  0  0  0  0  0  0
  179.6320  178.5260  139.3260 C   0  0  0  0  0  0  0  0  0  0  0  0
  180.5480  178.4550  140.5510 N   0  0  0  0  0  2  0  0  0  0  0  0
  180.1070  179.6530  139.9830 C   0  0  1  0  0  3  0  0  0  0  0  0
  181.1180  180.7270  136.7270 O   0  0  0  0  0  0  0  0  0  0  0  0
  179.7640  181.8690  138.1800 O   0  0  0  0  0  1  0  0  0  0  0  0
  180.6800  181.0230  138.0140 C   0  0  0  0  0  0  0  0  0  0  0  0
  187.4430  176.8950  144.3120 C   0  0  0  0  0  2  0  0  0  0  0  0
  187.2140  177.8800  145.4670 C   0  0  2  0  0  3  0  0  0  0  0  0
  187.9450  177.5170  146.7680 C   0  0  2  0  0  3  0  0  0  0  0  0
  187.8590  178.0620  149.0660 O   0  0  0  0  0  0  0  0  0  0  0  0
  187.3560  178.2050  147.9630 C   0  0  0  0  0  3  0  0  0  0  0  0
  189.3020  177.8390  146.6510 O   0  0  0  0  0  0  0  0  0  0  0  0
  189.9880  176.6710  146.9940 C   0  0  0  0  0  2  0  0  0  0  0  0
  191.2270  177.0170  147.8010 C   0  0  0  0  0  2  0  0  0  0  0  0
  192.3140  175.3000  146.5550 O   0  0  0  0  0  0  0  0  0  0  0  0
  192.2520  175.9510  147.6300 C   0  0  0  0  0  0  0  0  0  0  0  0
  193.1660  175.6980  148.6450 O   0  0  0  0  0  1  0  0  0  0  0  0
  185.7460  178.2630  145.6510 C   0  0  0  0  0  2  0  0  0  0  0  0
  185.2080  178.9830  144.4230 C   0  0  0  0  0  2  0  0  0  0  0  0
  183.3690  178.8040  142.7400 C   0  0  0  0  0  1  0  0  0  0  0  0
  183.7320  178.6850  144.2080 C   0  0  0  0  0  2  0  0  0  0  0  0
  190.7820  176.8490  142.3840 C   0  0  0  0  0  2  0  0  0  0  0  0
  191.5460  178.0270  142.6200 O   0  0  0  0  0  0  0  0  0  0  0  0
  191.5690  178.6710  143.8590 C   0  0  0  0  0  0  0  0  0  0  0  0
  191.0550  179.8110  144.0080 O   0  0  0  0  0  0  0  0  0  0  0  0
  192.1590  178.0610  144.9160 F   0  0  0  0  0  0  0  0  0  0  0  0
  1 23  1  0  0  0  0
  2  1  2  0  0  0  0
  3  4  2  0  0  0  0
  3  5  1  0  0  0  0
  4  7  1  0  0  0  0
  5  8  2  0  0  0  0
  7  6  2  0  0  0  0
  8  6  1  0  0  0  0
  8  2  1  0  0  0  0
  9 11  1  0  0  0  0
  9  4  1  0  0  0  0
 11 10  1  6  0  0  0
 11 13  1  0  0  0  0
 13 14  1  0  0  0  0
 13 12  2  0  0  0  0
 14 15  1  0  0  0  0
 15 22  1  6  0  0  0
 16 17  2  0  0  0  0
 17 19  1  0  0  0  0
 17 18  1  0  0  0  0
 19 15  1  6  0  0  0
 19 18  1  0  0  0  0
 20 22  2  0  0  0  0
 22 21  1  0  0  0  0
 24 23  1  6  0  0  0
 24 34  1  0  0  0  0
 24 25  1  0  0  0  0
 25 27  1  1  0  0  0
 27 26  2  0  0  0  0
 28 25  1  0  0  0  0
 28 29  1  0  0  0  0
 29 30  1  0  0  0  0
 31 32  2  0  0  0  0
 32 30  1  0  0  0  0
 32 33  1  0  0  0  0
 35 34  1  0  0  0  0
 36 37  1  0  0  0  0
 37 35  1  0  0  0  0
 38  2  1  0  0  0  0
 38 39  1  0  0  0  0
 39 40  1  0  0  0  0
 40 41  2  0  0  0  0
 40 42  1  0  0  0  0
M  END
>  <MODEL>
6

>  <REMARK>
 VINA RESULT:      -6.4      2.896      6.375
  Name = 
  21 active torsions:
  status: ('A' for Active; 'I' for Inactive)
    1  A    between atoms: C_3  and  O_8
    2  A    between atoms: C_7  and  C_19
    3  A    between atoms: O_8  and  C_33
    4  A    between atoms: C_9  and  C_10
    5  A    between atoms: C_10  and  C_26
    6  A    between atoms: C_12  and  C_41
    7  A    between atoms: C_13  and  C_34
    8  A    between atoms: C_17  and  C_26
    9  A    between atoms: C_18  and  C_23
   10  A    between atoms: C_18  and  N_39
   11  A    between atoms: C_18  and  CA_42
   12  A    between atoms: C_19  and  C_30
   13  A    between atoms: C_20  and  O_37
   14  A    between atoms: C_20  and  C_41
   15  A    between atoms: C_24  and  C_33
   16  A    between atoms: C_24  and  C_38
   17  A    between atoms: C_28  and  C_31
   18  A    between atoms: C_30  and  C_32
   19  A    between atoms: C_31  and  C_32
   20  A    between atoms: C_31  and  O_37
   21  A    between atoms: C_32  and  C_34
                            x       y       z     vdW  Elec       q    Type
                         _______ _______ _______ _____ _____    ______ ____

>  <TORSDO>
F 21

$$$$
=
 OpenBabel11062413153D

 42 43  0  0  1  0  0  0  0  0999 V2000
  186.4900  177.9330  143.9070 C   0  0  0  0  0  3  0  0  0  0  0  0
  185.3730  178.6440  143.6960 C   0  0  0  0  0  0  0  0  0  0  0  0
  182.5580  178.6560  141.1580 C   0  0  0  0  0  3  0  0  0  0  0  0
  183.2450  178.9170  139.9660 C   0  0  0  0  0  0  0  0  0  0  0  0
  183.2600  178.5570  142.3600 C   0  0  0  0  0  3  0  0  0  0  0  0
  185.3380  178.9190  141.1820 C   0  0  0  0  0  3  0  0  0  0  0  0
  184.6370  179.0270  139.9800 C   0  0  0  0  0  3  0  0  0  0  0  0
  184.6550  178.7130  142.3920 C   0  0  0  0  0  0  0  0  0  0  0  0
  182.5090  179.1040  138.6780 C   0  0  0  0  0  2  0  0  0  0  0  0
  180.8710  177.3670  138.7970 O   0  0  0  0  0  1  0  0  0  0  0  0
  182.0050  177.7820  138.0960 C   0  0  2  0  0  3  0  0  0  0  0  0
  182.9870  175.7920  138.9950 O   0  0  0  0  0  0  0  0  0  0  0  0
  183.0500  176.7120  138.1340 C   0  0  0  0  0  0  0  0  0  0  0  0
  184.1340  176.7670  137.2040 N   0  0  0  0  0  2  0  0  0  0  0  0
  185.3000  175.8930  137.2740 C   0  0  2  0  0  3  0  0  0  0  0  0
  187.0010  178.7670  137.5110 O   0  0  0  0  0  0  0  0  0  0  0  0
  187.0050  177.5670  137.1320 C   0  0  0  0  0  0  0  0  0  0  0  0
  187.6610  176.1840  137.0690 N   0  0  0  0  0  2  0  0  0  0  0  0
  186.4420  176.4910  136.4600 C   0  0  1  0  0  3  0  0  0  0  0  0
  184.2690  174.3950  135.5500 O   0  0  0  0  0  0  0  0  0  0  0  0
  185.3770  173.5090  137.3500 O   0  0  0  0  0  1  0  0  0  0  0  0
  184.9690  174.5340  136.7450 C   0  0  0  0  0  0  0  0  0  0  0  0
  187.2190  177.0890  142.9040 C   0  0  0  0  0  2  0  0  0  0  0  0
  188.7170  177.4030  142.7790 C   0  0  2  0  0  3  0  0  0  0  0  0
  189.3760  177.8900  144.0780 C   0  0  2  0  0  3  0  0  0  0  0  0
  190.9470  179.6510  143.9660 O   0  0  0  0  0  0  0  0  0  0  0  0
  190.7450  178.4530  143.8460 C   0  0  0  0  0  3  0  0  0  0  0  0
  189.4420  176.8350  144.9970 O   0  0  0  0  0  0  0  0  0  0  0  0
  189.5310  177.4450  146.2510 C   0  0  0  0  0  2  0  0  0  0  0  0
  189.9560  176.4250  147.2920 C   0  0  0  0  0  2  0  0  0  0  0  0
  192.0630  175.6620  146.4830 O   0  0  0  0  0  0  0  0  0  0  0  0
  191.4410  176.3420  147.3400 C   0  0  0  0  0  0  0  0  0  0  0  0
  192.1450  177.0460  148.3090 O   0  0  0  0  0  1  0  0  0  0  0  0
  189.0580  178.2370  141.5450 C   0  0  0  0  0  2  0  0  0  0  0  0
  188.8510  177.4370  140.2670 C   0  0  0  0  0  2  0  0  0  0  0  0
  191.3490  177.4910  140.3330 C   0  0  0  0  0  1  0  0  0  0  0  0
  190.1270  177.3700  139.4420 C   0  0  0  0  0  2  0  0  0  0  0  0
  184.8890  179.4640  144.8530 C   0  0  0  0  0  2  0  0  0  0  0  0
  185.8390  179.4770  145.9130 O   0  0  0  0  0  0  0  0  0  0  0  0
  185.7020  178.6830  147.0530 C   0  0  0  0  0  0  0  0  0  0  0  0
  184.5670  178.3140  147.4540 O   0  0  0  0  0  0  0  0  0  0  0  0
  186.8090  178.3100  147.7410 F   0  0  0  0  0  0  0  0  0  0  0  0
  2  1  2  0  0  0  0
  2 38  1  0  0  0  0
  3  5  1  0  0  0  0
  4  7  1  0  0  0  0
  4  3  2  0  0  0  0
  5  8  2  0  0  0  0
  6  8  1  0  0  0  0
  7  6  2  0  0  0  0
  8  2  1  0  0  0  0
  9  4  1  0  0  0  0
 11 13  1  0  0  0  0
 11  9  1  0  0  0  0
 11 10  1  1  0  0  0
 13 12  2  0  0  0  0
 14 15  1  0  0  0  0
 14 13  1  0  0  0  0
 15 22  1  6  0  0  0
 17 16  2  0  0  0  0
 18 17  1  0  0  0  0
 19 18  1  0  0  0  0
 19 17  1  0  0  0  0
 19 15  1  1  0  0  0
 20 22  2  0  0  0  0
 22 21  1  0  0  0  0
 23  1  1  0  0  0  0
 24 34  1  6  0  0  0
 24 23  1  0  0  0  0
 24 25  1  0  0  0  0
 25 27  1  6  0  0  0
 25 28  1  0  0  0  0
 27 26  2  0  0  0  0
 28 29  1  0  0  0  0
 29 30  1  0  0  0  0
 30 32  1  0  0  0  0
 31 32  2  0  0  0  0
 32 33  1  0  0  0  0
 35 34  1  0  0  0  0
 37 35  1  0  0  0  0
 37 36  1  0  0  0  0
 38 39  1  0  0  0  0
 39 40  1  0  0  0  0
 40 41  2  0  0  0  0
 40 42  1  0  0  0  0
M  END
>  <MODEL>
7

>  <REMARK>
 VINA RESULT:      -6.3      2.024      6.475
  Name = 
  21 active torsions:
  status: ('A' for Active; 'I' for Inactive)
    1  A    between atoms: C_3  and  O_8
    2  A    between atoms: C_7  and  C_19
    3  A    between atoms: O_8  and  C_33
    4  A    between atoms: C_9  and  C_10
    5  A    between atoms: C_10  and  C_26
    6  A    between atoms: C_12  and  C_41
    7  A    between atoms: C_13  and  C_34
    8  A    between atoms: C_17  and  C_26
    9  A    between atoms: C_18  and  C_23
   10  A    between atoms: C_18  and  N_39
   11  A    between atoms: C_18  and  CA_42
   12  A    between atoms: C_19  and  C_30
   13  A    between atoms: C_20  and  O_37
   14  A    between atoms: C_20  and  C_41
   15  A    between atoms: C_24  and  C_33
   16  A    between atoms: C_24  and  C_38
   17  A    between atoms: C_28  and  C_31
   18  A    between atoms: C_30  and  C_32
   19  A    between atoms: C_31  and  C_32
   20  A    between atoms: C_31  and  O_37
   21  A    between atoms: C_32  and  C_34
                            x       y       z     vdW  Elec       q    Type
                         _______ _______ _______ _____ _____    ______ ____

>  <TORSDO>
F 21

$$$$
=
 OpenBabel11062413153D

 42 43  0  0  1  0  0  0  0  0999 V2000
  188.6490  176.5210  143.7720 C   0  0  0  0  0  3  0  0  0  0  0  0
  189.6240  176.7560  142.8820 C   0  0  0  0  0  0  0  0  0  0  0  0
  189.9060  177.2030  139.1290 C   0  0  0  0  0  3  0  0  0  0  0  0
  188.9460  178.1920  138.8830 C   0  0  0  0  0  0  0  0  0  0  0  0
  190.1260  176.7530  140.4310 C   0  0  0  0  0  3  0  0  0  0  0  0
  188.4770  178.3160  141.2540 C   0  0  0  0  0  3  0  0  0  0  0  0
  188.2490  178.7610  139.9510 C   0  0  0  0  0  3  0  0  0  0  0  0
  189.3970  177.2850  141.5080 C   0  0  0  0  0  0  0  0  0  0  0  0
  188.6370  178.6350  137.4880 C   0  0  0  0  0  2  0  0  0  0  0  0
  186.6230  177.4200  137.9140 O   0  0  0  0  0  1  0  0  0  0  0  0
  187.4470  177.8830  136.8880 C   0  0  2  0  0  3  0  0  0  0  0  0
  188.4200  176.9570  134.9060 O   0  0  0  0  0  0  0  0  0  0  0  0
  187.8780  176.7400  136.0240 C   0  0  0  0  0  0  0  0  0  0  0  0
  187.6360  175.4030  136.4690 N   0  0  0  0  0  2  0  0  0  0  0  0
  187.8380  174.2260  135.6320 C   0  0  2  0  0  3  0  0  0  0  0  0
  185.7810  173.0020  137.9730 O   0  0  0  0  0  0  0  0  0  0  0  0
  185.9080  173.4100  136.7890 C   0  0  0  0  0  0  0  0  0  0  0  0
  185.4510  174.2830  135.6160 N   0  0  0  0  0  2  0  0  0  0  0  0
  186.5470  173.4190  135.5570 C   0  0  1  0  0  3  0  0  0  0  0  0
  189.6930  173.8100  137.2630 O   0  0  0  0  0  1  0  0  0  0  0  0
  189.1240  172.2170  135.7180 O   0  0  0  0  0  0  0  0  0  0  0  0
  188.9310  173.3680  136.1870 C   0  0  0  0  0  0  0  0  0  0  0  0
  187.1780  176.7380  143.5690 C   0  0  0  0  0  2  0  0  0  0  0  0
  186.5820  177.8780  144.4060 C   0  0  2  0  0  3  0  0  0  0  0  0
  186.7070  177.6870  145.9250 C   0  0  2  0  0  3  0  0  0  0  0  0
  185.6740  179.3580  147.2370 O   0  0  0  0  0  0  0  0  0  0  0  0
  185.5530  178.2820  146.6710 C   0  0  0  0  0  3  0  0  0  0  0  0
  187.9090  178.2490  146.3730 O   0  0  0  0  0  0  0  0  0  0  0  0
  188.4790  177.2830  147.2060 C   0  0  0  0  0  2  0  0  0  0  0  0
  189.6750  177.8710  147.9350 C   0  0  0  0  0  2  0  0  0  0  0  0
  190.9330  176.3740  146.5750 O   0  0  0  0  0  0  0  0  0  0  0  0
  190.8970  177.0870  147.6110 C   0  0  0  0  0  0  0  0  0  0  0  0
  192.0140  177.1700  148.4330 O   0  0  0  0  0  1  0  0  0  0  0  0
  185.1940  178.3110  143.9360 C   0  0  0  0  0  2  0  0  0  0  0  0
  185.0960  178.2850  142.4170 C   0  0  0  0  0  2  0  0  0  0  0  0
  183.5170  178.1550  140.4840 C   0  0  0  0  0  1  0  0  0  0  0  0
  183.6660  178.5140  141.9500 C   0  0  0  0  0  2  0  0  0  0  0  0
  191.0090  176.3810  143.3130 C   0  0  0  0  0  2  0  0  0  0  0  0
  191.8910  177.4960  143.2480 O   0  0  0  0  0  0  0  0  0  0  0  0
  191.6960  178.6530  144.0050 C   0  0  0  0  0  0  0  0  0  0  0  0
  190.5430  179.0010  144.3720 O   0  0  0  0  0  0  0  0  0  0  0  0
  192.7640  179.4150  144.3450 F   0  0  0  0  0  0  0  0  0  0  0  0
  2 38  1  0  0  0  0
  2  1  2  0  0  0  0
  3  5  1  0  0  0  0
  4  3  2  0  0  0  0
  4  7  1  0  0  0  0
  5  8  2  0  0  0  0
  6  8  1  0  0  0  0
  7  6  2  0  0  0  0
  8  2  1  0  0  0  0
  9  4  1  0  0  0  0
 11  9  1  0  0  0  0
 11 10  1  1  0  0  0
 12 13  2  0  0  0  0
 13 14  1  0  0  0  0
 13 11  1  0  0  0  0
 15 22  1  1  0  0  0
 15 14  1  0  0  0  0
 17 16  2  0  0  0  0
 18 17  1  0  0  0  0
 19 18  1  0  0  0  0
 19 15  1  1  0  0  0
 19 17  1  0  0  0  0
 21 22  2  0  0  0  0
 22 20  1  0  0  0  0
 23  1  1  0  0  0  0
 24 23  1  6  0  0  0
 24 25  1  0  0  0  0
 25 28  1  0  0  0  0
 25 27  1  1  0  0  0
 27 26  2  0  0  0  0
 28 29  1  0  0  0  0
 29 30  1  0  0  0  0
 31 32  2  0  0  0  0
 32 30  1  0  0  0  0
 32 33  1  0  0  0  0
 34 24  1  0  0  0  0
 35 34  1  0  0  0  0
 36 37  1  0  0  0  0
 37 35  1  0  0  0  0
 39 38  1  0  0  0  0
 39 40  1  0  0  0  0
 40 42  1  0  0  0  0
 40 41  2  0  0  0  0
M  END
>  <MODEL>
8

>  <REMARK>
 VINA RESULT:      -6.2      2.236      4.997
  Name = 
  21 active torsions:
  status: ('A' for Active; 'I' for Inactive)
    1  A    between atoms: C_3  and  O_8
    2  A    between atoms: C_7  and  C_19
    3  A    between atoms: O_8  and  C_33
    4  A    between atoms: C_9  and  C_10
    5  A    between atoms: C_10  and  C_26
    6  A    between atoms: C_12  and  C_41
    7  A    between atoms: C_13  and  C_34
    8  A    between atoms: C_17  and  C_26
    9  A    between atoms: C_18  and  C_23
   10  A    between atoms: C_18  and  N_39
   11  A    between atoms: C_18  and  CA_42
   12  A    between atoms: C_19  and  C_30
   13  A    between atoms: C_20  and  O_37
   14  A    between atoms: C_20  and  C_41
   15  A    between atoms: C_24  and  C_33
   16  A    between atoms: C_24  and  C_38
   17  A    between atoms: C_28  and  C_31
   18  A    between atoms: C_30  and  C_32
   19  A    between atoms: C_31  and  C_32
   20  A    between atoms: C_31  and  O_37
   21  A    between atoms: C_32  and  C_34
                            x       y       z     vdW  Elec       q    Type
                         _______ _______ _______ _____ _____    ______ ____

>  <TORSDO>
F 21

$$$$
=
 OpenBabel11062413153D

 42 43  0  0  1  0  0  0  0  0999 V2000
  184.4030  178.5410  143.4660 C   0  0  0  0  0  3  0  0  0  0  0  0
  183.3990  178.7160  142.5950 C   0  0  0  0  0  0  0  0  0  0  0  0
  182.6930  177.0170  139.2810 C   0  0  0  0  0  3  0  0  0  0  0  0
  183.5150  177.7370  138.4070 C   0  0  0  0  0  0  0  0  0  0  0  0
  182.6720  177.3350  140.6400 C   0  0  0  0  0  3  0  0  0  0  0  0
  184.3340  179.0490  140.2690 C   0  0  0  0  0  3  0  0  0  0  0  0
  184.3510  178.7380  138.9080 C   0  0  0  0  0  3  0  0  0  0  0  0
  183.4730  178.3710  141.1470 C   0  0  0  0  0  0  0  0  0  0  0  0
  183.4980  177.4680  136.9350 C   0  0  0  0  0  2  0  0  0  0  0  0
  184.6360  175.4460  137.5110 O   0  0  0  0  0  1  0  0  0  0  0  0
  184.5390  176.4260  136.5210 C   0  0  2  0  0  3  0  0  0  0  0  0
  186.1570  177.5240  135.1420 O   0  0  0  0  0  0  0  0  0  0  0  0
  185.8820  177.0350  136.2710 C   0  0  0  0  0  0  0  0  0  0  0  0
  186.8560  177.0230  137.3170 N   0  0  0  0  0  2  0  0  0  0  0  0
  188.2490  177.4120  137.1260 C   0  0  2  0  0  3  0  0  0  0  0  0
  188.9290  174.4260  135.7750 O   0  0  0  0  0  0  0  0  0  0  0  0
  189.3310  175.3710  136.5020 C   0  0  0  0  0  0  0  0  0  0  0  0
  190.3970  176.3960  136.8980 N   0  0  0  0  0  2  0  0  0  0  0  0
  189.1660  176.2700  137.5470 C   0  0  1  0  0  3  0  0  0  0  0  0
  188.5060  178.5910  139.3220 O   0  0  0  0  0  1  0  0  0  0  0  0
  188.9530  179.6810  137.3560 O   0  0  0  0  0  0  0  0  0  0  0  0
  188.5680  178.6310  137.9330 C   0  0  0  0  0  0  0  0  0  0  0  0
  185.7620  177.9810  143.1670 C   0  0  0  0  0  2  0  0  0  0  0  0
  186.7970  178.1960  144.2800 C   0  0  2  0  0  3  0  0  0  0  0  0
  188.2490  177.9140  143.8630 C   0  0  2  0  0  3  0  0  0  0  0  0
  188.2060  175.6390  143.2280 O   0  0  0  0  0  0  0  0  0  0  0  0
  188.3490  176.7970  142.8690 C   0  0  0  0  0  3  0  0  0  0  0  0
  189.0150  177.6180  144.9960 O   0  0  0  0  0  0  0  0  0  0  0  0
  190.3240  177.9760  144.6600 C   0  0  0  0  0  2  0  0  0  0  0  0
  191.2940  176.9260  145.1710 C   0  0  0  0  0  2  0  0  0  0  0  0
  191.6950  176.4730  142.8660 O   0  0  0  0  0  0  0  0  0  0  0  0
  191.7190  176.0450  144.0500 C   0  0  0  0  0  0  0  0  0  0  0  0
  192.1770  174.7600  144.3120 O   0  0  0  0  0  1  0  0  0  0  0  0
  186.3900  177.5700  145.6130 C   0  0  0  0  0  2  0  0  0  0  0  0
  186.0470  178.6410  146.6400 C   0  0  0  0  0  2  0  0  0  0  0  0
  187.9700  177.4940  147.7500 C   0  0  0  0  0  1  0  0  0  0  0  0
  186.7690  178.3970  147.9560 C   0  0  0  0  0  2  0  0  0  0  0  0
  182.1650  179.3690  143.1390 C   0  0  0  0  0  2  0  0  0  0  0  0
  181.3110  178.4190  143.7690 O   0  0  0  0  0  0  0  0  0  0  0  0
  179.9830  178.2300  143.3800 C   0  0  0  0  0  0  0  0  0  0  0  0
  179.0350  178.7020  144.0610 O   0  0  0  0  0  0  0  0  0  0  0  0
  179.7130  177.5230  142.2570 F   0  0  0  0  0  0  0  0  0  0  0  0
  2 38  1  0  0  0  0
  2  1  2  0  0  0  0
  3  5  1  0  0  0  0
  4  7  1  0  0  0  0
  4  3  2  0  0  0  0
  5  8  2  0  0  0  0
  6  8  1  0  0  0  0
  7  6  2  0  0  0  0
  8  2  1  0  0  0  0
  9  4  1  0  0  0  0
 11  9  1  0  0  0  0
 11 10  1  1  0  0  0
 12 13  2  0  0  0  0
 13 11  1  0  0  0  0
 13 14  1  0  0  0  0
 15 14  1  1  0  0  0
 15 22  1  0  0  0  0
 16 17  2  0  0  0  0
 17 18  1  0  0  0  0
 17 19  1  0  0  0  0
 18 19  1  0  0  0  0
 19 15  1  6  0  0  0
 21 22  2  0  0  0  0
 22 20  1  0  0  0  0
 23  1  1  0  0  0  0
 24 23  1  6  0  0  0
 24 34  1  0  0  0  0
 25 27  1  6  0  0  0
 25 24  1  0  0  0  0
 25 28  1  0  0  0  0
 27 26  2  0  0  0  0
 29 28  1  0  0  0  0
 29 30  1  0  0  0  0
 31 32  2  0  0  0  0
 32 33  1  0  0  0  0
 32 30  1  0  0  0  0
 34 35  1  0  0  0  0
 35 37  1  0  0  0  0
 36 37  1  0  0  0  0
 38 39  1  0  0  0  0
 40 39  1  0  0  0  0
 40 41  2  0  0  0  0
 42 40  1  0  0  0  0
M  END
>  <MODEL>
9

>  <REMARK>
 VINA RESULT:      -6.2      2.758      6.787
  Name = 
  21 active torsions:
  status: ('A' for Active; 'I' for Inactive)
    1  A    between atoms: C_3  and  O_8
    2  A    between atoms: C_7  and  C_19
    3  A    between atoms: O_8  and  C_33
    4  A    between atoms: C_9  and  C_10
    5  A    between atoms: C_10  and  C_26
    6  A    between atoms: C_12  and  C_41
    7  A    between atoms: C_13  and  C_34
    8  A    between atoms: C_17  and  C_26
    9  A    between atoms: C_18  and  C_23
   10  A    between atoms: C_18  and  N_39
   11  A    between atoms: C_18  and  CA_42
   12  A    between atoms: C_19  and  C_30
   13  A    between atoms: C_20  and  O_37
   14  A    between atoms: C_20  and  C_41
   15  A    between atoms: C_24  and  C_33
   16  A    between atoms: C_24  and  C_38
   17  A    between atoms: C_28  and  C_31
   18  A    between atoms: C_30  and  C_32
   19  A    between atoms: C_31  and  C_32
   20  A    between atoms: C_31  and  O_37
   21  A    between atoms: C_32  and  C_34
                            x       y       z     vdW  Elec       q    Type
                         _______ _______ _______ _____ _____    ______ ____

>  <TORSDO>
F 21

$$$$
