=
 OpenBabel11062416353D

 29 34  0  0  1  0  0  0  0  0999 V2000
  188.5230  178.3490  143.7070 C   0  0  1  0  0  3  0  0  0  0  0  0
  190.2430  177.7130  142.1010 N   0  0  0  0  0  0  0  0  0  0  0  0
  191.1270  176.5700  141.9980 C   0  0  0  0  0  2  0  0  0  0  0  0
  186.7830  178.0630  137.4940 C   0  0  0  0  0  2  0  0  0  0  0  0
  188.4120  177.3280  135.8560 N   0  0  0  0  0  1  0  0  0  0  0  0
  186.6150  178.6720  138.8100 N   0  0  0  0  0  2  0  0  0  0  0  0
  190.0620  178.1470  143.4840 C   0  0  2  0  0  3  0  0  0  0  0  0
  188.9690  177.7100  141.4840 C   0  0  0  0  0  0  0  0  0  0  0  0
  187.9880  178.0170  142.3610 C   0  0  0  0  0  0  0  0  0  0  0  0
  189.1410  178.4100  137.7920 O   0  0  0  0  0  0  0  0  0  0  0  0
  190.7180  177.0670  144.3370 C   0  0  0  0  0  2  0  0  0  0  0  0
  189.6490  177.8660  138.9980 C   0  0  1  0  0  3  0  0  0  0  0  0
  188.1840  177.5210  137.2760 C   0  0  1  0  0  3  0  0  0  0  0  0
  188.6330  177.8650  140.1280 C   0  0  0  0  0  0  0  0  0  0  0  0
  186.6310  178.5590  141.5450 S   0  0  0  0  0  0  0  0  0  0  0  0
  191.6520  176.3190  143.4000 C   0  0  0  0  0  2  0  0  0  0  0  0
  187.2880  178.2780  140.0120 C   0  0  0  0  0  0  0  0  0  0  0  0
  188.6330  177.6390  146.0530 N   0  0  0  0  0  2  0  0  0  0  0  0
  186.2820  177.6800  146.5740 C   0  0  0  0  0  2  0  0  0  0  0  0
  187.6690  177.3760  147.1140 C   0  0  2  0  0  3  0  0  0  0  0  0
  187.8960  177.4810  144.8080 C   0  0  1  0  0  3  0  0  0  0  0  0
  186.4640  177.8880  145.0930 C   0  0  0  0  0  2  0  0  0  0  0  0
  187.2280  179.3730  148.3340 F   0  0  0  0  0  0  0  0  0  0  0  0
  187.9870  178.2170  148.3480 C   0  0  0  0  0  0  0  0  0  0  0  0
  187.6790  177.4970  149.4880 F   0  0  0  0  0  0  0  0  0  0  0  0
  189.3290  178.5520  148.3730 F   0  0  0  0  0  0  0  0  0  0  0  0
  191.2120  176.6080  137.6770 C   0  0  0  0  0  2  0  0  0  0  0  0
  191.7140  176.7280  139.0310 C   0  0  0  0  0  2  0  0  0  0  0  0
  190.2690  176.5460  138.8120 N   0  0  0  0  0  0  0  0  0  0  0  0
  1  9  1  6  0  0  0
  1 21  1  0  0  0  0
  2  7  1  0  0  0  0
  3  2  1  0  0  0  0
  3 16  1  0  0  0  0
  4  6  1  0  0  0  0
  6 17  1  0  0  0  0
  7  1  1  0  0  0  0
  7 11  1  1  0  0  0
  8  2  1  0  0  0  0
  8  9  2  0  0  0  0
 10 12  1  0  0  0  0
 12 29  1  6  0  0  0
 12 14  1  0  0  0  0
 13  5  1  6  0  0  0
 13  4  1  0  0  0  0
 13 10  1  0  0  0  0
 14  8  1  0  0  0  0
 15  9  1  0  0  0  0
 16 11  1  0  0  0  0
 17 14  2  0  0  0  0
 17 15  1  0  0  0  0
 18 20  1  0  0  0  0
 19 20  1  0  0  0  0
 20 24  1  1  0  0  0
 21 22  1  1  0  0  0
 21 18  1  0  0  0  0
 22 19  1  0  0  0  0
 23 24  1  0  0  0  0
 24 26  1  0  0  0  0
 24 25  1  0  0  0  0
 27 29  1  0  0  0  0
 27 28  1  0  0  0  0
 29 28  1  0  0  0  0
M  END
>  <MODEL>
1

>  <REMARK>
 VINA RESULT:      -9.2      0.000      0.000
  Name = 
  3 active torsions:
  status: ('A' for Active; 'I' for Inactive)
    1  A    between atoms: C_1  and  C_12
    2  A    between atoms: C_7  and  C_9
    3  A    between atoms: C_20  and  N_29
                            x       y       z     vdW  Elec       q    Type
                         _______ _______ _______ _____ _____    ______ ____

>  <TORSDO>
F 3

$$$$
=
 OpenBabel11062416353D

 29 34  0  0  1  0  0  0  0  0999 V2000
  187.8120  177.2890  144.1610 C   0  0  1  0  0  3  0  0  0  0  0  0
  185.4310  177.7300  144.4520 N   0  0  0  0  0  0  0  0  0  0  0  0
  184.6850  178.5670  145.3680 C   0  0  0  0  0  2  0  0  0  0  0  0
  184.5500  179.3610  138.9850 C   0  0  0  0  0  2  0  0  0  0  0  0
  182.2060  179.9270  139.2300 N   0  0  0  0  0  1  0  0  0  0  0  0
  185.6420  178.5630  139.5360 N   0  0  0  0  0  2  0  0  0  0  0  0
  186.5720  177.0850  145.0990 C   0  0  2  0  0  3  0  0  0  0  0  0
  185.8750  178.2270  143.2030 C   0  0  0  0  0  0  0  0  0  0  0  0
  187.2010  178.0360  143.0310 C   0  0  0  0  0  0  0  0  0  0  0  0
  183.1430  178.2990  140.6170 O   0  0  0  0  0  0  0  0  0  0  0  0
  186.6720  177.7280  146.4770 C   0  0  0  0  0  2  0  0  0  0  0  0
  183.6280  178.4090  141.9450 C   0  0  1  0  0  3  0  0  0  0  0  0
  183.3920  179.5120  139.9550 C   0  0  1  0  0  3  0  0  0  0  0  0
  185.1430  178.4630  142.0250 C   0  0  0  0  0  0  0  0  0  0  0  0
  187.5870  178.0890  141.4020 S   0  0  0  0  0  0  0  0  0  0  0  0
  185.3130  178.3570  146.7340 C   0  0  0  0  0  2  0  0  0  0  0  0
  186.0160  178.4860  140.9160 C   0  0  0  0  0  0  0  0  0  0  0  0
  189.3380  177.4700  146.0740 N   0  0  0  0  0  2  0  0  0  0  0  0
  191.3870  177.9090  144.8850 C   0  0  0  0  0  2  0  0  0  0  0  0
  190.7570  177.7460  146.2580 C   0  0  2  0  0  3  0  0  0  0  0  0
  188.9920  178.0490  144.7840 C   0  0  1  0  0  3  0  0  0  0  0  0
  190.2330  177.9600  143.9180 C   0  0  0  0  0  2  0  0  0  0  0  0
  192.0300  177.1490  148.1790 F   0  0  0  0  0  0  0  0  0  0  0  0
  191.4240  176.6260  147.0520 C   0  0  0  0  0  0  0  0  0  0  0  0
  190.4670  175.7080  147.4470 F   0  0  0  0  0  0  0  0  0  0  0  0
  192.3740  175.9840  146.2790 F   0  0  0  0  0  0  0  0  0  0  0  0
  181.5280  179.3410  142.6490 C   0  0  0  0  0  2  0  0  0  0  0  0
  182.2640  178.8810  143.8090 C   0  0  0  0  0  2  0  0  0  0  0  0
  182.9950  179.5050  142.6930 N   0  0  0  0  0  0  0  0  0  0  0  0
  1  9  1  6  0  0  0
  1 21  1  0  0  0  0
  1  7  1  0  0  0  0
  2  7  1  0  0  0  0
  2  3  1  0  0  0  0
  3 16  1  0  0  0  0
  4  6  1  0  0  0  0
  4 13  1  0  0  0  0
  6 17  1  0  0  0  0
  7 11  1  1  0  0  0
  8  2  1  0  0  0  0
  9  8  2  0  0  0  0
 10 12  1  0  0  0  0
 11 16  1  0  0  0  0
 12 14  1  0  0  0  0
 12 29  1  6  0  0  0
 13  5  1  6  0  0  0
 13 10  1  0  0  0  0
 14  8  1  0  0  0  0
 15  9  1  0  0  0  0
 17 15  1  0  0  0  0
 17 14  2  0  0  0  0
 18 20  1  0  0  0  0
 19 20  1  0  0  0  0
 20 24  1  6  0  0  0
 21 22  1  6  0  0  0
 21 18  1  0  0  0  0
 22 19  1  0  0  0  0
 24 25  1  0  0  0  0
 24 23  1  0  0  0  0
 26 24  1  0  0  0  0
 27 29  1  0  0  0  0
 27 28  1  0  0  0  0
 29 28  1  0  0  0  0
M  END
>  <MODEL>
2

>  <REMARK>
 VINA RESULT:      -8.5      3.294      5.446
  Name = 
  3 active torsions:
  status: ('A' for Active; 'I' for Inactive)
    1  A    between atoms: C_1  and  C_12
    2  A    between atoms: C_7  and  C_9
    3  A    between atoms: C_20  and  N_29
                            x       y       z     vdW  Elec       q    Type
                         _______ _______ _______ _____ _____    ______ ____

>  <TORSDO>
F 3

$$$$
=
 OpenBabel11062416353D

 29 34  0  0  1  0  0  0  0  0999 V2000
  188.4850  176.7760  144.0460 C   0  0  1  0  0  3  0  0  0  0  0  0
  186.4720  177.5710  142.9210 N   0  0  0  0  0  0  0  0  0  0  0  0
  185.5440  178.6470  143.1980 C   0  0  0  0  0  2  0  0  0  0  0  0
  189.0200  178.3130  137.7950 C   0  0  0  0  0  2  0  0  0  0  0  0
  187.0870  179.2160  136.6430 N   0  0  0  0  0  1  0  0  0  0  0  0
  189.4530  177.4880  138.9190 N   0  0  0  0  0  2  0  0  0  0  0  0
  186.9250  176.9060  144.1420 C   0  0  2  0  0  3  0  0  0  0  0  0
  187.6080  177.7770  142.1010 C   0  0  0  0  0  0  0  0  0  0  0  0
  188.7460  177.3860  142.7160 C   0  0  0  0  0  0  0  0  0  0  0  0
  186.7740  177.7500  138.4330 O   0  0  0  0  0  0  0  0  0  0  0  0
  186.4010  177.7630  145.2870 C   0  0  0  0  0  2  0  0  0  0  0  0
  186.4810  178.0280  139.7920 C   0  0  1  0  0  3  0  0  0  0  0  0
  187.5840  178.7840  137.9360 C   0  0  1  0  0  3  0  0  0  0  0  0
  187.6890  177.8950  140.7030 C   0  0  0  0  0  0  0  0  0  0  0  0
  189.9460  177.1000  141.5830 S   0  0  0  0  0  0  0  0  0  0  0  0
  185.2820  178.6000  144.6920 C   0  0  0  0  0  2  0  0  0  0  0  0
  189.0030  177.6080  140.2730 C   0  0  0  0  0  0  0  0  0  0  0  0
  189.6270  176.5140  146.2020 N   0  0  0  0  0  2  0  0  0  0  0  0
  191.5570  177.8930  145.7800 C   0  0  0  0  0  2  0  0  0  0  0  0
  190.8490  177.0270  146.8080 C   0  0  2  0  0  3  0  0  0  0  0  0
  189.2750  177.4720  145.1640 C   0  0  1  0  0  3  0  0  0  0  0  0
  190.5750  178.0570  144.6490 C   0  0  0  0  0  2  0  0  0  0  0  0
  190.9520  174.8710  147.8120 F   0  0  0  0  0  0  0  0  0  0  0  0
  191.7360  175.8780  147.2810 C   0  0  0  0  0  0  0  0  0  0  0  0
  192.4450  175.3700  146.2070 F   0  0  0  0  0  0  0  0  0  0  0  0
  192.6270  176.3190  148.2430 F   0  0  0  0  0  0  0  0  0  0  0  0
  184.5780  179.3360  139.1310 C   0  0  0  0  0  2  0  0  0  0  0  0
  184.4640  178.9970  140.5350 C   0  0  0  0  0  2  0  0  0  0  0  0
  185.7890  179.3120  139.9750 N   0  0  0  0  0  0  0  0  0  0  0  0
  1  9  1  6  0  0  0
  1  7  1  0  0  0  0
  1 21  1  0  0  0  0
  2  3  1  0  0  0  0
  2  7  1  0  0  0  0
  3 16  1  0  0  0  0
  4 13  1  0  0  0  0
  4  6  1  0  0  0  0
  6 17  1  0  0  0  0
  7 11  1  1  0  0  0
  8  9  2  0  0  0  0
  8  2  1  0  0  0  0
 10 12  1  0  0  0  0
 12 29  1  6  0  0  0
 12 14  1  0  0  0  0
 13  5  1  6  0  0  0
 13 10  1  0  0  0  0
 14  8  1  0  0  0  0
 15  9  1  0  0  0  0
 16 11  1  0  0  0  0
 17 14  2  0  0  0  0
 17 15  1  0  0  0  0
 18 20  1  0  0  0  0
 19 20  1  0  0  0  0
 20 24  1  6  0  0  0
 21 22  1  6  0  0  0
 21 18  1  0  0  0  0
 22 19  1  0  0  0  0
 24 23  1  0  0  0  0
 24 26  1  0  0  0  0
 25 24  1  0  0  0  0
 27 29  1  0  0  0  0
 27 28  1  0  0  0  0
 29 28  1  0  0  0  0
M  END
>  <MODEL>
3

>  <REMARK>
 VINA RESULT:      -8.5      2.463      4.180
  Name = 
  3 active torsions:
  status: ('A' for Active; 'I' for Inactive)
    1  A    between atoms: C_1  and  C_12
    2  A    between atoms: C_7  and  C_9
    3  A    between atoms: C_20  and  N_29
                            x       y       z     vdW  Elec       q    Type
                         _______ _______ _______ _____ _____    ______ ____

>  <TORSDO>
F 3

$$$$
=
 OpenBabel11062416353D

 29 34  0  0  1  0  0  0  0  0999 V2000
  184.5870  179.1670  142.9840 C   0  0  1  0  0  3  0  0  0  0  0  0
  186.0880  178.7530  144.8610 N   0  0  0  0  0  0  0  0  0  0  0  0
  185.9700  177.9570  146.0650 C   0  0  0  0  0  2  0  0  0  0  0  0
  190.4800  176.9150  141.5970 C   0  0  0  0  0  2  0  0  0  0  0  0
  191.9840  176.3740  143.4200 N   0  0  0  0  0  1  0  0  0  0  0  0
  189.3310  177.7270  141.2090 N   0  0  0  0  0  2  0  0  0  0  0  0
  184.8320  179.4150  144.5130 C   0  0  2  0  0  3  0  0  0  0  0  0
  186.6250  178.2050  143.6710 C   0  0  0  0  0  0  0  0  0  0  0  0
  185.7940  178.3800  142.6200 C   0  0  0  0  0  0  0  0  0  0  0  0
  190.3830  178.0480  143.7130 O   0  0  0  0  0  0  0  0  0  0  0  0
  183.7890  178.8260  145.4540 C   0  0  0  0  0  2  0  0  0  0  0  0
  189.1110  177.9870  144.3340 C   0  0  1  0  0  3  0  0  0  0  0  0
  190.6360  176.8090  143.1030 C   0  0  1  0  0  3  0  0  0  0  0  0
  187.9630  177.9280  143.3410 C   0  0  0  0  0  0  0  0  0  0  0  0
  186.6460  178.2610  141.1840 S   0  0  0  0  0  0  0  0  0  0  0  0
  184.5740  178.2170  146.6030 C   0  0  0  0  0  2  0  0  0  0  0  0
  188.1050  177.8550  141.9380 C   0  0  0  0  0  0  0  0  0  0  0  0
  182.1350  179.2560  142.9510 N   0  0  0  0  0  2  0  0  0  0  0  0
  181.7470  178.2300  140.8060 C   0  0  0  0  0  2  0  0  0  0  0  0
  181.0850  178.8280  142.0350 C   0  0  2  0  0  3  0  0  0  0  0  0
  183.2880  178.4250  142.6360 C   0  0  1  0  0  3  0  0  0  0  0  0
  183.2070  178.1050  141.1570 C   0  0  0  0  0  2  0  0  0  0  0  0
  180.7200  180.6930  140.6000 F   0  0  0  0  0  0  0  0  0  0  0  0
  180.1800  180.0030  141.6700 C   0  0  0  0  0  0  0  0  0  0  0  0
  178.9320  179.5290  141.3100 F   0  0  0  0  0  0  0  0  0  0  0  0
  180.0460  180.8620  142.7460 F   0  0  0  0  0  0  0  0  0  0  0  0
  190.1450  177.0620  146.2950 C   0  0  0  0  0  2  0  0  0  0  0  0
  188.8450  177.6000  146.6450 C   0  0  0  0  0  2  0  0  0  0  0  0
  189.0210  176.9260  145.3470 N   0  0  0  0  0  0  0  0  0  0  0  0
  1  9  1  1  0  0  0
  1  7  1  0  0  0  0
  2  3  1  0  0  0  0
  3 16  1  0  0  0  0
  4 13  1  0  0  0  0
  6  4  1  0  0  0  0
  6 17  1  0  0  0  0
  7  2  1  0  0  0  0
  7 11  1  1  0  0  0
  8  2  1  0  0  0  0
  9  8  2  0  0  0  0
 10 12  1  0  0  0  0
 11 16  1  0  0  0  0
 12 29  1  1  0  0  0
 13  5  1  6  0  0  0
 13 10  1  0  0  0  0
 14  8  1  0  0  0  0
 14 12  1  0  0  0  0
 15 17  1  0  0  0  0
 15  9  1  0  0  0  0
 17 14  2  0  0  0  0
 19 22  1  0  0  0  0
 19 20  1  0  0  0  0
 20 24  1  6  0  0  0
 20 18  1  0  0  0  0
 21 22  1  6  0  0  0
 21 18  1  0  0  0  0
 21  1  1  0  0  0  0
 23 24  1  0  0  0  0
 24 26  1  0  0  0  0
 25 24  1  0  0  0  0
 27 28  1  0  0  0  0
 29 27  1  0  0  0  0
 29 28  1  0  0  0  0
M  END
>  <MODEL>
4

>  <REMARK>
 VINA RESULT:      -8.5      4.565      6.926
  Name = 
  3 active torsions:
  status: ('A' for Active; 'I' for Inactive)
    1  A    between atoms: C_1  and  C_12
    2  A    between atoms: C_7  and  C_9
    3  A    between atoms: C_20  and  N_29
                            x       y       z     vdW  Elec       q    Type
                         _______ _______ _______ _____ _____    ______ ____

>  <TORSDO>
F 3

$$$$
=
 OpenBabel11062416353D

 29 34  0  0  1  0  0  0  0  0999 V2000
  185.1100  178.9160  142.5960 C   0  0  1  0  0  3  0  0  0  0  0  0
  185.9280  178.8020  144.8910 N   0  0  0  0  0  0  0  0  0  0  0  0
  185.4140  178.1830  146.0950 C   0  0  0  0  0  2  0  0  0  0  0  0
  191.0750  176.6030  143.4790 C   0  0  0  0  0  2  0  0  0  0  0  0
  191.9110  176.3560  145.7410 N   0  0  0  0  0  1  0  0  0  0  0  0
  190.1300  177.3290  142.6360 N   0  0  0  0  0  2  0  0  0  0  0  0
  184.8660  179.3840  144.0730 C   0  0  2  0  0  3  0  0  0  0  0  0
  186.7990  178.1000  144.0220 C   0  0  0  0  0  0  0  0  0  0  0  0
  186.3480  178.1090  142.7480 C   0  0  0  0  0  0  0  0  0  0  0  0
  190.3460  178.0240  145.2730 O   0  0  0  0  0  0  0  0  0  0  0  0
  183.5630  178.9150  144.7090 C   0  0  0  0  0  2  0  0  0  0  0  0
  188.9410  178.0270  145.4610 C   0  0  1  0  0  3  0  0  0  0  0  0
  190.7450  176.7150  144.9560 C   0  0  1  0  0  3  0  0  0  0  0  0
  188.1650  177.8050  144.1750 C   0  0  0  0  0  0  0  0  0  0  0  0
  187.6070  177.8030  141.6870 S   0  0  0  0  0  0  0  0  0  0  0  0
  183.9280  178.4900  146.1210 C   0  0  0  0  0  2  0  0  0  0  0  0
  188.7410  177.5360  142.9140 C   0  0  0  0  0  0  0  0  0  0  0  0
  182.6950  178.7780  142.1830 N   0  0  0  0  0  2  0  0  0  0  0  0
  182.7430  178.0080  139.9010 C   0  0  0  0  0  2  0  0  0  0  0  0
  181.8450  178.3770  141.0690 C   0  0  2  0  0  3  0  0  0  0  0  0
  183.9680  178.1070  141.9640 C   0  0  1  0  0  3  0  0  0  0  0  0
  184.1410  177.9760  140.4630 C   0  0  0  0  0  2  0  0  0  0  0  0
  179.7230  178.9630  140.1610 F   0  0  0  0  0  0  0  0  0  0  0  0
  180.8780  179.5000  140.7000 C   0  0  0  0  0  0  0  0  0  0  0  0
  180.5470  180.2150  141.8370 F   0  0  0  0  0  0  0  0  0  0  0  0
  181.4570  180.3550  139.7800 F   0  0  0  0  0  0  0  0  0  0  0  0
  189.2860  177.4020  147.7550 C   0  0  0  0  0  2  0  0  0  0  0  0
  187.9610  177.9680  147.6050 C   0  0  0  0  0  2  0  0  0  0  0  0
  188.5070  177.1200  146.5320 N   0  0  0  0  0  0  0  0  0  0  0  0
  1  9  1  1  0  0  0
  1  7  1  0  0  0  0
  2  3  1  0  0  0  0
  3 16  1  0  0  0  0
  4 13  1  0  0  0  0
  6 17  1  0  0  0  0
  6  4  1  0  0  0  0
  7 11  1  1  0  0  0
  7  2  1  0  0  0  0
  8 14  1  0  0  0  0
  8  2  1  0  0  0  0
  9  8  2  0  0  0  0
 10 12  1  0  0  0  0
 11 16  1  0  0  0  0
 12 29  1  1  0  0  0
 13 10  1  0  0  0  0
 13  5  1  1  0  0  0
 14 12  1  0  0  0  0
 15  9  1  0  0  0  0
 15 17  1  0  0  0  0
 17 14  2  0  0  0  0
 19 22  1  0  0  0  0
 19 20  1  0  0  0  0
 20 24  1  6  0  0  0
 20 18  1  0  0  0  0
 21 22  1  6  0  0  0
 21 18  1  0  0  0  0
 21  1  1  0  0  0  0
 23 24  1  0  0  0  0
 24 25  1  0  0  0  0
 26 24  1  0  0  0  0
 28 27  1  0  0  0  0
 29 28  1  0  0  0  0
 29 27  1  0  0  0  0
M  END
>  <MODEL>
5

>  <REMARK>
 VINA RESULT:      -8.4      4.627      7.503
  Name = 
  3 active torsions:
  status: ('A' for Active; 'I' for Inactive)
    1  A    between atoms: C_1  and  C_12
    2  A    between atoms: C_7  and  C_9
    3  A    between atoms: C_20  and  N_29
                            x       y       z     vdW  Elec       q    Type
                         _______ _______ _______ _____ _____    ______ ____

>  <TORSDO>
F 3

$$$$
=
 OpenBabel11062416353D

 29 34  0  0  1  0  0  0  0  0999 V2000
  187.9630  178.3720  140.3600 C   0  0  1  0  0  3  0  0  0  0  0  0
  187.0170  178.5490  142.6010 N   0  0  0  0  0  0  0  0  0  0  0  0
  185.8070  178.0350  143.2080 C   0  0  0  0  0  2  0  0  0  0  0  0
  191.7000  176.5070  145.2880 C   0  0  0  0  0  2  0  0  0  0  0  0
  190.7840  176.5490  147.5320 N   0  0  0  0  0  1  0  0  0  0  0  0
  191.5930  177.0840  143.9510 N   0  0  0  0  0  2  0  0  0  0  0  0
  186.8020  178.9800  141.2210 C   0  0  2  0  0  3  0  0  0  0  0  0
  188.2240  177.8100  142.6330 C   0  0  0  0  0  0  0  0  0  0  0  0
  188.7500  177.6570  141.3980 C   0  0  0  0  0  0  0  0  0  0  0  0
  189.9960  178.0670  145.9420 O   0  0  0  0  0  0  0  0  0  0  0  0
  185.3970  178.5090  140.8640 C   0  0  0  0  0  2  0  0  0  0  0  0
  188.8320  178.0110  145.1350 C   0  0  1  0  0  3  0  0  0  0  0  0
  190.4640  176.7570  146.1320 C   0  0  1  0  0  3  0  0  0  0  0  0
  189.1200  177.6100  143.6980 C   0  0  0  0  0  0  0  0  0  0  0  0
  190.3850  177.3110  141.5050 S   0  0  0  0  0  0  0  0  0  0  0  0
  184.7020  178.2580  142.1920 C   0  0  0  0  0  2  0  0  0  0  0  0
  190.3870  177.2410  143.1960 C   0  0  0  0  0  0  0  0  0  0  0  0
  186.9250  178.2070  138.1430 N   0  0  0  0  0  2  0  0  0  0  0  0
  188.3840  176.5600  137.1620 C   0  0  0  0  0  2  0  0  0  0  0  0
  187.1580  177.4270  136.9340 C   0  0  2  0  0  3  0  0  0  0  0  0
  187.5230  177.4370  139.2240 C   0  0  1  0  0  3  0  0  0  0  0  0
  188.6980  176.6880  138.6300 C   0  0  0  0  0  2  0  0  0  0  0  0
  187.3310  179.6670  136.1430 F   0  0  0  0  0  0  0  0  0  0  0  0
  187.3370  178.3480  135.7290 C   0  0  0  0  0  0  0  0  0  0  0  0
  188.5500  178.0780  135.1200 F   0  0  0  0  0  0  0  0  0  0  0  0
  186.3180  178.1520  134.8150 F   0  0  0  0  0  0  0  0  0  0  0  0
  187.5220  177.6530  147.1170 C   0  0  0  0  0  2  0  0  0  0  0  0
  186.6620  178.1260  146.0510 C   0  0  0  0  0  2  0  0  0  0  0  0
  187.7620  177.2000  145.7310 N   0  0  0  0  0  0  0  0  0  0  0  0
  1  7  1  0  0  0  0
  1  9  1  1  0  0  0
  2  8  1  0  0  0  0
  2  3  1  0  0  0  0
  4 13  1  0  0  0  0
  6  4  1  0  0  0  0
  7 11  1  6  0  0  0
  7  2  1  0  0  0  0
  8 14  1  0  0  0  0
  9 15  1  0  0  0  0
  9  8  2  0  0  0  0
 10 13  1  0  0  0  0
 11 16  1  0  0  0  0
 12 29  1  1  0  0  0
 12 10  1  0  0  0  0
 13  5  1  1  0  0  0
 14 12  1  0  0  0  0
 15 17  1  0  0  0  0
 16  3  1  0  0  0  0
 17 14  2  0  0  0  0
 17  6  1  0  0  0  0
 18 21  1  0  0  0  0
 19 22  1  0  0  0  0
 20 24  1  6  0  0  0
 20 19  1  0  0  0  0
 20 18  1  0  0  0  0
 21 22  1  6  0  0  0
 21  1  1  0  0  0  0
 24 23  1  0  0  0  0
 25 24  1  0  0  0  0
 26 24  1  0  0  0  0
 28 27  1  0  0  0  0
 29 28  1  0  0  0  0
 29 27  1  0  0  0  0
M  END
>  <MODEL>
6

>  <REMARK>
 VINA RESULT:      -8.3      4.774      8.266
  Name = 
  3 active torsions:
  status: ('A' for Active; 'I' for Inactive)
    1  A    between atoms: C_1  and  C_12
    2  A    between atoms: C_7  and  C_9
    3  A    between atoms: C_20  and  N_29
                            x       y       z     vdW  Elec       q    Type
                         _______ _______ _______ _____ _____    ______ ____

>  <TORSDO>
F 3

$$$$
=
 OpenBabel11062416353D

 29 34  0  0  1  0  0  0  0  0999 V2000
  185.6400  179.1880  141.5850 C   0  0  1  0  0  3  0  0  0  0  0  0
  186.0430  178.8370  143.9640 N   0  0  0  0  0  0  0  0  0  0  0  0
  185.3320  178.1030  144.9900 C   0  0  0  0  0  2  0  0  0  0  0  0
  191.3830  176.7580  143.2690 C   0  0  0  0  0  2  0  0  0  0  0  0
  191.8090  176.2780  145.6070 N   0  0  0  0  0  1  0  0  0  0  0  0
  190.5930  177.5720  142.3500 N   0  0  0  0  0  2  0  0  0  0  0  0
  185.1340  179.5060  143.0350 C   0  0  2  0  0  3  0  0  0  0  0  0
  187.0610  178.2210  143.1960 C   0  0  0  0  0  0  0  0  0  0  0  0
  186.8410  178.3610  141.8700 C   0  0  0  0  0  0  0  0  0  0  0  0
  190.3320  177.9950  145.0400 O   0  0  0  0  0  0  0  0  0  0  0  0
  183.7450  178.9830  143.3800 C   0  0  0  0  0  2  0  0  0  0  0  0
  188.9160  177.9890  144.9770 C   0  0  1  0  0  3  0  0  0  0  0  0
  190.7960  176.7220  144.6680 C   0  0  1  0  0  3  0  0  0  0  0  0
  188.3820  177.9030  143.5580 C   0  0  0  0  0  0  0  0  0  0  0  0
  188.2710  178.1560  141.0230 S   0  0  0  0  0  0  0  0  0  0  0  0
  183.8600  178.4150  144.7850 C   0  0  0  0  0  2  0  0  0  0  0  0
  189.1740  177.7590  142.3980 C   0  0  0  0  0  0  0  0  0  0  0  0
  183.3960  179.2110  140.5910 N   0  0  0  0  0  2  0  0  0  0  0  0
  183.9510  178.4280  138.3810 C   0  0  0  0  0  2  0  0  0  0  0  0
  182.8210  178.8630  139.2980 C   0  0  2  0  0  3  0  0  0  0  0  0
  184.6370  178.4550  140.6820 C   0  0  1  0  0  3  0  0  0  0  0  0
  185.1630  178.3050  139.2680 C   0  0  0  0  0  2  0  0  0  0  0  0
  182.8880  181.1410  138.6090 F   0  0  0  0  0  0  0  0  0  0  0  0
  182.0510  180.0460  138.7170 C   0  0  0  0  0  0  0  0  0  0  0  0
  181.5820  179.7180  137.4570 F   0  0  0  0  0  0  0  0  0  0  0  0
  180.9780  180.3710  139.5290 F   0  0  0  0  0  0  0  0  0  0  0  0
  188.8730  177.1200  147.2160 C   0  0  0  0  0  2  0  0  0  0  0  0
  187.5910  177.7200  146.9080 C   0  0  0  0  0  2  0  0  0  0  0  0
  188.3100  176.9800  145.8570 N   0  0  0  0  0  0  0  0  0  0  0  0
  1  9  1  1  0  0  0
  1  7  1  0  0  0  0
  2  3  1  0  0  0  0
  4 13  1  0  0  0  0
  6 17  1  0  0  0  0
  6  4  1  0  0  0  0
  7 11  1  6  0  0  0
  7  2  1  0  0  0  0
  8 14  1  0  0  0  0
  8  2  1  0  0  0  0
  9  8  2  0  0  0  0
 11 16  1  0  0  0  0
 12 10  1  0  0  0  0
 12 29  1  1  0  0  0
 13 10  1  0  0  0  0
 13  5  1  1  0  0  0
 14 12  1  0  0  0  0
 15  9  1  0  0  0  0
 15 17  1  0  0  0  0
 16  3  1  0  0  0  0
 17 14  2  0  0  0  0
 18 21  1  0  0  0  0
 19 22  1  0  0  0  0
 19 20  1  0  0  0  0
 20 24  1  6  0  0  0
 20 18  1  0  0  0  0
 21 22  1  6  0  0  0
 21  1  1  0  0  0  0
 23 24  1  0  0  0  0
 24 26  1  0  0  0  0
 25 24  1  0  0  0  0
 28 27  1  0  0  0  0
 29 28  1  0  0  0  0
 29 27  1  0  0  0  0
M  END
>  <MODEL>
7

>  <REMARK>
 VINA RESULT:      -8.3      4.717      7.672
  Name = 
  3 active torsions:
  status: ('A' for Active; 'I' for Inactive)
    1  A    between atoms: C_1  and  C_12
    2  A    between atoms: C_7  and  C_9
    3  A    between atoms: C_20  and  N_29
                            x       y       z     vdW  Elec       q    Type
                         _______ _______ _______ _____ _____    ______ ____

>  <TORSDO>
F 3

$$$$
=
 OpenBabel11062416353D

 29 34  0  0  1  0  0  0  0  0999 V2000
  190.3310  177.8450  140.5100 C   0  0  1  0  0  3  0  0  0  0  0  0
  189.2450  177.3350  138.3870 N   0  0  0  0  0  0  0  0  0  0  0  0
  189.1660  176.1360  137.5790 C   0  0  0  0  0  2  0  0  0  0  0  0
  183.9950  179.0240  140.0900 C   0  0  0  0  0  2  0  0  0  0  0  0
  182.8280  178.4350  138.0480 N   0  0  0  0  0  1  0  0  0  0  0  0
  185.2940  179.3730  140.6560 N   0  0  0  0  0  2  0  0  0  0  0  0
  190.5630  177.5030  138.9970 C   0  0  2  0  0  3  0  0  0  0  0  0
  188.2760  177.6130  139.3810 C   0  0  0  0  0  0  0  0  0  0  0  0
  188.8470  177.8570  140.5820 C   0  0  0  0  0  0  0  0  0  0  0  0
  185.0890  179.0100  137.9520 O   0  0  0  0  0  0  0  0  0  0  0  0
  191.3060  176.2020  138.7190 C   0  0  0  0  0  2  0  0  0  0  0  0
  186.2350  178.1770  137.9040 C   0  0  1  0  0  3  0  0  0  0  0  0
  184.1090  178.3680  138.7260 C   0  0  1  0  0  3  0  0  0  0  0  0
  186.9570  178.0770  139.2370 C   0  0  0  0  0  0  0  0  0  0  0  0
  187.7930  178.7150  141.5590 S   0  0  0  0  0  0  0  0  0  0  0  0
  190.5650  175.5470  137.5660 C   0  0  0  0  0  2  0  0  0  0  0  0
  186.5220  178.6670  140.4440 C   0  0  0  0  0  0  0  0  0  0  0  0
  191.6080  177.5820  142.5890 N   0  0  0  0  0  2  0  0  0  0  0  0
  190.3710  175.7620  143.5670 C   0  0  0  0  0  2  0  0  0  0  0  0
  191.5560  176.6960  143.7440 C   0  0  2  0  0  3  0  0  0  0  0  0
  190.9500  176.8590  141.5110 C   0  0  1  0  0  3  0  0  0  0  0  0
  189.8940  175.9810  142.1550 C   0  0  0  0  0  2  0  0  0  0  0  0
  192.0560  178.7330  144.8700 F   0  0  0  0  0  0  0  0  0  0  0  0
  191.4470  177.5030  145.0350 C   0  0  0  0  0  0  0  0  0  0  0  0
  190.1130  177.7040  145.3420 F   0  0  0  0  0  0  0  0  0  0  0  0
  192.0550  176.8290  146.0800 F   0  0  0  0  0  0  0  0  0  0  0  0
  185.2630  177.0270  136.0330 C   0  0  0  0  0  2  0  0  0  0  0  0
  186.6920  176.7920  136.0520 C   0  0  0  0  0  2  0  0  0  0  0  0
  185.9560  176.8560  137.3260 N   0  0  0  0  0  0  0  0  0  0  0  0
  1  9  1  6  0  0  0
  1 21  1  0  0  0  0
  2  7  1  0  0  0  0
  2  8  1  0  0  0  0
  3  2  1  0  0  0  0
  4  6  1  0  0  0  0
  7 11  1  1  0  0  0
  7  1  1  0  0  0  0
  8  9  2  0  0  0  0
  9 15  1  0  0  0  0
 10 13  1  0  0  0  0
 12 29  1  1  0  0  0
 12 10  1  0  0  0  0
 12 14  1  0  0  0  0
 13  5  1  6  0  0  0
 13  4  1  0  0  0  0
 14  8  1  0  0  0  0
 14 17  2  0  0  0  0
 16  3  1  0  0  0  0
 16 11  1  0  0  0  0
 17  6  1  0  0  0  0
 17 15  1  0  0  0  0
 18 20  1  0  0  0  0
 19 20  1  0  0  0  0
 20 24  1  1  0  0  0
 21 22  1  1  0  0  0
 21 18  1  0  0  0  0
 22 19  1  0  0  0  0
 23 24  1  0  0  0  0
 24 25  1  0  0  0  0
 24 26  1  0  0  0  0
 27 28  1  0  0  0  0
 27 29  1  0  0  0  0
 28 29  1  0  0  0  0
M  END
>  <MODEL>
8

>  <REMARK>
 VINA RESULT:      -8.0      2.886      4.460
  Name = 
  3 active torsions:
  status: ('A' for Active; 'I' for Inactive)
    1  A    between atoms: C_1  and  C_12
    2  A    between atoms: C_7  and  C_9
    3  A    between atoms: C_20  and  N_29
                            x       y       z     vdW  Elec       q    Type
                         _______ _______ _______ _____ _____    ______ ____

>  <TORSDO>
F 3

$$$$
=
 OpenBabel11062416353D

 29 34  0  0  1  0  0  0  0  0999 V2000
  188.6440  176.8930  143.8620 C   0  0  1  0  0  3  0  0  0  0  0  0
  187.0620  177.4980  142.1080 N   0  0  0  0  0  0  0  0  0  0  0  0
  186.1820  178.6320  141.9170 C   0  0  0  0  0  2  0  0  0  0  0  0
  190.9030  177.1240  137.8160 C   0  0  0  0  0  2  0  0  0  0  0  0
  189.4140  177.8280  136.0370 N   0  0  0  0  0  1  0  0  0  0  0  0
  190.9630  176.5310  139.1490 N   0  0  0  0  0  2  0  0  0  0  0  0
  187.1280  177.0810  143.5070 C   0  0  2  0  0  3  0  0  0  0  0  0
  188.3840  177.5040  141.6020 C   0  0  0  0  0  0  0  0  0  0  0  0
  189.2890  177.2150  142.5630 C   0  0  0  0  0  0  0  0  0  0  0  0
  188.5310  176.7610  137.9170 O   0  0  0  0  0  0  0  0  0  0  0  0
  186.3950  178.1650  144.2880 C   0  0  0  0  0  2  0  0  0  0  0  0
  187.9190  177.3150  139.0690 C   0  0  1  0  0  3  0  0  0  0  0  0
  189.5220  177.6520  137.4730 C   0  0  1  0  0  3  0  0  0  0  0  0
  188.8350  177.3360  140.2810 C   0  0  0  0  0  0  0  0  0  0  0  0
  190.7140  176.6740  141.8710 S   0  0  0  0  0  0  0  0  0  0  0  0
  185.5390  178.8940  143.2670 C   0  0  0  0  0  2  0  0  0  0  0  0
  190.1880  176.9330  140.2840 C   0  0  0  0  0  0  0  0  0  0  0  0
  188.1110  178.0320  145.9700 N   0  0  0  0  0  2  0  0  0  0  0  0
  190.1290  177.5370  147.1900 C   0  0  0  0  0  2  0  0  0  0  0  0
  188.7900  178.2520  147.2400 C   0  0  2  0  0  3  0  0  0  0  0  0
  189.1690  177.7780  145.0020 C   0  0  1  0  0  3  0  0  0  0  0  0
  190.2990  177.1060  145.7560 C   0  0  0  0  0  2  0  0  0  0  0  0
  188.4220  178.2530  149.5930 F   0  0  0  0  0  0  0  0  0  0  0  0
  187.9310  177.7540  148.4000 C   0  0  0  0  0  0  0  0  0  0  0  0
  186.6310  178.1960  148.2350 F   0  0  0  0  0  0  0  0  0  0  0  0
  187.9370  176.3710  148.4470 F   0  0  0  0  0  0  0  0  0  0  0  0
  186.4480  178.5410  137.6180 C   0  0  0  0  0  2  0  0  0  0  0  0
  185.8520  178.4410  138.9340 C   0  0  0  0  0  2  0  0  0  0  0  0
  187.3080  178.6270  138.8160 N   0  0  0  0  0  0  0  0  0  0  0  0
  1  9  1  6  0  0  0
  1 21  1  0  0  0  0
  2  7  1  0  0  0  0
  3  2  1  0  0  0  0
  3 16  1  0  0  0  0
  4  6  1  0  0  0  0
  6 17  1  0  0  0  0
  7  1  1  0  0  0  0
  7 11  1  1  0  0  0
  8  2  1  0  0  0  0
  8  9  2  0  0  0  0
 10 12  1  0  0  0  0
 12 29  1  6  0  0  0
 12 14  1  0  0  0  0
 13  5  1  6  0  0  0
 13  4  1  0  0  0  0
 13 10  1  0  0  0  0
 14 17  2  0  0  0  0
 14  8  1  0  0  0  0
 15  9  1  0  0  0  0
 16 11  1  0  0  0  0
 17 15  1  0  0  0  0
 18 20  1  0  0  0  0
 19 20  1  0  0  0  0
 20 24  1  1  0  0  0
 21 22  1  1  0  0  0
 21 18  1  0  0  0  0
 22 19  1  0  0  0  0
 24 26  1  0  0  0  0
 24 23  1  0  0  0  0
 25 24  1  0  0  0  0
 27 29  1  0  0  0  0
 27 28  1  0  0  0  0
 29 28  1  0  0  0  0
M  END
>  <MODEL>
9

>  <REMARK>
 VINA RESULT:      -8.0      1.668      3.352
  Name = 
  3 active torsions:
  status: ('A' for Active; 'I' for Inactive)
    1  A    between atoms: C_1  and  C_12
    2  A    between atoms: C_7  and  C_9
    3  A    between atoms: C_20  and  N_29
                            x       y       z     vdW  Elec       q    Type
                         _______ _______ _______ _____ _____    ______ ____

>  <TORSDO>
F 3

$$$$
