=
 OpenBabel11062418093D

 25 27  0  0  1  0  0  0  0  0999 V2000
  188.4290  176.8630  143.4860 C   0  0  0  0  0  2  0  0  0  0  0  0
  187.7120  178.8570  137.9080 O   0  0  0  0  0  0  0  0  0  0  0  0
  186.7170  178.7340  140.7100 N   0  0  0  0  0  0  0  0  0  0  0  0
  187.9400  178.6860  140.2820 C   0  0  1  0  0  3  0  0  0  0  0  0
  186.7580  178.1660  142.0100 C   0  0  0  0  0  0  0  0  0  0  0  0
  190.9060  176.6320  140.7010 C   0  0  0  0  0  1  0  0  0  0  0  0
  189.3060  177.2930  138.8890 C   0  0  2  0  0  3  0  0  0  0  0  0
  188.8970  178.0280  141.2020 C   0  0  2  0  0  3  0  0  0  0  0  0
  188.8360  176.1640  138.1050 N   0  0  0  0  0  1  0  0  0  0  0  0
  189.4480  176.8690  140.3640 C   0  0  2  0  0  3  0  0  0  0  0  0
  188.2700  178.3590  138.9220 C   0  0  0  0  0  0  0  0  0  0  0  0
  185.6630  177.8950  142.7080 C   0  0  0  0  0  1  0  0  0  0  0  0
  188.0330  177.6040  142.2910 N   0  0  0  0  0  0  0  0  0  0  0  0
  189.3020  177.6940  144.4330 C   0  0  1  0  0  3  0  0  0  0  0  0
  185.4950  178.3620  147.4150 F   0  0  0  0  0  0  0  0  0  0  0  0
  186.8210  178.1330  147.2660 C   0  0  0  0  0  0  0  0  0  0  0  0
  188.7470  177.8160  145.8240 C   0  0  0  0  0  0  0  0  0  0  0  0
  189.0010  177.7360  148.2390 C   0  0  0  0  0  3  0  0  0  0  0  0
  187.3760  178.0500  145.9860 C   0  0  0  0  0  3  0  0  0  0  0  0
  187.6330  177.9760  148.3930 C   0  0  0  0  0  3  0  0  0  0  0  0
  189.5570  177.6530  146.9590 C   0  0  0  0  0  3  0  0  0  0  0  0
  191.1630  176.2230  144.5350 O   0  0  0  0  0  0  0  0  0  0  0  0
  190.7680  177.3660  144.3660 C   0  0  0  0  0  0  0  0  0  0  0  0
  191.7500  178.4610  144.1220 C   0  0  0  0  0  2  0  0  0  0  0  0
  191.0770  179.6730  143.9670 O   0  0  0  0  0  1  0  0  0  0  0  0
  2 11  2  0  0  0  0
  3  5  2  0  0  0  0
  4 11  1  6  0  0  0
  4  3  1  0  0  0  0
  4  8  1  0  0  0  0
  5 13  1  0  0  0  0
  5 12  1  0  0  0  0
  7  9  1  6  0  0  0
  7 11  1  0  0  0  0
  7 10  1  0  0  0  0
  8 13  1  1  0  0  0
 10  6  1  1  0  0  0
 10  8  1  0  0  0  0
 13  1  1  0  0  0  0
 14  1  1  6  0  0  0
 14 17  1  0  0  0  0
 16 15  1  0  0  0  0
 16 20  1  0  0  0  0
 17 19  1  0  0  0  0
 17 21  2  0  0  0  0
 18 20  2  0  0  0  0
 19 16  2  0  0  0  0
 21 18  1  0  0  0  0
 23 14  1  0  0  0  0
 23 22  2  0  0  0  0
 24 23  1  0  0  0  0
 25 24  1  0  0  0  0
M  END
>  <MODEL>
1

>  <REMARK>
 VINA RESULT:      -8.3      0.000      0.000
  Name = 
  5 active torsions:
  status: ('A' for Active; 'I' for Inactive)
    1  A    between atoms: C_4  and  C_6
    2  A    between atoms: C_4  and  C_21
    3  A    between atoms: C_4  and  C_23
    4  A    between atoms: C_15  and  C_21
    5  A    between atoms: C_23  and  N_24
                            x       y       z     vdW  Elec       q    Type
                         _______ _______ _______ _____ _____    ______ ____

>  <TORSDO>
F 5

$$$$
=
 OpenBabel11062418093D

 25 27  0  0  1  0  0  0  0  0999 V2000
  188.4000  176.8640  143.3510 C   0  0  0  0  0  2  0  0  0  0  0  0
  187.5640  178.8660  137.7930 O   0  0  0  0  0  0  0  0  0  0  0  0
  186.6590  178.7820  140.6270 N   0  0  0  0  0  0  0  0  0  0  0  0
  187.8650  178.6930  140.1590 C   0  0  1  0  0  3  0  0  0  0  0  0
  186.7240  178.2160  141.9260 C   0  0  0  0  0  0  0  0  0  0  0  0
  190.7750  176.5450  140.4870 C   0  0  0  0  0  1  0  0  0  0  0  0
  189.1380  177.2530  138.7270 C   0  0  2  0  0  3  0  0  0  0  0  0
  188.8300  178.0070  141.0490 C   0  0  2  0  0  3  0  0  0  0  0  0
  188.6060  176.1380  137.9630 N   0  0  0  0  0  1  0  0  0  0  0  0
  189.3140  176.8290  140.1980 C   0  0  2  0  0  3  0  0  0  0  0  0
  188.1380  178.3520  138.7900 C   0  0  0  0  0  0  0  0  0  0  0  0
  185.6440  177.9830  142.6620 C   0  0  0  0  0  1  0  0  0  0  0  0
  187.9880  177.6140  142.1670 N   0  0  0  0  0  0  0  0  0  0  0  0
  189.2580  177.6980  144.3090 C   0  0  1  0  0  3  0  0  0  0  0  0
  189.9210  178.2800  149.1110 F   0  0  0  0  0  0  0  0  0  0  0  0
  189.0670  178.1210  148.0720 C   0  0  0  0  0  0  0  0  0  0  0  0
  188.6880  177.8100  145.6950 C   0  0  0  0  0  0  0  0  0  0  0  0
  186.8060  177.9460  147.2260 C   0  0  0  0  0  3  0  0  0  0  0  0
  189.5650  177.9770  146.7740 C   0  0  0  0  0  3  0  0  0  0  0  0
  187.6880  178.1060  148.2980 C   0  0  0  0  0  3  0  0  0  0  0  0
  187.3030  177.8010  145.9280 C   0  0  0  0  0  3  0  0  0  0  0  0
  191.1350  176.2550  144.4960 O   0  0  0  0  0  0  0  0  0  0  0  0
  190.7260  177.3810  144.2550 C   0  0  0  0  0  0  0  0  0  0  0  0
  191.6960  178.4670  143.9350 C   0  0  0  0  0  2  0  0  0  0  0  0
  191.0570  179.7050  144.0030 O   0  0  0  0  0  1  0  0  0  0  0  0
  2 11  2  0  0  0  0
  3  5  2  0  0  0  0
  4 11  1  6  0  0  0
  4  3  1  0  0  0  0
  4  8  1  0  0  0  0
  5 13  1  0  0  0  0
  5 12  1  0  0  0  0
  7  9  1  6  0  0  0
  7 11  1  0  0  0  0
  7 10  1  0  0  0  0
  8 13  1  1  0  0  0
 10  6  1  6  0  0  0
 10  8  1  0  0  0  0
 13  1  1  0  0  0  0
 14  1  1  6  0  0  0
 14 17  1  0  0  0  0
 16 20  1  0  0  0  0
 16 15  1  0  0  0  0
 17 21  2  0  0  0  0
 17 19  1  0  0  0  0
 18 20  2  0  0  0  0
 19 16  2  0  0  0  0
 21 18  1  0  0  0  0
 23 14  1  0  0  0  0
 23 22  2  0  0  0  0
 24 25  1  0  0  0  0
 24 23  1  0  0  0  0
M  END
>  <MODEL>
2

>  <REMARK>
 VINA RESULT:      -8.0      0.969      1.359
  Name = 
  5 active torsions:
  status: ('A' for Active; 'I' for Inactive)
    1  A    between atoms: C_4  and  C_6
    2  A    between atoms: C_4  and  C_21
    3  A    between atoms: C_4  and  C_23
    4  A    between atoms: C_15  and  C_21
    5  A    between atoms: C_23  and  N_24
                            x       y       z     vdW  Elec       q    Type
                         _______ _______ _______ _____ _____    ______ ____

>  <TORSDO>
F 5

$$$$
=
 OpenBabel11062418093D

 25 27  0  0  1  0  0  0  0  0999 V2000
  186.1480  179.0970  142.0600 C   0  0  0  0  0  2  0  0  0  0  0  0
  190.6720  175.4010  143.2730 O   0  0  0  0  0  0  0  0  0  0  0  0
  188.0340  176.5320  144.0590 N   0  0  0  0  0  0  0  0  0  0  0  0
  188.5120  176.3440  142.8690 C   0  0  1  0  0  3  0  0  0  0  0  0
  187.0090  177.5000  143.8970 C   0  0  0  0  0  0  0  0  0  0  0  0
  188.9620  178.1970  139.7780 C   0  0  0  0  0  1  0  0  0  0  0  0
  190.3610  177.0840  141.5340 C   0  0  2  0  0  3  0  0  0  0  0  0
  187.9180  177.2010  141.8160 C   0  0  2  0  0  3  0  0  0  0  0  0
  191.4580  177.9140  141.9990 N   0  0  0  0  0  1  0  0  0  0  0  0
  189.1260  177.9670  141.2670 C   0  0  2  0  0  3  0  0  0  0  0  0
  189.9160  176.1690  142.6200 C   0  0  0  0  0  0  0  0  0  0  0  0
  186.3910  178.0680  144.9250 C   0  0  0  0  0  1  0  0  0  0  0  0
  186.9980  178.0280  142.5790 N   0  0  0  0  0  0  0  0  0  0  0  0
  184.9580  178.5660  141.2540 C   0  0  1  0  0  3  0  0  0  0  0  0
  180.0810  178.3600  141.1650 F   0  0  0  0  0  0  0  0  0  0  0  0
  181.2180  178.5470  141.8770 C   0  0  0  0  0  0  0  0  0  0  0  0
  183.6390  178.6780  141.9660 C   0  0  0  0  0  0  0  0  0  0  0  0
  182.3220  178.9860  143.9850 C   0  0  0  0  0  3  0  0  0  0  0  0
  182.4600  178.4840  141.2380 C   0  0  0  0  0  3  0  0  0  0  0  0
  181.1490  178.7970  143.2500 C   0  0  0  0  0  3  0  0  0  0  0  0
  183.5650  178.9240  143.3470 C   0  0  0  0  0  3  0  0  0  0  0  0
  184.5670  180.1360  139.5160 O   0  0  0  0  0  0  0  0  0  0  0  0
  184.9380  179.0120  139.8180 C   0  0  0  0  0  0  0  0  0  0  0  0
  185.3490  178.0550  138.7510 C   0  0  0  0  0  2  0  0  0  0  0  0
  186.1850  178.6970  137.8380 O   0  0  0  0  0  1  0  0  0  0  0  0
  1 13  1  0  0  0  0
  4 11  1  1  0  0  0
  4  3  1  0  0  0  0
  5  3  2  0  0  0  0
  5 12  1  0  0  0  0
  7  9  1  1  0  0  0
  7 11  1  0  0  0  0
  8 13  1  1  0  0  0
  8  4  1  0  0  0  0
 10  6  1  6  0  0  0
 10  7  1  0  0  0  0
 10  8  1  0  0  0  0
 11  2  2  0  0  0  0
 13  5  1  0  0  0  0
 14 17  1  0  0  0  0
 14  1  1  1  0  0  0
 15 16  1  0  0  0  0
 16 20  1  0  0  0  0
 17 21  2  0  0  0  0
 19 16  2  0  0  0  0
 19 17  1  0  0  0  0
 20 18  2  0  0  0  0
 21 18  1  0  0  0  0
 22 23  2  0  0  0  0
 23 14  1  0  0  0  0
 24 23  1  0  0  0  0
 25 24  1  0  0  0  0
M  END
>  <MODEL>
3

>  <REMARK>
 VINA RESULT:      -7.3      2.968      5.912
  Name = 
  5 active torsions:
  status: ('A' for Active; 'I' for Inactive)
    1  A    between atoms: C_4  and  C_6
    2  A    between atoms: C_4  and  C_21
    3  A    between atoms: C_4  and  C_23
    4  A    between atoms: C_15  and  C_21
    5  A    between atoms: C_23  and  N_24
                            x       y       z     vdW  Elec       q    Type
                         _______ _______ _______ _____ _____    ______ ____

>  <TORSDO>
F 5

$$$$
=
 OpenBabel11062418093D

 25 27  0  0  1  0  0  0  0  0999 V2000
  188.7150  176.6830  143.2950 C   0  0  0  0  0  2  0  0  0  0  0  0
  183.7020  179.8080  144.1380 O   0  0  0  0  0  0  0  0  0  0  0  0
  185.7920  178.8120  142.2670 N   0  0  0  0  0  2  0  0  0  0  0  0
  185.3490  178.2610  143.3540 C   0  0  1  0  0  3  0  0  0  0  0  0
  187.0570  178.2110  142.0370 C   0  0  0  0  0  0  0  0  0  0  0  0
  186.6590  176.7990  146.4100 C   0  0  0  0  0  1  0  0  0  0  0  0
  185.2420  178.7410  145.7000 C   0  0  2  0  0  3  0  0  0  0  0  0
  186.2830  177.3050  143.9930 C   0  0  2  0  0  3  0  0  0  0  0  0
  185.6360  179.9920  146.3240 N   0  0  0  0  0  1  0  0  0  0  0  0
  186.4990  177.9060  145.3860 C   0  0  2  0  0  3  0  0  0  0  0  0
  184.6450  179.0030  144.3640 C   0  0  0  0  0  0  0  0  0  0  0  0
  187.8910  178.6360  141.0960 C   0  0  0  0  0  2  0  0  0  0  0  0
  187.4490  177.3940  143.1310 N   0  0  0  0  0  0  0  0  0  0  0  0
  189.8470  177.5970  143.7750 C   0  0  1  0  0  3  0  0  0  0  0  0
  189.5980  177.8830  148.6420 F   0  0  0  0  0  0  0  0  0  0  0  0
  190.2160  177.3900  147.5430 C   0  0  0  0  0  0  0  0  0  0  0  0
  190.3920  177.2340  145.1270 C   0  0  0  0  0  0  0  0  0  0  0  0
  191.9460  176.0200  146.5480 C   0  0  0  0  0  3  0  0  0  0  0  0
  189.7570  177.7370  146.2690 C   0  0  0  0  0  3  0  0  0  0  0  0
  191.3100  176.5310  147.6830 C   0  0  0  0  0  3  0  0  0  0  0  0
  191.4880  176.3670  145.2740 C   0  0  0  0  0  3  0  0  0  0  0  0
  191.6890  178.7970  142.8770 O   0  0  0  0  0  0  0  0  0  0  0  0
  190.8910  177.8840  142.7310 C   0  0  0  0  0  0  0  0  0  0  0  0
  190.9260  177.0600  141.4890 C   0  0  0  0  0  2  0  0  0  0  0  0
  191.8960  177.5600  140.6190 O   0  0  0  0  0  1  0  0  0  0  0  0
  2 11  2  0  0  0  0
  4  3  1  6  0  0  0
  4  8  1  0  0  0  0
  4 11  1  0  0  0  0
  5  3  1  0  0  0  0
  5 13  1  0  0  0  0
  7  9  1  6  0  0  0
  8 13  1  6  0  0  0
  8 10  1  0  0  0  0
 10  7  1  0  0  0  0
 10  6  1  1  0  0  0
 11  7  1  0  0  0  0
 12  5  2  0  0  0  0
 13  1  1  0  0  0  0
 14  1  1  6  0  0  0
 14 17  1  0  0  0  0
 16 20  1  0  0  0  0
 16 15  1  0  0  0  0
 17 21  2  0  0  0  0
 17 19  1  0  0  0  0
 18 20  2  0  0  0  0
 19 16  2  0  0  0  0
 21 18  1  0  0  0  0
 23 22  2  0  0  0  0
 23 14  1  0  0  0  0
 24 23  1  0  0  0  0
 25 24  1  0  0  0  0
M  END
>  <MODEL>
4

>  <REMARK>
 VINA RESULT:      -7.2      2.553      4.492
  Name = 
  5 active torsions:
  status: ('A' for Active; 'I' for Inactive)
    1  A    between atoms: C_4  and  C_6
    2  A    between atoms: C_4  and  C_21
    3  A    between atoms: C_4  and  C_23
    4  A    between atoms: C_15  and  C_21
    5  A    between atoms: C_23  and  N_24
                            x       y       z     vdW  Elec       q    Type
                         _______ _______ _______ _____ _____    ______ ____

>  <TORSDO>
F 5

$$$$
=
 OpenBabel11062418093D

 25 27  0  0  1  0  0  0  0  0999 V2000
  186.6670  177.2690  144.6180 C   0  0  0  0  0  2  0  0  0  0  0  0
  192.5330  178.2550  144.1470 O   0  0  0  0  0  0  0  0  0  0  0  0
  189.8300  178.3600  142.9050 N   0  0  0  0  0  2  0  0  0  0  0  0
  190.1520  178.4790  144.1550 C   0  0  1  0  0  3  0  0  0  0  0  0
  188.4560  178.0060  142.9090 C   0  0  0  0  0  0  0  0  0  0  0  0
  189.1830  177.0980  147.3720 C   0  0  0  0  0  1  0  0  0  0  0  0
  191.1930  177.1760  145.8780 C   0  0  2  0  0  3  0  0  0  0  0  0
  189.0680  178.1530  145.1110 C   0  0  2  0  0  3  0  0  0  0  0  0
  191.8160  175.8770  145.6920 N   0  0  0  0  0  1  0  0  0  0  0  0
  189.6620  177.0070  145.9370 C   0  0  2  0  0  3  0  0  0  0  0  0
  191.4120  178.0230  144.6750 C   0  0  0  0  0  0  0  0  0  0  0  0
  187.8070  177.6410  141.8100 C   0  0  0  0  0  2  0  0  0  0  0  0
  187.9930  177.7390  144.2250 N   0  0  0  0  0  0  0  0  0  0  0  0
  185.7170  178.4160  144.9790 C   0  0  1  0  0  3  0  0  0  0  0  0
  183.7950  177.8820  140.5230 F   0  0  0  0  0  0  0  0  0  0  0  0
  183.6350  178.2590  141.8140 C   0  0  0  0  0  0  0  0  0  0  0  0
  184.5520  178.5600  144.0410 C   0  0  0  0  0  0  0  0  0  0  0  0
  182.2300  179.1160  143.5890 C   0  0  0  0  0  3  0  0  0  0  0  0
  184.7080  178.1710  142.7050 C   0  0  0  0  0  3  0  0  0  0  0  0
  182.3960  178.7310  142.2560 C   0  0  0  0  0  3  0  0  0  0  0  0
  183.3030  179.0290  144.4800 C   0  0  0  0  0  3  0  0  0  0  0  0
  184.2710  178.1100  146.8380 O   0  0  0  0  0  0  0  0  0  0  0  0
  185.3630  178.4860  146.4380 C   0  0  0  0  0  0  0  0  0  0  0  0
  186.3490  179.0520  147.4020 C   0  0  0  0  0  2  0  0  0  0  0  0
  185.9160  180.3050  147.8390 O   0  0  0  0  0  1  0  0  0  0  0  0
  2 11  2  0  0  0  0
  3  5  1  0  0  0  0
  4  3  1  6  0  0  0
  4 11  1  0  0  0  0
  4  8  1  0  0  0  0
  5 13  1  0  0  0  0
  7  9  1  6  0  0  0
  7 10  1  0  0  0  0
  8 13  1  6  0  0  0
  8 10  1  0  0  0  0
 10  6  1  1  0  0  0
 11  7  1  0  0  0  0
 12  5  2  0  0  0  0
 13  1  1  0  0  0  0
 14  1  1  1  0  0  0
 14 23  1  0  0  0  0
 15 16  1  0  0  0  0
 16 20  2  0  0  0  0
 16 19  1  0  0  0  0
 17 21  1  0  0  0  0
 17 14  1  0  0  0  0
 18 21  2  0  0  0  0
 19 17  2  0  0  0  0
 20 18  1  0  0  0  0
 23 22  2  0  0  0  0
 23 24  1  0  0  0  0
 24 25  1  0  0  0  0
M  END
>  <MODEL>
5

>  <REMARK>
 VINA RESULT:      -7.1      3.203      5.899
  Name = 
  5 active torsions:
  status: ('A' for Active; 'I' for Inactive)
    1  A    between atoms: C_4  and  C_6
    2  A    between atoms: C_4  and  C_21
    3  A    between atoms: C_4  and  C_23
    4  A    between atoms: C_15  and  C_21
    5  A    between atoms: C_23  and  N_24
                            x       y       z     vdW  Elec       q    Type
                         _______ _______ _______ _____ _____    ______ ____

>  <TORSDO>
F 5

$$$$
=
 OpenBabel11062418093D

 25 27  0  0  1  0  0  0  0  0999 V2000
  190.1450  178.3500  142.5540 C   0  0  0  0  0  2  0  0  0  0  0  0
  189.0770  176.3900  137.0210 O   0  0  0  0  0  0  0  0  0  0  0  0
  190.9440  176.5890  139.3300 N   0  0  0  0  0  0  0  0  0  0  0  0
  189.6480  176.5540  139.3370 C   0  0  1  0  0  3  0  0  0  0  0  0
  191.3050  177.1570  140.5790 C   0  0  0  0  0  0  0  0  0  0  0  0
  186.8690  178.4070  140.7640 C   0  0  0  0  0  1  0  0  0  0  0  0
  187.8080  177.8480  138.5090 C   0  0  2  0  0  3  0  0  0  0  0  0
  189.0150  177.1490  140.5370 C   0  0  2  0  0  3  0  0  0  0  0  0
  187.9150  179.0030  137.6350 N   0  0  0  0  0  1  0  0  0  0  0  0
  188.1420  178.2660  139.9540 C   0  0  2  0  0  3  0  0  0  0  0  0
  188.8610  176.8540  138.1720 C   0  0  0  0  0  0  0  0  0  0  0  0
  192.5510  177.5020  140.8760 C   0  0  0  0  0  1  0  0  0  0  0  0
  190.1650  177.6340  141.2810 N   0  0  0  0  0  0  0  0  0  0  0  0
  190.1240  177.4070  143.7620 C   0  0  1  0  0  3  0  0  0  0  0  0
  187.8560  177.6980  148.0750 F   0  0  0  0  0  0  0  0  0  0  0  0
  187.7690  177.6310  146.7250 C   0  0  0  0  0  0  0  0  0  0  0  0
  188.8520  177.4670  144.5590 C   0  0  0  0  0  0  0  0  0  0  0  0
  186.4300  177.5940  144.7100 C   0  0  0  0  0  3  0  0  0  0  0  0
  188.9320  177.5390  145.9550 C   0  0  0  0  0  3  0  0  0  0  0  0
  186.5180  177.6590  146.1030 C   0  0  0  0  0  3  0  0  0  0  0  0
  187.5930  177.5010  143.9390 C   0  0  0  0  0  3  0  0  0  0  0  0
  189.9310  175.2260  142.8440 O   0  0  0  0  0  0  0  0  0  0  0  0
  190.6190  176.0190  143.4680 C   0  0  0  0  0  0  0  0  0  0  0  0
  191.9560  175.5980  143.9770 C   0  0  0  0  0  2  0  0  0  0  0  0
  192.0550  175.8840  145.3380 O   0  0  0  0  0  1  0  0  0  0  0  0
  2 11  2  0  0  0  0
  3  4  1  0  0  0  0
  3  5  2  0  0  0  0
  4 11  1  6  0  0  0
  4  8  1  0  0  0  0
  5 12  1  0  0  0  0
  5 13  1  0  0  0  0
  7  9  1  6  0  0  0
  7 10  1  0  0  0  0
  8 13  1  1  0  0  0
 10  8  1  0  0  0  0
 10  6  1  1  0  0  0
 11  7  1  0  0  0  0
 13  1  1  0  0  0  0
 14  1  1  6  0  0  0
 14 17  1  0  0  0  0
 16 15  1  0  0  0  0
 17 19  1  0  0  0  0
 18 20  2  0  0  0  0
 19 16  2  0  0  0  0
 20 16  1  0  0  0  0
 21 17  2  0  0  0  0
 21 18  1  0  0  0  0
 22 23  2  0  0  0  0
 23 14  1  0  0  0  0
 23 24  1  0  0  0  0
 24 25  1  0  0  0  0
M  END
>  <MODEL>
6

>  <REMARK>
 VINA RESULT:      -7.1      1.828      3.181
  Name = 
  5 active torsions:
  status: ('A' for Active; 'I' for Inactive)
    1  A    between atoms: C_4  and  C_6
    2  A    between atoms: C_4  and  C_21
    3  A    between atoms: C_4  and  C_23
    4  A    between atoms: C_15  and  C_21
    5  A    between atoms: C_23  and  N_24
                            x       y       z     vdW  Elec       q    Type
                         _______ _______ _______ _____ _____    ______ ____

>  <TORSDO>
F 5

$$$$
=
 OpenBabel11062418093D

 25 27  0  0  1  0  0  0  0  0999 V2000
  188.9790  178.4730  143.0470 C   0  0  0  0  0  2  0  0  0  0  0  0
  190.5340  176.8610  137.5170 O   0  0  0  0  0  0  0  0  0  0  0  0
  191.2030  176.9700  140.4150 N   0  0  0  0  0  0  0  0  0  0  0  0
  190.0370  176.8850  139.8550 C   0  0  1  0  0  3  0  0  0  0  0  0
  190.9520  177.4650  141.7210 C   0  0  0  0  0  0  0  0  0  0  0  0
  186.8010  178.5280  140.0140 C   0  0  0  0  0  1  0  0  0  0  0  0
  188.6560  178.1630  138.3690 C   0  0  2  0  0  3  0  0  0  0  0  0
  188.9100  177.3720  140.6860 C   0  0  2  0  0  3  0  0  0  0  0  0
  189.0550  179.3790  137.6830 N   0  0  0  0  0  1  0  0  0  0  0  0
  188.3050  178.4920  139.8330 C   0  0  2  0  0  3  0  0  0  0  0  0
  189.8130  177.2350  138.4790 C   0  0  0  0  0  0  0  0  0  0  0  0
  191.9230  177.8360  142.5460 C   0  0  0  0  0  1  0  0  0  0  0  0
  189.5930  177.8470  141.8780 N   0  0  0  0  0  0  0  0  0  0  0  0
  188.4450  177.4480  144.0530 C   0  0  1  0  0  3  0  0  0  0  0  0
  188.8950  178.2240  148.8520 F   0  0  0  0  0  0  0  0  0  0  0  0
  189.4260  177.7410  147.7040 C   0  0  0  0  0  0  0  0  0  0  0  0
  189.2560  177.3520  145.3140 C   0  0  0  0  0  0  0  0  0  0  0  0
  191.2320  176.6330  146.5340 C   0  0  0  0  0  3  0  0  0  0  0  0
  188.7130  177.8460  146.5060 C   0  0  0  0  0  3  0  0  0  0  0  0
  190.6850  177.1340  147.7180 C   0  0  0  0  0  3  0  0  0  0  0  0
  190.5190  176.7380  145.3350 C   0  0  0  0  0  3  0  0  0  0  0  0
  186.4270  176.8890  145.1730 O   0  0  0  0  0  0  0  0  0  0  0  0
  186.9580  177.5080  144.2640 C   0  0  0  0  0  0  0  0  0  0  0  0
  186.1200  178.3110  143.3270 C   0  0  0  0  0  2  0  0  0  0  0  0
  184.7730  178.1720  143.6610 O   0  0  0  0  0  1  0  0  0  0  0  0
  2 11  2  0  0  0  0
  3  5  2  0  0  0  0
  4 11  1  6  0  0  0
  4  3  1  0  0  0  0
  4  8  1  0  0  0  0
  5 13  1  0  0  0  0
  5 12  1  0  0  0  0
  7  9  1  6  0  0  0
  7 11  1  0  0  0  0
  7 10  1  0  0  0  0
  8 13  1  1  0  0  0
 10  6  1  6  0  0  0
 10  8  1  0  0  0  0
 13  1  1  0  0  0  0
 14  1  1  1  0  0  0
 14 23  1  0  0  0  0
 14 17  1  0  0  0  0
 16 20  1  0  0  0  0
 16 15  1  0  0  0  0
 17 21  2  0  0  0  0
 17 19  1  0  0  0  0
 18 20  2  0  0  0  0
 19 16  2  0  0  0  0
 21 18  1  0  0  0  0
 23 22  2  0  0  0  0
 24 25  1  0  0  0  0
 24 23  1  0  0  0  0
M  END
>  <MODEL>
7

>  <REMARK>
 VINA RESULT:      -7.1      2.375      3.515
  Name = 
  5 active torsions:
  status: ('A' for Active; 'I' for Inactive)
    1  A    between atoms: C_4  and  C_6
    2  A    between atoms: C_4  and  C_21
    3  A    between atoms: C_4  and  C_23
    4  A    between atoms: C_15  and  C_21
    5  A    between atoms: C_23  and  N_24
                            x       y       z     vdW  Elec       q    Type
                         _______ _______ _______ _____ _____    ______ ____

>  <TORSDO>
F 5

$$$$
=
 OpenBabel11062418093D

 25 27  0  0  1  0  0  0  0  0999 V2000
  188.5650  178.5900  140.3340 C   0  0  0  0  0  2  0  0  0  0  0  0
  190.2130  174.9840  135.8750 O   0  0  0  0  0  0  0  0  0  0  0  0
  190.5830  175.8780  138.6900 N   0  0  0  0  0  0  0  0  0  0  0  0
  189.4990  175.8690  137.9790 C   0  0  1  0  0  3  0  0  0  0  0  0
  190.3350  176.8090  139.7310 C   0  0  0  0  0  0  0  0  0  0  0  0
  186.8020  178.1280  137.0750 C   0  0  0  0  0  1  0  0  0  0  0  0
  188.6590  176.8620  135.9650 C   0  0  2  0  0  3  0  0  0  0  0  0
  188.4580  176.8280  138.4180 C   0  0  2  0  0  3  0  0  0  0  0  0
  189.4300  177.6760  135.0410 N   0  0  0  0  0  1  0  0  0  0  0  0
  188.2560  177.7140  137.1850 C   0  0  2  0  0  3  0  0  0  0  0  0
  189.5180  175.7950  136.5440 C   0  0  0  0  0  0  0  0  0  0  0  0
  191.2780  177.2100  140.5750 C   0  0  0  0  0  1  0  0  0  0  0  0
  189.1130  177.5040  139.5250 N   0  0  0  0  0  0  0  0  0  0  0  0
  187.4350  178.1250  141.2590 C   0  0  1  0  0  3  0  0  0  0  0  0
  190.8420  178.4100  144.7440 F   0  0  0  0  0  0  0  0  0  0  0  0
  189.5910  178.0440  144.3770 C   0  0  0  0  0  0  0  0  0  0  0  0
  187.8730  177.8630  142.6720 C   0  0  0  0  0  0  0  0  0  0  0  0
  187.4340  177.1000  144.9370 C   0  0  0  0  0  3  0  0  0  0  0  0
  189.1630  178.2410  143.0610 C   0  0  0  0  0  3  0  0  0  0  0  0
  188.7260  177.4740  145.3150 C   0  0  0  0  0  3  0  0  0  0  0  0
  187.0060  177.2950  143.6210 C   0  0  0  0  0  3  0  0  0  0  0  0
  185.8680  179.7650  141.9610 O   0  0  0  0  0  0  0  0  0  0  0  0
  186.1660  178.9210  141.1300 C   0  0  0  0  0  0  0  0  0  0  0  0
  185.2470  178.6490  139.9870 C   0  0  0  0  0  2  0  0  0  0  0  0
  184.6300  179.8340  139.5860 O   0  0  0  0  0  1  0  0  0  0  0  0
  2 11  2  0  0  0  0
  3  5  2  0  0  0  0
  4 11  1  6  0  0  0
  4  8  1  0  0  0  0
  4  3  1  0  0  0  0
  5 12  1  0  0  0  0
  7  9  1  6  0  0  0
  7 11  1  0  0  0  0
  7 10  1  0  0  0  0
  8 13  1  1  0  0  0
 10  6  1  6  0  0  0
 10  8  1  0  0  0  0
 13  5  1  0  0  0  0
 13  1  1  0  0  0  0
 14  1  1  6  0  0  0
 14 17  1  0  0  0  0
 16 15  1  0  0  0  0
 16 20  1  0  0  0  0
 17 19  1  0  0  0  0
 17 21  2  0  0  0  0
 18 20  2  0  0  0  0
 19 16  2  0  0  0  0
 21 18  1  0  0  0  0
 23 14  1  0  0  0  0
 23 22  2  0  0  0  0
 24 23  1  0  0  0  0
 25 24  1  0  0  0  0
M  END
>  <MODEL>
8

>  <REMARK>
 VINA RESULT:      -7.0      2.829      4.763
  Name = 
  5 active torsions:
  status: ('A' for Active; 'I' for Inactive)
    1  A    between atoms: C_4  and  C_6
    2  A    between atoms: C_4  and  C_21
    3  A    between atoms: C_4  and  C_23
    4  A    between atoms: C_15  and  C_21
    5  A    between atoms: C_23  and  N_24
                            x       y       z     vdW  Elec       q    Type
                         _______ _______ _______ _____ _____    ______ ____

>  <TORSDO>
F 5

$$$$
=
 OpenBabel11062418093D

 25 27  0  0  1  0  0  0  0  0999 V2000
  187.8530  176.8370  142.8830 C   0  0  0  0  0  2  0  0  0  0  0  0
  190.6710  177.5020  148.1000 O   0  0  0  0  0  0  0  0  0  0  0  0
  190.7980  176.7680  145.2190 N   0  0  0  0  0  2  0  0  0  0  0  0
  190.0170  177.6220  145.8030 C   0  0  1  0  0  3  0  0  0  0  0  0
  190.1500  176.4500  143.9970 C   0  0  0  0  0  0  0  0  0  0  0  0
  186.4770  178.4190  145.9730 C   0  0  0  0  0  1  0  0  0  0  0  0
  188.3130  177.6400  147.4900 C   0  0  2  0  0  3  0  0  0  0  0  0
  188.7530  177.9050  145.0830 C   0  0  2  0  0  3  0  0  0  0  0  0
  187.9290  176.5060  148.3140 N   0  0  0  0  0  1  0  0  0  0  0  0
  187.6760  177.4990  146.0940 C   0  0  2  0  0  3  0  0  0  0  0  0
  189.7750  177.6030  147.2200 C   0  0  0  0  0  0  0  0  0  0  0  0
  190.5720  175.4830  143.1930 C   0  0  0  0  0  2  0  0  0  0  0  0
  188.8470  177.0130  143.9390 N   0  0  0  0  0  0  0  0  0  0  0  0
  187.6620  178.0990  142.0350 C   0  0  1  0  0  3  0  0  0  0  0  0
  191.4990  177.1330  139.1750 F   0  0  0  0  0  0  0  0  0  0  0  0
  190.2000  177.5000  139.2820 C   0  0  0  0  0  0  0  0  0  0  0  0
  188.2710  178.0100  140.6640 C   0  0  0  0  0  0  0  0  0  0  0  0
  188.1050  178.1250  138.2420 C   0  0  0  0  0  3  0  0  0  0  0  0
  189.6120  177.6280  140.5440 C   0  0  0  0  0  3  0  0  0  0  0  0
  189.4460  177.7480  138.1310 C   0  0  0  0  0  3  0  0  0  0  0  0
  187.5170  178.2530  139.5040 C   0  0  0  0  0  3  0  0  0  0  0  0
  186.0180  179.7530  141.5870 O   0  0  0  0  0  0  0  0  0  0  0  0
  186.2670  178.6590  142.0700 C   0  0  0  0  0  0  0  0  0  0  0  0
  185.1840  177.8780  142.7330 C   0  0  0  0  0  2  0  0  0  0  0  0
  184.1530  178.7350  143.1200 O   0  0  0  0  0  1  0  0  0  0  0  0
  1 13  1  0  0  0  0
  4  3  1  6  0  0  0
  4 11  1  0  0  0  0
  5  3  1  0  0  0  0
  7  9  1  1  0  0  0
  8 13  1  6  0  0  0
  8  4  1  0  0  0  0
  8 10  1  0  0  0  0
 10  6  1  1  0  0  0
 10  7  1  0  0  0  0
 11  7  1  0  0  0  0
 11  2  2  0  0  0  0
 12  5  2  0  0  0  0
 13  5  1  0  0  0  0
 14 23  1  0  0  0  0
 14  1  1  6  0  0  0
 15 16  1  0  0  0  0
 16 19  1  0  0  0  0
 17 14  1  0  0  0  0
 18 21  2  0  0  0  0
 19 17  2  0  0  0  0
 20 18  1  0  0  0  0
 20 16  2  0  0  0  0
 21 17  1  0  0  0  0
 22 23  2  0  0  0  0
 23 24  1  0  0  0  0
 24 25  1  0  0  0  0
M  END
>  <MODEL>
9

>  <REMARK>
 VINA RESULT:      -6.9      3.181      7.180
  Name = 
  5 active torsions:
  status: ('A' for Active; 'I' for Inactive)
    1  A    between atoms: C_4  and  C_6
    2  A    between atoms: C_4  and  C_21
    3  A    between atoms: C_4  and  C_23
    4  A    between atoms: C_15  and  C_21
    5  A    between atoms: C_23  and  N_24
                            x       y       z     vdW  Elec       q    Type
                         _______ _______ _______ _____ _____    ______ ____

>  <TORSDO>
F 5

$$$$
