=
 OpenBabel11062415123D

 52 55  0  0  1  0  0  0  0  0999 V2000
  189.0650  176.7270  137.5940 O   0  0  0  0  0  0  0  0  0  0  0  0
  186.1340  177.9650  140.1440 C   0  0  2  0  0  3  0  0  0  0  0  0
  189.5930  174.8480  136.1640 C   0  0  0  0  0  2  0  0  0  0  0  0
  190.9180  174.6090  136.8970 C   0  0  2  0  0  3  0  0  0  0  0  0
  190.1300  176.4350  138.4670 C   0  0  2  0  0  3  0  0  0  0  0  0
  187.3300  178.8250  140.4130 C   0  0  0  0  0  3  0  0  0  0  0  0
  186.3520  177.7830  137.6510 C   0  0  0  0  0  2  0  0  0  0  0  0
  188.5750  175.4890  137.1280 C   0  0  2  0  0  3  0  0  0  0  0  0
  186.1910  176.2740  137.4850 C   0  0  0  0  0  2  0  0  0  0  0  0
  187.1750  175.6370  136.4890 C   0  0  1  0  0  0  0  0  0  0  0  0
  188.5120  178.2860  140.4760 C   0  0  0  0  0  0  0  0  0  0  0  0
  190.5090  177.6640  139.2780 C   0  0  0  0  0  2  0  0  0  0  0  0
  185.4820  178.2790  138.7930 C   0  0  2  0  0  3  0  0  0  0  0  0
  191.3360  175.8650  137.6940 C   0  0  2  0  0  3  0  0  0  0  0  0
  189.6920  177.7230  140.5330 C   0  0  0  0  0  0  0  0  0  0  0  0
  187.2610  176.4790  135.2120 C   0  0  0  0  0  1  0  0  0  0  0  0
  192.8220  172.9550  136.6770 C   0  0  0  0  0  2  0  0  0  0  0  0
  192.0260  174.0810  135.9730 C   0  0  1  0  0  3  0  0  0  0  0  0
  192.9700  171.6670  135.8560 C   0  0  0  0  0  2  0  0  0  0  0  0
  190.9530  172.2620  134.6080 C   0  0  0  0  0  3  0  0  0  0  0  0
  191.6720  171.3120  135.1990 C   0  0  0  0  0  0  0  0  0  0  0  0
  191.4720  173.6680  134.5940 C   0  0  0  0  0  2  0  0  0  0  0  0
  191.2240  169.9970  135.2050 O   0  0  0  0  0  1  0  0  0  0  0  0
  187.0880  173.5740  135.0420 O   0  0  0  0  0  0  0  0  0  0  0  0
  186.6210  174.2730  136.1520 C   0  0  0  0  0  0  0  0  0  0  0  0
  185.6750  173.7850  136.8290 O   0  0  0  0  0  1  0  0  0  0  0  0
  189.2680  176.3910  142.5360 C   0  0  0  0  0  2  0  0  0  0  0  0
  190.1390  177.0360  141.7670 C   0  0  0  0  0  0  0  0  0  0  0  0
  191.5880  176.9610  142.1320 C   0  0  0  0  0  2  0  0  0  0  0  0
  191.9550  178.1130  142.9360 N   0  0  0  0  0  1  0  0  0  0  0  0
  185.1370  178.0800  141.2510 C   0  0  0  0  0  3  0  0  0  0  0  0
  185.5390  178.3070  142.5020 C   0  0  0  0  0  3  0  0  0  0  0  0
  184.5540  178.4180  143.6200 C   0  0  0  0  0  2  0  0  0  0  0  0
  187.1300  177.8310  146.2590 C   0  0  0  0  0  0  0  0  0  0  0  0
  185.2230  178.8210  147.2830 N   0  0  0  0  0  0  0  0  0  0  0  0
  184.5880  178.8630  146.0830 C   0  0  0  0  0  3  0  0  0  0  0  0
  186.4800  178.3150  147.3960 C   0  0  0  0  0  3  0  0  0  0  0  0
  186.4950  177.8700  145.0580 N   0  0  0  0  0  0  0  0  0  0  0  0
  185.2390  178.3800  144.9450 C   0  0  0  0  0  0  0  0  0  0  0  0
  189.3760  177.9850  145.5620 O   0  0  0  0  0  1  0  0  0  0  0  0
  188.4990  177.2530  146.3580 C   0  0  0  0  0  2  0  0  0  0  0  0
  185.2330  179.7080  138.6390 N   0  0  0  0  0  2  0  0  0  0  0  0
  183.9440  179.9700  139.1250 N   0  0  0  0  0  2  0  0  0  0  0  0
  181.6550  179.5850  139.0390 O   0  0  0  0  0  1  0  0  0  0  0  0
  182.7960  179.3270  138.5760 C   0  0  0  0  0  0  0  0  0  0  0  0
  182.9280  178.4290  137.5240 O   0  0  0  0  0  0  0  0  0  0  0  0
  192.0970  176.8200  136.9690 O   0  0  0  0  0  0  0  0  0  0  0  0
  193.4690  176.5420  137.0930 C   0  0  0  0  0  2  0  0  0  0  0  0
  194.1610  176.8430  135.8040 C   0  0  0  0  0  0  0  0  0  0  0  0
  193.5010  176.8170  134.7360 O   0  0  0  0  0  0  0  0  0  0  0  0
  195.5300  177.1100  135.7530 O   0  0  0  0  0  0  0  0  0  0  0  0
  196.0800  178.1010  134.8970 C   0  0  0  0  0  1  0  0  0  0  0  0
  1  5  1  0  0  0  0
  2  6  1  0  0  0  0
  2 31  1  1  0  0  0
  4  3  1  6  0  0  0
  4 14  1  0  0  0  0
  5 12  1  6  0  0  0
  6 11  2  0  0  0  0
  7 13  1  0  0  0  0
  8  3  1  6  0  0  0
  8  1  1  0  0  0  0
  9  7  1  0  0  0  0
 10 16  1  6  0  0  0
 10  8  1  0  0  0  0
 10  9  1  0  0  0  0
 11 15  2  0  0  0  0
 12 15  1  0  0  0  0
 13 42  1  6  0  0  0
 13  2  1  0  0  0  0
 14 47  1  6  0  0  0
 14  5  1  0  0  0  0
 15 28  1  0  0  0  0
 18 22  1  6  0  0  0
 18 17  1  0  0  0  0
 18  4  1  0  0  0  0
 19 17  1  0  0  0  0
 20 21  2  0  0  0  0
 21 23  1  0  0  0  0
 21 19  1  0  0  0  0
 22 20  1  0  0  0  0
 24 25  2  0  0  0  0
 25 10  1  0  0  0  0
 25 26  1  0  0  0  0
 28 29  1  0  0  0  0
 28 27  2  0  0  0  0
 29 30  1  0  0  0  0
 31 32  2  0  0  0  0
 32 33  1  0  0  0  0
 33 39  1  0  0  0  0
 34 41  1  0  0  0  0
 34 37  1  0  0  0  0
 35 37  2  0  0  0  0
 36 35  1  0  0  0  0
 38 34  2  0  0  0  0
 39 38  1  0  0  0  0
 39 36  2  0  0  0  0
 40 41  1  0  0  0  0
 42 43  1  0  0  0  0
 45 44  1  0  0  0  0
 45 43  1  0  0  0  0
 46 45  2  0  0  0  0
 47 48  1  0  0  0  0
 49 48  1  0  0  0  0
 50 49  2  0  0  0  0
 51 49  1  0  0  0  0
 52 51  1  0  0  0  0
M  END
>  <MODEL>
1

>  <REMARK>
 VINA RESULT:      -6.3      0.000      0.000
  Name = 
  14 active torsions:
  status: ('A' for Active; 'I' for Inactive)
    1  A    between atoms: C_3  and  C_6
    2  A    between atoms: C_4  and  C_30
    3  A    between atoms: C_7  and  C_32
    4  A    between atoms: C_7  and  C_52
    5  A    between atoms: C_10  and  C_19
    6  A    between atoms: C_14  and  C_27
    7  A    between atoms: CA_16  and  C_42
    8  A    between atoms: C_21  and  C_23
    9  A    between atoms: C_21  and  O_24
   10  A    between atoms: C_23  and  O_36
   11  A    between atoms: N_26  and  N_28
   12  A    between atoms: N_26  and  C_34
   13  A    between atoms: C_27  and  C_44
   14  A    between atoms: O_36  and  C_38
                            x       y       z     vdW  Elec       q    Type
                         _______ _______ _______ _____ _____    ______ ____

>  <TORSDO>
F 14

$$$$
=
 OpenBabel11062415123D

 52 55  0  0  1  0  0  0  0  0999 V2000
  187.1950  178.0800  139.8770 O   0  0  0  0  0  0  0  0  0  0  0  0
  189.5120  175.4630  137.7770 C   0  0  2  0  0  3  0  0  0  0  0  0
  186.4580  178.4790  142.1460 C   0  0  0  0  0  2  0  0  0  0  0  0
  184.9850  178.3960  141.7270 C   0  0  2  0  0  3  0  0  0  0  0  0
  185.8940  177.7510  139.4520 C   0  0  2  0  0  3  0  0  0  0  0  0
  188.6840  176.2070  136.7740 C   0  0  0  0  0  3  0  0  0  0  0  0
  189.9670  177.3520  139.3650 C   0  0  0  0  0  2  0  0  0  0  0  0
  187.3150  177.6140  141.2030 C   0  0  2  0  0  3  0  0  0  0  0  0
  189.6120  176.6720  140.6860 C   0  0  0  0  0  2  0  0  0  0  0  0
  188.7950  177.5490  141.6490 C   0  0  1  0  0  0  0  0  0  0  0  0
  187.4220  176.4200  137.0070 C   0  0  0  0  0  0  0  0  0  0  0  0
  185.7700  177.9040  137.9440 C   0  0  0  0  0  2  0  0  0  0  0  0
  190.5910  176.3460  138.4120 C   0  0  2  0  0  3  0  0  0  0  0  0
  184.8410  178.5900  140.2010 C   0  0  2  0  0  3  0  0  0  0  0  0
  186.1560  176.6260  137.2640 C   0  0  0  0  0  0  0  0  0  0  0  0
  189.3890  178.9580  141.7230 C   0  0  0  0  0  1  0  0  0  0  0  0
  182.9600  178.5110  143.2410 C   0  0  0  0  0  2  0  0  0  0  0  0
  184.0770  179.3270  142.5450 C   0  0  1  0  0  3  0  0  0  0  0  0
  182.8190  178.7720  144.7470 C   0  0  0  0  0  2  0  0  0  0  0  0
  185.1540  179.4960  144.8110 C   0  0  0  0  0  3  0  0  0  0  0  0
  184.1670  178.8240  145.3970 C   0  0  0  0  0  0  0  0  0  0  0  0
  184.8870  180.2070  143.5190 C   0  0  0  0  0  2  0  0  0  0  0  0
  184.3830  178.1770  146.6070 O   0  0  0  0  0  1  0  0  0  0  0  0
  188.0470  175.8390  143.3450 O   0  0  0  0  0  0  0  0  0  0  0  0
  188.8890  176.8950  143.0080 C   0  0  0  0  0  0  0  0  0  0  0  0
  189.6800  177.3500  143.8800 O   0  0  0  0  0  1  0  0  0  0  0  0
  185.5440  174.3060  136.8030 C   0  0  0  0  0  2  0  0  0  0  0  0
  185.1570  175.5590  137.0220 C   0  0  0  0  0  0  0  0  0  0  0  0
  183.6900  175.8350  137.1150 C   0  0  0  0  0  2  0  0  0  0  0  0
  183.1880  175.4070  138.4090 N   0  0  0  0  0  1  0  0  0  0  0  0
  190.1190  174.2440  137.1640 C   0  0  0  0  0  3  0  0  0  0  0  0
  190.2010  174.1220  135.8380 C   0  0  0  0  0  3  0  0  0  0  0  0
  190.8010  172.9050  135.2120 C   0  0  0  0  0  2  0  0  0  0  0  0
  194.2680  172.0480  136.3030 C   0  0  0  0  0  0  0  0  0  0  0  0
  194.3990  173.8200  134.7200 N   0  0  0  0  0  0  0  0  0  0  0  0
  193.0470  173.8210  134.5940 C   0  0  0  0  0  3  0  0  0  0  0  0
  195.0260  172.9530  135.5580 C   0  0  0  0  0  3  0  0  0  0  0  0
  192.9140  172.0500  136.1800 N   0  0  0  0  0  0  0  0  0  0  0  0
  192.2870  172.9140  135.3380 C   0  0  0  0  0  0  0  0  0  0  0  0
  195.4740  171.8070  138.3140 O   0  0  0  0  0  1  0  0  0  0  0  0
  194.9280  171.1020  137.2440 C   0  0  0  0  0  2  0  0  0  0  0  0
  191.3730  177.0470  137.3990 N   0  0  0  0  0  2  0  0  0  0  0  0
  192.5360  176.2980  137.1670 N   0  0  0  0  0  2  0  0  0  0  0  0
  194.6460  175.6130  137.8550 O   0  0  0  0  0  0  0  0  0  0  0  0
  193.6190  176.2980  138.0950 C   0  0  0  0  0  0  0  0  0  0  0  0
  193.5530  177.0600  139.2550 O   0  0  0  0  0  1  0  0  0  0  0  0
  184.7190  179.9380  139.7680 O   0  0  0  0  0  0  0  0  0  0  0  0
  183.8670  180.0140  138.6520 C   0  0  0  0  0  2  0  0  0  0  0  0
  182.5010  180.4260  139.0910 C   0  0  0  0  0  0  0  0  0  0  0  0
  182.0430  181.5310  138.7070 O   0  0  0  0  0  0  0  0  0  0  0  0
  181.7380  179.6350  139.9500 O   0  0  0  0  0  0  0  0  0  0  0  0
  180.3470  179.8500  140.1490 C   0  0  0  0  0  1  0  0  0  0  0  0
  1  8  1  0  0  0  0
  2 31  1  6  0  0  0
  2 13  1  0  0  0  0
  4  3  1  1  0  0  0
  4 18  1  0  0  0  0
  5 12  1  6  0  0  0
  5  1  1  0  0  0  0
  5 14  1  0  0  0  0
  6 11  2  0  0  0  0
  6  2  1  0  0  0  0
  7  9  1  0  0  0  0
  8 10  1  0  0  0  0
  8  3  1  1  0  0  0
  9 10  1  0  0  0  0
 10 16  1  1  0  0  0
 10 25  1  0  0  0  0
 11 15  2  0  0  0  0
 13 42  1  6  0  0  0
 13  7  1  0  0  0  0
 14 47  1  1  0  0  0
 14  4  1  0  0  0  0
 15 12  1  0  0  0  0
 17 19  1  0  0  0  0
 18 17  1  1  0  0  0
 18 22  1  0  0  0  0
 19 21  1  0  0  0  0
 20 21  2  0  0  0  0
 21 23  1  0  0  0  0
 22 20  1  0  0  0  0
 25 24  2  0  0  0  0
 25 26  1  0  0  0  0
 27 28  2  0  0  0  0
 28 29  1  0  0  0  0
 28 15  1  0  0  0  0
 29 30  1  0  0  0  0
 32 31  2  0  0  0  0
 33 39  1  0  0  0  0
 33 32  1  0  0  0  0
 34 41  1  0  0  0  0
 35 37  1  0  0  0  0
 36 35  2  0  0  0  0
 36 39  1  0  0  0  0
 37 34  2  0  0  0  0
 38 34  1  0  0  0  0
 39 38  2  0  0  0  0
 41 40  1  0  0  0  0
 43 42  1  0  0  0  0
 43 45  1  0  0  0  0
 44 45  2  0  0  0  0
 45 46  1  0  0  0  0
 48 49  1  0  0  0  0
 48 47  1  0  0  0  0
 49 51  1  0  0  0  0
 50 49  2  0  0  0  0
 51 52  1  0  0  0  0
M  END
>  <MODEL>
2

>  <REMARK>
 VINA RESULT:      -6.3      3.064     10.517
  Name = 
  14 active torsions:
  status: ('A' for Active; 'I' for Inactive)
    1  A    between atoms: C_3  and  C_6
    2  A    between atoms: C_4  and  C_30
    3  A    between atoms: C_7  and  C_32
    4  A    between atoms: C_7  and  C_52
    5  A    between atoms: C_10  and  C_19
    6  A    between atoms: C_14  and  C_27
    7  A    between atoms: CA_16  and  C_42
    8  A    between atoms: C_21  and  C_23
    9  A    between atoms: C_21  and  O_24
   10  A    between atoms: C_23  and  O_36
   11  A    between atoms: N_26  and  N_28
   12  A    between atoms: N_26  and  C_34
   13  A    between atoms: C_27  and  C_44
   14  A    between atoms: O_36  and  C_38
                            x       y       z     vdW  Elec       q    Type
                         _______ _______ _______ _____ _____    ______ ____

>  <TORSDO>
F 14

$$$$
=
 OpenBabel11062415123D

 52 55  0  0  1  0  0  0  0  0999 V2000
  186.4870  176.7700  137.6590 O   0  0  0  0  0  0  0  0  0  0  0  0
  184.5890  178.4250  140.8660 C   0  0  2  0  0  3  0  0  0  0  0  0
  186.4810  174.7260  136.3660 C   0  0  0  0  0  2  0  0  0  0  0  0
  187.9700  174.4940  136.6460 C   0  0  2  0  0  3  0  0  0  0  0  0
  187.7770  176.5140  138.1630 C   0  0  2  0  0  3  0  0  0  0  0  0
  185.8200  179.2430  140.6250 C   0  0  0  0  0  3  0  0  0  0  0  0
  183.9650  177.9710  138.4780 C   0  0  0  0  0  2  0  0  0  0  0  0
  185.8510  175.5180  137.5280 C   0  0  2  0  0  3  0  0  0  0  0  0
  183.7330  176.4630  138.5520 C   0  0  0  0  0  2  0  0  0  0  0  0
  184.3200  175.6740  137.3700 C   0  0  1  0  0  0  0  0  0  0  0  0
  186.9480  178.6510  140.3600 C   0  0  0  0  0  0  0  0  0  0  0  0
  188.4230  177.7990  138.6550 C   0  0  0  0  0  2  0  0  0  0  0  0
  183.5310  178.6300  139.7760 C   0  0  2  0  0  3  0  0  0  0  0  0
  188.6480  175.8030  137.1090 C   0  0  2  0  0  3  0  0  0  0  0  0
  188.0700  178.0350  140.0920 C   0  0  0  0  0  0  0  0  0  0  0  0
  183.9910  176.3710  136.0470 C   0  0  0  0  0  1  0  0  0  0  0  0
  189.8950  172.9810  136.0030 C   0  0  0  0  0  2  0  0  0  0  0  0
  188.6990  173.8130  135.4780 C   0  0  1  0  0  3  0  0  0  0  0  0
  189.9360  171.5310  135.5010 C   0  0  0  0  0  2  0  0  0  0  0  0
  187.5190  171.6190  135.1350 C   0  0  0  0  0  3  0  0  0  0  0  0
  188.5690  170.9200  135.5550 C   0  0  0  0  0  0  0  0  0  0  0  0
  187.7310  173.0010  134.5940 C   0  0  0  0  0  2  0  0  0  0  0  0
  188.4020  169.6280  136.0390 O   0  0  0  0  0  1  0  0  0  0  0  0
  182.4970  174.0770  136.6750 O   0  0  0  0  0  0  0  0  0  0  0  0
  183.6640  174.3140  137.3960 C   0  0  0  0  0  0  0  0  0  0  0  0
  184.1250  173.3980  138.1320 O   0  0  0  0  0  1  0  0  0  0  0  0
  188.4290  177.4200  142.4290 C   0  0  0  0  0  2  0  0  0  0  0  0
  188.8900  177.4580  141.1830 C   0  0  0  0  0  0  0  0  0  0  0  0
  190.2110  176.8140  140.9030 C   0  0  0  0  0  2  0  0  0  0  0  0
  190.5980  175.9730  142.0220 N   0  0  0  0  0  1  0  0  0  0  0  0
  184.0180  178.7100  142.2170 C   0  0  0  0  0  3  0  0  0  0  0  0
  184.7140  178.4260  143.3190 C   0  0  0  0  0  3  0  0  0  0  0  0
  184.1530  178.6990  144.6760 C   0  0  0  0  0  2  0  0  0  0  0  0
  187.3440  177.7940  146.3930 C   0  0  0  0  0  0  0  0  0  0  0  0
  185.9160  178.8520  147.9760 N   0  0  0  0  0  0  0  0  0  0  0  0
  184.9580  179.0040  147.0270 C   0  0  0  0  0  3  0  0  0  0  0  0
  187.1040  178.2570  147.6880 C   0  0  0  0  0  3  0  0  0  0  0  0
  186.3840  177.9430  145.4420 N   0  0  0  0  0  0  0  0  0  0  0  0
  185.1980  178.5420  145.7300 C   0  0  0  0  0  0  0  0  0  0  0  0
  189.6520  178.0640  145.9980 O   0  0  0  0  0  1  0  0  0  0  0  0
  188.6280  177.1210  146.0550 C   0  0  0  0  0  2  0  0  0  0  0  0
  183.2680  180.0460  139.5460 N   0  0  0  0  0  2  0  0  0  0  0  0
  181.9350  180.2950  139.9030 N   0  0  0  0  0  2  0  0  0  0  0  0
  179.8260  181.0900  139.3390 O   0  0  0  0  0  1  0  0  0  0  0  0
  181.0150  180.8820  138.9850 C   0  0  0  0  0  0  0  0  0  0  0  0
  181.4280  181.2410  137.7080 O   0  0  0  0  0  0  0  0  0  0  0  0
  189.1410  176.6340  136.0680 O   0  0  0  0  0  0  0  0  0  0  0  0
  190.4180  177.1200  136.3980 C   0  0  0  0  0  2  0  0  0  0  0  0
  191.4570  176.1360  135.9680 C   0  0  0  0  0  0  0  0  0  0  0  0
  191.6700  175.9700  134.7420 O   0  0  0  0  0  0  0  0  0  0  0  0
  192.1640  175.3670  136.8930 O   0  0  0  0  0  0  0  0  0  0  0  0
  193.5170  175.6380  137.2310 C   0  0  0  0  0  1  0  0  0  0  0  0
  1  5  1  0  0  0  0
  2 31  1  1  0  0  0
  4  3  1  6  0  0  0
  4 14  1  0  0  0  0
  5 12  1  6  0  0  0
  6  2  1  0  0  0  0
  7  9  1  0  0  0  0
  7 13  1  0  0  0  0
  8  3  1  6  0  0  0
  8  1  1  0  0  0  0
 10 16  1  6  0  0  0
 10 25  1  0  0  0  0
 10  8  1  0  0  0  0
 10  9  1  0  0  0  0
 11  6  2  0  0  0  0
 12 15  1  0  0  0  0
 13 42  1  6  0  0  0
 13  2  1  0  0  0  0
 14 47  1  6  0  0  0
 14  5  1  0  0  0  0
 15 11  2  0  0  0  0
 15 28  1  0  0  0  0
 18 22  1  1  0  0  0
 18 17  1  0  0  0  0
 18  4  1  0  0  0  0
 19 21  1  0  0  0  0
 19 17  1  0  0  0  0
 20 21  2  0  0  0  0
 21 23  1  0  0  0  0
 22 20  1  0  0  0  0
 24 25  2  0  0  0  0
 25 26  1  0  0  0  0
 28 27  2  0  0  0  0
 29 28  1  0  0  0  0
 29 30  1  0  0  0  0
 31 32  2  0  0  0  0
 32 33  1  0  0  0  0
 33 39  1  0  0  0  0
 34 37  1  0  0  0  0
 36 35  1  0  0  0  0
 37 35  2  0  0  0  0
 38 39  1  0  0  0  0
 38 34  2  0  0  0  0
 39 36  2  0  0  0  0
 40 41  1  0  0  0  0
 41 34  1  0  0  0  0
 42 43  1  0  0  0  0
 45 44  1  0  0  0  0
 45 43  1  0  0  0  0
 46 45  2  0  0  0  0
 47 48  1  0  0  0  0
 49 48  1  0  0  0  0
 49 51  1  0  0  0  0
 50 49  2  0  0  0  0
 51 52  1  0  0  0  0
M  END
>  <MODEL>
3

>  <REMARK>
 VINA RESULT:      -5.9      1.870      2.537
  Name = 
  14 active torsions:
  status: ('A' for Active; 'I' for Inactive)
    1  A    between atoms: C_3  and  C_6
    2  A    between atoms: C_4  and  C_30
    3  A    between atoms: C_7  and  C_32
    4  A    between atoms: C_7  and  C_52
    5  A    between atoms: C_10  and  C_19
    6  A    between atoms: C_14  and  C_27
    7  A    between atoms: CA_16  and  C_42
    8  A    between atoms: C_21  and  C_23
    9  A    between atoms: C_21  and  O_24
   10  A    between atoms: C_23  and  O_36
   11  A    between atoms: N_26  and  N_28
   12  A    between atoms: N_26  and  C_34
   13  A    between atoms: C_27  and  C_44
   14  A    between atoms: O_36  and  C_38
                            x       y       z     vdW  Elec       q    Type
                         _______ _______ _______ _____ _____    ______ ____

>  <TORSDO>
F 14

$$$$
=
 OpenBabel11062415123D

 52 55  0  0  1  0  0  0  0  0999 V2000
  183.3240  177.4130  138.0710 O   0  0  0  0  0  0  0  0  0  0  0  0
  185.5100  174.5330  136.1870 C   0  0  2  0  0  3  0  0  0  0  0  0
  181.4440  178.8750  137.6450 C   0  0  0  0  0  2  0  0  0  0  0  0
  182.2880  180.1190  137.9510 C   0  0  2  0  0  3  0  0  0  0  0  0
  184.2240  178.4940  138.1300 C   0  0  2  0  0  3  0  0  0  0  0  0
  186.3060  174.9670  137.3790 C   0  0  0  0  0  3  0  0  0  0  0  0
  183.2190  174.6350  137.2070 C   0  0  0  0  0  2  0  0  0  0  0  0
  182.3520  177.7520  137.1070 C   0  0  2  0  0  3  0  0  0  0  0  0
  182.4870  175.4200  136.1210 C   0  0  0  0  0  2  0  0  0  0  0  0
  181.5450  176.5120  136.6550 C   0  0  1  0  0  0  0  0  0  0  0  0
  186.4040  176.2330  137.6640 C   0  0  0  0  0  0  0  0  0  0  0  0
  185.4850  178.0990  138.8830 C   0  0  0  0  0  2  0  0  0  0  0  0
  184.2650  173.7290  136.5800 C   0  0  2  0  0  3  0  0  0  0  0  0
  183.5540  179.7360  138.7500 C   0  0  2  0  0  3  0  0  0  0  0  0
  186.4850  177.5100  137.9350 C   0  0  0  0  0  0  0  0  0  0  0  0
  180.7070  175.9720  137.8180 C   0  0  0  0  0  1  0  0  0  0  0  0
  182.0660  182.6260  138.2210 C   0  0  0  0  0  2  0  0  0  0  0  0
  181.4760  181.2470  138.6040 C   0  0  1  0  0  3  0  0  0  0  0  0
  181.0440  183.6290  137.6710 C   0  0  0  0  0  2  0  0  0  0  0  0
  179.6190  181.7630  136.9890 C   0  0  0  0  0  3  0  0  0  0  0  0
  180.1230  182.9590  136.6980 C   0  0  0  0  0  0  0  0  0  0  0  0
  179.9700  181.1200  138.2970 C   0  0  0  0  0  2  0  0  0  0  0  0
  179.7940  183.5850  135.5030 O   0  0  0  0  0  1  0  0  0  0  0  0
  181.0060  177.8680  134.5990 O   0  0  0  0  0  0  0  0  0  0  0  0
  180.6310  176.8870  135.5130 C   0  0  0  0  0  0  0  0  0  0  0  0
  179.4850  176.3680  135.4180 O   0  0  0  0  0  1  0  0  0  0  0  0
  187.1070  178.9480  136.0600 C   0  0  0  0  0  2  0  0  0  0  0  0
  187.4470  178.3730  137.2080 C   0  0  0  0  0  0  0  0  0  0  0  0
  188.7860  178.7010  137.7900 C   0  0  0  0  0  2  0  0  0  0  0  0
  189.1240  177.7400  138.8250 N   0  0  0  0  0  1  0  0  0  0  0  0
  186.3600  173.7580  135.2340 C   0  0  0  0  0  3  0  0  0  0  0  0
  187.6210  173.4530  135.5460 C   0  0  0  0  0  3  0  0  0  0  0  0
  188.4850  172.6850  134.5990 C   0  0  0  0  0  2  0  0  0  0  0  0
  191.6460  173.5800  136.3750 C   0  0  0  0  0  0  0  0  0  0  0  0
  192.0580  171.6520  135.0400 N   0  0  0  0  0  0  0  0  0  0  0  0
  190.7710  171.6650  134.6060 C   0  0  0  0  0  3  0  0  0  0  0  0
  192.5150  172.5880  135.9140 C   0  0  0  0  0  3  0  0  0  0  0  0
  190.3580  173.5950  135.9390 N   0  0  0  0  0  0  0  0  0  0  0  0
  189.9010  172.6570  135.0680 C   0  0  0  0  0  0  0  0  0  0  0  0
  191.0780  175.0370  138.1370 O   0  0  0  0  0  1  0  0  0  0  0  0
  192.1260  174.6280  137.3160 C   0  0  0  0  0  2  0  0  0  0  0  0
  184.5960  172.6470  137.5000 N   0  0  0  0  0  2  0  0  0  0  0  0
  184.5420  171.4450  136.7810 N   0  0  0  0  0  2  0  0  0  0  0  0
  183.2910  169.7180  135.8590 O   0  0  0  0  0  0  0  0  0  0  0  0
  183.3020  170.7950  136.5090 C   0  0  0  0  0  0  0  0  0  0  0  0
  182.1080  171.3350  136.9710 O   0  0  0  0  0  1  0  0  0  0  0  0
  183.3940  179.6980  140.1610 O   0  0  0  0  0  0  0  0  0  0  0  0
  182.8050  178.4830  140.5510 C   0  0  0  0  0  2  0  0  0  0  0  0
  181.7810  178.7370  141.6080 C   0  0  0  0  0  0  0  0  0  0  0  0
  180.7070  179.3060  141.2930 O   0  0  0  0  0  0  0  0  0  0  0  0
  182.0070  178.3960  142.9420 O   0  0  0  0  0  0  0  0  0  0  0  0
  182.7860  179.2060  143.8120 C   0  0  0  0  0  1  0  0  0  0  0  0
  1  5  1  0  0  0  0
  2 31  1  6  0  0  0
  2 13  1  0  0  0  0
  2  6  1  0  0  0  0
  4  3  1  1  0  0  0
  4 18  1  0  0  0  0
  4 14  1  0  0  0  0
  5 14  1  0  0  0  0
  5 12  1  1  0  0  0
  6 11  2  0  0  0  0
  8  3  1  1  0  0  0
  8  1  1  0  0  0  0
  9 10  1  0  0  0  0
  9  7  1  0  0  0  0
 10  8  1  0  0  0  0
 10 16  1  1  0  0  0
 11 15  2  0  0  0  0
 13  7  1  0  0  0  0
 13 42  1  1  0  0  0
 14 47  1  1  0  0  0
 15 12  1  0  0  0  0
 18 17  1  6  0  0  0
 19 17  1  0  0  0  0
 20 22  1  0  0  0  0
 21 20  2  0  0  0  0
 21 19  1  0  0  0  0
 22 18  1  0  0  0  0
 23 21  1  0  0  0  0
 24 25  2  0  0  0  0
 25 10  1  0  0  0  0
 26 25  1  0  0  0  0
 27 28  2  0  0  0  0
 28 29  1  0  0  0  0
 28 15  1  0  0  0  0
 29 30  1  0  0  0  0
 31 32  2  0  0  0  0
 33 39  1  0  0  0  0
 33 32  1  0  0  0  0
 34 41  1  0  0  0  0
 35 37  1  0  0  0  0
 36 35  2  0  0  0  0
 36 39  1  0  0  0  0
 37 34  2  0  0  0  0
 38 34  1  0  0  0  0
 39 38  2  0  0  0  0
 41 40  1  0  0  0  0
 43 42  1  0  0  0  0
 44 45  2  0  0  0  0
 45 43  1  0  0  0  0
 45 46  1  0  0  0  0
 47 48  1  0  0  0  0
 48 49  1  0  0  0  0
 49 51  1  0  0  0  0
 50 49  2  0  0  0  0
 51 52  1  0  0  0  0
M  END
>  <MODEL>
4

>  <REMARK>
 VINA RESULT:      -4.7      3.807     10.381
  Name = 
  14 active torsions:
  status: ('A' for Active; 'I' for Inactive)
    1  A    between atoms: C_3  and  C_6
    2  A    between atoms: C_4  and  C_30
    3  A    between atoms: C_7  and  C_32
    4  A    between atoms: C_7  and  C_52
    5  A    between atoms: C_10  and  C_19
    6  A    between atoms: C_14  and  C_27
    7  A    between atoms: CA_16  and  C_42
    8  A    between atoms: C_21  and  C_23
    9  A    between atoms: C_21  and  O_24
   10  A    between atoms: C_23  and  O_36
   11  A    between atoms: N_26  and  N_28
   12  A    between atoms: N_26  and  C_34
   13  A    between atoms: C_27  and  C_44
   14  A    between atoms: O_36  and  C_38
                            x       y       z     vdW  Elec       q    Type
                         _______ _______ _______ _____ _____    ______ ____

>  <TORSDO>
F 14

$$$$
=
 OpenBabel11062415123D

 52 55  0  0  1  0  0  0  0  0999 V2000
  182.1590  176.7510  137.8060 O   0  0  0  0  0  0  0  0  0  0  0  0
  183.1780  178.7470  141.2130 C   0  0  2  0  0  3  0  0  0  0  0  0
  181.3160  174.5910  137.1160 C   0  0  0  0  0  2  0  0  0  0  0  0
  182.5310  174.3600  136.2090 C   0  0  2  0  0  3  0  0  0  0  0  0
  183.4080  176.5220  137.1980 C   0  0  2  0  0  3  0  0  0  0  0  0
  183.7690  179.5140  140.0710 C   0  0  0  0  0  3  0  0  0  0  0  0
  181.0140  178.0740  140.1340 C   0  0  0  0  0  2  0  0  0  0  0  0
  181.7130  175.5050  138.2920 C   0  0  2  0  0  3  0  0  0  0  0  0
  181.0060  176.5850  140.4740 C   0  0  0  0  0  2  0  0  0  0  0  0
  180.5660  175.6730  139.3170 C   0  0  1  0  0  0  0  0  0  0  0  0
  184.3590  178.8780  139.1010 C   0  0  0  0  0  0  0  0  0  0  0  0
  184.1260  177.8370  136.9400 C   0  0  0  0  0  2  0  0  0  0  0  0
  181.6500  178.8640  141.2640 C   0  0  2  0  0  3  0  0  0  0  0  0
  183.2480  175.6950  135.9070 C   0  0  2  0  0  3  0  0  0  0  0  0
  184.9450  178.2180  138.1360 C   0  0  0  0  0  0  0  0  0  0  0  0
  179.3210  176.2430  138.6310 C   0  0  0  0  0  1  0  0  0  0  0  0
  182.7830  172.1280  135.0430 C   0  0  0  0  0  2  0  0  0  0  0  0
  182.1900  173.5550  134.9460 C   0  0  1  0  0  3  0  0  0  0  0  0
  181.7820  170.9980  134.7630 C   0  0  0  0  0  2  0  0  0  0  0  0
  179.9570  172.4930  135.4080 C   0  0  0  0  0  3  0  0  0  0  0  0
  180.4800  171.2710  135.4510 C   0  0  0  0  0  0  0  0  0  0  0  0
  180.6760  173.5690  134.6500 C   0  0  0  0  0  2  0  0  0  0  0  0
  179.8210  170.2520  136.1270 O   0  0  0  0  0  1  0  0  0  0  0  0
  179.7460  173.2950  139.1390 O   0  0  0  0  0  0  0  0  0  0  0  0
  180.2310  174.3340  139.9300 C   0  0  0  0  0  0  0  0  0  0  0  0
  180.3130  174.1670  141.1780 O   0  0  0  0  0  1  0  0  0  0  0  0
  187.0860  178.1450  139.3100 C   0  0  0  0  0  2  0  0  0  0  0  0
  186.3370  177.7350  138.2920 C   0  0  0  0  0  0  0  0  0  0  0  0
  186.9070  176.7020  137.3730 C   0  0  0  0  0  2  0  0  0  0  0  0
  188.3580  176.7350  137.4310 N   0  0  0  0  0  1  0  0  0  0  0  0
  183.7840  179.1720  142.5100 C   0  0  0  0  0  3  0  0  0  0  0  0
  183.4200  178.5870  143.6520 C   0  0  0  0  0  3  0  0  0  0  0  0
  184.0140  179.0070  144.9570 C   0  0  0  0  0  2  0  0  0  0  0  0
  187.4600  177.7230  144.3050 C   0  0  0  0  0  0  0  0  0  0  0  0
  186.9300  177.3180  146.5900 N   0  0  0  0  0  0  0  0  0  0  0  0
  185.7080  177.8840  146.4180 C   0  0  0  0  0  3  0  0  0  0  0  0
  187.8140  177.2260  145.5610 C   0  0  0  0  0  3  0  0  0  0  0  0
  186.2360  178.2880  144.1310 N   0  0  0  0  0  0  0  0  0  0  0  0
  185.3540  178.3830  145.1610 C   0  0  0  0  0  0  0  0  0  0  0  0
  189.6000  178.2530  143.4710 O   0  0  0  0  0  1  0  0  0  0  0  0
  188.4010  177.6170  143.1570 C   0  0  0  0  0  2  0  0  0  0  0  0
  181.2190  180.2560  141.1970 N   0  0  0  0  0  2  0  0  0  0  0  0
  180.1590  180.3280  140.2810 N   0  0  0  0  0  2  0  0  0  0  0  0
  179.2110  181.2830  138.3870 O   0  0  0  0  0  0  0  0  0  0  0  0
  180.1790  181.2470  139.1910 C   0  0  0  0  0  0  0  0  0  0  0  0
  181.2530  182.1110  139.0170 O   0  0  0  0  0  1  0  0  0  0  0  0
  182.7520  176.4110  134.7850 O   0  0  0  0  0  0  0  0  0  0  0  0
  181.3750  176.6520  134.9320 C   0  0  0  0  0  2  0  0  0  0  0  0
  181.1300  178.1220  135.0240 C   0  0  0  0  0  0  0  0  0  0  0  0
  182.0030  178.9160  134.5940 O   0  0  0  0  0  0  0  0  0  0  0  0
  179.9740  178.6360  135.6130 O   0  0  0  0  0  0  0  0  0  0  0  0
  179.5650  179.9860  135.4360 C   0  0  0  0  0  1  0  0  0  0  0  0
  1  8  1  0  0  0  0
  2 13  1  0  0  0  0
  2 31  1  1  0  0  0
  4  3  1  6  0  0  0
  5 12  1  6  0  0  0
  5  1  1  0  0  0  0
  6  2  1  0  0  0  0
  7  9  1  0  0  0  0
  7 13  1  0  0  0  0
  8  3  1  6  0  0  0
  8 10  1  0  0  0  0
 10 16  1  6  0  0  0
 10 25  1  0  0  0  0
 10  9  1  0  0  0  0
 11  6  2  0  0  0  0
 12 15  1  0  0  0  0
 13 42  1  6  0  0  0
 14 47  1  6  0  0  0
 14  4  1  0  0  0  0
 14  5  1  0  0  0  0
 15 28  1  0  0  0  0
 15 11  2  0  0  0  0
 18 22  1  1  0  0  0
 18 17  1  0  0  0  0
 18  4  1  0  0  0  0
 19 17  1  0  0  0  0
 19 21  1  0  0  0  0
 20 21  2  0  0  0  0
 21 23  1  0  0  0  0
 22 20  1  0  0  0  0
 24 25  2  0  0  0  0
 25 26  1  0  0  0  0
 28 27  2  0  0  0  0
 29 30  1  0  0  0  0
 29 28  1  0  0  0  0
 31 32  2  0  0  0  0
 32 33  1  0  0  0  0
 33 39  1  0  0  0  0
 34 37  1  0  0  0  0
 36 35  1  0  0  0  0
 37 35  2  0  0  0  0
 38 34  2  0  0  0  0
 38 39  1  0  0  0  0
 39 36  2  0  0  0  0
 41 40  1  0  0  0  0
 41 34  1  0  0  0  0
 43 42  1  0  0  0  0
 44 45  2  0  0  0  0
 45 43  1  0  0  0  0
 46 45  1  0  0  0  0
 47 48  1  0  0  0  0
 48 49  1  0  0  0  0
 49 51  1  0  0  0  0
 50 49  2  0  0  0  0
 52 51  1  0  0  0  0
M  END
>  <MODEL>
5

>  <REMARK>
 VINA RESULT:      -4.4      4.707      7.618
  Name = 
  14 active torsions:
  status: ('A' for Active; 'I' for Inactive)
    1  A    between atoms: C_3  and  C_6
    2  A    between atoms: C_4  and  C_30
    3  A    between atoms: C_7  and  C_32
    4  A    between atoms: C_7  and  C_52
    5  A    between atoms: C_10  and  C_19
    6  A    between atoms: C_14  and  C_27
    7  A    between atoms: CA_16  and  C_42
    8  A    between atoms: C_21  and  C_23
    9  A    between atoms: C_21  and  O_24
   10  A    between atoms: C_23  and  O_36
   11  A    between atoms: N_26  and  N_28
   12  A    between atoms: N_26  and  C_34
   13  A    between atoms: C_27  and  C_44
   14  A    between atoms: O_36  and  C_38
                            x       y       z     vdW  Elec       q    Type
                         _______ _______ _______ _____ _____    ______ ____

>  <TORSDO>
F 14

$$$$
=
 OpenBabel11062415123D

 52 55  0  0  1  0  0  0  0  0999 V2000
  184.2570  177.1060  138.0850 O   0  0  0  0  0  0  0  0  0  0  0  0
  186.9200  174.7970  136.0360 C   0  0  2  0  0  3  0  0  0  0  0  0
  182.3010  178.4700  137.6750 C   0  0  0  0  0  2  0  0  0  0  0  0
  182.9760  179.6980  138.2970 C   0  0  2  0  0  3  0  0  0  0  0  0
  185.0320  178.2250  138.4450 C   0  0  2  0  0  3  0  0  0  0  0  0
  187.5280  175.0680  137.3780 C   0  0  0  0  0  3  0  0  0  0  0  0
  184.5300  174.5320  136.7510 C   0  0  0  0  0  2  0  0  0  0  0  0
  183.3720  177.5380  137.0750 C   0  0  2  0  0  3  0  0  0  0  0  0
  183.8510  175.4420  135.7310 C   0  0  0  0  0  2  0  0  0  0  0  0
  182.7500  176.3410  136.3170 C   0  0  1  0  0  0  0  0  0  0  0  0
  187.4650  176.2640  137.8860 C   0  0  0  0  0  0  0  0  0  0  0  0
  186.2320  177.7990  139.2760 C   0  0  0  0  0  2  0  0  0  0  0  0
  185.7260  173.8410  136.1200 C   0  0  2  0  0  3  0  0  0  0  0  0
  184.1740  179.2760  139.1760 C   0  0  2  0  0  3  0  0  0  0  0  0
  187.3870  177.4730  138.3800 C   0  0  0  0  0  0  0  0  0  0  0  0
  181.8430  175.5350  137.2510 C   0  0  0  0  0  1  0  0  0  0  0  0
  182.0930  182.0640  138.4710 C   0  0  0  0  0  2  0  0  0  0  0  0
  181.9860  180.6210  139.0230 C   0  0  1  0  0  3  0  0  0  0  0  0
  180.7550  182.6920  138.0560 C   0  0  0  0  0  2  0  0  0  0  0  0
  179.8350  180.4490  137.7310 C   0  0  0  0  0  3  0  0  0  0  0  0
  179.9260  181.7030  137.2960 C   0  0  0  0  0  0  0  0  0  0  0  0
  180.5500  180.0600  138.9900 C   0  0  0  0  0  2  0  0  0  0  0  0
  179.2530  182.0950  136.1460 O   0  0  0  0  0  1  0  0  0  0  0  0
  182.1980  178.0980  134.5940 O   0  0  0  0  0  0  0  0  0  0  0  0
  181.9400  176.8460  135.1470 C   0  0  0  0  0  0  0  0  0  0  0  0
  180.9690  176.1710  134.7060 O   0  0  0  0  0  1  0  0  0  0  0  0
  188.0690  179.2760  136.8790 C   0  0  0  0  0  2  0  0  0  0  0  0
  188.3350  178.5250  137.9430 C   0  0  0  0  0  0  0  0  0  0  0  0
  189.5620  178.8420  138.7370 C   0  0  0  0  0  2  0  0  0  0  0  0
  189.8130  177.7840  139.7000 N   0  0  0  0  0  1  0  0  0  0  0  0
  187.9470  174.2770  135.0830 C   0  0  0  0  0  3  0  0  0  0  0  0
  189.0750  173.7280  135.5360 C   0  0  0  0  0  3  0  0  0  0  0  0
  190.1130  173.2110  134.5940 C   0  0  0  0  0  2  0  0  0  0  0  0
  193.1300  174.7360  136.1800 C   0  0  0  0  0  0  0  0  0  0  0  0
  193.6090  172.4540  135.7040 N   0  0  0  0  0  0  0  0  0  0  0  0
  192.3640  172.2910  135.1850 C   0  0  0  0  0  3  0  0  0  0  0  0
  194.0110  173.6530  136.2020 C   0  0  0  0  0  3  0  0  0  0  0  0
  191.8860  174.5750  135.6580 N   0  0  0  0  0  0  0  0  0  0  0  0
  191.4820  173.3740  135.1640 C   0  0  0  0  0  0  0  0  0  0  0  0
  194.2320  175.9050  137.9050 O   0  0  0  0  0  1  0  0  0  0  0  0
  193.5520  176.0660  136.7000 C   0  0  0  0  0  2  0  0  0  0  0  0
  186.0560  172.6380  136.8760 N   0  0  0  0  0  2  0  0  0  0  0  0
  185.8600  171.5360  136.0310 N   0  0  0  0  0  2  0  0  0  0  0  0
  184.4370  169.9460  135.1120 O   0  0  0  0  0  0  0  0  0  0  0  0
  184.5770  170.9330  135.8800 C   0  0  0  0  0  0  0  0  0  0  0  0
  183.4830  171.4170  136.5870 O   0  0  0  0  0  1  0  0  0  0  0  0
  183.8590  178.9700  140.5270 O   0  0  0  0  0  0  0  0  0  0  0  0
  185.0330  178.9160  141.2990 C   0  0  0  0  0  2  0  0  0  0  0  0
  184.7320  178.3040  142.6280 C   0  0  0  0  0  0  0  0  0  0  0  0
  183.6300  178.5490  143.1780 O   0  0  0  0  0  0  0  0  0  0  0  0
  185.6620  177.5030  143.2920 O   0  0  0  0  0  0  0  0  0  0  0  0
  186.4560  177.9890  144.3650 C   0  0  0  0  0  1  0  0  0  0  0  0
  1  5  1  0  0  0  0
  2 31  1  6  0  0  0
  2 13  1  0  0  0  0
  2  6  1  0  0  0  0
  4  3  1  1  0  0  0
  4 18  1  0  0  0  0
  4 14  1  0  0  0  0
  5 14  1  0  0  0  0
  5 12  1  1  0  0  0
  6 11  2  0  0  0  0
  8  3  1  1  0  0  0
  8  1  1  0  0  0  0
  9 10  1  0  0  0  0
  9  7  1  0  0  0  0
 10  8  1  0  0  0  0
 10 16  1  1  0  0  0
 11 15  2  0  0  0  0
 13  7  1  0  0  0  0
 13 42  1  1  0  0  0
 14 47  1  1  0  0  0
 15 12  1  0  0  0  0
 18 17  1  6  0  0  0
 19 17  1  0  0  0  0
 20 22  1  0  0  0  0
 21 20  2  0  0  0  0
 21 19  1  0  0  0  0
 22 18  1  0  0  0  0
 23 21  1  0  0  0  0
 24 25  2  0  0  0  0
 25 10  1  0  0  0  0
 26 25  1  0  0  0  0
 27 28  2  0  0  0  0
 28 15  1  0  0  0  0
 28 29  1  0  0  0  0
 29 30  1  0  0  0  0
 31 32  2  0  0  0  0
 33 39  1  0  0  0  0
 33 32  1  0  0  0  0
 34 37  1  0  0  0  0
 34 41  1  0  0  0  0
 35 37  2  0  0  0  0
 36 35  1  0  0  0  0
 38 34  2  0  0  0  0
 39 36  2  0  0  0  0
 39 38  1  0  0  0  0
 41 40  1  0  0  0  0
 43 42  1  0  0  0  0
 44 45  2  0  0  0  0
 45 43  1  0  0  0  0
 45 46  1  0  0  0  0
 47 48  1  0  0  0  0
 48 49  1  0  0  0  0
 49 50  2  0  0  0  0
 49 51  1  0  0  0  0
 51 52  1  0  0  0  0
M  END
>  <MODEL>
6

>  <REMARK>
 VINA RESULT:      -4.3      3.433      9.869
  Name = 
  14 active torsions:
  status: ('A' for Active; 'I' for Inactive)
    1  A    between atoms: C_3  and  C_6
    2  A    between atoms: C_4  and  C_30
    3  A    between atoms: C_7  and  C_32
    4  A    between atoms: C_7  and  C_52
    5  A    between atoms: C_10  and  C_19
    6  A    between atoms: C_14  and  C_27
    7  A    between atoms: CA_16  and  C_42
    8  A    between atoms: C_21  and  C_23
    9  A    between atoms: C_21  and  O_24
   10  A    between atoms: C_23  and  O_36
   11  A    between atoms: N_26  and  N_28
   12  A    between atoms: N_26  and  C_34
   13  A    between atoms: C_27  and  C_44
   14  A    between atoms: O_36  and  C_38
                            x       y       z     vdW  Elec       q    Type
                         _______ _______ _______ _____ _____    ______ ____

>  <TORSDO>
F 14

$$$$
=
 OpenBabel11062415123D

 52 55  0  0  1  0  0  0  0  0999 V2000
  182.8710  177.4900  137.4600 O   0  0  0  0  0  0  0  0  0  0  0  0
  186.2950  175.7030  136.1540 C   0  0  2  0  0  3  0  0  0  0  0  0
  181.9050  178.3550  139.5030 C   0  0  0  0  0  2  0  0  0  0  0  0
  180.6950  177.4230  139.3750 C   0  0  2  0  0  3  0  0  0  0  0  0
  181.9310  176.4430  137.3920 C   0  0  2  0  0  3  0  0  0  0  0  0
  185.2660  175.4940  135.0860 C   0  0  0  0  0  3  0  0  0  0  0  0
  185.6620  178.0340  136.8370 C   0  0  0  0  0  2  0  0  0  0  0  0
  183.1310  177.7090  138.8290 C   0  0  2  0  0  3  0  0  0  0  0  0
  185.6170  177.8570  138.3530 C   0  0  0  0  0  2  0  0  0  0  0  0
  184.4200  178.5400  139.0350 C   0  0  1  0  0  0  0  0  0  0  0  0
  184.0540  175.1540  135.4150 C   0  0  0  0  0  0  0  0  0  0  0  0
  181.8330  175.9040  135.9740 C   0  0  0  0  0  2  0  0  0  0  0  0
  186.7550  177.1620  136.2420 C   0  0  2  0  0  3  0  0  0  0  0  0
  180.5600  176.8990  137.9280 C   0  0  2  0  0  3  0  0  0  0  0  0
  182.8410  174.8150  135.7680 C   0  0  0  0  0  0  0  0  0  0  0  0
  184.2300  179.9570  138.4870 C   0  0  0  0  0  1  0  0  0  0  0  0
  179.2060  177.6700  141.4080 C   0  0  0  0  0  2  0  0  0  0  0  0
  179.4000  178.0460  139.9180 C   0  0  1  0  0  3  0  0  0  0  0  0
  178.9310  178.8590  142.3380 C   0  0  0  0  0  2  0  0  0  0  0  0
  180.0470  180.3340  140.7380 C   0  0  0  0  0  3  0  0  0  0  0  0
  179.8410  180.0030  142.0090 C   0  0  0  0  0  0  0  0  0  0  0  0
  179.3440  179.5660  139.6590 C   0  0  0  0  0  2  0  0  0  0  0  0
  180.4620  180.7150  143.0270 O   0  0  0  0  0  1  0  0  0  0  0  0
  184.0690  177.8160  141.4250 O   0  0  0  0  0  1  0  0  0  0  0  0
  184.7490  178.6130  140.5070 C   0  0  0  0  0  0  0  0  0  0  0  0
  185.5910  179.4520  140.9300 O   0  0  0  0  0  0  0  0  0  0  0  0
  181.3100  172.9130  135.8510 C   0  0  0  0  0  2  0  0  0  0  0  0
  182.5190  173.4060  136.0960 C   0  0  0  0  0  0  0  0  0  0  0  0
  183.5660  172.4730  136.6170 C   0  0  0  0  0  2  0  0  0  0  0  0
  183.7650  171.3810  135.6800 N   0  0  0  0  0  1  0  0  0  0  0  0
  187.4620  174.7920  135.9530 C   0  0  0  0  0  3  0  0  0  0  0  0
  187.6450  173.7400  136.7520 C   0  0  0  0  0  3  0  0  0  0  0  0
  188.8110  172.8250  136.5670 C   0  0  0  0  0  2  0  0  0  0  0  0
  191.3680  175.2170  137.8660 C   0  0  0  0  0  0  0  0  0  0  0  0
  192.3790  173.8900  136.1690 N   0  0  0  0  0  0  0  0  0  0  0  0
  191.2130  173.2180  135.9850 C   0  0  0  0  0  3  0  0  0  0  0  0
  192.4810  174.8820  137.0920 C   0  0  0  0  0  3  0  0  0  0  0  0
  190.1990  174.5470  137.6800 N   0  0  0  0  0  0  0  0  0  0  0  0
  190.0990  173.5520  136.7590 C   0  0  0  0  0  0  0  0  0  0  0  0
  190.6440  176.0040  139.9660 O   0  0  0  0  0  1  0  0  0  0  0  0
  191.4460  176.3130  138.8700 C   0  0  0  0  0  2  0  0  0  0  0  0
  187.1420  177.6800  134.9350 N   0  0  0  0  0  2  0  0  0  0  0  0
  188.4160  177.1760  134.6370 N   0  0  0  0  0  2  0  0  0  0  0  0
  190.6680  176.9810  135.1730 O   0  0  0  0  0  0  0  0  0  0  0  0
  189.5400  177.4520  135.4700 C   0  0  0  0  0  0  0  0  0  0  0  0
  189.4010  178.2500  136.5990 O   0  0  0  0  0  1  0  0  0  0  0  0
  179.8100  177.7250  137.0490 O   0  0  0  0  0  0  0  0  0  0  0  0
  180.6730  178.4950  136.2520 C   0  0  0  0  0  2  0  0  0  0  0  0
  180.2690  179.9320  136.3170 C   0  0  0  0  0  0  0  0  0  0  0  0
  179.0930  180.2500  136.0150 O   0  0  0  0  0  0  0  0  0  0  0  0
  181.1780  180.9320  136.6630 O   0  0  0  0  0  0  0  0  0  0  0  0
  180.8840  181.9210  137.6400 C   0  0  0  0  0  1  0  0  0  0  0  0
  1  8  1  0  0  0  0
  2 31  1  6  0  0  0
  2 13  1  0  0  0  0
  4  3  1  6  0  0  0
  4 18  1  0  0  0  0
  5 12  1  6  0  0  0
  5  1  1  0  0  0  0
  5 14  1  0  0  0  0
  6 11  2  0  0  0  0
  6  2  1  0  0  0  0
  7  9  1  0  0  0  0
  8 10  1  0  0  0  0
  8  3  1  6  0  0  0
  9 10  1  0  0  0  0
 10 16  1  6  0  0  0
 10 25  1  0  0  0  0
 11 15  2  0  0  0  0
 13 42  1  6  0  0  0
 13  7  1  0  0  0  0
 14 47  1  6  0  0  0
 14  4  1  0  0  0  0
 15 12  1  0  0  0  0
 15 28  1  0  0  0  0
 17 19  1  0  0  0  0
 18 22  1  1  0  0  0
 18 17  1  0  0  0  0
 20 21  2  0  0  0  0
 21 19  1  0  0  0  0
 21 23  1  0  0  0  0
 22 20  1  0  0  0  0
 25 26  2  0  0  0  0
 25 24  1  0  0  0  0
 27 28  2  0  0  0  0
 28 29  1  0  0  0  0
 30 29  1  0  0  0  0
 31 32  2  0  0  0  0
 33 32  1  0  0  0  0
 33 39  1  0  0  0  0
 34 41  1  0  0  0  0
 35 37  1  0  0  0  0
 36 35  2  0  0  0  0
 36 39  1  0  0  0  0
 37 34  2  0  0  0  0
 38 34  1  0  0  0  0
 39 38  2  0  0  0  0
 41 40  1  0  0  0  0
 43 42  1  0  0  0  0
 43 45  1  0  0  0  0
 44 45  2  0  0  0  0
 45 46  1  0  0  0  0
 48 49  1  0  0  0  0
 48 47  1  0  0  0  0
 49 51  1  0  0  0  0
 50 49  2  0  0  0  0
 51 52  1  0  0  0  0
M  END
>  <MODEL>
7

>  <REMARK>
 VINA RESULT:      -4.2      4.049     10.553
  Name = 
  14 active torsions:
  status: ('A' for Active; 'I' for Inactive)
    1  A    between atoms: C_3  and  C_6
    2  A    between atoms: C_4  and  C_30
    3  A    between atoms: C_7  and  C_32
    4  A    between atoms: C_7  and  C_52
    5  A    between atoms: C_10  and  C_19
    6  A    between atoms: C_14  and  C_27
    7  A    between atoms: CA_16  and  C_42
    8  A    between atoms: C_21  and  C_23
    9  A    between atoms: C_21  and  O_24
   10  A    between atoms: C_23  and  O_36
   11  A    between atoms: N_26  and  N_28
   12  A    between atoms: N_26  and  C_34
   13  A    between atoms: C_27  and  C_44
   14  A    between atoms: O_36  and  C_38
                            x       y       z     vdW  Elec       q    Type
                         _______ _______ _______ _____ _____    ______ ____

>  <TORSDO>
F 14

$$$$
=
 OpenBabel11062415123D

 52 55  0  0  1  0  0  0  0  0999 V2000
  186.9360  178.3600  142.1490 O   0  0  0  0  0  0  0  0  0  0  0  0
  187.1610  177.2850  138.2230 C   0  0  2  0  0  3  0  0  0  0  0  0
  187.6380  177.5620  144.3230 C   0  0  0  0  0  2  0  0  0  0  0  0
  186.1910  177.5500  144.8320 C   0  0  2  0  0  3  0  0  0  0  0  0
  185.5760  178.1510  142.4490 C   0  0  2  0  0  3  0  0  0  0  0  0
  186.0970  178.3340  138.3220 C   0  0  0  0  0  3  0  0  0  0  0  0
  188.7760  178.2260  139.8970 C   0  0  0  0  0  2  0  0  0  0  0  0
  187.6530  177.3330  142.7990 C   0  0  2  0  0  3  0  0  0  0  0  0
  189.0580  176.9710  140.7200 C   0  0  0  0  0  2  0  0  0  0  0  0
  189.0900  177.2040  142.2390 C   0  0  1  0  0  0  0  0  0  0  0  0
  185.2350  178.2900  139.2950 C   0  0  0  0  0  0  0  0  0  0  0  0
  184.6930  178.9890  141.5380 C   0  0  0  0  0  2  0  0  0  0  0  0
  188.5660  177.8570  138.4380 C   0  0  2  0  0  3  0  0  0  0  0  0
  185.2910  178.4310  143.9370 C   0  0  2  0  0  3  0  0  0  0  0  0
  184.3810  178.2290  140.2850 C   0  0  0  0  0  0  0  0  0  0  0  0
  189.9030  178.4590  142.5710 C   0  0  0  0  0  1  0  0  0  0  0  0
  186.4770  176.6650  147.1860 C   0  0  0  0  0  2  0  0  0  0  0  0
  186.0810  177.8900  146.3260 C   0  0  1  0  0  3  0  0  0  0  0  0
  187.5230  176.9560  148.2710 C   0  0  0  0  0  2  0  0  0  0  0  0
  188.3110  178.8650  146.9610 C   0  0  0  0  0  3  0  0  0  0  0  0
  188.6180  177.8200  147.7240 C   0  0  0  0  0  0  0  0  0  0  0  0
  186.8690  179.1680  146.6830 C   0  0  0  0  0  2  0  0  0  0  0  0
  189.9450  177.5330  148.0170 O   0  0  0  0  0  1  0  0  0  0  0  0
  191.0030  176.1170  143.4710 O   0  0  0  0  0  1  0  0  0  0  0  0
  189.7650  175.9960  142.8440 C   0  0  0  0  0  0  0  0  0  0  0  0
  189.2500  174.8510  142.7220 O   0  0  0  0  0  0  0  0  0  0  0  0
  182.1470  177.5250  140.9770 C   0  0  0  0  0  2  0  0  0  0  0  0
  183.2160  177.3160  140.2160 C   0  0  0  0  0  0  0  0  0  0  0  0
  183.1650  176.1970  139.2250 C   0  0  0  0  0  2  0  0  0  0  0  0
  181.8370  176.1130  138.6430 N   0  0  0  0  0  1  0  0  0  0  0  0
  187.0780  176.5660  136.9160 C   0  0  0  0  0  3  0  0  0  0  0  0
  185.9200  176.4870  136.2590 C   0  0  0  0  0  3  0  0  0  0  0  0
  185.8210  175.7650  134.9550 C   0  0  0  0  0  2  0  0  0  0  0  0
  184.0380  172.5570  135.6470 C   0  0  0  0  0  0  0  0  0  0  0  0
  186.3360  172.0690  135.2670 N   0  0  0  0  0  0  0  0  0  0  0  0
  186.5950  173.3870  135.0720 C   0  0  0  0  0  3  0  0  0  0  0  0
  185.0800  171.6330  135.5530 C   0  0  0  0  0  3  0  0  0  0  0  0
  184.2960  173.8780  135.4540 N   0  0  0  0  0  0  0  0  0  0  0  0
  185.5520  174.3120  135.1650 C   0  0  0  0  0  0  0  0  0  0  0  0
  182.6510  171.4870  137.2230 O   0  0  0  0  0  1  0  0  0  0  0  0
  182.6570  172.1100  135.9780 C   0  0  0  0  0  2  0  0  0  0  0  0
  188.8020  179.0240  137.5960 N   0  0  0  0  0  2  0  0  0  0  0  0
  189.0200  178.5680  136.2880 N   0  0  0  0  0  2  0  0  0  0  0  0
  190.1190  177.1390  134.8230 O   0  0  0  0  0  0  0  0  0  0  0  0
  189.9500  177.5240  136.0090 C   0  0  0  0  0  0  0  0  0  0  0  0
  190.6830  176.9400  137.0350 O   0  0  0  0  0  1  0  0  0  0  0  0
  185.2330  179.8040  144.2960 O   0  0  0  0  0  0  0  0  0  0  0  0
  183.9710  180.3350  143.9820 C   0  0  0  0  0  2  0  0  0  0  0  0
  182.9020  179.4680  144.5620 C   0  0  0  0  0  0  0  0  0  0  0  0
  183.0520  179.0060  145.7200 O   0  0  0  0  0  0  0  0  0  0  0  0
  181.7630  179.1240  143.8330 O   0  0  0  0  0  0  0  0  0  0  0  0
  180.7760  178.2350  144.3380 C   0  0  0  0  0  1  0  0  0  0  0  0
  1  5  1  0  0  0  0
  1  8  1  0  0  0  0
  2 31  1  6  0  0  0
  2  6  1  0  0  0  0
  2 13  1  0  0  0  0
  4  3  1  6  0  0  0
  4 18  1  0  0  0  0
  5 12  1  6  0  0  0
  5 14  1  0  0  0  0
  6 11  2  0  0  0  0
  7  9  1  0  0  0  0
  8  3  1  1  0  0  0
  9 10  1  0  0  0  0
 10 16  1  1  0  0  0
 10  8  1  0  0  0  0
 10 25  1  0  0  0  0
 11 15  2  0  0  0  0
 13 42  1  6  0  0  0
 13  7  1  0  0  0  0
 14 47  1  6  0  0  0
 14  4  1  0  0  0  0
 15 12  1  0  0  0  0
 17 19  1  0  0  0  0
 18 22  1  1  0  0  0
 18 17  1  0  0  0  0
 20 21  2  0  0  0  0
 21 23  1  0  0  0  0
 21 19  1  0  0  0  0
 22 20  1  0  0  0  0
 25 24  1  0  0  0  0
 26 25  2  0  0  0  0
 28 15  1  0  0  0  0
 28 27  2  0  0  0  0
 29 28  1  0  0  0  0
 30 29  1  0  0  0  0
 32 31  2  0  0  0  0
 33 39  1  0  0  0  0
 33 32  1  0  0  0  0
 34 41  1  0  0  0  0
 35 37  2  0  0  0  0
 36 39  2  0  0  0  0
 36 35  1  0  0  0  0
 37 34  1  0  0  0  0
 38 34  2  0  0  0  0
 39 38  1  0  0  0  0
 41 40  1  0  0  0  0
 43 42  1  0  0  0  0
 44 45  2  0  0  0  0
 45 43  1  0  0  0  0
 45 46  1  0  0  0  0
 48 47  1  0  0  0  0
 48 49  1  0  0  0  0
 49 50  2  0  0  0  0
 51 52  1  0  0  0  0
 51 49  1  0  0  0  0
M  END
>  <MODEL>
8

>  <REMARK>
 VINA RESULT:      -4.2      3.751     10.202
  Name = 
  14 active torsions:
  status: ('A' for Active; 'I' for Inactive)
    1  A    between atoms: C_3  and  C_6
    2  A    between atoms: C_4  and  C_30
    3  A    between atoms: C_7  and  C_32
    4  A    between atoms: C_7  and  C_52
    5  A    between atoms: C_10  and  C_19
    6  A    between atoms: C_14  and  C_27
    7  A    between atoms: CA_16  and  C_42
    8  A    between atoms: C_21  and  C_23
    9  A    between atoms: C_21  and  O_24
   10  A    between atoms: C_23  and  O_36
   11  A    between atoms: N_26  and  N_28
   12  A    between atoms: N_26  and  C_34
   13  A    between atoms: C_27  and  C_44
   14  A    between atoms: O_36  and  C_38
                            x       y       z     vdW  Elec       q    Type
                         _______ _______ _______ _____ _____    ______ ____

>  <TORSDO>
F 14

$$$$
=
 OpenBabel11062415123D

 52 55  0  0  1  0  0  0  0  0999 V2000
  187.3120  177.8930  138.4840 O   0  0  0  0  0  0  0  0  0  0  0  0
  189.2520  175.2100  136.1050 C   0  0  2  0  0  3  0  0  0  0  0  0
  187.0280  178.4100  140.8300 C   0  0  0  0  0  2  0  0  0  0  0  0
  185.5050  178.2680  140.7210 C   0  0  2  0  0  3  0  0  0  0  0  0
  185.9640  177.5080  138.3470 C   0  0  2  0  0  3  0  0  0  0  0  0
  188.2160  175.8730  135.2500 C   0  0  0  0  0  3  0  0  0  0  0  0
  189.9490  177.2010  137.4640 C   0  0  0  0  0  2  0  0  0  0  0  0
  187.7100  177.5100  139.7810 C   0  0  2  0  0  3  0  0  0  0  0  0
  189.8890  176.5940  138.8640 C   0  0  0  0  0  2  0  0  0  0  0  0
  189.2510  177.5080  139.9230 C   0  0  1  0  0  0  0  0  0  0  0  0
  187.0190  176.0690  135.7210 C   0  0  0  0  0  0  0  0  0  0  0  0
  185.5360  177.5680  136.8900 C   0  0  0  0  0  2  0  0  0  0  0  0
  190.4050  176.1550  136.4610 C   0  0  2  0  0  3  0  0  0  0  0  0
  185.0520  178.3660  139.2470 C   0  0  2  0  0  3  0  0  0  0  0  0
  185.8230  176.2600  136.2170 C   0  0  0  0  0  0  0  0  0  0  0  0
  189.7970  178.9330  139.7990 C   0  0  0  0  0  1  0  0  0  0  0  0
  183.5770  178.4830  142.3460 C   0  0  0  0  0  2  0  0  0  0  0  0
  184.7470  179.2240  141.6530 C   0  0  1  0  0  3  0  0  0  0  0  0
  183.5350  178.6370  143.8730 C   0  0  0  0  0  2  0  0  0  0  0  0
  185.9380  179.0930  143.8640 C   0  0  0  0  0  3  0  0  0  0  0  0
  184.9090  178.4890  144.4520 C   0  0  0  0  0  0  0  0  0  0  0  0
  185.6950  179.9300  142.6440 C   0  0  0  0  0  2  0  0  0  0  0  0
  185.1050  177.7280  145.5970 O   0  0  0  0  0  1  0  0  0  0  0  0
  190.6620  176.0040  141.3730 O   0  0  0  0  0  0  0  0  0  0  0  0
  189.6370  176.9400  141.2680 C   0  0  0  0  0  0  0  0  0  0  0  0
  188.9830  177.2500  142.3020 O   0  0  0  0  0  1  0  0  0  0  0  0
  183.6510  175.3200  136.8210 C   0  0  0  0  0  2  0  0  0  0  0  0
  184.8340  175.1570  136.2390 C   0  0  0  0  0  0  0  0  0  0  0  0
  185.0940  173.8680  135.5250 C   0  0  0  0  0  2  0  0  0  0  0  0
  183.8360  173.2100  135.2210 N   0  0  0  0  0  1  0  0  0  0  0  0
  189.7680  173.9710  135.4490 C   0  0  0  0  0  3  0  0  0  0  0  0
  190.8260  173.3310  135.9500 C   0  0  0  0  0  3  0  0  0  0  0  0
  191.3570  172.0940  135.3000 C   0  0  0  0  0  2  0  0  0  0  0  0
  194.7040  172.3900  136.9310 C   0  0  0  0  0  0  0  0  0  0  0  0
  194.4370  170.1500  136.1700 N   0  0  0  0  0  0  0  0  0  0  0  0
  193.2040  170.4500  135.6860 C   0  0  0  0  0  3  0  0  0  0  0  0
  195.1980  171.0920  136.7900 C   0  0  0  0  0  3  0  0  0  0  0  0
  193.4710  172.6920  136.4440 N   0  0  0  0  0  0  0  0  0  0  0  0
  192.7090  171.7490  135.8290 C   0  0  0  0  0  0  0  0  0  0  0  0
  194.7760  174.0720  138.5800 O   0  0  0  0  0  1  0  0  0  0  0  0
  195.5240  173.4450  137.5870 C   0  0  0  0  0  2  0  0  0  0  0  0
  190.9440  176.8120  135.2750 N   0  0  0  0  0  2  0  0  0  0  0  0
  191.9470  175.9850  134.7500 N   0  0  0  0  0  2  0  0  0  0  0  0
  194.1330  175.2010  134.8150 O   0  0  0  0  0  0  0  0  0  0  0  0
  193.2580  175.9570  135.3110 C   0  0  0  0  0  0  0  0  0  0  0  0
  193.5790  176.7690  136.3910 O   0  0  0  0  0  1  0  0  0  0  0  0
  184.7990  179.6820  138.7750 O   0  0  0  0  0  0  0  0  0  0  0  0
  183.4720  180.0510  139.0560 C   0  0  0  0  0  2  0  0  0  0  0  0
  182.5440  178.9690  138.6100 C   0  0  0  0  0  0  0  0  0  0  0  0
  182.4620  178.7010  137.3860 O   0  0  0  0  0  0  0  0  0  0  0  0
  181.7370  178.2780  139.5150 O   0  0  0  0  0  0  0  0  0  0  0  0
  181.7270  176.8600  139.5970 C   0  0  0  0  0  1  0  0  0  0  0  0
  1  8  1  0  0  0  0
  2 31  1  6  0  0  0
  2 13  1  0  0  0  0
  4  3  1  6  0  0  0
  4 18  1  0  0  0  0
  5 12  1  6  0  0  0
  5  1  1  0  0  0  0
  5 14  1  0  0  0  0
  6 11  2  0  0  0  0
  6  2  1  0  0  0  0
  7  9  1  0  0  0  0
  8 10  1  0  0  0  0
  8  3  1  1  0  0  0
  9 10  1  0  0  0  0
 10 16  1  6  0  0  0
 10 25  1  0  0  0  0
 11 15  2  0  0  0  0
 13 42  1  6  0  0  0
 13  7  1  0  0  0  0
 14 47  1  6  0  0  0
 14  4  1  0  0  0  0
 15 28  1  0  0  0  0
 15 12  1  0  0  0  0
 17 19  1  0  0  0  0
 18 17  1  1  0  0  0
 18 22  1  0  0  0  0
 19 21  1  0  0  0  0
 20 21  2  0  0  0  0
 21 23  1  0  0  0  0
 22 20  1  0  0  0  0
 25 24  2  0  0  0  0
 25 26  1  0  0  0  0
 28 27  2  0  0  0  0
 29 28  1  0  0  0  0
 30 29  1  0  0  0  0
 31 32  2  0  0  0  0
 33 39  1  0  0  0  0
 33 32  1  0  0  0  0
 34 41  1  0  0  0  0
 35 37  2  0  0  0  0
 36 39  2  0  0  0  0
 36 35  1  0  0  0  0
 37 34  1  0  0  0  0
 38 34  2  0  0  0  0
 39 38  1  0  0  0  0
 41 40  1  0  0  0  0
 43 42  1  0  0  0  0
 43 45  1  0  0  0  0
 44 45  2  0  0  0  0
 45 46  1  0  0  0  0
 47 48  1  0  0  0  0
 49 48  1  0  0  0  0
 49 51  1  0  0  0  0
 50 49  2  0  0  0  0
 51 52  1  0  0  0  0
M  END
>  <MODEL>
9

>  <REMARK>
 VINA RESULT:      -3.9      3.623     10.252
  Name = 
  14 active torsions:
  status: ('A' for Active; 'I' for Inactive)
    1  A    between atoms: C_3  and  C_6
    2  A    between atoms: C_4  and  C_30
    3  A    between atoms: C_7  and  C_32
    4  A    between atoms: C_7  and  C_52
    5  A    between atoms: C_10  and  C_19
    6  A    between atoms: C_14  and  C_27
    7  A    between atoms: CA_16  and  C_42
    8  A    between atoms: C_21  and  C_23
    9  A    between atoms: C_21  and  O_24
   10  A    between atoms: C_23  and  O_36
   11  A    between atoms: N_26  and  N_28
   12  A    between atoms: N_26  and  C_34
   13  A    between atoms: C_27  and  C_44
   14  A    between atoms: O_36  and  C_38
                            x       y       z     vdW  Elec       q    Type
                         _______ _______ _______ _____ _____    ______ ____

>  <TORSDO>
F 14

$$$$
