=
 OpenBabel11062413203D

 30 33  0  0  1  0  0  0  0  0999 V2000
  189.4920  176.3840  138.4490 C   0  0  0  0  0  2  0  0  0  0  0  0
  188.7960  177.3280  139.3020 N   0  0  0  0  0  0  0  0  0  0  0  0
  190.7280  175.9680  139.2230 C   0  0  0  0  0  2  0  0  0  0  0  0
  190.8730  176.9670  140.3630 C   0  0  0  0  0  2  0  0  0  0  0  0
  187.0350  178.8050  139.7060 O   0  0  0  0  0  0  0  0  0  0  0  0
  189.5180  177.6370  140.5210 C   0  0  2  0  0  3  0  0  0  0  0  0
  187.5610  177.9560  138.9350 C   0  0  0  0  0  0  0  0  0  0  0  0
  190.5730  178.8140  144.3970 C   0  0  2  0  0  3  0  0  0  0  0  0
  191.0210  178.8020  142.9590 C   0  0  0  0  0  2  0  0  0  0  0  0
  190.8420  177.4460  145.0090 C   0  0  0  0  0  2  0  0  0  0  0  0
  189.5300  178.8550  143.2650 C   0  0  1  0  0  3  0  0  0  0  0  0
  188.7840  176.7170  146.2550 C   0  0  0  0  0  2  0  0  0  0  0  0
  190.1580  177.3640  146.3660 C   0  0  1  0  0  3  0  0  0  0  0  0
  188.8260  177.5400  142.9450 C   0  0  0  0  0  0  0  0  0  0  0  0
  187.9180  176.8500  143.9310 C   0  0  0  0  0  2  0  0  0  0  0  0
  187.8640  177.4820  145.3150 C   0  0  0  0  0  2  0  0  0  0  0  0
  188.7980  177.0420  141.6990 C   0  0  0  0  0  3  0  0  0  0  0  0
  192.2830  176.3610  146.7940 O   0  0  0  0  0  1  0  0  0  0  0  0
  191.0070  176.5510  147.3260 C   0  0  0  0  0  2  0  0  0  0  0  0
  186.8690  177.5760  137.6600 C   0  0  1  0  0  3  0  0  0  0  0  0
  185.0600  177.4690  137.8900 S   0  0  0  0  0  0  0  0  0  0  0  0
  184.9330  175.9880  136.9350 N   0  0  0  0  0  0  0  0  0  0  0  0
  183.9590  173.9330  137.2350 C   0  0  0  0  0  2  0  0  0  0  0  0
  186.0070  175.1060  137.3670 C   0  0  0  0  0  2  0  0  0  0  0  0
  185.4360  173.7160  137.4190 C   0  0  0  0  0  2  0  0  0  0  0  0
  183.7290  175.3680  137.3100 N   0  0  0  0  0  2  0  0  0  0  0  0
  187.2870  178.4330  136.4590 C   0  0  0  0  0  2  0  0  0  0  0  0
  189.3460  177.7220  135.1750 N   0  0  0  0  0  1  0  0  0  0  0  0
  187.9360  177.6590  135.3550 C   0  0  0  0  0  0  0  0  0  0  0  0
  187.2250  176.8960  134.5940 N   0  0  0  0  0  2  0  0  0  0  0  0
  1  3  1  0  0  0  0
  1  2  1  0  0  0  0
  2  6  1  0  0  0  0
  3  4  1  0  0  0  0
  4  6  1  0  0  0  0
  6 17  1  1  0  0  0
  7  2  1  0  0  0  0
  7  5  2  0  0  0  0
  8  9  1  6  0  0  0
  8 10  1  0  0  0  0
 10 13  1  0  0  0  0
 11  9  1  6  0  0  0
 11  8  1  0  0  0  0
 12 13  1  0  0  0  0
 13 19  1  1  0  0  0
 14 11  1  0  0  0  0
 14 15  1  0  0  0  0
 15 16  1  0  0  0  0
 16 12  1  0  0  0  0
 17 14  2  0  0  0  0
 18 19  1  0  0  0  0
 20 27  1  6  0  0  0
 20 21  1  0  0  0  0
 20  7  1  0  0  0  0
 22 26  1  0  0  0  0
 22 24  1  0  0  0  0
 22 21  1  0  0  0  0
 23 26  1  0  0  0  0
 23 25  1  0  0  0  0
 24 25  1  0  0  0  0
 28 29  1  0  0  0  0
 29 27  1  0  0  0  0
 30 29  2  0  0  0  0
M  END
>  <MODEL>
1

>  <REMARK>
 VINA RESULT:      -6.8      0.000      0.000
  Name = 
  7 active torsions:
  status: ('A' for Active; 'I' for Inactive)
    1  A    between atoms: N_1  and  S_4
    2  A    between atoms: S_4  and  C_13
    3  A    between atoms: C_13  and  C_14
    4  A    between atoms: C_13  and  C_28
    5  A    between atoms: C_14  and  C_17
    6  A    between atoms: C_18  and  C_24
    7  A    between atoms: C_26  and  C_30
                            x       y       z     vdW  Elec       q    Type
                         _______ _______ _______ _____ _____    ______ ____

>  <TORSDO>
F 7

$$$$
=
 OpenBabel11062413203D

 30 33  0  0  1  0  0  0  0  0999 V2000
  189.3320  176.6350  138.7320 C   0  0  0  0  0  2  0  0  0  0  0  0
  188.7280  177.5480  139.6830 N   0  0  0  0  0  0  0  0  0  0  0  0
  190.6230  176.1690  139.3770 C   0  0  0  0  0  2  0  0  0  0  0  0
  190.8820  177.1130  140.5430 C   0  0  0  0  0  2  0  0  0  0  0  0
  187.0320  179.0280  140.3040 O   0  0  0  0  0  0  0  0  0  0  0  0
  189.5580  177.7920  140.8480 C   0  0  2  0  0  3  0  0  0  0  0  0
  187.4760  178.2080  139.4540 C   0  0  0  0  0  0  0  0  0  0  0  0
  191.0940  178.6250  144.6510 C   0  0  2  0  0  3  0  0  0  0  0  0
  191.3830  178.6930  143.1740 C   0  0  0  0  0  2  0  0  0  0  0  0
  191.3400  177.2030  145.1380 C   0  0  0  0  0  2  0  0  0  0  0  0
  189.9400  178.8050  143.6480 C   0  0  1  0  0  3  0  0  0  0  0  0
  189.3870  176.5000  146.5550 C   0  0  0  0  0  2  0  0  0  0  0  0
  190.8030  177.0600  146.5540 C   0  0  1  0  0  3  0  0  0  0  0  0
  189.1250  177.5580  143.3220 C   0  0  0  0  0  0  0  0  0  0  0  0
  188.2860  176.8480  144.3550 C   0  0  0  0  0  2  0  0  0  0  0  0
  188.4210  177.3800  145.7760 C   0  0  0  0  0  2  0  0  0  0  0  0
  188.9330  177.1540  142.0560 C   0  0  0  0  0  3  0  0  0  0  0  0
  192.4630  176.8740  148.2600 O   0  0  0  0  0  1  0  0  0  0  0  0
  191.6970  176.1350  147.3580 C   0  0  0  0  0  2  0  0  0  0  0  0
  186.6700  177.8940  138.2280 C   0  0  1  0  0  3  0  0  0  0  0  0
  184.8850  178.1350  138.5250 S   0  0  0  0  0  0  0  0  0  0  0  0
  184.4440  176.6770  137.6310 N   0  0  0  0  0  0  0  0  0  0  0  0
  182.8040  176.1200  136.1270 C   0  0  0  0  0  2  0  0  0  0  0  0
  183.4210  175.9910  138.4060 C   0  0  0  0  0  2  0  0  0  0  0  0
  182.4070  175.4710  137.4250 C   0  0  0  0  0  2  0  0  0  0  0  0
  183.8290  177.1030  136.4420 N   0  0  0  0  0  2  0  0  0  0  0  0
  187.1830  178.5950  136.9640 C   0  0  0  0  0  2  0  0  0  0  0  0
  187.5370  176.3400  135.8770 N   0  0  0  0  0  1  0  0  0  0  0  0
  187.2110  177.7190  135.7520 C   0  0  0  0  0  0  0  0  0  0  0  0
  186.8940  178.2010  134.5970 N   0  0  0  0  0  2  0  0  0  0  0  0
  1  3  1  0  0  0  0
  1  2  1  0  0  0  0
  2  6  1  0  0  0  0
  3  4  1  0  0  0  0
  4  6  1  0  0  0  0
  6 17  1  1  0  0  0
  7  2  1  0  0  0  0
  7  5  2  0  0  0  0
  8  9  1  6  0  0  0
  8 10  1  0  0  0  0
 10 13  1  0  0  0  0
 11  9  1  6  0  0  0
 11  8  1  0  0  0  0
 13 12  1  0  0  0  0
 13 19  1  1  0  0  0
 14 11  1  0  0  0  0
 14 15  1  0  0  0  0
 15 16  1  0  0  0  0
 16 12  1  0  0  0  0
 17 14  2  0  0  0  0
 19 18  1  0  0  0  0
 20 27  1  6  0  0  0
 20 21  1  0  0  0  0
 20  7  1  0  0  0  0
 22 24  1  0  0  0  0
 22 21  1  0  0  0  0
 23 26  1  0  0  0  0
 23 25  1  0  0  0  0
 25 24  1  0  0  0  0
 26 22  1  0  0  0  0
 29 28  1  0  0  0  0
 29 27  1  0  0  0  0
 30 29  2  0  0  0  0
M  END
>  <MODEL>
2

>  <REMARK>
 VINA RESULT:      -6.8      1.223      1.302
  Name = 
  7 active torsions:
  status: ('A' for Active; 'I' for Inactive)
    1  A    between atoms: N_1  and  S_4
    2  A    between atoms: S_4  and  C_13
    3  A    between atoms: C_13  and  C_14
    4  A    between atoms: C_13  and  C_28
    5  A    between atoms: C_14  and  C_17
    6  A    between atoms: C_18  and  C_24
    7  A    between atoms: C_26  and  C_30
                            x       y       z     vdW  Elec       q    Type
                         _______ _______ _______ _____ _____    ______ ____

>  <TORSDO>
F 7

$$$$
=
 OpenBabel11062413203D

 30 33  0  0  1  0  0  0  0  0999 V2000
  183.2540  179.7440  143.5940 C   0  0  0  0  0  2  0  0  0  0  0  0
  183.7230  178.6810  142.7260 N   0  0  0  0  0  0  0  0  0  0  0  0
  184.2830  179.8490  144.7030 C   0  0  0  0  0  2  0  0  0  0  0  0
  185.1350  178.5900  144.6140 C   0  0  0  0  0  2  0  0  0  0  0  0
  183.4680  177.3050  140.8570 O   0  0  0  0  0  0  0  0  0  0  0  0
  184.9140  178.0190  143.2230 C   0  0  2  0  0  3  0  0  0  0  0  0
  183.0280  178.2710  141.5400 C   0  0  0  0  0  0  0  0  0  0  0  0
  188.7370  176.6730  144.2680 C   0  0  2  0  0  3  0  0  0  0  0  0
  187.3390  176.9020  144.7810 C   0  0  0  0  0  2  0  0  0  0  0  0
  189.4820  178.0010  144.2530 C   0  0  0  0  0  2  0  0  0  0  0  0
  187.5370  176.5610  143.3100 C   0  0  1  0  0  3  0  0  0  0  0  0
  190.6410  178.2360  142.0350 C   0  0  0  0  0  2  0  0  0  0  0  0
  190.7900  177.8310  143.4960 C   0  0  1  0  0  3  0  0  0  0  0  0
  187.2830  177.7580  142.3990 C   0  0  0  0  0  0  0  0  0  0  0  0
  188.2600  178.1810  141.3310 C   0  0  0  0  0  2  0  0  0  0  0  0
  189.5780  177.4180  141.3190 C   0  0  0  0  0  2  0  0  0  0  0  0
  186.0850  178.3620  142.3480 C   0  0  0  0  0  3  0  0  0  0  0  0
  191.4290  179.9970  144.2710 O   0  0  0  0  0  1  0  0  0  0  0  0
  191.8730  178.6810  144.1330 C   0  0  0  0  0  2  0  0  0  0  0  0
  181.8070  179.0130  141.0850 C   0  0  1  0  0  3  0  0  0  0  0  0
  181.8210  179.2700  139.2770 S   0  0  0  0  0  0  0  0  0  0  0  0
  181.1090  180.8820  139.4080 N   0  0  0  0  0  0  0  0  0  0  0  0
  179.4080  182.0040  138.3540 C   0  0  0  0  0  2  0  0  0  0  0  0
  181.7550  181.7180  138.4060 C   0  0  0  0  0  2  0  0  0  0  0  0
  180.6830  182.5850  137.8060 C   0  0  0  0  0  2  0  0  0  0  0  0
  179.7630  180.7620  139.0230 N   0  0  0  0  0  2  0  0  0  0  0  0
  180.4970  178.4150  141.6110 C   0  0  0  0  0  2  0  0  0  0  0  0
  179.2920  178.5450  143.8300 N   0  0  0  0  0  1  0  0  0  0  0  0
  179.8640  179.2090  142.7090 C   0  0  0  0  0  0  0  0  0  0  0  0
  179.8760  180.5000  142.6650 N   0  0  0  0  0  2  0  0  0  0  0  0
  1  3  1  0  0  0  0
  2  6  1  0  0  0  0
  2  1  1  0  0  0  0
  4  3  1  0  0  0  0
  5  7  2  0  0  0  0
  6 17  1  6  0  0  0
  6  4  1  0  0  0  0
  7  2  1  0  0  0  0
  8 10  1  6  0  0  0
  8  9  1  0  0  0  0
 11  8  1  0  0  0  0
 11  9  1  1  0  0  0
 12 13  1  0  0  0  0
 13 19  1  1  0  0  0
 13 10  1  0  0  0  0
 14 11  1  0  0  0  0
 15 14  1  0  0  0  0
 16 15  1  0  0  0  0
 16 12  1  0  0  0  0
 17 14  2  0  0  0  0
 19 18  1  0  0  0  0
 20  7  1  0  0  0  0
 20 27  1  6  0  0  0
 21 22  1  0  0  0  0
 21 20  1  0  0  0  0
 23 26  1  0  0  0  0
 24 22  1  0  0  0  0
 25 23  1  0  0  0  0
 25 24  1  0  0  0  0
 26 22  1  0  0  0  0
 27 29  1  0  0  0  0
 29 28  1  0  0  0  0
 30 29  2  0  0  0  0
M  END
>  <MODEL>
3

>  <REMARK>
 VINA RESULT:      -6.5      5.115      6.780
  Name = 
  7 active torsions:
  status: ('A' for Active; 'I' for Inactive)
    1  A    between atoms: N_1  and  S_4
    2  A    between atoms: S_4  and  C_13
    3  A    between atoms: C_13  and  C_14
    4  A    between atoms: C_13  and  C_28
    5  A    between atoms: C_14  and  C_17
    6  A    between atoms: C_18  and  C_24
    7  A    between atoms: C_26  and  C_30
                            x       y       z     vdW  Elec       q    Type
                         _______ _______ _______ _____ _____    ______ ____

>  <TORSDO>
F 7

$$$$
=
 OpenBabel11062413203D

 30 33  0  0  1  0  0  0  0  0999 V2000
  181.3240  177.3240  137.8660 C   0  0  0  0  0  2  0  0  0  0  0  0
  182.0910  178.3460  138.5520 N   0  0  0  0  0  0  0  0  0  0  0  0
  181.9150  176.0010  138.3130 C   0  0  0  0  0  2  0  0  0  0  0  0
  183.2420  176.3320  138.9820 C   0  0  0  0  0  2  0  0  0  0  0  0
  182.5770  180.5860  138.9950 O   0  0  0  0  0  0  0  0  0  0  0  0
  183.1910  177.8100  139.3310 C   0  0  2  0  0  3  0  0  0  0  0  0
  181.8390  179.7500  138.4050 C   0  0  0  0  0  0  0  0  0  0  0  0
  186.2640  178.9310  141.9410 C   0  0  2  0  0  3  0  0  0  0  0  0
  185.9640  178.3840  140.5700 C   0  0  0  0  0  2  0  0  0  0  0  0
  186.1520  177.8030  142.9580 C   0  0  0  0  0  2  0  0  0  0  0  0
  184.9610  179.3250  141.2240 C   0  0  1  0  0  3  0  0  0  0  0  0
  184.7870  178.6210  144.9040 C   0  0  0  0  0  2  0  0  0  0  0  0
  186.1910  178.3910  144.3610 C   0  0  1  0  0  3  0  0  0  0  0  0
  183.6950  178.6020  141.6720 C   0  0  0  0  0  0  0  0  0  0  0  0
  183.1270  178.7530  143.0600 C   0  0  0  0  0  2  0  0  0  0  0  0
  183.9810  179.5660  144.0250 C   0  0  0  0  0  2  0  0  0  0  0  0
  182.8980  177.9700  140.7960 C   0  0  0  0  0  3  0  0  0  0  0  0
  188.2930  177.7520  145.2970 O   0  0  0  0  0  1  0  0  0  0  0  0
  186.9300  177.4520  145.2960 C   0  0  0  0  0  2  0  0  0  0  0  0
  180.6740  180.2270  137.5890 C   0  0  1  0  0  3  0  0  0  0  0  0
  179.0950  179.9680  138.4690 S   0  0  0  0  0  0  0  0  0  0  0  0
  179.8720  179.9650  140.0550 N   0  0  0  0  0  0  0  0  0  0  0  0
  179.3050  179.2140  142.1470 C   0  0  0  0  0  2  0  0  0  0  0  0
  179.3880  181.1360  140.7720 C   0  0  0  0  0  2  0  0  0  0  0  0
  179.1580  180.7100  142.1960 C   0  0  0  0  0  2  0  0  0  0  0  0
  179.3820  178.8420  140.7430 N   0  0  0  0  0  2  0  0  0  0  0  0
  180.8500  181.6500  137.0460 C   0  0  0  0  0  2  0  0  0  0  0  0
  180.5400  183.0320  134.9520 N   0  0  0  0  0  1  0  0  0  0  0  0
  180.7030  181.7570  135.5610 C   0  0  0  0  0  0  0  0  0  0  0  0
  180.7710  180.6980  134.8260 N   0  0  0  0  0  2  0  0  0  0  0  0
  1  3  1  0  0  0  0
  1  2  1  0  0  0  0
  2  6  1  0  0  0  0
  3  4  1  0  0  0  0
  4  6  1  0  0  0  0
  6 17  1  1  0  0  0
  7  2  1  0  0  0  0
  7  5  2  0  0  0  0
  8  9  1  6  0  0  0
  8 10  1  0  0  0  0
 10 13  1  0  0  0  0
 11  9  1  6  0  0  0
 11 14  1  0  0  0  0
 11  8  1  0  0  0  0
 13 12  1  0  0  0  0
 13 19  1  1  0  0  0
 14 15  1  0  0  0  0
 15 16  1  0  0  0  0
 16 12  1  0  0  0  0
 17 14  2  0  0  0  0
 19 18  1  0  0  0  0
 20 27  1  1  0  0  0
 20  7  1  0  0  0  0
 20 21  1  0  0  0  0
 21 22  1  0  0  0  0
 22 26  1  0  0  0  0
 22 24  1  0  0  0  0
 23 25  1  0  0  0  0
 24 25  1  0  0  0  0
 26 23  1  0  0  0  0
 28 29  1  0  0  0  0
 29 27  1  0  0  0  0
 30 29  2  0  0  0  0
M  END
>  <MODEL>
4

>  <REMARK>
 VINA RESULT:      -6.1      5.557      6.835
  Name = 
  7 active torsions:
  status: ('A' for Active; 'I' for Inactive)
    1  A    between atoms: N_1  and  S_4
    2  A    between atoms: S_4  and  C_13
    3  A    between atoms: C_13  and  C_14
    4  A    between atoms: C_13  and  C_28
    5  A    between atoms: C_14  and  C_17
    6  A    between atoms: C_18  and  C_24
    7  A    between atoms: C_26  and  C_30
                            x       y       z     vdW  Elec       q    Type
                         _______ _______ _______ _____ _____    ______ ____

>  <TORSDO>
F 7

$$$$
=
 OpenBabel11062413203D

 30 33  0  0  1  0  0  0  0  0999 V2000
  188.5760  176.1680  143.1050 C   0  0  0  0  0  2  0  0  0  0  0  0
  188.1460  177.3720  142.4200 N   0  0  0  0  0  0  0  0  0  0  0  0
  187.5830  175.9620  144.2320 C   0  0  0  0  0  2  0  0  0  0  0  0
  186.8100  177.2670  144.3630 C   0  0  0  0  0  2  0  0  0  0  0  0
  188.4210  178.9890  140.7590 O   0  0  0  0  0  0  0  0  0  0  0  0
  187.0180  178.0210  143.0600 C   0  0  2  0  0  3  0  0  0  0  0  0
  188.8220  177.9100  141.2760 C   0  0  0  0  0  0  0  0  0  0  0  0
  183.4280  179.8160  144.2470 C   0  0  2  0  0  3  0  0  0  0  0  0
  184.7900  179.3790  144.7180 C   0  0  0  0  0  2  0  0  0  0  0  0
  182.5110  178.6010  144.1920 C   0  0  0  0  0  2  0  0  0  0  0  0
  184.6160  179.8100  143.2680 C   0  0  1  0  0  3  0  0  0  0  0  0
  181.2940  178.6240  141.9920 C   0  0  0  0  0  2  0  0  0  0  0  0
  181.2250  178.9790  143.4720 C   0  0  1  0  0  3  0  0  0  0  0  0
  184.6920  178.6330  142.3010 C   0  0  0  0  0  0  0  0  0  0  0  0
  183.6500  178.3940  141.2380 C   0  0  0  0  0  2  0  0  0  0  0  0
  182.4460  179.3260  141.2880 C   0  0  0  0  0  2  0  0  0  0  0  0
  185.7960  177.8780  142.1970 C   0  0  0  0  0  3  0  0  0  0  0  0
  178.9920  179.1400  144.3030 O   0  0  0  0  0  1  0  0  0  0  0  0
  180.0480  178.2520  144.0960 C   0  0  0  0  0  2  0  0  0  0  0  0
  189.9770  177.1730  140.6650 C   0  0  1  0  0  3  0  0  0  0  0  0
  189.8620  177.1490  138.8430 S   0  0  0  0  0  0  0  0  0  0  0  0
  190.7510  175.6280  138.7140 N   0  0  0  0  0  0  0  0  0  0  0  0
  192.5390  174.8830  137.4850 C   0  0  0  0  0  2  0  0  0  0  0  0
  190.1770  174.8890  137.5990 C   0  0  0  0  0  2  0  0  0  0  0  0
  191.3240  174.2520  136.8630 C   0  0  0  0  0  2  0  0  0  0  0  0
  192.0650  175.9580  138.3430 N   0  0  0  0  0  2  0  0  0  0  0  0
  191.3430  177.6350  141.1890 C   0  0  0  0  0  2  0  0  0  0  0  0
  191.3190  178.6720  143.4940 N   0  0  0  0  0  1  0  0  0  0  0  0
  191.4940  177.5240  142.6730 C   0  0  0  0  0  0  0  0  0  0  0  0
  191.7380  176.3780  143.2150 N   0  0  0  0  0  2  0  0  0  0  0  0
  1  3  1  0  0  0  0
  2  6  1  0  0  0  0
  2  1  1  0  0  0  0
  3  4  1  0  0  0  0
  5  7  2  0  0  0  0
  6 17  1  6  0  0  0
  6  4  1  0  0  0  0
  7  2  1  0  0  0  0
  8 10  1  6  0  0  0
  8  9  1  0  0  0  0
 11  8  1  0  0  0  0
 11  9  1  1  0  0  0
 12 13  1  0  0  0  0
 13 19  1  1  0  0  0
 13 10  1  0  0  0  0
 14 11  1  0  0  0  0
 15 16  1  0  0  0  0
 15 14  1  0  0  0  0
 16 12  1  0  0  0  0
 17 14  2  0  0  0  0
 19 18  1  0  0  0  0
 20 27  1  6  0  0  0
 20  7  1  0  0  0  0
 21 20  1  0  0  0  0
 22 21  1  0  0  0  0
 23 26  1  0  0  0  0
 24 22  1  0  0  0  0
 25 23  1  0  0  0  0
 25 24  1  0  0  0  0
 26 22  1  0  0  0  0
 27 29  1  0  0  0  0
 29 30  2  0  0  0  0
 29 28  1  0  0  0  0
M  END
>  <MODEL>
5

>  <REMARK>
 VINA RESULT:      -6.0      4.312      6.989
  Name = 
  7 active torsions:
  status: ('A' for Active; 'I' for Inactive)
    1  A    between atoms: N_1  and  S_4
    2  A    between atoms: S_4  and  C_13
    3  A    between atoms: C_13  and  C_14
    4  A    between atoms: C_13  and  C_28
    5  A    between atoms: C_14  and  C_17
    6  A    between atoms: C_18  and  C_24
    7  A    between atoms: C_26  and  C_30
                            x       y       z     vdW  Elec       q    Type
                         _______ _______ _______ _____ _____    ______ ____

>  <TORSDO>
F 7

$$$$
=
 OpenBabel11062413203D

 30 33  0  0  1  0  0  0  0  0999 V2000
  182.9950  179.6570  143.1710 C   0  0  0  0  0  2  0  0  0  0  0  0
  183.6620  178.6220  142.4050 N   0  0  0  0  0  0  0  0  0  0  0  0
  183.8520  179.8690  144.4050 C   0  0  0  0  0  2  0  0  0  0  0  0
  184.8070  178.6850  144.4680 C   0  0  0  0  0  2  0  0  0  0  0  0
  183.7770  177.1950  140.5610 O   0  0  0  0  0  0  0  0  0  0  0  0
  184.8250  178.0720  143.0770 C   0  0  2  0  0  3  0  0  0  0  0  0
  183.1710  178.1320  141.1500 C   0  0  0  0  0  0  0  0  0  0  0  0
  188.5330  176.5690  144.3060 C   0  0  2  0  0  3  0  0  0  0  0  0
  187.0940  176.7570  144.7130 C   0  0  0  0  0  2  0  0  0  0  0  0
  189.2780  177.8810  144.5100 C   0  0  0  0  0  2  0  0  0  0  0  0
  187.4260  176.5820  143.2360 C   0  0  1  0  0  3  0  0  0  0  0  0
  190.6380  178.3510  142.4480 C   0  0  0  0  0  2  0  0  0  0  0  0
  190.6510  177.7810  143.8600 C   0  0  1  0  0  3  0  0  0  0  0  0
  187.2590  177.8760  142.4480 C   0  0  0  0  0  0  0  0  0  0  0  0
  188.3310  178.4050  141.5280 C   0  0  0  0  0  2  0  0  0  0  0  0
  189.6430  177.6320  141.5490 C   0  0  0  0  0  2  0  0  0  0  0  0
  186.0730  178.4970  142.3570 C   0  0  0  0  0  3  0  0  0  0  0  0
  191.8850  179.8070  144.1390 O   0  0  0  0  0  1  0  0  0  0  0  0
  191.6720  178.5410  144.6860 C   0  0  0  0  0  2  0  0  0  0  0  0
  181.9670  178.7600  140.5140 C   0  0  1  0  0  3  0  0  0  0  0  0
  182.4280  179.7540  139.0530 S   0  0  0  0  0  0  0  0  0  0  0  0
  181.7110  178.5990  137.9250 N   0  0  0  0  0  0  0  0  0  0  0  0
  182.3500  177.6530  135.9340 C   0  0  0  0  0  2  0  0  0  0  0  0
  181.0370  179.3720  136.8910 C   0  0  0  0  0  2  0  0  0  0  0  0
  181.3060  178.6790  135.5840 C   0  0  0  0  0  2  0  0  0  0  0  0
  182.7770  177.9330  137.2960 N   0  0  0  0  0  2  0  0  0  0  0  0
  180.8290  177.7670  140.2470 C   0  0  0  0  0  2  0  0  0  0  0  0
  179.5830  178.7810  142.1990 N   0  0  0  0  0  1  0  0  0  0  0  0
  179.8430  177.6570  141.3660 C   0  0  0  0  0  0  0  0  0  0  0  0
  179.1920  176.5570  141.5510 N   0  0  0  0  0  2  0  0  0  0  0  0
  1  3  1  0  0  0  0
  2  6  1  0  0  0  0
  2  1  1  0  0  0  0
  3  4  1  0  0  0  0
  5  7  2  0  0  0  0
  6 17  1  6  0  0  0
  6  4  1  0  0  0  0
  7  2  1  0  0  0  0
  8 10  1  6  0  0  0
  8  9  1  0  0  0  0
 11  8  1  0  0  0  0
 11  9  1  1  0  0  0
 12 13  1  0  0  0  0
 13 10  1  0  0  0  0
 13 19  1  1  0  0  0
 14 11  1  0  0  0  0
 15 16  1  0  0  0  0
 15 14  1  0  0  0  0
 16 12  1  0  0  0  0
 17 14  2  0  0  0  0
 18 19  1  0  0  0  0
 20 27  1  6  0  0  0
 20  7  1  0  0  0  0
 21 20  1  0  0  0  0
 22 21  1  0  0  0  0
 23 26  1  0  0  0  0
 24 22  1  0  0  0  0
 25 23  1  0  0  0  0
 25 24  1  0  0  0  0
 26 22  1  0  0  0  0
 27 29  1  0  0  0  0
 29 30  2  0  0  0  0
 29 28  1  0  0  0  0
M  END
>  <MODEL>
6

>  <REMARK>
 VINA RESULT:      -6.0      4.193      5.951
  Name = 
  7 active torsions:
  status: ('A' for Active; 'I' for Inactive)
    1  A    between atoms: N_1  and  S_4
    2  A    between atoms: S_4  and  C_13
    3  A    between atoms: C_13  and  C_14
    4  A    between atoms: C_13  and  C_28
    5  A    between atoms: C_14  and  C_17
    6  A    between atoms: C_18  and  C_24
    7  A    between atoms: C_26  and  C_30
                            x       y       z     vdW  Elec       q    Type
                         _______ _______ _______ _____ _____    ______ ____

>  <TORSDO>
F 7

$$$$
=
 OpenBabel11062413203D

 30 33  0  0  1  0  0  0  0  0999 V2000
  183.5520  178.2590  144.3310 C   0  0  0  0  0  2  0  0  0  0  0  0
  184.2860  178.2590  143.0800 N   0  0  0  0  0  0  0  0  0  0  0  0
  182.1260  178.6280  143.9680 C   0  0  0  0  0  2  0  0  0  0  0  0
  182.1760  179.1710  142.5460 C   0  0  0  0  0  2  0  0  0  0  0  0
  186.2680  178.0140  141.8720 O   0  0  0  0  0  0  0  0  0  0  0  0
  183.4870  178.6900  141.9480 C   0  0  2  0  0  3  0  0  0  0  0  0
  185.6820  177.9470  142.9880 C   0  0  0  0  0  0  0  0  0  0  0  0
  182.5130  179.3710  137.9350 C   0  0  2  0  0  3  0  0  0  0  0  0
  182.6090  180.0110  139.2950 C   0  0  0  0  0  2  0  0  0  0  0  0
  181.2170  178.5750  137.8540 C   0  0  0  0  0  2  0  0  0  0  0  0
  183.5530  178.8660  138.9520 C   0  0  1  0  0  3  0  0  0  0  0  0
  181.7360  176.3100  136.8950 C   0  0  0  0  0  2  0  0  0  0  0  0
  181.2360  177.7170  136.5970 C   0  0  1  0  0  3  0  0  0  0  0  0
  183.2030  177.5840  139.6990 C   0  0  0  0  0  0  0  0  0  0  0  0
  183.0550  176.2570  139.0000 C   0  0  0  0  0  2  0  0  0  0  0  0
  183.1400  176.3120  137.4800 C   0  0  0  0  0  2  0  0  0  0  0  0
  183.2260  177.5220  141.0400 C   0  0  0  0  0  3  0  0  0  0  0  0
  179.0690  178.7070  136.4420 O   0  0  0  0  0  1  0  0  0  0  0  0
  179.8410  177.6280  136.0090 C   0  0  0  0  0  2  0  0  0  0  0  0
  186.4380  177.4990  144.2030 C   0  0  1  0  0  3  0  0  0  0  0  0
  187.9280  176.5470  143.7460 S   0  0  0  0  0  0  0  0  0  0  0  0
  189.0220  177.8320  144.2660 N   0  0  0  0  0  0  0  0  0  0  0  0
  191.0530  178.6300  143.5580 C   0  0  0  0  0  2  0  0  0  0  0  0
  190.0090  177.2250  145.1470 C   0  0  0  0  0  2  0  0  0  0  0  0
  191.3350  177.8510  144.8130 C   0  0  0  0  0  2  0  0  0  0  0  0
  189.7160  178.2600  143.1210 N   0  0  0  0  0  2  0  0  0  0  0  0
  186.7130  178.6290  145.2030 C   0  0  0  0  0  2  0  0  0  0  0  0
  187.3440  177.5310  147.3910 N   0  0  0  0  0  1  0  0  0  0  0  0
  186.4040  178.2730  146.6230 C   0  0  0  0  0  0  0  0  0  0  0  0
  185.3060  178.6780  147.1680 N   0  0  0  0  0  2  0  0  0  0  0  0
  2  1  1  0  0  0  0
  3  1  1  0  0  0  0
  4  3  1  0  0  0  0
  5  7  2  0  0  0  0
  6 17  1  6  0  0  0
  6  4  1  0  0  0  0
  6  2  1  0  0  0  0
  7  2  1  0  0  0  0
  7 20  1  0  0  0  0
  8 10  1  1  0  0  0
  8 11  1  0  0  0  0
  8  9  1  0  0  0  0
 11  9  1  1  0  0  0
 11 14  1  0  0  0  0
 12 16  1  0  0  0  0
 13 19  1  1  0  0  0
 13 12  1  0  0  0  0
 13 10  1  0  0  0  0
 14 17  2  0  0  0  0
 15 14  1  0  0  0  0
 16 15  1  0  0  0  0
 19 18  1  0  0  0  0
 20 27  1  6  0  0  0
 21 20  1  0  0  0  0
 21 22  1  0  0  0  0
 22 24  1  0  0  0  0
 23 25  1  0  0  0  0
 25 24  1  0  0  0  0
 26 23  1  0  0  0  0
 26 22  1  0  0  0  0
 27 29  1  0  0  0  0
 29 30  2  0  0  0  0
 29 28  1  0  0  0  0
M  END
>  <MODEL>
7

>  <REMARK>
 VINA RESULT:      -5.8      4.828      9.797
  Name = 
  7 active torsions:
  status: ('A' for Active; 'I' for Inactive)
    1  A    between atoms: N_1  and  S_4
    2  A    between atoms: S_4  and  C_13
    3  A    between atoms: C_13  and  C_14
    4  A    between atoms: C_13  and  C_28
    5  A    between atoms: C_14  and  C_17
    6  A    between atoms: C_18  and  C_24
    7  A    between atoms: C_26  and  C_30
                            x       y       z     vdW  Elec       q    Type
                         _______ _______ _______ _____ _____    ______ ____

>  <TORSDO>
F 7

$$$$
=
 OpenBabel11062413203D

 30 33  0  0  1  0  0  0  0  0999 V2000
  183.1650  176.9190  137.5020 C   0  0  0  0  0  2  0  0  0  0  0  0
  184.0240  178.0090  137.9230 N   0  0  0  0  0  0  0  0  0  0  0  0
  184.0500  175.9900  136.6940 C   0  0  0  0  0  2  0  0  0  0  0  0
  185.3210  176.7710  136.3890 C   0  0  0  0  0  2  0  0  0  0  0  0
  184.3580  180.0460  139.0140 O   0  0  0  0  0  0  0  0  0  0  0  0
  185.3660  177.9220  137.3800 C   0  0  2  0  0  3  0  0  0  0  0  0
  183.5660  179.1070  138.7250 C   0  0  0  0  0  0  0  0  0  0  0  0
  189.4760  177.9640  136.5900 C   0  0  2  0  0  3  0  0  0  0  0  0
  188.1100  177.9200  135.9570 C   0  0  0  0  0  2  0  0  0  0  0  0
  189.8390  176.5680  137.0790 C   0  0  0  0  0  2  0  0  0  0  0  0
  188.2810  178.6350  137.2910 C   0  0  1  0  0  3  0  0  0  0  0  0
  190.7260  176.7540  139.4240 C   0  0  0  0  0  2  0  0  0  0  0  0
  191.0860  176.6510  137.9480 C   0  0  1  0  0  3  0  0  0  0  0  0
  187.6520  177.8640  138.4460 C   0  0  0  0  0  0  0  0  0  0  0  0
  188.3980  177.5700  139.7220 C   0  0  0  0  0  2  0  0  0  0  0  0
  189.8670  177.9740  139.7220 C   0  0  0  0  0  2  0  0  0  0  0  0
  186.3360  177.5980  138.4810 C   0  0  0  0  0  3  0  0  0  0  0  0
  191.1600  174.2700  137.7850 O   0  0  0  0  0  1  0  0  0  0  0  0
  191.9480  175.4210  137.7370 C   0  0  0  0  0  2  0  0  0  0  0  0
  182.1650  179.1200  139.2570 C   0  0  1  0  0  3  0  0  0  0  0  0
  181.9600  177.9250  140.6230 S   0  0  0  0  0  0  0  0  0  0  0  0
  182.8580  178.9320  141.7630 N   0  0  0  0  0  0  0  0  0  0  0  0
  184.3430  178.5390  143.4670 C   0  0  0  0  0  2  0  0  0  0  0  0
  182.0730  178.9970  142.9870 C   0  0  0  0  0  2  0  0  0  0  0  0
  183.0440  178.9030  144.1320 C   0  0  0  0  0  2  0  0  0  0  0  0
  184.0360  178.2340  142.0780 N   0  0  0  0  0  2  0  0  0  0  0  0
  181.6500  180.5260  139.5890 C   0  0  0  0  0  2  0  0  0  0  0  0
  179.7240  181.0320  141.1470 N   0  0  0  0  0  1  0  0  0  0  0  0
  180.1830  180.5850  139.8760 C   0  0  0  0  0  0  0  0  0  0  0  0
  179.3300  180.2750  138.9580 N   0  0  0  0  0  2  0  0  0  0  0  0
  1  2  1  0  0  0  0
  2  7  1  0  0  0  0
  3  1  1  0  0  0  0
  4  3  1  0  0  0  0
  4  6  1  0  0  0  0
  6  2  1  0  0  0  0
  6 17  1  1  0  0  0
  7  5  2  0  0  0  0
  7 20  1  0  0  0  0
  8  9  1  6  0  0  0
  8 10  1  0  0  0  0
  8 11  1  0  0  0  0
 10 13  1  0  0  0  0
 11  9  1  6  0  0  0
 11 14  1  0  0  0  0
 12 16  1  0  0  0  0
 13 19  1  1  0  0  0
 13 12  1  0  0  0  0
 14 17  2  0  0  0  0
 14 15  1  0  0  0  0
 16 15  1  0  0  0  0
 19 18  1  0  0  0  0
 20 27  1  1  0  0  0
 20 21  1  0  0  0  0
 21 22  1  0  0  0  0
 22 26  1  0  0  0  0
 22 24  1  0  0  0  0
 23 25  1  0  0  0  0
 24 25  1  0  0  0  0
 26 23  1  0  0  0  0
 27 29  1  0  0  0  0
 29 28  1  0  0  0  0
 30 29  2  0  0  0  0
M  END
>  <MODEL>
8

>  <REMARK>
 VINA RESULT:      -5.7      4.117      7.108
  Name = 
  7 active torsions:
  status: ('A' for Active; 'I' for Inactive)
    1  A    between atoms: N_1  and  S_4
    2  A    between atoms: S_4  and  C_13
    3  A    between atoms: C_13  and  C_14
    4  A    between atoms: C_13  and  C_28
    5  A    between atoms: C_14  and  C_17
    6  A    between atoms: C_18  and  C_24
    7  A    between atoms: C_26  and  C_30
                            x       y       z     vdW  Elec       q    Type
                         _______ _______ _______ _____ _____    ______ ____

>  <TORSDO>
F 7

$$$$
=
 OpenBabel11062413203D

 30 33  0  0  1  0  0  0  0  0999 V2000
  190.7060  176.6270  138.6820 C   0  0  0  0  0  2  0  0  0  0  0  0
  189.7340  177.4640  139.3580 N   0  0  0  0  0  0  0  0  0  0  0  0
  191.8500  176.4540  139.6630 C   0  0  0  0  0  2  0  0  0  0  0  0
  191.6400  177.5000  140.7490 C   0  0  0  0  0  2  0  0  0  0  0  0
  187.7120  178.6300  139.3940 O   0  0  0  0  0  0  0  0  0  0  0  0
  190.1860  177.9320  140.6550 C   0  0  2  0  0  3  0  0  0  0  0  0
  188.4890  177.8590  138.7660 C   0  0  0  0  0  0  0  0  0  0  0  0
  190.9100  178.9180  144.6570 C   0  0  2  0  0  3  0  0  0  0  0  0
  191.4690  178.9920  143.2600 C   0  0  0  0  0  2  0  0  0  0  0  0
  191.1610  177.5240  145.2160 C   0  0  0  0  0  2  0  0  0  0  0  0
  189.9570  179.0000  143.4510 C   0  0  1  0  0  3  0  0  0  0  0  0
  189.0300  176.6900  146.2570 C   0  0  0  0  0  2  0  0  0  0  0  0
  190.3770  177.3560  146.5090 C   0  0  1  0  0  3  0  0  0  0  0  0
  189.3110  177.6920  143.0080 C   0  0  0  0  0  0  0  0  0  0  0  0
  188.3450  176.9320  143.8810 C   0  0  0  0  0  2  0  0  0  0  0  0
  188.1690  177.4870  145.2890 C   0  0  0  0  0  2  0  0  0  0  0  0
  189.3910  177.2610  141.7390 C   0  0  0  0  0  3  0  0  0  0  0  0
  192.3700  176.1030  146.9100 O   0  0  0  0  0  1  0  0  0  0  0  0
  191.1670  176.5090  147.4890 C   0  0  0  0  0  2  0  0  0  0  0  0
  188.0880  177.3240  137.4240 C   0  0  1  0  0  3  0  0  0  0  0  0
  187.5370  175.5860  137.5370 S   0  0  0  0  0  0  0  0  0  0  0  0
  188.5890  175.0700  136.2160 N   0  0  0  0  0  0  0  0  0  0  0  0
  188.4950  173.4490  134.5950 C   0  0  0  0  0  2  0  0  0  0  0  0
  189.3980  173.9690  136.7180 C   0  0  0  0  0  2  0  0  0  0  0  0
  189.4890  172.9550  135.6100 C   0  0  0  0  0  2  0  0  0  0  0  0
  187.7550  174.5330  135.2210 N   0  0  0  0  0  2  0  0  0  0  0  0
  187.1070  178.2320  136.6730 C   0  0  0  0  0  2  0  0  0  0  0  0
  184.8580  177.9230  137.7850 N   0  0  0  0  0  1  0  0  0  0  0  0
  185.7000  177.7250  136.6550 C   0  0  0  0  0  0  0  0  0  0  0  0
  185.2320  177.1480  135.5990 N   0  0  0  0  0  2  0  0  0  0  0  0
  1  2  1  0  0  0  0
  1  3  1  0  0  0  0
  2  6  1  0  0  0  0
  3  4  1  0  0  0  0
  6  4  1  0  0  0  0
  6 17  1  1  0  0  0
  7  2  1  0  0  0  0
  7  5  2  0  0  0  0
  8  9  1  6  0  0  0
  8 10  1  0  0  0  0
 10 13  1  0  0  0  0
 11  9  1  6  0  0  0
 11  8  1  0  0  0  0
 12 13  1  0  0  0  0
 13 19  1  1  0  0  0
 14 11  1  0  0  0  0
 14 15  1  0  0  0  0
 15 16  1  0  0  0  0
 16 12  1  0  0  0  0
 17 14  2  0  0  0  0
 18 19  1  0  0  0  0
 20 27  1  1  0  0  0
 20 21  1  0  0  0  0
 20  7  1  0  0  0  0
 22 24  1  0  0  0  0
 22 21  1  0  0  0  0
 23 26  1  0  0  0  0
 23 25  1  0  0  0  0
 25 24  1  0  0  0  0
 26 22  1  0  0  0  0
 29 27  1  0  0  0  0
 29 28  1  0  0  0  0
 30 29  2  0  0  0  0
M  END
>  <MODEL>
9

>  <REMARK>
 VINA RESULT:      -5.7      1.727      2.287
  Name = 
  7 active torsions:
  status: ('A' for Active; 'I' for Inactive)
    1  A    between atoms: N_1  and  S_4
    2  A    between atoms: S_4  and  C_13
    3  A    between atoms: C_13  and  C_14
    4  A    between atoms: C_13  and  C_28
    5  A    between atoms: C_14  and  C_17
    6  A    between atoms: C_18  and  C_24
    7  A    between atoms: C_26  and  C_30
                            x       y       z     vdW  Elec       q    Type
                         _______ _______ _______ _____ _____    ______ ____

>  <TORSDO>
F 7

$$$$
