=
 OpenBabel11062411043D

 64 71  0  0  1  0  0  0  0  0999 V2000
  187.5890  175.0790  136.9310 C   0  0  0  0  0  1  0  0  0  0  0  0
  185.7340  178.6040  140.3020 C   0  0  1  0  0  0  0  0  0  0  0  0
  187.2150  178.1970  140.1350 C   0  0  1  0  0  3  0  0  0  0  0  0
  186.7810  178.2670  137.5870 C   0  0  0  0  0  0  0  0  0  0  0  0
  187.5070  177.6830  138.7430 C   0  0  0  0  0  0  0  0  0  0  0  0
  184.8250  178.5870  139.0660 C   0  0  2  0  0  3  0  0  0  0  0  0
  189.6650  178.2340  136.0890 C   0  0  0  0  0  1  0  0  0  0  0  0
  185.1470  177.8670  141.3460 O   0  0  0  0  0  0  0  0  0  0  0  0
  188.4840  177.2670  136.1020 C   0  0  1  0  0  3  0  0  0  0  0  0
  188.4150  176.7200  138.5520 C   0  0  0  0  0  3  0  0  0  0  0  0
  188.6560  176.1470  137.1680 C   0  0  1  0  0  0  0  0  0  0  0  0
  185.3050  179.2450  141.5680 C   0  0  0  0  0  2  0  0  0  0  0  0
  185.5600  179.0990  137.8270 C   0  0  0  0  0  2  0  0  0  0  0  0
  187.2200  178.0560  136.3430 C   0  0  0  0  0  3  0  0  0  0  0  0
  193.9370  172.5110  137.6400 O   0  0  0  0  0  0  0  0  0  0  0  0
  191.4670  173.7720  136.1920 N   0  0  0  0  0  0  0  0  0  0  0  0
  190.0230  175.4830  137.0620 C   0  0  0  0  0  0  0  0  0  0  0  0
  191.1180  176.0100  137.7680 C   0  0  0  0  0  3  0  0  0  0  0  0
  193.5450  175.9610  138.3750 C   0  0  0  0  0  0  0  0  0  0  0  0
  192.3790  175.4160  137.6660 C   0  0  0  0  0  0  0  0  0  0  0  0
  194.8370  175.4140  138.1100 N   0  0  0  0  0  2  0  0  0  0  0  0
  192.5420  174.2920  136.8430 C   0  0  0  0  0  0  0  0  0  0  0  0
  190.2350  174.3380  136.2790 C   0  0  0  0  0  3  0  0  0  0  0  0
  196.1060  173.5010  137.3990 C   0  0  0  0  0  2  0  0  0  0  0  0
  195.3060  172.3120  137.9050 C   0  0  0  0  0  2  0  0  0  0  0  0
  193.4180  176.8620  139.2440 O   0  0  0  0  0  0  0  0  0  0  0  0
  195.0670  174.4950  136.9970 C   0  0  1  0  0  3  0  0  0  0  0  0
  193.8680  173.5890  136.7450 C   0  0  1  0  0  3  0  0  0  0  0  0
  188.1240  179.1850  140.5790 O   0  0  0  0  0  0  0  0  0  0  0  0
  188.6180  178.8600  141.8590 C   0  0  0  0  0  2  0  0  0  0  0  0
  190.4430  176.8990  143.8640 C   0  0  0  0  0  0  0  0  0  0  0  0
  188.0960  176.8950  143.3030 C   0  0  0  0  0  2  0  0  0  0  0  0
  190.5380  176.9050  142.0840 S   0  0  0  0  0  0  0  0  0  0  0  0
  189.0840  177.0040  144.4510 C   0  0  0  0  0  2  0  0  0  0  0  0
  188.7750  177.3560  142.0200 C   0  0  2  0  0  3  0  0  0  0  0  0
  191.5180  177.1800  144.5950 C   0  0  0  0  0  2  0  0  0  0  0  0
  183.4620  179.2450  139.2330 C   0  0  0  0  0  2  0  0  0  0  0  0
  182.5680  178.7230  138.1210 C   0  0  2  0  0  3  0  0  0  0  0  0
  181.1880  178.4970  138.5650 N   0  0  0  0  0  2  0  0  0  0  0  0
  180.5330  179.7110  139.0800 C   0  0  2  0  0  3  0  0  0  0  0  0
  180.0600  178.3420  141.1280 C   0  0  0  0  0  3  0  0  0  0  0  0
  179.3150  179.3540  143.1980 C   0  0  0  0  0  0  0  0  0  0  0  0
  179.7060  180.7410  141.2510 C   0  0  0  0  0  3  0  0  0  0  0  0
  179.6840  178.2170  142.4710 C   0  0  0  0  0  3  0  0  0  0  0  0
  180.0690  179.6050  140.5100 C   0  0  0  0  0  0  0  0  0  0  0  0
  179.3220  180.6150  142.5910 C   0  0  0  0  0  3  0  0  0  0  0  0
  178.9320  179.2260  144.6290 C   0  0  0  0  0  1  0  0  0  0  0  0
  179.4710  180.2630  138.1260 C   0  0  2  0  0  3  0  0  0  0  0  0
  179.7700  179.8860  136.8310 F   0  0  0  0  0  0  0  0  0  0  0  0
  179.4310  181.6570  138.2070 O   0  0  0  0  0  0  0  0  0  0  0  0
  180.2770  182.1060  137.1870 C   0  0  0  0  0  2  0  0  0  0  0  0
  181.2240  183.0730  137.7230 N   0  0  0  0  0  2  0  0  0  0  0  0
  181.1890  184.2400  136.8550 C   0  0  0  0  0  2  0  0  0  0  0  0
  179.5490  185.7060  137.6430 C   0  0  0  0  0  1  0  0  0  0  0  0
  179.8180  184.6760  136.6580 N   0  0  0  0  0  2  0  0  0  0  0  0
  183.1920  177.4810  137.4680 C   0  0  0  0  0  2  0  0  0  0  0  0
  182.5980  177.1190  136.1090 C   0  0  0  0  0  2  0  0  0  0  0  0
  183.1640  175.8070  135.5930 C   0  0  0  0  0  2  0  0  0  0  0  0
  182.8180  174.6970  136.5750 C   0  0  2  0  0  3  0  0  0  0  0  0
  184.5390  173.7210  137.8940 O   0  0  0  0  0  1  0  0  0  0  0  0
  184.5440  173.1210  135.6780 O   0  0  0  0  0  0  0  0  0  0  0  0
  183.9980  173.8040  136.7610 C   0  0  0  0  0  0  0  0  0  0  0  0
  181.3330  172.9840  137.1550 C   0  0  0  0  0  1  0  0  0  0  0  0
  181.6800  173.9290  136.1040 N   0  0  0  0  0  2  0  0  0  0  0  0
  2  8  1  0  0  0  0
  2 12  1  1  0  0  0
  3  2  1  0  0  0  0
  3 29  1  6  0  0  0
  4 13  1  0  0  0  0
  4  5  1  0  0  0  0
  5  3  1  0  0  0  0
  6 37  1  1  0  0  0
  6  2  1  0  0  0  0
  8 12  1  0  0  0  0
  9  7  1  1  0  0  0
  9 14  1  0  0  0  0
  9 11  1  0  0  0  0
 10  5  2  0  0  0  0
 11  1  1  6  0  0  0
 11 10  1  0  0  0  0
 13  6  1  0  0  0  0
 14  4  2  0  0  0  0
 15 25  1  0  0  0  0
 16 23  2  0  0  0  0
 16 22  1  0  0  0  0
 17 11  1  0  0  0  0
 17 18  2  0  0  0  0
 19 26  2  0  0  0  0
 20 18  1  0  0  0  0
 20 19  1  0  0  0  0
 21 19  1  0  0  0  0
 22 20  2  0  0  0  0
 23 17  1  0  0  0  0
 24 25  1  0  0  0  0
 27 24  1  1  0  0  0
 27 21  1  0  0  0  0
 28 22  1  1  0  0  0
 28 27  1  0  0  0  0
 28 15  1  0  0  0  0
 29 30  1  0  0  0  0
 31 34  1  0  0  0  0
 31 36  2  0  0  0  0
 32 34  1  0  0  0  0
 33 31  1  0  0  0  0
 35 30  1  1  0  0  0
 35 33  1  0  0  0  0
 35 32  1  0  0  0  0
 38 56  1  1  0  0  0
 38 39  1  0  0  0  0
 38 37  1  0  0  0  0
 40 39  1  6  0  0  0
 40 45  1  0  0  0  0
 41 44  1  0  0  0  0
 42 47  1  0  0  0  0
 43 46  2  0  0  0  0
 44 42  2  0  0  0  0
 45 41  2  0  0  0  0
 45 43  1  0  0  0  0
 46 42  1  0  0  0  0
 48 49  1  6  0  0  0
 48 50  1  0  0  0  0
 48 40  1  0  0  0  0
 51 52  1  0  0  0  0
 51 50  1  0  0  0  0
 53 52  1  0  0  0  0
 55 53  1  0  0  0  0
 55 54  1  0  0  0  0
 57 56  1  0  0  0  0
 58 57  1  0  0  0  0
 59 58  1  6  0  0  0
 59 62  1  0  0  0  0
 61 62  2  0  0  0  0
 62 60  1  0  0  0  0
 64 59  1  0  0  0  0
 64 63  1  0  0  0  0
M  END
>  <MODEL>
1

>  <REMARK>
 VINA RESULT:      -6.2      0.000      0.000
  Name = 
  21 active torsions:
  status: ('A' for Active; 'I' for Inactive)
    1  A    between atoms: N_4  and  C_13
    2  A    between atoms: N_4  and  C_62
    3  A    between atoms: C_7  and  C_44
    4  A    between atoms: O_9  and  C_10
    5  A    between atoms: O_9  and  C_63
    6  A    between atoms: C_12  and  C_13
    7  A    between atoms: C_12  and  O_20
    8  A    between atoms: C_13  and  C_46
    9  A    between atoms: CA_19  and  C_37
   10  A    between atoms: CA_19  and  N_52
   11  A    between atoms: CA_19  and  C_58
   12  A    between atoms: O_20  and  C_57
   13  A    between atoms: C_21  and  C_51
   14  A    between atoms: C_35  and  C_49
   15  A    between atoms: C_35  and  C_58
   16  A    between atoms: C_43  and  N_48
   17  A    between atoms: C_43  and  N_59
   18  A    between atoms: C_49  and  C_62
   19  A    between atoms: C_51  and  C_62
   20  A    between atoms: C_55  and  C_63
   21  A    between atoms: C_57  and  N_59
                            x       y       z     vdW  Elec       q    Type
                         _______ _______ _______ _____ _____    ______ ____

>  <TORSDO>
F 21

$$$$
=
 OpenBabel11062411043D

 64 71  0  0  1  0  0  0  0  0999 V2000
  192.4120  177.3990  138.8700 C   0  0  0  0  0  1  0  0  0  0  0  0
  187.8010  178.4850  136.6810 C   0  0  1  0  0  0  0  0  0  0  0  0
  189.0010  177.8060  135.9840 C   0  0  1  0  0  3  0  0  0  0  0  0
  189.2820  176.4320  138.1570 C   0  0  0  0  0  0  0  0  0  0  0  0
  189.8910  177.0810  136.9680 C   0  0  0  0  0  0  0  0  0  0  0  0
  187.5810  178.2280  138.1780 C   0  0  2  0  0  3  0  0  0  0  0  0
  191.2840  173.9550  137.5130 C   0  0  0  0  0  1  0  0  0  0  0  0
  187.8150  179.8670  136.4220 O   0  0  0  0  0  0  0  0  0  0  0  0
  191.3770  175.1560  138.4490 C   0  0  1  0  0  3  0  0  0  0  0  0
  191.2120  177.0150  136.7690 C   0  0  0  0  0  3  0  0  0  0  0  0
  192.1180  176.3560  137.7910 C   0  0  1  0  0  0  0  0  0  0  0  0
  186.7620  179.1360  135.8480 C   0  0  0  0  0  2  0  0  0  0  0  0
  187.8760  176.7730  138.5420 C   0  0  0  0  0  2  0  0  0  0  0  0
  189.9800  175.5460  138.8710 C   0  0  0  0  0  3  0  0  0  0  0  0
  196.9800  173.5480  134.6580 O   0  0  0  0  0  0  0  0  0  0  0  0
  194.9850  175.8620  135.3360 N   0  0  0  0  0  0  0  0  0  0  0  0
  193.4420  175.9220  137.1760 C   0  0  0  0  0  0  0  0  0  0  0  0
  194.3540  175.1650  137.9300 C   0  0  0  0  0  3  0  0  0  0  0  0
  196.5590  174.0020  138.1530 C   0  0  0  0  0  0  0  0  0  0  0  0
  195.5780  174.7760  137.3790 C   0  0  0  0  0  0  0  0  0  0  0  0
  197.8540  173.7700  137.5990 N   0  0  0  0  0  2  0  0  0  0  0  0
  195.8900  175.1570  136.0660 C   0  0  0  0  0  0  0  0  0  0  0  0
  193.7920  176.2500  135.8560 C   0  0  0  0  0  3  0  0  0  0  0  0
  199.1800  173.5430  135.6080 C   0  0  0  0  0  2  0  0  0  0  0  0
  198.2350  172.9120  134.5980 C   0  0  0  0  0  2  0  0  0  0  0  0
  196.2610  173.5030  139.2690 O   0  0  0  0  0  0  0  0  0  0  0  0
  198.3090  174.4650  136.3960 C   0  0  1  0  0  3  0  0  0  0  0  0
  197.1720  174.7150  135.4140 C   0  0  1  0  0  3  0  0  0  0  0  0
  188.6330  177.0220  134.8650 O   0  0  0  0  0  0  0  0  0  0  0  0
  188.4170  175.6840  135.2510 C   0  0  0  0  0  2  0  0  0  0  0  0
  186.1210  173.4220  136.1490 C   0  0  0  0  0  0  0  0  0  0  0  0
  185.9230  175.6650  135.2820 C   0  0  0  0  0  2  0  0  0  0  0  0
  187.1590  173.3010  134.7060 S   0  0  0  0  0  0  0  0  0  0  0  0
  185.5720  174.7670  136.4550 C   0  0  0  0  0  2  0  0  0  0  0  0
  187.1680  175.1180  134.5950 C   0  0  2  0  0  3  0  0  0  0  0  0
  186.1620  172.4810  137.0880 C   0  0  0  0  0  2  0  0  0  0  0  0
  186.2500  178.7010  138.7450 C   0  0  0  0  0  2  0  0  0  0  0  0
  186.3790  178.7040  140.2580 C   0  0  2  0  0  3  0  0  0  0  0  0
  185.4790  179.6700  140.9000 N   0  0  0  0  0  2  0  0  0  0  0  0
  184.3420  179.0420  141.5910 C   0  0  2  0  0  3  0  0  0  0  0  0
  185.4260  177.8250  143.4980 C   0  0  0  0  0  3  0  0  0  0  0  0
  185.0640  178.4780  145.8020 C   0  0  0  0  0  0  0  0  0  0  0  0
  183.9430  179.6750  144.0200 C   0  0  0  0  0  3  0  0  0  0  0  0
  185.6830  177.6450  144.8630 C   0  0  0  0  0  3  0  0  0  0  0  0
  184.5520  178.8400  143.0700 C   0  0  0  0  0  0  0  0  0  0  0  0
  184.1930  179.4900  145.3840 C   0  0  0  0  0  3  0  0  0  0  0  0
  185.3480  178.2990  147.2500 C   0  0  0  0  0  1  0  0  0  0  0  0
  183.8180  177.8010  140.8660 C   0  0  2  0  0  3  0  0  0  0  0  0
  183.9450  177.9720  139.5010 F   0  0  0  0  0  0  0  0  0  0  0  0
  182.4740  177.5900  141.1850 O   0  0  0  0  0  0  0  0  0  0  0  0
  181.7540  178.2960  140.2150 C   0  0  0  0  0  2  0  0  0  0  0  0
  180.4630  177.6600  140.0010 N   0  0  0  0  0  2  0  0  0  0  0  0
  180.7190  176.3060  139.5340 C   0  0  0  0  0  2  0  0  0  0  0  0
  179.8050  174.1570  139.5840 C   0  0  0  0  0  1  0  0  0  0  0  0
  180.0360  175.3470  140.3820 N   0  0  0  0  0  2  0  0  0  0  0  0
  187.8450  178.8920  140.6740 C   0  0  0  0  0  2  0  0  0  0  0  0
  188.2850  178.0190  141.8460 C   0  0  0  0  0  2  0  0  0  0  0  0
  189.7610  177.6750  141.7520 C   0  0  0  0  0  2  0  0  0  0  0  0
  190.2160  177.0780  143.0770 C   0  0  2  0  0  3  0  0  0  0  0  0
  190.8920  178.7990  144.5710 O   0  0  0  0  0  0  0  0  0  0  0  0
  188.7270  178.0820  144.8220 O   0  0  0  0  0  1  0  0  0  0  0  0
  189.9610  178.0500  144.1800 C   0  0  0  0  0  0  0  0  0  0  0  0
  191.8340  175.6410  143.9670 C   0  0  0  0  0  1  0  0  0  0  0  0
  191.6250  176.7350  143.0310 N   0  0  0  0  0  2  0  0  0  0  0  0
  2 12  1  6  0  0  0
  2  6  1  0  0  0  0
  3 29  1  6  0  0  0
  3  2  1  0  0  0  0
  3  5  1  0  0  0  0
  4 13  1  0  0  0  0
  4 14  2  0  0  0  0
  5  4  1  0  0  0  0
  6 13  1  0  0  0  0
  6 37  1  6  0  0  0
  8  2  1  0  0  0  0
  9  7  1  6  0  0  0
  9 14  1  0  0  0  0
 10  5  2  0  0  0  0
 10 11  1  0  0  0  0
 11  9  1  0  0  0  0
 11  1  1  1  0  0  0
 12  8  1  0  0  0  0
 16 23  2  0  0  0  0
 16 22  1  0  0  0  0
 17 11  1  0  0  0  0
 17 18  2  0  0  0  0
 19 26  2  0  0  0  0
 20 18  1  0  0  0  0
 20 19  1  0  0  0  0
 21 19  1  0  0  0  0
 22 20  2  0  0  0  0
 23 17  1  0  0  0  0
 25 15  1  0  0  0  0
 25 24  1  0  0  0  0
 27 24  1  6  0  0  0
 27 21  1  0  0  0  0
 28 15  1  1  0  0  0
 28 22  1  0  0  0  0
 28 27  1  0  0  0  0
 29 30  1  0  0  0  0
 31 34  1  0  0  0  0
 31 36  2  0  0  0  0
 32 34  1  0  0  0  0
 33 31  1  0  0  0  0
 35 33  1  0  0  0  0
 35 30  1  1  0  0  0
 35 32  1  0  0  0  0
 38 37  1  6  0  0  0
 38 56  1  0  0  0  0
 38 39  1  0  0  0  0
 40 39  1  6  0  0  0
 40 45  1  0  0  0  0
 41 44  1  0  0  0  0
 42 47  1  0  0  0  0
 43 46  2  0  0  0  0
 44 42  2  0  0  0  0
 45 41  2  0  0  0  0
 45 43  1  0  0  0  0
 46 42  1  0  0  0  0
 48 49  1  6  0  0  0
 48 50  1  0  0  0  0
 48 40  1  0  0  0  0
 51 50  1  0  0  0  0
 52 51  1  0  0  0  0
 53 52  1  0  0  0  0
 53 55  1  0  0  0  0
 54 55  1  0  0  0  0
 56 57  1  0  0  0  0
 58 57  1  0  0  0  0
 59 58  1  6  0  0  0
 59 62  1  0  0  0  0
 62 60  2  0  0  0  0
 62 61  1  0  0  0  0
 64 59  1  0  0  0  0
 64 63  1  0  0  0  0
M  END
>  <MODEL>
2

>  <REMARK>
 VINA RESULT:      -5.0      3.445      6.604
  Name = 
  21 active torsions:
  status: ('A' for Active; 'I' for Inactive)
    1  A    between atoms: N_4  and  C_13
    2  A    between atoms: N_4  and  C_62
    3  A    between atoms: C_7  and  C_44
    4  A    between atoms: O_9  and  C_10
    5  A    between atoms: O_9  and  C_63
    6  A    between atoms: C_12  and  C_13
    7  A    between atoms: C_12  and  O_20
    8  A    between atoms: C_13  and  C_46
    9  A    between atoms: CA_19  and  C_37
   10  A    between atoms: CA_19  and  N_52
   11  A    between atoms: CA_19  and  C_58
   12  A    between atoms: O_20  and  C_57
   13  A    between atoms: C_21  and  C_51
   14  A    between atoms: C_35  and  C_49
   15  A    between atoms: C_35  and  C_58
   16  A    between atoms: C_43  and  N_48
   17  A    between atoms: C_43  and  N_59
   18  A    between atoms: C_49  and  C_62
   19  A    between atoms: C_51  and  C_62
   20  A    between atoms: C_55  and  C_63
   21  A    between atoms: C_57  and  N_59
                            x       y       z     vdW  Elec       q    Type
                         _______ _______ _______ _____ _____    ______ ____

>  <TORSDO>
F 21

$$$$
=
 OpenBabel11062411043D

 64 71  0  0  1  0  0  0  0  0999 V2000
  192.4560  177.2750  139.3030 C   0  0  0  0  0  1  0  0  0  0  0  0
  187.9830  178.7000  137.0250 C   0  0  1  0  0  0  0  0  0  0  0  0
  189.2020  178.0680  136.3190 C   0  0  1  0  0  3  0  0  0  0  0  0
  189.3460  176.4680  138.3440 C   0  0  0  0  0  0  0  0  0  0  0  0
  190.0270  177.2220  137.2620 C   0  0  0  0  0  0  0  0  0  0  0  0
  187.6830  178.2940  138.4750 C   0  0  2  0  0  3  0  0  0  0  0  0
  191.3280  174.0220  137.5370 C   0  0  0  0  0  1  0  0  0  0  0  0
  188.0370  180.1010  136.9160 O   0  0  0  0  0  0  0  0  0  0  0  0
  191.3980  175.1150  138.5990 C   0  0  1  0  0  3  0  0  0  0  0  0
  191.3540  177.1430  137.1190 C   0  0  0  0  0  3  0  0  0  0  0  0
  192.1950  176.3580  138.1080 C   0  0  1  0  0  0  0  0  0  0  0  0
  187.0000  179.4610  136.2180 C   0  0  0  0  0  2  0  0  0  0  0  0
  187.9300  176.8020  138.6970 C   0  0  0  0  0  2  0  0  0  0  0  0
  189.9910  175.4940  138.9930 C   0  0  0  0  0  3  0  0  0  0  0  0
  197.1250  173.9890  134.7290 O   0  0  0  0  0  0  0  0  0  0  0  0
  195.2860  176.2400  135.8890 N   0  0  0  0  0  0  0  0  0  0  0  0
  193.5390  175.9580  137.5140 C   0  0  0  0  0  0  0  0  0  0  0  0
  194.2760  174.9070  138.0830 C   0  0  0  0  0  3  0  0  0  0  0  0
  196.3170  173.4600  138.1440 C   0  0  0  0  0  0  0  0  0  0  0  0
  195.5170  174.5420  137.5530 C   0  0  0  0  0  0  0  0  0  0  0  0
  197.6430  173.2370  137.6660 N   0  0  0  0  0  2  0  0  0  0  0  0
  196.0240  175.2450  136.4510 C   0  0  0  0  0  0  0  0  0  0  0  0
  194.0790  176.6070  136.3920 C   0  0  0  0  0  3  0  0  0  0  0  0
  199.1800  173.4320  135.8280 C   0  0  0  0  0  2  0  0  0  0  0  0
  198.3130  173.2450  134.5940 C   0  0  0  0  0  2  0  0  0  0  0  0
  195.8380  172.7010  139.0250 O   0  0  0  0  0  0  0  0  0  0  0  0
  198.3080  174.1880  136.7750 C   0  0  1  0  0  3  0  0  0  0  0  0
  197.3300  174.8530  135.8150 C   0  0  1  0  0  3  0  0  0  0  0  0
  188.8740  177.4150  135.1070 O   0  0  0  0  0  0  0  0  0  0  0  0
  188.7420  176.0280  135.3160 C   0  0  0  0  0  2  0  0  0  0  0  0
  186.1000  174.2760  136.3880 C   0  0  0  0  0  0  0  0  0  0  0  0
  186.2730  176.3060  135.0960 C   0  0  0  0  0  2  0  0  0  0  0  0
  187.2210  173.7470  135.1070 S   0  0  0  0  0  0  0  0  0  0  0  0
  185.7160  175.7100  136.3750 C   0  0  0  0  0  2  0  0  0  0  0  0
  187.4830  175.4910  134.6550 C   0  0  2  0  0  3  0  0  0  0  0  0
  185.9430  173.5450  137.4870 C   0  0  0  0  0  2  0  0  0  0  0  0
  186.3360  178.7380  139.0260 C   0  0  0  0  0  2  0  0  0  0  0  0
  186.2940  178.3440  140.4920 C   0  0  2  0  0  3  0  0  0  0  0  0
  185.4140  179.2110  141.2850 N   0  0  0  0  0  2  0  0  0  0  0  0
  184.2370  178.5110  141.8270 C   0  0  2  0  0  3  0  0  0  0  0  0
  182.0850  179.3820  140.8750 C   0  0  0  0  0  3  0  0  0  0  0  0
  180.9750  178.2920  139.0190 C   0  0  0  0  0  0  0  0  0  0  0  0
  183.0270  177.3630  139.9100 C   0  0  0  0  0  3  0  0  0  0  0  0
  181.0300  179.3300  139.9550 C   0  0  0  0  0  3  0  0  0  0  0  0
  183.0870  178.3960  140.8590 C   0  0  0  0  0  0  0  0  0  0  0  0
  181.9690  177.3060  138.9960 C   0  0  0  0  0  3  0  0  0  0  0  0
  179.8660  178.2450  138.0300 C   0  0  0  0  0  1  0  0  0  0  0  0
  183.8300  179.0180  143.2120 C   0  0  2  0  0  3  0  0  0  0  0  0
  184.4180  180.2460  143.4480 F   0  0  0  0  0  0  0  0  0  0  0  0
  184.2380  178.1120  144.1930 O   0  0  0  0  0  0  0  0  0  0  0  0
  184.8160  178.8960  145.1970 C   0  0  0  0  0  2  0  0  0  0  0  0
  185.4160  178.0380  146.2080 N   0  0  0  0  0  2  0  0  0  0  0  0
  186.7040  178.6160  146.5570 C   0  0  0  0  0  2  0  0  0  0  0  0
  188.1290  178.3700  148.3920 C   0  0  0  0  0  1  0  0  0  0  0  0
  186.8000  178.7940  147.9940 N   0  0  0  0  0  2  0  0  0  0  0  0
  187.7150  178.2570  141.0670 C   0  0  0  0  0  2  0  0  0  0  0  0
  187.8840  177.2220  142.1760 C   0  0  0  0  0  2  0  0  0  0  0  0
  188.2630  177.8810  143.4910 C   0  0  0  0  0  2  0  0  0  0  0  0
  189.4940  177.1860  144.0560 C   0  0  2  0  0  3  0  0  0  0  0  0
  190.6550  179.1740  143.4620 O   0  0  0  0  0  0  0  0  0  0  0  0
  191.5940  177.9670  145.1730 O   0  0  0  0  0  1  0  0  0  0  0  0
  190.5970  178.1770  144.2260 C   0  0  0  0  0  0  0  0  0  0  0  0
  191.2500  175.7020  143.6200 C   0  0  0  0  0  1  0  0  0  0  0  0
  189.9230  176.1080  143.1830 N   0  0  0  0  0  2  0  0  0  0  0  0
  2 12  1  6  0  0  0
  2  6  1  0  0  0  0
  3 29  1  6  0  0  0
  3  2  1  0  0  0  0
  3  5  1  0  0  0  0
  4 13  1  0  0  0  0
  4 14  2  0  0  0  0
  5  4  1  0  0  0  0
  6 13  1  0  0  0  0
  6 37  1  6  0  0  0
  8  2  1  0  0  0  0
  9  7  1  6  0  0  0
  9 14  1  0  0  0  0
 10  5  2  0  0  0  0
 10 11  1  0  0  0  0
 11  9  1  0  0  0  0
 11  1  1  1  0  0  0
 12  8  1  0  0  0  0
 16 23  2  0  0  0  0
 16 22  1  0  0  0  0
 17 18  2  0  0  0  0
 17 11  1  0  0  0  0
 19 26  2  0  0  0  0
 20 18  1  0  0  0  0
 20 19  1  0  0  0  0
 21 19  1  0  0  0  0
 22 20  2  0  0  0  0
 23 17  1  0  0  0  0
 25 15  1  0  0  0  0
 25 24  1  0  0  0  0
 27 24  1  6  0  0  0
 27 21  1  0  0  0  0
 28 15  1  6  0  0  0
 28 22  1  0  0  0  0
 28 27  1  0  0  0  0
 29 30  1  0  0  0  0
 31 36  2  0  0  0  0
 32 34  1  0  0  0  0
 33 31  1  0  0  0  0
 34 31  1  0  0  0  0
 35 32  1  0  0  0  0
 35 33  1  0  0  0  0
 35 30  1  1  0  0  0
 38 37  1  6  0  0  0
 38 56  1  0  0  0  0
 38 39  1  0  0  0  0
 40 39  1  6  0  0  0
 40 48  1  0  0  0  0
 42 44  1  0  0  0  0
 43 45  2  0  0  0  0
 44 41  2  0  0  0  0
 45 41  1  0  0  0  0
 45 40  1  0  0  0  0
 46 42  2  0  0  0  0
 46 43  1  0  0  0  0
 47 42  1  0  0  0  0
 48 49  1  1  0  0  0
 48 50  1  0  0  0  0
 50 51  1  0  0  0  0
 51 52  1  0  0  0  0
 52 53  1  0  0  0  0
 53 55  1  0  0  0  0
 55 54  1  0  0  0  0
 56 57  1  0  0  0  0
 57 58  1  0  0  0  0
 59 58  1  6  0  0  0
 59 62  1  0  0  0  0
 60 62  2  0  0  0  0
 62 61  1  0  0  0  0
 64 63  1  0  0  0  0
 64 59  1  0  0  0  0
M  END
>  <MODEL>
3

>  <REMARK>
 VINA RESULT:      -4.8      3.670      7.064
  Name = 
  21 active torsions:
  status: ('A' for Active; 'I' for Inactive)
    1  A    between atoms: N_4  and  C_13
    2  A    between atoms: N_4  and  C_62
    3  A    between atoms: C_7  and  C_44
    4  A    between atoms: O_9  and  C_10
    5  A    between atoms: O_9  and  C_63
    6  A    between atoms: C_12  and  C_13
    7  A    between atoms: C_12  and  O_20
    8  A    between atoms: C_13  and  C_46
    9  A    between atoms: CA_19  and  C_37
   10  A    between atoms: CA_19  and  N_52
   11  A    between atoms: CA_19  and  C_58
   12  A    between atoms: O_20  and  C_57
   13  A    between atoms: C_21  and  C_51
   14  A    between atoms: C_35  and  C_49
   15  A    between atoms: C_35  and  C_58
   16  A    between atoms: C_43  and  N_48
   17  A    between atoms: C_43  and  N_59
   18  A    between atoms: C_49  and  C_62
   19  A    between atoms: C_51  and  C_62
   20  A    between atoms: C_55  and  C_63
   21  A    between atoms: C_57  and  N_59
                            x       y       z     vdW  Elec       q    Type
                         _______ _______ _______ _____ _____    ______ ____

>  <TORSDO>
F 21

$$$$
=
 OpenBabel11062411043D

 64 71  0  0  1  0  0  0  0  0999 V2000
  189.2790  175.6230  142.3560 C   0  0  0  0  0  1  0  0  0  0  0  0
  185.5200  178.5440  140.2190 C   0  0  1  0  0  0  0  0  0  0  0  0
  186.1480  178.7490  141.6150 C   0  0  1  0  0  3  0  0  0  0  0  0
  188.4250  178.2720  140.4870 C   0  0  0  0  0  0  0  0  0  0  0  0
  187.5560  178.2020  141.6890 C   0  0  0  0  0  0  0  0  0  0  0  0
  186.4020  177.9850  139.0940 C   0  0  2  0  0  3  0  0  0  0  0  0
  190.7640  179.1910  142.5480 C   0  0  0  0  0  1  0  0  0  0  0  0
  184.3380  177.7900  140.3290 O   0  0  0  0  0  0  0  0  0  0  0  0
  190.3680  177.8430  141.9520 C   0  0  1  0  0  3  0  0  0  0  0  0
  188.0200  177.6710  142.8250 C   0  0  0  0  0  3  0  0  0  0  0  0
  189.4040  177.0530  142.8830 C   0  0  1  0  0  0  0  0  0  0  0  0
  184.1890  179.1300  139.9380 C   0  0  0  0  0  2  0  0  0  0  0  0
  187.8140  178.5660  139.1520 C   0  0  0  0  0  2  0  0  0  0  0  0
  189.7420  178.0810  140.5990 C   0  0  0  0  0  3  0  0  0  0  0  0
  192.3520  177.8520  148.5400 O   0  0  0  0  0  0  0  0  0  0  0  0
  189.9020  177.7160  146.5980 N   0  0  0  0  0  0  0  0  0  0  0  0
  189.9340  176.9890  144.3090 C   0  0  0  0  0  0  0  0  0  0  0  0
  190.9750  176.1040  144.6340 C   0  0  0  0  0  3  0  0  0  0  0  0
  192.5310  175.0940  146.3140 C   0  0  0  0  0  0  0  0  0  0  0  0
  191.4590  176.0270  145.9430 C   0  0  0  0  0  0  0  0  0  0  0  0
  192.8760  174.9420  147.6910 N   0  0  0  0  0  2  0  0  0  0  0  0
  190.8870  176.8400  146.9320 C   0  0  0  0  0  0  0  0  0  0  0  0
  189.4200  177.8020  145.3320 C   0  0  0  0  0  3  0  0  0  0  0  0
  192.9350  175.9480  149.8730 C   0  0  0  0  0  2  0  0  0  0  0  0
  193.1760  177.4230  149.5990 C   0  0  0  0  0  2  0  0  0  0  0  0
  193.1810  174.4650  145.4380 O   0  0  0  0  0  0  0  0  0  0  0  0
  192.0480  175.5090  148.7550 C   0  0  1  0  0  3  0  0  0  0  0  0
  191.4110  176.8300  148.3430 C   0  0  1  0  0  3  0  0  0  0  0  0
  186.0240  180.0720  142.1000 O   0  0  0  0  0  0  0  0  0  0  0  0
  185.3060  180.0870  143.3120 C   0  0  0  0  0  2  0  0  0  0  0  0
  184.8280  178.4100  146.1680 C   0  0  0  0  0  0  0  0  0  0  0  0
  183.3920  178.8080  144.2700 C   0  0  0  0  0  2  0  0  0  0  0  0
  185.8940  177.8790  144.8410 S   0  0  0  0  0  0  0  0  0  0  0  0
  183.5270  179.0030  145.7700 C   0  0  0  0  0  2  0  0  0  0  0  0
  184.7820  178.7020  143.6570 C   0  0  2  0  0  3  0  0  0  0  0  0
  185.3240  178.6230  147.3830 C   0  0  0  0  0  2  0  0  0  0  0  0
  185.8140  178.0540  137.6910 C   0  0  0  0  0  2  0  0  0  0  0  0
  185.4970  176.6310  137.2630 C   0  0  2  0  0  3  0  0  0  0  0  0
  186.5310  176.0600  136.3920 N   0  0  0  0  0  2  0  0  0  0  0  0
  187.1150  174.8140  136.9170 C   0  0  2  0  0  3  0  0  0  0  0  0
  189.2360  176.0110  137.5200 C   0  0  0  0  0  3  0  0  0  0  0  0
  191.3970  174.9240  137.3980 C   0  0  0  0  0  0  0  0  0  0  0  0
  189.4000  173.7130  136.7540 C   0  0  0  0  0  3  0  0  0  0  0  0
  190.6240  176.0520  137.6980 C   0  0  0  0  0  3  0  0  0  0  0  0
  188.6170  174.8420  137.0440 C   0  0  0  0  0  0  0  0  0  0  0  0
  190.7880  173.7560  136.9240 C   0  0  0  0  0  3  0  0  0  0  0  0
  192.8690  174.9590  137.6020 C   0  0  0  0  0  1  0  0  0  0  0  0
  186.5780  173.5650  136.2170 C   0  0  2  0  0  3  0  0  0  0  0  0
  185.5290  173.9120  135.3870 F   0  0  0  0  0  0  0  0  0  0  0  0
  186.1330  172.6380  137.1630 O   0  0  0  0  0  0  0  0  0  0  0  0
  184.8190  173.0190  137.4570 C   0  0  0  0  0  2  0  0  0  0  0  0
  183.9160  171.9070  137.1980 N   0  0  0  0  0  2  0  0  0  0  0  0
  182.6200  172.4730  136.8570 C   0  0  0  0  0  2  0  0  0  0  0  0
  182.7320  170.4180  135.7500 C   0  0  0  0  0  1  0  0  0  0  0  0
  181.8510  171.5250  136.0730 N   0  0  0  0  0  2  0  0  0  0  0  0
  184.0930  176.5550  136.6460 C   0  0  0  0  0  2  0  0  0  0  0  0
  183.2680  177.8300  136.7970 C   0  0  0  0  0  2  0  0  0  0  0  0
  181.7830  177.5200  136.8740 C   0  0  0  0  0  2  0  0  0  0  0  0
  181.3470  177.5430  138.3320 C   0  0  2  0  0  3  0  0  0  0  0  0
  182.0610  175.6000  139.5000 O   0  0  0  0  0  1  0  0  0  0  0  0
  180.0160  175.4270  138.4740 O   0  0  0  0  0  0  0  0  0  0  0  0
  181.1550  176.1480  138.8220 C   0  0  0  0  0  0  0  0  0  0  0  0
  180.4740  179.7110  138.4540 C   0  0  0  0  0  1  0  0  0  0  0  0
  180.1190  178.3010  138.4900 N   0  0  0  0  0  2  0  0  0  0  0  0
  2 12  1  6  0  0  0
  2  8  1  0  0  0  0
  2  3  1  0  0  0  0
  3  5  1  0  0  0  0
  3 29  1  6  0  0  0
  4 14  2  0  0  0  0
  4  5  1  0  0  0  0
  5 10  2  0  0  0  0
  6 37  1  6  0  0  0
  6 13  1  0  0  0  0
  6  2  1  0  0  0  0
  9  7  1  1  0  0  0
  9 11  1  0  0  0  0
 10 11  1  0  0  0  0
 11  1  1  6  0  0  0
 11 17  1  0  0  0  0
 12  8  1  0  0  0  0
 13  4  1  0  0  0  0
 14  9  1  0  0  0  0
 15 25  1  0  0  0  0
 16 22  1  0  0  0  0
 17 18  2  0  0  0  0
 17 23  1  0  0  0  0
 18 20  1  0  0  0  0
 19 21  1  0  0  0  0
 20 19  1  0  0  0  0
 20 22  2  0  0  0  0
 21 27  1  0  0  0  0
 23 16  2  0  0  0  0
 25 24  1  0  0  0  0
 26 19  2  0  0  0  0
 27 24  1  1  0  0  0
 28 22  1  6  0  0  0
 28 15  1  0  0  0  0
 28 27  1  0  0  0  0
 29 30  1  0  0  0  0
 31 36  2  0  0  0  0
 32 34  1  0  0  0  0
 33 31  1  0  0  0  0
 34 31  1  0  0  0  0
 35 30  1  1  0  0  0
 35 32  1  0  0  0  0
 35 33  1  0  0  0  0
 38 56  1  6  0  0  0
 38 37  1  0  0  0  0
 39 38  1  0  0  0  0
 40 39  1  6  0  0  0
 40 45  1  0  0  0  0
 41 44  1  0  0  0  0
 42 47  1  0  0  0  0
 42 44  2  0  0  0  0
 43 46  2  0  0  0  0
 43 45  1  0  0  0  0
 45 41  2  0  0  0  0
 46 42  1  0  0  0  0
 48 49  1  6  0  0  0
 48 40  1  0  0  0  0
 48 50  1  0  0  0  0
 50 51  1  0  0  0  0
 52 51  1  0  0  0  0
 53 52  1  0  0  0  0
 54 55  1  0  0  0  0
 55 53  1  0  0  0  0
 56 57  1  0  0  0  0
 57 58  1  0  0  0  0
 59 58  1  6  0  0  0
 59 64  1  0  0  0  0
 59 62  1  0  0  0  0
 61 62  2  0  0  0  0
 62 60  1  0  0  0  0
 63 64  1  0  0  0  0
M  END
>  <MODEL>
4

>  <REMARK>
 VINA RESULT:      -3.5      3.516      8.422
  Name = 
  21 active torsions:
  status: ('A' for Active; 'I' for Inactive)
    1  A    between atoms: N_4  and  C_13
    2  A    between atoms: N_4  and  C_62
    3  A    between atoms: C_7  and  C_44
    4  A    between atoms: O_9  and  C_10
    5  A    between atoms: O_9  and  C_63
    6  A    between atoms: C_12  and  C_13
    7  A    between atoms: C_12  and  O_20
    8  A    between atoms: C_13  and  C_46
    9  A    between atoms: CA_19  and  C_37
   10  A    between atoms: CA_19  and  N_52
   11  A    between atoms: CA_19  and  C_58
   12  A    between atoms: O_20  and  C_57
   13  A    between atoms: C_21  and  C_51
   14  A    between atoms: C_35  and  C_49
   15  A    between atoms: C_35  and  C_58
   16  A    between atoms: C_43  and  N_48
   17  A    between atoms: C_43  and  N_59
   18  A    between atoms: C_49  and  C_62
   19  A    between atoms: C_51  and  C_62
   20  A    between atoms: C_55  and  C_63
   21  A    between atoms: C_57  and  N_59
                            x       y       z     vdW  Elec       q    Type
                         _______ _______ _______ _____ _____    ______ ____

>  <TORSDO>
F 21

$$$$
=
 OpenBabel11062411043D

 64 71  0  0  1  0  0  0  0  0999 V2000
  189.0270  176.1870  139.9860 C   0  0  0  0  0  1  0  0  0  0  0  0
  184.1280  177.6880  139.0000 C   0  0  1  0  0  0  0  0  0  0  0  0
  184.8830  177.8700  140.3340 C   0  0  1  0  0  3  0  0  0  0  0  0
  186.9230  178.5620  138.9030 C   0  0  0  0  0  0  0  0  0  0  0  0
  186.3810  177.9320  140.1340 C   0  0  0  0  0  0  0  0  0  0  0  0
  184.9280  177.7450  137.6910 C   0  0  2  0  0  3  0  0  0  0  0  0
  189.0960  179.9510  140.8790 C   0  0  0  0  0  1  0  0  0  0  0  0
  183.3510  176.5170  139.0430 O   0  0  0  0  0  0  0  0  0  0  0  0
  189.1230  178.6900  140.0200 C   0  0  1  0  0  3  0  0  0  0  0  0
  187.2110  177.4350  141.0570 C   0  0  0  0  0  3  0  0  0  0  0  0
  188.7100  177.4250  140.8260 C   0  0  1  0  0  0  0  0  0  0  0  0
  182.6460  177.7310  139.0020 C   0  0  0  0  0  2  0  0  0  0  0  0
  186.0090  178.8230  137.7460 C   0  0  0  0  0  2  0  0  0  0  0  0
  188.2130  178.8990  138.8330 C   0  0  0  0  0  3  0  0  0  0  0  0
  192.0540  175.6950  146.0370 O   0  0  0  0  0  0  0  0  0  0  0  0
  191.5510  177.2200  143.3520 N   0  0  0  0  0  0  0  0  0  0  0  0
  189.4820  177.3210  142.1340 C   0  0  0  0  0  0  0  0  0  0  0  0
  188.7920  177.2340  143.3540 C   0  0  0  0  0  3  0  0  0  0  0  0
  188.7940  177.0840  145.8520 C   0  0  0  0  0  0  0  0  0  0  0  0
  189.4920  177.1540  144.5610 C   0  0  0  0  0  0  0  0  0  0  0  0
  189.5530  177.1660  147.0580 N   0  0  0  0  0  2  0  0  0  0  0  0
  190.8940  177.1690  144.5410 C   0  0  0  0  0  0  0  0  0  0  0  0
  190.8860  177.3010  142.1700 C   0  0  0  0  0  3  0  0  0  0  0  0
  191.6710  176.7930  148.1320 C   0  0  0  0  0  2  0  0  0  0  0  0
  192.2380  175.5710  147.4280 C   0  0  0  0  0  2  0  0  0  0  0  0
  187.5500  176.9070  145.9120 O   0  0  0  0  0  0  0  0  0  0  0  0
  190.9660  177.5430  147.0500 C   0  0  1  0  0  3  0  0  0  0  0  0
  191.6890  177.0310  145.8110 C   0  0  1  0  0  3  0  0  0  0  0  0
  184.3720  178.9210  141.1320 O   0  0  0  0  0  0  0  0  0  0  0  0
  183.9860  178.4350  142.3980 C   0  0  0  0  0  2  0  0  0  0  0  0
  184.4190  178.7960  145.6960 C   0  0  0  0  0  0  0  0  0  0  0  0
  185.1110  180.1470  143.8210 C   0  0  0  0  0  2  0  0  0  0  0  0
  182.8630  178.9870  144.8460 S   0  0  0  0  0  0  0  0  0  0  0  0
  185.6120  179.3640  145.0200 C   0  0  0  0  0  2  0  0  0  0  0  0
  183.7690  179.5750  143.3800 C   0  0  2  0  0  3  0  0  0  0  0  0
  184.5550  177.8810  146.6510 C   0  0  0  0  0  2  0  0  0  0  0  0
  184.1060  177.8250  136.4120 C   0  0  0  0  0  2  0  0  0  0  0  0
  184.4070  176.5770  135.6010 C   0  0  2  0  0  3  0  0  0  0  0  0
  185.7230  176.6290  134.9530 N   0  0  0  0  0  2  0  0  0  0  0  0
  186.5160  175.4020  135.1390 C   0  0  2  0  0  3  0  0  0  0  0  0
  185.3480  174.2200  137.0190 C   0  0  0  0  0  3  0  0  0  0  0  0
  184.1740  172.1290  136.6800 C   0  0  0  0  0  0  0  0  0  0  0  0
  185.3160  173.1840  134.8230 C   0  0  0  0  0  3  0  0  0  0  0  0
  184.5710  173.1710  137.5260 C   0  0  0  0  0  3  0  0  0  0  0  0
  185.7270  174.2300  135.6650 C   0  0  0  0  0  0  0  0  0  0  0  0
  184.5470  172.1320  135.3310 C   0  0  0  0  0  3  0  0  0  0  0  0
  183.3350  171.0230  137.2130 C   0  0  0  0  0  1  0  0  0  0  0  0
  187.8260  175.6510  135.8880 C   0  0  2  0  0  3  0  0  0  0  0  0
  187.9960  177.0070  136.0900 F   0  0  0  0  0  0  0  0  0  0  0  0
  188.9030  175.1530  135.1500 O   0  0  0  0  0  0  0  0  0  0  0  0
  190.0160  175.2970  135.9850 C   0  0  0  0  0  2  0  0  0  0  0  0
  191.0560  176.0450  135.2940 N   0  0  0  0  0  2  0  0  0  0  0  0
  192.3210  175.7210  135.9350 C   0  0  0  0  0  2  0  0  0  0  0  0
  193.6840  176.0010  137.8110 C   0  0  0  0  0  1  0  0  0  0  0  0
  192.4060  176.3690  137.2310 N   0  0  0  0  0  2  0  0  0  0  0  0
  183.2690  176.2900  134.6110 C   0  0  0  0  0  2  0  0  0  0  0  0
  182.3790  175.1120  134.9970 C   0  0  0  0  0  2  0  0  0  0  0  0
  181.7500  175.3230  136.3630 C   0  0  0  0  0  2  0  0  0  0  0  0
  180.2620  175.5910  136.1870 C   0  0  2  0  0  3  0  0  0  0  0  0
  180.4440  177.9560  136.0370 O   0  0  0  0  0  0  0  0  0  0  0  0
  179.1560  177.1830  137.7720 O   0  0  0  0  0  1  0  0  0  0  0  0
  179.9430  176.9750  136.6430 C   0  0  0  0  0  0  0  0  0  0  0  0
  180.3430  174.0460  137.9430 C   0  0  0  0  0  1  0  0  0  0  0  0
  179.4730  174.6260  136.9310 N   0  0  0  0  0  2  0  0  0  0  0  0
  2 12  1  6  0  0  0
  2  8  1  0  0  0  0
  2  3  1  0  0  0  0
  3 29  1  6  0  0  0
  4  5  1  0  0  0  0
  5  3  1  0  0  0  0
  5 10  2  0  0  0  0
  6 37  1  6  0  0  0
  6 13  1  0  0  0  0
  6  2  1  0  0  0  0
  9 11  1  0  0  0  0
  9  7  1  1  0  0  0
 11  1  1  6  0  0  0
 11 10  1  0  0  0  0
 11 17  1  0  0  0  0
 12  8  1  0  0  0  0
 13  4  1  0  0  0  0
 14  4  2  0  0  0  0
 14  9  1  0  0  0  0
 15 25  1  0  0  0  0
 16 22  1  0  0  0  0
 17 23  1  0  0  0  0
 17 18  2  0  0  0  0
 18 20  1  0  0  0  0
 19 26  2  0  0  0  0
 19 21  1  0  0  0  0
 20 19  1  0  0  0  0
 22 20  2  0  0  0  0
 23 16  2  0  0  0  0
 25 24  1  0  0  0  0
 27 21  1  0  0  0  0
 27 24  1  1  0  0  0
 28 22  1  6  0  0  0
 28 15  1  0  0  0  0
 28 27  1  0  0  0  0
 29 30  1  0  0  0  0
 31 36  2  0  0  0  0
 32 34  1  0  0  0  0
 33 31  1  0  0  0  0
 34 31  1  0  0  0  0
 35 30  1  6  0  0  0
 35 32  1  0  0  0  0
 35 33  1  0  0  0  0
 38 56  1  6  0  0  0
 38 37  1  0  0  0  0
 39 38  1  0  0  0  0
 40 39  1  1  0  0  0
 40 45  1  0  0  0  0
 40 48  1  0  0  0  0
 41 44  1  0  0  0  0
 42 47  1  0  0  0  0
 42 44  2  0  0  0  0
 43 46  2  0  0  0  0
 43 45  1  0  0  0  0
 45 41  2  0  0  0  0
 46 42  1  0  0  0  0
 48 49  1  6  0  0  0
 50 48  1  0  0  0  0
 50 51  1  0  0  0  0
 52 53  1  0  0  0  0
 52 51  1  0  0  0  0
 53 55  1  0  0  0  0
 55 54  1  0  0  0  0
 56 57  1  0  0  0  0
 57 58  1  0  0  0  0
 59 58  1  1  0  0  0
 59 62  1  0  0  0  0
 59 64  1  0  0  0  0
 60 62  2  0  0  0  0
 62 61  1  0  0  0  0
 64 63  1  0  0  0  0
M  END
>  <MODEL>
5

>  <REMARK>
 VINA RESULT:      -3.4      3.783      7.822
  Name = 
  21 active torsions:
  status: ('A' for Active; 'I' for Inactive)
    1  A    between atoms: N_4  and  C_13
    2  A    between atoms: N_4  and  C_62
    3  A    between atoms: C_7  and  C_44
    4  A    between atoms: O_9  and  C_10
    5  A    between atoms: O_9  and  C_63
    6  A    between atoms: C_12  and  C_13
    7  A    between atoms: C_12  and  O_20
    8  A    between atoms: C_13  and  C_46
    9  A    between atoms: CA_19  and  C_37
   10  A    between atoms: CA_19  and  N_52
   11  A    between atoms: CA_19  and  C_58
   12  A    between atoms: O_20  and  C_57
   13  A    between atoms: C_21  and  C_51
   14  A    between atoms: C_35  and  C_49
   15  A    between atoms: C_35  and  C_58
   16  A    between atoms: C_43  and  N_48
   17  A    between atoms: C_43  and  N_59
   18  A    between atoms: C_49  and  C_62
   19  A    between atoms: C_51  and  C_62
   20  A    between atoms: C_55  and  C_63
   21  A    between atoms: C_57  and  N_59
                            x       y       z     vdW  Elec       q    Type
                         _______ _______ _______ _____ _____    ______ ____

>  <TORSDO>
F 21

$$$$
=
 OpenBabel11062411043D

 64 71  0  0  1  0  0  0  0  0999 V2000
  186.6690  178.1840  136.1980 C   0  0  0  0  0  1  0  0  0  0  0  0
  190.8360  176.6070  138.9150 C   0  0  1  0  0  0  0  0  0  0  0  0
  189.4230  176.8640  139.4840 C   0  0  1  0  0  3  0  0  0  0  0  0
  188.5290  175.6570  137.3790 C   0  0  0  0  0  0  0  0  0  0  0  0
  188.3490  176.6860  138.4340 C   0  0  0  0  0  0  0  0  0  0  0  0
  190.9630  176.0810  137.4790 C   0  0  2  0  0  3  0  0  0  0  0  0
  185.4000  174.9480  137.8960 C   0  0  0  0  0  1  0  0  0  0  0  0
  191.6380  177.7500  139.0860 O   0  0  0  0  0  0  0  0  0  0  0  0
  186.1150  175.8400  136.8860 C   0  0  1  0  0  3  0  0  0  0  0  0
  187.2440  177.4380  138.4590 C   0  0  0  0  0  3  0  0  0  0  0  0
  186.1990  177.3170  137.3660 C   0  0  1  0  0  0  0  0  0  0  0  0
  191.9940  176.6190  139.8390 C   0  0  0  0  0  2  0  0  0  0  0  0
  189.8800  175.0490  137.1660 C   0  0  0  0  0  2  0  0  0  0  0  0
  187.4910  175.2720  136.6320 C   0  0  0  0  0  3  0  0  0  0  0  0
  180.9400  180.6780  138.9090 O   0  0  0  0  0  0  0  0  0  0  0  0
  182.5870  178.5190  137.3540 N   0  0  0  0  0  0  0  0  0  0  0  0
  184.8410  177.8330  137.8230 C   0  0  0  0  0  0  0  0  0  0  0  0
  184.6080  178.0930  139.1830 C   0  0  0  0  0  3  0  0  0  0  0  0
  183.0840  178.8110  141.0340 C   0  0  0  0  0  0  0  0  0  0  0  0
  183.3600  178.5520  139.6140 C   0  0  0  0  0  0  0  0  0  0  0  0
  181.7500  179.1230  141.4360 N   0  0  0  0  0  2  0  0  0  0  0  0
  182.3390  178.7430  138.6720 C   0  0  0  0  0  0  0  0  0  0  0  0
  183.7930  178.0710  136.9190 C   0  0  0  0  0  3  0  0  0  0  0  0
  179.6220  180.0450  140.8080 C   0  0  0  0  0  2  0  0  0  0  0  0
  179.9680  181.1430  139.8160 C   0  0  0  0  0  2  0  0  0  0  0  0
  184.0070  178.8090  141.8890 O   0  0  0  0  0  0  0  0  0  0  0  0
  180.6180  178.9700  140.5240 C   0  0  1  0  0  3  0  0  0  0  0  0
  180.9970  179.2860  139.0830 C   0  0  1  0  0  3  0  0  0  0  0  0
  189.1650  176.1650  140.6870 O   0  0  0  0  0  0  0  0  0  0  0  0
  189.9400  176.6940  141.7390 C   0  0  0  0  0  2  0  0  0  0  0  0
  187.7730  177.6640  144.0970 C   0  0  0  0  0  0  0  0  0  0  0  0
  190.0000  178.4110  143.5470 C   0  0  0  0  0  2  0  0  0  0  0  0
  187.5850  177.9750  142.3520 S   0  0  0  0  0  0  0  0  0  0  0  0
  189.1410  177.8200  144.6500 C   0  0  0  0  0  2  0  0  0  0  0  0
  189.3980  178.0390  142.1970 C   0  0  2  0  0  3  0  0  0  0  0  0
  186.8520  176.9670  144.7580 C   0  0  0  0  0  2  0  0  0  0  0  0
  192.3470  175.5990  137.0670 C   0  0  0  0  0  2  0  0  0  0  0  0
  192.5450  175.9810  135.6100 C   0  0  2  0  0  3  0  0  0  0  0  0
  192.5150  174.8200  134.7130 N   0  0  0  0  0  2  0  0  0  0  0  0
  191.9900  173.6010  135.3510 C   0  0  2  0  0  3  0  0  0  0  0  0
  193.5660  172.6100  137.0320 C   0  0  0  0  0  3  0  0  0  0  0  0
  194.9440  170.6870  136.5140 C   0  0  0  0  0  0  0  0  0  0  0  0
  193.4810  171.6120  134.8200 C   0  0  0  0  0  3  0  0  0  0  0  0
  194.5130  171.6560  137.4260 C   0  0  0  0  0  3  0  0  0  0  0  0
  193.0480  172.5950  135.7260 C   0  0  0  0  0  0  0  0  0  0  0  0
  194.4330  170.6640  135.2110 C   0  0  0  0  0  3  0  0  0  0  0  0
  195.9360  169.6630  136.9360 C   0  0  0  0  0  1  0  0  0  0  0  0
  190.8050  172.9990  134.5950 C   0  0  2  0  0  3  0  0  0  0  0  0
  189.7470  173.8880  134.6040 F   0  0  0  0  0  0  0  0  0  0  0  0
  190.4090  171.8020  135.1970 O   0  0  0  0  0  0  0  0  0  0  0  0
  189.0530  171.9730  135.4950 C   0  0  0  0  0  2  0  0  0  0  0  0
  188.4830  170.7100  135.9390 N   0  0  0  0  0  2  0  0  0  0  0  0
  187.1390  170.6250  135.3920 C   0  0  0  0  0  2  0  0  0  0  0  0
  185.6780  172.4490  135.3720 C   0  0  0  0  0  1  0  0  0  0  0  0
  186.8070  171.8500  134.6860 N   0  0  0  0  0  2  0  0  0  0  0  0
  193.8160  176.8270  135.4430 C   0  0  0  0  0  2  0  0  0  0  0  0
  195.0780  176.0180  135.1580 C   0  0  0  0  0  2  0  0  0  0  0  0
  195.4430  175.1320  136.3370 C   0  0  0  0  0  2  0  0  0  0  0  0
  196.9590  175.0380  136.4350 C   0  0  2  0  0  3  0  0  0  0  0  0
  198.4330  174.7450  134.5940 O   0  0  0  0  0  0  0  0  0  0  0  0
  196.9070  173.0590  134.9020 O   0  0  0  0  0  1  0  0  0  0  0  0
  197.4900  174.2660  135.2750 C   0  0  0  0  0  0  0  0  0  0  0  0
  198.8000  174.2390  137.6380 C   0  0  0  0  0  1  0  0  0  0  0  0
  197.3550  174.4040  137.6800 N   0  0  0  0  0  2  0  0  0  0  0  0
  2  8  1  0  0  0  0
  2  3  1  0  0  0  0
  2 12  1  1  0  0  0
  3 29  1  1  0  0  0
  4  5  1  0  0  0  0
  5 10  2  0  0  0  0
  5  3  1  0  0  0  0
  6 37  1  1  0  0  0
  6  2  1  0  0  0  0
  8 12  1  0  0  0  0
  9 11  1  0  0  0  0
  9  7  1  1  0  0  0
 11  1  1  6  0  0  0
 11 17  1  0  0  0  0
 11 10  1  0  0  0  0
 13  4  1  0  0  0  0
 13  6  1  0  0  0  0
 14  9  1  0  0  0  0
 14  4  2  0  0  0  0
 15 28  1  0  0  0  0
 15 25  1  0  0  0  0
 16 22  1  0  0  0  0
 17 18  2  0  0  0  0
 18 20  1  0  0  0  0
 19 21  1  0  0  0  0
 19 26  2  0  0  0  0
 20 19  1  0  0  0  0
 22 20  2  0  0  0  0
 23 16  2  0  0  0  0
 23 17  1  0  0  0  0
 25 24  1  0  0  0  0
 27 24  1  1  0  0  0
 27 21  1  0  0  0  0
 28 22  1  1  0  0  0
 28 27  1  0  0  0  0
 29 30  1  0  0  0  0
 31 34  1  0  0  0  0
 31 36  2  0  0  0  0
 32 34  1  0  0  0  0
 33 31  1  0  0  0  0
 35 30  1  1  0  0  0
 35 33  1  0  0  0  0
 35 32  1  0  0  0  0
 38 56  1  1  0  0  0
 38 37  1  0  0  0  0
 39 38  1  0  0  0  0
 40 39  1  6  0  0  0
 40 45  1  0  0  0  0
 41 44  1  0  0  0  0
 42 47  1  0  0  0  0
 42 44  2  0  0  0  0
 43 46  2  0  0  0  0
 43 45  1  0  0  0  0
 45 41  2  0  0  0  0
 46 42  1  0  0  0  0
 48 49  1  1  0  0  0
 48 50  1  0  0  0  0
 48 40  1  0  0  0  0
 50 51  1  0  0  0  0
 51 52  1  0  0  0  0
 53 52  1  0  0  0  0
 55 54  1  0  0  0  0
 55 53  1  0  0  0  0
 57 56  1  0  0  0  0
 57 58  1  0  0  0  0
 59 58  1  6  0  0  0
 59 64  1  0  0  0  0
 60 62  2  0  0  0  0
 61 62  1  0  0  0  0
 62 59  1  0  0  0  0
 63 64  1  0  0  0  0
M  END
>  <MODEL>
6

>  <REMARK>
 VINA RESULT:      -3.4      2.955     11.674
  Name = 
  21 active torsions:
  status: ('A' for Active; 'I' for Inactive)
    1  A    between atoms: N_4  and  C_13
    2  A    between atoms: N_4  and  C_62
    3  A    between atoms: C_7  and  C_44
    4  A    between atoms: O_9  and  C_10
    5  A    between atoms: O_9  and  C_63
    6  A    between atoms: C_12  and  C_13
    7  A    between atoms: C_12  and  O_20
    8  A    between atoms: C_13  and  C_46
    9  A    between atoms: CA_19  and  C_37
   10  A    between atoms: CA_19  and  N_52
   11  A    between atoms: CA_19  and  C_58
   12  A    between atoms: O_20  and  C_57
   13  A    between atoms: C_21  and  C_51
   14  A    between atoms: C_35  and  C_49
   15  A    between atoms: C_35  and  C_58
   16  A    between atoms: C_43  and  N_48
   17  A    between atoms: C_43  and  N_59
   18  A    between atoms: C_49  and  C_62
   19  A    between atoms: C_51  and  C_62
   20  A    between atoms: C_55  and  C_63
   21  A    between atoms: C_57  and  N_59
                            x       y       z     vdW  Elec       q    Type
                         _______ _______ _______ _____ _____    ______ ____

>  <TORSDO>
F 21

$$$$
