=
 OpenBabel11062413173D

 30 32  0  0  1  0  0  0  0  0999 V2000
  187.0990  177.1910  144.1660 C   0  0  0  0  0  0  0  0  0  0  0  0
  184.9610  178.0740  143.1780 C   0  0  2  0  0  3  0  0  0  0  0  0
  187.2420  177.1520  146.5540 O   0  0  0  0  0  1  0  0  0  0  0  0
  185.3650  178.2880  145.6300 C   0  0  0  0  0  2  0  0  0  0  0  0
  186.8350  177.9190  145.4630 C   0  0  2  0  0  3  0  0  0  0  0  0
  186.2830  177.3530  143.1100 C   0  0  0  0  0  3  0  0  0  0  0  0
  184.7660  178.8140  141.8660 C   0  0  0  0  0  1  0  0  0  0  0  0
  184.8590  179.0230  144.3890 C   0  0  2  0  0  3  0  0  0  0  0  0
  183.1330  180.6310  143.8900 O   0  0  0  0  0  1  0  0  0  0  0  0
  183.4120  179.4780  144.6290 C   0  0  1  0  0  3  0  0  0  0  0  0
  182.4750  178.4350  144.2420 N   0  0  0  0  0  2  0  0  0  0  0  0
  181.4410  179.0680  143.4400 C   0  0  0  0  0  2  0  0  0  0  0  0
  179.8530  177.5000  144.2680 O   0  0  0  0  0  1  0  0  0  0  0  0
  180.1020  178.6970  143.9690 C   0  0  0  0  0  0  0  0  0  0  0  0
  179.1340  179.6750  144.1600 O   0  0  0  0  0  0  0  0  0  0  0  0
  188.4300  176.5160  143.9630 C   0  0  0  0  0  2  0  0  0  0  0  0
  189.1690  178.5290  142.7690 O   0  0  0  0  0  0  0  0  0  0  0  0
  191.6080  176.0040  143.7050 C   0  0  0  0  0  3  0  0  0  0  0  0
  191.6120  176.1430  145.1720 C   0  0  0  0  0  3  0  0  0  0  0  0
  189.5980  177.4760  143.6220 C   0  0  1  0  0  0  0  0  0  0  0  0
  190.8880  177.0970  145.7690 C   0  0  0  0  0  0  0  0  0  0  0  0
  188.1380  179.0050  140.7750 O   0  0  0  0  0  1  0  0  0  0  0  0
  188.7930  178.0140  141.5050 C   0  0  1  0  0  3  0  0  0  0  0  0
  190.1380  178.1010  144.9230 C   0  0  0  0  0  2  0  0  0  0  0  0
  190.0230  177.5460  140.7370 C   0  0  0  0  0  2  0  0  0  0  0  0
  190.7190  176.6760  142.9670 C   0  0  0  0  0  0  0  0  0  0  0  0
  190.7680  176.5900  141.5430 N   0  0  0  0  0  2  0  0  0  0  0  0
  190.8940  177.2260  147.2340 C   0  0  0  0  0  0  0  0  0  0  0  0
  189.8710  177.6460  147.8380 O   0  0  0  0  0  0  0  0  0  0  0  0
  192.0220  176.8800  147.9670 O   0  0  0  0  0  1  0  0  0  0  0  0
  1  5  1  0  0  0  0
  2  7  1  6  0  0  0
  2  8  1  0  0  0  0
  5  4  1  0  0  0  0
  5  3  1  1  0  0  0
  6  2  1  0  0  0  0
  6  1  2  0  0  0  0
  8 10  1  1  0  0  0
  8  4  1  0  0  0  0
 10  9  1  6  0  0  0
 11 10  1  0  0  0  0
 12 14  1  0  0  0  0
 12 11  1  0  0  0  0
 14 15  2  0  0  0  0
 14 13  1  0  0  0  0
 16  1  1  0  0  0  0
 17 20  1  0  0  0  0
 18 19  1  0  0  0  0
 19 21  2  0  0  0  0
 20 16  1  1  0  0  0
 20 24  1  0  0  0  0
 21 28  1  0  0  0  0
 23 22  1  6  0  0  0
 23 17  1  0  0  0  0
 24 21  1  0  0  0  0
 25 23  1  0  0  0  0
 25 27  1  0  0  0  0
 26 20  1  0  0  0  0
 26 18  2  0  0  0  0
 27 26  1  0  0  0  0
 28 29  2  0  0  0  0
 28 30  1  0  0  0  0
M  END
>  <MODEL>
1

>  <REMARK>
 VINA RESULT:      -8.5      0.000      0.000
  Name = 
  7 active torsions:
  status: ('A' for Active; 'I' for Inactive)
    1  A    between atoms: N_1  and  C_11
    2  A    between atoms: N_1  and  C_19
    3  A    between atoms: C_2  and  C_15
    4  A    between atoms: C_6  and  C_9
    5  A    between atoms: C_9  and  C_13
    6  A    between atoms: C_11  and  C_14
    7  A    between atoms: C_19  and  C_30
                            x       y       z     vdW  Elec       q    Type
                         _______ _______ _______ _____ _____    ______ ____

>  <TORSDO>
F 7

$$$$
=
 OpenBabel11062413173D

 30 32  0  0  1  0  0  0  0  0999 V2000
  187.2410  177.4180  144.3410 C   0  0  0  0  0  0  0  0  0  0  0  0
  185.4640  178.5340  145.7270 C   0  0  2  0  0  3  0  0  0  0  0  0
  187.1080  177.7300  141.9720 O   0  0  0  0  0  1  0  0  0  0  0  0
  185.2500  178.5060  143.2420 C   0  0  0  0  0  2  0  0  0  0  0  0
  186.3570  177.4660  143.1170 C   0  0  2  0  0  3  0  0  0  0  0  0
  186.7790  177.8230  145.5360 C   0  0  0  0  0  3  0  0  0  0  0  0
  184.8710  178.0720  147.0460 C   0  0  0  0  0  1  0  0  0  0  0  0
  184.4880  178.3140  144.5540 C   0  0  2  0  0  3  0  0  0  0  0  0
  183.5030  180.3310  143.6750 O   0  0  0  0  0  1  0  0  0  0  0  0
  183.3140  179.3030  144.6020 C   0  0  1  0  0  3  0  0  0  0  0  0
  182.0610  178.6270  144.3040 N   0  0  0  0  0  2  0  0  0  0  0  0
  181.6600  179.0440  142.9700 C   0  0  0  0  0  2  0  0  0  0  0  0
  179.9650  180.7140  142.8970 O   0  0  0  0  0  0  0  0  0  0  0  0
  180.2420  179.4900  142.9930 C   0  0  0  0  0  0  0  0  0  0  0  0
  179.2200  178.5540  143.0930 O   0  0  0  0  0  1  0  0  0  0  0  0
  188.5360  176.6500  144.2800 C   0  0  0  0  0  2  0  0  0  0  0  0
  189.9440  178.4030  143.2950 O   0  0  0  0  0  0  0  0  0  0  0  0
  191.3870  176.0740  145.6810 C   0  0  0  0  0  3  0  0  0  0  0  0
  190.7050  176.4800  146.9230 C   0  0  0  0  0  3  0  0  0  0  0  0
  189.8110  177.5210  144.4020 C   0  0  1  0  0  0  0  0  0  0  0  0
  189.8810  177.5350  146.9350 C   0  0  0  0  0  0  0  0  0  0  0  0
  190.0380  178.5120  141.0050 O   0  0  0  0  0  1  0  0  0  0  0  0
  190.1670  177.6670  142.1060 C   0  0  1  0  0  3  0  0  0  0  0  0
  189.7250  178.3710  145.6860 C   0  0  0  0  0  2  0  0  0  0  0  0
  191.5630  177.0550  142.1170 C   0  0  0  0  0  2  0  0  0  0  0  0
  191.0260  176.6060  144.5090 C   0  0  0  0  0  0  0  0  0  0  0  0
  191.7380  176.2580  143.3230 N   0  0  0  0  0  2  0  0  0  0  0  0
  189.2010  177.9310  148.1770 C   0  0  0  0  0  0  0  0  0  0  0  0
  189.6720  178.8570  148.8900 O   0  0  0  0  0  1  0  0  0  0  0  0
  188.0310  177.2950  148.5740 O   0  0  0  0  0  0  0  0  0  0  0  0
  1  6  2  0  0  0  0
  2  7  1  1  0  0  0
  4  8  1  0  0  0  0
  5  3  1  6  0  0  0
  5  4  1  0  0  0  0
  5  1  1  0  0  0  0
  6  2  1  0  0  0  0
  8 10  1  1  0  0  0
  8  2  1  0  0  0  0
 10  9  1  6  0  0  0
 11 10  1  0  0  0  0
 12 14  1  0  0  0  0
 12 11  1  0  0  0  0
 13 14  2  0  0  0  0
 14 15  1  0  0  0  0
 16  1  1  0  0  0  0
 17 20  1  0  0  0  0
 18 19  1  0  0  0  0
 19 21  2  0  0  0  0
 20 16  1  6  0  0  0
 20 26  1  0  0  0  0
 20 24  1  0  0  0  0
 21 28  1  0  0  0  0
 23 22  1  6  0  0  0
 23 25  1  0  0  0  0
 23 17  1  0  0  0  0
 24 21  1  0  0  0  0
 25 27  1  0  0  0  0
 26 18  2  0  0  0  0
 27 26  1  0  0  0  0
 28 30  2  0  0  0  0
 28 29  1  0  0  0  0
M  END
>  <MODEL>
2

>  <REMARK>
 VINA RESULT:      -8.3      1.274      2.202
  Name = 
  7 active torsions:
  status: ('A' for Active; 'I' for Inactive)
    1  A    between atoms: N_1  and  C_11
    2  A    between atoms: N_1  and  C_19
    3  A    between atoms: C_2  and  C_15
    4  A    between atoms: C_6  and  C_9
    5  A    between atoms: C_9  and  C_13
    6  A    between atoms: C_11  and  C_14
    7  A    between atoms: C_19  and  C_30
                            x       y       z     vdW  Elec       q    Type
                         _______ _______ _______ _____ _____    ______ ____

>  <TORSDO>
F 7

$$$$
=
 OpenBabel11062413173D

 30 32  0  0  1  0  0  0  0  0999 V2000
  189.8630  178.2680  143.2930 C   0  0  0  0  0  0  0  0  0  0  0  0
  189.4990  178.0420  140.8150 C   0  0  2  0  0  3  0  0  0  0  0  0
  192.1110  178.0190  144.0760 O   0  0  0  0  0  1  0  0  0  0  0  0
  191.7260  177.4800  141.7890 C   0  0  0  0  0  2  0  0  0  0  0  0
  191.1580  177.4940  143.2030 C   0  0  2  0  0  3  0  0  0  0  0  0
  189.0810  178.4230  142.2120 C   0  0  0  0  0  3  0  0  0  0  0  0
  188.2760  177.5150  140.0880 C   0  0  0  0  0  1  0  0  0  0  0  0
  190.6580  177.0250  140.7930 C   0  0  2  0  0  3  0  0  0  0  0  0
  192.6730  177.0840  139.4700 O   0  0  0  0  0  1  0  0  0  0  0  0
  191.2870  176.9150  139.3970 C   0  0  1  0  0  3  0  0  0  0  0  0
  191.0040  175.6160  138.8070 N   0  0  0  0  0  2  0  0  0  0  0  0
  190.4070  175.8610  137.5050 C   0  0  0  0  0  2  0  0  0  0  0  0
  188.2960  175.0710  136.7400 O   0  0  0  0  0  0  0  0  0  0  0  0
  189.4350  174.7810  137.1910 C   0  0  0  0  0  0  0  0  0  0  0  0
  189.7930  173.4500  137.3680 O   0  0  0  0  0  1  0  0  0  0  0  0
  189.3110  178.6150  144.6510 C   0  0  0  0  0  2  0  0  0  0  0  0
  187.5510  176.9160  144.4490 O   0  0  0  0  0  0  0  0  0  0  0  0
  188.4950  178.1370  147.7380 C   0  0  0  0  0  3  0  0  0  0  0  0
  189.8530  177.5800  147.8700 C   0  0  0  0  0  3  0  0  0  0  0  0
  188.5110  177.4770  145.3340 C   0  0  1  0  0  0  0  0  0  0  0  0
  190.3550  176.7760  146.9250 C   0  0  0  0  0  0  0  0  0  0  0  0
  185.7740  177.4010  143.0810 O   0  0  0  0  0  1  0  0  0  0  0  0
  186.5540  177.8710  144.1370 C   0  0  1  0  0  3  0  0  0  0  0  0
  189.4830  176.3600  145.7630 C   0  0  0  0  0  2  0  0  0  0  0  0
  185.6670  178.1250  145.3500 C   0  0  0  0  0  2  0  0  0  0  0  0
  187.8320  178.0320  146.5820 C   0  0  0  0  0  0  0  0  0  0  0  0
  186.4910  178.5120  146.4860 N   0  0  0  0  0  2  0  0  0  0  0  0
  191.7120  176.2290  147.0610 C   0  0  0  0  0  0  0  0  0  0  0  0
  192.1940  175.4950  146.1570 O   0  0  0  0  0  0  0  0  0  0  0  0
  192.4800  176.5180  148.1830 O   0  0  0  0  0  1  0  0  0  0  0  0
  1 16  1  0  0  0  0
  2  7  1  1  0  0  0
  2  6  1  0  0  0  0
  4  5  1  0  0  0  0
  5  1  1  0  0  0  0
  5  3  1  1  0  0  0
  6  1  2  0  0  0  0
  8 10  1  6  0  0  0
  8  2  1  0  0  0  0
  8  4  1  0  0  0  0
 10  9  1  1  0  0  0
 11 10  1  0  0  0  0
 12 11  1  0  0  0  0
 13 14  2  0  0  0  0
 14 15  1  0  0  0  0
 14 12  1  0  0  0  0
 17 20  1  0  0  0  0
 18 19  1  0  0  0  0
 20 16  1  6  0  0  0
 20 24  1  0  0  0  0
 20 26  1  0  0  0  0
 21 28  1  0  0  0  0
 21 19  2  0  0  0  0
 23 22  1  6  0  0  0
 23 17  1  0  0  0  0
 23 25  1  0  0  0  0
 24 21  1  0  0  0  0
 25 27  1  0  0  0  0
 26 18  2  0  0  0  0
 27 26  1  0  0  0  0
 28 30  1  0  0  0  0
 29 28  2  0  0  0  0
M  END
>  <MODEL>
3

>  <REMARK>
 VINA RESULT:      -8.0      2.981      6.775
  Name = 
  7 active torsions:
  status: ('A' for Active; 'I' for Inactive)
    1  A    between atoms: N_1  and  C_11
    2  A    between atoms: N_1  and  C_19
    3  A    between atoms: C_2  and  C_15
    4  A    between atoms: C_6  and  C_9
    5  A    between atoms: C_9  and  C_13
    6  A    between atoms: C_11  and  C_14
    7  A    between atoms: C_19  and  C_30
                            x       y       z     vdW  Elec       q    Type
                         _______ _______ _______ _____ _____    ______ ____

>  <TORSDO>
F 7

$$$$
=
 OpenBabel11062413173D

 30 32  0  0  1  0  0  0  0  0999 V2000
  186.3660  178.9990  141.1830 C   0  0  0  0  0  0  0  0  0  0  0  0
  185.7900  178.5510  138.7760 C   0  0  2  0  0  3  0  0  0  0  0  0
  188.6920  179.0020  141.7470 O   0  0  0  0  0  1  0  0  0  0  0  0
  188.1410  178.2560  139.5540 C   0  0  0  0  0  2  0  0  0  0  0  0
  187.7120  178.3330  141.0150 C   0  0  2  0  0  3  0  0  0  0  0  0
  185.4730  179.0030  140.1790 C   0  0  0  0  0  3  0  0  0  0  0  0
  184.5560  177.8680  138.2160 C   0  0  0  0  0  1  0  0  0  0  0  0
  187.0300  177.6370  138.7070 C   0  0  2  0  0  3  0  0  0  0  0  0
  187.3310  178.6500  136.5400 O   0  0  0  0  0  1  0  0  0  0  0  0
  187.5300  177.4720  137.2650 C   0  0  1  0  0  3  0  0  0  0  0  0
  188.9470  177.1450  137.2460 N   0  0  0  0  0  2  0  0  0  0  0  0
  189.0560  175.7470  136.8640 C   0  0  0  0  0  2  0  0  0  0  0  0
  190.5530  175.6750  138.7140 O   0  0  0  0  0  1  0  0  0  0  0  0
  190.0710  175.0750  137.7180 C   0  0  0  0  0  0  0  0  0  0  0  0
  190.4690  173.7740  137.4330 O   0  0  0  0  0  0  0  0  0  0  0  0
  185.9170  179.4030  142.5620 C   0  0  0  0  0  2  0  0  0  0  0  0
  184.0660  177.7940  142.6690 O   0  0  0  0  0  0  0  0  0  0  0  0
  185.6810  178.8750  145.7390 C   0  0  0  0  0  3  0  0  0  0  0  0
  187.0090  178.2520  145.5970 C   0  0  0  0  0  3  0  0  0  0  0  0
  185.2050  178.2850  143.3640 C   0  0  1  0  0  0  0  0  0  0  0  0
  187.2800  177.4530  144.5580 C   0  0  0  0  0  0  0  0  0  0  0  0
  182.0880  178.4000  141.6770 O   0  0  0  0  0  1  0  0  0  0  0  0
  183.0780  178.8030  142.5730 C   0  0  1  0  0  3  0  0  0  0  0  0
  186.1820  177.1110  143.5760 C   0  0  0  0  0  2  0  0  0  0  0  0
  182.4530  179.0630  143.9380 C   0  0  0  0  0  2  0  0  0  0  0  0
  184.8050  178.8340  144.7300 C   0  0  0  0  0  0  0  0  0  0  0  0
  183.4970  179.3780  144.9020 N   0  0  0  0  0  2  0  0  0  0  0  0
  188.6090  176.8400  144.4210 C   0  0  0  0  0  0  0  0  0  0  0  0
  189.5020  177.0640  145.2800 O   0  0  0  0  0  1  0  0  0  0  0  0
  188.8910  176.0020  143.3490 O   0  0  0  0  0  0  0  0  0  0  0  0
  1 16  1  0  0  0  0
  2  7  1  1  0  0  0
  2  6  1  0  0  0  0
  4  5  1  0  0  0  0
  5  1  1  0  0  0  0
  5  3  1  1  0  0  0
  6  1  2  0  0  0  0
  8 10  1  6  0  0  0
  8  2  1  0  0  0  0
  8  4  1  0  0  0  0
 10  9  1  6  0  0  0
 11 10  1  0  0  0  0
 12 11  1  0  0  0  0
 12 14  1  0  0  0  0
 14 13  1  0  0  0  0
 15 14  2  0  0  0  0
 17 20  1  0  0  0  0
 19 18  1  0  0  0  0
 20 16  1  6  0  0  0
 20 24  1  0  0  0  0
 20 26  1  0  0  0  0
 21 19  2  0  0  0  0
 23 22  1  6  0  0  0
 23 17  1  0  0  0  0
 23 25  1  0  0  0  0
 24 21  1  0  0  0  0
 25 27  1  0  0  0  0
 26 27  1  0  0  0  0
 26 18  2  0  0  0  0
 28 21  1  0  0  0  0
 28 29  1  0  0  0  0
 30 28  2  0  0  0  0
M  END
>  <MODEL>
4

>  <REMARK>
 VINA RESULT:      -7.8      2.910      7.153
  Name = 
  7 active torsions:
  status: ('A' for Active; 'I' for Inactive)
    1  A    between atoms: N_1  and  C_11
    2  A    between atoms: N_1  and  C_19
    3  A    between atoms: C_2  and  C_15
    4  A    between atoms: C_6  and  C_9
    5  A    between atoms: C_9  and  C_13
    6  A    between atoms: C_11  and  C_14
    7  A    between atoms: C_19  and  C_30
                            x       y       z     vdW  Elec       q    Type
                         _______ _______ _______ _____ _____    ______ ____

>  <TORSDO>
F 7

$$$$
=
 OpenBabel11062413173D

 30 32  0  0  1  0  0  0  0  0999 V2000
  189.8700  177.5130  139.9440 C   0  0  0  0  0  0  0  0  0  0  0  0
  188.6780  177.1040  142.1200 C   0  0  2  0  0  3  0  0  0  0  0  0
  192.2320  177.1310  139.9250 O   0  0  0  0  0  1  0  0  0  0  0  0
  191.1710  177.0620  142.0550 C   0  0  0  0  0  2  0  0  0  0  0  0
  191.1870  177.6840  140.6640 C   0  0  2  0  0  3  0  0  0  0  0  0
  188.7290  177.3440  140.6330 C   0  0  0  0  0  3  0  0  0  0  0  0
  187.4460  177.8040  142.6640 C   0  0  0  0  0  1  0  0  0  0  0  0
  189.9600  177.5600  142.8450 C   0  0  2  0  0  3  0  0  0  0  0  0
  191.2540  176.3680  144.4930 O   0  0  0  0  0  1  0  0  0  0  0  0
  190.0290  177.0040  144.2740 C   0  0  1  0  0  3  0  0  0  0  0  0
  189.8760  178.0730  145.2490 N   0  0  0  0  0  2  0  0  0  0  0  0
  188.8310  177.6610  146.1710 C   0  0  0  0  0  2  0  0  0  0  0  0
  190.5660  177.1170  147.7090 O   0  0  0  0  0  0  0  0  0  0  0  0
  189.3940  177.5470  147.5430 C   0  0  0  0  0  0  0  0  0  0  0  0
  188.6370  177.9390  148.6400 O   0  0  0  0  0  1  0  0  0  0  0  0
  189.7950  177.8210  138.4710 C   0  0  0  0  0  2  0  0  0  0  0  0
  189.7730  175.4470  137.8480 O   0  0  0  0  0  0  0  0  0  0  0  0
  188.3870  177.9120  135.5670 C   0  0  0  0  0  3  0  0  0  0  0  0
  187.1920  178.3480  136.3110 C   0  0  0  0  0  3  0  0  0  0  0  0
  189.1550  176.7050  137.6080 C   0  0  1  0  0  0  0  0  0  0  0  0
  186.8580  177.7630  137.4680 C   0  0  0  0  0  0  0  0  0  0  0  0
  191.7790  174.3350  137.8740 O   0  0  0  0  0  1  0  0  0  0  0  0
  191.1170  175.4680  137.4050 C   0  0  1  0  0  3  0  0  0  0  0  0
  187.6600  176.5820  137.9640 C   0  0  0  0  0  2  0  0  0  0  0  0
  191.1720  175.4950  135.8820 C   0  0  0  0  0  2  0  0  0  0  0  0
  189.2730  177.0890  136.1370 C   0  0  0  0  0  0  0  0  0  0  0  0
  190.3900  176.6170  135.3850 N   0  0  0  0  0  2  0  0  0  0  0  0
  185.6660  178.2070  138.2060 C   0  0  0  0  0  0  0  0  0  0  0  0
  184.5150  177.9190  137.7830 O   0  0  0  0  0  0  0  0  0  0  0  0
  185.7960  178.9420  139.3780 O   0  0  0  0  0  1  0  0  0  0  0  0
  1  6  2  0  0  0  0
  1  5  1  0  0  0  0
  2  7  1  1  0  0  0
  2  8  1  0  0  0  0
  4  8  1  0  0  0  0
  5  3  1  6  0  0  0
  5  4  1  0  0  0  0
  6  2  1  0  0  0  0
  8 10  1  1  0  0  0
 10  9  1  1  0  0  0
 10 11  1  0  0  0  0
 11 12  1  0  0  0  0
 12 14  1  0  0  0  0
 14 13  2  0  0  0  0
 14 15  1  0  0  0  0
 16  1  1  0  0  0  0
 18 26  2  0  0  0  0
 18 19  1  0  0  0  0
 19 21  2  0  0  0  0
 20 17  1  0  0  0  0
 20 24  1  0  0  0  0
 20 16  1  1  0  0  0
 21 24  1  0  0  0  0
 21 28  1  0  0  0  0
 23 17  1  0  0  0  0
 23 22  1  6  0  0  0
 25 23  1  0  0  0  0
 26 20  1  0  0  0  0
 27 25  1  0  0  0  0
 27 26  1  0  0  0  0
 28 30  1  0  0  0  0
 29 28  2  0  0  0  0
M  END
>  <MODEL>
5

>  <REMARK>
 VINA RESULT:      -7.8      3.868      7.793
  Name = 
  7 active torsions:
  status: ('A' for Active; 'I' for Inactive)
    1  A    between atoms: N_1  and  C_11
    2  A    between atoms: N_1  and  C_19
    3  A    between atoms: C_2  and  C_15
    4  A    between atoms: C_6  and  C_9
    5  A    between atoms: C_9  and  C_13
    6  A    between atoms: C_11  and  C_14
    7  A    between atoms: C_19  and  C_30
                            x       y       z     vdW  Elec       q    Type
                         _______ _______ _______ _____ _____    ______ ____

>  <TORSDO>
F 7

$$$$
=
 OpenBabel11062413173D

 30 32  0  0  1  0  0  0  0  0999 V2000
  187.1460  177.5040  143.7160 C   0  0  0  0  0  0  0  0  0  0  0  0
  184.9720  178.7290  143.3980 C   0  0  2  0  0  3  0  0  0  0  0  0
  188.6260  177.4390  141.8370 O   0  0  0  0  0  1  0  0  0  0  0  0
  186.4470  178.3070  141.4310 C   0  0  0  0  0  2  0  0  0  0  0  0
  187.2920  177.3170  142.2240 C   0  0  2  0  0  3  0  0  0  0  0  0
  186.0380  178.0650  144.2310 C   0  0  0  0  0  3  0  0  0  0  0  0
  183.6290  178.4460  144.0470 C   0  0  0  0  0  1  0  0  0  0  0  0
  185.0000  178.2810  141.9230 C   0  0  2  0  0  3  0  0  0  0  0  0
  184.9300  179.7520  140.0140 O   0  0  0  0  0  1  0  0  0  0  0  0
  184.1510  179.2040  141.0370 C   0  0  1  0  0  3  0  0  0  0  0  0
  183.0450  178.4700  140.4410 N   0  0  0  0  0  2  0  0  0  0  0  0
  181.9320  179.3980  140.3250 C   0  0  0  0  0  2  0  0  0  0  0  0
  180.5680  180.1220  142.1370 O   0  0  0  0  0  1  0  0  0  0  0  0
  180.9670  179.1590  141.4310 C   0  0  0  0  0  0  0  0  0  0  0  0
  180.4840  177.8780  141.6680 O   0  0  0  0  0  0  0  0  0  0  0  0
  188.1070  176.8030  144.6400 C   0  0  0  0  0  2  0  0  0  0  0  0
  190.0080  178.3560  144.5940 O   0  0  0  0  0  0  0  0  0  0  0  0
  189.1060  176.7180  147.7090 C   0  0  0  0  0  3  0  0  0  0  0  0
  187.8140  177.3610  148.0050 C   0  0  0  0  0  3  0  0  0  0  0  0
  189.0410  177.7460  145.4390 C   0  0  1  0  0  0  0  0  0  0  0  0
  187.3470  178.3440  147.2260 C   0  0  0  0  0  0  0  0  0  0  0  0
  191.6660  177.9410  143.0640 O   0  0  0  0  0  1  0  0  0  0  0  0
  190.8950  177.3800  144.0800 C   0  0  1  0  0  3  0  0  0  0  0  0
  188.1990  178.8620  146.0910 C   0  0  0  0  0  2  0  0  0  0  0  0
  191.8090  176.8630  145.1850 C   0  0  0  0  0  2  0  0  0  0  0  0
  189.7220  176.9460  146.5440 C   0  0  0  0  0  0  0  0  0  0  0  0
  191.0060  176.3750  146.2960 N   0  0  0  0  0  2  0  0  0  0  0  0
  186.0540  178.9770  147.5260 C   0  0  0  0  0  0  0  0  0  0  0  0
  186.0130  180.1640  147.9460 O   0  0  0  0  0  1  0  0  0  0  0  0
  184.8680  178.2780  147.3430 O   0  0  0  0  0  0  0  0  0  0  0  0
  1  6  2  0  0  0  0
  1 16  1  0  0  0  0
  2  7  1  1  0  0  0
  2  6  1  0  0  0  0
  4  8  1  0  0  0  0
  4  5  1  0  0  0  0
  5  3  1  6  0  0  0
  5  1  1  0  0  0  0
  8 10  1  6  0  0  0
  8  2  1  0  0  0  0
 10  9  1  6  0  0  0
 11 10  1  0  0  0  0
 12 11  1  0  0  0  0
 12 14  1  0  0  0  0
 14 15  2  0  0  0  0
 14 13  1  0  0  0  0
 17 20  1  0  0  0  0
 18 19  1  0  0  0  0
 20 16  1  6  0  0  0
 20 24  1  0  0  0  0
 20 26  1  0  0  0  0
 21 28  1  0  0  0  0
 21 19  2  0  0  0  0
 23 22  1  6  0  0  0
 23 17  1  0  0  0  0
 23 25  1  0  0  0  0
 24 21  1  0  0  0  0
 25 27  1  0  0  0  0
 26 18  2  0  0  0  0
 27 26  1  0  0  0  0
 28 29  1  0  0  0  0
 30 28  2  0  0  0  0
M  END
>  <MODEL>
6

>  <REMARK>
 VINA RESULT:      -7.7      2.235      3.769
  Name = 
  7 active torsions:
  status: ('A' for Active; 'I' for Inactive)
    1  A    between atoms: N_1  and  C_11
    2  A    between atoms: N_1  and  C_19
    3  A    between atoms: C_2  and  C_15
    4  A    between atoms: C_6  and  C_9
    5  A    between atoms: C_9  and  C_13
    6  A    between atoms: C_11  and  C_14
    7  A    between atoms: C_19  and  C_30
                            x       y       z     vdW  Elec       q    Type
                         _______ _______ _______ _____ _____    ______ ____

>  <TORSDO>
F 7

$$$$
=
 OpenBabel11062413173D

 30 32  0  0  1  0  0  0  0  0999 V2000
  187.7210  178.2670  142.0900 C   0  0  0  0  0  0  0  0  0  0  0  0
  189.6820  176.7170  141.8130 C   0  0  2  0  0  3  0  0  0  0  0  0
  186.4720  178.7820  140.1140 O   0  0  0  0  0  1  0  0  0  0  0  0
  188.5080  177.5910  139.7930 C   0  0  0  0  0  2  0  0  0  0  0  0
  187.7610  178.6280  140.6230 C   0  0  2  0  0  3  0  0  0  0  0  0
  188.6610  177.4710  142.6260 C   0  0  0  0  0  3  0  0  0  0  0  0
  190.9800  176.6920  142.6000 C   0  0  0  0  0  1  0  0  0  0  0  0
  189.8810  177.3110  140.4040 C   0  0  2  0  0  3  0  0  0  0  0  0
  189.9000  176.0490  138.3490 O   0  0  0  0  0  1  0  0  0  0  0  0
  190.6520  176.3480  139.4890 C   0  0  1  0  0  3  0  0  0  0  0  0
  191.9170  176.9340  139.0750 N   0  0  0  0  0  2  0  0  0  0  0  0
  192.1250  176.5610  137.6860 C   0  0  0  0  0  2  0  0  0  0  0  0
  194.0460  176.1670  136.3370 O   0  0  0  0  0  0  0  0  0  0  0  0
  193.5370  176.1420  137.4880 C   0  0  0  0  0  0  0  0  0  0  0  0
  194.3060  175.7480  138.5770 O   0  0  0  0  0  1  0  0  0  0  0  0
  186.7990  179.0290  143.0050 C   0  0  0  0  0  2  0  0  0  0  0  0
  184.9270  177.4530  142.8030 O   0  0  0  0  0  0  0  0  0  0  0  0
  185.3050  179.4080  145.8420 C   0  0  0  0  0  3  0  0  0  0  0  0
  186.5280  178.8160  146.4120 C   0  0  0  0  0  3  0  0  0  0  0  0
  185.7420  178.1580  143.7310 C   0  0  1  0  0  0  0  0  0  0  0  0
  187.1150  177.7660  145.8240 C   0  0  0  0  0  0  0  0  0  0  0  0
  183.5470  177.6900  140.9860 O   0  0  0  0  0  1  0  0  0  0  0  0
  184.1400  178.3610  142.0540 C   0  0  1  0  0  3  0  0  0  0  0  0
  186.4610  177.1250  144.6220 C   0  0  0  0  0  2  0  0  0  0  0  0
  183.0570  178.9740  142.9340 C   0  0  0  0  0  2  0  0  0  0  0  0
  184.8900  179.0560  144.6220 C   0  0  0  0  0  0  0  0  0  0  0  0
  183.6670  179.5820  144.1080 N   0  0  0  0  0  2  0  0  0  0  0  0
  188.3380  177.1830  146.3960 C   0  0  0  0  0  0  0  0  0  0  0  0
  189.3780  177.0770  145.6930 O   0  0  0  0  0  0  0  0  0  0  0  0
  188.3620  176.7510  147.7170 O   0  0  0  0  0  1  0  0  0  0  0  0
  1  6  2  0  0  0  0
  1 16  1  0  0  0  0
  2  7  1  1  0  0  0
  2  6  1  0  0  0  0
  4  8  1  0  0  0  0
  4  5  1  0  0  0  0
  5  3  1  6  0  0  0
  5  1  1  0  0  0  0
  8 10  1  6  0  0  0
  8  2  1  0  0  0  0
 10  9  1  6  0  0  0
 11 10  1  0  0  0  0
 12 11  1  0  0  0  0
 13 14  2  0  0  0  0
 14 12  1  0  0  0  0
 14 15  1  0  0  0  0
 17 20  1  0  0  0  0
 18 19  1  0  0  0  0
 20 16  1  6  0  0  0
 20 24  1  0  0  0  0
 20 26  1  0  0  0  0
 21 28  1  0  0  0  0
 21 19  2  0  0  0  0
 23 22  1  6  0  0  0
 23 17  1  0  0  0  0
 23 25  1  0  0  0  0
 24 21  1  0  0  0  0
 25 27  1  0  0  0  0
 26 18  2  0  0  0  0
 27 26  1  0  0  0  0
 28 30  1  0  0  0  0
 29 28  2  0  0  0  0
M  END
>  <MODEL>
7

>  <REMARK>
 VINA RESULT:      -7.6      2.912      7.890
  Name = 
  7 active torsions:
  status: ('A' for Active; 'I' for Inactive)
    1  A    between atoms: N_1  and  C_11
    2  A    between atoms: N_1  and  C_19
    3  A    between atoms: C_2  and  C_15
    4  A    between atoms: C_6  and  C_9
    5  A    between atoms: C_9  and  C_13
    6  A    between atoms: C_11  and  C_14
    7  A    between atoms: C_19  and  C_30
                            x       y       z     vdW  Elec       q    Type
                         _______ _______ _______ _____ _____    ______ ____

>  <TORSDO>
F 7

$$$$
=
 OpenBabel11062413173D

 30 32  0  0  1  0  0  0  0  0999 V2000
  189.5240  177.9470  144.2590 C   0  0  0  0  0  0  0  0  0  0  0  0
  189.3220  176.9430  146.5570 C   0  0  2  0  0  3  0  0  0  0  0  0
  191.5970  177.6000  143.1140 O   0  0  0  0  0  1  0  0  0  0  0  0
  191.5320  176.9370  145.4000 C   0  0  0  0  0  2  0  0  0  0  0  0
  191.0320  177.9200  144.3480 C   0  0  2  0  0  3  0  0  0  0  0  0
  188.7690  177.5860  145.3110 C   0  0  0  0  0  3  0  0  0  0  0  0
  188.5240  177.4580  147.7410 C   0  0  0  0  0  1  0  0  0  0  0  0
  190.8340  177.1890  146.7370 C   0  0  2  0  0  3  0  0  0  0  0  0
  191.0930  174.9310  147.5390 O   0  0  0  0  0  1  0  0  0  0  0  0
  191.4350  176.2600  147.8010 C   0  0  1  0  0  3  0  0  0  0  0  0
  192.8840  176.3750  147.8240 N   0  0  0  0  0  2  0  0  0  0  0  0
  193.3290  175.8940  149.1220 C   0  0  0  0  0  2  0  0  0  0  0  0
  194.7110  176.9430  150.7510 O   0  0  0  0  0  1  0  0  0  0  0  0
  193.7300  177.0470  149.9700 C   0  0  0  0  0  0  0  0  0  0  0  0
  193.0390  178.2500  149.8820 O   0  0  0  0  0  0  0  0  0  0  0  0
  188.8720  178.6490  143.0980 C   0  0  0  0  0  2  0  0  0  0  0  0
  188.6230  176.6450  141.7030 O   0  0  0  0  0  0  0  0  0  0  0  0
  186.2410  179.3680  141.3690 C   0  0  0  0  0  3  0  0  0  0  0  0
  185.5370  179.2900  142.6610 C   0  0  0  0  0  3  0  0  0  0  0  0
  187.9290  177.7590  142.2490 C   0  0  1  0  0  0  0  0  0  0  0  0
  185.8160  178.3130  143.5320 C   0  0  0  0  0  0  0  0  0  0  0  0
  190.4280  176.0190  140.4330 O   0  0  0  0  0  1  0  0  0  0  0  0
  189.5890  177.0810  140.7640 C   0  0  1  0  0  3  0  0  0  0  0  0
  186.7920  177.2270  143.1430 C   0  0  0  0  0  2  0  0  0  0  0  0
  188.9070  177.6020  139.5050 C   0  0  0  0  0  2  0  0  0  0  0  0
  187.3160  178.6070  141.1400 C   0  0  0  0  0  0  0  0  0  0  0  0
  187.9490  178.6380  139.8610 N   0  0  0  0  0  2  0  0  0  0  0  0
  185.1120  178.2450  144.8210 C   0  0  0  0  0  0  0  0  0  0  0  0
  185.7010  177.8000  145.8420 O   0  0  0  0  0  1  0  0  0  0  0  0
  183.7950  178.6750  144.9280 O   0  0  0  0  0  0  0  0  0  0  0  0
  1  5  1  0  0  0  0
  1  6  2  0  0  0  0
  2  8  1  0  0  0  0
  2  7  1  1  0  0  0
  4  8  1  0  0  0  0
  5  3  1  6  0  0  0
  5  4  1  0  0  0  0
  6  2  1  0  0  0  0
  8 10  1  1  0  0  0
 10  9  1  6  0  0  0
 10 11  1  0  0  0  0
 11 12  1  0  0  0  0
 12 14  1  0  0  0  0
 14 13  1  0  0  0  0
 15 14  2  0  0  0  0
 16  1  1  0  0  0  0
 17 20  1  0  0  0  0
 18 19  1  0  0  0  0
 19 21  2  0  0  0  0
 20 16  1  1  0  0  0
 20 24  1  0  0  0  0
 21 28  1  0  0  0  0
 23 22  1  6  0  0  0
 23 17  1  0  0  0  0
 24 21  1  0  0  0  0
 25 27  1  0  0  0  0
 25 23  1  0  0  0  0
 26 18  2  0  0  0  0
 26 20  1  0  0  0  0
 27 26  1  0  0  0  0
 28 30  2  0  0  0  0
 28 29  1  0  0  0  0
M  END
>  <MODEL>
8

>  <REMARK>
 VINA RESULT:      -7.6      2.642      7.765
  Name = 
  7 active torsions:
  status: ('A' for Active; 'I' for Inactive)
    1  A    between atoms: N_1  and  C_11
    2  A    between atoms: N_1  and  C_19
    3  A    between atoms: C_2  and  C_15
    4  A    between atoms: C_6  and  C_9
    5  A    between atoms: C_9  and  C_13
    6  A    between atoms: C_11  and  C_14
    7  A    between atoms: C_19  and  C_30
                            x       y       z     vdW  Elec       q    Type
                         _______ _______ _______ _____ _____    ______ ____

>  <TORSDO>
F 7

$$$$
=
 OpenBabel11062413173D

 30 32  0  0  1  0  0  0  0  0999 V2000
  188.3980  177.0990  142.8230 C   0  0  0  0  0  0  0  0  0  0  0  0
  187.6340  178.4070  140.8150 C   0  0  2  0  0  3  0  0  0  0  0  0
  190.5450  176.0520  142.6690 O   0  0  0  0  0  1  0  0  0  0  0  0
  189.6900  177.0020  140.6600 C   0  0  0  0  0  2  0  0  0  0  0  0
  189.3620  176.3030  141.9740 C   0  0  2  0  0  3  0  0  0  0  0  0
  187.5570  177.9830  142.2590 C   0  0  0  0  0  3  0  0  0  0  0  0
  186.2170  178.6200  140.3150 C   0  0  0  0  0  1  0  0  0  0  0  0
  188.4040  177.4000  139.9360 C   0  0  2  0  0  3  0  0  0  0  0  0
  189.1070  179.3500  138.7040 O   0  0  0  0  0  1  0  0  0  0  0  0
  188.7620  178.0020  138.5700 C   0  0  1  0  0  3  0  0  0  0  0  0
  189.8810  177.2910  137.9720 N   0  0  0  0  0  2  0  0  0  0  0  0
  189.3200  176.2630  137.1100 C   0  0  0  0  0  2  0  0  0  0  0  0
  189.6230  173.9260  136.7720 O   0  0  0  0  0  0  0  0  0  0  0  0
  189.9960  174.9660  137.3760 C   0  0  0  0  0  0  0  0  0  0  0  0
  191.0580  174.9050  138.2700 O   0  0  0  0  0  1  0  0  0  0  0  0
  188.1800  176.6950  144.2570 C   0  0  0  0  0  2  0  0  0  0  0  0
  189.7440  178.3930  145.0930 O   0  0  0  0  0  0  0  0  0  0  0  0
  187.1690  177.0870  147.2980 C   0  0  0  0  0  3  0  0  0  0  0  0
  185.9530  177.6450  146.6790 C   0  0  0  0  0  3  0  0  0  0  0  0
  188.4620  177.8110  145.2950 C   0  0  1  0  0  0  0  0  0  0  0  0
  186.0410  178.4760  145.6330 C   0  0  0  0  0  0  0  0  0  0  0  0
  191.9850  177.9380  144.9090 O   0  0  0  0  0  1  0  0  0  0  0  0
  190.7600  177.4430  145.3540 C   0  0  1  0  0  3  0  0  0  0  0  0
  187.4020  178.9200  145.1480 C   0  0  0  0  0  2  0  0  0  0  0  0
  190.8420  177.1530  146.8480 C   0  0  0  0  0  2  0  0  0  0  0  0
  188.3540  177.2210  146.6960 C   0  0  0  0  0  0  0  0  0  0  0  0
  189.5350  176.7390  147.3380 N   0  0  0  0  0  2  0  0  0  0  0  0
  184.8240  179.0240  145.0180 C   0  0  0  0  0  0  0  0  0  0  0  0
  183.7460  179.0620  145.6690 O   0  0  0  0  0  1  0  0  0  0  0  0
  184.8490  179.5120  143.7170 O   0  0  0  0  0  0  0  0  0  0  0  0
  1 16  1  0  0  0  0
  2  7  1  6  0  0  0
  2  6  1  0  0  0  0
  4  5  1  0  0  0  0
  5  3  1  1  0  0  0
  5  1  1  0  0  0  0
  6  1  2  0  0  0  0
  8 10  1  6  0  0  0
  8  4  1  0  0  0  0
  8  2  1  0  0  0  0
 10  9  1  1  0  0  0
 11 10  1  0  0  0  0
 12 14  1  0  0  0  0
 12 11  1  0  0  0  0
 13 14  2  0  0  0  0
 14 15  1  0  0  0  0
 17 20  1  0  0  0  0
 17 23  1  0  0  0  0
 19 18  1  0  0  0  0
 20 16  1  6  0  0  0
 20 26  1  0  0  0  0
 21 19  2  0  0  0  0
 23 22  1  1  0  0  0
 23 25  1  0  0  0  0
 24 20  1  0  0  0  0
 24 21  1  0  0  0  0
 25 27  1  0  0  0  0
 26 18  2  0  0  0  0
 26 27  1  0  0  0  0
 28 21  1  0  0  0  0
 28 29  1  0  0  0  0
 30 28  2  0  0  0  0
M  END
>  <MODEL>
9

>  <REMARK>
 VINA RESULT:      -7.6      2.811      6.913
  Name = 
  7 active torsions:
  status: ('A' for Active; 'I' for Inactive)
    1  A    between atoms: N_1  and  C_11
    2  A    between atoms: N_1  and  C_19
    3  A    between atoms: C_2  and  C_15
    4  A    between atoms: C_6  and  C_9
    5  A    between atoms: C_9  and  C_13
    6  A    between atoms: C_11  and  C_14
    7  A    between atoms: C_19  and  C_30
                            x       y       z     vdW  Elec       q    Type
                         _______ _______ _______ _____ _____    ______ ____

>  <TORSDO>
F 7

$$$$
