=
 OpenBabel11062414373D

 38 43  0  0  1  0  0  0  0  0999 V2000
  188.5810  176.9040  141.7650 C   0  0  0  0  0  2  0  0  0  0  0  0
  190.2400  177.1650  146.4010 C   0  0  0  0  0  0  0  0  0  0  0  0
  185.9740  179.0390  145.0390 C   0  0  0  0  0  2  0  0  0  0  0  0
  187.6020  179.1470  141.7660 O   0  0  0  0  0  1  0  0  0  0  0  0
  187.4950  177.5360  146.8750 C   0  0  0  0  0  3  0  0  0  0  0  0
  191.3420  176.6260  146.0180 N   0  0  0  0  0  0  0  0  0  0  0  0
  189.6900  176.9680  147.7020 N   0  0  0  0  0  2  0  0  0  0  0  0
  190.1280  177.2550  144.0950 C   0  0  2  0  0  3  0  0  0  0  0  0
  185.2110  177.7700  143.1550 N   0  0  0  0  0  2  0  0  0  0  0  0
  186.6400  177.5070  143.2950 C   0  0  2  0  0  3  0  0  0  0  0  0
  187.1790  178.3430  144.4500 C   0  0  2  0  0  3  0  0  0  0  0  0
  187.9800  177.4690  145.4350 C   0  0  1  0  0  3  0  0  0  0  0  0
  189.9300  177.6400  141.8430 C   0  0  1  0  0  3  0  0  0  0  0  0
  187.3460  177.7860  141.9650 C   0  0  2  0  0  3  0  0  0  0  0  0
  189.4650  177.8280  145.3310 C   0  0  1  0  0  3  0  0  0  0  0  0
  191.5170  176.8480  144.5920 C   0  0  0  0  0  2  0  0  0  0  0  0
  184.9230  178.9500  143.9560 C   0  0  1  0  0  3  0  0  0  0  0  0
  188.3040  177.2660  147.9100 C   0  0  0  0  0  3  0  0  0  0  0  0
  190.2010  178.2380  143.0950 O   0  0  0  0  0  0  0  0  0  0  0  0
  183.3080  179.2070  145.6460 O   0  0  0  0  0  0  0  0  0  0  0  0
  183.5150  178.8880  144.4870 C   0  0  0  0  0  0  0  0  0  0  0  0
  182.3640  178.4160  143.6470 C   0  0  0  0  0  2  0  0  0  0  0  0
  181.3780  179.4780  143.5060 N   0  0  0  0  0  2  0  0  0  0  0  0
  179.9310  180.7720  142.2500 O   0  0  0  0  0  0  0  0  0  0  0  0
  180.5370  179.6750  142.3610 C   0  0  0  0  0  0  0  0  0  0  0  0
  181.0120  178.5440  140.1580 N   0  0  0  0  0  0  0  0  0  0  0  0
  179.6300  176.8800  140.2200 C   0  0  0  0  0  3  0  0  0  0  0  0
  180.5940  177.4800  139.4950 N   0  0  0  0  0  0  0  0  0  0  0  0
  179.4370  177.5830  141.4000 C   0  0  0  0  0  3  0  0  0  0  0  0
  180.3450  178.6260  141.3280 C   0  0  0  0  0  0  0  0  0  0  0  0
  183.4560  178.8020  140.0670 C   0  0  0  0  0  2  0  0  0  0  0  0
  182.1060  179.4050  139.7080 C   0  0  0  0  0  3  0  0  0  0  0  0
  182.9260  178.6760  138.6580 C   0  0  0  0  0  2  0  0  0  0  0  0
  190.9740  176.7900  141.4570 O   0  0  0  0  0  0  0  0  0  0  0  0
  191.0670  176.9160  139.7680 P   0  0  0  0  0  0  0  0  0  0  0  0
  192.6720  177.2050  139.3240 O   0  0  0  0  0  1  0  0  0  0  0  0
  190.6000  175.6280  139.1270 O   0  0  0  0  0  0  0  0  0  0  0  0
  190.1040  178.1990  139.2270 O   0  0  0  0  0  1  0  0  0  0  0  0
  1 13  1  0  0  0  0
  1 14  1  0  0  0  0
  2  7  1  0  0  0  0
  5 18  2  0  0  0  0
  6  2  2  0  0  0  0
  7 18  1  0  0  0  0
  8 16  1  1  0  0  0
  8 15  1  0  0  0  0
  9 17  1  0  0  0  0
 10  9  1  6  0  0  0
 10 11  1  0  0  0  0
 11  3  1  1  0  0  0
 11 12  1  0  0  0  0
 12  5  1  1  0  0  0
 13 34  1  1  0  0  0
 13 19  1  0  0  0  0
 14  4  1  1  0  0  0
 14 10  1  0  0  0  0
 15 12  1  0  0  0  0
 15  2  1  1  0  0  0
 16  6  1  0  0  0  0
 17 21  1  1  0  0  0
 17  3  1  0  0  0  0
 19  8  1  0  0  0  0
 21 20  2  0  0  0  0
 22 21  1  0  0  0  0
 23 22  1  0  0  0  0
 24 25  2  0  0  0  0
 25 23  1  0  0  0  0
 26 30  1  0  0  0  0
 27 29  1  0  0  0  0
 28 26  1  0  0  0  0
 28 27  2  0  0  0  0
 30 29  2  0  0  0  0
 30 25  1  0  0  0  0
 32 31  1  0  0  0  0
 32 26  1  0  0  0  0
 33 32  1  0  0  0  0
 33 31  1  0  0  0  0
 35 34  1  0  0  0  0
 36 35  1  0  0  0  0
 37 35  2  0  0  0  0
 38 35  1  0  0  0  0
M  END
>  <MODEL>
1

>  <REMARK>
 VINA RESULT:      -8.9      0.000      0.000
  Name = 
  7 active torsions:
  status: ('A' for Active; 'I' for Inactive)
    1  A    between atoms: N_4  and  C_27
    2  A    between atoms: C_6  and  N_17
    3  A    between atoms: O_11  and  P_16
    4  A    between atoms: O_11  and  C_24
    5  A    between atoms: C_27  and  C_29
    6  A    between atoms: C_29  and  C_32
    7  A    between atoms: C_30  and  C_37
                            x       y       z     vdW  Elec       q    Type
                         _______ _______ _______ _____ _____    ______ ____

>  <TORSDO>
F 7

$$$$
=
 OpenBabel11062414373D

 38 43  0  0  1  0  0  0  0  0999 V2000
  185.1040  179.6920  142.3480 C   0  0  0  0  0  2  0  0  0  0  0  0
  186.5720  177.8290  146.6710 C   0  0  0  0  0  0  0  0  0  0  0  0
  188.7670  176.7520  142.4770 C   0  0  0  0  0  2  0  0  0  0  0  0
  185.5020  177.6330  141.0870 O   0  0  0  0  0  1  0  0  0  0  0  0
  188.9370  177.4790  145.1960 C   0  0  0  0  0  3  0  0  0  0  0  0
  185.5690  178.3990  147.2370 N   0  0  0  0  0  0  0  0  0  0  0  0
  187.8190  177.6180  147.3290 N   0  0  0  0  0  2  0  0  0  0  0  0
  185.2500  178.5070  144.9020 C   0  0  2  0  0  3  0  0  0  0  0  0
  188.4310  178.6110  141.0040 N   0  0  0  0  0  2  0  0  0  0  0  0
  187.4440  178.7320  142.0730 C   0  0  2  0  0  3  0  0  0  0  0  0
  187.5850  177.5330  143.0040 C   0  0  2  0  0  3  0  0  0  0  0  0
  187.6990  177.9880  144.4730 C   0  0  1  0  0  3  0  0  0  0  0  0
  183.9800  178.8950  143.0320 C   0  0  1  0  0  3  0  0  0  0  0  0
  186.0440  178.8650  141.4670 C   0  0  2  0  0  3  0  0  0  0  0  0
  186.4210  177.5980  145.2190 C   0  0  1  0  0  3  0  0  0  0  0  0
  184.5340  178.6480  146.2460 C   0  0  0  0  0  2  0  0  0  0  0  0
  188.9460  177.2520  141.0620 C   0  0  1  0  0  3  0  0  0  0  0  0
  188.9770  177.3470  146.5290 C   0  0  0  0  0  3  0  0  0  0  0  0
  184.4270  177.9050  143.9370 O   0  0  0  0  0  0  0  0  0  0  0  0
  191.2720  177.3080  141.4090 O   0  0  0  0  0  0  0  0  0  0  0  0
  190.3750  177.2160  140.5870 C   0  0  0  0  0  0  0  0  0  0  0  0
  190.7310  177.1060  139.1330 C   0  0  0  0  0  2  0  0  0  0  0  0
  190.8120  175.7050  138.7420 N   0  0  0  0  0  2  0  0  0  0  0  0
  190.1140  173.8860  137.4980 O   0  0  0  0  0  0  0  0  0  0  0  0
  190.1990  175.1390  137.5760 C   0  0  0  0  0  0  0  0  0  0  0  0
  188.4520  176.5060  136.3790 N   0  0  0  0  0  0  0  0  0  0  0  0
  189.5190  177.1030  134.5940 C   0  0  0  0  0  3  0  0  0  0  0  0
  188.3520  177.2020  135.2600 N   0  0  0  0  0  0  0  0  0  0  0  0
  190.4020  176.3250  135.3260 C   0  0  0  0  0  3  0  0  0  0  0  0
  189.6900  175.9760  136.4610 C   0  0  0  0  0  0  0  0  0  0  0  0
  187.0060  177.8340  137.8600 C   0  0  0  0  0  2  0  0  0  0  0  0
  187.3980  176.4410  137.3930 C   0  0  0  0  0  3  0  0  0  0  0  0
  186.1400  177.1040  136.8610 C   0  0  0  0  0  2  0  0  0  0  0  0
  183.0710  179.7640  143.6510 O   0  0  0  0  0  0  0  0  0  0  0  0
  181.5330  179.2430  143.1600 P   0  0  0  0  0  0  0  0  0  0  0  0
  181.6720  178.4300  141.6840 O   0  0  0  0  0  0  0  0  0  0  0  0
  180.9530  178.3010  144.1910 O   0  0  0  0  0  1  0  0  0  0  0  0
  180.5030  180.5720  142.9640 O   0  0  0  0  0  1  0  0  0  0  0  0
  1 13  1  0  0  0  0
  2  6  2  0  0  0  0
  2  7  1  0  0  0  0
  5 18  2  0  0  0  0
  8 15  1  0  0  0  0
  8 16  1  1  0  0  0
  9 17  1  0  0  0  0
 10  9  1  6  0  0  0
 10 11  1  0  0  0  0
 11  3  1  6  0  0  0
 11 12  1  0  0  0  0
 12  5  1  1  0  0  0
 12 15  1  0  0  0  0
 13 34  1  1  0  0  0
 13 19  1  0  0  0  0
 14  4  1  1  0  0  0
 14 10  1  0  0  0  0
 14  1  1  0  0  0  0
 15  2  1  1  0  0  0
 16  6  1  0  0  0  0
 17 21  1  1  0  0  0
 17  3  1  0  0  0  0
 18  7  1  0  0  0  0
 19  8  1  0  0  0  0
 21 20  2  0  0  0  0
 22 21  1  0  0  0  0
 23 22  1  0  0  0  0
 24 25  2  0  0  0  0
 25 23  1  0  0  0  0
 26 30  1  0  0  0  0
 26 32  1  0  0  0  0
 27 28  2  0  0  0  0
 27 29  1  0  0  0  0
 28 26  1  0  0  0  0
 29 30  2  0  0  0  0
 30 25  1  0  0  0  0
 32 31  1  0  0  0  0
 33 32  1  0  0  0  0
 33 31  1  0  0  0  0
 35 34  1  0  0  0  0
 35 37  1  0  0  0  0
 36 35  2  0  0  0  0
 38 35  1  0  0  0  0
M  END
>  <MODEL>
2

>  <REMARK>
 VINA RESULT:      -8.7      3.995      7.592
  Name = 
  7 active torsions:
  status: ('A' for Active; 'I' for Inactive)
    1  A    between atoms: N_4  and  C_27
    2  A    between atoms: C_6  and  N_17
    3  A    between atoms: O_11  and  P_16
    4  A    between atoms: O_11  and  C_24
    5  A    between atoms: C_27  and  C_29
    6  A    between atoms: C_29  and  C_32
    7  A    between atoms: C_30  and  C_37
                            x       y       z     vdW  Elec       q    Type
                         _______ _______ _______ _____ _____    ______ ____

>  <TORSDO>
F 7

$$$$
=
 OpenBabel11062414373D

 38 43  0  0  1  0  0  0  0  0999 V2000
  189.6430  176.4050  144.3490 C   0  0  0  0  0  2  0  0  0  0  0  0
  185.2220  178.4270  145.1710 C   0  0  0  0  0  0  0  0  0  0  0  0
  187.5190  178.8030  140.9110 C   0  0  0  0  0  2  0  0  0  0  0  0
  190.4760  178.2670  142.9950 O   0  0  0  0  0  1  0  0  0  0  0  0
  185.1550  178.3080  142.3650 C   0  0  0  0  0  3  0  0  0  0  0  0
  185.3000  178.0560  146.3990 N   0  0  0  0  0  0  0  0  0  0  0  0
  183.9860  178.5200  144.4650 N   0  0  0  0  0  2  0  0  0  0  0  0
  187.4270  177.7840  145.4150 C   0  0  2  0  0  3  0  0  0  0  0  0
  188.9380  176.8850  140.7000 N   0  0  0  0  0  2  0  0  0  0  0  0
  188.5870  177.0000  142.1120 C   0  0  2  0  0  3  0  0  0  0  0  0
  187.7300  178.2460  142.3010 C   0  0  2  0  0  3  0  0  0  0  0  0
  186.4400  177.9140  143.0780 C   0  0  1  0  0  3  0  0  0  0  0  0
  189.6880  177.4100  145.5130 C   0  0  1  0  0  3  0  0  0  0  0  0
  189.8630  177.0100  142.9600 C   0  0  2  0  0  3  0  0  0  0  0  0
  186.5180  178.5450  144.4710 C   0  0  1  0  0  3  0  0  0  0  0  0
  186.6970  177.8660  146.7570 C   0  0  0  0  0  2  0  0  0  0  0  0
  188.6050  178.1580  140.0800 C   0  0  1  0  0  3  0  0  0  0  0  0
  184.0190  178.5530  143.0330 C   0  0  0  0  0  3  0  0  0  0  0  0
  188.6850  178.4060  145.4700 O   0  0  0  0  0  0  0  0  0  0  0  0
  187.8890  178.9180  137.9730 O   0  0  0  0  0  0  0  0  0  0  0  0
  188.2170  177.9510  138.6400 C   0  0  0  0  0  0  0  0  0  0  0  0
  188.1890  176.5900  138.0080 C   0  0  0  0  0  2  0  0  0  0  0  0
  187.8760  176.7020  136.5900 N   0  0  0  0  0  2  0  0  0  0  0  0
  186.5570  176.2530  134.7460 O   0  0  0  0  0  0  0  0  0  0  0  0
  186.6120  176.3720  135.9970 C   0  0  0  0  0  0  0  0  0  0  0  0
  184.7340  175.0260  137.0050 N   0  0  0  0  0  0  0  0  0  0  0  0
  183.6280  176.5540  138.0640 C   0  0  0  0  0  3  0  0  0  0  0  0
  183.6860  175.2390  137.7810 N   0  0  0  0  0  0  0  0  0  0  0  0
  184.6910  177.2030  137.4560 C   0  0  0  0  0  3  0  0  0  0  0  0
  185.3790  176.1940  136.8040 C   0  0  0  0  0  0  0  0  0  0  0  0
  186.0880  173.0500  137.5630 C   0  0  0  0  0  2  0  0  0  0  0  0
  185.1560  173.7000  136.5520 C   0  0  0  0  0  3  0  0  0  0  0  0
  184.6330  172.6460  137.5130 C   0  0  0  0  0  2  0  0  0  0  0  0
  189.6710  176.7360  146.7420 O   0  0  0  0  0  0  0  0  0  0  0  0
  191.2960  176.5900  147.2060 P   0  0  0  0  0  0  0  0  0  0  0  0
  191.5940  174.9940  147.6770 O   0  0  0  0  0  1  0  0  0  0  0  0
  192.1990  176.9400  146.0440 O   0  0  0  0  0  0  0  0  0  0  0  0
  191.6240  177.6200  148.5080 O   0  0  0  0  0  1  0  0  0  0  0  0
  1 13  1  0  0  0  0
  2  6  2  0  0  0  0
  5 18  2  0  0  0  0
  6 16  1  0  0  0  0
  7  2  1  0  0  0  0
  8 19  1  0  0  0  0
  8 16  1  1  0  0  0
 10  9  1  6  0  0  0
 10 11  1  0  0  0  0
 10 14  1  0  0  0  0
 11  3  1  6  0  0  0
 11 12  1  0  0  0  0
 12  5  1  6  0  0  0
 12 15  1  0  0  0  0
 13 34  1  1  0  0  0
 14  4  1  1  0  0  0
 14  1  1  0  0  0  0
 15  2  1  1  0  0  0
 15  8  1  0  0  0  0
 17 21  1  6  0  0  0
 17  9  1  0  0  0  0
 17  3  1  0  0  0  0
 18  7  1  0  0  0  0
 19 13  1  0  0  0  0
 20 21  2  0  0  0  0
 22 21  1  0  0  0  0
 23 22  1  0  0  0  0
 24 25  2  0  0  0  0
 25 23  1  0  0  0  0
 25 30  1  0  0  0  0
 26 28  1  0  0  0  0
 28 27  2  0  0  0  0
 29 27  1  0  0  0  0
 30 26  1  0  0  0  0
 30 29  2  0  0  0  0
 32 26  1  0  0  0  0
 32 33  1  0  0  0  0
 32 31  1  0  0  0  0
 33 31  1  0  0  0  0
 34 35  1  0  0  0  0
 35 36  1  0  0  0  0
 35 38  1  0  0  0  0
 37 35  2  0  0  0  0
M  END
>  <MODEL>
3

>  <REMARK>
 VINA RESULT:      -8.6      3.788      6.261
  Name = 
  7 active torsions:
  status: ('A' for Active; 'I' for Inactive)
    1  A    between atoms: N_4  and  C_27
    2  A    between atoms: C_6  and  N_17
    3  A    between atoms: O_11  and  P_16
    4  A    between atoms: O_11  and  C_24
    5  A    between atoms: C_27  and  C_29
    6  A    between atoms: C_29  and  C_32
    7  A    between atoms: C_30  and  C_37
                            x       y       z     vdW  Elec       q    Type
                         _______ _______ _______ _____ _____    ______ ____

>  <TORSDO>
F 7

$$$$
=
 OpenBabel11062414373D

 38 43  0  0  1  0  0  0  0  0999 V2000
  189.4870  176.4990  144.4900 C   0  0  0  0  0  2  0  0  0  0  0  0
  185.0980  178.5140  145.4880 C   0  0  0  0  0  0  0  0  0  0  0  0
  187.2360  178.9160  141.1480 C   0  0  0  0  0  2  0  0  0  0  0  0
  190.2680  178.3690  143.1180 O   0  0  0  0  0  1  0  0  0  0  0  0
  184.9280  178.4110  142.6860 C   0  0  0  0  0  3  0  0  0  0  0  0
  185.2230  178.1360  146.7100 N   0  0  0  0  0  0  0  0  0  0  0  0
  183.8380  178.6110  144.8290 N   0  0  0  0  0  2  0  0  0  0  0  0
  187.3110  177.8700  145.6460 C   0  0  2  0  0  3  0  0  0  0  0  0
  188.6470  176.9990  140.8730 N   0  0  0  0  0  2  0  0  0  0  0  0
  188.3480  177.1070  142.2980 C   0  0  2  0  0  3  0  0  0  0  0  0
  187.4980  178.3510  142.5260 C   0  0  2  0  0  3  0  0  0  0  0  0
  186.2380  178.0140  143.3480 C   0  0  1  0  0  3  0  0  0  0  0  0
  189.5740  177.4970  145.6580 C   0  0  1  0  0  3  0  0  0  0  0  0
  189.6540  177.1120  143.0970 C   0  0  2  0  0  3  0  0  0  0  0  0
  186.3680  178.6360  144.7410 C   0  0  1  0  0  3  0  0  0  0  0  0
  186.6310  177.9450  147.0140 C   0  0  0  0  0  2  0  0  0  0  0  0
  188.2900  178.2760  140.2730 C   0  0  1  0  0  3  0  0  0  0  0  0
  183.8170  178.6520  143.3960 C   0  0  0  0  0  3  0  0  0  0  0  0
  188.5700  178.4930  145.6570 O   0  0  0  0  0  0  0  0  0  0  0  0
  186.6750  178.2480  138.5640 O   0  0  0  0  0  0  0  0  0  0  0  0
  187.8490  178.0770  138.8470 C   0  0  0  0  0  0  0  0  0  0  0  0
  188.8000  177.6430  137.7700 C   0  0  0  0  0  2  0  0  0  0  0  0
  188.9280  176.1920  137.7690 N   0  0  0  0  0  2  0  0  0  0  0  0
  190.1600  174.2480  137.5590 O   0  0  0  0  0  0  0  0  0  0  0  0
  190.1670  175.4740  137.8410 C   0  0  0  0  0  0  0  0  0  0  0  0
  192.5430  176.2430  137.4930 N   0  0  0  0  0  0  0  0  0  0  0  0
  192.9850  177.1560  139.4040 C   0  0  0  0  0  3  0  0  0  0  0  0
  193.4740  176.8830  138.1790 N   0  0  0  0  0  0  0  0  0  0  0  0
  191.6850  176.6830  139.4970 C   0  0  0  0  0  3  0  0  0  0  0  0
  191.4360  176.1220  138.2560 C   0  0  0  0  0  0  0  0  0  0  0  0
  194.1600  175.6930  135.7240 C   0  0  0  0  0  2  0  0  0  0  0  0
  192.6920  175.8470  136.0920 C   0  0  0  0  0  3  0  0  0  0  0  0
  193.3260  174.4690  136.0200 C   0  0  0  0  0  2  0  0  0  0  0  0
  189.6030  176.8160  146.8820 O   0  0  0  0  0  0  0  0  0  0  0  0
  191.2460  176.6180  147.2570 P   0  0  0  0  0  0  0  0  0  0  0  0
  192.1750  177.0890  145.9260 O   0  0  0  0  0  0  0  0  0  0  0  0
  191.6120  177.4780  148.4460 O   0  0  0  0  0  1  0  0  0  0  0  0
  191.5700  174.9950  147.6110 O   0  0  0  0  0  1  0  0  0  0  0  0
  1 13  1  0  0  0  0
  2  6  2  0  0  0  0
  5 18  2  0  0  0  0
  6 16  1  0  0  0  0
  7  2  1  0  0  0  0
  8 19  1  0  0  0  0
  8 16  1  1  0  0  0
 10  9  1  6  0  0  0
 10 11  1  0  0  0  0
 10 14  1  0  0  0  0
 11  3  1  6  0  0  0
 11 12  1  0  0  0  0
 12  5  1  6  0  0  0
 12 15  1  0  0  0  0
 13 34  1  1  0  0  0
 14  4  1  1  0  0  0
 14  1  1  0  0  0  0
 15  2  1  1  0  0  0
 15  8  1  0  0  0  0
 17 21  1  6  0  0  0
 17  9  1  0  0  0  0
 17  3  1  0  0  0  0
 18  7  1  0  0  0  0
 19 13  1  0  0  0  0
 20 21  2  0  0  0  0
 22 21  1  0  0  0  0
 23 22  1  0  0  0  0
 23 25  1  0  0  0  0
 24 25  2  0  0  0  0
 25 30  1  0  0  0  0
 26 28  1  0  0  0  0
 26 30  1  0  0  0  0
 27 29  1  0  0  0  0
 28 27  2  0  0  0  0
 30 29  2  0  0  0  0
 31 33  1  0  0  0  0
 31 32  1  0  0  0  0
 32 26  1  0  0  0  0
 33 32  1  0  0  0  0
 34 35  1  0  0  0  0
 35 38  1  0  0  0  0
 35 37  1  0  0  0  0
 36 35  2  0  0  0  0
M  END
>  <MODEL>
4

>  <REMARK>
 VINA RESULT:      -8.4      4.172      8.036
  Name = 
  7 active torsions:
  status: ('A' for Active; 'I' for Inactive)
    1  A    between atoms: N_4  and  C_27
    2  A    between atoms: C_6  and  N_17
    3  A    between atoms: O_11  and  P_16
    4  A    between atoms: O_11  and  C_24
    5  A    between atoms: C_27  and  C_29
    6  A    between atoms: C_29  and  C_32
    7  A    between atoms: C_30  and  C_37
                            x       y       z     vdW  Elec       q    Type
                         _______ _______ _______ _____ _____    ______ ____

>  <TORSDO>
F 7

$$$$
=
 OpenBabel11062414373D

 38 43  0  0  1  0  0  0  0  0999 V2000
  189.0750  176.5410  144.4320 C   0  0  0  0  0  2  0  0  0  0  0  0
  184.9660  178.6750  146.1290 C   0  0  0  0  0  0  0  0  0  0  0  0
  186.4820  179.1930  141.5470 C   0  0  0  0  0  2  0  0  0  0  0  0
  189.7360  178.4410  143.0370 O   0  0  0  0  0  1  0  0  0  0  0  0
  184.3950  178.7070  143.3780 C   0  0  0  0  0  3  0  0  0  0  0  0
  185.2450  178.2360  147.3050 N   0  0  0  0  0  0  0  0  0  0  0  0
  183.6300  178.8500  145.6620 N   0  0  0  0  0  2  0  0  0  0  0  0
  187.1480  177.9400  145.9420 C   0  0  2  0  0  3  0  0  0  0  0  0
  187.7530  177.2380  140.9960 N   0  0  0  0  0  2  0  0  0  0  0  0
  187.6640  177.2920  142.4520 C   0  0  2  0  0  3  0  0  0  0  0  0
  186.9110  178.5560  142.8490 C   0  0  2  0  0  3  0  0  0  0  0  0
  185.7670  178.2300  143.8290 C   0  0  1  0  0  3  0  0  0  0  0  0
  189.3710  177.4810  145.6140 C   0  0  1  0  0  3  0  0  0  0  0  0
  189.0700  177.2100  143.0550 C   0  0  2  0  0  3  0  0  0  0  0  0
  186.1210  178.7820  145.2130 C   0  0  1  0  0  3  0  0  0  0  0  0
  186.6730  177.9780  147.3960 C   0  0  0  0  0  2  0  0  0  0  0  0
  187.3720  178.5540  140.5050 C   0  0  1  0  0  3  0  0  0  0  0  0
  183.4080  178.9570  144.2500 C   0  0  0  0  0  3  0  0  0  0  0  0
  188.4220  178.5130  145.7970 O   0  0  0  0  0  0  0  0  0  0  0  0
  187.4350  178.4310  138.1570 O   0  0  0  0  0  0  0  0  0  0  0  0
  186.7250  178.4370  139.1500 C   0  0  0  0  0  0  0  0  0  0  0  0
  185.2370  178.3630  138.9790 C   0  0  0  0  0  2  0  0  0  0  0  0
  184.6440  179.6800  139.1640 N   0  0  0  0  0  2  0  0  0  0  0  0
  182.9950  181.2530  138.7770 O   0  0  0  0  0  0  0  0  0  0  0  0
  183.2960  180.0330  138.8230 C   0  0  0  0  0  0  0  0  0  0  0  0
  181.5460  178.3430  139.4850 N   0  0  0  0  0  0  0  0  0  0  0  0
  180.8770  177.6350  137.5530 C   0  0  0  0  0  3  0  0  0  0  0  0
  180.7010  177.5240  138.8840 N   0  0  0  0  0  0  0  0  0  0  0  0
  181.8640  178.5740  137.2970 C   0  0  0  0  0  3  0  0  0  0  0  0
  182.2540  179.0110  138.5510 C   0  0  0  0  0  0  0  0  0  0  0  0
  180.5540  179.5630  141.3760 C   0  0  0  0  0  2  0  0  0  0  0  0
  181.5930  178.5440  140.9340 C   0  0  0  0  0  3  0  0  0  0  0  0
  180.2830  178.0870  141.5520 C   0  0  0  0  0  2  0  0  0  0  0  0
  189.5430  176.7440  146.7930 O   0  0  0  0  0  0  0  0  0  0  0  0
  191.2200  176.6270  147.0200 P   0  0  0  0  0  0  0  0  0  0  0  0
  191.6520  177.5010  148.4010 O   0  0  0  0  0  1  0  0  0  0  0  0
  191.6170  175.1800  147.2040 O   0  0  0  0  0  1  0  0  0  0  0  0
  192.0340  177.2710  145.6820 O   0  0  0  0  0  0  0  0  0  0  0  0
  1 13  1  0  0  0  0
  2  6  2  0  0  0  0
  5 18  2  0  0  0  0
  6 16  1  0  0  0  0
  7  2  1  0  0  0  0
  8 16  1  1  0  0  0
 10  9  1  6  0  0  0
 10 11  1  0  0  0  0
 10 14  1  0  0  0  0
 11  3  1  6  0  0  0
 11 12  1  0  0  0  0
 12  5  1  6  0  0  0
 12 15  1  0  0  0  0
 13 19  1  0  0  0  0
 13 34  1  1  0  0  0
 14  4  1  1  0  0  0
 14  1  1  0  0  0  0
 15  8  1  0  0  0  0
 15  2  1  1  0  0  0
 17 21  1  6  0  0  0
 17  9  1  0  0  0  0
 17  3  1  0  0  0  0
 18  7  1  0  0  0  0
 19  8  1  0  0  0  0
 20 21  2  0  0  0  0
 22 21  1  0  0  0  0
 22 23  1  0  0  0  0
 24 25  2  0  0  0  0
 25 23  1  0  0  0  0
 26 32  1  0  0  0  0
 27 28  2  0  0  0  0
 28 26  1  0  0  0  0
 29 27  1  0  0  0  0
 29 30  2  0  0  0  0
 30 25  1  0  0  0  0
 30 26  1  0  0  0  0
 31 33  1  0  0  0  0
 32 31  1  0  0  0  0
 32 33  1  0  0  0  0
 34 35  1  0  0  0  0
 35 37  1  0  0  0  0
 35 36  1  0  0  0  0
 38 35  2  0  0  0  0
M  END
>  <MODEL>
5

>  <REMARK>
 VINA RESULT:      -8.4      2.732      4.876
  Name = 
  7 active torsions:
  status: ('A' for Active; 'I' for Inactive)
    1  A    between atoms: N_4  and  C_27
    2  A    between atoms: C_6  and  N_17
    3  A    between atoms: O_11  and  P_16
    4  A    between atoms: O_11  and  C_24
    5  A    between atoms: C_27  and  C_29
    6  A    between atoms: C_29  and  C_32
    7  A    between atoms: C_30  and  C_37
                            x       y       z     vdW  Elec       q    Type
                         _______ _______ _______ _____ _____    ______ ____

>  <TORSDO>
F 7

$$$$
=
 OpenBabel11062414373D

 38 43  0  0  1  0  0  0  0  0999 V2000
  189.6060  176.4040  144.5090 C   0  0  0  0  0  2  0  0  0  0  0  0
  185.2860  178.5130  145.6050 C   0  0  0  0  0  0  0  0  0  0  0  0
  187.3700  178.9330  141.2410 C   0  0  0  0  0  2  0  0  0  0  0  0
  190.4150  178.2750  143.1560 O   0  0  0  0  0  1  0  0  0  0  0  0
  185.0720  178.4610  142.8040 C   0  0  0  0  0  3  0  0  0  0  0  0
  185.4180  178.1110  146.8190 N   0  0  0  0  0  0  0  0  0  0  0  0
  184.0190  178.6520  144.9660 N   0  0  0  0  0  2  0  0  0  0  0  0
  187.4840  177.8110  145.7190 C   0  0  2  0  0  3  0  0  0  0  0  0
  188.7270  176.9850  140.9140 N   0  0  0  0  0  2  0  0  0  0  0  0
  188.4510  177.0760  142.3440 C   0  0  2  0  0  3  0  0  0  0  0  0
  187.6370  178.3380  142.6050 C   0  0  2  0  0  3  0  0  0  0  0  0
  186.3810  178.0190  143.4400 C   0  0  1  0  0  3  0  0  0  0  0  0
  189.7360  177.3800  145.6920 C   0  0  1  0  0  3  0  0  0  0  0  0
  189.7690  177.0350  143.1240 C   0  0  2  0  0  3  0  0  0  0  0  0
  186.5470  178.6150  144.8410 C   0  0  1  0  0  3  0  0  0  0  0  0
  186.8260  177.8790  147.0990 C   0  0  0  0  0  2  0  0  0  0  0  0
  188.3950  178.2810  140.3400 C   0  0  1  0  0  3  0  0  0  0  0  0
  183.9780  178.7180  143.5350 C   0  0  0  0  0  3  0  0  0  0  0  0
  188.7580  178.4000  145.7220 O   0  0  0  0  0  0  0  0  0  0  0  0
  188.7430  178.2200  138.0150 O   0  0  0  0  0  0  0  0  0  0  0  0
  187.9280  178.1160  138.9180 C   0  0  0  0  0  0  0  0  0  0  0  0
  186.4900  177.8630  138.5730 C   0  0  0  0  0  2  0  0  0  0  0  0
  185.6800  179.0220  138.9180 N   0  0  0  0  0  2  0  0  0  0  0  0
  183.6670  180.1550  139.0140 O   0  0  0  0  0  0  0  0  0  0  0  0
  184.2460  179.0390  138.9720 C   0  0  0  0  0  0  0  0  0  0  0  0
  182.9970  177.1170  137.9220 N   0  0  0  0  0  0  0  0  0  0  0  0
  182.2990  176.0500  139.6710 C   0  0  0  0  0  3  0  0  0  0  0  0
  182.3230  176.0530  138.3230 N   0  0  0  0  0  0  0  0  0  0  0  0
  182.9990  177.1490  140.1460 C   0  0  0  0  0  3  0  0  0  0  0  0
  183.4390  177.7940  139.0030 C   0  0  0  0  0  0  0  0  0  0  0  0
  184.3320  176.4550  135.9660 C   0  0  0  0  0  2  0  0  0  0  0  0
  183.2900  177.4140  136.5190 C   0  0  0  0  0  3  0  0  0  0  0  0
  182.8700  176.2380  135.6550 C   0  0  0  0  0  2  0  0  0  0  0  0
  189.7650  176.6780  146.9040 O   0  0  0  0  0  0  0  0  0  0  0  0
  191.4080  176.4680  147.2720 P   0  0  0  0  0  0  0  0  0  0  0  0
  191.6640  174.8700  147.7590 O   0  0  0  0  0  1  0  0  0  0  0  0
  192.2520  176.7550  146.0510 O   0  0  0  0  0  0  0  0  0  0  0  0
  191.8600  177.5080  148.5290 O   0  0  0  0  0  1  0  0  0  0  0  0
  1 13  1  0  0  0  0
  2  6  2  0  0  0  0
  5 18  2  0  0  0  0
  6 16  1  0  0  0  0
  7  2  1  0  0  0  0
  8 19  1  0  0  0  0
  8 16  1  1  0  0  0
 10  9  1  6  0  0  0
 10 11  1  0  0  0  0
 10 14  1  0  0  0  0
 11  3  1  6  0  0  0
 11 12  1  0  0  0  0
 12  5  1  6  0  0  0
 12 15  1  0  0  0  0
 13 19  1  0  0  0  0
 13 34  1  1  0  0  0
 14  4  1  1  0  0  0
 14  1  1  0  0  0  0
 15  2  1  1  0  0  0
 15  8  1  0  0  0  0
 17 21  1  6  0  0  0
 17  9  1  0  0  0  0
 17  3  1  0  0  0  0
 18  7  1  0  0  0  0
 20 21  2  0  0  0  0
 22 23  1  0  0  0  0
 22 21  1  0  0  0  0
 23 25  1  0  0  0  0
 25 30  1  0  0  0  0
 25 24  2  0  0  0  0
 26 28  1  0  0  0  0
 26 30  1  0  0  0  0
 27 29  1  0  0  0  0
 28 27  2  0  0  0  0
 30 29  2  0  0  0  0
 31 32  1  0  0  0  0
 32 26  1  0  0  0  0
 33 31  1  0  0  0  0
 33 32  1  0  0  0  0
 34 35  1  0  0  0  0
 35 36  1  0  0  0  0
 35 38  1  0  0  0  0
 37 35  2  0  0  0  0
M  END
>  <MODEL>
6

>  <REMARK>
 VINA RESULT:      -8.2      3.043      5.219
  Name = 
  7 active torsions:
  status: ('A' for Active; 'I' for Inactive)
    1  A    between atoms: N_4  and  C_27
    2  A    between atoms: C_6  and  N_17
    3  A    between atoms: O_11  and  P_16
    4  A    between atoms: O_11  and  C_24
    5  A    between atoms: C_27  and  C_29
    6  A    between atoms: C_29  and  C_32
    7  A    between atoms: C_30  and  C_37
                            x       y       z     vdW  Elec       q    Type
                         _______ _______ _______ _____ _____    ______ ____

>  <TORSDO>
F 7

$$$$
=
 OpenBabel11062414373D

 38 43  0  0  1  0  0  0  0  0999 V2000
  189.3640  176.4620  144.1800 C   0  0  0  0  0  2  0  0  0  0  0  0
  184.9900  178.5060  145.1830 C   0  0  0  0  0  0  0  0  0  0  0  0
  187.1630  178.9620  140.8660 C   0  0  0  0  0  2  0  0  0  0  0  0
  190.1750  178.3470  142.8470 O   0  0  0  0  0  1  0  0  0  0  0  0
  184.8390  178.4540  142.3780 C   0  0  0  0  0  3  0  0  0  0  0  0
  185.1010  178.1040  146.3990 N   0  0  0  0  0  0  0  0  0  0  0  0
  183.7350  178.6270  144.5170 N   0  0  0  0  0  2  0  0  0  0  0  0
  187.1950  177.8350  145.3450 C   0  0  2  0  0  3  0  0  0  0  0  0
  188.5560  177.0360  140.5670 N   0  0  0  0  0  2  0  0  0  0  0  0
  188.2480  177.1210  141.9910 C   0  0  2  0  0  3  0  0  0  0  0  0
  187.4090  178.3700  142.2350 C   0  0  2  0  0  3  0  0  0  0  0  0
  186.1400  178.0310  143.0420 C   0  0  1  0  0  3  0  0  0  0  0  0
  189.4540  177.4380  145.3660 C   0  0  1  0  0  3  0  0  0  0  0  0
  189.5480  177.0980  142.8000 C   0  0  2  0  0  3  0  0  0  0  0  0
  186.2660  178.6270  144.4470 C   0  0  1  0  0  3  0  0  0  0  0  0
  186.5060  177.8920  146.7100 C   0  0  0  0  0  2  0  0  0  0  0  0
  188.2170  178.3270  139.9880 C   0  0  1  0  0  3  0  0  0  0  0  0
  183.7250  178.6940  143.0850 C   0  0  0  0  0  3  0  0  0  0  0  0
  188.4600  178.4440  145.3760 O   0  0  0  0  0  0  0  0  0  0  0  0
  188.1110  179.0030  137.7370 O   0  0  0  0  0  0  0  0  0  0  0  0
  187.7840  178.1580  138.5550 C   0  0  0  0  0  0  0  0  0  0  0  0
  186.9380  177.0030  138.1070 C   0  0  0  0  0  2  0  0  0  0  0  0
  186.1350  177.3880  136.9550 N   0  0  0  0  0  2  0  0  0  0  0  0
  184.2170  177.2740  135.6690 O   0  0  0  0  0  0  0  0  0  0  0  0
  184.7290  177.1400  136.8110 C   0  0  0  0  0  0  0  0  0  0  0  0
  183.4020  177.6030  138.9030 N   0  0  0  0  0  0  0  0  0  0  0  0
  182.6670  175.6280  139.3940 C   0  0  0  0  0  3  0  0  0  0  0  0
  182.6610  176.9240  139.7620 N   0  0  0  0  0  0  0  0  0  0  0  0
  183.4310  175.4790  138.2460 C   0  0  0  0  0  3  0  0  0  0  0  0
  183.8690  176.7600  137.9590 C   0  0  0  0  0  0  0  0  0  0  0  0
  182.4370  179.7560  138.2100 C   0  0  0  0  0  2  0  0  0  0  0  0
  183.5690  179.0560  138.9450 C   0  0  0  0  0  3  0  0  0  0  0  0
  182.4190  179.6770  139.7180 C   0  0  0  0  0  2  0  0  0  0  0  0
  189.4670  176.7350  146.5780 O   0  0  0  0  0  0  0  0  0  0  0  0
  191.0810  176.7530  147.1000 P   0  0  0  0  0  0  0  0  0  0  0  0
  192.0560  177.3530  145.8560 O   0  0  0  0  0  0  0  0  0  0  0  0
  191.2220  177.6440  148.3140 O   0  0  0  0  0  1  0  0  0  0  0  0
  191.5840  175.1840  147.4880 O   0  0  0  0  0  1  0  0  0  0  0  0
  1 13  1  0  0  0  0
  2  6  2  0  0  0  0
  5 18  2  0  0  0  0
  6 16  1  0  0  0  0
  7  2  1  0  0  0  0
  8 19  1  0  0  0  0
  8 16  1  1  0  0  0
 10  9  1  6  0  0  0
 10 11  1  0  0  0  0
 10 14  1  0  0  0  0
 11  3  1  6  0  0  0
 11 12  1  0  0  0  0
 12  5  1  6  0  0  0
 12 15  1  0  0  0  0
 13 19  1  0  0  0  0
 13 34  1  1  0  0  0
 14  4  1  1  0  0  0
 14  1  1  0  0  0  0
 15  2  1  1  0  0  0
 15  8  1  0  0  0  0
 17 21  1  6  0  0  0
 17  9  1  0  0  0  0
 17  3  1  0  0  0  0
 18  7  1  0  0  0  0
 20 21  2  0  0  0  0
 22 21  1  0  0  0  0
 23 22  1  0  0  0  0
 24 25  2  0  0  0  0
 25 23  1  0  0  0  0
 25 30  1  0  0  0  0
 26 32  1  0  0  0  0
 26 28  1  0  0  0  0
 27 28  2  0  0  0  0
 29 27  1  0  0  0  0
 30 29  2  0  0  0  0
 30 26  1  0  0  0  0
 31 32  1  0  0  0  0
 31 33  1  0  0  0  0
 32 33  1  0  0  0  0
 34 35  1  0  0  0  0
 35 38  1  0  0  0  0
 35 37  1  0  0  0  0
 36 35  2  0  0  0  0
M  END
>  <MODEL>
7

>  <REMARK>
 VINA RESULT:      -8.1      3.129      5.503
  Name = 
  7 active torsions:
  status: ('A' for Active; 'I' for Inactive)
    1  A    between atoms: N_4  and  C_27
    2  A    between atoms: C_6  and  N_17
    3  A    between atoms: O_11  and  P_16
    4  A    between atoms: O_11  and  C_24
    5  A    between atoms: C_27  and  C_29
    6  A    between atoms: C_29  and  C_32
    7  A    between atoms: C_30  and  C_37
                            x       y       z     vdW  Elec       q    Type
                         _______ _______ _______ _____ _____    ______ ____

>  <TORSDO>
F 7

$$$$
=
 OpenBabel11062414373D

 38 43  0  0  1  0  0  0  0  0999 V2000
  184.9790  179.6700  142.2720 C   0  0  0  0  0  2  0  0  0  0  0  0
  186.4920  177.9470  146.6380 C   0  0  0  0  0  0  0  0  0  0  0  0
  188.6460  176.7380  142.4580 C   0  0  0  0  0  2  0  0  0  0  0  0
  185.3650  177.5720  141.0740 O   0  0  0  0  0  1  0  0  0  0  0  0
  188.8430  177.5510  145.1500 C   0  0  0  0  0  3  0  0  0  0  0  0
  185.4950  178.5350  147.1950 N   0  0  0  0  0  0  0  0  0  0  0  0
  187.7460  177.7580  147.2900 N   0  0  0  0  0  2  0  0  0  0  0  0
  185.1520  178.5680  144.8610 C   0  0  2  0  0  3  0  0  0  0  0  0
  188.2930  178.5480  140.9300 N   0  0  0  0  0  2  0  0  0  0  0  0
  187.3170  178.7020  142.0040 C   0  0  2  0  0  3  0  0  0  0  0  0
  187.4680  177.5350  142.9720 C   0  0  2  0  0  3  0  0  0  0  0  0
  187.5970  178.0360  144.4240 C   0  0  1  0  0  3  0  0  0  0  0  0
  183.8630  178.8950  142.9930 C   0  0  1  0  0  3  0  0  0  0  0  0
  185.9100  178.8160  141.4090 C   0  0  2  0  0  3  0  0  0  0  0  0
  186.3260  177.6700  145.1950 C   0  0  1  0  0  3  0  0  0  0  0  0
  184.4500  178.7510  146.2080 C   0  0  0  0  0  2  0  0  0  0  0  0
  188.8100  177.1910  141.0260 C   0  0  1  0  0  3  0  0  0  0  0  0
  188.8960  177.4620  146.4870 C   0  0  0  0  0  3  0  0  0  0  0  0
  184.3200  177.9340  143.9240 O   0  0  0  0  0  0  0  0  0  0  0  0
  191.1220  177.5430  141.2710 O   0  0  0  0  0  0  0  0  0  0  0  0
  190.2330  177.1410  140.5380 C   0  0  0  0  0  0  0  0  0  0  0  0
  190.5920  176.6450  139.1680 C   0  0  0  0  0  2  0  0  0  0  0  0
  190.1860  177.6150  138.1610 N   0  0  0  0  0  2  0  0  0  0  0  0
  189.3030  178.1750  136.0990 O   0  0  0  0  0  0  0  0  0  0  0  0
  189.3530  177.3280  137.0280 C   0  0  0  0  0  0  0  0  0  0  0  0
  188.9450  174.9270  136.3820 N   0  0  0  0  0  0  0  0  0  0  0  0
  186.9170  174.6310  137.0790 C   0  0  0  0  0  3  0  0  0  0  0  0
  187.9710  174.0380  136.4840 N   0  0  0  0  0  0  0  0  0  0  0  0
  187.2390  175.9450  137.3810 C   0  0  0  0  0  3  0  0  0  0  0  0
  188.5410  176.0900  136.9340 C   0  0  0  0  0  0  0  0  0  0  0  0
  191.1140  173.8800  136.8770 C   0  0  0  0  0  2  0  0  0  0  0  0
  190.2730  174.6200  135.8490 C   0  0  0  0  0  3  0  0  0  0  0  0
  190.4470  173.1150  135.7580 C   0  0  0  0  0  2  0  0  0  0  0  0
  182.9600  179.7830  143.5930 O   0  0  0  0  0  0  0  0  0  0  0  0
  181.4180  179.2640  143.1090 P   0  0  0  0  0  0  0  0  0  0  0  0
  180.4280  180.6150  142.8810 O   0  0  0  0  0  1  0  0  0  0  0  0
  181.5160  178.4960  141.8110 O   0  0  0  0  0  0  0  0  0  0  0  0
  180.7360  178.2760  144.3020 O   0  0  0  0  0  1  0  0  0  0  0  0
  1 13  1  0  0  0  0
  2  6  2  0  0  0  0
  2  7  1  0  0  0  0
  5 18  2  0  0  0  0
  8 15  1  0  0  0  0
  8 16  1  1  0  0  0
  9 17  1  0  0  0  0
 10  9  1  6  0  0  0
 10 11  1  0  0  0  0
 11  3  1  6  0  0  0
 11 12  1  0  0  0  0
 12  5  1  1  0  0  0
 12 15  1  0  0  0  0
 13 34  1  1  0  0  0
 13 19  1  0  0  0  0
 14  4  1  1  0  0  0
 14 10  1  0  0  0  0
 14  1  1  0  0  0  0
 15  2  1  1  0  0  0
 16  6  1  0  0  0  0
 17 21  1  1  0  0  0
 17  3  1  0  0  0  0
 18  7  1  0  0  0  0
 19  8  1  0  0  0  0
 21 20  2  0  0  0  0
 22 21  1  0  0  0  0
 23 22  1  0  0  0  0
 24 25  2  0  0  0  0
 25 23  1  0  0  0  0
 26 28  1  0  0  0  0
 26 30  1  0  0  0  0
 27 29  1  0  0  0  0
 28 27  2  0  0  0  0
 30 25  1  0  0  0  0
 30 29  2  0  0  0  0
 32 26  1  0  0  0  0
 32 31  1  0  0  0  0
 33 32  1  0  0  0  0
 33 31  1  0  0  0  0
 35 34  1  0  0  0  0
 35 38  1  0  0  0  0
 36 35  1  0  0  0  0
 37 35  2  0  0  0  0
M  END
>  <MODEL>
8

>  <REMARK>
 VINA RESULT:      -8.0      4.121      7.608
  Name = 
  7 active torsions:
  status: ('A' for Active; 'I' for Inactive)
    1  A    between atoms: N_4  and  C_27
    2  A    between atoms: C_6  and  N_17
    3  A    between atoms: O_11  and  P_16
    4  A    between atoms: O_11  and  C_24
    5  A    between atoms: C_27  and  C_29
    6  A    between atoms: C_29  and  C_32
    7  A    between atoms: C_30  and  C_37
                            x       y       z     vdW  Elec       q    Type
                         _______ _______ _______ _____ _____    ______ ____

>  <TORSDO>
F 7

$$$$
=
 OpenBabel11062414373D

 38 43  0  0  1  0  0  0  0  0999 V2000
  188.9960  178.2510  145.8250 C   0  0  0  0  0  2  0  0  0  0  0  0
  189.5810  177.4360  140.9960 C   0  0  0  0  0  0  0  0  0  0  0  0
  185.2110  177.8780  143.0650 C   0  0  0  0  0  2  0  0  0  0  0  0
  187.0370  176.8010  146.0450 O   0  0  0  0  0  1  0  0  0  0  0  0
  186.9850  178.5120  140.9680 C   0  0  0  0  0  3  0  0  0  0  0  0
  190.8480  177.3310  141.1860 N   0  0  0  0  0  0  0  0  0  0  0  0
  189.0150  177.9480  139.7920 N   0  0  0  0  0  2  0  0  0  0  0  0
  189.7870  177.2940  143.2930 C   0  0  2  0  0  3  0  0  0  0  0  0
  185.4820  179.2590  145.0040 N   0  0  0  0  0  2  0  0  0  0  0  0
  186.8100  178.7790  144.6350 C   0  0  2  0  0  3  0  0  0  0  0  0
  186.6760  177.8470  143.4370 C   0  0  2  0  0  3  0  0  0  0  0  0
  187.6490  178.2530  142.3120 C   0  0  1  0  0  3  0  0  0  0  0  0
  189.7640  176.9440  145.5590 C   0  0  1  0  0  3  0  0  0  0  0  0
  187.4710  178.1160  145.8470 C   0  0  2  0  0  3  0  0  0  0  0  0
  188.7490  177.1940  142.1940 C   0  0  1  0  0  3  0  0  0  0  0  0
  191.0990  176.9770  142.5740 C   0  0  0  0  0  2  0  0  0  0  0  0
  184.5230  178.4240  144.2960 C   0  0  1  0  0  3  0  0  0  0  0  0
  187.6530  178.3940  139.8110 C   0  0  0  0  0  3  0  0  0  0  0  0
  189.5070  176.3560  144.2990 O   0  0  0  0  0  0  0  0  0  0  0  0
  183.3360  180.4280  143.9690 O   0  0  0  0  0  0  0  0  0  0  0  0
  183.2750  179.2090  143.9890 C   0  0  0  0  0  0  0  0  0  0  0  0
  181.9540  178.5440  143.7420 C   0  0  0  0  0  2  0  0  0  0  0  0
  181.0540  179.4570  143.0500 N   0  0  0  0  0  2  0  0  0  0  0  0
  180.1460  180.3710  141.1310 O   0  0  0  0  0  0  0  0  0  0  0  0
  180.7070  179.3770  141.6610 C   0  0  0  0  0  0  0  0  0  0  0  0
  182.0890  177.9090  140.1480 N   0  0  0  0  0  0  0  0  0  0  0  0
  180.7600  176.2280  139.8450 C   0  0  0  0  0  3  0  0  0  0  0  0
  181.9750  176.7330  139.5560 N   0  0  0  0  0  0  0  0  0  0  0  0
  180.0780  177.1130  140.6670 C   0  0  0  0  0  3  0  0  0  0  0  0
  180.9630  178.1620  140.8480 C   0  0  0  0  0  0  0  0  0  0  0  0
  183.9870  178.6260  138.7590 C   0  0  0  0  0  2  0  0  0  0  0  0
  183.3050  178.7220  140.1150 C   0  0  0  0  0  3  0  0  0  0  0  0
  183.1440  179.8340  139.0930 C   0  0  0  0  0  2  0  0  0  0  0  0
  191.1380  177.1370  145.7510 O   0  0  0  0  0  0  0  0  0  0  0  0
  191.5130  176.3460  147.2050 P   0  0  0  0  0  0  0  0  0  0  0  0
  191.9870  177.4950  148.3500 O   0  0  0  0  0  1  0  0  0  0  0  0
  190.2990  175.6070  147.7180 O   0  0  0  0  0  1  0  0  0  0  0  0
  192.7820  175.2530  146.9620 O   0  0  0  0  0  0  0  0  0  0  0  0
  1 14  1  0  0  0  0
  2  6  2  0  0  0  0
  3 17  1  0  0  0  0
  6 16  1  0  0  0  0
  7 18  1  0  0  0  0
  7  2  1  0  0  0  0
  8 16  1  6  0  0  0
  8 19  1  0  0  0  0
 10  9  1  1  0  0  0
 10 14  1  0  0  0  0
 11  3  1  6  0  0  0
 11 10  1  0  0  0  0
 12  5  1  6  0  0  0
 12 11  1  0  0  0  0
 13 34  1  6  0  0  0
 13  1  1  0  0  0  0
 14  4  1  6  0  0  0
 15  2  1  6  0  0  0
 15 12  1  0  0  0  0
 15  8  1  0  0  0  0
 17 21  1  6  0  0  0
 17  9  1  0  0  0  0
 18  5  2  0  0  0  0
 19 13  1  0  0  0  0
 20 21  2  0  0  0  0
 22 21  1  0  0  0  0
 23 22  1  0  0  0  0
 24 25  2  0  0  0  0
 25 23  1  0  0  0  0
 26 30  1  0  0  0  0
 27 29  1  0  0  0  0
 28 27  2  0  0  0  0
 28 26  1  0  0  0  0
 29 30  2  0  0  0  0
 30 25  1  0  0  0  0
 31 33  1  0  0  0  0
 31 32  1  0  0  0  0
 32 26  1  0  0  0  0
 33 32  1  0  0  0  0
 34 35  1  0  0  0  0
 35 37  1  0  0  0  0
 35 36  1  0  0  0  0
 38 35  2  0  0  0  0
M  END
>  <MODEL>
9

>  <REMARK>
 VINA RESULT:      -7.8      2.702      4.196
  Name = 
  7 active torsions:
  status: ('A' for Active; 'I' for Inactive)
    1  A    between atoms: N_4  and  C_27
    2  A    between atoms: C_6  and  N_17
    3  A    between atoms: O_11  and  P_16
    4  A    between atoms: O_11  and  C_24
    5  A    between atoms: C_27  and  C_29
    6  A    between atoms: C_29  and  C_32
    7  A    between atoms: C_30  and  C_37
                            x       y       z     vdW  Elec       q    Type
                         _______ _______ _______ _____ _____    ______ ____

>  <TORSDO>
F 7

$$$$
