=
 OpenBabel11062418103D

 25 27  0  0  1  0  0  0  0  0999 V2000
  188.4290  178.1870  144.8270 C   0  0  0  0  0  2  0  0  0  0  0  0
  184.1110  179.1870  145.0950 C   0  0  0  0  0  2  0  0  0  0  0  0
  187.2810  177.2290  144.5410 C   0  0  2  0  0  3  0  0  0  0  0  0
  184.5220  178.6750  146.4410 N   0  0  0  0  0  2  0  0  0  0  0  0
  185.9700  178.3470  146.5770 C   0  0  0  0  0  2  0  0  0  0  0  0
  185.9890  177.9930  144.3750 C   0  0  1  0  0  3  0  0  0  0  0  0
  186.3330  177.2030  145.6170 C   0  0  1  0  0  3  0  0  0  0  0  0
  185.0120  178.7460  143.9580 C   0  0  2  0  0  3  0  0  0  0  0  0
  184.9430  179.2290  142.6530 O   0  0  0  0  0  0  0  0  0  0  0  0
  184.6400  178.3840  141.5520 C   0  0  0  0  0  2  0  0  0  0  0  0
  185.3810  178.8480  140.3090 C   0  0  0  0  0  2  0  0  0  0  0  0
  183.6070  179.2750  139.0690 C   0  0  0  0  0  1  0  0  0  0  0  0
  184.6880  179.8940  139.6950 O   0  0  0  0  0  0  0  0  0  0  0  0
  189.6870  177.4170  145.2020 C   0  0  0  0  0  2  0  0  0  0  0  0
  190.7520  177.6980  144.2530 N   0  0  0  0  0  2  0  0  0  0  0  0
  191.2430  176.4110  143.7870 C   0  0  0  0  0  2  0  0  0  0  0  0
  190.2610  175.7980  142.8050 C   0  0  0  0  0  2  0  0  0  0  0  0
  189.5940  177.1580  140.7830 C   0  0  0  0  0  0  0  0  0  0  0  0
  188.4830  177.4450  141.3010 O   0  0  0  0  0  0  0  0  0  0  0  0
  190.5180  176.3140  141.4690 N   0  0  0  0  0  2  0  0  0  0  0  0
  189.9440  177.6930  139.4380 C   0  0  0  0  0  2  0  0  0  0  0  0
  188.7660  177.5330  138.4950 C   0  0  0  0  0  2  0  0  0  0  0  0
  188.7430  178.6780  137.5060 C   0  0  1  0  0  3  0  0  0  0  0  0
  188.2500  178.2080  136.2160 C   0  0  0  0  0  2  0  0  0  0  0  0
  187.3520  178.9450  137.1150 N   0  0  0  0  0  2  0  0  0  0  0  0
  1 14  1  0  0  0  0
  2  4  1  0  0  0  0
  3  1  1  1  0  0  0
  3  7  1  0  0  0  0
  4  5  1  0  0  0  0
  6  3  1  0  0  0  0
  6  7  1  0  0  0  0
  7  5  1  0  0  0  0
  8  6  1  0  0  0  0
  8  2  1  0  0  0  0
  9  8  1  0  0  0  0
 10  9  1  0  0  0  0
 11 10  1  0  0  0  0
 12 13  1  0  0  0  0
 13 11  1  0  0  0  0
 15 14  1  0  0  0  0
 16 15  1  0  0  0  0
 17 16  1  0  0  0  0
 18 19  2  0  0  0  0
 18 20  1  0  0  0  0
 20 17  1  0  0  0  0
 21 18  1  0  0  0  0
 22 21  1  0  0  0  0
 23 22  1  0  0  0  0
 24 25  1  0  0  0  0
 24 23  1  0  0  0  0
 25 23  1  0  0  0  0
M  END
>  <MODEL>
1

>  <REMARK>
 VINA RESULT:      -6.3      0.000      0.000
  Name = 
  13 active torsions:
  status: ('A' for Active; 'I' for Inactive)
    1  A    between atoms: C_2  and  C_3
    2  A    between atoms: C_2  and  C_5
    3  A    between atoms: C_4  and  C_16
    4  A    between atoms: C_5  and  C_11
    5  A    between atoms: C_10  and  C_22
    6  A    between atoms: C_10  and  N_25
    7  A    between atoms: C_14  and  C_18
    8  A    between atoms: C_14  and  O_24
    9  A    between atoms: C_16  and  C_19
   10  A    between atoms: C_18  and  O_21
   11  A    between atoms: C_19  and  N_23
   12  A    between atoms: C_20  and  O_24
   13  A    between atoms: C_22  and  N_23
                            x       y       z     vdW  Elec       q    Type
                         _______ _______ _______ _____ _____    ______ ____

>  <TORSDO>
F 13

$$$$
=
 OpenBabel11062418103D

 25 27  0  0  1  0  0  0  0  0999 V2000
  187.4750  178.4390  142.8090 C   0  0  0  0  0  2  0  0  0  0  0  0
  183.6360  179.2550  144.8870 C   0  0  0  0  0  2  0  0  0  0  0  0
  186.4690  177.3860  143.2520 C   0  0  2  0  0  3  0  0  0  0  0  0
  184.6720  179.0600  145.9500 N   0  0  0  0  0  2  0  0  0  0  0  0
  186.0590  178.8420  145.4480 C   0  0  0  0  0  2  0  0  0  0  0  0
  185.1440  178.0310  143.5830 C   0  0  1  0  0  3  0  0  0  0  0  0
  186.1150  177.5410  144.6340 C   0  0  1  0  0  3  0  0  0  0  0  0
  183.9880  178.6280  143.5510 C   0  0  2  0  0  3  0  0  0  0  0  0
  183.2760  178.8200  142.3680 O   0  0  0  0  0  0  0  0  0  0  0  0
  183.5920  178.1140  141.1760 C   0  0  0  0  0  2  0  0  0  0  0  0
  183.4170  179.0160  139.9660 C   0  0  0  0  0  2  0  0  0  0  0  0
  185.0860  178.7290  138.5530 C   0  0  0  0  0  1  0  0  0  0  0  0
  184.6460  179.5570  139.5850 O   0  0  0  0  0  0  0  0  0  0  0  0
  187.6210  178.4350  141.2950 C   0  0  0  0  0  2  0  0  0  0  0  0
  189.0190  178.5760  140.9230 N   0  0  0  0  0  2  0  0  0  0  0  0
  189.6140  177.2540  141.0300 C   0  0  0  0  0  2  0  0  0  0  0  0
  191.0220  177.3550  141.5880 C   0  0  0  0  0  2  0  0  0  0  0  0
  190.9210  177.8630  144.0610 C   0  0  0  0  0  0  0  0  0  0  0  0
  190.8730  179.1010  143.8390 O   0  0  0  0  0  0  0  0  0  0  0  0
  191.0270  176.9350  142.9820 N   0  0  0  0  0  2  0  0  0  0  0  0
  190.8800  177.3610  145.4630 C   0  0  0  0  0  2  0  0  0  0  0  0
  189.4410  177.1790  145.9060 C   0  0  0  0  0  2  0  0  0  0  0  0
  189.3960  176.8810  147.3890 C   0  0  1  0  0  3  0  0  0  0  0  0
  189.1660  178.1130  148.1350 C   0  0  0  0  0  2  0  0  0  0  0  0
  188.0510  177.1860  147.8980 N   0  0  0  0  0  2  0  0  0  0  0  0
  2  4  1  0  0  0  0
  3  1  1  1  0  0  0
  3  6  1  0  0  0  0
  3  7  1  0  0  0  0
  5  4  1  0  0  0  0
  6  7  1  0  0  0  0
  7  5  1  0  0  0  0
  8  6  1  0  0  0  0
  8  2  1  0  0  0  0
  9  8  1  0  0  0  0
 10  9  1  0  0  0  0
 11 10  1  0  0  0  0
 12 13  1  0  0  0  0
 13 11  1  0  0  0  0
 14  1  1  0  0  0  0
 15 16  1  0  0  0  0
 15 14  1  0  0  0  0
 16 17  1  0  0  0  0
 17 20  1  0  0  0  0
 18 21  1  0  0  0  0
 19 18  2  0  0  0  0
 20 18  1  0  0  0  0
 21 22  1  0  0  0  0
 22 23  1  0  0  0  0
 23 25  1  0  0  0  0
 23 24  1  0  0  0  0
 25 24  1  0  0  0  0
M  END
>  <MODEL>
2

>  <REMARK>
 VINA RESULT:      -6.1      2.028      4.746
  Name = 
  13 active torsions:
  status: ('A' for Active; 'I' for Inactive)
    1  A    between atoms: C_2  and  C_3
    2  A    between atoms: C_2  and  C_5
    3  A    between atoms: C_4  and  C_16
    4  A    between atoms: C_5  and  C_11
    5  A    between atoms: C_10  and  C_22
    6  A    between atoms: C_10  and  N_25
    7  A    between atoms: C_14  and  C_18
    8  A    between atoms: C_14  and  O_24
    9  A    between atoms: C_16  and  C_19
   10  A    between atoms: C_18  and  O_21
   11  A    between atoms: C_19  and  N_23
   12  A    between atoms: C_20  and  O_24
   13  A    between atoms: C_22  and  N_23
                            x       y       z     vdW  Elec       q    Type
                         _______ _______ _______ _____ _____    ______ ____

>  <TORSDO>
F 13

$$$$
=
 OpenBabel11062418103D

 25 27  0  0  1  0  0  0  0  0999 V2000
  187.2770  178.2510  142.4110 C   0  0  0  0  0  2  0  0  0  0  0  0
  189.1780  177.7560  146.3930 C   0  0  0  0  0  2  0  0  0  0  0  0
  187.4200  176.9360  143.1640 C   0  0  2  0  0  3  0  0  0  0  0  0
  190.2560  177.5660  145.3710 N   0  0  0  0  0  2  0  0  0  0  0  0
  189.8270  177.7640  143.9570 C   0  0  0  0  0  2  0  0  0  0  0  0
  187.7720  177.1940  144.6090 C   0  0  1  0  0  3  0  0  0  0  0  0
  188.7730  176.7110  143.5840 C   0  0  1  0  0  3  0  0  0  0  0  0
  187.7730  177.5220  145.8690 C   0  0  2  0  0  3  0  0  0  0  0  0
  186.6030  177.8050  146.5720 O   0  0  0  0  0  0  0  0  0  0  0  0
  185.8170  178.9540  146.2920 C   0  0  0  0  0  2  0  0  0  0  0  0
  184.4210  178.5460  145.8520 C   0  0  0  0  0  2  0  0  0  0  0  0
  182.7720  178.8870  144.4270 C   0  0  0  0  0  1  0  0  0  0  0  0
  183.8830  179.5090  144.9960 O   0  0  0  0  0  0  0  0  0  0  0  0
  185.8100  178.6260  142.2620 C   0  0  0  0  0  2  0  0  0  0  0  0
  185.6050  179.3890  141.0420 N   0  0  0  0  0  2  0  0  0  0  0  0
  184.5380  178.7250  140.3110 C   0  0  0  0  0  2  0  0  0  0  0  0
  184.9680  178.4600  138.8790 C   0  0  0  0  0  2  0  0  0  0  0  0
  187.2590  177.8300  138.0200 C   0  0  0  0  0  0  0  0  0  0  0  0
  186.8130  176.7670  137.5120 O   0  0  0  0  0  0  0  0  0  0  0  0
  186.3960  178.7060  138.7430 N   0  0  0  0  0  2  0  0  0  0  0  0
  188.7020  178.1690  137.8770 C   0  0  0  0  0  2  0  0  0  0  0  0
  189.3780  178.1400  139.2340 C   0  0  0  0  0  2  0  0  0  0  0  0
  190.5090  177.1340  139.2220 C   0  0  1  0  0  3  0  0  0  0  0  0
  191.4260  177.4060  140.3230 C   0  0  0  0  0  2  0  0  0  0  0  0
  190.4410  176.3230  140.4460 N   0  0  0  0  0  2  0  0  0  0  0  0
  3  1  1  6  0  0  0
  3  7  1  0  0  0  0
  3  6  1  0  0  0  0
  4  2  1  0  0  0  0
  5  4  1  0  0  0  0
  6  8  1  0  0  0  0
  7  5  1  0  0  0  0
  7  6  1  0  0  0  0
  8  2  1  0  0  0  0
  8  9  1  0  0  0  0
 10  9  1  0  0  0  0
 11 10  1  0  0  0  0
 12 13  1  0  0  0  0
 13 11  1  0  0  0  0
 14  1  1  0  0  0  0
 15 14  1  0  0  0  0
 16 15  1  0  0  0  0
 17 16  1  0  0  0  0
 18 20  1  0  0  0  0
 19 18  2  0  0  0  0
 20 17  1  0  0  0  0
 21 18  1  0  0  0  0
 21 22  1  0  0  0  0
 23 22  1  0  0  0  0
 23 24  1  0  0  0  0
 23 25  1  0  0  0  0
 24 25  1  0  0  0  0
M  END
>  <MODEL>
3

>  <REMARK>
 VINA RESULT:      -6.1      2.149      4.756
  Name = 
  13 active torsions:
  status: ('A' for Active; 'I' for Inactive)
    1  A    between atoms: C_2  and  C_3
    2  A    between atoms: C_2  and  C_5
    3  A    between atoms: C_4  and  C_16
    4  A    between atoms: C_5  and  C_11
    5  A    between atoms: C_10  and  C_22
    6  A    between atoms: C_10  and  N_25
    7  A    between atoms: C_14  and  C_18
    8  A    between atoms: C_14  and  O_24
    9  A    between atoms: C_16  and  C_19
   10  A    between atoms: C_18  and  O_21
   11  A    between atoms: C_19  and  N_23
   12  A    between atoms: C_20  and  O_24
   13  A    between atoms: C_22  and  N_23
                            x       y       z     vdW  Elec       q    Type
                         _______ _______ _______ _____ _____    ______ ____

>  <TORSDO>
F 13

$$$$
=
 OpenBabel11062418103D

 25 27  0  0  1  0  0  0  0  0999 V2000
  184.3010  178.1540  142.2330 C   0  0  0  0  0  2  0  0  0  0  0  0
  185.6730  178.0410  146.4550 C   0  0  0  0  0  2  0  0  0  0  0  0
  185.2290  179.1680  142.8880 C   0  0  2  0  0  3  0  0  0  0  0  0
  184.4130  178.8500  146.4290 N   0  0  0  0  0  2  0  0  0  0  0  0
  183.7520  178.9480  145.0960 C   0  0  0  0  0  2  0  0  0  0  0  0
  185.7640  178.6250  144.1910 C   0  0  1  0  0  3  0  0  0  0  0  0
  184.6790  179.6750  144.1110 C   0  0  1  0  0  3  0  0  0  0  0  0
  186.3900  177.9630  145.1200 C   0  0  2  0  0  3  0  0  0  0  0  0
  187.4770  177.1340  144.8480 O   0  0  0  0  0  0  0  0  0  0  0  0
  188.7200  177.2750  145.5210 C   0  0  0  0  0  2  0  0  0  0  0  0
  189.8680  177.2240  144.5290 C   0  0  0  0  0  2  0  0  0  0  0  0
  191.1330  178.9190  143.9050 C   0  0  0  0  0  1  0  0  0  0  0  0
  189.8660  178.3670  143.7270 O   0  0  0  0  0  0  0  0  0  0  0  0
  183.8130  178.6670  140.8860 C   0  0  0  0  0  2  0  0  0  0  0  0
  184.8730  179.3980  140.2110 N   0  0  0  0  0  2  0  0  0  0  0  0
  184.5990  179.3060  138.7860 C   0  0  0  0  0  2  0  0  0  0  0  0
  185.2970  178.0950  138.1930 C   0  0  0  0  0  2  0  0  0  0  0  0
  187.6450  178.5070  137.3570 C   0  0  0  0  0  0  0  0  0  0  0  0
  187.2360  178.6430  136.1740 O   0  0  0  0  0  0  0  0  0  0  0  0
  186.7320  178.2020  138.4100 N   0  0  0  0  0  2  0  0  0  0  0  0
  189.0960  178.6520  137.6590 C   0  0  0  0  0  2  0  0  0  0  0  0
  189.3620  178.2880  139.1070 C   0  0  0  0  0  2  0  0  0  0  0  0
  190.4670  177.2550  139.1800 C   0  0  1  0  0  3  0  0  0  0  0  0
  191.2320  177.4350  140.4090 C   0  0  0  0  0  2  0  0  0  0  0  0
  190.2210  176.3720  140.3300 N   0  0  0  0  0  2  0  0  0  0  0  0
  3  1  1  6  0  0  0
  3  7  1  0  0  0  0
  3  6  1  0  0  0  0
  4  2  1  0  0  0  0
  5  4  1  0  0  0  0
  6  8  1  0  0  0  0
  7  6  1  0  0  0  0
  7  5  1  0  0  0  0
  8  2  1  0  0  0  0
  9  8  1  0  0  0  0
  9 10  1  0  0  0  0
 11 10  1  0  0  0  0
 13 12  1  0  0  0  0
 13 11  1  0  0  0  0
 14  1  1  0  0  0  0
 15 14  1  0  0  0  0
 16 15  1  0  0  0  0
 17 20  1  0  0  0  0
 17 16  1  0  0  0  0
 18 21  1  0  0  0  0
 18 20  1  0  0  0  0
 19 18  2  0  0  0  0
 21 22  1  0  0  0  0
 22 23  1  0  0  0  0
 23 25  1  0  0  0  0
 23 24  1  0  0  0  0
 25 24  1  0  0  0  0
M  END
>  <MODEL>
4

>  <REMARK>
 VINA RESULT:      -6.1      1.914      5.121
  Name = 
  13 active torsions:
  status: ('A' for Active; 'I' for Inactive)
    1  A    between atoms: C_2  and  C_3
    2  A    between atoms: C_2  and  C_5
    3  A    between atoms: C_4  and  C_16
    4  A    between atoms: C_5  and  C_11
    5  A    between atoms: C_10  and  C_22
    6  A    between atoms: C_10  and  N_25
    7  A    between atoms: C_14  and  C_18
    8  A    between atoms: C_14  and  O_24
    9  A    between atoms: C_16  and  C_19
   10  A    between atoms: C_18  and  O_21
   11  A    between atoms: C_19  and  N_23
   12  A    between atoms: C_20  and  O_24
   13  A    between atoms: C_22  and  N_23
                            x       y       z     vdW  Elec       q    Type
                         _______ _______ _______ _____ _____    ______ ____

>  <TORSDO>
F 13

$$$$
=
 OpenBabel11062418103D

 25 27  0  0  1  0  0  0  0  0999 V2000
  190.1240  177.4790  143.5750 C   0  0  0  0  0  2  0  0  0  0  0  0
  189.1070  178.0260  139.2870 C   0  0  0  0  0  2  0  0  0  0  0  0
  189.2940  176.5180  142.7340 C   0  0  2  0  0  3  0  0  0  0  0  0
  188.0080  178.6640  140.0790 N   0  0  0  0  0  2  0  0  0  0  0  0
  188.2020  178.6470  141.5570 C   0  0  0  0  0  2  0  0  0  0  0  0
  189.4590  176.8280  141.2660 C   0  0  1  0  0  3  0  0  0  0  0  0
  188.2250  177.1950  142.0590 C   0  0  1  0  0  3  0  0  0  0  0  0
  189.8950  176.9770  140.0480 C   0  0  2  0  0  3  0  0  0  0  0  0
  191.0660  176.3740  139.5920 O   0  0  0  0  0  0  0  0  0  0  0  0
  191.5950  176.6380  138.3010 C   0  0  0  0  0  2  0  0  0  0  0  0
  191.5740  175.3780  137.4520 C   0  0  0  0  0  2  0  0  0  0  0  0
  190.3650  173.6370  136.8450 C   0  0  0  0  0  1  0  0  0  0  0  0
  190.5940  174.4990  137.9160 O   0  0  0  0  0  0  0  0  0  0  0  0
  191.5440  176.9570  143.7380 C   0  0  0  0  0  2  0  0  0  0  0  0
  191.6360  176.1010  144.9090 N   0  0  0  0  0  2  0  0  0  0  0  0
  191.6670  176.9810  146.0660 C   0  0  0  0  0  2  0  0  0  0  0  0
  190.8220  176.4050  147.1880 C   0  0  0  0  0  2  0  0  0  0  0  0
  188.7310  177.7280  147.7010 C   0  0  0  0  0  0  0  0  0  0  0  0
  189.3100  178.3450  148.6340 O   0  0  0  0  0  0  0  0  0  0  0  0
  189.4210  176.7230  146.9580 N   0  0  0  0  0  2  0  0  0  0  0  0
  187.3110  178.0380  147.3790 C   0  0  0  0  0  2  0  0  0  0  0  0
  187.0940  177.9710  145.8790 C   0  0  0  0  0  2  0  0  0  0  0  0
  185.6130  177.8850  145.5790 C   0  0  1  0  0  3  0  0  0  0  0  0
  185.0980  179.2090  145.2460 C   0  0  0  0  0  2  0  0  0  0  0  0
  185.3870  178.2490  144.1730 N   0  0  0  0  0  2  0  0  0  0  0  0
  1 14  1  0  0  0  0
  2  8  1  0  0  0  0
  2  4  1  0  0  0  0
  3  1  1  1  0  0  0
  4  5  1  0  0  0  0
  5  7  1  0  0  0  0
  6  7  1  0  0  0  0
  6  3  1  0  0  0  0
  7  3  1  0  0  0  0
  8  6  1  0  0  0  0
  9  8  1  0  0  0  0
 10  9  1  0  0  0  0
 11 13  1  0  0  0  0
 11 10  1  0  0  0  0
 12 13  1  0  0  0  0
 14 15  1  0  0  0  0
 15 16  1  0  0  0  0
 16 17  1  0  0  0  0
 18 19  2  0  0  0  0
 20 17  1  0  0  0  0
 20 18  1  0  0  0  0
 21 18  1  0  0  0  0
 22 21  1  0  0  0  0
 23 22  1  0  0  0  0
 24 23  1  0  0  0  0
 25 24  1  0  0  0  0
 25 23  1  0  0  0  0
M  END
>  <MODEL>
5

>  <REMARK>
 VINA RESULT:      -6.0      3.059      6.582
  Name = 
  13 active torsions:
  status: ('A' for Active; 'I' for Inactive)
    1  A    between atoms: C_2  and  C_3
    2  A    between atoms: C_2  and  C_5
    3  A    between atoms: C_4  and  C_16
    4  A    between atoms: C_5  and  C_11
    5  A    between atoms: C_10  and  C_22
    6  A    between atoms: C_10  and  N_25
    7  A    between atoms: C_14  and  C_18
    8  A    between atoms: C_14  and  O_24
    9  A    between atoms: C_16  and  C_19
   10  A    between atoms: C_18  and  O_21
   11  A    between atoms: C_19  and  N_23
   12  A    between atoms: C_20  and  O_24
   13  A    between atoms: C_22  and  N_23
                            x       y       z     vdW  Elec       q    Type
                         _______ _______ _______ _____ _____    ______ ____

>  <TORSDO>
F 13

$$$$
=
 OpenBabel11062418103D

 25 27  0  0  1  0  0  0  0  0999 V2000
  187.8800  177.0210  144.4360 C   0  0  0  0  0  2  0  0  0  0  0  0
  191.8900  176.3250  146.2120 C   0  0  0  0  0  2  0  0  0  0  0  0
  188.8440  178.1060  144.8930 C   0  0  2  0  0  3  0  0  0  0  0  0
  190.9150  176.3760  147.3480 N   0  0  0  0  0  2  0  0  0  0  0  0
  189.4870  176.5340  146.9480 C   0  0  0  0  0  2  0  0  0  0  0  0
  190.2250  177.5310  145.0950 C   0  0  1  0  0  3  0  0  0  0  0  0
  189.2960  177.8820  146.2350 C   0  0  1  0  0  3  0  0  0  0  0  0
  191.4120  177.0160  144.9490 C   0  0  2  0  0  3  0  0  0  0  0  0
  192.0560  176.9540  143.7150 O   0  0  0  0  0  0  0  0  0  0  0  0
  191.6850  177.7910  142.6290 C   0  0  0  0  0  2  0  0  0  0  0  0
  191.1460  176.9580  141.4790 C   0  0  0  0  0  2  0  0  0  0  0  0
  190.5160  177.1810  139.3770 C   0  0  0  0  0  1  0  0  0  0  0  0
  191.5490  177.5010  140.2570 O   0  0  0  0  0  0  0  0  0  0  0  0
  187.8680  176.9190  142.9180 C   0  0  0  0  0  2  0  0  0  0  0  0
  187.8080  178.2440  142.3240 N   0  0  0  0  0  2  0  0  0  0  0  0
  187.3220  178.0690  140.9650 C   0  0  0  0  0  2  0  0  0  0  0  0
  186.1510  178.9980  140.7020 C   0  0  0  0  0  2  0  0  0  0  0  0
  184.3930  178.7760  142.5030 C   0  0  0  0  0  0  0  0  0  0  0  0
  183.8020  177.8670  141.8620 O   0  0  0  0  0  0  0  0  0  0  0  0
  185.5560  179.4050  141.9660 N   0  0  0  0  0  2  0  0  0  0  0  0
  183.8660  179.2080  143.8270 C   0  0  0  0  0  2  0  0  0  0  0  0
  185.0160  179.4750  144.7800 C   0  0  0  0  0  2  0  0  0  0  0  0
  185.1680  178.3130  145.7380 C   0  0  1  0  0  3  0  0  0  0  0  0
  185.8700  178.7500  146.9390 C   0  0  0  0  0  2  0  0  0  0  0  0
  184.4090  178.6020  146.9630 N   0  0  0  0  0  2  0  0  0  0  0  0
  2  4  1  0  0  0  0
  3  1  1  6  0  0  0
  3  6  1  0  0  0  0
  3  7  1  0  0  0  0
  5  4  1  0  0  0  0
  6  7  1  0  0  0  0
  7  5  1  0  0  0  0
  8  6  1  0  0  0  0
  8  2  1  0  0  0  0
  9  8  1  0  0  0  0
 10  9  1  0  0  0  0
 11 10  1  0  0  0  0
 12 13  1  0  0  0  0
 13 11  1  0  0  0  0
 14  1  1  0  0  0  0
 15 14  1  0  0  0  0
 16 15  1  0  0  0  0
 17 16  1  0  0  0  0
 17 20  1  0  0  0  0
 18 21  1  0  0  0  0
 19 18  2  0  0  0  0
 20 18  1  0  0  0  0
 21 22  1  0  0  0  0
 22 23  1  0  0  0  0
 23 24  1  0  0  0  0
 23 25  1  0  0  0  0
 24 25  1  0  0  0  0
M  END
>  <MODEL>
6

>  <REMARK>
 VINA RESULT:      -6.0      2.299      6.494
  Name = 
  13 active torsions:
  status: ('A' for Active; 'I' for Inactive)
    1  A    between atoms: C_2  and  C_3
    2  A    between atoms: C_2  and  C_5
    3  A    between atoms: C_4  and  C_16
    4  A    between atoms: C_5  and  C_11
    5  A    between atoms: C_10  and  C_22
    6  A    between atoms: C_10  and  N_25
    7  A    between atoms: C_14  and  C_18
    8  A    between atoms: C_14  and  O_24
    9  A    between atoms: C_16  and  C_19
   10  A    between atoms: C_18  and  O_21
   11  A    between atoms: C_19  and  N_23
   12  A    between atoms: C_20  and  O_24
   13  A    between atoms: C_22  and  N_23
                            x       y       z     vdW  Elec       q    Type
                         _______ _______ _______ _____ _____    ______ ____

>  <TORSDO>
F 13

$$$$
=
 OpenBabel11062418103D

 25 27  0  0  1  0  0  0  0  0999 V2000
  188.1370  178.3510  142.8810 C   0  0  0  0  0  2  0  0  0  0  0  0
  185.5500  178.6450  146.4790 C   0  0  0  0  0  2  0  0  0  0  0  0
  187.1640  177.2820  143.3600 C   0  0  2  0  0  3  0  0  0  0  0  0
  186.8350  178.0150  146.9190 N   0  0  0  0  0  2  0  0  0  0  0  0
  187.8750  177.8920  145.8570 C   0  0  0  0  0  2  0  0  0  0  0  0
  186.2070  177.8590  144.3760 C   0  0  1  0  0  3  0  0  0  0  0  0
  187.3680  176.9620  144.7430 C   0  0  1  0  0  3  0  0  0  0  0  0
  185.2650  178.5080  144.9950 C   0  0  2  0  0  3  0  0  0  0  0  0
  184.2310  179.1550  144.3200 O   0  0  0  0  0  0  0  0  0  0  0  0
  184.0020  178.9620  142.9310 C   0  0  0  0  0  2  0  0  0  0  0  0
  182.5150  178.8260  142.6540 C   0  0  0  0  0  2  0  0  0  0  0  0
  183.5060  177.9380  140.8950 C   0  0  0  0  0  1  0  0  0  0  0  0
  182.3010  178.5000  141.3130 O   0  0  0  0  0  0  0  0  0  0  0  0
  188.3750  178.2250  141.3840 C   0  0  0  0  0  2  0  0  0  0  0  0
  189.1680  177.0410  141.0970 N   0  0  0  0  0  2  0  0  0  0  0  0
  190.2540  177.4680  140.2290 C   0  0  0  0  0  2  0  0  0  0  0  0
  191.5650  177.4780  140.9930 C   0  0  0  0  0  2  0  0  0  0  0  0
  191.5320  177.2670  143.5110 C   0  0  0  0  0  0  0  0  0  0  0  0
  191.8040  178.4890  143.6500 O   0  0  0  0  0  0  0  0  0  0  0  0
  191.4290  176.6900  142.2100 N   0  0  0  0  0  2  0  0  0  0  0  0
  191.3310  176.4120  144.7140 C   0  0  0  0  0  2  0  0  0  0  0  0
  191.3340  177.2700  145.9650 C   0  0  0  0  0  2  0  0  0  0  0  0
  191.2060  176.3890  147.1890 C   0  0  1  0  0  3  0  0  0  0  0  0
  192.3810  175.5340  147.3100 C   0  0  0  0  0  2  0  0  0  0  0  0
  192.2680  176.7390  148.1440 N   0  0  0  0  0  2  0  0  0  0  0  0
  2  4  1  0  0  0  0
  3  1  1  1  0  0  0
  3  6  1  0  0  0  0
  3  7  1  0  0  0  0
  5  4  1  0  0  0  0
  6  7  1  0  0  0  0
  6  8  1  0  0  0  0
  7  5  1  0  0  0  0
  8  2  1  0  0  0  0
  9  8  1  0  0  0  0
 10  9  1  0  0  0  0
 11 10  1  0  0  0  0
 12 13  1  0  0  0  0
 13 11  1  0  0  0  0
 14  1  1  0  0  0  0
 15 14  1  0  0  0  0
 16 17  1  0  0  0  0
 16 15  1  0  0  0  0
 17 20  1  0  0  0  0
 18 19  2  0  0  0  0
 18 21  1  0  0  0  0
 20 18  1  0  0  0  0
 21 22  1  0  0  0  0
 22 23  1  0  0  0  0
 23 24  1  0  0  0  0
 23 25  1  0  0  0  0
 24 25  1  0  0  0  0
M  END
>  <MODEL>
7

>  <REMARK>
 VINA RESULT:      -6.0      2.305      5.051
  Name = 
  13 active torsions:
  status: ('A' for Active; 'I' for Inactive)
    1  A    between atoms: C_2  and  C_3
    2  A    between atoms: C_2  and  C_5
    3  A    between atoms: C_4  and  C_16
    4  A    between atoms: C_5  and  C_11
    5  A    between atoms: C_10  and  C_22
    6  A    between atoms: C_10  and  N_25
    7  A    between atoms: C_14  and  C_18
    8  A    between atoms: C_14  and  O_24
    9  A    between atoms: C_16  and  C_19
   10  A    between atoms: C_18  and  O_21
   11  A    between atoms: C_19  and  N_23
   12  A    between atoms: C_20  and  O_24
   13  A    between atoms: C_22  and  N_23
                            x       y       z     vdW  Elec       q    Type
                         _______ _______ _______ _____ _____    ______ ____

>  <TORSDO>
F 13

$$$$
=
 OpenBabel11062418103D

 25 27  0  0  1  0  0  0  0  0999 V2000
  188.6110  176.9480  144.0540 C   0  0  0  0  0  2  0  0  0  0  0  0
  190.8810  177.2600  140.2490 C   0  0  0  0  0  2  0  0  0  0  0  0
  188.9590  178.2450  143.3360 C   0  0  2  0  0  3  0  0  0  0  0  0
  191.8840  177.3240  141.3600 N   0  0  0  0  0  2  0  0  0  0  0  0
  191.3200  177.1630  142.7310 C   0  0  0  0  0  2  0  0  0  0  0  0
  189.4010  177.9600  141.9210 C   0  0  1  0  0  3  0  0  0  0  0  0
  190.3590  178.3230  143.0330 C   0  0  1  0  0  3  0  0  0  0  0  0
  189.4720  177.6440  140.6600 C   0  0  2  0  0  3  0  0  0  0  0  0
  188.3410  177.4960  139.8590 O   0  0  0  0  0  0  0  0  0  0  0  0
  188.4310  177.1320  138.4890 C   0  0  0  0  0  2  0  0  0  0  0  0
  187.3030  177.7700  137.6970 C   0  0  0  0  0  2  0  0  0  0  0  0
  185.1730  177.2250  137.5210 C   0  0  0  0  0  1  0  0  0  0  0  0
  186.4530  176.7860  137.1870 O   0  0  0  0  0  0  0  0  0  0  0  0
  188.7070  177.1280  145.5610 C   0  0  0  0  0  2  0  0  0  0  0  0
  187.3830  177.0770  146.1600 N   0  0  0  0  0  2  0  0  0  0  0  0
  187.3140  178.1750  147.1110 C   0  0  0  0  0  2  0  0  0  0  0  0
  186.0550  178.9910  146.8820 C   0  0  0  0  0  2  0  0  0  0  0  0
  184.3510  179.0000  145.0160 C   0  0  0  0  0  0  0  0  0  0  0  0
  183.3990  179.0040  145.8400 O   0  0  0  0  0  0  0  0  0  0  0  0
  185.7030  178.9630  145.4700 N   0  0  0  0  0  2  0  0  0  0  0  0
  184.0640  179.0200  143.5550 C   0  0  0  0  0  2  0  0  0  0  0  0
  185.3060  179.4350  142.7890 C   0  0  0  0  0  2  0  0  0  0  0  0
  185.4590  178.5730  141.5550 C   0  0  1  0  0  3  0  0  0  0  0  0
  184.1650  178.4140  140.8990 C   0  0  0  0  0  2  0  0  0  0  0  0
  185.1380  179.3780  140.3670 N   0  0  0  0  0  2  0  0  0  0  0  0
  1 14  1  0  0  0  0
  2  8  1  0  0  0  0
  2  4  1  0  0  0  0
  3  1  1  1  0  0  0
  4  5  1  0  0  0  0
  5  7  1  0  0  0  0
  6  7  1  0  0  0  0
  6  3  1  0  0  0  0
  7  3  1  0  0  0  0
  8  6  1  0  0  0  0
  9  8  1  0  0  0  0
 10  9  1  0  0  0  0
 11 10  1  0  0  0  0
 13 12  1  0  0  0  0
 13 11  1  0  0  0  0
 14 15  1  0  0  0  0
 15 16  1  0  0  0  0
 17 16  1  0  0  0  0
 18 20  1  0  0  0  0
 18 19  2  0  0  0  0
 20 17  1  0  0  0  0
 21 18  1  0  0  0  0
 22 21  1  0  0  0  0
 23 22  1  0  0  0  0
 24 23  1  0  0  0  0
 25 24  1  0  0  0  0
 25 23  1  0  0  0  0
M  END
>  <MODEL>
8

>  <REMARK>
 VINA RESULT:      -5.7      2.013      5.556
  Name = 
  13 active torsions:
  status: ('A' for Active; 'I' for Inactive)
    1  A    between atoms: C_2  and  C_3
    2  A    between atoms: C_2  and  C_5
    3  A    between atoms: C_4  and  C_16
    4  A    between atoms: C_5  and  C_11
    5  A    between atoms: C_10  and  C_22
    6  A    between atoms: C_10  and  N_25
    7  A    between atoms: C_14  and  C_18
    8  A    between atoms: C_14  and  O_24
    9  A    between atoms: C_16  and  C_19
   10  A    between atoms: C_18  and  O_21
   11  A    between atoms: C_19  and  N_23
   12  A    between atoms: C_20  and  O_24
   13  A    between atoms: C_22  and  N_23
                            x       y       z     vdW  Elec       q    Type
                         _______ _______ _______ _____ _____    ______ ____

>  <TORSDO>
F 13

$$$$
=
 OpenBabel11062418103D

 25 27  0  0  1  0  0  0  0  0999 V2000
  190.0920  178.1730  145.1030 C   0  0  0  0  0  2  0  0  0  0  0  0
  186.7580  178.6070  148.0040 C   0  0  0  0  0  2  0  0  0  0  0  0
  189.0610  177.1020  145.4310 C   0  0  2  0  0  3  0  0  0  0  0  0
  187.9260  178.0570  148.7640 N   0  0  0  0  0  2  0  0  0  0  0  0
  189.1790  177.9030  147.9710 C   0  0  0  0  0  2  0  0  0  0  0  0
  187.8880  177.7080  146.1630 C   0  0  1  0  0  3  0  0  0  0  0  0
  188.9560  176.8830  146.8440 C   0  0  1  0  0  3  0  0  0  0  0  0
  186.8160  178.3610  146.5080 C   0  0  2  0  0  3  0  0  0  0  0  0
  185.9470  178.9220  145.5750 O   0  0  0  0  0  0  0  0  0  0  0  0
  185.6690  178.2940  144.3320 C   0  0  0  0  0  2  0  0  0  0  0  0
  184.8690  179.2230  143.4360 C   0  0  0  0  0  2  0  0  0  0  0  0
  182.7180  179.0310  143.8860 C   0  0  0  0  0  1  0  0  0  0  0  0
  183.7020  178.5910  143.0010 O   0  0  0  0  0  0  0  0  0  0  0  0
  191.3080  177.5560  144.4280 C   0  0  0  0  0  2  0  0  0  0  0  0
  191.6220  178.2730  143.2030 N   0  0  0  0  0  2  0  0  0  0  0  0
  191.8190  177.2670  142.1720 C   0  0  0  0  0  2  0  0  0  0  0  0
  190.5600  176.4380  141.9980 C   0  0  0  0  0  2  0  0  0  0  0  0
  188.6730  177.7430  140.9390 C   0  0  0  0  0  0  0  0  0  0  0  0
  188.2190  178.0670  142.0680 O   0  0  0  0  0  0  0  0  0  0  0  0
  189.8240  176.9050  140.8330 N   0  0  0  0  0  2  0  0  0  0  0  0
  187.9980  178.2270  139.7030 C   0  0  0  0  0  2  0  0  0  0  0  0
  188.9780  178.2350  138.5460 C   0  0  0  0  0  2  0  0  0  0  0  0
  188.3700  177.5260  137.3550 C   0  0  1  0  0  3  0  0  0  0  0  0
  186.9670  177.9020  137.2180 C   0  0  0  0  0  2  0  0  0  0  0  0
  187.9770  178.5260  136.3520 N   0  0  0  0  0  2  0  0  0  0  0  0
  2  4  1  0  0  0  0
  3  1  1  1  0  0  0
  3  6  1  0  0  0  0
  3  7  1  0  0  0  0
  5  4  1  0  0  0  0
  6  8  1  0  0  0  0
  6  7  1  0  0  0  0
  7  5  1  0  0  0  0
  8  2  1  0  0  0  0
  9  8  1  0  0  0  0
 10  9  1  0  0  0  0
 11 10  1  0  0  0  0
 13 11  1  0  0  0  0
 13 12  1  0  0  0  0
 14  1  1  0  0  0  0
 15 14  1  0  0  0  0
 16 15  1  0  0  0  0
 17 16  1  0  0  0  0
 18 19  2  0  0  0  0
 20 18  1  0  0  0  0
 20 17  1  0  0  0  0
 21 18  1  0  0  0  0
 22 21  1  0  0  0  0
 23 22  1  0  0  0  0
 24 23  1  0  0  0  0
 25 24  1  0  0  0  0
 25 23  1  0  0  0  0
M  END
>  <MODEL>
9

>  <REMARK>
 VINA RESULT:      -5.7      1.895      2.591
  Name = 
  13 active torsions:
  status: ('A' for Active; 'I' for Inactive)
    1  A    between atoms: C_2  and  C_3
    2  A    between atoms: C_2  and  C_5
    3  A    between atoms: C_4  and  C_16
    4  A    between atoms: C_5  and  C_11
    5  A    between atoms: C_10  and  C_22
    6  A    between atoms: C_10  and  N_25
    7  A    between atoms: C_14  and  C_18
    8  A    between atoms: C_14  and  O_24
    9  A    between atoms: C_16  and  C_19
   10  A    between atoms: C_18  and  O_21
   11  A    between atoms: C_19  and  N_23
   12  A    between atoms: C_20  and  O_24
   13  A    between atoms: C_22  and  N_23
                            x       y       z     vdW  Elec       q    Type
                         _______ _______ _______ _____ _____    ______ ____

>  <TORSDO>
F 13

$$$$
