=
 OpenBabel11062415183D

 41 44  0  0  1  0  0  0  0  0999 V2000
  187.6830  177.3450  144.0320 N   0  0  0  0  0  0  0  0  0  0  0  0
  189.9850  178.0580  144.5370 C   0  0  2  0  0  3  0  0  0  0  0  0
  190.4630  177.0490  145.3730 O   0  0  0  0  0  1  0  0  0  0  0  0
  190.4930  177.2030  141.7510 C   0  0  0  0  0  0  0  0  0  0  0  0
  189.2720  177.0340  142.2850 C   0  0  0  0  0  3  0  0  0  0  0  0
  191.6140  177.8480  142.5290 C   0  0  0  0  0  2  0  0  0  0  0  0
  188.9160  177.4980  143.6370 C   0  0  0  0  0  0  0  0  0  0  0  0
  191.6760  179.6330  144.0720 O   0  0  0  0  0  0  0  0  0  0  0  0
  191.1170  178.6060  143.7250 C   0  0  0  0  0  0  0  0  0  0  0  0
  190.0270  176.9070  136.6590 C   0  0  0  0  0  2  0  0  0  0  0  0
  190.4550  177.2110  139.2230 C   0  0  0  0  0  0  0  0  0  0  0  0
  191.3700  175.1350  137.9460 C   0  0  0  0  0  2  0  0  0  0  0  0
  189.2250  178.9070  137.9230 C   0  0  0  0  0  2  0  0  0  0  0  0
  190.8310  176.6950  140.4050 C   0  0  0  0  0  3  0  0  0  0  0  0
  190.8360  176.5520  137.9110 C   0  0  1  0  0  0  0  0  0  0  0  0
  192.3090  176.2870  137.6050 C   0  0  1  0  0  3  0  0  0  0  0  0
  189.6440  178.3480  139.1690 O   0  0  0  0  0  0  0  0  0  0  0  0
  188.7930  177.8120  136.9350 C   0  0  2  0  0  0  0  0  0  0  0  0
  187.6280  177.0370  137.5440 C   0  0  0  0  0  0  0  0  0  0  0  0
  187.6180  175.8150  137.5530 O   0  0  0  0  0  0  0  0  0  0  0  0
  186.4720  177.7800  138.1370 C   0  0  0  0  0  2  0  0  0  0  0  0
  185.3150  177.0040  138.0550 O   0  0  0  0  0  1  0  0  0  0  0  0
  188.3880  178.4700  135.7450 O   0  0  0  0  0  0  0  0  0  0  0  0
  187.8990  177.5380  134.8070 C   0  0  0  0  0  2  0  0  0  0  0  0
  186.4180  177.7650  134.5950 C   0  0  0  0  0  1  0  0  0  0  0  0
  193.1360  176.5520  138.7040 O   0  0  0  0  0  0  0  0  0  0  0  0
  194.8160  175.6180  139.6790 C   0  0  0  0  0  1  0  0  0  0  0  0
  194.2680  175.9350  138.4320 O   0  0  0  0  0  0  0  0  0  0  0  0
  187.1070  177.7410  145.2860 C   0  0  0  0  0  0  0  0  0  0  0  0
  187.6240  177.3950  146.3840 O   0  0  0  0  0  0  0  0  0  0  0  0
  185.9270  178.6710  145.2720 C   0  0  1  0  0  3  0  0  0  0  0  0
  183.8570  179.1570  144.2950 N   0  0  0  0  0  2  0  0  0  0  0  0
  184.8180  178.1390  144.4600 N   0  0  0  0  0  0  0  0  0  0  0  0
  184.2940  178.2750  142.1280 C   0  0  1  0  0  3  0  0  0  0  0  0
  185.3300  177.8350  143.1240 C   0  0  0  0  0  2  0  0  0  0  0  0
  183.2650  178.9690  142.9790 C   0  0  0  0  0  2  0  0  0  0  0  0
  184.9210  179.2690  141.1620 C   0  0  0  0  0  2  0  0  0  0  0  0
  186.3100  179.1610  141.2100 O   0  0  0  0  0  1  0  0  0  0  0  0
  185.5180  178.9520  146.6890 C   0  0  0  0  0  0  0  0  0  0  0  0
  186.0400  180.0590  147.3400 O   0  0  0  0  0  1  0  0  0  0  0  0
  184.7500  178.1680  147.3050 O   0  0  0  0  0  0  0  0  0  0  0  0
  1 29  1  0  0  0  0
  2  3  1  1  0  0  0
  4  5  2  0  0  0  0
  4  6  1  0  0  0  0
  5  7  1  0  0  0  0
  6  9  1  0  0  0  0
  7  1  2  0  0  0  0
  7  2  1  0  0  0  0
  9  8  2  0  0  0  0
  9  2  1  0  0  0  0
 10 18  1  0  0  0  0
 11 14  2  0  0  0  0
 13 17  1  0  0  0  0
 14  4  1  0  0  0  0
 15 10  1  6  0  0  0
 15 12  1  0  0  0  0
 15 11  1  0  0  0  0
 16 15  1  0  0  0  0
 16 12  1  0  0  0  0
 16 26  1  1  0  0  0
 17 11  1  0  0  0  0
 18 23  1  6  0  0  0
 18 19  1  0  0  0  0
 18 13  1  0  0  0  0
 19 20  2  0  0  0  0
 19 21  1  0  0  0  0
 22 21  1  0  0  0  0
 24 23  1  0  0  0  0
 25 24  1  0  0  0  0
 28 26  1  0  0  0  0
 28 27  1  0  0  0  0
 29 30  2  0  0  0  0
 31 29  1  1  0  0  0
 31 39  1  0  0  0  0
 32 33  1  0  0  0  0
 33 31  1  0  0  0  0
 34 37  1  6  0  0  0
 34 36  1  0  0  0  0
 34 35  1  0  0  0  0
 35 33  1  0  0  0  0
 36 32  1  0  0  0  0
 37 38  1  0  0  0  0
 39 41  2  0  0  0  0
 39 40  1  0  0  0  0
M  END
>  <MODEL>
1

>  <REMARK>
 VINA RESULT:      -7.6      0.000      0.000
  Name = 
  12 active torsions:
  status: ('A' for Active; 'I' for Inactive)
    1  A    between atoms: C_2  and  C_9
    2  A    between atoms: C_2  and  C_13
    3  A    between atoms: C_2  and  N_27
    4  A    between atoms: C_7  and  C_31
    5  A    between atoms: O_8  and  C_34
    6  A    between atoms: O_8  and  C_39
    7  A    between atoms: O_10  and  O_18
    8  A    between atoms: O_10  and  C_30
    9  A    between atoms: N_11  and  C_13
   10  A    between atoms: C_15  and  C_16
   11  A    between atoms: C_16  and  C_39
   12  A    between atoms: C_17  and  C_21
                            x       y       z     vdW  Elec       q    Type
                         _______ _______ _______ _____ _____    ______ ____

>  <TORSDO>
F 12

$$$$
=
 OpenBabel11062415183D

 41 44  0  0  1  0  0  0  0  0999 V2000
  188.5100  178.1380  138.6180 N   0  0  0  0  0  0  0  0  0  0  0  0
  186.0950  178.6020  138.7600 C   0  0  2  0  0  3  0  0  0  0  0  0
  185.5100  177.4370  138.2650 O   0  0  0  0  0  1  0  0  0  0  0  0
  186.5390  178.2000  141.6570 C   0  0  0  0  0  0  0  0  0  0  0  0
  187.5570  178.0240  140.7990 C   0  0  0  0  0  3  0  0  0  0  0  0
  185.1710  178.6280  141.1830 C   0  0  0  0  0  2  0  0  0  0  0  0
  187.4400  178.2750  139.3520 C   0  0  0  0  0  0  0  0  0  0  0  0
  184.4500  180.1190  139.5010 O   0  0  0  0  0  0  0  0  0  0  0  0
  185.2000  179.2040  139.7980 C   0  0  0  0  0  0  0  0  0  0  0  0
  189.1430  177.3600  145.9870 C   0  0  0  0  0  2  0  0  0  0  0  0
  187.7830  178.0220  143.8500 C   0  0  0  0  0  0  0  0  0  0  0  0
  186.6350  176.8150  145.8510 C   0  0  0  0  0  2  0  0  0  0  0  0
  190.1770  178.5720  144.0620 C   0  0  0  0  0  2  0  0  0  0  0  0
  186.6760  177.9060  143.0990 C   0  0  0  0  0  3  0  0  0  0  0  0
  187.7920  177.6350  145.3170 C   0  0  1  0  0  0  0  0  0  0  0  0
  186.7820  178.2750  146.2670 C   0  0  1  0  0  3  0  0  0  0  0  0
  188.9860  178.4510  143.2830 O   0  0  0  0  0  0  0  0  0  0  0  0
  190.3510  177.3730  145.0080 C   0  0  2  0  0  0  0  0  0  0  0  0
  190.4370  176.1000  144.1720 C   0  0  0  0  0  0  0  0  0  0  0  0
  189.4410  175.4310  143.9370 O   0  0  0  0  0  0  0  0  0  0  0  0
  191.7590  175.6540  143.6320 C   0  0  0  0  0  2  0  0  0  0  0  0
  192.1670  174.4860  144.2780 O   0  0  0  0  0  1  0  0  0  0  0  0
  191.5600  177.5850  145.7210 O   0  0  0  0  0  0  0  0  0  0  0  0
  191.4230  177.1680  147.0600 C   0  0  0  0  0  2  0  0  0  0  0  0
  192.2560  175.9250  147.2900 C   0  0  0  0  0  1  0  0  0  0  0  0
  185.8310  179.0480  145.5900 O   0  0  0  0  0  0  0  0  0  0  0  0
  183.7240  179.0150  145.1380 C   0  0  0  0  0  1  0  0  0  0  0  0
  184.6740  178.6960  146.1130 O   0  0  0  0  0  0  0  0  0  0  0  0
  188.6380  178.3540  137.2050 C   0  0  0  0  0  0  0  0  0  0  0  0
  188.5620  179.5110  136.7080 O   0  0  0  0  0  0  0  0  0  0  0  0
  188.9700  177.1800  136.3270 C   0  0  1  0  0  3  0  0  0  0  0  0
  189.9780  175.0740  136.1790 N   0  0  0  0  0  2  0  0  0  0  0  0
  189.6290  176.0990  137.0810 N   0  0  0  0  0  0  0  0  0  0  0  0
  191.9270  175.5450  137.4620 C   0  0  1  0  0  3  0  0  0  0  0  0
  190.8850  176.6160  137.6240 C   0  0  0  0  0  2  0  0  0  0  0  0
  191.2140  174.4830  136.6700 C   0  0  0  0  0  2  0  0  0  0  0  0
  193.0900  176.0980  136.6540 C   0  0  0  0  0  2  0  0  0  0  0  0
  193.8670  176.9340  137.4550 O   0  0  0  0  0  1  0  0  0  0  0  0
  187.7140  176.7200  135.6430 C   0  0  0  0  0  0  0  0  0  0  0  0
  187.0310  175.6240  136.1450 O   0  0  0  0  0  1  0  0  0  0  0  0
  187.3090  177.2840  134.5940 O   0  0  0  0  0  0  0  0  0  0  0  0
  1  7  2  0  0  0  0
  2  3  1  1  0  0  0
  2  7  1  0  0  0  0
  2  9  1  0  0  0  0
  4 14  1  0  0  0  0
  5  4  2  0  0  0  0
  6  4  1  0  0  0  0
  7  5  1  0  0  0  0
  8  9  2  0  0  0  0
  9  6  1  0  0  0  0
 11 15  1  0  0  0  0
 12 16  1  0  0  0  0
 13 18  1  0  0  0  0
 14 11  2  0  0  0  0
 15 12  1  6  0  0  0
 15 10  1  0  0  0  0
 15 16  1  0  0  0  0
 16 26  1  6  0  0  0
 17 11  1  0  0  0  0
 17 13  1  0  0  0  0
 18 19  1  6  0  0  0
 18 23  1  0  0  0  0
 18 10  1  0  0  0  0
 20 19  2  0  0  0  0
 21 19  1  0  0  0  0
 21 22  1  0  0  0  0
 23 24  1  0  0  0  0
 24 25  1  0  0  0  0
 26 28  1  0  0  0  0
 27 28  1  0  0  0  0
 29  1  1  0  0  0  0
 30 29  2  0  0  0  0
 31 39  1  1  0  0  0
 31 33  1  0  0  0  0
 31 29  1  0  0  0  0
 32 36  1  0  0  0  0
 32 33  1  0  0  0  0
 33 35  1  0  0  0  0
 34 37  1  6  0  0  0
 34 35  1  0  0  0  0
 36 34  1  0  0  0  0
 37 38  1  0  0  0  0
 39 40  1  0  0  0  0
 41 39  2  0  0  0  0
M  END
>  <MODEL>
2

>  <REMARK>
 VINA RESULT:      -6.9      2.626      9.110
  Name = 
  12 active torsions:
  status: ('A' for Active; 'I' for Inactive)
    1  A    between atoms: C_2  and  C_9
    2  A    between atoms: C_2  and  C_13
    3  A    between atoms: C_2  and  N_27
    4  A    between atoms: C_7  and  C_31
    5  A    between atoms: O_8  and  C_34
    6  A    between atoms: O_8  and  C_39
    7  A    between atoms: O_10  and  O_18
    8  A    between atoms: O_10  and  C_30
    9  A    between atoms: N_11  and  C_13
   10  A    between atoms: C_15  and  C_16
   11  A    between atoms: C_16  and  C_39
   12  A    between atoms: C_17  and  C_21
                            x       y       z     vdW  Elec       q    Type
                         _______ _______ _______ _____ _____    ______ ____

>  <TORSDO>
F 12

$$$$
=
 OpenBabel11062415183D

 41 44  0  0  1  0  0  0  0  0999 V2000
  186.5400  177.8680  144.1150 N   0  0  0  0  0  0  0  0  0  0  0  0
  184.3770  179.0200  144.3570 C   0  0  2  0  0  3  0  0  0  0  0  0
  184.7170  180.3710  144.2810 O   0  0  0  0  0  1  0  0  0  0  0  0
  183.9490  178.0640  141.5910 C   0  0  0  0  0  0  0  0  0  0  0  0
  185.1230  177.8280  142.2000 C   0  0  0  0  0  3  0  0  0  0  0  0
  182.8240  178.7830  142.2930 C   0  0  0  0  0  2  0  0  0  0  0  0
  185.3910  178.2050  143.5990 C   0  0  0  0  0  0  0  0  0  0  0  0
  182.0410  178.7490  144.5200 O   0  0  0  0  0  0  0  0  0  0  0  0
  183.0090  178.8190  143.7820 C   0  0  0  0  0  0  0  0  0  0  0  0
  181.8150  178.5920  136.9650 C   0  0  0  0  0  2  0  0  0  0  0  0
  183.1000  178.4450  139.2400 C   0  0  0  0  0  0  0  0  0  0  0  0
  183.1010  176.4510  137.5660 C   0  0  0  0  0  2  0  0  0  0  0  0
  181.8990  180.4940  138.5820 C   0  0  0  0  0  2  0  0  0  0  0  0
  183.7220  177.7070  140.1750 C   0  0  0  0  0  3  0  0  0  0  0  0
  182.8920  177.9280  137.8290 C   0  0  1  0  0  0  0  0  0  0  0  0
  184.0980  177.4650  137.0140 C   0  0  1  0  0  3  0  0  0  0  0  0
  182.5710  179.6990  139.5590 O   0  0  0  0  0  0  0  0  0  0  0  0
  180.9530  179.6430  137.7200 C   0  0  2  0  0  0  0  0  0  0  0  0
  179.9130  178.9970  138.6300 C   0  0  0  0  0  0  0  0  0  0  0  0
  179.4080  179.6190  139.5530 O   0  0  0  0  0  0  0  0  0  0  0  0
  179.5050  177.5760  138.3990 C   0  0  0  0  0  2  0  0  0  0  0  0
  179.9410  176.7780  139.4570 O   0  0  0  0  0  1  0  0  0  0  0  0
  180.3320  180.5270  136.7990 O   0  0  0  0  0  0  0  0  0  0  0  0
  180.7310  181.8560  137.0450 C   0  0  0  0  0  2  0  0  0  0  0  0
  180.5760  182.6720  135.7800 C   0  0  0  0  0  1  0  0  0  0  0  0
  185.2710  177.4240  137.7780 O   0  0  0  0  0  0  0  0  0  0  0  0
  187.3800  177.8660  137.7380 C   0  0  0  0  0  1  0  0  0  0  0  0
  186.2270  177.7940  136.9500 O   0  0  0  0  0  0  0  0  0  0  0  0
  187.0050  178.1030  145.4520 C   0  0  0  0  0  0  0  0  0  0  0  0
  186.3040  178.7380  146.2880 O   0  0  0  0  0  0  0  0  0  0  0  0
  188.3070  177.4870  145.8780 C   0  0  1  0  0  3  0  0  0  0  0  0
  190.6320  177.4600  145.6100 N   0  0  0  0  0  2  0  0  0  0  0  0
  189.4630  178.1720  145.2720 N   0  0  0  0  0  0  0  0  0  0  0  0
  190.7010  177.8050  143.2560 C   0  0  1  0  0  3  0  0  0  0  0  0
  189.3360  178.0890  143.8170 C   0  0  0  0  0  2  0  0  0  0  0  0
  191.5440  177.5870  144.4840 C   0  0  0  0  0  2  0  0  0  0  0  0
  190.6460  176.5270  142.4340 C   0  0  0  0  0  2  0  0  0  0  0  0
  189.6280  175.7020  142.9100 O   0  0  0  0  0  1  0  0  0  0  0  0
  188.3680  177.4780  147.3790 C   0  0  0  0  0  0  0  0  0  0  0  0
  188.8410  178.5980  148.0450 O   0  0  0  0  0  1  0  0  0  0  0  0
  188.0440  176.4510  148.0300 O   0  0  0  0  0  0  0  0  0  0  0  0
  1 29  1  0  0  0  0
  2  3  1  6  0  0  0
  4  5  2  0  0  0  0
  4  6  1  0  0  0  0
  5  7  1  0  0  0  0
  6  9  1  0  0  0  0
  7  1  2  0  0  0  0
  7  2  1  0  0  0  0
  9  2  1  0  0  0  0
  9  8  2  0  0  0  0
 10 18  1  0  0  0  0
 11 17  1  0  0  0  0
 11 14  2  0  0  0  0
 12 15  1  0  0  0  0
 13 17  1  0  0  0  0
 14  4  1  0  0  0  0
 15 10  1  6  0  0  0
 15 11  1  0  0  0  0
 16 12  1  0  0  0  0
 16 26  1  1  0  0  0
 16 15  1  0  0  0  0
 18 23  1  6  0  0  0
 18 13  1  0  0  0  0
 18 19  1  0  0  0  0
 19 20  2  0  0  0  0
 21 19  1  0  0  0  0
 21 22  1  0  0  0  0
 23 24  1  0  0  0  0
 25 24  1  0  0  0  0
 28 27  1  0  0  0  0
 28 26  1  0  0  0  0
 29 30  2  0  0  0  0
 31 29  1  1  0  0  0
 31 39  1  0  0  0  0
 33 32  1  0  0  0  0
 33 31  1  0  0  0  0
 34 37  1  6  0  0  0
 34 35  1  0  0  0  0
 34 36  1  0  0  0  0
 35 33  1  0  0  0  0
 36 32  1  0  0  0  0
 37 38  1  0  0  0  0
 39 41  2  0  0  0  0
 39 40  1  0  0  0  0
M  END
>  <MODEL>
3

>  <REMARK>
 VINA RESULT:      -6.8      3.496      6.806
  Name = 
  12 active torsions:
  status: ('A' for Active; 'I' for Inactive)
    1  A    between atoms: C_2  and  C_9
    2  A    between atoms: C_2  and  C_13
    3  A    between atoms: C_2  and  N_27
    4  A    between atoms: C_7  and  C_31
    5  A    between atoms: O_8  and  C_34
    6  A    between atoms: O_8  and  C_39
    7  A    between atoms: O_10  and  O_18
    8  A    between atoms: O_10  and  C_30
    9  A    between atoms: N_11  and  C_13
   10  A    between atoms: C_15  and  C_16
   11  A    between atoms: C_16  and  C_39
   12  A    between atoms: C_17  and  C_21
                            x       y       z     vdW  Elec       q    Type
                         _______ _______ _______ _____ _____    ______ ____

>  <TORSDO>
F 12

$$$$
=
 OpenBabel11062415183D

 41 44  0  0  1  0  0  0  0  0999 V2000
  184.5060  178.3300  143.9430 N   0  0  0  0  0  0  0  0  0  0  0  0
  184.8830  178.8520  146.3200 C   0  0  2  0  0  3  0  0  0  0  0  0
  184.1460  177.8740  146.9890 O   0  0  0  0  0  1  0  0  0  0  0  0
  187.5640  177.7190  145.7870 C   0  0  0  0  0  0  0  0  0  0  0  0
  186.6370  177.7180  144.8140 C   0  0  0  0  0  3  0  0  0  0  0  0
  187.2830  178.3140  147.1450 C   0  0  0  0  0  2  0  0  0  0  0  0
  185.3050  178.3270  144.9730 C   0  0  0  0  0  0  0  0  0  0  0  0
  186.0610  180.2070  147.8460 O   0  0  0  0  0  0  0  0  0  0  0  0
  186.0830  179.2150  147.1380 C   0  0  0  0  0  0  0  0  0  0  0  0
  191.9820  176.7830  143.3710 C   0  0  0  0  0  2  0  0  0  0  0  0
  189.8490  177.4180  144.7490 C   0  0  0  0  0  0  0  0  0  0  0  0
  191.1920  175.2510  145.2760 C   0  0  0  0  0  2  0  0  0  0  0  0
  190.6900  178.8790  142.9510 C   0  0  0  0  0  2  0  0  0  0  0  0
  188.8790  177.0690  145.6110 C   0  0  0  0  0  3  0  0  0  0  0  0
  191.1380  176.6240  144.6400 C   0  0  1  0  0  0  0  0  0  0  0  0
  191.9870  176.3990  145.8890 C   0  0  1  0  0  3  0  0  0  0  0  0
  189.6740  178.4980  143.8800 O   0  0  0  0  0  0  0  0  0  0  0  0
  191.3140  177.6510  142.2680 C   0  0  2  0  0  0  0  0  0  0  0  0
  190.2180  176.8990  141.5190 C   0  0  0  0  0  0  0  0  0  0  0  0
  189.9810  175.7250  141.7600 O   0  0  0  0  0  0  0  0  0  0  0  0
  189.4210  177.6040  140.4670 C   0  0  0  0  0  2  0  0  0  0  0  0
  188.1310  177.8560  140.9380 O   0  0  0  0  0  1  0  0  0  0  0  0
  192.2930  178.1390  141.3640 O   0  0  0  0  0  0  0  0  0  0  0  0
  193.0370  177.0720  140.8190 C   0  0  0  0  0  2  0  0  0  0  0  0
  193.0670  177.1960  139.3110 C   0  0  0  0  0  1  0  0  0  0  0  0
  191.3460  176.8370  147.0550 O   0  0  0  0  0  0  0  0  0  0  0  0
  192.7960  175.6390  148.1070 C   0  0  0  0  0  1  0  0  0  0  0  0
  192.3060  176.9390  147.9510 O   0  0  0  0  0  0  0  0  0  0  0  0
  183.1860  178.8850  143.8580 C   0  0  0  0  0  0  0  0  0  0  0  0
  182.5910  179.3230  144.8810 O   0  0  0  0  0  0  0  0  0  0  0  0
  182.5550  179.0350  142.5020 C   0  0  1  0  0  3  0  0  0  0  0  0
  181.8220  177.7030  140.7230 N   0  0  0  0  0  2  0  0  0  0  0  0
  182.8970  177.9110  141.6110 N   0  0  0  0  0  0  0  0  0  0  0  0
  183.7930  177.8060  139.3930 C   0  0  1  0  0  3  0  0  0  0  0  0
  184.0400  178.3080  140.7880 C   0  0  0  0  0  2  0  0  0  0  0  0
  182.3960  177.2520  139.4640 C   0  0  0  0  0  2  0  0  0  0  0  0
  183.8360  178.9790  138.4260 C   0  0  0  0  0  2  0  0  0  0  0  0
  184.2210  180.1360  139.1030 O   0  0  0  0  0  1  0  0  0  0  0  0
  181.0720  179.1980  142.6750 C   0  0  0  0  0  0  0  0  0  0  0  0
  180.3630  178.2450  143.3900 O   0  0  0  0  0  1  0  0  0  0  0  0
  180.4640  180.1600  142.1370 O   0  0  0  0  0  0  0  0  0  0  0  0
  1  7  2  0  0  0  0
  2  3  1  1  0  0  0
  2  9  1  0  0  0  0
  4  6  1  0  0  0  0
  5  7  1  0  0  0  0
  5  4  2  0  0  0  0
  7  2  1  0  0  0  0
  9  6  1  0  0  0  0
  9  8  2  0  0  0  0
 11 14  2  0  0  0  0
 12 16  1  0  0  0  0
 13 17  1  0  0  0  0
 14  4  1  0  0  0  0
 15 10  1  6  0  0  0
 15 11  1  0  0  0  0
 15 12  1  0  0  0  0
 15 16  1  0  0  0  0
 16 26  1  1  0  0  0
 17 11  1  0  0  0  0
 18 23  1  6  0  0  0
 18 13  1  0  0  0  0
 18 10  1  0  0  0  0
 19 20  2  0  0  0  0
 19 18  1  0  0  0  0
 21 22  1  0  0  0  0
 21 19  1  0  0  0  0
 24 23  1  0  0  0  0
 25 24  1  0  0  0  0
 26 28  1  0  0  0  0
 28 27  1  0  0  0  0
 29  1  1  0  0  0  0
 29 30  2  0  0  0  0
 31 39  1  1  0  0  0
 31 29  1  0  0  0  0
 32 33  1  0  0  0  0
 33 31  1  0  0  0  0
 34 37  1  6  0  0  0
 34 36  1  0  0  0  0
 34 35  1  0  0  0  0
 35 33  1  0  0  0  0
 36 32  1  0  0  0  0
 37 38  1  0  0  0  0
 39 40  1  0  0  0  0
 41 39  2  0  0  0  0
M  END
>  <MODEL>
4

>  <REMARK>
 VINA RESULT:      -6.6      2.638      5.861
  Name = 
  12 active torsions:
  status: ('A' for Active; 'I' for Inactive)
    1  A    between atoms: C_2  and  C_9
    2  A    between atoms: C_2  and  C_13
    3  A    between atoms: C_2  and  N_27
    4  A    between atoms: C_7  and  C_31
    5  A    between atoms: O_8  and  C_34
    6  A    between atoms: O_8  and  C_39
    7  A    between atoms: O_10  and  O_18
    8  A    between atoms: O_10  and  C_30
    9  A    between atoms: N_11  and  C_13
   10  A    between atoms: C_15  and  C_16
   11  A    between atoms: C_16  and  C_39
   12  A    between atoms: C_17  and  C_21
                            x       y       z     vdW  Elec       q    Type
                         _______ _______ _______ _____ _____    ______ ____

>  <TORSDO>
F 12

$$$$
=
 OpenBabel11062415183D

 41 44  0  0  1  0  0  0  0  0999 V2000
  187.1950  177.4230  137.5000 N   0  0  0  0  0  0  0  0  0  0  0  0
  189.4200  176.4020  137.2340 C   0  0  2  0  0  3  0  0  0  0  0  0
  190.1190  177.3380  136.4730 O   0  0  0  0  0  1  0  0  0  0  0  0
  189.7310  177.1690  140.0740 C   0  0  0  0  0  0  0  0  0  0  0  0
  188.6110  177.5060  139.4140 C   0  0  0  0  0  3  0  0  0  0  0  0
  190.8320  176.3790  139.4100 C   0  0  0  0  0  2  0  0  0  0  0  0
  188.3450  177.1000  138.0240 C   0  0  0  0  0  0  0  0  0  0  0  0
  190.8180  174.6070  137.8500 O   0  0  0  0  0  0  0  0  0  0  0  0
  190.3710  175.7000  138.1530 C   0  0  0  0  0  0  0  0  0  0  0  0
  188.5290  177.9330  144.9940 C   0  0  0  0  0  2  0  0  0  0  0  0
  189.2600  177.3380  142.5520 C   0  0  0  0  0  0  0  0  0  0  0  0
  190.5940  179.0680  143.9690 C   0  0  0  0  0  2  0  0  0  0  0  0
  187.3250  176.2380  143.6100 C   0  0  0  0  0  2  0  0  0  0  0  0
  189.9860  177.6210  141.4580 C   0  0  0  0  0  3  0  0  0  0  0  0
  189.6130  177.9160  143.9100 C   0  0  1  0  0  0  0  0  0  0  0  0
  191.0120  177.6930  144.4790 C   0  0  1  0  0  3  0  0  0  0  0  0
  188.1150  176.5430  142.4600 O   0  0  0  0  0  0  0  0  0  0  0  0
  187.1280  177.4770  144.4990 C   0  0  2  0  0  0  0  0  0  0  0  0
  186.4180  178.5540  143.6850 C   0  0  0  0  0  0  0  0  0  0  0  0
  187.0320  179.2510  142.8910 O   0  0  0  0  0  0  0  0  0  0  0  0
  184.9480  178.7700  143.8610 C   0  0  0  0  0  2  0  0  0  0  0  0
  184.2560  178.2430  142.7690 O   0  0  0  0  0  1  0  0  0  0  0  0
  186.3250  177.0690  145.5970 O   0  0  0  0  0  0  0  0  0  0  0  0
  186.8360  177.5940  146.8010 C   0  0  0  0  0  2  0  0  0  0  0  0
  185.8720  178.6230  147.3530 C   0  0  0  0  0  1  0  0  0  0  0  0
  191.8750  177.0970  143.5510 O   0  0  0  0  0  0  0  0  0  0  0  0
  191.9440  175.9480  145.3740 C   0  0  0  0  0  1  0  0  0  0  0  0
  192.0330  175.8610  143.9810 O   0  0  0  0  0  0  0  0  0  0  0  0
  186.7110  177.1140  136.1850 C   0  0  0  0  0  0  0  0  0  0  0  0
  187.2000  177.6640  135.1600 O   0  0  0  0  0  0  0  0  0  0  0  0
  185.6740  176.0370  136.0360 C   0  0  1  0  0  3  0  0  0  0  0  0
  184.5370  174.3830  137.2400 N   0  0  0  0  0  2  0  0  0  0  0  0
  185.7890  175.0140  137.0910 N   0  0  0  0  0  0  0  0  0  0  0  0
  186.1540  172.6490  137.0330 C   0  0  1  0  0  3  0  0  0  0  0  0
  186.7190  173.9820  136.6320 C   0  0  0  0  0  2  0  0  0  0  0  0
  184.8030  172.9970  137.5960 C   0  0  0  0  0  2  0  0  0  0  0  0
  185.9900  171.7830  135.7940 C   0  0  0  0  0  2  0  0  0  0  0  0
  184.8210  171.0290  135.8950 O   0  0  0  0  0  1  0  0  0  0  0  0
  184.3150  176.6770  136.0040 C   0  0  0  0  0  0  0  0  0  0  0  0
  183.4790  176.4390  134.9250 O   0  0  0  0  0  0  0  0  0  0  0  0
  183.9530  177.4640  136.9170 O   0  0  0  0  0  1  0  0  0  0  0  0
  1  7  2  0  0  0  0
  2  3  1  1  0  0  0
  2  7  1  0  0  0  0
  2  9  1  0  0  0  0
  4 14  1  0  0  0  0
  5  4  2  0  0  0  0
  6  4  1  0  0  0  0
  7  5  1  0  0  0  0
  8  9  2  0  0  0  0
  9  6  1  0  0  0  0
 11 15  1  0  0  0  0
 12 16  1  0  0  0  0
 13 18  1  0  0  0  0
 14 11  2  0  0  0  0
 15 12  1  6  0  0  0
 15 16  1  0  0  0  0
 15 10  1  0  0  0  0
 16 26  1  6  0  0  0
 17 11  1  0  0  0  0
 17 13  1  0  0  0  0
 18 19  1  6  0  0  0
 18 10  1  0  0  0  0
 18 23  1  0  0  0  0
 19 21  1  0  0  0  0
 20 19  2  0  0  0  0
 22 21  1  0  0  0  0
 23 24  1  0  0  0  0
 24 25  1  0  0  0  0
 26 28  1  0  0  0  0
 28 27  1  0  0  0  0
 29  1  1  0  0  0  0
 30 29  2  0  0  0  0
 31 39  1  1  0  0  0
 31 29  1  0  0  0  0
 31 33  1  0  0  0  0
 32 36  1  0  0  0  0
 33 32  1  0  0  0  0
 34 37  1  6  0  0  0
 34 36  1  0  0  0  0
 35 34  1  0  0  0  0
 35 33  1  0  0  0  0
 37 38  1  0  0  0  0
 39 41  1  0  0  0  0
 40 39  2  0  0  0  0
M  END
>  <MODEL>
5

>  <REMARK>
 VINA RESULT:      -6.6      3.157      7.903
  Name = 
  12 active torsions:
  status: ('A' for Active; 'I' for Inactive)
    1  A    between atoms: C_2  and  C_9
    2  A    between atoms: C_2  and  C_13
    3  A    between atoms: C_2  and  N_27
    4  A    between atoms: C_7  and  C_31
    5  A    between atoms: O_8  and  C_34
    6  A    between atoms: O_8  and  C_39
    7  A    between atoms: O_10  and  O_18
    8  A    between atoms: O_10  and  C_30
    9  A    between atoms: N_11  and  C_13
   10  A    between atoms: C_15  and  C_16
   11  A    between atoms: C_16  and  C_39
   12  A    between atoms: C_17  and  C_21
                            x       y       z     vdW  Elec       q    Type
                         _______ _______ _______ _____ _____    ______ ____

>  <TORSDO>
F 12

$$$$
=
 OpenBabel11062415183D

 41 44  0  0  1  0  0  0  0  0999 V2000
  187.9700  178.0820  141.8710 N   0  0  0  0  0  0  0  0  0  0  0  0
  188.6810  178.0230  139.5130 C   0  0  2  0  0  3  0  0  0  0  0  0
  188.9010  176.6660  139.2730 O   0  0  0  0  0  1  0  0  0  0  0  0
  185.8180  178.5540  138.9950 C   0  0  0  0  0  0  0  0  0  0  0  0
  186.2420  178.3740  140.2570 C   0  0  0  0  0  3  0  0  0  0  0  0
  186.7740  178.5210  137.8280 C   0  0  0  0  0  2  0  0  0  0  0  0
  187.6590  178.1790  140.6080 C   0  0  0  0  0  0  0  0  0  0  0  0
  188.9900  179.2840  137.5470 O   0  0  0  0  0  0  0  0  0  0  0  0
  188.2040  178.6780  138.2550 C   0  0  0  0  0  0  0  0  0  0  0  0
  181.3000  177.0460  137.1120 C   0  0  0  0  0  2  0  0  0  0  0  0
  183.5250  177.7500  138.2970 C   0  0  0  0  0  0  0  0  0  0  0  0
  181.7040  179.5140  137.7010 C   0  0  0  0  0  2  0  0  0  0  0  0
  183.0550  175.3910  137.7610 C   0  0  0  0  0  2  0  0  0  0  0  0
  184.3850  178.7130  138.6700 C   0  0  0  0  0  3  0  0  0  0  0  0
  182.0840  178.0670  137.9420 C   0  0  1  0  0  0  0  0  0  0  0  0
  181.2070  178.8010  138.9540 C   0  0  1  0  0  3  0  0  0  0  0  0
  183.9520  176.4260  138.1660 O   0  0  0  0  0  0  0  0  0  0  0  0
  182.1540  175.8500  136.6030 C   0  0  2  0  0  0  0  0  0  0  0  0
  183.0380  176.2280  135.4190 C   0  0  0  0  0  0  0  0  0  0  0  0
  182.8380  177.2530  134.7840 O   0  0  0  0  0  0  0  0  0  0  0  0
  184.1650  175.3300  135.0180 C   0  0  0  0  0  2  0  0  0  0  0  0
  185.3770  176.0150  135.1140 O   0  0  0  0  0  1  0  0  0  0  0  0
  181.3190  174.7510  136.2740 O   0  0  0  0  0  0  0  0  0  0  0  0
  181.2620  173.8360  137.3450 C   0  0  0  0  0  2  0  0  0  0  0  0
  179.8210  173.4570  137.6100 C   0  0  0  0  0  1  0  0  0  0  0  0
  181.9360  179.2510  140.0630 O   0  0  0  0  0  0  0  0  0  0  0  0
  181.6190  178.8710  142.1600 C   0  0  0  0  0  1  0  0  0  0  0  0
  181.0390  179.4190  141.0130 O   0  0  0  0  0  0  0  0  0  0  0  0
  189.2760  177.9170  142.4430 C   0  0  0  0  0  0  0  0  0  0  0  0
  190.2600  177.5590  141.7380 O   0  0  0  0  0  0  0  0  0  0  0  0
  189.4790  178.2800  143.8870 C   0  0  1  0  0  3  0  0  0  0  0  0
  188.8470  177.8810  146.1040 N   0  0  0  0  0  2  0  0  0  0  0  0
  188.7140  177.3980  144.7870 N   0  0  0  0  0  0  0  0  0  0  0  0
  186.5210  177.5430  145.7350 C   0  0  1  0  0  3  0  0  0  0  0  0
  187.2960  177.5110  144.4470 C   0  0  0  0  0  2  0  0  0  0  0  0
  187.5950  177.5950  146.7870 C   0  0  0  0  0  2  0  0  0  0  0  0
  185.6870  178.8140  145.7830 C   0  0  0  0  0  2  0  0  0  0  0  0
  185.7170  179.3500  147.0710 O   0  0  0  0  0  1  0  0  0  0  0  0
  190.9510  178.2680  144.1850 C   0  0  0  0  0  0  0  0  0  0  0  0
  191.6760  179.4430  144.0670 O   0  0  0  0  0  0  0  0  0  0  0  0
  191.5370  177.1970  144.4890 O   0  0  0  0  0  1  0  0  0  0  0  0
  1 29  1  0  0  0  0
  2  3  1  6  0  0  0
  2  7  1  0  0  0  0
  4  5  2  0  0  0  0
  5  7  1  0  0  0  0
  6  9  1  0  0  0  0
  6  4  1  0  0  0  0
  7  1  2  0  0  0  0
  8  9  2  0  0  0  0
  9  2  1  0  0  0  0
 11 14  2  0  0  0  0
 12 15  1  0  0  0  0
 12 16  1  0  0  0  0
 13 17  1  0  0  0  0
 14  4  1  0  0  0  0
 15 10  1  6  0  0  0
 15 11  1  0  0  0  0
 15 16  1  0  0  0  0
 16 26  1  1  0  0  0
 17 11  1  0  0  0  0
 18 19  1  6  0  0  0
 18 10  1  0  0  0  0
 18 13  1  0  0  0  0
 20 19  2  0  0  0  0
 21 22  1  0  0  0  0
 21 19  1  0  0  0  0
 23 18  1  0  0  0  0
 23 24  1  0  0  0  0
 24 25  1  0  0  0  0
 26 28  1  0  0  0  0
 28 27  1  0  0  0  0
 30 29  2  0  0  0  0
 31 29  1  6  0  0  0
 31 39  1  0  0  0  0
 31 33  1  0  0  0  0
 32 36  1  0  0  0  0
 33 32  1  0  0  0  0
 34 37  1  6  0  0  0
 34 36  1  0  0  0  0
 35 33  1  0  0  0  0
 35 34  1  0  0  0  0
 37 38  1  0  0  0  0
 39 41  1  0  0  0  0
 40 39  2  0  0  0  0
M  END
>  <MODEL>
6

>  <REMARK>
 VINA RESULT:      -6.5      3.262      7.083
  Name = 
  12 active torsions:
  status: ('A' for Active; 'I' for Inactive)
    1  A    between atoms: C_2  and  C_9
    2  A    between atoms: C_2  and  C_13
    3  A    between atoms: C_2  and  N_27
    4  A    between atoms: C_7  and  C_31
    5  A    between atoms: O_8  and  C_34
    6  A    between atoms: O_8  and  C_39
    7  A    between atoms: O_10  and  O_18
    8  A    between atoms: O_10  and  C_30
    9  A    between atoms: N_11  and  C_13
   10  A    between atoms: C_15  and  C_16
   11  A    between atoms: C_16  and  C_39
   12  A    between atoms: C_17  and  C_21
                            x       y       z     vdW  Elec       q    Type
                         _______ _______ _______ _____ _____    ______ ____

>  <TORSDO>
F 12

$$$$
=
 OpenBabel11062415183D

 41 44  0  0  1  0  0  0  0  0999 V2000
  185.1680  179.1630  140.1730 N   0  0  0  0  0  0  0  0  0  0  0  0
  185.8800  178.1600  138.0390 C   0  0  2  0  0  3  0  0  0  0  0  0
  185.9880  179.2570  137.1840 O   0  0  0  0  0  1  0  0  0  0  0  0
  188.4730  177.8760  139.4340 C   0  0  0  0  0  0  0  0  0  0  0  0
  187.4500  178.4900  140.0520 C   0  0  0  0  0  3  0  0  0  0  0  0
  188.3260  177.2980  138.0480 C   0  0  0  0  0  2  0  0  0  0  0  0
  186.1070  178.6080  139.4590 C   0  0  0  0  0  0  0  0  0  0  0  0
  186.5570  176.1800  136.9550 O   0  0  0  0  0  0  0  0  0  0  0  0
  186.8900  177.1260  137.6490 C   0  0  0  0  0  0  0  0  0  0  0  0
  191.8230  176.8520  143.1710 C   0  0  0  0  0  2  0  0  0  0  0  0
  190.1710  177.1570  141.1630 C   0  0  0  0  0  0  0  0  0  0  0  0
  192.5310  178.2570  141.1400 C   0  0  0  0  0  2  0  0  0  0  0  0
  189.5710  175.7710  143.1120 C   0  0  0  0  0  2  0  0  0  0  0  0
  189.8190  177.8040  140.0400 C   0  0  0  0  0  3  0  0  0  0  0  0
  191.5890  177.2100  141.6990 C   0  0  1  0  0  0  0  0  0  0  0  0
  192.7480  176.7860  140.7990 C   0  0  1  0  0  3  0  0  0  0  0  0
  189.2190  176.4570  141.9100 O   0  0  0  0  0  0  0  0  0  0  0  0
  190.5170  176.6140  143.9820 C   0  0  2  0  0  0  0  0  0  0  0  0
  189.8130  177.9170  144.3470 C   0  0  0  0  0  0  0  0  0  0  0  0
  190.3650  178.9970  144.1940 O   0  0  0  0  0  0  0  0  0  0  0  0
  188.4260  177.8800  144.9070 C   0  0  0  0  0  2  0  0  0  0  0  0
  188.4770  177.8610  146.3010 O   0  0  0  0  0  1  0  0  0  0  0  0
  190.7920  175.8510  145.1470 O   0  0  0  0  0  0  0  0  0  0  0  0
  191.7700  176.4900  145.9360 C   0  0  0  0  0  2  0  0  0  0  0  0
  192.1290  175.6050  147.1100 C   0  0  0  0  0  1  0  0  0  0  0  0
  192.3380  176.5510  139.4810 O   0  0  0  0  0  0  0  0  0  0  0  0
  193.0460  176.3830  137.4520 C   0  0  0  0  0  1  0  0  0  0  0  0
  193.4160  176.7500  138.7500 O   0  0  0  0  0  0  0  0  0  0  0  0
  183.7930  179.3590  139.8140 C   0  0  0  0  0  0  0  0  0  0  0  0
  183.4360  180.3250  139.0850 O   0  0  0  0  0  0  0  0  0  0  0  0
  182.7860  178.3270  140.2380 C   0  0  1  0  0  3  0  0  0  0  0  0
  180.4900  177.8930  140.3730 N   0  0  0  0  0  2  0  0  0  0  0  0
  181.4540  178.9180  140.4610 N   0  0  0  0  0  0  0  0  0  0  0  0
  180.0440  179.0770  142.3890 C   0  0  1  0  0  3  0  0  0  0  0  0
  181.3980  179.4210  141.8330 C   0  0  0  0  0  2  0  0  0  0  0  0
  179.4270  178.2330  141.3070 C   0  0  0  0  0  2  0  0  0  0  0  0
  180.2190  178.2500  143.6530 C   0  0  0  0  0  2  0  0  0  0  0  0
  179.1340  178.4540  144.5050 O   0  0  0  0  0  1  0  0  0  0  0  0
  182.7620  177.2280  139.2140 C   0  0  0  0  0  0  0  0  0  0  0  0
  182.4360  177.5310  137.9020 O   0  0  0  0  0  0  0  0  0  0  0  0
  182.9830  176.0340  139.5460 O   0  0  0  0  0  1  0  0  0  0  0  0
  2  3  1  6  0  0  0
  2  7  1  0  0  0  0
  4 14  1  0  0  0  0
  4  5  2  0  0  0  0
  6  4  1  0  0  0  0
  7  5  1  0  0  0  0
  7  1  2  0  0  0  0
  8  9  2  0  0  0  0
  9  2  1  0  0  0  0
  9  6  1  0  0  0  0
 10 18  1  0  0  0  0
 11 15  1  0  0  0  0
 11 17  1  0  0  0  0
 13 18  1  0  0  0  0
 14 11  2  0  0  0  0
 15 12  1  1  0  0  0
 15 10  1  0  0  0  0
 16 26  1  6  0  0  0
 16 12  1  0  0  0  0
 16 15  1  0  0  0  0
 17 13  1  0  0  0  0
 18 19  1  1  0  0  0
 18 23  1  0  0  0  0
 19 21  1  0  0  0  0
 20 19  2  0  0  0  0
 21 22  1  0  0  0  0
 23 24  1  0  0  0  0
 24 25  1  0  0  0  0
 27 28  1  0  0  0  0
 28 26  1  0  0  0  0
 29  1  1  0  0  0  0
 29 31  1  0  0  0  0
 30 29  2  0  0  0  0
 31 39  1  6  0  0  0
 31 33  1  0  0  0  0
 32 33  1  0  0  0  0
 32 36  1  0  0  0  0
 33 35  1  0  0  0  0
 34 37  1  1  0  0  0
 35 34  1  0  0  0  0
 36 34  1  0  0  0  0
 37 38  1  0  0  0  0
 39 41  1  0  0  0  0
 40 39  2  0  0  0  0
M  END
>  <MODEL>
7

>  <REMARK>
 VINA RESULT:      -6.5      2.639      6.798
  Name = 
  12 active torsions:
  status: ('A' for Active; 'I' for Inactive)
    1  A    between atoms: C_2  and  C_9
    2  A    between atoms: C_2  and  C_13
    3  A    between atoms: C_2  and  N_27
    4  A    between atoms: C_7  and  C_31
    5  A    between atoms: O_8  and  C_34
    6  A    between atoms: O_8  and  C_39
    7  A    between atoms: O_10  and  O_18
    8  A    between atoms: O_10  and  C_30
    9  A    between atoms: N_11  and  C_13
   10  A    between atoms: C_15  and  C_16
   11  A    between atoms: C_16  and  C_39
   12  A    between atoms: C_17  and  C_21
                            x       y       z     vdW  Elec       q    Type
                         _______ _______ _______ _____ _____    ______ ____

>  <TORSDO>
F 12

$$$$
=
 OpenBabel11062415183D

 41 44  0  0  1  0  0  0  0  0999 V2000
  185.7190  177.9710  143.0070 N   0  0  0  0  0  0  0  0  0  0  0  0
  183.6270  178.8120  143.9970 C   0  0  2  0  0  3  0  0  0  0  0  0
  183.9020  180.1570  144.2440 O   0  0  0  0  0  1  0  0  0  0  0  0
  182.6360  178.6140  141.2180 C   0  0  0  0  0  0  0  0  0  0  0  0
  183.9200  178.3280  141.4860 C   0  0  0  0  0  3  0  0  0  0  0  0
  181.6700  179.0090  142.3070 C   0  0  0  0  0  2  0  0  0  0  0  0
  184.4750  178.3300  142.8510 C   0  0  0  0  0  0  0  0  0  0  0  0
  181.3930  178.2980  144.5410 O   0  0  0  0  0  0  0  0  0  0  0  0
  182.1740  178.6540  143.6750 C   0  0  0  0  0  0  0  0  0  0  0  0
  181.1120  176.5100  136.8030 C   0  0  0  0  0  2  0  0  0  0  0  0
  181.6530  177.5980  139.1220 C   0  0  0  0  0  0  0  0  0  0  0  0
  181.5610  179.0350  136.9530 C   0  0  0  0  0  2  0  0  0  0  0  0
  181.1550  175.1920  138.9250 C   0  0  0  0  0  2  0  0  0  0  0  0
  182.1160  178.6380  139.8340 C   0  0  0  0  0  3  0  0  0  0  0  0
  181.1940  177.7610  137.6850 C   0  0  1  0  0  0  0  0  0  0  0  0
  180.1110  178.7860  137.3550 C   0  0  1  0  0  3  0  0  0  0  0  0
  181.6340  176.3120  139.6700 O   0  0  0  0  0  0  0  0  0  0  0  0
  181.6660  175.2210  137.4750 C   0  0  2  0  0  0  0  0  0  0  0  0
  183.1910  175.1840  137.4950 C   0  0  0  0  0  0  0  0  0  0  0  0
  183.7960  174.5460  138.3440 O   0  0  0  0  0  0  0  0  0  0  0  0
  183.9650  175.9440  136.4650 C   0  0  0  0  0  2  0  0  0  0  0  0
  185.1970  176.3370  136.9890 O   0  0  0  0  0  1  0  0  0  0  0  0
  181.1450  174.0670  136.8340 O   0  0  0  0  0  0  0  0  0  0  0  0
  180.3580  173.3180  137.7310 C   0  0  0  0  0  2  0  0  0  0  0  0
  179.1920  172.7020  136.9870 C   0  0  0  0  0  1  0  0  0  0  0  0
  179.7890  179.5920  138.4540 O   0  0  0  0  0  0  0  0  0  0  0  0
  179.7750  181.6300  139.1570 C   0  0  0  0  0  1  0  0  0  0  0  0
  179.9370  180.8280  138.0220 O   0  0  0  0  0  0  0  0  0  0  0  0
  186.4570  177.8720  144.2340 C   0  0  0  0  0  0  0  0  0  0  0  0
  186.1170  178.5280  145.2570 O   0  0  0  0  0  0  0  0  0  0  0  0
  187.5900  176.8880  144.3140 C   0  0  1  0  0  3  0  0  0  0  0  0
  188.6290  177.8810  142.4670 N   0  0  0  0  0  2  0  0  0  0  0  0
  188.2000  176.6460  142.9940 N   0  0  0  0  0  0  0  0  0  0  0  0
  190.4670  176.3820  142.2710 C   0  0  1  0  0  3  0  0  0  0  0  0
  189.4050  175.8380  143.1860 C   0  0  0  0  0  2  0  0  0  0  0  0
  189.8290  177.6130  141.6880 C   0  0  0  0  0  2  0  0  0  0  0  0
  191.6840  176.7710  143.0970 C   0  0  0  0  0  2  0  0  0  0  0  0
  191.6820  176.0690  144.3010 O   0  0  0  0  0  1  0  0  0  0  0  0
  188.5850  177.3810  145.3250 C   0  0  0  0  0  0  0  0  0  0  0  0
  189.3400  178.5080  145.0400 O   0  0  0  0  0  0  0  0  0  0  0  0
  188.7760  176.7540  146.3990 O   0  0  0  0  0  1  0  0  0  0  0  0
  1 29  1  0  0  0  0
  2  3  1  6  0  0  0
  4  5  2  0  0  0  0
  4  6  1  0  0  0  0
  5  7  1  0  0  0  0
  6  9  1  0  0  0  0
  7  1  2  0  0  0  0
  7  2  1  0  0  0  0
  9  2  1  0  0  0  0
  9  8  2  0  0  0  0
 10 18  1  0  0  0  0
 11 17  1  0  0  0  0
 11 14  2  0  0  0  0
 12 16  1  0  0  0  0
 12 15  1  0  0  0  0
 13 17  1  0  0  0  0
 14  4  1  0  0  0  0
 15 10  1  6  0  0  0
 15 11  1  0  0  0  0
 16 15  1  0  0  0  0
 16 26  1  1  0  0  0
 18 23  1  6  0  0  0
 18 19  1  0  0  0  0
 18 13  1  0  0  0  0
 19 20  2  0  0  0  0
 21 22  1  0  0  0  0
 21 19  1  0  0  0  0
 23 24  1  0  0  0  0
 25 24  1  0  0  0  0
 28 26  1  0  0  0  0
 28 27  1  0  0  0  0
 29 30  2  0  0  0  0
 31 29  1  6  0  0  0
 31 39  1  0  0  0  0
 32 33  1  0  0  0  0
 33 35  1  0  0  0  0
 33 31  1  0  0  0  0
 34 37  1  1  0  0  0
 34 35  1  0  0  0  0
 36 34  1  0  0  0  0
 36 32  1  0  0  0  0
 37 38  1  0  0  0  0
 39 41  1  0  0  0  0
 40 39  2  0  0  0  0
M  END
>  <MODEL>
8

>  <REMARK>
 VINA RESULT:      -6.4      3.905      7.970
  Name = 
  12 active torsions:
  status: ('A' for Active; 'I' for Inactive)
    1  A    between atoms: C_2  and  C_9
    2  A    between atoms: C_2  and  C_13
    3  A    between atoms: C_2  and  N_27
    4  A    between atoms: C_7  and  C_31
    5  A    between atoms: O_8  and  C_34
    6  A    between atoms: O_8  and  C_39
    7  A    between atoms: O_10  and  O_18
    8  A    between atoms: O_10  and  C_30
    9  A    between atoms: N_11  and  C_13
   10  A    between atoms: C_15  and  C_16
   11  A    between atoms: C_16  and  C_39
   12  A    between atoms: C_17  and  C_21
                            x       y       z     vdW  Elec       q    Type
                         _______ _______ _______ _____ _____    ______ ____

>  <TORSDO>
F 12

$$$$
=
 OpenBabel11062415183D

 41 44  0  0  1  0  0  0  0  0999 V2000
  184.4410  179.5160  139.2340 N   0  0  0  0  0  0  0  0  0  0  0  0
  183.9730  179.0960  141.6160 C   0  0  2  0  0  3  0  0  0  0  0  0
  183.1910  177.9410  141.5950 O   0  0  0  0  0  1  0  0  0  0  0  0
  186.8040  178.2390  141.6650 C   0  0  0  0  0  0  0  0  0  0  0  0
  186.2430  178.6100  140.5030 C   0  0  0  0  0  3  0  0  0  0  0  0
  186.0320  178.2750  142.9620 C   0  0  0  0  0  2  0  0  0  0  0  0
  184.8640  179.1190  140.4020 C   0  0  0  0  0  0  0  0  0  0  0  0
  184.4220  179.7660  143.8300 O   0  0  0  0  0  0  0  0  0  0  0  0
  184.7940  179.1160  142.8670 C   0  0  0  0  0  0  0  0  0  0  0  0
  191.2950  176.7520  139.7010 C   0  0  0  0  0  2  0  0  0  0  0  0
  189.1080  177.7260  140.7610 C   0  0  0  0  0  0  0  0  0  0  0  0
  190.6610  176.1320  142.1130 C   0  0  0  0  0  2  0  0  0  0  0  0
  189.7990  178.3320  138.4740 C   0  0  0  0  0  2  0  0  0  0  0  0
  188.1780  177.6980  141.7300 C   0  0  0  0  0  3  0  0  0  0  0  0
  190.4700  177.0830  140.9500 C   0  0  1  0  0  0  0  0  0  0  0  0
  191.3370  177.4990  142.1360 C   0  0  1  0  0  3  0  0  0  0  0  0
  188.8260  178.3020  139.5200 O   0  0  0  0  0  0  0  0  0  0  0  0
  190.5430  176.9920  138.3610 C   0  0  2  0  0  0  0  0  0  0  0  0
  189.5280  175.8950  138.0580 C   0  0  0  0  0  0  0  0  0  0  0  0
  189.8170  174.7140  138.1880 O   0  0  0  0  0  0  0  0  0  0  0  0
  188.1560  176.2620  137.5870 C   0  0  0  0  0  2  0  0  0  0  0  0
  188.1370  176.3420  136.1940 O   0  0  0  0  0  1  0  0  0  0  0  0
  191.4690  177.1270  137.2940 O   0  0  0  0  0  0  0  0  0  0  0  0
  192.6810  176.4810  137.6090 C   0  0  0  0  0  2  0  0  0  0  0  0
  193.2160  175.7820  136.3770 C   0  0  0  0  0  1  0  0  0  0  0  0
  190.6550  178.3390  143.0250 O   0  0  0  0  0  0  0  0  0  0  0  0
  190.1330  178.0280  145.0930 C   0  0  0  0  0  1  0  0  0  0  0  0
  191.2060  178.1070  144.2000 O   0  0  0  0  0  0  0  0  0  0  0  0
  183.1570  180.0680  138.9070 C   0  0  0  0  0  0  0  0  0  0  0  0
  182.9170  181.2990  139.0500 O   0  0  0  0  0  0  0  0  0  0  0  0
  182.1250  179.1680  138.2890 C   0  0  1  0  0  3  0  0  0  0  0  0
  181.4540  176.9730  138.7450 N   0  0  0  0  0  2  0  0  0  0  0  0
  182.5440  177.7540  138.3130 N   0  0  0  0  0  0  0  0  0  0  0  0
  182.2800  175.9510  136.7610 C   0  0  1  0  0  3  0  0  0  0  0  0
  182.8330  177.3370  136.9410 C   0  0  0  0  0  2  0  0  0  0  0  0
  181.5470  175.6980  138.0510 C   0  0  0  0  0  2  0  0  0  0  0  0
  181.2980  175.9520  135.6000 C   0  0  0  0  0  2  0  0  0  0  0  0
  180.9140  174.6440  135.3040 O   0  0  0  0  0  1  0  0  0  0  0  0
  180.8130  179.3890  138.9850 C   0  0  0  0  0  0  0  0  0  0  0  0
  179.6660  179.5670  138.2280 O   0  0  0  0  0  0  0  0  0  0  0  0
  180.7540  179.4650  140.2390 O   0  0  0  0  0  1  0  0  0  0  0  0
  1  7  2  0  0  0  0
  2  3  1  6  0  0  0
  2  9  1  0  0  0  0
  4 14  1  0  0  0  0
  4  6  1  0  0  0  0
  5  4  2  0  0  0  0
  7  5  1  0  0  0  0
  7  2  1  0  0  0  0
  9  6  1  0  0  0  0
  9  8  2  0  0  0  0
 11 15  1  0  0  0  0
 11 14  2  0  0  0  0
 12 16  1  0  0  0  0
 13 17  1  0  0  0  0
 15 10  1  6  0  0  0
 15 12  1  0  0  0  0
 15 16  1  0  0  0  0
 16 26  1  1  0  0  0
 17 11  1  0  0  0  0
 18 23  1  6  0  0  0
 18 13  1  0  0  0  0
 18 10  1  0  0  0  0
 19 20  2  0  0  0  0
 19 18  1  0  0  0  0
 21 19  1  0  0  0  0
 22 21  1  0  0  0  0
 23 24  1  0  0  0  0
 25 24  1  0  0  0  0
 26 28  1  0  0  0  0
 28 27  1  0  0  0  0
 29 30  2  0  0  0  0
 29  1  1  0  0  0  0
 31 33  1  0  0  0  0
 31 29  1  1  0  0  0
 31 39  1  0  0  0  0
 33 32  1  0  0  0  0
 34 37  1  6  0  0  0
 34 35  1  0  0  0  0
 34 36  1  0  0  0  0
 35 33  1  0  0  0  0
 36 32  1  0  0  0  0
 38 37  1  0  0  0  0
 39 41  1  0  0  0  0
 40 39  2  0  0  0  0
M  END
>  <MODEL>
9

>  <REMARK>
 VINA RESULT:      -6.2      3.288      6.078
  Name = 
  12 active torsions:
  status: ('A' for Active; 'I' for Inactive)
    1  A    between atoms: C_2  and  C_9
    2  A    between atoms: C_2  and  C_13
    3  A    between atoms: C_2  and  N_27
    4  A    between atoms: C_7  and  C_31
    5  A    between atoms: O_8  and  C_34
    6  A    between atoms: O_8  and  C_39
    7  A    between atoms: O_10  and  O_18
    8  A    between atoms: O_10  and  C_30
    9  A    between atoms: N_11  and  C_13
   10  A    between atoms: C_15  and  C_16
   11  A    between atoms: C_16  and  C_39
   12  A    between atoms: C_17  and  C_21
                            x       y       z     vdW  Elec       q    Type
                         _______ _______ _______ _____ _____    ______ ____

>  <TORSDO>
F 12

$$$$
