=
 OpenBabel11062415233D

 48 55  0  0  1  0  0  0  0  0999 V2000
  188.5680  177.6940  139.5990 C   0  0  2  0  0  3  0  0  0  0  0  0
  184.7430  176.5740  136.0520 C   0  0  0  0  0  2  0  0  0  0  0  0
  184.2730  180.1180  138.7460 O   0  0  0  0  0  0  0  0  0  0  0  0
  189.6970  176.6370  139.6490 C   0  0  1  0  0  3  0  0  0  0  0  0
  187.2480  176.7720  137.2570 P   0  0  2  0  0  4  0  0  0  0  0  0
  187.2270  174.9740  136.9910 C   0  0  0  0  0  2  0  0  0  0  0  0
  188.3630  178.2210  140.8770 O   0  0  0  0  0  1  0  0  0  0  0  0
  187.1660  174.6810  135.5270 C   0  0  0  0  0  0  0  0  0  0  0  0
  184.1260  179.2040  139.8150 C   0  0  1  0  0  0  0  0  0  0  0  0
  191.1080  176.6680  136.1190 O   0  0  0  0  0  1  0  0  0  0  0  0
  188.5670  177.5310  136.2450 C   0  0  0  0  0  2  0  0  0  0  0  0
  189.5550  178.1340  137.0430 O   0  0  0  0  0  0  0  0  0  0  0  0
  190.1360  176.0990  138.2710 C   0  0  1  0  0  3  0  0  0  0  0  0
  187.2340  177.1550  139.0530 C   0  0  2  0  0  3  0  0  0  0  0  0
  185.6470  177.5360  136.8140 C   0  0  2  0  0  3  0  0  0  0  0  0
  190.5830  177.2010  137.3020 C   0  0  1  0  0  3  0  0  0  0  0  0
  183.9330  178.7870  138.3990 C   0  0  2  0  0  0  0  0  0  0  0  0
  186.1620  178.2290  139.0830 C   0  0  2  0  0  3  0  0  0  0  0  0
  185.3390  176.1690  134.7130 C   0  0  0  0  0  2  0  0  0  0  0  0
  185.4430  178.6260  140.3560 C   0  0  0  0  0  2  0  0  0  0  0  0
  185.8650  174.7420  134.7890 C   0  0  0  0  0  2  0  0  0  0  0  0
  188.1930  174.4410  134.9180 O   0  0  0  0  0  0  0  0  0  0  0  0
  191.1190  175.1220  138.4060 O   0  0  0  0  0  1  0  0  0  0  0  0
  185.0510  177.7830  138.1800 C   0  0  2  0  0  3  0  0  0  0  0  0
  191.3130  179.3460  144.8260 O   0  0  0  0  0  0  0  0  0  0  0  0
  190.5960  177.8400  141.8500 C   0  0  1  0  0  3  0  0  0  0  0  0
  190.8530  176.9970  140.6160 C   0  0  2  0  0  0  0  0  0  0  0  0
  189.5350  176.4920  144.1240 C   0  0  0  0  0  2  0  0  0  0  0  0
  191.2900  178.3480  144.1310 C   0  0  0  0  0  0  0  0  0  0  0  0
  189.6990  175.8090  142.7420 C   0  0  0  0  0  2  0  0  0  0  0  0
  192.1100  177.1810  140.0460 O   0  0  0  0  0  1  0  0  0  0  0  0
  190.8430  177.0310  144.7430 C   0  0  0  0  0  2  0  0  0  0  0  0
  190.9050  176.3510  141.9910 C   0  0  2  0  0  3  0  0  0  0  0  0
  191.7040  178.4500  142.6790 C   0  0  0  0  0  2  0  0  0  0  0  0
  182.4910  178.5330  137.9690 C   0  0  0  0  0  2  0  0  0  0  0  0
  181.8010  176.4720  137.0490 O   0  0  0  0  0  0  0  0  0  0  0  0
  182.1500  177.0800  138.0510 C   0  0  0  0  0  0  0  0  0  0  0  0
  182.1690  176.3840  139.3730 C   0  0  0  0  0  2  0  0  0  0  0  0
  179.8210  177.0820  140.1990 C   0  0  0  0  0  1  0  0  0  0  0  0
  180.7860  176.0200  139.7960 C   0  0  0  0  0  0  0  0  0  0  0  0
  180.4580  174.8470  139.8540 O   0  0  0  0  0  0  0  0  0  0  0  0
  182.9160  179.4610  140.7070 C   0  0  0  0  0  2  0  0  0  0  0  0
  181.7720  178.9050  142.6730 C   0  0  0  0  0  2  0  0  0  0  0  0
  183.0710  178.4830  144.7850 C   0  0  0  0  0  2  0  0  0  0  0  0
  181.8680  179.1960  144.1800 C   0  0  0  0  0  2  0  0  0  0  0  0
  184.1180  179.5290  142.7150 C   0  0  0  0  0  2  0  0  0  0  0  0
  183.0730  178.8000  141.9920 N   0  0  0  0  0  0  0  0  0  0  0  0
  184.3740  178.8760  144.0740 C   0  0  0  0  0  2  0  0  0  0  0  0
  1  4  1  0  0  0  0
  1  7  1  1  0  0  0
  2 15  1  0  0  0  0
  3  9  1  0  0  0  0
  4 27  1  6  0  0  0
  5 11  1  6  0  0  0
  5 14  1  0  0  0  0
  6  5  1  0  0  0  0
  8  6  1  0  0  0  0
  9 20  1  0  0  0  0
  9 42  1  1  0  0  0
 10 16  1  0  0  0  0
 11 12  1  0  0  0  0
 12 16  1  0  0  0  0
 13 23  1  1  0  0  0
 13  4  1  0  0  0  0
 14 18  1  0  0  0  0
 14  1  1  0  0  0  0
 15  5  1  0  0  0  0
 15 24  1  0  0  0  0
 16 13  1  0  0  0  0
 17  3  1  0  0  0  0
 17  9  1  0  0  0  0
 18 20  1  0  0  0  0
 19 21  1  0  0  0  0
 19  2  1  0  0  0  0
 21  8  1  0  0  0  0
 22  8  2  0  0  0  0
 24 17  1  0  0  0  0
 24 18  1  0  0  0  0
 26 33  1  0  0  0  0
 26 34  1  0  0  0  0
 27 26  1  0  0  0  0
 27 33  1  0  0  0  0
 28 32  1  0  0  0  0
 29 32  1  0  0  0  0
 29 25  2  0  0  0  0
 30 28  1  0  0  0  0
 31 27  1  0  0  0  0
 33 30  1  0  0  0  0
 34 29  1  0  0  0  0
 35 37  1  0  0  0  0
 35 17  1  0  0  0  0
 36 37  2  0  0  0  0
 37 38  1  0  0  0  0
 38 40  1  0  0  0  0
 40 41  2  0  0  0  0
 40 39  1  0  0  0  0
 42 47  1  0  0  0  0
 43 45  1  0  0  0  0
 45 44  1  0  0  0  0
 46 48  1  0  0  0  0
 47 43  1  0  0  0  0
 47 46  1  0  0  0  0
 48 44  1  0  0  0  0
M  END
>  <MODEL>
1

>  <REMARK>
 VINA RESULT:      -7.4      0.000      0.000
  Name = 
  7 active torsions:
  status: ('A' for Active; 'I' for Inactive)
    1  A    between atoms: C_1  and  C_19
    2  A    between atoms: C_1  and  C_27
    3  A    between atoms: C_7  and  C_13
    4  A    between atoms: C_14  and  C_27
    5  A    between atoms: C_14  and  C_33
    6  A    between atoms: C_16  and  C_35
    7  A    between atoms: C_35  and  N_37
                            x       y       z     vdW  Elec       q    Type
                         _______ _______ _______ _____ _____    ______ ____

>  <TORSDO>
F 7

$$$$
=
 OpenBabel11062415233D

 48 55  0  0  1  0  0  0  0  0999 V2000
  188.5690  177.6920  139.5930 C   0  0  2  0  0  3  0  0  0  0  0  0
  184.4870  176.5940  136.3360 C   0  0  0  0  0  2  0  0  0  0  0  0
  184.2180  180.1140  139.0900 O   0  0  0  0  0  0  0  0  0  0  0  0
  189.6990  176.6360  139.5480 C   0  0  1  0  0  3  0  0  0  0  0  0
  187.0760  176.7870  137.3500 P   0  0  2  0  0  4  0  0  0  0  0  0
  187.0380  174.9910  137.0700 C   0  0  0  0  0  2  0  0  0  0  0  0
  188.4610  178.2060  140.8880 O   0  0  0  0  0  1  0  0  0  0  0  0
  186.8660  174.7100  135.6130 C   0  0  0  0  0  0  0  0  0  0  0  0
  184.1540  179.1900  140.1580 C   0  0  1  0  0  0  0  0  0  0  0  0
  190.8390  176.7010  135.9210 O   0  0  0  0  0  1  0  0  0  0  0  0
  188.3140  177.5580  136.2470 C   0  0  0  0  0  2  0  0  0  0  0  0
  189.3590  178.1560  136.9740 O   0  0  0  0  0  0  0  0  0  0  0  0
  190.0340  176.1120  138.1360 C   0  0  1  0  0  3  0  0  0  0  0  0
  187.1980  177.1540  139.1450 C   0  0  2  0  0  3  0  0  0  0  0  0
  185.4450  177.5510  137.0360 C   0  0  2  0  0  3  0  0  0  0  0  0
  190.4050  177.2230  137.1460 C   0  0  1  0  0  3  0  0  0  0  0  0
  183.8550  178.7850  138.7580 C   0  0  2  0  0  0  0  0  0  0  0  0
  186.1300  178.2260  139.2660 C   0  0  2  0  0  3  0  0  0  0  0  0
  184.9810  176.2020  134.9530 C   0  0  0  0  0  2  0  0  0  0  0  0
  185.5090  178.6100  140.5930 C   0  0  0  0  0  2  0  0  0  0  0  0
  185.5130  174.7760  134.9760 C   0  0  0  0  0  2  0  0  0  0  0  0
  187.8450  174.4780  134.9250 O   0  0  0  0  0  0  0  0  0  0  0  0
  191.0260  175.1350  138.1870 O   0  0  0  0  0  1  0  0  0  0  0  0
  184.9540  177.7850  138.4460 C   0  0  2  0  0  3  0  0  0  0  0  0
  191.6990  179.3020  144.6120 O   0  0  0  0  0  0  0  0  0  0  0  0
  190.7620  177.8210  141.6860 C   0  0  1  0  0  3  0  0  0  0  0  0
  190.9250  176.9900  140.4280 C   0  0  2  0  0  0  0  0  0  0  0  0
  189.8780  176.4500  144.0210 C   0  0  0  0  0  2  0  0  0  0  0  0
  191.6260  178.3100  143.9120 C   0  0  0  0  0  0  0  0  0  0  0  0
  189.9380  175.7800  142.6240 C   0  0  0  0  0  2  0  0  0  0  0  0
  192.1350  177.1820  139.7660 O   0  0  0  0  0  1  0  0  0  0  0  0
  191.2290  176.9870  144.5440 C   0  0  0  0  0  2  0  0  0  0  0  0
  191.0820  176.3320  141.7880 C   0  0  2  0  0  3  0  0  0  0  0  0
  191.9280  178.4270  142.4330 C   0  0  0  0  0  2  0  0  0  0  0  0
  182.3850  178.5320  138.4360 C   0  0  0  0  0  2  0  0  0  0  0  0
  181.6780  179.3040  136.3200 O   0  0  0  0  0  0  0  0  0  0  0  0
  181.8490  179.5690  137.5010 C   0  0  0  0  0  0  0  0  0  0  0  0
  181.5880  180.9540  137.9960 C   0  0  0  0  0  2  0  0  0  0  0  0
  179.8340  180.8270  139.8910 C   0  0  0  0  0  1  0  0  0  0  0  0
  180.1790  181.0890  138.4650 C   0  0  0  0  0  0  0  0  0  0  0  0
  179.3000  181.3730  137.6700 O   0  0  0  0  0  0  0  0  0  0  0  0
  183.0140  179.4370  141.1420 C   0  0  0  0  0  2  0  0  0  0  0  0
  182.0810  178.9800  143.2400 C   0  0  0  0  0  2  0  0  0  0  0  0
  183.5940  178.5650  145.2050 C   0  0  0  0  0  2  0  0  0  0  0  0
  182.3570  179.3080  144.7170 C   0  0  0  0  0  2  0  0  0  0  0  0
  184.4380  179.5120  142.9990 C   0  0  0  0  0  2  0  0  0  0  0  0
  183.2930  178.8050  142.4210 N   0  0  0  0  0  0  0  0  0  0  0  0
  184.8220  178.8870  144.3410 C   0  0  0  0  0  2  0  0  0  0  0  0
  1  7  1  1  0  0  0
  2 15  1  0  0  0  0
  3  9  1  0  0  0  0
  4  1  1  0  0  0  0
  4 27  1  6  0  0  0
  5 11  1  6  0  0  0
  5 14  1  0  0  0  0
  6  5  1  0  0  0  0
  8  6  1  0  0  0  0
  9 20  1  0  0  0  0
  9 42  1  1  0  0  0
 10 16  1  0  0  0  0
 11 12  1  0  0  0  0
 12 16  1  0  0  0  0
 13 23  1  1  0  0  0
 13  4  1  0  0  0  0
 14 18  1  0  0  0  0
 14  1  1  0  0  0  0
 15  5  1  0  0  0  0
 15 24  1  0  0  0  0
 16 13  1  0  0  0  0
 17  3  1  0  0  0  0
 17  9  1  0  0  0  0
 18 20  1  0  0  0  0
 19 21  1  0  0  0  0
 19  2  1  0  0  0  0
 21  8  1  0  0  0  0
 22  8  2  0  0  0  0
 24 17  1  0  0  0  0
 24 18  1  0  0  0  0
 26 33  1  0  0  0  0
 26 34  1  0  0  0  0
 27 26  1  0  0  0  0
 27 33  1  0  0  0  0
 28 32  1  0  0  0  0
 29 32  1  0  0  0  0
 29 25  2  0  0  0  0
 30 28  1  0  0  0  0
 31 27  1  0  0  0  0
 33 30  1  0  0  0  0
 34 29  1  0  0  0  0
 35 17  1  0  0  0  0
 36 37  2  0  0  0  0
 37 38  1  0  0  0  0
 37 35  1  0  0  0  0
 38 40  1  0  0  0  0
 40 39  1  0  0  0  0
 41 40  2  0  0  0  0
 42 47  1  0  0  0  0
 43 45  1  0  0  0  0
 45 44  1  0  0  0  0
 46 48  1  0  0  0  0
 47 46  1  0  0  0  0
 47 43  1  0  0  0  0
 48 44  1  0  0  0  0
M  END
>  <MODEL>
2

>  <REMARK>
 VINA RESULT:      -7.0      1.277      1.673
  Name = 
  7 active torsions:
  status: ('A' for Active; 'I' for Inactive)
    1  A    between atoms: C_1  and  C_19
    2  A    between atoms: C_1  and  C_27
    3  A    between atoms: C_7  and  C_13
    4  A    between atoms: C_14  and  C_27
    5  A    between atoms: C_14  and  C_33
    6  A    between atoms: C_16  and  C_35
    7  A    between atoms: C_35  and  N_37
                            x       y       z     vdW  Elec       q    Type
                         _______ _______ _______ _____ _____    ______ ____

>  <TORSDO>
F 7

$$$$
=
 OpenBabel11062415233D

 48 55  0  0  1  0  0  0  0  0999 V2000
  186.6120  178.5920  139.8650 C   0  0  2  0  0  3  0  0  0  0  0  0
  183.8330  176.6040  135.7670 C   0  0  0  0  0  2  0  0  0  0  0  0
  182.1850  180.0770  138.0620 O   0  0  0  0  0  0  0  0  0  0  0  0
  187.8890  177.7840  140.1990 C   0  0  1  0  0  3  0  0  0  0  0  0
  185.9720  177.3420  137.3940 P   0  0  2  0  0  4  0  0  0  0  0  0
  186.3440  175.5670  137.2610 C   0  0  0  0  0  2  0  0  0  0  0  0
  186.0660  179.1120  141.0420 O   0  0  0  0  0  1  0  0  0  0  0  0
  186.6260  175.2160  135.8360 C   0  0  0  0  0  0  0  0  0  0  0  0
  182.0090  179.1900  139.1490 C   0  0  1  0  0  0  0  0  0  0  0  0
  189.9280  177.9710  136.9960 O   0  0  0  0  0  1  0  0  0  0  0  0
  187.2950  178.3130  136.5890 C   0  0  0  0  0  2  0  0  0  0  0  0
  187.9760  179.1290  137.5090 O   0  0  0  0  0  0  0  0  0  0  0  0
  188.6820  177.2970  138.9680 C   0  0  1  0  0  3  0  0  0  0  0  0
  185.5360  177.7780  139.1240 C   0  0  2  0  0  3  0  0  0  0  0  0
  184.3730  177.7540  136.6090 C   0  0  2  0  0  3  0  0  0  0  0  0
  189.0920  178.4300  138.0210 C   0  0  1  0  0  3  0  0  0  0  0  0
  182.1780  178.6930  137.7570 C   0  0  2  0  0  0  0  0  0  0  0  0
  184.2960  178.6160  138.8780 C   0  0  2  0  0  3  0  0  0  0  0  0
  184.7440  176.2790  134.5940 C   0  0  0  0  0  2  0  0  0  0  0  0
  183.2800  178.9070  139.9640 C   0  0  0  0  0  2  0  0  0  0  0  0
  185.5060  174.9900  134.8690 C   0  0  0  0  0  2  0  0  0  0  0  0
  187.7790  175.1650  135.4450 O   0  0  0  0  0  0  0  0  0  0  0  0
  189.7870  176.5410  139.3530 O   0  0  0  0  0  1  0  0  0  0  0  0
  183.4860  177.9250  137.8210 C   0  0  2  0  0  3  0  0  0  0  0  0
  189.6450  177.4230  145.9900 O   0  0  0  0  0  0  0  0  0  0  0  0
  188.7080  177.8230  142.7350 C   0  0  1  0  0  3  0  0  0  0  0  0
  188.7450  178.4020  141.3330 C   0  0  2  0  0  0  0  0  0  0  0  0
  190.3090  175.5170  143.2110 C   0  0  0  0  0  2  0  0  0  0  0  0
  189.9370  177.4740  144.8100 C   0  0  0  0  0  0  0  0  0  0  0  0
  190.1130  176.1270  141.8000 C   0  0  0  0  0  2  0  0  0  0  0  0
  188.9450  179.7790  141.2860 O   0  0  0  0  0  1  0  0  0  0  0  0
  190.9340  176.4720  144.2530 C   0  0  0  0  0  2  0  0  0  0  0  0
  189.9470  177.6380  141.8620 C   0  0  2  0  0  3  0  0  0  0  0  0
  189.2950  178.5290  143.9360 C   0  0  0  0  0  2  0  0  0  0  0  0
  180.9220  178.1410  137.0880 C   0  0  0  0  0  2  0  0  0  0  0  0
  181.4360  178.8660  134.9020 O   0  0  0  0  0  0  0  0  0  0  0  0
  180.6240  178.8660  135.8150 C   0  0  0  0  0  0  0  0  0  0  0  0
  179.3600  179.6510  135.6830 C   0  0  0  0  0  2  0  0  0  0  0  0
  180.3240  182.0480  135.5810 C   0  0  0  0  0  1  0  0  0  0  0  0
  179.5180  181.0080  136.2810 C   0  0  0  0  0  0  0  0  0  0  0  0
  179.0200  181.2540  137.3670 O   0  0  0  0  0  0  0  0  0  0  0  0
  180.6220  179.2320  139.7830 C   0  0  0  0  0  2  0  0  0  0  0  0
  180.3640  177.8790  141.6760 C   0  0  0  0  0  2  0  0  0  0  0  0
  179.9010  178.9450  143.9070 C   0  0  0  0  0  2  0  0  0  0  0  0
  179.4980  177.8330  142.9470 C   0  0  0  0  0  2  0  0  0  0  0  0
  179.7520  180.2290  141.7140 C   0  0  0  0  0  2  0  0  0  0  0  0
  180.7180  179.2380  141.2330 N   0  0  0  0  0  0  0  0  0  0  0  0
  179.8100  180.3250  143.2400 C   0  0  0  0  0  2  0  0  0  0  0  0
  1  4  1  0  0  0  0
  1  7  1  1  0  0  0
  2 15  1  0  0  0  0
  3  9  1  0  0  0  0
  4 27  1  1  0  0  0
  5 11  1  6  0  0  0
  5 14  1  0  0  0  0
  6  5  1  0  0  0  0
  8  6  1  0  0  0  0
  9 42  1  1  0  0  0
  9 20  1  0  0  0  0
 10 16  1  0  0  0  0
 11 12  1  0  0  0  0
 12 16  1  0  0  0  0
 13 23  1  1  0  0  0
 13  4  1  0  0  0  0
 14  1  1  0  0  0  0
 15  5  1  0  0  0  0
 15 24  1  0  0  0  0
 16 13  1  0  0  0  0
 17 24  1  0  0  0  0
 17  3  1  0  0  0  0
 17  9  1  0  0  0  0
 18 14  1  0  0  0  0
 18 20  1  0  0  0  0
 19 21  1  0  0  0  0
 19  2  1  0  0  0  0
 21  8  1  0  0  0  0
 22  8  2  0  0  0  0
 24 18  1  0  0  0  0
 26 34  1  0  0  0  0
 27 33  1  0  0  0  0
 27 26  1  0  0  0  0
 28 32  1  0  0  0  0
 29 25  2  0  0  0  0
 30 33  1  0  0  0  0
 30 28  1  0  0  0  0
 31 27  1  0  0  0  0
 32 29  1  0  0  0  0
 33 26  1  0  0  0  0
 34 29  1  0  0  0  0
 35 17  1  0  0  0  0
 36 37  2  0  0  0  0
 37 35  1  0  0  0  0
 38 37  1  0  0  0  0
 38 40  1  0  0  0  0
 39 40  1  0  0  0  0
 40 41  2  0  0  0  0
 42 47  1  0  0  0  0
 43 45  1  0  0  0  0
 45 44  1  0  0  0  0
 46 48  1  0  0  0  0
 47 43  1  0  0  0  0
 47 46  1  0  0  0  0
 48 44  1  0  0  0  0
M  END
>  <MODEL>
3

>  <REMARK>
 VINA RESULT:      -6.7      2.115      2.889
  Name = 
  7 active torsions:
  status: ('A' for Active; 'I' for Inactive)
    1  A    between atoms: C_1  and  C_19
    2  A    between atoms: C_1  and  C_27
    3  A    between atoms: C_7  and  C_13
    4  A    between atoms: C_14  and  C_27
    5  A    between atoms: C_14  and  C_33
    6  A    between atoms: C_16  and  C_35
    7  A    between atoms: C_35  and  N_37
                            x       y       z     vdW  Elec       q    Type
                         _______ _______ _______ _____ _____    ______ ____

>  <TORSDO>
F 7

$$$$
=
 OpenBabel11062415233D

 48 55  0  0  1  0  0  0  0  0999 V2000
  184.2230  178.0340  139.4520 C   0  0  2  0  0  3  0  0  0  0  0  0
  189.3850  177.5260  138.1980 C   0  0  0  0  0  2  0  0  0  0  0  0
  188.0440  176.6650  142.3820 O   0  0  0  0  0  0  0  0  0  0  0  0
  183.3590  178.5990  138.3000 C   0  0  1  0  0  3  0  0  0  0  0  0
  186.6070  177.5610  137.9770 P   0  0  2  0  0  4  0  0  0  0  0  0
  186.9900  178.7440  136.6510 C   0  0  0  0  0  2  0  0  0  0  0  0
  183.7250  178.4850  140.6770 O   0  0  0  0  0  1  0  0  0  0  0  0
  187.7770  178.0630  135.5790 C   0  0  0  0  0  0  0  0  0  0  0  0
  187.7860  178.0490  142.5130 C   0  0  1  0  0  0  0  0  0  0  0  0
  183.8040  176.0510  135.5140 O   0  0  0  0  0  1  0  0  0  0  0  0
  185.8390  176.0620  137.2660 C   0  0  0  0  0  2  0  0  0  0  0  0
  184.5210  175.8850  137.7220 O   0  0  0  0  0  0  0  0  0  0  0  0
  183.7020  178.0410  136.9040 C   0  0  1  0  0  3  0  0  0  0  0  0
  185.7160  178.3990  139.3460 C   0  0  2  0  0  3  0  0  0  0  0  0
  188.1090  177.0770  138.9010 C   0  0  2  0  0  3  0  0  0  0  0  0
  183.6270  176.5110  136.8250 C   0  0  1  0  0  3  0  0  0  0  0  0
  188.6810  177.5200  141.4490 C   0  0  2  0  0  0  0  0  0  0  0  0
  186.4900  177.8590  140.5340 C   0  0  2  0  0  3  0  0  0  0  0  0
  189.5560  176.8570  136.8430 C   0  0  0  0  0  2  0  0  0  0  0  0
  186.4590  178.5190  141.8970 C   0  0  0  0  0  2  0  0  0  0  0  0
  189.2520  177.8510  135.7310 C   0  0  0  0  0  2  0  0  0  0  0  0
  187.2050  177.6280  134.5950 O   0  0  0  0  0  0  0  0  0  0  0  0
  182.9120  178.6320  135.9210 O   0  0  0  0  0  1  0  0  0  0  0  0
  187.9460  177.8810  140.1700 C   0  0  2  0  0  3  0  0  0  0  0  0
  178.9310  181.6040  141.1500 O   0  0  0  0  0  0  0  0  0  0  0  0
  181.3030  179.7490  139.5490 C   0  0  1  0  0  3  0  0  0  0  0  0
  181.8450  178.6720  138.6280 C   0  0  2  0  0  0  0  0  0  0  0  0
  180.8530  182.3130  138.3930 C   0  0  0  0  0  2  0  0  0  0  0  0
  179.3850  181.1390  140.1220 C   0  0  0  0  0  0  0  0  0  0  0  0
  181.5540  181.1580  137.6310 C   0  0  0  0  0  2  0  0  0  0  0  0
  181.1620  177.4600  138.6970 O   0  0  0  0  0  1  0  0  0  0  0  0
  179.4180  182.0010  138.8720 C   0  0  0  0  0  2  0  0  0  0  0  0
  181.0090  179.8010  138.0510 C   0  0  2  0  0  3  0  0  0  0  0  0
  179.9040  179.7170  140.1220 C   0  0  0  0  0  2  0  0  0  0  0  0
  190.1730  177.7690  141.6480 C   0  0  0  0  0  2  0  0  0  0  0  0
  190.3160  175.4790  142.2020 O   0  0  0  0  0  0  0  0  0  0  0  0
  190.8420  176.5800  142.2610 C   0  0  0  0  0  0  0  0  0  0  0  0
  192.1240  176.7500  143.0090 C   0  0  0  0  0  2  0  0  0  0  0  0
  191.6530  176.5600  145.5440 C   0  0  0  0  0  1  0  0  0  0  0  0
  191.8810  177.3960  144.3310 C   0  0  0  0  0  0  0  0  0  0  0  0
  191.8280  178.6110  144.4110 O   0  0  0  0  0  0  0  0  0  0  0  0
  188.3800  178.6880  143.7640 C   0  0  0  0  0  2  0  0  0  0  0  0
  186.6330  178.1920  145.2420 C   0  0  0  0  0  2  0  0  0  0  0  0
  187.1660  177.3840  147.5630 C   0  0  0  0  0  2  0  0  0  0  0  0
  186.3160  178.3430  146.7390 C   0  0  0  0  0  2  0  0  0  0  0  0
  188.9250  178.3860  146.0210 C   0  0  0  0  0  2  0  0  0  0  0  0
  188.0480  177.9110  144.9470 N   0  0  0  0  0  0  0  0  0  0  0  0
  188.6640  177.5940  147.3040 C   0  0  0  0  0  2  0  0  0  0  0  0
  1  7  1  1  0  0  0
  2 15  1  0  0  0  0
  3  9  1  0  0  0  0
  4 27  1  1  0  0  0
  4  1  1  0  0  0  0
  5  6  1  6  0  0  0
  5 15  1  0  0  0  0
  5 14  1  0  0  0  0
  8 21  1  0  0  0  0
  8  6  1  0  0  0  0
  9 42  1  1  0  0  0
 10 16  1  0  0  0  0
 11 12  1  0  0  0  0
 11  5  1  0  0  0  0
 13 23  1  6  0  0  0
 13  4  1  0  0  0  0
 14  1  1  0  0  0  0
 14 18  1  0  0  0  0
 15 24  1  0  0  0  0
 16 13  1  0  0  0  0
 16 12  1  0  0  0  0
 17 35  1  0  0  0  0
 17  3  1  0  0  0  0
 17  9  1  0  0  0  0
 18 20  1  0  0  0  0
 19  2  1  0  0  0  0
 20  9  1  0  0  0  0
 21 19  1  0  0  0  0
 22  8  2  0  0  0  0
 24 18  1  0  0  0  0
 24 17  1  0  0  0  0
 26 34  1  0  0  0  0
 27 31  1  0  0  0  0
 27 26  1  0  0  0  0
 28 32  1  0  0  0  0
 29 25  2  0  0  0  0
 30 33  1  0  0  0  0
 30 28  1  0  0  0  0
 32 29  1  0  0  0  0
 33 27  1  0  0  0  0
 33 26  1  0  0  0  0
 34 29  1  0  0  0  0
 35 37  1  0  0  0  0
 36 37  2  0  0  0  0
 37 38  1  0  0  0  0
 38 40  1  0  0  0  0
 40 41  2  0  0  0  0
 40 39  1  0  0  0  0
 42 47  1  0  0  0  0
 43 45  1  0  0  0  0
 45 44  1  0  0  0  0
 46 48  1  0  0  0  0
 47 43  1  0  0  0  0
 47 46  1  0  0  0  0
 48 44  1  0  0  0  0
M  END
>  <MODEL>
4

>  <REMARK>
 VINA RESULT:      -6.5      2.562      7.973
  Name = 
  7 active torsions:
  status: ('A' for Active; 'I' for Inactive)
    1  A    between atoms: C_1  and  C_19
    2  A    between atoms: C_1  and  C_27
    3  A    between atoms: C_7  and  C_13
    4  A    between atoms: C_14  and  C_27
    5  A    between atoms: C_14  and  C_33
    6  A    between atoms: C_16  and  C_35
    7  A    between atoms: C_35  and  N_37
                            x       y       z     vdW  Elec       q    Type
                         _______ _______ _______ _____ _____    ______ ____

>  <TORSDO>
F 7

$$$$
=
 OpenBabel11062415233D

 48 55  0  0  1  0  0  0  0  0999 V2000
  182.8520  177.0470  137.7270 C   0  0  2  0  0  3  0  0  0  0  0  0
  186.1560  179.0690  141.3980 C   0  0  0  0  0  2  0  0  0  0  0  0
  187.4710  178.8780  137.1220 O   0  0  0  0  0  0  0  0  0  0  0  0
  181.5470  176.4660  138.3210 C   0  0  1  0  0  3  0  0  0  0  0  0
  183.8180  178.3490  140.0620 P   0  0  2  0  0  4  0  0  0  0  0  0
  183.4750  177.5320  141.6490 C   0  0  0  0  0  2  0  0  0  0  0  0
  183.2360  176.2930  136.6150 O   0  0  0  0  0  1  0  0  0  0  0  0
  183.3850  178.5550  142.7350 C   0  0  0  0  0  0  0  0  0  0  0  0
  187.5070  177.4720  137.2650 C   0  0  1  0  0  0  0  0  0  0  0  0
  179.9460  179.4500  140.0500 O   0  0  0  0  0  1  0  0  0  0  0  0
  182.6080  179.6910  139.7830 C   0  0  0  0  0  2  0  0  0  0  0  0
  181.8080  179.4450  138.6540 O   0  0  0  0  0  0  0  0  0  0  0  0
  180.9250  177.3090  139.4550 C   0  0  1  0  0  3  0  0  0  0  0  0
  184.0200  177.1030  138.7290 C   0  0  2  0  0  3  0  0  0  0  0  0
  185.5050  179.0540  140.0200 C   0  0  2  0  0  3  0  0  0  0  0  0
  180.6380  178.7590  139.0480 C   0  0  1  0  0  3  0  0  0  0  0  0
  187.5250  178.3760  138.4460 C   0  0  2  0  0  0  0  0  0  0  0  0
  185.2780  177.6310  138.0650 C   0  0  2  0  0  3  0  0  0  0  0  0
  185.4090  179.9640  142.3730 C   0  0  0  0  0  2  0  0  0  0  0  0
  186.1410  176.7770  137.1580 C   0  0  0  0  0  2  0  0  0  0  0  0
  184.6240  179.1140  143.3620 C   0  0  0  0  0  2  0  0  0  0  0  0
  182.2940  178.9760  143.0760 O   0  0  0  0  0  0  0  0  0  0  0  0
  179.7820  176.6960  139.9640 O   0  0  0  0  0  1  0  0  0  0  0  0
  186.2230  178.0450  139.1540 C   0  0  2  0  0  3  0  0  0  0  0  0
  179.9500  171.9160  134.6480 O   0  0  0  0  0  0  0  0  0  0  0  0
  180.7430  174.6020  136.5940 C   0  0  1  0  0  3  0  0  0  0  0  0
  180.5450  175.9530  137.2550 C   0  0  2  0  0  0  0  0  0  0  0  0
  179.8690  172.3200  138.0570 C   0  0  0  0  0  2  0  0  0  0  0  0
  179.6590  172.6910  135.5390 C   0  0  0  0  0  0  0  0  0  0  0  0
  179.8870  173.7490  138.6590 C   0  0  0  0  0  2  0  0  0  0  0  0
  179.9590  176.9130  136.4350 O   0  0  0  0  0  1  0  0  0  0  0  0
  178.9930  172.1560  136.7950 C   0  0  0  0  0  2  0  0  0  0  0  0
  179.6120  174.8050  137.6000 C   0  0  2  0  0  3  0  0  0  0  0  0
  179.9740  174.1620  135.3690 C   0  0  0  0  0  2  0  0  0  0  0  0
  188.8610  178.4950  139.1750 C   0  0  0  0  0  2  0  0  0  0  0  0
  189.0580  176.2970  140.0120 O   0  0  0  0  0  0  0  0  0  0  0  0
  188.9680  177.4870  140.2750 C   0  0  0  0  0  0  0  0  0  0  0  0
  188.8960  177.9300  141.7000 C   0  0  0  0  0  2  0  0  0  0  0  0
  190.2700  176.1420  142.9650 C   0  0  0  0  0  1  0  0  0  0  0  0
  188.9570  176.7580  142.6190 C   0  0  0  0  0  0  0  0  0  0  0  0
  187.9260  176.2750  143.0550 O   0  0  0  0  0  0  0  0  0  0  0  0
  188.7980  176.8180  136.7820 C   0  0  0  0  0  2  0  0  0  0  0  0
  189.7830  174.7180  137.0930 C   0  0  0  0  0  2  0  0  0  0  0  0
  189.1340  172.8100  135.5870 C   0  0  0  0  0  2  0  0  0  0  0  0
  190.2990  173.5510  136.2330 C   0  0  0  0  0  2  0  0  0  0  0  0
  188.5060  175.2260  135.0910 C   0  0  0  0  0  2  0  0  0  0  0  0
  188.5990  175.3980  136.5430 N   0  0  0  0  0  0  0  0  0  0  0  0
  188.2620  173.7550  134.7490 C   0  0  0  0  0  2  0  0  0  0  0  0
  1  7  1  6  0  0  0
  1  4  1  0  0  0  0
  1 14  1  0  0  0  0
  2 19  1  0  0  0  0
  3  9  1  0  0  0  0
  3 17  1  0  0  0  0
  4 27  1  6  0  0  0
  4 13  1  0  0  0  0
  5 11  1  6  0  0  0
  5  6  1  0  0  0  0
  6  8  1  0  0  0  0
  8 22  2  0  0  0  0
  8 21  1  0  0  0  0
  9 42  1  6  0  0  0
  9 17  1  0  0  0  0
 12 16  1  0  0  0  0
 12 11  1  0  0  0  0
 13 23  1  6  0  0  0
 14  5  1  0  0  0  0
 15  5  1  0  0  0  0
 15  2  1  0  0  0  0
 16 13  1  0  0  0  0
 16 10  1  0  0  0  0
 17 24  1  0  0  0  0
 17 35  1  0  0  0  0
 18 14  1  0  0  0  0
 18 24  1  0  0  0  0
 19 21  1  0  0  0  0
 20  9  1  0  0  0  0
 20 18  1  0  0  0  0
 24 15  1  0  0  0  0
 25 29  2  0  0  0  0
 26 27  1  0  0  0  0
 26 33  1  0  0  0  0
 27 33  1  0  0  0  0
 28 30  1  0  0  0  0
 29 32  1  0  0  0  0
 31 27  1  0  0  0  0
 32 28  1  0  0  0  0
 33 30  1  0  0  0  0
 34 29  1  0  0  0  0
 34 26  1  0  0  0  0
 35 37  1  0  0  0  0
 36 37  2  0  0  0  0
 37 38  1  0  0  0  0
 38 40  1  0  0  0  0
 40 39  1  0  0  0  0
 40 41  2  0  0  0  0
 44 45  1  0  0  0  0
 45 43  1  0  0  0  0
 46 47  1  0  0  0  0
 47 42  1  0  0  0  0
 47 43  1  0  0  0  0
 48 46  1  0  0  0  0
 48 44  1  0  0  0  0
M  END
>  <MODEL>
5

>  <REMARK>
 VINA RESULT:      -6.4      2.850      9.524
  Name = 
  7 active torsions:
  status: ('A' for Active; 'I' for Inactive)
    1  A    between atoms: C_1  and  C_19
    2  A    between atoms: C_1  and  C_27
    3  A    between atoms: C_7  and  C_13
    4  A    between atoms: C_14  and  C_27
    5  A    between atoms: C_14  and  C_33
    6  A    between atoms: C_16  and  C_35
    7  A    between atoms: C_35  and  N_37
                            x       y       z     vdW  Elec       q    Type
                         _______ _______ _______ _____ _____    ______ ____

>  <TORSDO>
F 7

$$$$
=
 OpenBabel11062415233D

 48 55  0  0  1  0  0  0  0  0999 V2000
  184.1900  177.5190  138.5350 C   0  0  2  0  0  3  0  0  0  0  0  0
  189.5130  177.8840  138.6060 C   0  0  0  0  0  2  0  0  0  0  0  0
  187.3180  177.0190  142.4110 O   0  0  0  0  0  0  0  0  0  0  0  0
  183.5640  177.8570  137.1610 C   0  0  1  0  0  3  0  0  0  0  0  0
  186.9130  177.4060  137.7260 P   0  0  2  0  0  4  0  0  0  0  0  0
  187.4210  178.5670  136.4220 C   0  0  0  0  0  2  0  0  0  0  0  0
  183.3330  177.9370  139.5560 O   0  0  0  0  0  1  0  0  0  0  0  0
  188.5530  177.9830  135.6400 C   0  0  0  0  0  0  0  0  0  0  0  0
  186.8140  178.3390  142.3430 C   0  0  1  0  0  0  0  0  0  0  0  0
  185.1040  175.2870  134.8200 O   0  0  0  0  0  1  0  0  0  0  0  0
  186.6020  175.7580  136.9990 C   0  0  0  0  0  2  0  0  0  0  0  0
  185.2580  175.3700  137.1410 O   0  0  0  0  0  0  0  0  0  0  0  0
  184.3350  177.2960  135.9480 C   0  0  1  0  0  3  0  0  0  0  0  0
  185.5810  178.1410  138.7550 C   0  0  2  0  0  3  0  0  0  0  0  0
  188.1910  177.2510  139.0240 C   0  0  2  0  0  3  0  0  0  0  0  0
  184.5300  175.7760  136.0000 C   0  0  1  0  0  3  0  0  0  0  0  0
  188.0220  177.9250  141.5800 C   0  0  2  0  0  0  0  0  0  0  0  0
  186.1090  177.8130  140.1390 C   0  0  2  0  0  3  0  0  0  0  0  0
  190.1260  177.1870  137.4030 C   0  0  0  0  0  2  0  0  0  0  0  0
  185.6280  178.5290  141.3850 C   0  0  0  0  0  2  0  0  0  0  0  0
  189.9560  178.0500  136.1600 C   0  0  0  0  0  2  0  0  0  0  0  0
  188.3250  177.4010  134.5950 O   0  0  0  0  0  0  0  0  0  0  0  0
  183.7330  177.6830  134.7520 O   0  0  0  0  0  1  0  0  0  0  0  0
  187.5850  178.0780  140.1340 C   0  0  2  0  0  3  0  0  0  0  0  0
  178.9310  174.4800  135.1920 O   0  0  0  0  0  0  0  0  0  0  0  0
  181.4080  176.5360  136.3170 C   0  0  1  0  0  3  0  0  0  0  0  0
  182.0260  177.6720  137.1090 C   0  0  2  0  0  0  0  0  0  0  0  0
  181.3550  173.9800  137.5720 C   0  0  0  0  0  2  0  0  0  0  0  0
  179.5240  175.0040  136.1150 C   0  0  0  0  0  0  0  0  0  0  0  0
  182.0940  175.2000  138.1800 C   0  0  0  0  0  2  0  0  0  0  0  0
  181.2560  178.8320  137.1450 O   0  0  0  0  0  1  0  0  0  0  0  0
  179.8390  174.1800  137.3520 C   0  0  0  0  0  2  0  0  0  0  0  0
  181.3890  176.5050  137.8430 C   0  0  2  0  0  3  0  0  0  0  0  0
  179.9320  176.4570  136.0010 C   0  0  0  0  0  2  0  0  0  0  0  0
  189.3560  178.4490  142.1060 C   0  0  0  0  0  2  0  0  0  0  0  0
  191.3570  177.4440  141.3600 O   0  0  0  0  0  0  0  0  0  0  0  0
  190.3950  177.3740  142.1110 C   0  0  0  0  0  0  0  0  0  0  0  0
  190.2230  176.1750  142.9860 C   0  0  0  0  0  2  0  0  0  0  0  0
  191.5820  177.2150  144.9240 C   0  0  0  0  0  1  0  0  0  0  0  0
  191.3290  176.0880  143.9820 C   0  0  0  0  0  0  0  0  0  0  0  0
  192.0560  175.1090  143.9970 O   0  0  0  0  0  0  0  0  0  0  0  0
  186.9620  179.1410  143.6330 C   0  0  0  0  0  2  0  0  0  0  0  0
  185.7870  178.9090  145.6440 C   0  0  0  0  0  2  0  0  0  0  0  0
  186.7730  177.5320  147.5040 C   0  0  0  0  0  2  0  0  0  0  0  0
  186.0880  178.8470  147.1510 C   0  0  0  0  0  2  0  0  0  0  0  0
  188.1150  178.2450  145.4620 C   0  0  0  0  0  2  0  0  0  0  0  0
  186.8120  178.2800  144.7950 N   0  0  0  0  0  0  0  0  0  0  0  0
  188.0570  177.3290  146.6860 C   0  0  0  0  0  2  0  0  0  0  0  0
  1 14  1  0  0  0  0
  1  7  1  1  0  0  0
  2 15  1  0  0  0  0
  4 27  1  1  0  0  0
  4  1  1  0  0  0  0
  5  6  1  6  0  0  0
  5 14  1  0  0  0  0
  5 15  1  0  0  0  0
  8 21  1  0  0  0  0
  8  6  1  0  0  0  0
  9  3  1  0  0  0  0
  9 42  1  1  0  0  0
 10 16  1  0  0  0  0
 11 12  1  0  0  0  0
 11  5  1  0  0  0  0
 13 23  1  6  0  0  0
 13 16  1  0  0  0  0
 13  4  1  0  0  0  0
 14 18  1  0  0  0  0
 15 24  1  0  0  0  0
 16 12  1  0  0  0  0
 17 35  1  0  0  0  0
 17  9  1  0  0  0  0
 17  3  1  0  0  0  0
 18 20  1  0  0  0  0
 19  2  1  0  0  0  0
 20  9  1  0  0  0  0
 21 19  1  0  0  0  0
 22  8  2  0  0  0  0
 24 18  1  0  0  0  0
 24 17  1  0  0  0  0
 25 29  2  0  0  0  0
 26 27  1  0  0  0  0
 26 33  1  0  0  0  0
 27 31  1  0  0  0  0
 27 33  1  0  0  0  0
 28 30  1  0  0  0  0
 29 32  1  0  0  0  0
 32 28  1  0  0  0  0
 33 30  1  0  0  0  0
 34 29  1  0  0  0  0
 34 26  1  0  0  0  0
 35 37  1  0  0  0  0
 36 37  2  0  0  0  0
 37 38  1  0  0  0  0
 38 40  1  0  0  0  0
 40 41  2  0  0  0  0
 40 39  1  0  0  0  0
 42 47  1  0  0  0  0
 43 45  1  0  0  0  0
 45 44  1  0  0  0  0
 46 48  1  0  0  0  0
 47 46  1  0  0  0  0
 47 43  1  0  0  0  0
 48 44  1  0  0  0  0
M  END
>  <MODEL>
6

>  <REMARK>
 VINA RESULT:      -6.4      2.348      7.896
  Name = 
  7 active torsions:
  status: ('A' for Active; 'I' for Inactive)
    1  A    between atoms: C_1  and  C_19
    2  A    between atoms: C_1  and  C_27
    3  A    between atoms: C_7  and  C_13
    4  A    between atoms: C_14  and  C_27
    5  A    between atoms: C_14  and  C_33
    6  A    between atoms: C_16  and  C_35
    7  A    between atoms: C_35  and  N_37
                            x       y       z     vdW  Elec       q    Type
                         _______ _______ _______ _____ _____    ______ ____

>  <TORSDO>
F 7

$$$$
=
 OpenBabel11062415233D

 48 55  0  0  1  0  0  0  0  0999 V2000
  184.4100  177.0340  137.8380 C   0  0  2  0  0  3  0  0  0  0  0  0
  181.8000  178.9490  142.0810 C   0  0  0  0  0  2  0  0  0  0  0  0
  186.0540  180.1590  141.3860 O   0  0  0  0  0  0  0  0  0  0  0  0
  183.6000  175.9910  137.0320 C   0  0  1  0  0  3  0  0  0  0  0  0
  182.3180  177.9540  139.5300 P   0  0  2  0  0  4  0  0  0  0  0  0
  181.0900  176.7180  140.0480 C   0  0  0  0  0  2  0  0  0  0  0  0
  185.7670  176.7050  137.7990 O   0  0  0  0  0  1  0  0  0  0  0  0
  179.7760  177.3850  140.2950 C   0  0  0  0  0  0  0  0  0  0  0  0
  186.4140  178.8250  141.6900 C   0  0  1  0  0  0  0  0  0  0  0  0
  180.5090  177.9130  135.9340 O   0  0  0  0  0  1  0  0  0  0  0  0
  181.6570  178.9350  138.1360 C   0  0  0  0  0  2  0  0  0  0  0  0
  182.4160  178.7560  136.9660 O   0  0  0  0  0  0  0  0  0  0  0  0
  182.1060  176.3320  136.8570 C   0  0  1  0  0  3  0  0  0  0  0  0
  183.9630  177.1680  139.3060 C   0  0  2  0  0  3  0  0  0  0  0  0
  182.7520  179.0850  140.8990 C   0  0  2  0  0  3  0  0  0  0  0  0
  181.8660  177.7000  136.2070 C   0  0  1  0  0  3  0  0  0  0  0  0
  185.0970  179.3890  142.0930 C   0  0  2  0  0  0  0  0  0  0  0  0
  184.8330  178.1660  140.0470 C   0  0  2  0  0  3  0  0  0  0  0  0
  180.3780  179.3430  141.7170 C   0  0  0  0  0  2  0  0  0  0  0  0
  186.2260  177.8270  140.5370 C   0  0  0  0  0  2  0  0  0  0  0  0
  179.5110  178.0980  141.5850 C   0  0  0  0  0  2  0  0  0  0  0  0
  178.9310  177.3940  139.4180 O   0  0  0  0  0  0  0  0  0  0  0  0
  181.4410  175.3240  136.1610 O   0  0  0  0  0  1  0  0  0  0  0  0
  184.1070  178.5520  141.3030 C   0  0  2  0  0  3  0  0  0  0  0  0
  187.9570  172.4710  134.7130 O   0  0  0  0  0  0  0  0  0  0  0  0
  185.5120  174.5610  135.8460 C   0  0  1  0  0  3  0  0  0  0  0  0
  184.3180  175.4920  135.7520 C   0  0  2  0  0  0  0  0  0  0  0  0
  184.9500  171.7950  136.2290 C   0  0  0  0  0  2  0  0  0  0  0  0
  186.7840  172.7910  134.7570 C   0  0  0  0  0  0  0  0  0  0  0  0
  183.8540  172.8900  136.2760 C   0  0  0  0  0  2  0  0  0  0  0  0
  184.3620  176.3750  134.6750 O   0  0  0  0  0  1  0  0  0  0  0  0
  185.7280  171.7080  134.8970 C   0  0  0  0  0  2  0  0  0  0  0  0
  184.1710  174.0390  135.3320 C   0  0  2  0  0  3  0  0  0  0  0  0
  186.4160  174.2570  134.6740 C   0  0  0  0  0  2  0  0  0  0  0  0
  184.9290  179.6940  143.5790 C   0  0  0  0  0  2  0  0  0  0  0  0
  183.2310  178.2690  144.3900 O   0  0  0  0  0  0  0  0  0  0  0  0
  184.4300  178.4970  144.3230 C   0  0  0  0  0  0  0  0  0  0  0  0
  185.3940  177.6140  145.0460 C   0  0  0  0  0  2  0  0  0  0  0  0
  187.2000  178.0760  146.8370 C   0  0  0  0  0  1  0  0  0  0  0  0
  185.8030  178.2300  146.3410 C   0  0  0  0  0  0  0  0  0  0  0  0
  184.9800  178.8240  147.0160 O   0  0  0  0  0  0  0  0  0  0  0  0
  187.5340  178.6900  142.7170 C   0  0  0  0  0  2  0  0  0  0  0  0
  188.6260  176.8660  143.6980 C   0  0  0  0  0  2  0  0  0  0  0  0
  190.6010  175.8310  142.5330 C   0  0  0  0  0  2  0  0  0  0  0  0
  190.0620  176.3390  143.8650 C   0  0  0  0  0  2  0  0  0  0  0  0
  189.6100  178.0680  141.8320 C   0  0  0  0  0  2  0  0  0  0  0  0
  188.3740  177.5420  142.4140 N   0  0  0  0  0  0  0  0  0  0  0  0
  190.5450  176.9200  141.4510 C   0  0  0  0  0  2  0  0  0  0  0  0
  1  7  1  1  0  0  0
  1 14  1  0  0  0  0
  3  9  1  0  0  0  0
  3 17  1  0  0  0  0
  4 27  1  6  0  0  0
  4  1  1  0  0  0  0
  5 11  1  6  0  0  0
  5  6  1  0  0  0  0
  5 15  1  0  0  0  0
  6  8  1  0  0  0  0
  8 21  1  0  0  0  0
  9 17  1  0  0  0  0
  9 42  1  1  0  0  0
 10 16  1  0  0  0  0
 12 11  1  0  0  0  0
 13 23  1  6  0  0  0
 13  4  1  0  0  0  0
 14  5  1  0  0  0  0
 14 18  1  0  0  0  0
 15 24  1  0  0  0  0
 15  2  1  0  0  0  0
 16 13  1  0  0  0  0
 16 12  1  0  0  0  0
 17 35  1  0  0  0  0
 18 20  1  0  0  0  0
 18 24  1  0  0  0  0
 19  2  1  0  0  0  0
 20  9  1  0  0  0  0
 21 19  1  0  0  0  0
 22  8  2  0  0  0  0
 24 17  1  0  0  0  0
 25 29  2  0  0  0  0
 27 26  1  0  0  0  0
 28 30  1  0  0  0  0
 29 32  1  0  0  0  0
 31 27  1  0  0  0  0
 32 28  1  0  0  0  0
 33 27  1  0  0  0  0
 33 26  1  0  0  0  0
 33 30  1  0  0  0  0
 34 29  1  0  0  0  0
 34 26  1  0  0  0  0
 35 37  1  0  0  0  0
 37 36  2  0  0  0  0
 37 38  1  0  0  0  0
 38 40  1  0  0  0  0
 40 39  1  0  0  0  0
 40 41  2  0  0  0  0
 43 45  1  0  0  0  0
 44 45  1  0  0  0  0
 46 47  1  0  0  0  0
 47 42  1  0  0  0  0
 47 43  1  0  0  0  0
 48 46  1  0  0  0  0
 48 44  1  0  0  0  0
M  END
>  <MODEL>
7

>  <REMARK>
 VINA RESULT:      -6.3      2.774      7.912
  Name = 
  7 active torsions:
  status: ('A' for Active; 'I' for Inactive)
    1  A    between atoms: C_1  and  C_19
    2  A    between atoms: C_1  and  C_27
    3  A    between atoms: C_7  and  C_13
    4  A    between atoms: C_14  and  C_27
    5  A    between atoms: C_14  and  C_33
    6  A    between atoms: C_16  and  C_35
    7  A    between atoms: C_35  and  N_37
                            x       y       z     vdW  Elec       q    Type
                         _______ _______ _______ _____ _____    ______ ____

>  <TORSDO>
F 7

$$$$
=
 OpenBabel11062415233D

 48 55  0  0  1  0  0  0  0  0999 V2000
  185.7330  177.6100  138.9350 C   0  0  2  0  0  3  0  0  0  0  0  0
  190.9920  176.7190  139.0890 C   0  0  0  0  0  2  0  0  0  0  0  0
  188.6020  176.4290  142.8630 O   0  0  0  0  0  0  0  0  0  0  0  0
  185.2240  178.0720  137.5490 C   0  0  1  0  0  3  0  0  0  0  0  0
  188.3650  176.8550  138.1700 P   0  0  2  0  0  4  0  0  0  0  0  0
  189.1500  177.8520  136.8670 C   0  0  0  0  0  2  0  0  0  0  0  0
  184.9830  178.2280  139.9390 O   0  0  0  0  0  1  0  0  0  0  0  0
  190.1240  177.0120  136.1070 C   0  0  0  0  0  0  0  0  0  0  0  0
  188.4220  177.8290  142.7790 C   0  0  1  0  0  0  0  0  0  0  0  0
  186.1510  175.1910  135.2480 O   0  0  0  0  0  1  0  0  0  0  0  0
  187.6870  175.3190  137.4480 C   0  0  0  0  0  2  0  0  0  0  0  0
  186.2870  175.2580  137.5700 O   0  0  0  0  0  0  0  0  0  0  0  0
  185.8580  177.3360  136.3510 C   0  0  1  0  0  3  0  0  0  0  0  0
  187.2290  177.8920  139.1730 C   0  0  2  0  0  3  0  0  0  0  0  0
  189.5530  176.4170  139.4890 C   0  0  2  0  0  3  0  0  0  0  0  0
  185.6910  175.8120  136.4160 C   0  0  1  0  0  3  0  0  0  0  0  0
  189.5100  177.1360  142.0380 C   0  0  2  0  0  0  0  0  0  0  0  0
  187.6450  177.4620  140.5670 C   0  0  2  0  0  3  0  0  0  0  0  0
  191.4420  175.8860  137.9000 C   0  0  0  0  0  2  0  0  0  0  0  0
  187.3280  178.2820  141.8010 C   0  0  0  0  0  2  0  0  0  0  0  0
  191.4960  176.7530  136.6490 C   0  0  0  0  0  2  0  0  0  0  0  0
  189.7810  176.4890  135.0610 O   0  0  0  0  0  0  0  0  0  0  0  0
  185.3810  177.8410  135.1440 O   0  0  0  0  0  1  0  0  0  0  0  0
  189.1420  177.3740  140.5840 C   0  0  2  0  0  3  0  0  0  0  0  0
  179.9960  176.0700  135.2220 O   0  0  0  0  0  0  0  0  0  0  0  0
  182.8470  177.3760  136.5640 C   0  0  1  0  0  3  0  0  0  0  0  0
  183.6860  178.2530  137.4730 C   0  0  2  0  0  0  0  0  0  0  0  0
  182.1770  174.7860  137.5430 C   0  0  0  0  0  2  0  0  0  0  0  0
  180.6680  176.3460  136.1970 C   0  0  0  0  0  0  0  0  0  0  0  0
  183.1590  175.7350  138.2780 C   0  0  0  0  0  2  0  0  0  0  0  0
  183.2010  179.5490  137.6290 O   0  0  0  0  0  1  0  0  0  0  0  0
  180.7540  175.3510  137.3410 C   0  0  0  0  0  2  0  0  0  0  0  0
  182.7790  177.1950  138.0790 C   0  0  2  0  0  3  0  0  0  0  0  0
  181.4000  177.6700  136.2370 C   0  0  0  0  0  2  0  0  0  0  0  0
  190.9220  177.3380  142.5820 C   0  0  0  0  0  2  0  0  0  0  0  0
  191.1130  175.1240  143.3770 O   0  0  0  0  0  0  0  0  0  0  0  0
  191.2530  176.3140  143.6200 C   0  0  0  0  0  0  0  0  0  0  0  0
  191.6910  176.7470  144.9800 C   0  0  0  0  0  2  0  0  0  0  0  0
  192.0130  175.6590  147.3030 C   0  0  0  0  0  1  0  0  0  0  0  0
  192.0570  175.5680  145.8160 C   0  0  0  0  0  0  0  0  0  0  0  0
  192.4330  174.5390  145.2810 O   0  0  0  0  0  0  0  0  0  0  0  0
  188.7360  178.5860  144.0660 C   0  0  0  0  0  2  0  0  0  0  0  0
  186.8650  178.2540  145.4330 C   0  0  0  0  0  2  0  0  0  0  0  0
  187.1810  177.4130  147.7830 C   0  0  0  0  0  2  0  0  0  0  0  0
  186.4710  178.4400  146.9090 C   0  0  0  0  0  2  0  0  0  0  0  0
  189.1120  178.2480  146.3520 C   0  0  0  0  0  2  0  0  0  0  0  0
  188.2650  177.8470  145.2260 N   0  0  0  0  0  0  0  0  0  0  0  0
  188.7050  177.4890  147.6160 C   0  0  0  0  0  2  0  0  0  0  0  0
  1 14  1  0  0  0  0
  1  7  1  1  0  0  0
  2 15  1  0  0  0  0
  4 27  1  1  0  0  0
  4  1  1  0  0  0  0
  5  6  1  6  0  0  0
  5 14  1  0  0  0  0
  5 15  1  0  0  0  0
  8 21  1  0  0  0  0
  8  6  1  0  0  0  0
  9  3  1  0  0  0  0
  9 42  1  1  0  0  0
 10 16  1  0  0  0  0
 11 12  1  0  0  0  0
 11  5  1  0  0  0  0
 13 23  1  6  0  0  0
 13 16  1  0  0  0  0
 13  4  1  0  0  0  0
 14 18  1  0  0  0  0
 15 24  1  0  0  0  0
 16 12  1  0  0  0  0
 17 35  1  0  0  0  0
 17  9  1  0  0  0  0
 17  3  1  0  0  0  0
 18 24  1  0  0  0  0
 18 20  1  0  0  0  0
 19  2  1  0  0  0  0
 20  9  1  0  0  0  0
 21 19  1  0  0  0  0
 22  8  2  0  0  0  0
 24 17  1  0  0  0  0
 25 29  2  0  0  0  0
 26 27  1  0  0  0  0
 26 33  1  0  0  0  0
 27 31  1  0  0  0  0
 27 33  1  0  0  0  0
 28 30  1  0  0  0  0
 29 34  1  0  0  0  0
 29 32  1  0  0  0  0
 32 28  1  0  0  0  0
 33 30  1  0  0  0  0
 34 26  1  0  0  0  0
 35 37  1  0  0  0  0
 36 37  2  0  0  0  0
 37 38  1  0  0  0  0
 38 40  1  0  0  0  0
 40 39  1  0  0  0  0
 41 40  2  0  0  0  0
 42 47  1  0  0  0  0
 43 45  1  0  0  0  0
 45 44  1  0  0  0  0
 46 48  1  0  0  0  0
 47 43  1  0  0  0  0
 47 46  1  0  0  0  0
 48 44  1  0  0  0  0
M  END
>  <MODEL>
8

>  <REMARK>
 VINA RESULT:      -5.8      2.569      7.913
  Name = 
  7 active torsions:
  status: ('A' for Active; 'I' for Inactive)
    1  A    between atoms: C_1  and  C_19
    2  A    between atoms: C_1  and  C_27
    3  A    between atoms: C_7  and  C_13
    4  A    between atoms: C_14  and  C_27
    5  A    between atoms: C_14  and  C_33
    6  A    between atoms: C_16  and  C_35
    7  A    between atoms: C_35  and  N_37
                            x       y       z     vdW  Elec       q    Type
                         _______ _______ _______ _____ _____    ______ ____

>  <TORSDO>
F 7

$$$$
=
 OpenBabel11062415233D

 48 55  0  0  1  0  0  0  0  0999 V2000
  184.3260  178.1240  138.9430 C   0  0  2  0  0  3  0  0  0  0  0  0
  181.9570  178.5280  143.7070 C   0  0  0  0  0  2  0  0  0  0  0  0
  186.3490  179.3260  143.3610 O   0  0  0  0  0  0  0  0  0  0  0  0
  183.3880  177.6080  137.8260 C   0  0  1  0  0  3  0  0  0  0  0  0
  182.3640  178.5690  140.9500 P   0  0  2  0  0  4  0  0  0  0  0  0
  180.9660  177.4080  140.9910 C   0  0  0  0  0  2  0  0  0  0  0  0
  185.6240  177.6580  138.7170 O   0  0  0  0  0  1  0  0  0  0  0  0
  179.7560  178.0930  141.5400 C   0  0  0  0  0  0  0  0  0  0  0  0
  186.5120  177.9470  143.0960 C   0  0  1  0  0  0  0  0  0  0  0  0
  180.6160  180.2070  137.7150 O   0  0  0  0  0  1  0  0  0  0  0  0
  181.8680  180.1030  140.0890 C   0  0  0  0  0  2  0  0  0  0  0  0
  182.6090  180.3040  138.9110 O   0  0  0  0  0  0  0  0  0  0  0  0
  181.9600  178.1890  137.8660 C   0  0  1  0  0  3  0  0  0  0  0  0
  183.8830  177.7230  140.3620 C   0  0  2  0  0  3  0  0  0  0  0  0
  182.9350  178.9930  142.6340 C   0  0  2  0  0  3  0  0  0  0  0  0
  181.9250  179.7220  137.8210 C   0  0  1  0  0  3  0  0  0  0  0  0
  185.2830  178.4760  143.7470 C   0  0  2  0  0  0  0  0  0  0  0  0
  184.8760  178.2160  141.3980 C   0  0  2  0  0  3  0  0  0  0  0  0
  180.6100  179.2230  143.5910 C   0  0  0  0  0  2  0  0  0  0  0  0
  186.2000  177.5250  141.6520 C   0  0  0  0  0  2  0  0  0  0  0  0
  179.5780  178.2630  143.0170 C   0  0  0  0  0  2  0  0  0  0  0  0
  178.9330  178.5650  140.7750 O   0  0  0  0  0  0  0  0  0  0  0  0
  181.1690  177.6410  136.8580 O   0  0  0  0  0  1  0  0  0  0  0  0
  184.1950  178.1650  142.7340 C   0  0  2  0  0  3  0  0  0  0  0  0
  188.4460  176.6390  134.6260 O   0  0  0  0  0  0  0  0  0  0  0  0
  185.5290  177.2920  136.2700 C   0  0  1  0  0  3  0  0  0  0  0  0
  184.0450  177.5670  136.4220 C   0  0  2  0  0  0  0  0  0  0  0  0
  186.3450  174.5660  136.3840 C   0  0  0  0  0  2  0  0  0  0  0  0
  187.2780  176.3750  134.8410 C   0  0  0  0  0  0  0  0  0  0  0  0
  184.8950  175.0230  136.6840 C   0  0  0  0  0  2  0  0  0  0  0  0
  183.5180  178.4250  135.4600 O   0  0  0  0  0  1  0  0  0  0  0  0
  186.8610  174.9200  134.9720 C   0  0  0  0  0  2  0  0  0  0  0  0
  184.5080  176.2360  135.8530 C   0  0  2  0  0  3  0  0  0  0  0  0
  186.2790  177.5050  134.9740 C   0  0  0  0  0  2  0  0  0  0  0  0
  185.1390  178.1850  145.2380 C   0  0  0  0  0  2  0  0  0  0  0  0
  185.6620  180.4620  145.5750 O   0  0  0  0  0  0  0  0  0  0  0  0
  185.6050  179.3420  146.0630 C   0  0  0  0  0  0  0  0  0  0  0  0
  186.0670  179.1190  147.4660 C   0  0  0  0  0  2  0  0  0  0  0  0
  188.3700  178.3800  148.3770 C   0  0  0  0  0  1  0  0  0  0  0  0
  187.1890  178.1380  147.5010 C   0  0  0  0  0  0  0  0  0  0  0  0
  187.1590  177.1570  146.7790 O   0  0  0  0  0  0  0  0  0  0  0  0
  187.5870  177.2630  143.9350 C   0  0  0  0  0  2  0  0  0  0  0  0
  189.4660  176.1330  143.1150 C   0  0  0  0  0  2  0  0  0  0  0  0
  191.6950  177.2970  143.0810 C   0  0  0  0  0  2  0  0  0  0  0  0
  190.9650  176.0080  143.4380 C   0  0  0  0  0  2  0  0  0  0  0  0
  189.6870  178.2140  144.3460 C   0  0  0  0  0  2  0  0  0  0  0  0
  188.9040  177.4720  143.3550 N   0  0  0  0  0  0  0  0  0  0  0  0
  191.0860  178.5080  143.8020 C   0  0  0  0  0  2  0  0  0  0  0  0
  1  7  1  6  0  0  0
  1 14  1  0  0  0  0
  3 17  1  0  0  0  0
  4 27  1  6  0  0  0
  4 13  1  0  0  0  0
  4  1  1  0  0  0  0
  5 11  1  6  0  0  0
  5  6  1  0  0  0  0
  5 15  1  0  0  0  0
  6  8  1  0  0  0  0
  8 21  1  0  0  0  0
  9  3  1  0  0  0  0
  9 17  1  0  0  0  0
  9 42  1  1  0  0  0
 10 16  1  0  0  0  0
 12 11  1  0  0  0  0
 13 23  1  6  0  0  0
 14  5  1  0  0  0  0
 14 18  1  0  0  0  0
 15 24  1  0  0  0  0
 15  2  1  0  0  0  0
 16 13  1  0  0  0  0
 16 12  1  0  0  0  0
 17 35  1  0  0  0  0
 18 20  1  0  0  0  0
 18 24  1  0  0  0  0
 19  2  1  0  0  0  0
 20  9  1  0  0  0  0
 21 19  1  0  0  0  0
 22  8  2  0  0  0  0
 24 17  1  0  0  0  0
 25 29  2  0  0  0  0
 26 27  1  0  0  0  0
 28 30  1  0  0  0  0
 29 32  1  0  0  0  0
 29 34  1  0  0  0  0
 31 27  1  0  0  0  0
 32 28  1  0  0  0  0
 33 26  1  0  0  0  0
 33 27  1  0  0  0  0
 33 30  1  0  0  0  0
 34 26  1  0  0  0  0
 35 37  1  0  0  0  0
 36 37  2  0  0  0  0
 37 38  1  0  0  0  0
 38 40  1  0  0  0  0
 40 39  1  0  0  0  0
 41 40  2  0  0  0  0
 43 47  1  0  0  0  0
 43 45  1  0  0  0  0
 44 45  1  0  0  0  0
 44 48  1  0  0  0  0
 47 42  1  0  0  0  0
 47 46  1  0  0  0  0
 48 46  1  0  0  0  0
M  END
>  <MODEL>
9

>  <REMARK>
 VINA RESULT:      -5.3      2.717      8.321
  Name = 
  7 active torsions:
  status: ('A' for Active; 'I' for Inactive)
    1  A    between atoms: C_1  and  C_19
    2  A    between atoms: C_1  and  C_27
    3  A    between atoms: C_7  and  C_13
    4  A    between atoms: C_14  and  C_27
    5  A    between atoms: C_14  and  C_33
    6  A    between atoms: C_16  and  C_35
    7  A    between atoms: C_35  and  N_37
                            x       y       z     vdW  Elec       q    Type
                         _______ _______ _______ _____ _____    ______ ____

>  <TORSDO>
F 7

$$$$
