=
 OpenBabel11062417223D

 45 49  0  0  1  0  0  0  0  0999 V2000
  183.8300  177.4320  137.5910 O   0  0  0  0  0  0  0  0  0  0  0  0
  182.4620  177.6390  137.7950 C   0  0  0  0  0  2  0  0  0  0  0  0
  185.3370  178.6580  142.4260 C   0  0  0  0  0  0  0  0  0  0  0  0
  182.8100  178.9480  143.5850 C   0  0  0  0  0  3  0  0  0  0  0  0
  184.3860  178.7590  140.1700 N   0  0  0  0  0  2  0  0  0  0  0  0
  182.9170  178.8480  142.1900 C   0  0  0  0  0  0  0  0  0  0  0  0
  180.6210  179.4210  141.7620 N   0  0  0  0  0  2  0  0  0  0  0  0
  183.9480  178.9140  144.3970 C   0  0  0  0  0  0  0  0  0  0  0  0
  181.6460  177.8990  140.1680 C   0  0  1  0  0  3  0  0  0  0  0  0
  184.2020  178.7370  141.5970 C   0  0  0  0  0  0  0  0  0  0  0  0
  182.2260  178.6130  138.9450 C   0  0  1  0  0  3  0  0  0  0  0  0
  185.2040  178.7560  143.8140 C   0  0  0  0  0  3  0  0  0  0  0  0
  183.4850  179.4350  139.2400 C   0  0  0  0  0  2  0  0  0  0  0  0
  181.6770  178.7680  141.3940 C   0  0  0  0  0  0  0  0  0  0  0  0
  186.7060  178.5270  141.8500 C   0  0  0  0  0  1  0  0  0  0  0  0
  180.3470  177.4490  139.9030 O   0  0  0  0  0  0  0  0  0  0  0  0
  180.3440  175.2480  139.3160 O   0  0  0  0  0  1  0  0  0  0  0  0
  180.3150  176.1400  140.3870 C   0  0  0  0  0  2  0  0  0  0  0  0
  183.8420  179.0130  145.8200 N   0  0  0  0  0  2  0  0  0  0  0  0
  184.6350  178.2460  146.6870 N   0  0  0  0  0  2  0  0  0  0  0  0
  185.8320  179.0210  146.9820 C   0  0  0  0  0  2  0  0  0  0  0  0
  187.8240  178.2120  148.2390 C   0  0  0  0  0  1  0  0  0  0  0  0
  187.0560  178.1250  146.9340 C   0  0  0  0  0  2  0  0  0  0  0  0
  183.9400  177.0800  136.2440 C   0  0  0  0  0  2  0  0  0  0  0  0
  185.2460  176.3390  135.9980 C   0  0  0  0  0  2  0  0  0  0  0  0
  186.3500  177.0460  136.6300 N   0  0  0  0  0  0  0  0  0  0  0  0
  187.4560  179.1950  136.0760 C   0  0  0  0  0  2  0  0  0  0  0  0
  189.4410  176.9650  138.1450 C   0  0  1  0  0  0  0  0  0  0  0  0
  188.1850  175.3380  136.2390 C   0  0  0  0  0  2  0  0  0  0  0  0
  187.0240  177.8140  135.5820 C   0  0  0  0  0  2  0  0  0  0  0  0
  189.5000  178.0910  137.0730 C   0  0  0  0  0  2  0  0  0  0  0  0
  187.2370  176.0340  137.2350 C   0  0  1  0  0  3  0  0  0  0  0  0
  187.9690  176.6080  138.4520 C   0  0  0  0  0  2  0  0  0  0  0  0
  190.1770  175.7360  137.7150 N   0  0  0  0  0  0  0  0  0  0  0  0
  188.4200  179.1560  137.2620 C   0  0  0  0  0  2  0  0  0  0  0  0
  189.3820  174.7350  136.9740 C   0  0  0  0  0  2  0  0  0  0  0  0
  190.2980  175.5530  142.5970 O   0  0  0  0  0  0  0  0  0  0  0  0
  189.2560  177.1180  140.5600 O   0  0  0  0  0  0  0  0  0  0  0  0
  191.5040  177.0470  139.6890 C   0  0  0  0  0  2  0  0  0  0  0  0
  191.8590  177.2240  141.0290 O   0  0  0  0  0  0  0  0  0  0  0  0
  190.1590  178.1780  142.7860 O   0  0  0  0  0  1  0  0  0  0  0  0
  190.0470  177.4890  139.4640 C   0  0  1  0  0  3  0  0  0  0  0  0
  190.3810  177.0470  141.8080 P   0  0  2  0  0  0  0  0  0  0  0  0
  191.3880  176.0190  136.9440 C   0  0  0  0  0  2  0  0  0  0  0  0
  192.2900  174.9650  137.0840 O   0  0  0  0  0  1  0  0  0  0  0  0
  1  2  1  0  0  0  0
  3 12  1  0  0  0  0
  4  8  1  0  0  0  0
  5 10  1  0  0  0  0
  6  4  2  0  0  0  0
  8 19  1  0  0  0  0
  9 16  1  6  0  0  0
  9 14  1  0  0  0  0
 10  6  1  0  0  0  0
 10  3  2  0  0  0  0
 11  2  1  6  0  0  0
 11 13  1  0  0  0  0
 11  9  1  0  0  0  0
 12  8  2  0  0  0  0
 13  5  1  0  0  0  0
 14  7  2  0  0  0  0
 14  6  1  0  0  0  0
 15  3  1  0  0  0  0
 16 18  1  0  0  0  0
 17 18  1  0  0  0  0
 19 20  1  0  0  0  0
 20 21  1  0  0  0  0
 23 21  1  0  0  0  0
 23 22  1  0  0  0  0
 24  1  1  0  0  0  0
 25 24  1  0  0  0  0
 25 26  1  0  0  0  0
 26 32  1  0  0  0  0
 27 35  1  0  0  0  0
 28 31  1  6  0  0  0
 28 33  1  0  0  0  0
 28 42  1  0  0  0  0
 29 36  1  0  0  0  0
 30 27  1  0  0  0  0
 30 26  1  0  0  0  0
 31 35  1  0  0  0  0
 32 29  1  6  0  0  0
 32 33  1  0  0  0  0
 34 28  1  0  0  0  0
 36 34  1  0  0  0  0
 38 43  1  0  0  0  0
 39 40  1  0  0  0  0
 40 43  1  0  0  0  0
 42 39  1  1  0  0  0
 42 38  1  0  0  0  0
 43 37  2  1  0  0  0
 43 41  1  0  0  0  0
 44 45  1  0  0  0  0
 44 34  1  0  0  0  0
M  END
>  <MODEL>
1

>  <REMARK>
 VINA RESULT:      -8.0      0.000      0.000
  Name = 
  13 active torsions:
  status: ('A' for Active; 'I' for Inactive)
    1  A    between atoms: C_1  and  N_36
    2  A    between atoms: N_2  and  C_40
    3  A    between atoms: C_4  and  O_29
    4  A    between atoms: C_4  and  C_30
    5  A    between atoms: O_5  and  C_26
    6  A    between atoms: O_5  and  C_32
    7  A    between atoms: C_8  and  O_29
    8  A    between atoms: C_8  and  C_40
    9  A    between atoms: C_10  and  C_37
   10  A    between atoms: N_13  and  C_23
   11  A    between atoms: N_13  and  N_28
   12  A    between atoms: N_28  and  C_45
   13  A    between atoms: C_34  and  C_45
                            x       y       z     vdW  Elec       q    Type
                         _______ _______ _______ _____ _____    ______ ____

>  <TORSDO>
F 13

$$$$
=
 OpenBabel11062417223D

 45 49  0  0  1  0  0  0  0  0999 V2000
  184.0560  177.9650  136.8920 O   0  0  0  0  0  0  0  0  0  0  0  0
  183.0190  177.4610  137.6820 C   0  0  0  0  0  2  0  0  0  0  0  0
  185.8540  178.6140  142.3060 C   0  0  0  0  0  0  0  0  0  0  0  0
  183.3240  178.6930  143.4910 C   0  0  0  0  0  3  0  0  0  0  0  0
  184.8760  178.6810  140.0600 N   0  0  0  0  0  2  0  0  0  0  0  0
  183.4250  178.6250  142.0940 C   0  0  0  0  0  0  0  0  0  0  0  0
  181.0880  179.0300  141.6950 N   0  0  0  0  0  2  0  0  0  0  0  0
  184.4700  178.7310  144.2920 C   0  0  0  0  0  0  0  0  0  0  0  0
  182.2080  177.6170  140.0660 C   0  0  1  0  0  3  0  0  0  0  0  0
  184.7080  178.6210  141.4880 C   0  0  0  0  0  0  0  0  0  0  0  0
  182.7210  178.3940  138.8510 C   0  0  1  0  0  3  0  0  0  0  0  0
  185.7280  178.6780  143.6950 C   0  0  0  0  0  3  0  0  0  0  0  0
  183.9170  179.3040  139.1500 C   0  0  0  0  0  2  0  0  0  0  0  0
  182.1860  178.4650  141.3070 C   0  0  0  0  0  0  0  0  0  0  0  0
  187.2230  178.5960  141.7150 C   0  0  0  0  0  1  0  0  0  0  0  0
  180.9440  177.0760  139.8040 O   0  0  0  0  0  0  0  0  0  0  0  0
  180.1140  175.0610  140.4670 O   0  0  0  0  0  1  0  0  0  0  0  0
  181.1450  175.6940  139.7750 C   0  0  0  0  0  2  0  0  0  0  0  0
  184.3700  178.7970  145.7180 N   0  0  0  0  0  2  0  0  0  0  0  0
  185.3730  179.3730  146.5140 N   0  0  0  0  0  2  0  0  0  0  0  0
  185.9200  178.3180  147.3540 C   0  0  0  0  0  2  0  0  0  0  0  0
  188.0710  177.5040  148.3100 C   0  0  0  0  0  1  0  0  0  0  0  0
  187.4170  178.2010  147.1320 C   0  0  0  0  0  2  0  0  0  0  0  0
  184.7120  176.8360  136.3990 C   0  0  0  0  0  2  0  0  0  0  0  0
  185.8770  177.2470  135.5120 C   0  0  0  0  0  2  0  0  0  0  0  0
  187.0820  176.5300  135.9010 N   0  0  0  0  0  0  0  0  0  0  0  0
  187.4180  174.2230  136.7480 C   0  0  0  0  0  2  0  0  0  0  0  0
  190.1420  176.5130  137.4800 C   0  0  1  0  0  0  0  0  0  0  0  0
  187.7790  177.9720  137.8690 C   0  0  0  0  0  2  0  0  0  0  0  0
  186.6900  175.5570  136.9220 C   0  0  0  0  0  2  0  0  0  0  0  0
  189.3810  175.2460  137.9680 C   0  0  0  0  0  2  0  0  0  0  0  0
  188.0420  177.5230  136.4180 C   0  0  1  0  0  3  0  0  0  0  0  0
  189.4840  177.0570  136.1910 C   0  0  0  0  0  2  0  0  0  0  0  0
  190.1740  177.5890  138.5190 N   0  0  0  0  0  0  0  0  0  0  0  0
  188.9410  174.3340  136.8250 C   0  0  0  0  0  2  0  0  0  0  0  0
  189.0510  178.5500  138.4870 C   0  0  0  0  0  2  0  0  0  0  0  0
  192.7140  172.7050  136.2870 O   0  0  0  0  0  0  0  0  0  0  0  0
  191.9700  174.9400  137.7470 O   0  0  0  0  0  0  0  0  0  0  0  0
  191.8100  175.9960  135.5840 C   0  0  0  0  0  2  0  0  0  0  0  0
  192.9900  175.2920  135.3300 O   0  0  0  0  0  0  0  0  0  0  0  0
  194.4920  174.3790  137.2780 O   0  0  0  0  0  1  0  0  0  0  0  0
  191.5850  176.1240  137.1020 C   0  0  1  0  0  3  0  0  0  0  0  0
  193.1050  174.3020  136.6830 P   0  0  2  0  0  0  0  0  0  0  0  0
  190.3000  177.0790  139.8850 C   0  0  0  0  0  2  0  0  0  0  0  0
  191.5130  177.4960  140.4310 O   0  0  0  0  0  1  0  0  0  0  0  0
  1  2  1  0  0  0  0
  3 12  1  0  0  0  0
  4  8  1  0  0  0  0
  5 10  1  0  0  0  0
  6  4  2  0  0  0  0
  8 19  1  0  0  0  0
  9 16  1  6  0  0  0
  9 14  1  0  0  0  0
 10  6  1  0  0  0  0
 10  3  2  0  0  0  0
 11  2  1  6  0  0  0
 11 13  1  0  0  0  0
 11  9  1  0  0  0  0
 12  8  2  0  0  0  0
 13  5  1  0  0  0  0
 14  7  2  0  0  0  0
 14  6  1  0  0  0  0
 15  3  1  0  0  0  0
 18 16  1  0  0  0  0
 18 17  1  0  0  0  0
 19 20  1  0  0  0  0
 20 21  1  0  0  0  0
 23 21  1  0  0  0  0
 23 22  1  0  0  0  0
 24  1  1  0  0  0  0
 25 26  1  0  0  0  0
 25 24  1  0  0  0  0
 26 32  1  0  0  0  0
 26 30  1  0  0  0  0
 27 35  1  0  0  0  0
 27 30  1  0  0  0  0
 28 33  1  6  0  0  0
 28 31  1  0  0  0  0
 28 34  1  0  0  0  0
 29 36  1  0  0  0  0
 32 33  1  1  0  0  0
 32 29  1  0  0  0  0
 34 44  1  0  0  0  0
 35 31  1  0  0  0  0
 36 34  1  0  0  0  0
 40 39  1  0  0  0  0
 40 43  1  0  0  0  0
 42 39  1  6  0  0  0
 42 28  1  0  0  0  0
 42 38  1  0  0  0  0
 43 37  2  6  0  0  0
 43 41  1  0  0  0  0
 43 38  1  0  0  0  0
 44 45  1  0  0  0  0
M  END
>  <MODEL>
2

>  <REMARK>
 VINA RESULT:      -7.8      1.496      2.968
  Name = 
  13 active torsions:
  status: ('A' for Active; 'I' for Inactive)
    1  A    between atoms: C_1  and  N_36
    2  A    between atoms: N_2  and  C_40
    3  A    between atoms: C_4  and  O_29
    4  A    between atoms: C_4  and  C_30
    5  A    between atoms: O_5  and  C_26
    6  A    between atoms: O_5  and  C_32
    7  A    between atoms: C_8  and  O_29
    8  A    between atoms: C_8  and  C_40
    9  A    between atoms: C_10  and  C_37
   10  A    between atoms: N_13  and  C_23
   11  A    between atoms: N_13  and  N_28
   12  A    between atoms: N_28  and  C_45
   13  A    between atoms: C_34  and  C_45
                            x       y       z     vdW  Elec       q    Type
                         _______ _______ _______ _____ _____    ______ ____

>  <TORSDO>
F 13

$$$$
=
 OpenBabel11062417223D

 45 49  0  0  1  0  0  0  0  0999 V2000
  190.5990  177.8540  142.6330 O   0  0  0  0  0  0  0  0  0  0  0  0
  190.6110  177.2560  143.8960 C   0  0  0  0  0  2  0  0  0  0  0  0
  185.6160  178.5410  141.8610 C   0  0  0  0  0  0  0  0  0  0  0  0
  184.8410  178.5340  144.5460 C   0  0  0  0  0  3  0  0  0  0  0  0
  187.7260  177.4170  142.3990 N   0  0  0  0  0  2  0  0  0  0  0  0
  186.1090  178.0490  144.1980 C   0  0  0  0  0  0  0  0  0  0  0  0
  186.5920  177.1420  146.3720 N   0  0  0  0  0  2  0  0  0  0  0  0
  183.9610  179.0090  143.5690 C   0  0  0  0  0  0  0  0  0  0  0  0
  188.5090  177.9420  145.1120 C   0  0  1  0  0  3  0  0  0  0  0  0
  186.4920  178.0190  142.8320 C   0  0  0  0  0  0  0  0  0  0  0  0
  189.2050  176.8370  144.3130 C   0  0  1  0  0  3  0  0  0  0  0  0
  184.3580  179.0220  142.2330 C   0  0  0  0  0  3  0  0  0  0  0  0
  188.4000  176.3330  143.1110 C   0  0  0  0  0  2  0  0  0  0  0  0
  187.0400  177.6740  145.2800 C   0  0  0  0  0  0  0  0  0  0  0  0
  185.9790  178.5430  140.4150 C   0  0  0  0  0  1  0  0  0  0  0  0
  189.1350  178.1180  146.3520 O   0  0  0  0  0  0  0  0  0  0  0  0
  190.6840  176.9510  147.5460 O   0  0  0  0  0  1  0  0  0  0  0  0
  189.5670  176.8420  146.7210 C   0  0  0  0  0  2  0  0  0  0  0  0
  182.6660  179.5070  143.9220 N   0  0  0  0  0  2  0  0  0  0  0  0
  181.4980  178.7490  143.7460 N   0  0  0  0  0  2  0  0  0  0  0  0
  180.5540  179.5710  143.0020 C   0  0  0  0  0  2  0  0  0  0  0  0
  180.5980  177.9120  141.1440 C   0  0  0  0  0  1  0  0  0  0  0  0
  180.7590  179.3750  141.5110 C   0  0  0  0  0  2  0  0  0  0  0  0
  191.3210  176.9810  141.8170 C   0  0  0  0  0  2  0  0  0  0  0  0
  191.4400  177.5490  140.4110 C   0  0  0  0  0  2  0  0  0  0  0  0
  190.7610  176.6810  139.4600 N   0  0  0  0  0  0  0  0  0  0  0  0
  191.6390  175.0870  137.7750 C   0  0  0  0  0  2  0  0  0  0  0  0
  188.2290  176.1900  137.1790 C   0  0  1  0  0  0  0  0  0  0  0  0
  189.6360  178.4570  138.0410 C   0  0  0  0  0  2  0  0  0  0  0  0
  191.6560  176.5180  138.3130 C   0  0  0  0  0  2  0  0  0  0  0  0
  189.5400  175.6940  136.5030 C   0  0  0  0  0  2  0  0  0  0  0  0
  189.4930  177.3360  139.0880 C   0  0  1  0  0  3  0  0  0  0  0  0
  188.4340  176.2970  138.7080 C   0  0  0  0  0  2  0  0  0  0  0  0
  187.7790  177.5110  136.6400 N   0  0  0  0  0  0  0  0  0  0  0  0
  190.2600  174.6160  137.3110 C   0  0  0  0  0  2  0  0  0  0  0  0
  188.3010  178.7040  137.3380 C   0  0  0  0  0  2  0  0  0  0  0  0
  184.0020  175.7210  135.0680 O   0  0  0  0  0  0  0  0  0  0  0  0
  185.8500  175.7140  137.1340 O   0  0  0  0  0  0  0  0  0  0  0  0
  187.1990  174.4380  135.5930 C   0  0  0  0  0  2  0  0  0  0  0  0
  185.9880  173.8020  135.3080 O   0  0  0  0  0  0  0  0  0  0  0  0
  183.9600  173.8980  136.9700 O   0  0  0  0  0  1  0  0  0  0  0  0
  187.1180  175.1420  136.9600 C   0  0  1  0  0  3  0  0  0  0  0  0
  184.8860  174.7580  136.1410 P   0  0  2  0  0  0  0  0  0  0  0  0
  188.0310  177.6730  135.2080 C   0  0  0  0  0  2  0  0  0  0  0  0
  186.9070  178.2250  134.5940 O   0  0  0  0  0  1  0  0  0  0  0  0
  1  2  1  0  0  0  0
  3 12  2  0  0  0  0
  3 10  1  0  0  0  0
  5 10  1  0  0  0  0
  5 13  1  0  0  0  0
  6  4  1  0  0  0  0
  6 14  1  0  0  0  0
  8 19  1  0  0  0  0
  8  4  2  0  0  0  0
  9 14  1  0  0  0  0
  9 16  1  1  0  0  0
 10  6  2  0  0  0  0
 11  2  1  6  0  0  0
 11  9  1  0  0  0  0
 12  8  1  0  0  0  0
 13 11  1  0  0  0  0
 14  7  2  0  0  0  0
 15  3  1  0  0  0  0
 16 18  1  0  0  0  0
 18 17  1  0  0  0  0
 20 19  1  0  0  0  0
 21 20  1  0  0  0  0
 22 23  1  0  0  0  0
 23 21  1  0  0  0  0
 24  1  1  0  0  0  0
 25 24  1  0  0  0  0
 26 25  1  0  0  0  0
 27 30  1  0  0  0  0
 28 31  1  6  0  0  0
 28 33  1  0  0  0  0
 30 26  1  0  0  0  0
 31 35  1  0  0  0  0
 32 29  1  6  0  0  0
 32 26  1  0  0  0  0
 33 32  1  0  0  0  0
 34 28  1  0  0  0  0
 34 36  1  0  0  0  0
 35 27  1  0  0  0  0
 36 29  1  0  0  0  0
 40 39  1  0  0  0  0
 40 43  1  0  0  0  0
 42 39  1  6  0  0  0
 42 38  1  0  0  0  0
 42 28  1  0  0  0  0
 43 37  2  6  0  0  0
 43 41  1  0  0  0  0
 43 38  1  0  0  0  0
 44 34  1  0  0  0  0
 45 44  1  0  0  0  0
M  END
>  <MODEL>
3

>  <REMARK>
 VINA RESULT:      -7.4      2.677      6.683
  Name = 
  13 active torsions:
  status: ('A' for Active; 'I' for Inactive)
    1  A    between atoms: C_1  and  N_36
    2  A    between atoms: N_2  and  C_40
    3  A    between atoms: C_4  and  O_29
    4  A    between atoms: C_4  and  C_30
    5  A    between atoms: O_5  and  C_26
    6  A    between atoms: O_5  and  C_32
    7  A    between atoms: C_8  and  O_29
    8  A    between atoms: C_8  and  C_40
    9  A    between atoms: C_10  and  C_37
   10  A    between atoms: N_13  and  C_23
   11  A    between atoms: N_13  and  N_28
   12  A    between atoms: N_28  and  C_45
   13  A    between atoms: C_34  and  C_45
                            x       y       z     vdW  Elec       q    Type
                         _______ _______ _______ _____ _____    ______ ____

>  <TORSDO>
F 13

$$$$
=
 OpenBabel11062417223D

 45 49  0  0  1  0  0  0  0  0999 V2000
  185.6450  178.9780  142.6760 O   0  0  0  0  0  0  0  0  0  0  0  0
  186.4680  177.8800  142.9420 C   0  0  0  0  0  2  0  0  0  0  0  0
  188.9190  177.5240  137.9800 C   0  0  0  0  0  0  0  0  0  0  0  0
  191.1020  176.5810  139.4500 C   0  0  0  0  0  3  0  0  0  0  0  0
  187.8160  178.3320  140.0140 N   0  0  0  0  0  2  0  0  0  0  0  0
  190.0050  177.1310  140.1290 C   0  0  0  0  0  0  0  0  0  0  0  0
  191.0900  177.1840  142.2740 N   0  0  0  0  0  2  0  0  0  0  0  0
  191.1190  176.5090  138.0530 C   0  0  0  0  0  0  0  0  0  0  0  0
  188.6840  176.8490  142.3150 C   0  0  1  0  0  3  0  0  0  0  0  0
  188.9110  177.6430  139.3840 C   0  0  0  0  0  0  0  0  0  0  0  0
  187.9000  178.1520  142.4940 C   0  0  1  0  0  3  0  0  0  0  0  0
  190.0220  176.9690  137.3270 C   0  0  0  0  0  3  0  0  0  0  0  0
  187.9300  179.0720  141.2690 C   0  0  0  0  0  2  0  0  0  0  0  0
  189.9890  177.0700  141.6030 C   0  0  0  0  0  0  0  0  0  0  0  0
  187.7860  178.0350  137.1560 C   0  0  0  0  0  1  0  0  0  0  0  0
  188.8840  176.2240  143.5520 O   0  0  0  0  0  0  0  0  0  0  0  0
  189.0570  176.7530  145.7610 O   0  0  0  0  0  1  0  0  0  0  0  0
  188.9960  177.2720  144.4690 C   0  0  0  0  0  2  0  0  0  0  0  0
  192.2360  175.9460  137.3580 N   0  0  0  0  0  2  0  0  0  0  0  0
  193.5540  176.3730  137.5860 N   0  0  0  0  0  2  0  0  0  0  0  0
  194.4400  175.3900  136.9810 C   0  0  0  0  0  2  0  0  0  0  0  0
  195.4790  174.1950  138.9040 C   0  0  0  0  0  1  0  0  0  0  0  0
  194.4390  174.1130  137.8030 C   0  0  0  0  0  2  0  0  0  0  0  0
  184.3830  178.4300  142.4380 C   0  0  0  0  0  2  0  0  0  0  0  0
  184.1620  178.2430  140.9450 C   0  0  0  0  0  2  0  0  0  0  0  0
  182.9930  178.9950  140.5120 N   0  0  0  0  0  0  0  0  0  0  0  0
  180.7160  179.1890  141.4760 C   0  0  0  0  0  2  0  0  0  0  0  0
  180.9530  180.0980  137.9670 C   0  0  1  0  0  0  0  0  0  0  0  0
  182.5810  177.8390  138.2920 C   0  0  0  0  0  2  0  0  0  0  0  0
  181.8150  178.2550  140.9660 C   0  0  0  0  0  2  0  0  0  0  0  0
  180.0190  179.5230  139.0700 C   0  0  0  0  0  2  0  0  0  0  0  0
  183.0520  179.1000  139.0420 C   0  0  1  0  0  3  0  0  0  0  0  0
  182.3550  180.3750  138.5590 C   0  0  0  0  0  2  0  0  0  0  0  0
  181.0770  179.1790  136.7930 N   0  0  0  0  0  0  0  0  0  0  0  0
  180.2170  180.1870  140.4310 C   0  0  0  0  0  2  0  0  0  0  0  0
  182.1730  178.1900  136.8620 C   0  0  0  0  0  2  0  0  0  0  0  0
  182.3050  184.6230  137.4690 O   0  0  0  0  0  0  0  0  0  0  0  0
  180.7870  182.4860  138.3700 O   0  0  0  0  0  0  0  0  0  0  0  0
  180.8010  181.8170  136.0520 C   0  0  0  0  0  2  0  0  0  0  0  0
  180.6040  183.1810  135.8230 O   0  0  0  0  0  0  0  0  0  0  0  0
  179.6840  184.7710  137.6960 O   0  0  0  0  0  1  0  0  0  0  0  0
  180.4020  181.4600  137.4950 C   0  0  1  0  0  3  0  0  0  0  0  0
  180.8160  183.8280  137.3580 P   0  0  2  0  0  0  0  0  0  0  0  0
  179.8390  178.4680  136.4750 C   0  0  0  0  0  2  0  0  0  0  0  0
  179.7120  178.3420  135.0920 O   0  0  0  0  0  1  0  0  0  0  0  0
  1  2  1  0  0  0  0
  3 10  1  0  0  0  0
  4  6  1  0  0  0  0
  5 13  1  0  0  0  0
  6 14  1  0  0  0  0
  8  4  2  0  0  0  0
  9 11  1  0  0  0  0
  9 16  1  1  0  0  0
 10  5  1  0  0  0  0
 10  6  2  0  0  0  0
 11  2  1  6  0  0  0
 12  3  2  0  0  0  0
 12  8  1  0  0  0  0
 13 11  1  0  0  0  0
 14  7  2  0  0  0  0
 14  9  1  0  0  0  0
 15  3  1  0  0  0  0
 16 18  1  0  0  0  0
 18 17  1  0  0  0  0
 19 20  1  0  0  0  0
 19  8  1  0  0  0  0
 21 20  1  0  0  0  0
 21 23  1  0  0  0  0
 23 22  1  0  0  0  0
 24  1  1  0  0  0  0
 25 24  1  0  0  0  0
 26 25  1  0  0  0  0
 26 30  1  0  0  0  0
 28 33  1  1  0  0  0
 28 31  1  0  0  0  0
 30 27  1  0  0  0  0
 31 35  1  0  0  0  0
 32 29  1  6  0  0  0
 32 26  1  0  0  0  0
 33 32  1  0  0  0  0
 34 36  1  0  0  0  0
 34 28  1  0  0  0  0
 35 27  1  0  0  0  0
 36 29  1  0  0  0  0
 40 39  1  0  0  0  0
 40 43  1  0  0  0  0
 42 39  1  6  0  0  0
 42 28  1  0  0  0  0
 42 38  1  0  0  0  0
 43 37  2  1  0  0  0
 43 41  1  0  0  0  0
 43 38  1  0  0  0  0
 44 34  1  0  0  0  0
 45 44  1  0  0  0  0
M  END
>  <MODEL>
4

>  <REMARK>
 VINA RESULT:      -7.0      3.745      9.502
  Name = 
  13 active torsions:
  status: ('A' for Active; 'I' for Inactive)
    1  A    between atoms: C_1  and  N_36
    2  A    between atoms: N_2  and  C_40
    3  A    between atoms: C_4  and  O_29
    4  A    between atoms: C_4  and  C_30
    5  A    between atoms: O_5  and  C_26
    6  A    between atoms: O_5  and  C_32
    7  A    between atoms: C_8  and  O_29
    8  A    between atoms: C_8  and  C_40
    9  A    between atoms: C_10  and  C_37
   10  A    between atoms: N_13  and  C_23
   11  A    between atoms: N_13  and  N_28
   12  A    between atoms: N_28  and  C_45
   13  A    between atoms: C_34  and  C_45
                            x       y       z     vdW  Elec       q    Type
                         _______ _______ _______ _____ _____    ______ ____

>  <TORSDO>
F 13

$$$$
=
 OpenBabel11062417223D

 45 49  0  0  1  0  0  0  0  0999 V2000
  188.0790  175.8870  137.5530 O   0  0  0  0  0  0  0  0  0  0  0  0
  187.7520  175.9080  136.1940 C   0  0  0  0  0  2  0  0  0  0  0  0
  183.7320  178.1210  139.3070 C   0  0  0  0  0  0  0  0  0  0  0  0
  182.2620  175.8930  138.4780 C   0  0  0  0  0  3  0  0  0  0  0  0
  185.4360  177.7170  137.5920 N   0  0  0  0  0  2  0  0  0  0  0  0
  183.4970  176.1650  137.8700 C   0  0  0  0  0  0  0  0  0  0  0  0
  183.2360  174.5300  136.1250 N   0  0  0  0  0  2  0  0  0  0  0  0
  181.7580  176.7260  139.4810 C   0  0  0  0  0  0  0  0  0  0  0  0
  185.5170  174.9420  136.8550 C   0  0  1  0  0  3  0  0  0  0  0  0
  184.2280  177.3150  138.2640 C   0  0  0  0  0  0  0  0  0  0  0  0
  186.2420  175.9850  135.9990 C   0  0  1  0  0  3  0  0  0  0  0  0
  182.5010  177.8280  139.8990 C   0  0  0  0  0  3  0  0  0  0  0  0
  185.7310  177.4160  136.1930 C   0  0  0  0  0  2  0  0  0  0  0  0
  184.0350  175.1870  136.9040 C   0  0  0  0  0  0  0  0  0  0  0  0
  184.4720  179.3320  139.7650 C   0  0  0  0  0  1  0  0  0  0  0  0
  185.8000  173.6500  136.3970 O   0  0  0  0  0  0  0  0  0  0  0  0
  187.4170  172.4450  137.4550 O   0  0  0  0  0  1  0  0  0  0  0  0
  186.1110  172.9220  137.5470 C   0  0  0  0  0  2  0  0  0  0  0  0
  180.4990  176.4500  140.1040 N   0  0  0  0  0  2  0  0  0  0  0  0
  179.5170  177.4370  140.2800 N   0  0  0  0  0  2  0  0  0  0  0  0
  179.3470  177.6300  141.7130 C   0  0  0  0  0  2  0  0  0  0  0  0
  180.9780  178.9120  143.0920 C   0  0  0  0  0  1  0  0  0  0  0  0
  179.8260  179.0150  142.1110 C   0  0  0  0  0  2  0  0  0  0  0  0
  189.1930  176.7220  137.6650 C   0  0  0  0  0  2  0  0  0  0  0  0
  190.0230  176.3340  138.8800 C   0  0  0  0  0  2  0  0  0  0  0  0
  189.3440  176.7390  140.1020 N   0  0  0  0  0  0  0  0  0  0  0  0
  187.5940  178.4470  140.5180 C   0  0  0  0  0  2  0  0  0  0  0  0
  189.4750  177.4600  143.4660 C   0  0  1  0  0  0  0  0  0  0  0  0
  191.3420  177.6380  141.3810 C   0  0  0  0  0  2  0  0  0  0  0  0
  188.9790  178.1480  139.9420 C   0  0  0  0  0  2  0  0  0  0  0  0
  188.6860  178.6200  142.7920 C   0  0  0  0  0  2  0  0  0  0  0  0
  190.2820  176.5310  141.2210 C   0  0  1  0  0  3  0  0  0  0  0  0
  189.5240  176.2390  142.5200 C   0  0  0  0  0  2  0  0  0  0  0  0
  190.8670  177.8640  143.8360 N   0  0  0  0  0  0  0  0  0  0  0  0
  187.4650  178.1390  142.0100 C   0  0  0  0  0  2  0  0  0  0  0  0
  191.8990  177.6390  142.8040 C   0  0  0  0  0  2  0  0  0  0  0  0
  189.0770  178.5180  148.0770 O   0  0  0  0  0  1  0  0  0  0  0  0
  189.5780  176.9630  145.8390 O   0  0  0  0  0  0  0  0  0  0  0  0
  187.4810  177.8570  145.0510 C   0  0  0  0  0  2  0  0  0  0  0  0
  187.0760  177.6410  146.3710 O   0  0  0  0  0  0  0  0  0  0  0  0
  188.3600  175.9850  147.9500 O   0  0  0  0  0  0  0  0  0  0  0  0
  188.7210  177.0020  144.7310 C   0  0  1  0  0  3  0  0  0  0  0  0
  188.5240  177.2380  147.1200 P   0  0  2  0  0  0  0  0  0  0  0  0
  190.9710  179.2490  144.2940 C   0  0  0  0  0  2  0  0  0  0  0  0
  192.3090  179.6420  144.3010 O   0  0  0  0  0  1  0  0  0  0  0  0
  1 24  1  0  0  0  0
  2  1  1  0  0  0  0
  3 15  1  0  0  0  0
  3 12  1  0  0  0  0
  4  8  1  0  0  0  0
  5 10  1  0  0  0  0
  6 10  1  0  0  0  0
  6  4  2  0  0  0  0
  7 14  2  0  0  0  0
  8 12  2  0  0  0  0
  8 19  1  0  0  0  0
  9 16  1  6  0  0  0
  9 14  1  0  0  0  0
 10  3  2  0  0  0  0
 11 13  1  0  0  0  0
 11  2  1  1  0  0  0
 11  9  1  0  0  0  0
 13  5  1  0  0  0  0
 14  6  1  0  0  0  0
 16 18  1  0  0  0  0
 17 18  1  0  0  0  0
 19 20  1  0  0  0  0
 20 21  1  0  0  0  0
 21 23  1  0  0  0  0
 23 22  1  0  0  0  0
 24 25  1  0  0  0  0
 25 26  1  0  0  0  0
 26 32  1  0  0  0  0
 27 35  1  0  0  0  0
 28 33  1  6  0  0  0
 28 34  1  0  0  0  0
 28 42  1  0  0  0  0
 29 36  1  0  0  0  0
 30 26  1  0  0  0  0
 30 27  1  0  0  0  0
 31 28  1  0  0  0  0
 32 29  1  1  0  0  0
 32 33  1  0  0  0  0
 34 44  1  0  0  0  0
 35 31  1  0  0  0  0
 36 34  1  0  0  0  0
 38 43  1  0  0  0  0
 39 40  1  0  0  0  0
 40 43  1  0  0  0  0
 42 39  1  1  0  0  0
 42 38  1  0  0  0  0
 43 41  2  1  0  0  0
 43 37  1  0  0  0  0
 44 45  1  0  0  0  0
M  END
>  <MODEL>
5

>  <REMARK>
 VINA RESULT:      -6.9      3.176      6.152
  Name = 
  13 active torsions:
  status: ('A' for Active; 'I' for Inactive)
    1  A    between atoms: C_1  and  N_36
    2  A    between atoms: N_2  and  C_40
    3  A    between atoms: C_4  and  O_29
    4  A    between atoms: C_4  and  C_30
    5  A    between atoms: O_5  and  C_26
    6  A    between atoms: O_5  and  C_32
    7  A    between atoms: C_8  and  O_29
    8  A    between atoms: C_8  and  C_40
    9  A    between atoms: C_10  and  C_37
   10  A    between atoms: N_13  and  C_23
   11  A    between atoms: N_13  and  N_28
   12  A    between atoms: N_28  and  C_45
   13  A    between atoms: C_34  and  C_45
                            x       y       z     vdW  Elec       q    Type
                         _______ _______ _______ _____ _____    ______ ____

>  <TORSDO>
F 13

$$$$
=
 OpenBabel11062417223D

 45 49  0  0  1  0  0  0  0  0999 V2000
  183.7720  179.0520  142.8130 O   0  0  0  0  0  0  0  0  0  0  0  0
  184.6770  179.2080  143.8670 C   0  0  0  0  0  2  0  0  0  0  0  0
  188.7140  177.9540  147.4560 C   0  0  0  0  0  0  0  0  0  0  0  0
  189.8500  176.6340  145.2700 C   0  0  0  0  0  3  0  0  0  0  0  0
  186.5610  178.1510  146.3010 N   0  0  0  0  0  2  0  0  0  0  0  0
  188.5360  177.1130  145.1730 C   0  0  0  0  0  0  0  0  0  0  0  0
  188.0610  176.0070  143.0910 N   0  0  0  0  0  2  0  0  0  0  0  0
  190.5910  176.8000  146.4440 C   0  0  0  0  0  0  0  0  0  0  0  0
  186.9150  178.1190  143.4510 C   0  0  1  0  0  3  0  0  0  0  0  0
  187.9440  177.7520  146.2940 C   0  0  0  0  0  0  0  0  0  0  0  0
  185.5170  177.9490  144.0520 C   0  0  1  0  0  3  0  0  0  0  0  0
  190.0230  177.4710  147.5260 C   0  0  0  0  0  3  0  0  0  0  0  0
  185.5180  177.4960  145.5150 C   0  0  0  0  0  2  0  0  0  0  0  0
  187.8470  177.0180  143.8720 C   0  0  0  0  0  0  0  0  0  0  0  0
  188.1400  178.6330  148.6530 C   0  0  0  0  0  1  0  0  0  0  0  0
  186.8400  178.2110  142.0560 O   0  0  0  0  0  0  0  0  0  0  0  0
  188.3250  178.9760  140.5070 O   0  0  0  0  0  1  0  0  0  0  0  0
  187.6970  179.2600  141.7190 C   0  0  0  0  0  2  0  0  0  0  0  0
  191.9330  176.3140  146.5440 N   0  0  0  0  0  2  0  0  0  0  0  0
  192.3310  175.4100  147.5410 N   0  0  0  0  0  2  0  0  0  0  0  0
  193.4650  176.0010  148.2360 C   0  0  0  0  0  2  0  0  0  0  0  0
  193.9210  177.2470  150.3440 C   0  0  0  0  0  1  0  0  0  0  0  0
  193.1810  176.0760  149.7250 C   0  0  0  0  0  2  0  0  0  0  0  0
  182.5160  179.0210  143.4220 C   0  0  0  0  0  2  0  0  0  0  0  0
  181.4520  178.6040  142.4170 C   0  0  0  0  0  2  0  0  0  0  0  0
  181.9460  178.7860  141.0600 N   0  0  0  0  0  0  0  0  0  0  0  0
  181.4290  180.4970  139.3410 C   0  0  0  0  0  2  0  0  0  0  0  0
  182.8620  177.4270  138.0320 C   0  0  1  0  0  0  0  0  0  0  0  0
  181.0540  176.6470  140.0280 C   0  0  0  0  0  2  0  0  0  0  0  0
  180.8790  179.4410  140.3010 C   0  0  0  0  0  2  0  0  0  0  0  0
  181.9210  178.6240  137.7160 C   0  0  0  0  0  2  0  0  0  0  0  0
  182.2710  177.4510  140.5230 C   0  0  1  0  0  3  0  0  0  0  0  0
  183.3900  177.5410  139.4810 C   0  0  0  0  0  2  0  0  0  0  0  0
  182.1800  176.1080  137.8500 N   0  0  0  0  0  0  0  0  0  0  0  0
  182.4110  179.9450  138.3070 C   0  0  0  0  0  2  0  0  0  0  0  0
  181.4940  175.5660  139.0410 C   0  0  0  0  0  2  0  0  0  0  0  0
  187.5820  176.9400  138.1930 O   0  0  0  0  0  1  0  0  0  0  0  0
  185.1480  178.1840  137.7340 O   0  0  0  0  0  0  0  0  0  0  0  0
  184.5810  176.1170  136.6260 C   0  0  0  0  0  2  0  0  0  0  0  0
  185.8830  176.2120  136.1280 O   0  0  0  0  0  0  0  0  0  0  0  0
  187.1820  178.4910  136.1010 O   0  0  0  0  0  0  0  0  0  0  0  0
  184.0970  177.4960  137.1110 C   0  0  1  0  0  3  0  0  0  0  0  0
  186.5040  177.4960  137.0150 P   0  0  2  0  0  0  0  0  0  0  0  0
  181.2370  176.0870  136.7310 C   0  0  0  0  0  2  0  0  0  0  0  0
  181.4410  174.9390  135.9670 O   0  0  0  0  0  1  0  0  0  0  0  0
  1 24  1  0  0  0  0
  1  2  1  0  0  0  0
  3 12  1  0  0  0  0
  3 15  1  0  0  0  0
  4  8  1  0  0  0  0
  6  4  2  0  0  0  0
  6 10  1  0  0  0  0
  7 14  2  0  0  0  0
  8 19  1  0  0  0  0
  8 12  2  0  0  0  0
  9 16  1  6  0  0  0
  9 14  1  0  0  0  0
  9 11  1  0  0  0  0
 10  5  1  0  0  0  0
 10  3  2  0  0  0  0
 11  2  1  1  0  0  0
 11 13  1  0  0  0  0
 13  5  1  0  0  0  0
 14  6  1  0  0  0  0
 17 18  1  0  0  0  0
 18 16  1  0  0  0  0
 19 20  1  0  0  0  0
 20 21  1  0  0  0  0
 21 23  1  0  0  0  0
 23 22  1  0  0  0  0
 25 24  1  0  0  0  0
 26 25  1  0  0  0  0
 27 30  1  0  0  0  0
 28 31  1  6  0  0  0
 28 33  1  0  0  0  0
 29 32  1  0  0  0  0
 30 26  1  0  0  0  0
 31 35  1  0  0  0  0
 32 33  1  6  0  0  0
 32 26  1  0  0  0  0
 34 28  1  0  0  0  0
 34 36  1  0  0  0  0
 35 27  1  0  0  0  0
 36 29  1  0  0  0  0
 40 39  1  0  0  0  0
 40 43  1  0  0  0  0
 42 39  1  1  0  0  0
 42 38  1  0  0  0  0
 42 28  1  0  0  0  0
 43 41  2  6  0  0  0
 43 38  1  0  0  0  0
 43 37  1  0  0  0  0
 44 34  1  0  0  0  0
 45 44  1  0  0  0  0
M  END
>  <MODEL>
6

>  <REMARK>
 VINA RESULT:      -6.9      3.329      7.248
  Name = 
  13 active torsions:
  status: ('A' for Active; 'I' for Inactive)
    1  A    between atoms: C_1  and  N_36
    2  A    between atoms: N_2  and  C_40
    3  A    between atoms: C_4  and  O_29
    4  A    between atoms: C_4  and  C_30
    5  A    between atoms: O_5  and  C_26
    6  A    between atoms: O_5  and  C_32
    7  A    between atoms: C_8  and  O_29
    8  A    between atoms: C_8  and  C_40
    9  A    between atoms: C_10  and  C_37
   10  A    between atoms: N_13  and  C_23
   11  A    between atoms: N_13  and  N_28
   12  A    between atoms: N_28  and  C_45
   13  A    between atoms: C_34  and  C_45
                            x       y       z     vdW  Elec       q    Type
                         _______ _______ _______ _____ _____    ______ ____

>  <TORSDO>
F 13

$$$$
=
 OpenBabel11062417223D

 45 49  0  0  1  0  0  0  0  0999 V2000
  186.4640  178.8020  142.2310 O   0  0  0  0  0  0  0  0  0  0  0  0
  187.4830  177.8710  142.4560 C   0  0  0  0  0  2  0  0  0  0  0  0
  189.2480  176.2140  137.4670 C   0  0  0  0  0  0  0  0  0  0  0  0
  191.7750  176.2830  138.6590 C   0  0  0  0  0  3  0  0  0  0  0  0
  188.2670  177.4810  139.3210 N   0  0  0  0  0  2  0  0  0  0  0  0
  190.6790  176.8280  139.3440 C   0  0  0  0  0  0  0  0  0  0  0  0
  191.9990  177.8480  141.0760 N   0  0  0  0  0  2  0  0  0  0  0  0
  191.6200  175.7180  137.3900 C   0  0  0  0  0  0  0  0  0  0  0  0
  189.7790  177.1120  141.7350 C   0  0  1  0  0  3  0  0  0  0  0  0
  189.4020  176.8260  138.7260 C   0  0  0  0  0  0  0  0  0  0  0  0
  188.7290  178.2230  141.6500 C   0  0  1  0  0  3  0  0  0  0  0  0
  190.3550  175.6750  136.8060 C   0  0  0  0  0  3  0  0  0  0  0  0
  188.3640  178.6300  140.2190 C   0  0  0  0  0  2  0  0  0  0  0  0
  190.8790  177.3000  140.7280 C   0  0  0  0  0  0  0  0  0  0  0  0
  187.9230  176.1750  136.7850 C   0  0  0  0  0  1  0  0  0  0  0  0
  190.2940  177.0230  143.0340 O   0  0  0  0  0  0  0  0  0  0  0  0
  191.7740  175.5240  143.9000 O   0  0  0  0  0  1  0  0  0  0  0  0
  190.5660  175.6660  143.2190 C   0  0  0  0  0  2  0  0  0  0  0  0
  192.7360  175.1600  136.6900 N   0  0  0  0  0  2  0  0  0  0  0  0
  193.9510  174.8650  137.3290 N   0  0  0  0  0  2  0  0  0  0  0  0
  194.0320  173.4180  137.4620 C   0  0  0  0  0  2  0  0  0  0  0  0
  195.7560  174.1750  139.0930 C   0  0  0  0  0  1  0  0  0  0  0  0
  195.3010  173.0350  138.2020 C   0  0  0  0  0  2  0  0  0  0  0  0
  185.3280  178.2340  142.8100 C   0  0  0  0  0  2  0  0  0  0  0  0
  184.0740  178.7290  142.1060 C   0  0  0  0  0  2  0  0  0  0  0  0
  183.9850  178.1490  140.7740 N   0  0  0  0  0  0  0  0  0  0  0  0
  185.0380  178.8010  138.6250 C   0  0  0  0  0  2  0  0  0  0  0  0
  182.0860  176.7120  138.2870 C   0  0  1  0  0  0  0  0  0  0  0  0
  181.5140  178.5310  140.3430 C   0  0  0  0  0  2  0  0  0  0  0  0
  184.1850  179.2390  139.8170 C   0  0  0  0  0  2  0  0  0  0  0  0
  182.9410  177.8210  137.6100 C   0  0  0  0  0  2  0  0  0  0  0  0
  182.6500  177.5340  140.6450 C   0  0  1  0  0  3  0  0  0  0  0  0
  182.6850  176.3560  139.6670 C   0  0  0  0  0  2  0  0  0  0  0  0
  180.6560  177.1200  138.4510 N   0  0  0  0  0  0  0  0  0  0  0  0
  184.4410  177.6400  137.8300 C   0  0  0  0  0  2  0  0  0  0  0  0
  180.3230  177.8070  139.7160 C   0  0  0  0  0  2  0  0  0  0  0  0
  184.7180  174.7200  134.8740 O   0  0  0  0  0  1  0  0  0  0  0  0
  182.4450  175.7280  136.0980 O   0  0  0  0  0  0  0  0  0  0  0  0
  183.1590  174.3890  137.9730 C   0  0  0  0  0  2  0  0  0  0  0  0
  183.4500  173.4460  136.9840 O   0  0  0  0  0  0  0  0  0  0  0  0
  182.3620  173.5730  134.6000 O   0  0  0  0  0  0  0  0  0  0  0  0
  182.1570  175.4270  137.4360 C   0  0  1  0  0  3  0  0  0  0  0  0
  183.2280  174.3350  135.5760 P   0  0  2  0  0  0  0  0  0  0  0  0
  180.1490  177.9310  137.3440 C   0  0  0  0  0  2  0  0  0  0  0  0
  179.1490  178.7850  137.8070 O   0  0  0  0  0  1  0  0  0  0  0  0
  1  2  1  0  0  0  0
  1 24  1  0  0  0  0
  3 10  1  0  0  0  0
  4  6  1  0  0  0  0
  5 13  1  0  0  0  0
  6 14  1  0  0  0  0
  8  4  2  0  0  0  0
  9 16  1  1  0  0  0
 10  5  1  0  0  0  0
 10  6  2  0  0  0  0
 11  9  1  0  0  0  0
 11  2  1  6  0  0  0
 12  8  1  0  0  0  0
 12  3  2  0  0  0  0
 13 11  1  0  0  0  0
 14  7  2  0  0  0  0
 14  9  1  0  0  0  0
 15  3  1  0  0  0  0
 16 18  1  0  0  0  0
 18 17  1  0  0  0  0
 19 20  1  0  0  0  0
 19  8  1  0  0  0  0
 20 21  1  0  0  0  0
 21 23  1  0  0  0  0
 23 22  1  0  0  0  0
 25 24  1  0  0  0  0
 26 25  1  0  0  0  0
 27 30  1  0  0  0  0
 28 31  1  6  0  0  0
 28 34  1  0  0  0  0
 28 33  1  0  0  0  0
 29 32  1  0  0  0  0
 30 26  1  0  0  0  0
 31 35  1  0  0  0  0
 32 33  1  6  0  0  0
 32 26  1  0  0  0  0
 34 36  1  0  0  0  0
 35 27  1  0  0  0  0
 36 29  1  0  0  0  0
 37 43  1  0  0  0  0
 38 42  1  0  0  0  0
 40 39  1  0  0  0  0
 42 39  1  1  0  0  0
 42 28  1  0  0  0  0
 43 41  2  6  0  0  0
 43 38  1  0  0  0  0
 43 40  1  0  0  0  0
 44 45  1  0  0  0  0
 44 34  1  0  0  0  0
M  END
>  <MODEL>
7

>  <REMARK>
 VINA RESULT:      -6.8      3.060      9.187
  Name = 
  13 active torsions:
  status: ('A' for Active; 'I' for Inactive)
    1  A    between atoms: C_1  and  N_36
    2  A    between atoms: N_2  and  C_40
    3  A    between atoms: C_4  and  O_29
    4  A    between atoms: C_4  and  C_30
    5  A    between atoms: O_5  and  C_26
    6  A    between atoms: O_5  and  C_32
    7  A    between atoms: C_8  and  O_29
    8  A    between atoms: C_8  and  C_40
    9  A    between atoms: C_10  and  C_37
   10  A    between atoms: N_13  and  C_23
   11  A    between atoms: N_13  and  N_28
   12  A    between atoms: N_28  and  C_45
   13  A    between atoms: C_34  and  C_45
                            x       y       z     vdW  Elec       q    Type
                         _______ _______ _______ _____ _____    ______ ____

>  <TORSDO>
F 13

$$$$
=
 OpenBabel11062417223D

 45 49  0  0  1  0  0  0  0  0999 V2000
  184.3670  178.0550  136.7940 O   0  0  0  0  0  0  0  0  0  0  0  0
  183.2270  177.6610  137.5000 C   0  0  0  0  0  2  0  0  0  0  0  0
  185.6400  178.5400  142.4150 C   0  0  0  0  0  0  0  0  0  0  0  0
  183.0220  178.9490  143.3020 C   0  0  0  0  0  3  0  0  0  0  0  0
  184.9390  178.6870  140.0710 N   0  0  0  0  0  2  0  0  0  0  0  0
  183.2710  178.8450  141.9250 C   0  0  0  0  0  0  0  0  0  0  0  0
  181.0630  179.5270  141.2600 N   0  0  0  0  0  2  0  0  0  0  0  0
  184.0640  178.8600  144.2290 C   0  0  0  0  0  0  0  0  0  0  0  0
  182.1770  177.9580  139.7750 C   0  0  1  0  0  3  0  0  0  0  0  0
  184.6040  178.6720  141.4710 C   0  0  0  0  0  0  0  0  0  0  0  0
  182.9170  178.6450  138.6240 C   0  0  1  0  0  3  0  0  0  0  0  0
  185.3660  178.6430  143.7810 C   0  0  0  0  0  3  0  0  0  0  0  0
  184.1740  179.4060  139.0550 C   0  0  0  0  0  2  0  0  0  0  0  0
  182.1190  178.8240  141.0020 C   0  0  0  0  0  0  0  0  0  0  0  0
  187.0550  178.3430  141.9850 C   0  0  0  0  0  1  0  0  0  0  0  0
  180.8930  177.5710  139.3710 O   0  0  0  0  0  0  0  0  0  0  0  0
  182.0700  175.7450  140.0570 O   0  0  0  0  0  1  0  0  0  0  0  0
  180.8080  176.2160  139.6980 C   0  0  0  0  0  2  0  0  0  0  0  0
  183.8130  178.9640  145.6330 N   0  0  0  0  0  2  0  0  0  0  0  0
  184.6300  178.3410  146.5900 N   0  0  0  0  0  2  0  0  0  0  0  0
  185.7780  179.2070  146.8110 C   0  0  0  0  0  2  0  0  0  0  0  0
  187.5810  177.5070  146.5600 C   0  0  0  0  0  1  0  0  0  0  0  0
  186.8770  178.4410  147.5250 C   0  0  0  0  0  2  0  0  0  0  0  0
  184.9880  176.8600  136.4230 C   0  0  0  0  0  2  0  0  0  0  0  0
  186.0530  176.4810  137.4400 C   0  0  0  0  0  2  0  0  0  0  0  0
  187.3660  176.4740  136.8120 N   0  0  0  0  0  0  0  0  0  0  0  0
  188.1300  177.2790  134.5940 C   0  0  0  0  0  2  0  0  0  0  0  0
  190.3290  174.8470  136.1580 C   0  0  1  0  0  0  0  0  0  0  0  0
  187.7170  173.9650  136.6650 C   0  0  0  0  0  2  0  0  0  0  0  0
  187.1490  176.3960  135.3670 C   0  0  0  0  0  2  0  0  0  0  0  0
  189.8220  175.4130  134.8000 C   0  0  0  0  0  2  0  0  0  0  0  0
  188.0990  175.3020  137.3290 C   0  0  1  0  0  3  0  0  0  0  0  0
  189.6090  175.5600  137.3250 C   0  0  0  0  0  2  0  0  0  0  0  0
  190.1240  173.3700  136.2680 N   0  0  0  0  0  0  0  0  0  0  0  0
  189.5990  176.9240  134.8260 C   0  0  0  0  0  2  0  0  0  0  0  0
  188.8350  172.9400  136.8490 C   0  0  0  0  0  2  0  0  0  0  0  0
  194.4720  172.6780  136.9790 O   0  0  0  0  0  0  0  0  0  0  0  0
  192.3870  174.4580  137.3840 O   0  0  0  0  0  0  0  0  0  0  0  0
  192.6470  174.9170  135.0300 C   0  0  0  0  0  2  0  0  0  0  0  0
  194.0100  174.8590  135.3320 O   0  0  0  0  0  0  0  0  0  0  0  0
  194.8870  175.1510  137.7880 O   0  0  0  0  0  1  0  0  0  0  0  0
  191.8310  175.1680  136.3110 C   0  0  1  0  0  3  0  0  0  0  0  0
  193.9940  174.2990  136.9160 P   0  0  2  0  0  0  0  0  0  0  0  0
  190.3150  172.6580  135.0040 C   0  0  0  0  0  2  0  0  0  0  0  0
  189.3320  171.6780  134.8640 O   0  0  0  0  0  1  0  0  0  0  0  0
  1  2  1  0  0  0  0
  3 12  1  0  0  0  0
  4  8  1  0  0  0  0
  5 10  1  0  0  0  0
  6  4  2  0  0  0  0
  8 19  1  0  0  0  0
  9 16  1  6  0  0  0
  9 14  1  0  0  0  0
 10  6  1  0  0  0  0
 10  3  2  0  0  0  0
 11  2  1  6  0  0  0
 11 13  1  0  0  0  0
 11  9  1  0  0  0  0
 12  8  2  0  0  0  0
 13  5  1  0  0  0  0
 14  7  2  0  0  0  0
 14  6  1  0  0  0  0
 15  3  1  0  0  0  0
 16 18  1  0  0  0  0
 18 17  1  0  0  0  0
 19 20  1  0  0  0  0
 20 21  1  0  0  0  0
 21 23  1  0  0  0  0
 22 23  1  0  0  0  0
 24  1  1  0  0  0  0
 24 25  1  0  0  0  0
 26 32  1  0  0  0  0
 26 25  1  0  0  0  0
 27 35  1  0  0  0  0
 27 30  1  0  0  0  0
 28 31  1  6  0  0  0
 28 34  1  0  0  0  0
 28 42  1  0  0  0  0
 28 33  1  0  0  0  0
 29 36  1  0  0  0  0
 30 26  1  0  0  0  0
 31 35  1  0  0  0  0
 32 29  1  6  0  0  0
 33 32  1  0  0  0  0
 34 36  1  0  0  0  0
 39 40  1  0  0  0  0
 40 43  1  0  0  0  0
 42 39  1  6  0  0  0
 42 38  1  0  0  0  0
 43 37  2  1  0  0  0
 43 38  1  0  0  0  0
 43 41  1  0  0  0  0
 44 34  1  0  0  0  0
 45 44  1  0  0  0  0
M  END
>  <MODEL>
8

>  <REMARK>
 VINA RESULT:      -6.7      2.371      2.969
  Name = 
  13 active torsions:
  status: ('A' for Active; 'I' for Inactive)
    1  A    between atoms: C_1  and  N_36
    2  A    between atoms: N_2  and  C_40
    3  A    between atoms: C_4  and  O_29
    4  A    between atoms: C_4  and  C_30
    5  A    between atoms: O_5  and  C_26
    6  A    between atoms: O_5  and  C_32
    7  A    between atoms: C_8  and  O_29
    8  A    between atoms: C_8  and  C_40
    9  A    between atoms: C_10  and  C_37
   10  A    between atoms: N_13  and  C_23
   11  A    between atoms: N_13  and  N_28
   12  A    between atoms: N_28  and  C_45
   13  A    between atoms: C_34  and  C_45
                            x       y       z     vdW  Elec       q    Type
                         _______ _______ _______ _____ _____    ______ ____

>  <TORSDO>
F 13

$$$$
=
 OpenBabel11062417223D

 45 49  0  0  1  0  0  0  0  0999 V2000
  182.9430  179.8360  143.2410 O   0  0  0  0  0  0  0  0  0  0  0  0
  183.5240  179.7050  144.5060 C   0  0  0  0  0  2  0  0  0  0  0  0
  187.8170  178.2560  147.7030 C   0  0  0  0  0  0  0  0  0  0  0  0
  188.6960  176.9160  145.4140 C   0  0  0  0  0  3  0  0  0  0  0  0
  185.5770  178.5500  146.7510 N   0  0  0  0  0  2  0  0  0  0  0  0
  187.3980  177.4470  145.4410 C   0  0  0  0  0  0  0  0  0  0  0  0
  186.6920  176.3820  143.4030 N   0  0  0  0  0  2  0  0  0  0  0  0
  189.5460  177.0410  146.5170 C   0  0  0  0  0  0  0  0  0  0  0  0
  185.6690  178.5340  143.8800 C   0  0  1  0  0  3  0  0  0  0  0  0
  186.9370  178.0970  146.6150 C   0  0  0  0  0  0  0  0  0  0  0  0
  184.3260  178.4120  144.6060 C   0  0  1  0  0  3  0  0  0  0  0  0
  189.1060  177.7220  147.6510 C   0  0  0  0  0  3  0  0  0  0  0  0
  184.4420  177.9440  146.0600 C   0  0  0  0  0  2  0  0  0  0  0  0
  186.5900  177.3920  144.2070 C   0  0  0  0  0  0  0  0  0  0  0  0
  187.3820  178.9440  148.9520 C   0  0  0  0  0  1  0  0  0  0  0  0
  185.4720  178.6430  142.4990 O   0  0  0  0  0  0  0  0  0  0  0  0
  187.2820  178.8250  141.1280 O   0  0  0  0  0  1  0  0  0  0  0  0
  186.4870  179.4940  142.0570 C   0  0  0  0  0  2  0  0  0  0  0  0
  190.8710  176.5010  146.4910 N   0  0  0  0  0  2  0  0  0  0  0  0
  191.9640  177.2210  145.9830 N   0  0  0  0  0  2  0  0  0  0  0  0
  191.5610  177.7730  144.6980 C   0  0  0  0  0  2  0  0  0  0  0  0
  191.5780  177.3360  142.2460 C   0  0  0  0  0  1  0  0  0  0  0  0
  191.6470  176.7040  143.6230 C   0  0  0  0  0  2  0  0  0  0  0  0
  181.6060  179.4800  143.4230 C   0  0  0  0  0  2  0  0  0  0  0  0
  181.1900  178.4440  142.3890 C   0  0  0  0  0  2  0  0  0  0  0  0
  181.7850  178.7560  141.0980 N   0  0  0  0  0  0  0  0  0  0  0  0
  181.1900  180.4450  139.3820 C   0  0  0  0  0  2  0  0  0  0  0  0
  183.2010  177.6820  138.1490 C   0  0  1  0  0  0  0  0  0  0  0  0
  181.3400  176.5550  139.9180 C   0  0  0  0  0  2  0  0  0  0  0  0
  180.7140  179.2780  140.2480 C   0  0  0  0  0  2  0  0  0  0  0  0
  182.1250  178.7390  137.7680 C   0  0  0  0  0  2  0  0  0  0  0  0
  182.3640  177.5090  140.5630 C   0  0  1  0  0  3  0  0  0  0  0  0
  183.5560  177.8110  139.6490 C   0  0  0  0  0  2  0  0  0  0  0  0
  182.7510  176.2860  137.8580 N   0  0  0  0  0  0  0  0  0  0  0  0
  182.3450  180.0900  138.4450 C   0  0  0  0  0  2  0  0  0  0  0  0
  182.0380  175.5970  138.9540 C   0  0  0  0  0  2  0  0  0  0  0  0
  187.9120  177.2870  138.5930 O   0  0  0  0  0  1  0  0  0  0  0  0
  185.4710  178.5400  138.2050 O   0  0  0  0  0  0  0  0  0  0  0  0
  185.0730  176.7420  136.6470 C   0  0  0  0  0  2  0  0  0  0  0  0
  186.4040  176.9720  136.2890 O   0  0  0  0  0  0  0  0  0  0  0  0
  187.6070  179.2360  136.8460 O   0  0  0  0  0  0  0  0  0  0  0  0
  184.4990  177.9750  137.3680 C   0  0  1  0  0  3  0  0  0  0  0  0
  186.9030  178.0540  137.4730 P   0  0  2  0  0  0  0  0  0  0  0  0
  181.9410  176.1730  136.6450 C   0  0  0  0  0  2  0  0  0  0  0  0
  181.0600  175.1000  136.7670 O   0  0  0  0  0  1  0  0  0  0  0  0
  1 24  1  0  0  0  0
  1  2  1  0  0  0  0
  3 15  1  0  0  0  0
  4  6  2  0  0  0  0
  4  8  1  0  0  0  0
  6 10  1  0  0  0  0
  7 14  2  0  0  0  0
  8 12  2  0  0  0  0
  9 16  1  6  0  0  0
  9 14  1  0  0  0  0
  9 11  1  0  0  0  0
 10  5  1  0  0  0  0
 10  3  2  0  0  0  0
 11  2  1  1  0  0  0
 11 13  1  0  0  0  0
 12  3  1  0  0  0  0
 13  5  1  0  0  0  0
 14  6  1  0  0  0  0
 17 18  1  0  0  0  0
 18 16  1  0  0  0  0
 19  8  1  0  0  0  0
 20 19  1  0  0  0  0
 21 20  1  0  0  0  0
 22 23  1  0  0  0  0
 23 21  1  0  0  0  0
 25 24  1  0  0  0  0
 26 25  1  0  0  0  0
 27 30  1  0  0  0  0
 28 31  1  6  0  0  0
 28 33  1  0  0  0  0
 29 32  1  0  0  0  0
 30 26  1  0  0  0  0
 31 35  1  0  0  0  0
 32 33  1  6  0  0  0
 32 26  1  0  0  0  0
 34 28  1  0  0  0  0
 34 36  1  0  0  0  0
 35 27  1  0  0  0  0
 36 29  1  0  0  0  0
 40 39  1  0  0  0  0
 40 43  1  0  0  0  0
 42 39  1  1  0  0  0
 42 28  1  0  0  0  0
 42 38  1  0  0  0  0
 43 41  2  6  0  0  0
 43 38  1  0  0  0  0
 43 37  1  0  0  0  0
 44 45  1  0  0  0  0
 44 34  1  0  0  0  0
M  END
>  <MODEL>
9

>  <REMARK>
 VINA RESULT:      -6.3      3.071      6.850
  Name = 
  13 active torsions:
  status: ('A' for Active; 'I' for Inactive)
    1  A    between atoms: C_1  and  N_36
    2  A    between atoms: N_2  and  C_40
    3  A    between atoms: C_4  and  O_29
    4  A    between atoms: C_4  and  C_30
    5  A    between atoms: O_5  and  C_26
    6  A    between atoms: O_5  and  C_32
    7  A    between atoms: C_8  and  O_29
    8  A    between atoms: C_8  and  C_40
    9  A    between atoms: C_10  and  C_37
   10  A    between atoms: N_13  and  C_23
   11  A    between atoms: N_13  and  N_28
   12  A    between atoms: N_28  and  C_45
   13  A    between atoms: C_34  and  C_45
                            x       y       z     vdW  Elec       q    Type
                         _______ _______ _______ _____ _____    ______ ____

>  <TORSDO>
F 13

$$$$
