=
 OpenBabel11062414493D

 33 36  0  0  1  0  0  0  0  0999 V2000
  186.2330  177.0590  135.8590 C   0  0  0  0  0  2  0  0  0  0  0  0
  188.3170  178.2850  139.6940 C   0  0  0  0  0  2  0  0  0  0  0  0
  189.9030  176.4700  138.7520 C   0  0  0  0  0  0  0  0  0  0  0  0
  187.2800  176.1320  135.5850 O   0  0  0  0  0  0  0  0  0  0  0  0
  189.3410  175.4340  136.6450 N   0  0  0  0  0  0  0  0  0  0  0  0
  188.3600  177.7920  141.1060 C   0  0  0  0  0  3  0  0  0  0  0  0
  190.8930  176.4580  139.8940 C   0  0  0  0  0  2  0  0  0  0  0  0
  190.1860  175.5720  137.7050 C   0  0  0  0  0  3  0  0  0  0  0  0
  188.2000  176.1600  136.6040 C   0  0  0  0  0  0  0  0  0  0  0  0
  186.5470  177.6730  137.2480 C   0  0  2  0  0  3  0  0  0  0  0  0
  187.8530  177.0290  137.5920 C   0  0  0  0  0  0  0  0  0  0  0  0
  189.5190  177.4780  141.6920 C   0  0  0  0  0  0  0  0  0  0  0  0
  188.6880  177.2230  138.7000 C   0  0  0  0  0  0  0  0  0  0  0  0
  190.7960  177.5900  140.9090 C   0  0  0  0  0  2  0  0  0  0  0  0
  188.1840  177.5620  145.2750 C   0  0  0  0  0  2  0  0  0  0  0  0
  190.5910  177.0730  145.3720 C   0  0  0  0  0  0  0  0  0  0  0  0
  190.7490  179.0970  143.9470 C   0  0  0  0  0  1  0  0  0  0  0  0
  189.4020  177.0400  145.9800 C   0  0  0  0  0  3  0  0  0  0  0  0
  189.5160  177.0250  143.1270 C   0  0  2  0  0  3  0  0  0  0  0  0
  188.1320  177.1100  143.8080 C   0  0  0  0  0  2  0  0  0  0  0  0
  190.6950  177.5750  143.9580 C   0  0  2  0  0  3  0  0  0  0  0  0
  191.7740  176.5920  146.0880 C   0  0  0  0  0  3  0  0  0  0  0  0
  191.8940  176.7620  147.3300 O   0  0  0  0  0  0  0  0  0  0  0  0
  185.5610  177.2710  138.1710 O   0  0  0  0  0  0  0  0  0  0  0  0
  184.5100  178.2220  138.2060 C   0  0  1  0  0  3  0  0  0  0  0  0
  183.2330  176.3660  137.4170 F   0  0  0  0  0  0  0  0  0  0  0  0
  182.3470  177.6550  139.0240 F   0  0  0  0  0  0  0  0  0  0  0  0
  182.4930  178.4310  136.9110 F   0  0  0  0  0  0  0  0  0  0  0  0
  183.1180  177.6640  137.8780 C   0  0  0  0  0  0  0  0  0  0  0  0
  184.5690  179.1920  139.3550 C   0  0  0  0  0  0  0  0  0  0  0  0
  185.0480  178.7750  140.6330 N   0  0  0  0  0  2  0  0  0  0  0  0
  185.1220  179.6460  141.6660 O   0  0  0  0  0  1  0  0  0  0  0  0
  184.2180  180.3880  139.1720 O   0  0  0  0  0  0  0  0  0  0  0  0
  1 10  1  0  0  0  0
  2  6  1  0  0  0  0
  3  7  1  0  0  0  0
  4  1  1  0  0  0  0
  4  9  1  0  0  0  0
  5  8  1  0  0  0  0
  6 12  2  0  0  0  0
  7 14  1  0  0  0  0
  8  3  2  0  0  0  0
  9  5  2  0  0  0  0
  9 11  1  0  0  0  0
 10 11  1  0  0  0  0
 10 24  1  1  0  0  0
 11 13  2  0  0  0  0
 13  3  1  0  0  0  0
 13  2  1  0  0  0  0
 14 12  1  0  0  0  0
 15 18  1  0  0  0  0
 16 18  2  0  0  0  0
 16 22  1  0  0  0  0
 19 12  1  6  0  0  0
 19 20  1  0  0  0  0
 19 21  1  0  0  0  0
 20 15  1  0  0  0  0
 21 17  1  1  0  0  0
 21 16  1  0  0  0  0
 22 23  2  0  0  0  0
 25 24  1  1  0  0  0
 25 30  1  0  0  0  0
 26 29  1  0  0  0  0
 28 29  1  0  0  0  0
 29 25  1  0  0  0  0
 29 27  1  0  0  0  0
 30 31  1  0  0  0  0
 31 32  1  0  0  0  0
 33 30  2  0  0  0  0
M  END
>  <MODEL>
1

>  <REMARK>
 VINA RESULT:      -8.8      0.000      0.000
  Name = 
  6 active torsions:
  status: ('A' for Active; 'I' for Inactive)
    1  A    between atoms: C_8  and  C_22
    2  A    between atoms: C_16  and  C_25
    3  A    between atoms: C_17  and  O_30
    4  A    between atoms: C_20  and  C_23
    5  A    between atoms: C_25  and  C_28
    6  A    between atoms: C_25  and  O_30
                            x       y       z     vdW  Elec       q    Type
                         _______ _______ _______ _____ _____    ______ ____

>  <TORSDO>
F 6

$$$$
=
 OpenBabel11062414493D

 33 36  0  0  1  0  0  0  0  0999 V2000
  186.4180  178.2450  147.0080 C   0  0  0  0  0  2  0  0  0  0  0  0
  187.7880  176.6500  142.9910 C   0  0  0  0  0  2  0  0  0  0  0  0
  190.0250  177.0140  144.2390 C   0  0  0  0  0  0  0  0  0  0  0  0
  187.7740  178.3250  147.4390 O   0  0  0  0  0  0  0  0  0  0  0  0
  189.9550  177.8370  146.5070 N   0  0  0  0  0  0  0  0  0  0  0  0
  188.2500  177.2370  141.6950 C   0  0  0  0  0  3  0  0  0  0  0  0
  190.9490  176.6220  143.1090 C   0  0  0  0  0  2  0  0  0  0  0  0
  190.6660  177.3980  145.4320 C   0  0  0  0  0  3  0  0  0  0  0  0
  188.6070  177.9230  146.4240 C   0  0  0  0  0  0  0  0  0  0  0  0
  186.4590  177.7910  145.5260 C   0  0  2  0  0  3  0  0  0  0  0  0
  187.9240  177.5910  145.2950 C   0  0  0  0  0  0  0  0  0  0  0  0
  189.4300  176.8990  141.1670 C   0  0  0  0  0  0  0  0  0  0  0  0
  188.6010  177.1200  144.1620 C   0  0  0  0  0  0  0  0  0  0  0  0
  190.3200  175.9380  141.9020 C   0  0  0  0  0  2  0  0  0  0  0  0
  188.6940  178.7920  137.9260 C   0  0  0  0  0  2  0  0  0  0  0  0
  190.4350  177.1240  137.4520 C   0  0  0  0  0  0  0  0  0  0  0  0
  188.8090  175.5750  138.5060 C   0  0  0  0  0  1  0  0  0  0  0  0
  189.8170  178.2500  137.0900 C   0  0  0  0  0  3  0  0  0  0  0  0
  189.8340  177.4860  139.8410 C   0  0  2  0  0  3  0  0  0  0  0  0
  189.0110  178.7260  139.4270 C   0  0  0  0  0  2  0  0  0  0  0  0
  190.0460  176.4340  138.7320 C   0  0  2  0  0  3  0  0  0  0  0  0
  191.5050  176.5910  136.6070 C   0  0  0  0  0  3  0  0  0  0  0  0
  192.6470  176.3490  137.0810 O   0  0  0  0  0  0  0  0  0  0  0  0
  185.9860  178.8330  144.7030 O   0  0  0  0  0  0  0  0  0  0  0  0
  184.7810  178.4430  144.0670 C   0  0  1  0  0  3  0  0  0  0  0  0
  183.6080  178.8800  146.0990 F   0  0  0  0  0  0  0  0  0  0  0  0
  183.3230  180.2980  144.3840 F   0  0  0  0  0  0  0  0  0  0  0  0
  182.3970  178.2430  144.3110 F   0  0  0  0  0  0  0  0  0  0  0  0
  183.4990  178.9710  144.7230 C   0  0  0  0  0  0  0  0  0  0  0  0
  184.8120  178.4950  142.5630 C   0  0  0  0  0  0  0  0  0  0  0  0
  185.5600  179.5050  141.8860 N   0  0  0  0  0  2  0  0  0  0  0  0
  185.6080  179.5470  140.5350 O   0  0  0  0  0  1  0  0  0  0  0  0
  184.1940  177.6190  141.9020 O   0  0  0  0  0  0  0  0  0  0  0  0
  1  4  1  0  0  0  0
  2 13  1  0  0  0  0
  3  8  2  0  0  0  0
  6  2  1  0  0  0  0
  7  3  1  0  0  0  0
  8  5  1  0  0  0  0
  9  5  2  0  0  0  0
  9  4  1  0  0  0  0
 10 24  1  6  0  0  0
 10  1  1  0  0  0  0
 11 10  1  0  0  0  0
 11  9  1  0  0  0  0
 12  6  2  0  0  0  0
 12 14  1  0  0  0  0
 13  3  1  0  0  0  0
 13 11  2  0  0  0  0
 14  7  1  0  0  0  0
 15 20  1  0  0  0  0
 16 21  1  0  0  0  0
 18 16  2  0  0  0  0
 18 15  1  0  0  0  0
 19 12  1  1  0  0  0
 20 19  1  0  0  0  0
 21 17  1  6  0  0  0
 21 19  1  0  0  0  0
 22 23  2  0  0  0  0
 22 16  1  0  0  0  0
 25 30  1  6  0  0  0
 25 24  1  0  0  0  0
 25 29  1  0  0  0  0
 27 29  1  0  0  0  0
 28 29  1  0  0  0  0
 29 26  1  0  0  0  0
 31 30  1  0  0  0  0
 32 31  1  0  0  0  0
 33 30  2  0  0  0  0
M  END
>  <MODEL>
2

>  <REMARK>
 VINA RESULT:      -8.3      3.336      6.943
  Name = 
  6 active torsions:
  status: ('A' for Active; 'I' for Inactive)
    1  A    between atoms: C_8  and  C_22
    2  A    between atoms: C_16  and  C_25
    3  A    between atoms: C_17  and  O_30
    4  A    between atoms: C_20  and  C_23
    5  A    between atoms: C_25  and  C_28
    6  A    between atoms: C_25  and  O_30
                            x       y       z     vdW  Elec       q    Type
                         _______ _______ _______ _____ _____    ______ ____

>  <TORSDO>
F 6

$$$$
=
 OpenBabel11062414493D

 33 36  0  0  1  0  0  0  0  0999 V2000
  190.4650  177.4210  142.5520 C   0  0  0  0  0  2  0  0  0  0  0  0
  186.3690  178.9520  141.3540 C   0  0  0  0  0  2  0  0  0  0  0  0
  185.9510  178.0500  143.7430 C   0  0  0  0  0  0  0  0  0  0  0  0
  189.9490  177.0330  143.8220 O   0  0  0  0  0  0  0  0  0  0  0  0
  187.8140  177.1150  144.9600 N   0  0  0  0  0  0  0  0  0  0  0  0
  185.1260  178.3670  140.7610 C   0  0  0  0  0  3  0  0  0  0  0  0
  184.4640  178.3140  143.7980 C   0  0  0  0  0  2  0  0  0  0  0  0
  186.4990  177.4650  144.9010 C   0  0  0  0  0  3  0  0  0  0  0  0
  188.6070  177.3180  143.8830 C   0  0  0  0  0  0  0  0  0  0  0  0
  189.2580  177.9520  141.7360 C   0  0  2  0  0  3  0  0  0  0  0  0
  188.1390  177.8570  142.7250 C   0  0  0  0  0  0  0  0  0  0  0  0
  183.9470  178.4860  141.3770 C   0  0  0  0  0  0  0  0  0  0  0  0
  186.7990  178.2480  142.6080 C   0  0  0  0  0  0  0  0  0  0  0  0
  183.8720  179.1900  142.7010 C   0  0  0  0  0  2  0  0  0  0  0  0
  182.1390  176.7260  138.5020 C   0  0  0  0  0  2  0  0  0  0  0  0
  180.5660  178.3090  139.5320 C   0  0  0  0  0  0  0  0  0  0  0  0
  182.4230  179.9150  139.1730 C   0  0  0  0  0  1  0  0  0  0  0  0
  180.7500  177.2280  138.7700 C   0  0  0  0  0  3  0  0  0  0  0  0
  182.7180  177.9140  140.7220 C   0  0  2  0  0  3  0  0  0  0  0  0
  183.0070  176.7330  139.7690 C   0  0  0  0  0  2  0  0  0  0  0  0
  181.7490  178.9830  140.1720 C   0  0  2  0  0  3  0  0  0  0  0  0
  179.2070  178.8050  139.7540 C   0  0  0  0  0  3  0  0  0  0  0  0
  178.9600  179.6300  140.6730 O   0  0  0  0  0  0  0  0  0  0  0  0
  189.0090  177.0860  140.6520 O   0  0  0  0  0  0  0  0  0  0  0  0
  189.5290  177.6410  139.4550 C   0  0  1  0  0  3  0  0  0  0  0  0
  191.8850  177.2820  139.5860 F   0  0  0  0  0  0  0  0  0  0  0  0
  190.5790  175.5520  139.0090 F   0  0  0  0  0  0  0  0  0  0  0  0
  190.9330  177.2320  137.5460 F   0  0  0  0  0  0  0  0  0  0  0  0
  190.7530  176.9160  138.8810 C   0  0  0  0  0  0  0  0  0  0  0  0
  188.4930  178.0670  138.4500 C   0  0  0  0  0  0  0  0  0  0  0  0
  188.5990  179.3260  137.7870 N   0  0  0  0  0  2  0  0  0  0  0  0
  187.6830  179.7080  136.8680 O   0  0  0  0  0  1  0  0  0  0  0  0
  187.5430  177.2870  138.1730 O   0  0  0  0  0  0  0  0  0  0  0  0
  1  4  1  0  0  0  0
  2 13  1  0  0  0  0
  3  7  1  0  0  0  0
  3  8  2  0  0  0  0
  4  9  1  0  0  0  0
  6  2  1  0  0  0  0
  6 12  2  0  0  0  0
  8  5  1  0  0  0  0
  9  5  2  0  0  0  0
 10 24  1  6  0  0  0
 10  1  1  0  0  0  0
 10 11  1  0  0  0  0
 11  9  1  0  0  0  0
 12 14  1  0  0  0  0
 13 11  2  0  0  0  0
 13  3  1  0  0  0  0
 14  7  1  0  0  0  0
 15 18  1  0  0  0  0
 15 20  1  0  0  0  0
 16 22  1  0  0  0  0
 16 21  1  0  0  0  0
 18 16  2  0  0  0  0
 19 12  1  6  0  0  0
 20 19  1  0  0  0  0
 21 17  1  6  0  0  0
 21 19  1  0  0  0  0
 22 23  2  0  0  0  0
 25 30  1  6  0  0  0
 25 24  1  0  0  0  0
 28 29  1  0  0  0  0
 29 27  1  0  0  0  0
 29 25  1  0  0  0  0
 29 26  1  0  0  0  0
 31 30  1  0  0  0  0
 32 31  1  0  0  0  0
 33 30  2  0  0  0  0
M  END
>  <MODEL>
3

>  <REMARK>
 VINA RESULT:      -8.1      3.686      7.962
  Name = 
  6 active torsions:
  status: ('A' for Active; 'I' for Inactive)
    1  A    between atoms: C_8  and  C_22
    2  A    between atoms: C_16  and  C_25
    3  A    between atoms: C_17  and  O_30
    4  A    between atoms: C_20  and  C_23
    5  A    between atoms: C_25  and  C_28
    6  A    between atoms: C_25  and  O_30
                            x       y       z     vdW  Elec       q    Type
                         _______ _______ _______ _____ _____    ______ ____

>  <TORSDO>
F 6

$$$$
=
 OpenBabel11062414493D

 33 36  0  0  1  0  0  0  0  0999 V2000
  189.5780  177.6740  144.0130 C   0  0  0  0  0  2  0  0  0  0  0  0
  185.7720  179.0910  142.0000 C   0  0  0  0  0  2  0  0  0  0  0  0
  184.9310  178.3680  144.3370 C   0  0  0  0  0  0  0  0  0  0  0  0
  188.8430  177.3790  145.1980 O   0  0  0  0  0  0  0  0  0  0  0  0
  186.5410  177.5350  145.9310 N   0  0  0  0  0  0  0  0  0  0  0  0
  184.6490  178.4570  141.2420 C   0  0  0  0  0  3  0  0  0  0  0  0
  183.4590  178.6270  144.1080 C   0  0  0  0  0  2  0  0  0  0  0  0
  185.2600  177.8730  145.6140 C   0  0  0  0  0  3  0  0  0  0  0  0
  187.5130  177.6610  144.9990 C   0  0  0  0  0  0  0  0  0  0  0  0
  188.5390  178.1360  142.9590 C   0  0  2  0  0  3  0  0  0  0  0  0
  187.2620  178.1100  143.7390 C   0  0  0  0  0  0  0  0  0  0  0  0
  183.3800  178.6150  141.6280 C   0  0  0  0  0  0  0  0  0  0  0  0
  185.9670  178.4850  143.3590 C   0  0  0  0  0  0  0  0  0  0  0  0
  183.0780  179.4160  142.8620 C   0  0  0  0  0  2  0  0  0  0  0  0
  182.1040  176.5110  138.7000 C   0  0  0  0  0  2  0  0  0  0  0  0
  180.4480  178.2700  139.1490 C   0  0  0  0  0  0  0  0  0  0  0  0
  182.4290  179.7540  138.9780 C   0  0  0  0  0  1  0  0  0  0  0  0
  180.7220  177.0860  138.5960 C   0  0  0  0  0  3  0  0  0  0  0  0
  182.2810  177.9910  140.8100 C   0  0  2  0  0  3  0  0  0  0  0  0
  182.6920  176.6760  140.1090 C   0  0  0  0  0  2  0  0  0  0  0  0
  181.5110  178.9960  139.9290 C   0  0  2  0  0  3  0  0  0  0  0  0
  179.1030  178.8320  139.0080 C   0  0  0  0  0  3  0  0  0  0  0  0
  178.9330  180.0100  138.5970 O   0  0  0  0  0  0  0  0  0  0  0  0
  188.4780  177.1910  141.9160 O   0  0  0  0  0  0  0  0  0  0  0  0
  189.3280  177.5840  140.8520 C   0  0  1  0  0  3  0  0  0  0  0  0
  190.6390  176.1800  139.4350 F   0  0  0  0  0  0  0  0  0  0  0  0
  191.7090  177.5650  140.8380 F   0  0  0  0  0  0  0  0  0  0  0  0
  190.6550  175.7410  141.6440 F   0  0  0  0  0  0  0  0  0  0  0  0
  190.6050  176.7480  140.6960 C   0  0  0  0  0  0  0  0  0  0  0  0
  188.6210  177.9370  139.5710 C   0  0  0  0  0  0  0  0  0  0  0  0
  189.0550  179.0450  138.7830 N   0  0  0  0  0  2  0  0  0  0  0  0
  188.4360  179.3570  137.6210 O   0  0  0  0  0  1  0  0  0  0  0  0
  187.6570  177.2260  139.1820 O   0  0  0  0  0  0  0  0  0  0  0  0
  1  4  1  0  0  0  0
  2 13  1  0  0  0  0
  3  8  2  0  0  0  0
  6 12  2  0  0  0  0
  6  2  1  0  0  0  0
  7  3  1  0  0  0  0
  8  5  1  0  0  0  0
  9  4  1  0  0  0  0
  9  5  2  0  0  0  0
 10 24  1  6  0  0  0
 10 11  1  0  0  0  0
 10  1  1  0  0  0  0
 11  9  1  0  0  0  0
 12 14  1  0  0  0  0
 13 11  2  0  0  0  0
 13  3  1  0  0  0  0
 14  7  1  0  0  0  0
 15 20  1  0  0  0  0
 16 21  1  0  0  0  0
 18 15  1  0  0  0  0
 18 16  2  0  0  0  0
 19 12  1  6  0  0  0
 20 19  1  0  0  0  0
 21 17  1  6  0  0  0
 21 19  1  0  0  0  0
 22 16  1  0  0  0  0
 23 22  2  0  0  0  0
 25 30  1  6  0  0  0
 25 24  1  0  0  0  0
 26 29  1  0  0  0  0
 29 27  1  0  0  0  0
 29 25  1  0  0  0  0
 29 28  1  0  0  0  0
 31 30  1  0  0  0  0
 32 31  1  0  0  0  0
 33 30  2  0  0  0  0
M  END
>  <MODEL>
4

>  <REMARK>
 VINA RESULT:      -7.7      3.909      8.509
  Name = 
  6 active torsions:
  status: ('A' for Active; 'I' for Inactive)
    1  A    between atoms: C_8  and  C_22
    2  A    between atoms: C_16  and  C_25
    3  A    between atoms: C_17  and  O_30
    4  A    between atoms: C_20  and  C_23
    5  A    between atoms: C_25  and  C_28
    6  A    between atoms: C_25  and  O_30
                            x       y       z     vdW  Elec       q    Type
                         _______ _______ _______ _____ _____    ______ ____

>  <TORSDO>
F 6

$$$$
=
 OpenBabel11062414493D

 33 36  0  0  1  0  0  0  0  0999 V2000
  189.0860  177.7720  146.1090 C   0  0  0  0  0  2  0  0  0  0  0  0
  185.9490  178.9010  143.0370 C   0  0  0  0  0  2  0  0  0  0  0  0
  184.5350  178.5500  145.1760 C   0  0  0  0  0  0  0  0  0  0  0  0
  188.0730  177.6680  147.1060 O   0  0  0  0  0  0  0  0  0  0  0  0
  185.6720  177.9560  147.2200 N   0  0  0  0  0  0  0  0  0  0  0  0
  185.0140  178.1680  142.1270 C   0  0  0  0  0  3  0  0  0  0  0  0
  183.1760  178.7850  144.5570 C   0  0  0  0  0  2  0  0  0  0  0  0
  184.5230  178.2530  146.5520 C   0  0  0  0  0  3  0  0  0  0  0  0
  186.8460  177.9290  146.5480 C   0  0  0  0  0  0  0  0  0  0  0  0
  188.3550  178.0780  144.7760 C   0  0  2  0  0  3  0  0  0  0  0  0
  186.9270  178.1830  145.2130 C   0  0  0  0  0  0  0  0  0  0  0  0
  183.6980  178.3950  142.1620 C   0  0  0  0  0  0  0  0  0  0  0  0
  185.7810  178.5070  144.4760 C   0  0  0  0  0  0  0  0  0  0  0  0
  183.1440  179.3780  143.1540 C   0  0  0  0  0  2  0  0  0  0  0  0
  182.4000  177.6260  138.6470 C   0  0  0  0  0  2  0  0  0  0  0  0
  180.5320  177.3590  140.2210 C   0  0  0  0  0  0  0  0  0  0  0  0
  181.2110  179.6350  140.9380 C   0  0  0  0  0  1  0  0  0  0  0  0
  181.0490  177.0910  139.0200 C   0  0  0  0  0  3  0  0  0  0  0  0
  182.8020  177.6640  141.1990 C   0  0  2  0  0  3  0  0  0  0  0  0
  183.4130  177.4770  139.7920 C   0  0  0  0  0  2  0  0  0  0  0  0
  181.3360  178.1440  141.2230 C   0  0  2  0  0  3  0  0  0  0  0  0
  179.1980  176.8580  140.5550 C   0  0  0  0  0  3  0  0  0  0  0  0
  179.0480  175.8880  141.3430 O   0  0  0  0  0  0  0  0  0  0  0  0
  188.5040  176.9850  143.8990 O   0  0  0  0  0  0  0  0  0  0  0  0
  189.6310  177.1830  143.0620 C   0  0  1  0  0  3  0  0  0  0  0  0
  191.9290  176.7020  142.6300 F   0  0  0  0  0  0  0  0  0  0  0  0
  191.1590  176.4110  144.7170 F   0  0  0  0  0  0  0  0  0  0  0  0
  190.5680  174.9680  143.0880 F   0  0  0  0  0  0  0  0  0  0  0  0
  190.8400  176.2930  143.3790 C   0  0  0  0  0  0  0  0  0  0  0  0
  189.3150  177.3560  141.6010 C   0  0  0  0  0  0  0  0  0  0  0  0
  188.5200  178.4540  141.1560 N   0  0  0  0  0  2  0  0  0  0  0  0
  188.2470  178.6280  139.8410 O   0  0  0  0  0  1  0  0  0  0  0  0
  189.7850  176.5380  140.7660 O   0  0  0  0  0  0  0  0  0  0  0  0
  1  4  1  0  0  0  0
  2 13  1  0  0  0  0
  3  8  2  0  0  0  0
  6 12  2  0  0  0  0
  6  2  1  0  0  0  0
  7  3  1  0  0  0  0
  8  5  1  0  0  0  0
  9  4  1  0  0  0  0
  9  5  2  0  0  0  0
 10 24  1  6  0  0  0
 10 11  1  0  0  0  0
 10  1  1  0  0  0  0
 11  9  1  0  0  0  0
 12 14  1  0  0  0  0
 13  3  1  0  0  0  0
 13 11  2  0  0  0  0
 14  7  1  0  0  0  0
 15 18  1  0  0  0  0
 15 20  1  0  0  0  0
 16 22  1  0  0  0  0
 16 21  1  0  0  0  0
 18 16  2  0  0  0  0
 19 21  1  0  0  0  0
 19 12  1  1  0  0  0
 20 19  1  0  0  0  0
 21 17  1  6  0  0  0
 22 23  2  0  0  0  0
 25 30  1  6  0  0  0
 25 29  1  0  0  0  0
 25 24  1  0  0  0  0
 26 29  1  0  0  0  0
 28 29  1  0  0  0  0
 29 27  1  0  0  0  0
 31 30  1  0  0  0  0
 32 31  1  0  0  0  0
 33 30  2  0  0  0  0
M  END
>  <MODEL>
5

>  <REMARK>
 VINA RESULT:      -7.7      4.560      9.005
  Name = 
  6 active torsions:
  status: ('A' for Active; 'I' for Inactive)
    1  A    between atoms: C_8  and  C_22
    2  A    between atoms: C_16  and  C_25
    3  A    between atoms: C_17  and  O_30
    4  A    between atoms: C_20  and  C_23
    5  A    between atoms: C_25  and  C_28
    6  A    between atoms: C_25  and  O_30
                            x       y       z     vdW  Elec       q    Type
                         _______ _______ _______ _____ _____    ______ ____

>  <TORSDO>
F 6

$$$$
=
 OpenBabel11062414493D

 33 36  0  0  1  0  0  0  0  0999 V2000
  185.3040  178.9140  145.7560 C   0  0  0  0  0  2  0  0  0  0  0  0
  184.9450  179.0970  141.2400 C   0  0  0  0  0  2  0  0  0  0  0  0
  182.4710  179.0040  141.9940 C   0  0  0  0  0  0  0  0  0  0  0  0
  183.8840  178.8910  145.8680 O   0  0  0  0  0  0  0  0  0  0  0  0
  181.9920  178.9330  144.3580 N   0  0  0  0  0  0  0  0  0  0  0  0
  184.7920  178.1090  140.1270 C   0  0  0  0  0  3  0  0  0  0  0  0
  181.8450  178.9700  140.6180 C   0  0  0  0  0  2  0  0  0  0  0  0
  181.5610  178.9720  143.0670 C   0  0  0  0  0  3  0  0  0  0  0  0
  183.3200  178.9070  144.6160 C   0  0  0  0  0  0  0  0  0  0  0  0
  185.6210  178.8820  144.2380 C   0  0  2  0  0  3  0  0  0  0  0  0
  184.2550  178.9120  143.6280 C   0  0  0  0  0  0  0  0  0  0  0  0
  183.7750  178.1950  139.2640 C   0  0  0  0  0  0  0  0  0  0  0  0
  183.8720  178.9650  142.2810 C   0  0  0  0  0  0  0  0  0  0  0  0
  182.7520  179.2810  139.4340 C   0  0  0  0  0  2  0  0  0  0  0  0
  181.9800  176.5790  136.2990 C   0  0  0  0  0  2  0  0  0  0  0  0
  183.3350  174.8490  137.4000 C   0  0  0  0  0  0  0  0  0  0  0  0
  182.1430  175.6390  139.4280 C   0  0  0  0  0  1  0  0  0  0  0  0
  182.6830  175.2530  136.3070 C   0  0  0  0  0  3  0  0  0  0  0  0
  183.6860  177.2020  138.1370 C   0  0  2  0  0  3  0  0  0  0  0  0
  182.8300  177.6840  136.9440 C   0  0  0  0  0  2  0  0  0  0  0  0
  183.4170  175.7550  138.5990 C   0  0  2  0  0  3  0  0  0  0  0  0
  183.9850  173.5380  137.4030 C   0  0  0  0  0  3  0  0  0  0  0  0
  185.0970  173.3660  137.9680 O   0  0  0  0  0  0  0  0  0  0  0  0
  186.2580  177.6670  143.9190 O   0  0  0  0  0  0  0  0  0  0  0  0
  187.6480  177.8780  143.7400 C   0  0  1  0  0  3  0  0  0  0  0  0
  189.3560  176.3840  144.4830 F   0  0  0  0  0  0  0  0  0  0  0  0
  189.3230  178.4620  145.3290 F   0  0  0  0  0  0  0  0  0  0  0  0
  187.7600  176.9630  145.9620 F   0  0  0  0  0  0  0  0  0  0  0  0
  188.5320  177.4120  144.9050 C   0  0  0  0  0  0  0  0  0  0  0  0
  188.1670  177.5610  142.3630 C   0  0  0  0  0  0  0  0  0  0  0  0
  188.3170  178.5930  141.3880 N   0  0  0  0  0  2  0  0  0  0  0  0
  188.8010  178.3200  140.1540 O   0  0  0  0  0  1  0  0  0  0  0  0
  188.4980  176.3780  142.0840 O   0  0  0  0  0  0  0  0  0  0  0  0
  1  4  1  0  0  0  0
  2 13  1  0  0  0  0
  3 13  1  0  0  0  0
  3  8  2  0  0  0  0
  5  9  2  0  0  0  0
  6  2  1  0  0  0  0
  7  3  1  0  0  0  0
  8  5  1  0  0  0  0
  9  4  1  0  0  0  0
 10 24  1  1  0  0  0
 10  1  1  0  0  0  0
 11 10  1  0  0  0  0
 11  9  1  0  0  0  0
 12 14  1  0  0  0  0
 12  6  2  0  0  0  0
 13 11  2  0  0  0  0
 14  7  1  0  0  0  0
 15 18  1  0  0  0  0
 15 20  1  0  0  0  0
 16 22  1  0  0  0  0
 16 21  1  0  0  0  0
 18 16  2  0  0  0  0
 19 21  1  0  0  0  0
 19 12  1  1  0  0  0
 20 19  1  0  0  0  0
 21 17  1  6  0  0  0
 22 23  2  0  0  0  0
 25 30  1  6  0  0  0
 25 24  1  0  0  0  0
 25 29  1  0  0  0  0
 26 29  1  0  0  0  0
 29 27  1  0  0  0  0
 29 28  1  0  0  0  0
 31 30  1  0  0  0  0
 32 31  1  0  0  0  0
 33 30  2  0  0  0  0
M  END
>  <MODEL>
6

>  <REMARK>
 VINA RESULT:      -7.6      4.359      8.777
  Name = 
  6 active torsions:
  status: ('A' for Active; 'I' for Inactive)
    1  A    between atoms: C_8  and  C_22
    2  A    between atoms: C_16  and  C_25
    3  A    between atoms: C_17  and  O_30
    4  A    between atoms: C_20  and  C_23
    5  A    between atoms: C_25  and  C_28
    6  A    between atoms: C_25  and  O_30
                            x       y       z     vdW  Elec       q    Type
                         _______ _______ _______ _____ _____    ______ ____

>  <TORSDO>
F 6

$$$$
=
 OpenBabel11062414493D

 33 36  0  0  1  0  0  0  0  0999 V2000
  188.6330  176.6750  135.8750 C   0  0  0  0  0  2  0  0  0  0  0  0
  188.9190  178.2420  140.1200 C   0  0  0  0  0  2  0  0  0  0  0  0
  191.1870  177.0350  139.8170 C   0  0  0  0  0  0  0  0  0  0  0  0
  189.9390  176.1160  135.9930 O   0  0  0  0  0  0  0  0  0  0  0  0
  191.6630  176.0000  137.6890 N   0  0  0  0  0  0  0  0  0  0  0  0
  188.6540  177.7060  141.4910 C   0  0  0  0  0  3  0  0  0  0  0  0
  191.7170  177.2520  141.2160 C   0  0  0  0  0  2  0  0  0  0  0  0
  192.0440  176.3210  138.9560 C   0  0  0  0  0  3  0  0  0  0  0  0
  190.4330  176.3570  137.2510 C   0  0  0  0  0  0  0  0  0  0  0  0
  188.2900  177.2750  137.2640 C   0  0  2  0  0  3  0  0  0  0  0  0
  189.5470  177.0270  138.0370 C   0  0  0  0  0  0  0  0  0  0  0  0
  189.6030  177.7160  142.4310 C   0  0  0  0  0  0  0  0  0  0  0  0
  189.8860  177.3960  139.3450 C   0  0  0  0  0  0  0  0  0  0  0  0
  190.9680  178.2440  142.0960 C   0  0  0  0  0  2  0  0  0  0  0  0
  187.6280  177.7960  145.7050 C   0  0  0  0  0  2  0  0  0  0  0  0
  189.9030  177.0180  146.2100 C   0  0  0  0  0  0  0  0  0  0  0  0
  190.5510  179.0710  144.9780 C   0  0  0  0  0  1  0  0  0  0  0  0
  188.6250  177.1000  146.5850 C   0  0  0  0  0  3  0  0  0  0  0  0
  189.2770  177.2010  143.8070 C   0  0  2  0  0  3  0  0  0  0  0  0
  187.8060  177.4210  144.2260 C   0  0  0  0  0  2  0  0  0  0  0  0
  190.3290  177.5670  144.8760 C   0  0  2  0  0  3  0  0  0  0  0  0
  190.8690  176.3660  147.0970 C   0  0  0  0  0  3  0  0  0  0  0  0
  192.0850  176.6900  147.0820 O   0  0  0  0  0  0  0  0  0  0  0  0
  187.2270  176.5470  137.8380 O   0  0  0  0  0  0  0  0  0  0  0  0
  186.0170  176.8350  137.1580 C   0  0  1  0  0  3  0  0  0  0  0  0
  184.4590  175.9920  135.5580 F   0  0  0  0  0  0  0  0  0  0  0  0
  186.1910  174.6900  136.1370 F   0  0  0  0  0  0  0  0  0  0  0  0
  184.4970  175.0210  137.5890 F   0  0  0  0  0  0  0  0  0  0  0  0
  185.2740  175.6100  136.6070 C   0  0  0  0  0  0  0  0  0  0  0  0
  185.1540  177.8800  137.8120 C   0  0  0  0  0  0  0  0  0  0  0  0
  185.6920  178.7430  138.8120 N   0  0  0  0  0  2  0  0  0  0  0  0
  184.9280  179.6980  139.3920 O   0  0  0  0  0  1  0  0  0  0  0  0
  183.9550  178.0070  137.4470 O   0  0  0  0  0  0  0  0  0  0  0  0
  1  4  1  0  0  0  0
  1 10  1  0  0  0  0
  2  6  1  0  0  0  0
  3  7  1  0  0  0  0
  4  9  1  0  0  0  0
  5  8  1  0  0  0  0
  6 12  2  0  0  0  0
  7 14  1  0  0  0  0
  8  3  2  0  0  0  0
  9  5  2  0  0  0  0
  9 11  1  0  0  0  0
 10 24  1  1  0  0  0
 10 11  1  0  0  0  0
 11 13  2  0  0  0  0
 13  3  1  0  0  0  0
 13  2  1  0  0  0  0
 14 12  1  0  0  0  0
 15 18  1  0  0  0  0
 16 18  2  0  0  0  0
 16 22  1  0  0  0  0
 19 12  1  6  0  0  0
 19 20  1  0  0  0  0
 19 21  1  0  0  0  0
 20 15  1  0  0  0  0
 21 17  1  1  0  0  0
 21 16  1  0  0  0  0
 23 22  2  0  0  0  0
 25 30  1  1  0  0  0
 25 24  1  0  0  0  0
 26 29  1  0  0  0  0
 27 29  1  0  0  0  0
 29 25  1  0  0  0  0
 29 28  1  0  0  0  0
 30 31  1  0  0  0  0
 31 32  1  0  0  0  0
 33 30  2  0  0  0  0
M  END
>  <MODEL>
7

>  <REMARK>
 VINA RESULT:      -7.4      1.556      2.136
  Name = 
  6 active torsions:
  status: ('A' for Active; 'I' for Inactive)
    1  A    between atoms: C_8  and  C_22
    2  A    between atoms: C_16  and  C_25
    3  A    between atoms: C_17  and  O_30
    4  A    between atoms: C_20  and  C_23
    5  A    between atoms: C_25  and  C_28
    6  A    between atoms: C_25  and  O_30
                            x       y       z     vdW  Elec       q    Type
                         _______ _______ _______ _____ _____    ______ ____

>  <TORSDO>
F 6

$$$$
=
 OpenBabel11062414493D

 33 36  0  0  1  0  0  0  0  0999 V2000
  183.8670  179.0040  143.8950 C   0  0  0  0  0  2  0  0  0  0  0  0
  187.7510  178.8420  141.5620 C   0  0  0  0  0  2  0  0  0  0  0  0
  185.9760  178.4670  139.7180 C   0  0  0  0  0  0  0  0  0  0  0  0
  183.1350  178.7970  142.6900 O   0  0  0  0  0  0  0  0  0  0  0  0
  183.6460  178.4860  140.3440 N   0  0  0  0  0  0  0  0  0  0  0  0
  188.6820  177.7730  141.0840 C   0  0  0  0  0  3  0  0  0  0  0  0
  186.9300  178.2590  138.5630 C   0  0  0  0  0  2  0  0  0  0  0  0
  184.6100  178.3830  139.3880 C   0  0  0  0  0  3  0  0  0  0  0  0
  184.0050  178.6550  141.6380 C   0  0  0  0  0  0  0  0  0  0  0  0
  185.3670  178.9160  143.5120 C   0  0  2  0  0  3  0  0  0  0  0  0
  185.3060  178.7220  142.0300 C   0  0  0  0  0  0  0  0  0  0  0  0
  189.0020  177.6650  139.7920 C   0  0  0  0  0  0  0  0  0  0  0  0
  186.3420  178.6360  141.0900 C   0  0  0  0  0  0  0  0  0  0  0  0
  188.3930  178.6120  138.7980 C   0  0  0  0  0  2  0  0  0  0  0  0
  192.4470  176.4790  138.6250 C   0  0  0  0  0  2  0  0  0  0  0  0
  190.7550  175.0160  137.6070 C   0  0  0  0  0  0  0  0  0  0  0  0
  189.7600  177.1730  136.8930 C   0  0  0  0  0  1  0  0  0  0  0  0
  192.0300  175.2010  137.9590 C   0  0  0  0  0  3  0  0  0  0  0  0
  189.9740  176.5970  139.3650 C   0  0  2  0  0  3  0  0  0  0  0  0
  191.4460  176.9180  139.7050 C   0  0  0  0  0  2  0  0  0  0  0  0
  189.7280  176.0650  137.9370 C   0  0  2  0  0  3  0  0  0  0  0  0
  190.3730  173.7770  136.9270 C   0  0  0  0  0  3  0  0  0  0  0  0
  189.2990  173.1840  137.2140 O   0  0  0  0  0  0  0  0  0  0  0  0
  185.9390  177.7790  144.1170 O   0  0  0  0  0  0  0  0  0  0  0  0
  186.8710  178.1720  145.1110 C   0  0  1  0  0  3  0  0  0  0  0  0
  185.0990  177.5710  146.5930 F   0  0  0  0  0  0  0  0  0  0  0  0
  187.1900  177.6120  147.4030 F   0  0  0  0  0  0  0  0  0  0  0  0
  186.1250  179.5450  146.9390 F   0  0  0  0  0  0  0  0  0  0  0  0
  186.3120  178.2340  146.5380 C   0  0  0  0  0  0  0  0  0  0  0  0
  188.2400  177.5620  144.9740 C   0  0  0  0  0  0  0  0  0  0  0  0
  189.3930  178.2540  145.4520 N   0  0  0  0  0  2  0  0  0  0  0  0
  190.6260  177.7040  145.3510 O   0  0  0  0  0  1  0  0  0  0  0  0
  188.3580  176.4190  144.4590 O   0  0  0  0  0  0  0  0  0  0  0  0
  3 13  1  0  0  0  0
  4  1  1  0  0  0  0
  5  9  2  0  0  0  0
  6  2  1  0  0  0  0
  7 14  1  0  0  0  0
  7  3  1  0  0  0  0
  8  3  2  0  0  0  0
  8  5  1  0  0  0  0
  9 11  1  0  0  0  0
  9  4  1  0  0  0  0
 10  1  1  0  0  0  0
 10 24  1  1  0  0  0
 11 10  1  0  0  0  0
 12  6  2  0  0  0  0
 13  2  1  0  0  0  0
 13 11  2  0  0  0  0
 14 12  1  0  0  0  0
 15 20  1  0  0  0  0
 16 21  1  0  0  0  0
 16 18  2  0  0  0  0
 18 15  1  0  0  0  0
 19 20  1  0  0  0  0
 19 12  1  6  0  0  0
 21 17  1  6  0  0  0
 21 19  1  0  0  0  0
 22 23  2  0  0  0  0
 22 16  1  0  0  0  0
 25 24  1  6  0  0  0
 25 29  1  0  0  0  0
 29 26  1  0  0  0  0
 29 28  1  0  0  0  0
 29 27  1  0  0  0  0
 30 25  1  0  0  0  0
 30 31  1  0  0  0  0
 32 31  1  0  0  0  0
 33 30  2  0  0  0  0
M  END
>  <MODEL>
8

>  <REMARK>
 VINA RESULT:      -7.4      3.754      7.105
  Name = 
  6 active torsions:
  status: ('A' for Active; 'I' for Inactive)
    1  A    between atoms: C_8  and  C_22
    2  A    between atoms: C_16  and  C_25
    3  A    between atoms: C_17  and  O_30
    4  A    between atoms: C_20  and  C_23
    5  A    between atoms: C_25  and  C_28
    6  A    between atoms: C_25  and  O_30
                            x       y       z     vdW  Elec       q    Type
                         _______ _______ _______ _____ _____    ______ ____

>  <TORSDO>
F 6

$$$$
=
 OpenBabel11062414493D

 33 36  0  0  1  0  0  0  0  0999 V2000
  188.7220  177.4980  145.7640 C   0  0  0  0  0  2  0  0  0  0  0  0
  185.6840  178.9030  142.7070 C   0  0  0  0  0  2  0  0  0  0  0  0
  184.2450  178.6320  144.8400 C   0  0  0  0  0  0  0  0  0  0  0  0
  187.7030  177.4580  146.7590 O   0  0  0  0  0  0  0  0  0  0  0  0
  185.3310  177.9260  146.8770 N   0  0  0  0  0  0  0  0  0  0  0  0
  184.6970  178.2560  141.7870 C   0  0  0  0  0  3  0  0  0  0  0  0
  182.9090  178.9790  144.2240 C   0  0  0  0  0  2  0  0  0  0  0  0
  184.2090  178.3190  146.2120 C   0  0  0  0  0  3  0  0  0  0  0  0
  186.5000  177.8190  146.2040 C   0  0  0  0  0  0  0  0  0  0  0  0
  188.0180  177.8760  144.4350 C   0  0  2  0  0  3  0  0  0  0  0  0
  186.6020  178.0830  144.8740 C   0  0  0  0  0  0  0  0  0  0  0  0
  183.4020  178.5820  141.8240 C   0  0  0  0  0  0  0  0  0  0  0  0
  185.4850  178.5040  144.1400 C   0  0  0  0  0  0  0  0  0  0  0  0
  182.9240  179.5910  142.8290 C   0  0  0  0  0  2  0  0  0  0  0  0
  182.6280  176.6230  138.6320 C   0  0  0  0  0  2  0  0  0  0  0  0
  180.7750  178.1880  139.0310 C   0  0  0  0  0  0  0  0  0  0  0  0
  182.6130  179.8480  139.1800 C   0  0  0  0  0  1  0  0  0  0  0  0
  181.2140  177.0820  138.4260 C   0  0  0  0  0  3  0  0  0  0  0  0
  182.4540  177.9330  140.8520 C   0  0  2  0  0  3  0  0  0  0  0  0
  183.0550  176.7220  140.1040 C   0  0  0  0  0  2  0  0  0  0  0  0
  181.6820  178.9370  139.9700 C   0  0  2  0  0  3  0  0  0  0  0  0
  179.4030  178.6390  138.7910 C   0  0  0  0  0  3  0  0  0  0  0  0
  179.1610  179.5740  137.9820 O   0  0  0  0  0  0  0  0  0  0  0  0
  188.0850  176.7860  143.5440 O   0  0  0  0  0  0  0  0  0  0  0  0
  189.1870  176.9430  142.6660 C   0  0  1  0  0  3  0  0  0  0  0  0
  189.9900  177.7110  140.5530 F   0  0  0  0  0  0  0  0  0  0  0  0
  187.8080  177.2290  140.7460 F   0  0  0  0  0  0  0  0  0  0  0  0
  188.6400  179.0850  141.7190 F   0  0  0  0  0  0  0  0  0  0  0  0
  188.8990  177.7640  141.4020 C   0  0  0  0  0  0  0  0  0  0  0  0
  190.5020  177.2260  143.3400 C   0  0  0  0  0  0  0  0  0  0  0  0
  190.9390  178.5690  143.5430 N   0  0  0  0  0  2  0  0  0  0  0  0
  192.1120  178.8320  144.1660 O   0  0  0  0  0  1  0  0  0  0  0  0
  191.2030  176.2650  143.7540 O   0  0  0  0  0  0  0  0  0  0  0  0
  1  4  1  0  0  0  0
  2 13  1  0  0  0  0
  3  8  2  0  0  0  0
  6 12  2  0  0  0  0
  6  2  1  0  0  0  0
  7  3  1  0  0  0  0
  8  5  1  0  0  0  0
  9  4  1  0  0  0  0
  9  5  2  0  0  0  0
 10 24  1  6  0  0  0
 10 11  1  0  0  0  0
 10  1  1  0  0  0  0
 11  9  1  0  0  0  0
 12 14  1  0  0  0  0
 13  3  1  0  0  0  0
 13 11  2  0  0  0  0
 14  7  1  0  0  0  0
 15 20  1  0  0  0  0
 16 21  1  0  0  0  0
 18 15  1  0  0  0  0
 18 16  2  0  0  0  0
 19 12  1  6  0  0  0
 20 19  1  0  0  0  0
 21 17  1  6  0  0  0
 21 19  1  0  0  0  0
 22 16  1  0  0  0  0
 23 22  2  0  0  0  0
 25 30  1  1  0  0  0
 25 24  1  0  0  0  0
 26 29  1  0  0  0  0
 27 29  1  0  0  0  0
 29 28  1  0  0  0  0
 29 25  1  0  0  0  0
 30 31  1  0  0  0  0
 30 33  2  0  0  0  0
 31 32  1  0  0  0  0
M  END
>  <MODEL>
9

>  <REMARK>
 VINA RESULT:      -7.2      4.043      8.929
  Name = 
  6 active torsions:
  status: ('A' for Active; 'I' for Inactive)
    1  A    between atoms: C_8  and  C_22
    2  A    between atoms: C_16  and  C_25
    3  A    between atoms: C_17  and  O_30
    4  A    between atoms: C_20  and  C_23
    5  A    between atoms: C_25  and  C_28
    6  A    between atoms: C_25  and  O_30
                            x       y       z     vdW  Elec       q    Type
                         _______ _______ _______ _____ _____    ______ ____

>  <TORSDO>
F 6

$$$$
