=
 OpenBabel11062412053D

 48 50  0  0  1  0  0  0  0  0999 V2000
  189.9100  177.4590  143.5660 C   0  0  1  0  0  3  0  0  0  0  0  0
  190.4760  178.7440  143.5420 O   0  0  0  0  0  1  0  0  0  0  0  0
  187.7630  176.5830  143.0520 O   0  0  0  0  0  0  0  0  0  0  0  0
  188.5830  177.4740  142.8660 C   0  0  0  0  0  0  0  0  0  0  0  0
  188.2420  178.6060  141.9500 C   0  0  0  0  0  2  0  0  0  0  0  0
  187.2790  178.1450  140.8660 C   0  0  0  0  0  2  0  0  0  0  0  0
  185.3780  179.1020  139.8580 O   0  0  0  0  0  0  0  0  0  0  0  0
  186.0010  178.9350  140.8950 C   0  0  0  0  0  0  0  0  0  0  0  0
  185.3770  179.4080  142.1750 C   0  0  0  0  0  3  0  0  0  0  0  0
  184.4420  178.4090  142.8710 C   0  0  0  0  0  3  0  0  0  0  0  0
  183.6450  178.9440  144.0860 C   0  0  2  0  0  0  0  0  0  0  0  0
  183.3960  180.2910  143.8080 O   0  0  0  0  0  1  0  0  0  0  0  0
  184.4560  178.8660  145.4110 C   0  0  0  0  0  2  0  0  0  0  0  0
  185.5520  177.7940  145.4110 C   0  0  0  0  0  2  0  0  0  0  0  0
  187.6130  177.6600  146.8850 C   0  0  2  0  0  3  0  0  0  0  0  0
  186.8110  178.3090  146.0300 C   0  0  2  0  0  3  0  0  0  0  0  0
  186.9650  178.3440  147.4390 O   0  0  0  0  0  0  0  0  0  0  0  0
  189.1100  178.7430  148.2690 F   0  0  0  0  0  0  0  0  0  0  0  0
  188.1560  177.7550  148.0960 C   0  0  0  0  0  0  0  0  0  0  0  0
  187.8070  177.2530  149.3330 F   0  0  0  0  0  0  0  0  0  0  0  0
  188.7060  176.7410  147.3250 F   0  0  0  0  0  0  0  0  0  0  0  0
  182.3760  178.3010  144.1840 O   0  0  0  0  0  0  0  0  0  0  0  0
  181.2960  178.9150  143.4710 C   0  0  0  0  0  3  0  0  0  0  0  0
  181.2080  178.6550  141.9710 C   0  0  0  0  0  1  0  0  0  0  0  0
  179.9520  178.7960  144.1690 C   0  0  0  0  0  1  0  0  0  0  0  0
  190.8330  176.3970  142.9630 C   0  0  0  0  0  2  0  0  0  0  0  0
  190.6260  176.2450  141.5280 N   0  0  0  0  0  2  0  0  0  0  0  0
  191.4040  177.1710  140.9070 O   0  0  0  0  0  0  0  0  0  0  0  0
  190.9010  177.2260  139.6050 C   0  0  0  0  0  2  0  0  0  0  0  0
  190.7480  175.8850  139.0610 N   0  0  0  0  0  2  0  0  0  0  0  0
  193.1740  173.5410  136.0380 C   0  0  0  0  0  3  0  0  0  0  0  0
  194.0860  175.1770  137.6050 C   0  0  0  0  0  3  0  0  0  0  0  0
  195.6920  173.2030  136.8090 Cl  0  0  0  0  0  0  0  0  0  0  0  0
  191.8850  173.8690  136.0160 C   0  0  0  0  0  3  0  0  0  0  0  0
  193.0050  175.8520  137.9960 C   0  0  0  0  0  3  0  0  0  0  0  0
  191.0920  174.5110  137.0980 C   0  0  0  0  0  0  0  0  0  0  0  0
  191.6120  175.3440  138.0420 C   0  0  0  0  0  0  0  0  0  0  0  0
  194.0530  173.7430  137.2260 C   0  0  2  0  0  3  0  0  0  0  0  0
  189.0960  173.2290  137.3090 O   0  0  0  0  0  0  0  0  0  0  0  0
  189.6190  174.3240  136.9720 C   0  0  0  0  0  0  0  0  0  0  0  0
  185.6340  176.5980  136.3540 C   0  0  0  0  0  1  0  0  0  0  0  0
  188.7410  175.4640  136.6320 C   0  0  0  0  0  0  0  0  0  0  0  0
  187.6670  179.2290  137.1180 O   0  0  0  0  0  1  0  0  0  0  0  0
  189.1720  176.4490  135.6110 C   0  0  0  0  0  3  0  0  0  0  0  0
  186.8380  176.9530  137.1900 C   0  0  1  0  0  3  0  0  0  0  0  0
  187.6810  175.7260  137.4080 C   0  0  0  0  0  3  0  0  0  0  0  0
  187.6070  178.0130  136.5300 N   0  0  0  0  0  0  0  0  0  0  0  0
  188.6200  177.6650  135.5760 C   0  0  0  0  0  3  0  0  0  0  0  0
  1  2  1  6  0  0  0
  4  3  2  0  0  0  0
  4  1  1  0  0  0  0
  5  4  1  0  0  0  0
  6  8  1  0  0  0  0
  6  5  1  0  0  0  0
  7  8  2  0  0  0  0
  8  9  1  0  0  0  0
  9 10  2  0  0  0  0
 10 11  1  0  0  0  0
 11 12  1  6  0  0  0
 11 22  1  0  0  0  0
 11 13  1  0  0  0  0
 14 13  1  0  0  0  0
 15 17  1  0  0  0  0
 15 19  1  6  0  0  0
 16 14  1  1  0  0  0
 16 15  1  0  0  0  0
 16 17  1  0  0  0  0
 19 18  1  0  0  0  0
 19 20  1  0  0  0  0
 21 19  1  0  0  0  0
 23 25  1  0  0  0  0
 23 22  1  0  0  0  0
 24 23  1  0  0  0  0
 26  1  1  0  0  0  0
 27 26  1  0  0  0  0
 28 27  1  0  0  0  0
 29 28  1  0  0  0  0
 30 29  1  0  0  0  0
 31 38  1  0  0  0  0
 32 35  2  0  0  0  0
 34 31  2  0  0  0  0
 34 36  1  0  0  0  0
 35 37  1  0  0  0  0
 36 37  2  0  0  0  0
 37 30  1  0  0  0  0
 38 33  1  6  0  0  0
 38 32  1  0  0  0  0
 40 36  1  0  0  0  0
 40 39  2  0  0  0  0
 42 40  1  0  0  0  0
 42 46  2  0  0  0  0
 44 42  1  0  0  0  0
 45 41  1  6  0  0  0
 45 46  1  0  0  0  0
 47 43  1  0  0  0  0
 47 45  1  0  0  0  0
 48 44  2  0  0  0  0
 48 47  1  0  0  0  0
M  END
>  <MODEL>
1

>  <REMARK>
 VINA RESULT:      -7.6      0.000      0.000
  Name = 
  22 active torsions:
  status: ('A' for Active; 'I' for Inactive)
    1  A    between atoms: O_3  and  C_12
    2  A    between atoms: O_3  and  C_14
    3  A    between atoms: C_4  and  C_33
    4  A    between atoms: C_4  and  C_37
    5  A    between atoms: C_5  and  C_25
    6  A    between atoms: O_7  and  C_9
    7  A    between atoms: O_7  and  N_32
    8  A    between atoms: C_8  and  C_22
    9  A    between atoms: C_8  and  C_42
   10  A    between atoms: C_9  and  N_48
   11  A    between atoms: C_12  and  C_24
   12  A    between atoms: C_12  and  C_42
   13  A    between atoms: C_13  and  C_34
   14  A    between atoms: C_13  and  C_37
   15  A    between atoms: C_15  and  O_45
   16  A    between atoms: C_19  and  C_33
   17  A    between atoms: C_19  and  C_36
   18  A    between atoms: C_22  and  O_45
   19  A    between atoms: C_24  and  C_36
   20  A    between atoms: C_25  and  C_31
   21  A    between atoms: N_32  and  C_34
   22  A    between atoms: C_35  and  N_48
                            x       y       z     vdW  Elec       q    Type
                         _______ _______ _______ _____ _____    ______ ____

>  <TORSDO>
F 22

$$$$
=
 OpenBabel11062412053D

 48 50  0  0  1  0  0  0  0  0999 V2000
  183.1390  177.4690  137.1430 C   0  0  1  0  0  3  0  0  0  0  0  0
  182.3970  177.3440  135.9570 O   0  0  0  0  0  1  0  0  0  0  0  0
  181.1140  176.7690  138.1700 O   0  0  0  0  0  0  0  0  0  0  0  0
  182.2830  177.1000  138.3200 C   0  0  0  0  0  0  0  0  0  0  0  0
  182.8730  177.1110  139.6940 C   0  0  0  0  0  2  0  0  0  0  0  0
  182.8570  178.5180  140.2720 C   0  0  0  0  0  2  0  0  0  0  0  0
  184.9240  179.5550  139.8300 O   0  0  0  0  0  0  0  0  0  0  0  0
  184.2390  178.9700  140.6540 C   0  0  0  0  0  0  0  0  0  0  0  0
  184.7620  178.8620  142.0560 C   0  0  0  0  0  2  0  0  0  0  0  0
  183.7870  178.2830  143.0890 C   0  0  0  0  0  2  0  0  0  0  0  0
  183.5810  179.1120  144.3810 C   0  0  2  0  0  0  0  0  0  0  0  0
  184.1410  180.3660  144.1160 O   0  0  0  0  0  1  0  0  0  0  0  0
  184.3200  178.5020  145.6050 C   0  0  0  0  0  2  0  0  0  0  0  0
  185.7880  178.9260  145.7240 C   0  0  0  0  0  2  0  0  0  0  0  0
  187.3400  177.5330  147.1700 C   0  0  1  0  0  3  0  0  0  0  0  0
  186.6660  177.7570  146.0330 C   0  0  2  0  0  3  0  0  0  0  0  0
  188.0180  177.9460  146.4170 O   0  0  0  0  0  0  0  0  0  0  0  0
  188.2430  176.3560  148.1120 F   0  0  0  0  0  0  0  0  0  0  0  0
  188.4650  177.6880  147.8070 C   0  0  0  0  0  0  0  0  0  0  0  0
  189.8140  177.9510  147.9210 F   0  0  0  0  0  0  0  0  0  0  0  0
  187.7650  178.4710  148.7150 F   0  0  0  0  0  0  0  0  0  0  0  0
  182.1930  179.3250  144.6320 O   0  0  0  0  0  0  0  0  0  0  0  0
  181.2830  178.8000  143.6590 C   0  0  0  0  0  3  0  0  0  0  0  0
  180.2770  177.7550  144.1310 C   0  0  0  0  0  1  0  0  0  0  0  0
  180.6580  179.8580  142.7680 C   0  0  0  0  0  1  0  0  0  0  0  0
  184.4260  176.6410  137.1240 C   0  0  0  0  0  2  0  0  0  0  0  0
  185.4450  177.2350  136.2670 N   0  0  0  0  0  2  0  0  0  0  0  0
  186.5350  177.4770  137.0420 O   0  0  0  0  0  0  0  0  0  0  0  0
  187.4640  176.5150  136.6400 C   0  0  0  0  0  2  0  0  0  0  0  0
  188.2160  176.0220  137.7840 N   0  0  0  0  0  2  0  0  0  0  0  0
  192.7290  175.8560  137.4390 C   0  0  0  0  0  3  0  0  0  0  0  0
  191.1870  174.2230  136.4800 C   0  0  0  0  0  3  0  0  0  0  0  0
  193.5280  174.5780  135.2540 Cl  0  0  0  0  0  0  0  0  0  0  0  0
  191.9740  176.4380  138.3660 C   0  0  0  0  0  3  0  0  0  0  0  0
  190.0530  174.4600  137.1390 C   0  0  0  0  0  3  0  0  0  0  0  0
  190.4950  176.5980  138.3630 C   0  0  0  0  0  0  0  0  0  0  0  0
  189.6300  175.7490  137.7410 C   0  0  0  0  0  0  0  0  0  0  0  0
  192.1840  175.2800  136.1770 C   0  0  2  0  0  3  0  0  0  0  0  0
  189.4560  178.7020  138.7700 O   0  0  0  0  0  0  0  0  0  0  0  0
  189.9930  177.6750  139.2630 C   0  0  0  0  0  0  0  0  0  0  0  0
  191.0670  175.7540  143.3350 C   0  0  0  0  0  1  0  0  0  0  0  0
  189.9480  177.4750  140.7280 C   0  0  0  0  0  0  0  0  0  0  0  0
  190.2600  178.8960  144.3940 O   0  0  0  0  0  1  0  0  0  0  0  0
  188.6980  177.7580  141.4740 C   0  0  0  0  0  3  0  0  0  0  0  0
  191.1180  177.1960  142.8950 C   0  0  1  0  0  3  0  0  0  0  0  0
  191.0910  177.2670  141.3930 C   0  0  0  0  0  3  0  0  0  0  0  0
  189.9950  177.9360  143.4800 N   0  0  0  0  0  0  0  0  0  0  0  0
  188.7380  177.9770  142.7910 C   0  0  0  0  0  3  0  0  0  0  0  0
  1  2  1  6  0  0  0
  1  4  1  0  0  0  0
  3  4  2  0  0  0  0
  4  5  1  0  0  0  0
  5  6  1  0  0  0  0
  6  8  1  0  0  0  0
  7  8  2  0  0  0  0
  8  9  1  0  0  0  0
  9 10  1  0  0  0  0
 10 11  1  0  0  0  0
 11 12  1  6  0  0  0
 11 22  1  0  0  0  0
 11 13  1  0  0  0  0
 13 14  1  0  0  0  0
 15 19  1  1  0  0  0
 16 14  1  1  0  0  0
 16 17  1  0  0  0  0
 16 15  1  0  0  0  0
 17 15  1  0  0  0  0
 19 20  1  0  0  0  0
 19 18  1  0  0  0  0
 19 21  1  0  0  0  0
 23 24  1  0  0  0  0
 23 22  1  0  0  0  0
 25 23  1  0  0  0  0
 26  1  1  0  0  0  0
 27 28  1  0  0  0  0
 27 26  1  0  0  0  0
 29 28  1  0  0  0  0
 29 30  1  0  0  0  0
 31 34  2  0  0  0  0
 32 35  2  0  0  0  0
 35 37  1  0  0  0  0
 36 34  1  0  0  0  0
 36 40  1  0  0  0  0
 37 30  1  0  0  0  0
 37 36  2  0  0  0  0
 38 33  1  6  0  0  0
 38 32  1  0  0  0  0
 38 31  1  0  0  0  0
 39 40  2  0  0  0  0
 40 42  1  0  0  0  0
 42 46  2  0  0  0  0
 42 44  1  0  0  0  0
 44 48  2  0  0  0  0
 45 41  1  6  0  0  0
 45 47  1  0  0  0  0
 46 45  1  0  0  0  0
 47 43  1  0  0  0  0
 48 47  1  0  0  0  0
M  END
>  <MODEL>
2

>  <REMARK>
 VINA RESULT:      -7.2      1.887      4.866
  Name = 
  22 active torsions:
  status: ('A' for Active; 'I' for Inactive)
    1  A    between atoms: O_3  and  C_12
    2  A    between atoms: O_3  and  C_14
    3  A    between atoms: C_4  and  C_33
    4  A    between atoms: C_4  and  C_37
    5  A    between atoms: C_5  and  C_25
    6  A    between atoms: O_7  and  C_9
    7  A    between atoms: O_7  and  N_32
    8  A    between atoms: C_8  and  C_22
    9  A    between atoms: C_8  and  C_42
   10  A    between atoms: C_9  and  N_48
   11  A    between atoms: C_12  and  C_24
   12  A    between atoms: C_12  and  C_42
   13  A    between atoms: C_13  and  C_34
   14  A    between atoms: C_13  and  C_37
   15  A    between atoms: C_15  and  O_45
   16  A    between atoms: C_19  and  C_33
   17  A    between atoms: C_19  and  C_36
   18  A    between atoms: C_22  and  O_45
   19  A    between atoms: C_24  and  C_36
   20  A    between atoms: C_25  and  C_31
   21  A    between atoms: N_32  and  C_34
   22  A    between atoms: C_35  and  N_48
                            x       y       z     vdW  Elec       q    Type
                         _______ _______ _______ _____ _____    ______ ____

>  <TORSDO>
F 22

$$$$
=
 OpenBabel11062412053D

 48 50  0  0  1  0  0  0  0  0999 V2000
  183.8920  178.7270  140.9140 C   0  0  1  0  0  3  0  0  0  0  0  0
  184.0780  179.7140  139.9330 O   0  0  0  0  0  1  0  0  0  0  0  0
  185.7690  179.7460  141.9550 O   0  0  0  0  0  0  0  0  0  0  0  0
  184.8300  178.9670  142.0610 C   0  0  0  0  0  0  0  0  0  0  0  0
  184.6000  178.2660  143.3620 C   0  0  0  0  0  2  0  0  0  0  0  0
  184.6230  179.2580  144.5150 C   0  0  0  0  0  2  0  0  0  0  0  0
  185.3960  179.3040  146.7390 O   0  0  0  0  0  0  0  0  0  0  0  0
  185.4810  178.7640  145.6470 C   0  0  0  0  0  0  0  0  0  0  0  0
  186.3360  177.5370  145.5320 C   0  0  0  0  0  2  0  0  0  0  0  0
  187.7900  177.6900  145.9980 C   0  0  0  0  0  2  0  0  0  0  0  0
  188.8710  177.7020  144.8880 C   0  0  2  0  0  0  0  0  0  0  0  0
  189.7610  178.7210  145.2430 O   0  0  0  0  0  1  0  0  0  0  0  0
  188.2840  178.0380  143.4890 C   0  0  0  0  0  2  0  0  0  0  0  0
  188.3900  176.8940  142.4750 C   0  0  0  0  0  2  0  0  0  0  0  0
  188.6360  178.2770  140.3620 C   0  0  2  0  0  3  0  0  0  0  0  0
  189.0670  177.3430  141.2210 C   0  0  2  0  0  3  0  0  0  0  0  0
  188.3970  177.2840  139.9730 O   0  0  0  0  0  0  0  0  0  0  0  0
  188.6720  178.8520  138.2660 F   0  0  0  0  0  0  0  0  0  0  0  0
  189.0970  177.6110  138.7080 C   0  0  0  0  0  0  0  0  0  0  0  0
  190.4580  177.6600  138.9260 F   0  0  0  0  0  0  0  0  0  0  0  0
  188.8210  176.6740  137.7220 F   0  0  0  0  0  0  0  0  0  0  0  0
  189.6140  176.4850  144.8910 O   0  0  0  0  0  0  0  0  0  0  0  0
  191.0410  176.6110  144.9180 C   0  0  0  0  0  3  0  0  0  0  0  0
  191.7500  176.2660  146.2240 C   0  0  0  0  0  1  0  0  0  0  0  0
  191.7330  176.0270  143.7000 C   0  0  0  0  0  1  0  0  0  0  0  0
  182.4430  178.6450  141.4020 C   0  0  0  0  0  2  0  0  0  0  0  0
  181.4900  178.8130  140.3120 N   0  0  0  0  0  2  0  0  0  0  0  0
  180.5200  179.6590  140.7490 O   0  0  0  0  0  0  0  0  0  0  0  0
  179.4950  179.5230  139.8100 C   0  0  0  0  0  2  0  0  0  0  0  0
  180.0320  179.0850  138.5300 N   0  0  0  0  0  2  0  0  0  0  0  0
  180.7640  181.5270  134.7860 C   0  0  0  0  0  3  0  0  0  0  0  0
  179.6070  182.3300  136.7820 C   0  0  0  0  0  3  0  0  0  0  0  0
  180.8830  184.1310  135.2870 Cl  0  0  0  0  0  0  0  0  0  0  0  0
  180.6830  180.2080  134.9320 C   0  0  0  0  0  3  0  0  0  0  0  0
  179.3050  181.2030  137.4260 C   0  0  0  0  0  3  0  0  0  0  0  0
  180.5900  179.4380  136.2010 C   0  0  0  0  0  0  0  0  0  0  0  0
  180.0400  179.9160  137.3520 C   0  0  0  0  0  0  0  0  0  0  0  0
  180.8150  182.4790  135.9320 C   0  0  2  0  0  3  0  0  0  0  0  0
  180.1130  177.1380  135.8060 O   0  0  0  0  0  0  0  0  0  0  0  0
  180.9840  178.0060  136.0800 C   0  0  0  0  0  0  0  0  0  0  0  0
  185.3730  177.9430  137.5510 C   0  0  0  0  0  1  0  0  0  0  0  0
  182.4100  177.6120  136.0940 C   0  0  0  0  0  0  0  0  0  0  0  0
  185.1950  174.8200  136.1880 O   0  0  0  0  0  1  0  0  0  0  0  0
  183.0930  177.2660  134.8240 C   0  0  0  0  0  3  0  0  0  0  0  0
  184.4050  176.8080  137.3260 C   0  0  1  0  0  3  0  0  0  0  0  0
  183.0010  177.3460  137.2650 C   0  0  0  0  0  3  0  0  0  0  0  0
  184.7520  176.0940  136.0940 N   0  0  0  0  0  0  0  0  0  0  0  0
  184.2130  176.5380  134.8410 C   0  0  0  0  0  3  0  0  0  0  0  0
  1  2  1  6  0  0  0
  1 26  1  0  0  0  0
  1  4  1  0  0  0  0
  3  4  2  0  0  0  0
  4  5  1  0  0  0  0
  5  6  1  0  0  0  0
  6  8  1  0  0  0  0
  8  7  2  0  0  0  0
  9  8  1  0  0  0  0
  9 10  1  0  0  0  0
 11 22  1  0  0  0  0
 11 12  1  1  0  0  0
 11 10  1  0  0  0  0
 13 11  1  0  0  0  0
 14 13  1  0  0  0  0
 15 19  1  6  0  0  0
 15 16  1  0  0  0  0
 16 14  1  1  0  0  0
 17 15  1  0  0  0  0
 17 16  1  0  0  0  0
 18 19  1  0  0  0  0
 19 20  1  0  0  0  0
 21 19  1  0  0  0  0
 22 23  1  0  0  0  0
 23 24  1  0  0  0  0
 25 23  1  0  0  0  0
 27 28  1  0  0  0  0
 27 26  1  0  0  0  0
 29 28  1  0  0  0  0
 30 29  1  0  0  0  0
 31 34  2  0  0  0  0
 31 38  1  0  0  0  0
 32 35  2  0  0  0  0
 34 36  1  0  0  0  0
 36 37  2  0  0  0  0
 37 35  1  0  0  0  0
 37 30  1  0  0  0  0
 38 33  1  6  0  0  0
 38 32  1  0  0  0  0
 39 40  2  0  0  0  0
 40 42  1  0  0  0  0
 40 36  1  0  0  0  0
 42 46  2  0  0  0  0
 44 48  2  0  0  0  0
 44 42  1  0  0  0  0
 45 41  1  6  0  0  0
 46 45  1  0  0  0  0
 47 43  1  0  0  0  0
 47 45  1  0  0  0  0
 48 47  1  0  0  0  0
M  END
>  <MODEL>
3

>  <REMARK>
 VINA RESULT:      -7.0      5.043      9.157
  Name = 
  22 active torsions:
  status: ('A' for Active; 'I' for Inactive)
    1  A    between atoms: O_3  and  C_12
    2  A    between atoms: O_3  and  C_14
    3  A    between atoms: C_4  and  C_33
    4  A    between atoms: C_4  and  C_37
    5  A    between atoms: C_5  and  C_25
    6  A    between atoms: O_7  and  C_9
    7  A    between atoms: O_7  and  N_32
    8  A    between atoms: C_8  and  C_22
    9  A    between atoms: C_8  and  C_42
   10  A    between atoms: C_9  and  N_48
   11  A    between atoms: C_12  and  C_24
   12  A    between atoms: C_12  and  C_42
   13  A    between atoms: C_13  and  C_34
   14  A    between atoms: C_13  and  C_37
   15  A    between atoms: C_15  and  O_45
   16  A    between atoms: C_19  and  C_33
   17  A    between atoms: C_19  and  C_36
   18  A    between atoms: C_22  and  O_45
   19  A    between atoms: C_24  and  C_36
   20  A    between atoms: C_25  and  C_31
   21  A    between atoms: N_32  and  C_34
   22  A    between atoms: C_35  and  N_48
                            x       y       z     vdW  Elec       q    Type
                         _______ _______ _______ _____ _____    ______ ____

>  <TORSDO>
F 22

$$$$
=
 OpenBabel11062412053D

 48 50  0  0  1  0  0  0  0  0999 V2000
  191.2130  178.2770  143.6950 C   0  0  1  0  0  3  0  0  0  0  0  0
  191.0760  179.6390  144.0070 O   0  0  0  0  0  1  0  0  0  0  0  0
  191.6560  176.4500  145.1480 O   0  0  0  0  0  0  0  0  0  0  0  0
  190.9810  177.4470  144.9240 C   0  0  0  0  0  0  0  0  0  0  0  0
  189.9290  177.8570  145.9050 C   0  0  0  0  0  2  0  0  0  0  0  0
  188.6250  177.1220  145.6300 C   0  0  0  0  0  2  0  0  0  0  0  0
  187.5900  177.9290  147.5850 O   0  0  0  0  0  0  0  0  0  0  0  0
  187.4790  177.7360  146.3840 C   0  0  0  0  0  0  0  0  0  0  0  0
  186.2520  178.2580  145.6970 C   0  0  0  0  0  3  0  0  0  0  0  0
  186.1430  177.9470  144.1980 C   0  0  0  0  0  3  0  0  0  0  0  0
  184.9310  178.5610  143.4540 C   0  0  2  0  0  0  0  0  0  0  0  0
  185.1920  179.9330  143.3810 O   0  0  0  0  0  1  0  0  0  0  0  0
  183.5960  178.3640  144.2250 C   0  0  0  0  0  2  0  0  0  0  0  0
  182.5740  179.4840  144.0020 C   0  0  0  0  0  2  0  0  0  0  0  0
  180.9460  178.7600  142.1960 C   0  0  1  0  0  3  0  0  0  0  0  0
  181.2830  178.9420  143.4800 C   0  0  2  0  0  3  0  0  0  0  0  0
  180.5010  179.6890  142.5620 O   0  0  0  0  0  0  0  0  0  0  0  0
  179.5100  180.1380  140.4960 F   0  0  0  0  0  0  0  0  0  0  0  0
  180.3750  179.2730  141.1450 C   0  0  0  0  0  0  0  0  0  0  0  0
  181.6080  179.3320  140.5280 F   0  0  0  0  0  0  0  0  0  0  0  0
  179.8700  177.9850  141.0410 F   0  0  0  0  0  0  0  0  0  0  0  0
  184.8630  178.0820  142.1120 O   0  0  0  0  0  0  0  0  0  0  0  0
  185.5550  178.8540  141.1250 C   0  0  0  0  0  3  0  0  0  0  0  0
  187.0220  178.5200  140.8750 C   0  0  0  0  0  1  0  0  0  0  0  0
  184.7710  179.0560  139.8410 C   0  0  0  0  0  1  0  0  0  0  0  0
  190.2890  177.8350  142.5570 C   0  0  0  0  0  2  0  0  0  0  0  0
  190.9110  176.8250  141.7100 N   0  0  0  0  0  2  0  0  0  0  0  0
  191.4810  177.4730  140.6590 O   0  0  0  0  0  0  0  0  0  0  0  0
  190.6210  177.2170  139.5890 C   0  0  0  0  0  2  0  0  0  0  0  0
  190.7940  175.8530  139.1110 N   0  0  0  0  0  2  0  0  0  0  0  0
  192.9340  174.1260  135.5120 C   0  0  0  0  0  3  0  0  0  0  0  0
  193.9310  175.6510  137.1400 C   0  0  0  0  0  3  0  0  0  0  0  0
  195.5570  173.9500  135.8860 Cl  0  0  0  0  0  0  0  0  0  0  0  0
  191.6340  174.3270  135.7060 C   0  0  0  0  0  3  0  0  0  0  0  0
  192.8670  176.1660  137.7560 C   0  0  0  0  0  3  0  0  0  0  0  0
  190.9580  174.7570  136.9590 C   0  0  0  0  0  0  0  0  0  0  0  0
  191.5410  175.5220  137.9240 C   0  0  0  0  0  0  0  0  0  0  0  0
  193.9580  174.2740  136.5860 C   0  0  2  0  0  3  0  0  0  0  0  0
  189.1210  173.3000  137.3760 O   0  0  0  0  0  0  0  0  0  0  0  0
  189.5020  174.4430  137.0090 C   0  0  0  0  0  0  0  0  0  0  0  0
  187.8540  178.7620  136.7870 C   0  0  0  0  0  1  0  0  0  0  0  0
  188.4940  175.5070  136.8130 C   0  0  0  0  0  0  0  0  0  0  0  0
  185.7200  177.2370  134.6050 O   0  0  0  0  0  1  0  0  0  0  0  0
  187.0730  175.2480  137.1500 C   0  0  0  0  0  3  0  0  0  0  0  0
  187.8040  177.6480  135.7720 C   0  0  1  0  0  3  0  0  0  0  0  0
  188.8280  176.6020  136.1190 C   0  0  0  0  0  3  0  0  0  0  0  0
  186.4550  177.0740  135.7280 N   0  0  0  0  0  0  0  0  0  0  0  0
  186.1090  176.0080  136.6220 C   0  0  0  0  0  3  0  0  0  0  0  0
  1  2  1  1  0  0  0
  1  4  1  0  0  0  0
  4  3  2  0  0  0  0
  4  5  1  0  0  0  0
  6  5  1  0  0  0  0
  6  8  1  0  0  0  0
  8  7  2  0  0  0  0
  9  8  1  0  0  0  0
 10  9  2  0  0  0  0
 11 12  1  6  0  0  0
 11 10  1  0  0  0  0
 11 13  1  0  0  0  0
 14 13  1  0  0  0  0
 15 19  1  6  0  0  0
 15 17  1  0  0  0  0
 15 16  1  0  0  0  0
 16 14  1  6  0  0  0
 17 16  1  0  0  0  0
 18 19  1  0  0  0  0
 20 19  1  0  0  0  0
 21 19  1  0  0  0  0
 22 11  1  0  0  0  0
 23 22  1  0  0  0  0
 24 23  1  0  0  0  0
 25 23  1  0  0  0  0
 26  1  1  0  0  0  0
 27 26  1  0  0  0  0
 28 27  1  0  0  0  0
 29 28  1  0  0  0  0
 30 29  1  0  0  0  0
 31 34  2  0  0  0  0
 31 38  1  0  0  0  0
 32 35  2  0  0  0  0
 34 36  1  0  0  0  0
 35 37  1  0  0  0  0
 36 40  1  0  0  0  0
 36 37  2  0  0  0  0
 37 30  1  0  0  0  0
 38 33  1  6  0  0  0
 38 32  1  0  0  0  0
 40 39  2  0  0  0  0
 42 40  1  0  0  0  0
 42 44  1  0  0  0  0
 43 47  1  0  0  0  0
 45 46  1  0  0  0  0
 45 41  1  1  0  0  0
 46 42  2  0  0  0  0
 47 45  1  0  0  0  0
 47 48  1  0  0  0  0
 48 44  2  0  0  0  0
M  END
>  <MODEL>
4

>  <REMARK>
 VINA RESULT:      -6.8      3.051      4.715
  Name = 
  22 active torsions:
  status: ('A' for Active; 'I' for Inactive)
    1  A    between atoms: O_3  and  C_12
    2  A    between atoms: O_3  and  C_14
    3  A    between atoms: C_4  and  C_33
    4  A    between atoms: C_4  and  C_37
    5  A    between atoms: C_5  and  C_25
    6  A    between atoms: O_7  and  C_9
    7  A    between atoms: O_7  and  N_32
    8  A    between atoms: C_8  and  C_22
    9  A    between atoms: C_8  and  C_42
   10  A    between atoms: C_9  and  N_48
   11  A    between atoms: C_12  and  C_24
   12  A    between atoms: C_12  and  C_42
   13  A    between atoms: C_13  and  C_34
   14  A    between atoms: C_13  and  C_37
   15  A    between atoms: C_15  and  O_45
   16  A    between atoms: C_19  and  C_33
   17  A    between atoms: C_19  and  C_36
   18  A    between atoms: C_22  and  O_45
   19  A    between atoms: C_24  and  C_36
   20  A    between atoms: C_25  and  C_31
   21  A    between atoms: N_32  and  C_34
   22  A    between atoms: C_35  and  N_48
                            x       y       z     vdW  Elec       q    Type
                         _______ _______ _______ _____ _____    ______ ____

>  <TORSDO>
F 22

$$$$
=
 OpenBabel11062412053D

 48 50  0  0  1  0  0  0  0  0999 V2000
  184.2640  178.7180  142.0700 C   0  0  1  0  0  3  0  0  0  0  0  0
  185.2560  179.7120  142.0740 O   0  0  0  0  0  1  0  0  0  0  0  0
  182.0150  179.0210  142.7720 O   0  0  0  0  0  0  0  0  0  0  0  0
  183.2010  179.0550  143.0750 C   0  0  0  0  0  0  0  0  0  0  0  0
  183.5920  179.4120  144.4730 C   0  0  0  0  0  2  0  0  0  0  0  0
  184.2760  178.2350  145.1540 C   0  0  0  0  0  2  0  0  0  0  0  0
  185.2590  179.4220  146.9350 O   0  0  0  0  0  0  0  0  0  0  0  0
  185.4490  178.6850  145.9790 C   0  0  0  0  0  0  0  0  0  0  0  0
  186.8340  178.1490  145.7680 C   0  0  0  0  0  3  0  0  0  0  0  0
  187.0850  177.4610  144.4190 C   0  0  0  0  0  3  0  0  0  0  0  0
  188.5670  177.2590  144.0150 C   0  0  2  0  0  0  0  0  0  0  0  0
  189.1590  178.5210  144.1190 O   0  0  0  0  0  1  0  0  0  0  0  0
  188.7220  176.7710  142.5470 C   0  0  0  0  0  2  0  0  0  0  0  0
  189.5410  177.7140  141.6580 C   0  0  0  0  0  2  0  0  0  0  0  0
  191.9580  177.3910  140.9550 C   0  0  2  0  0  3  0  0  0  0  0  0
  190.6790  176.9940  141.0100 C   0  0  2  0  0  3  0  0  0  0  0  0
  191.4610  177.6250  140.0100 O   0  0  0  0  0  0  0  0  0  0  0  0
  193.3950  176.8490  141.0620 F   0  0  0  0  0  0  0  0  0  0  0  0
  192.9040  177.3220  139.8570 C   0  0  0  0  0  0  0  0  0  0  0  0
  193.0790  176.3490  138.8950 F   0  0  0  0  0  0  0  0  0  0  0  0
  193.6220  178.4550  139.5030 F   0  0  0  0  0  0  0  0  0  0  0  0
  189.2360  176.4110  144.9460 O   0  0  0  0  0  0  0  0  0  0  0  0
  190.3070  177.0030  145.6900 C   0  0  0  0  0  3  0  0  0  0  0  0
  190.1120  177.1620  147.1950 C   0  0  0  0  0  1  0  0  0  0  0  0
  191.6790  176.4650  145.3280 C   0  0  0  0  0  1  0  0  0  0  0  0
  183.6540  178.4980  140.6840 C   0  0  0  0  0  2  0  0  0  0  0  0
  183.4410  177.0840  140.3980 N   0  0  0  0  0  2  0  0  0  0  0  0
  182.4580  177.0030  139.4640 O   0  0  0  0  0  0  0  0  0  0  0  0
  182.6830  175.7780  138.8320 C   0  0  0  0  0  2  0  0  0  0  0  0
  183.7360  175.9060  137.8350 N   0  0  0  0  0  2  0  0  0  0  0  0
  185.4360  172.6720  135.1570 C   0  0  0  0  0  3  0  0  0  0  0  0
  184.0180  172.2780  137.1070 C   0  0  0  0  0  3  0  0  0  0  0  0
  183.9320  170.4840  135.1370 Cl  0  0  0  0  0  0  0  0  0  0  0  0
  185.8870  173.9020  135.3870 C   0  0  0  0  0  3  0  0  0  0  0  0
  184.0890  173.4350  137.7660 C   0  0  0  0  0  3  0  0  0  0  0  0
  185.2180  174.9840  136.1570 C   0  0  0  0  0  0  0  0  0  0  0  0
  184.3430  174.7740  137.1800 C   0  0  0  0  0  0  0  0  0  0  0  0
  184.1100  172.1810  135.6300 C   0  0  2  0  0  3  0  0  0  0  0  0
  185.0350  177.1230  135.1250 O   0  0  0  0  0  0  0  0  0  0  0  0
  185.7200  176.3550  135.8500 C   0  0  0  0  0  0  0  0  0  0  0  0
  190.2150  176.7510  136.8810 C   0  0  0  0  0  1  0  0  0  0  0  0
  186.9180  176.8890  136.5320 C   0  0  0  0  0  0  0  0  0  0  0  0
  189.2010  179.9350  137.5680 O   0  0  0  0  0  1  0  0  0  0  0  0
  186.8110  177.4000  137.9200 C   0  0  0  0  0  3  0  0  0  0  0  0
  189.2230  177.7950  136.4320 C   0  0  1  0  0  3  0  0  0  0  0  0
  188.0260  177.1230  135.8180 C   0  0  0  0  0  3  0  0  0  0  0  0
  188.8340  178.6330  137.5690 N   0  0  0  0  0  0  0  0  0  0  0  0
  187.7360  178.2350  138.4010 C   0  0  0  0  0  3  0  0  0  0  0  0
  1  2  1  6  0  0  0
  1  4  1  0  0  0  0
  3  4  2  0  0  0  0
  4  5  1  0  0  0  0
  5  6  1  0  0  0  0
  6  8  1  0  0  0  0
  8  7  2  0  0  0  0
  9  8  1  0  0  0  0
 10  9  2  0  0  0  0
 11 12  1  1  0  0  0
 11 10  1  0  0  0  0
 11 22  1  0  0  0  0
 13 11  1  0  0  0  0
 14 13  1  0  0  0  0
 15 19  1  6  0  0  0
 15 16  1  0  0  0  0
 16 14  1  1  0  0  0
 17 15  1  0  0  0  0
 17 16  1  0  0  0  0
 19 18  1  0  0  0  0
 20 19  1  0  0  0  0
 21 19  1  0  0  0  0
 22 23  1  0  0  0  0
 23 24  1  0  0  0  0
 25 23  1  0  0  0  0
 26  1  1  0  0  0  0
 27 26  1  0  0  0  0
 28 27  1  0  0  0  0
 29 28  1  0  0  0  0
 30 29  1  0  0  0  0
 31 34  2  0  0  0  0
 31 38  1  0  0  0  0
 32 35  2  0  0  0  0
 34 36  1  0  0  0  0
 36 37  2  0  0  0  0
 37 35  1  0  0  0  0
 37 30  1  0  0  0  0
 38 33  1  1  0  0  0
 38 32  1  0  0  0  0
 39 40  2  0  0  0  0
 40 36  1  0  0  0  0
 40 42  1  0  0  0  0
 42 44  1  0  0  0  0
 43 47  1  0  0  0  0
 44 48  2  0  0  0  0
 45 41  1  1  0  0  0
 45 47  1  0  0  0  0
 46 45  1  0  0  0  0
 46 42  2  0  0  0  0
 47 48  1  0  0  0  0
M  END
>  <MODEL>
5

>  <REMARK>
 VINA RESULT:      -6.6      3.704      7.147
  Name = 
  22 active torsions:
  status: ('A' for Active; 'I' for Inactive)
    1  A    between atoms: O_3  and  C_12
    2  A    between atoms: O_3  and  C_14
    3  A    between atoms: C_4  and  C_33
    4  A    between atoms: C_4  and  C_37
    5  A    between atoms: C_5  and  C_25
    6  A    between atoms: O_7  and  C_9
    7  A    between atoms: O_7  and  N_32
    8  A    between atoms: C_8  and  C_22
    9  A    between atoms: C_8  and  C_42
   10  A    between atoms: C_9  and  N_48
   11  A    between atoms: C_12  and  C_24
   12  A    between atoms: C_12  and  C_42
   13  A    between atoms: C_13  and  C_34
   14  A    between atoms: C_13  and  C_37
   15  A    between atoms: C_15  and  O_45
   16  A    between atoms: C_19  and  C_33
   17  A    between atoms: C_19  and  C_36
   18  A    between atoms: C_22  and  O_45
   19  A    between atoms: C_24  and  C_36
   20  A    between atoms: C_25  and  C_31
   21  A    between atoms: N_32  and  C_34
   22  A    between atoms: C_35  and  N_48
                            x       y       z     vdW  Elec       q    Type
                         _______ _______ _______ _____ _____    ______ ____

>  <TORSDO>
F 22

$$$$
=
 OpenBabel11062412053D

 48 50  0  0  1  0  0  0  0  0999 V2000
  185.1210  178.7980  142.2530 C   0  0  1  0  0  3  0  0  0  0  0  0
  185.8040  180.0230  142.3100 O   0  0  0  0  0  1  0  0  0  0  0  0
  182.7880  178.7850  142.7000 O   0  0  0  0  0  0  0  0  0  0  0  0
  183.9230  178.8390  143.1560 C   0  0  0  0  0  0  0  0  0  0  0  0
  184.1170  178.9200  144.6370 C   0  0  0  0  0  2  0  0  0  0  0  0
  185.4120  178.2340  145.0460 C   0  0  0  0  0  2  0  0  0  0  0  0
  184.6380  178.3880  147.2650 O   0  0  0  0  0  0  0  0  0  0  0  0
  185.6110  178.2800  146.5350 C   0  0  0  0  0  0  0  0  0  0  0  0
  186.9490  178.0530  147.1740 C   0  0  0  0  0  2  0  0  0  0  0  0
  187.8620  177.0390  146.4710 C   0  0  0  0  0  2  0  0  0  0  0  0
  189.3830  177.3270  146.5280 C   0  0  2  0  0  0  0  0  0  0  0  0
  189.5390  178.3280  147.4920 O   0  0  0  0  0  1  0  0  0  0  0  0
  189.9390  177.8630  145.1790 C   0  0  0  0  0  2  0  0  0  0  0  0
  188.8630  178.1300  144.1210 C   0  0  0  0  0  2  0  0  0  0  0  0
  189.4020  177.8540  141.6570 C   0  0  2  0  0  3  0  0  0  0  0  0
  189.1300  177.3560  142.8710 C   0  0  2  0  0  3  0  0  0  0  0  0
  188.3480  177.5670  141.7070 O   0  0  0  0  0  0  0  0  0  0  0  0
  188.6590  176.7010  139.5610 F   0  0  0  0  0  0  0  0  0  0  0  0
  188.9830  177.7680  140.3820 C   0  0  0  0  0  0  0  0  0  0  0  0
  188.5100  178.9300  139.8080 F   0  0  0  0  0  0  0  0  0  0  0  0
  190.3650  177.8360  140.4910 F   0  0  0  0  0  0  0  0  0  0  0  0
  190.0980  176.1860  146.9990 O   0  0  0  0  0  0  0  0  0  0  0  0
  191.5190  176.2080  146.8220 C   0  0  0  0  0  3  0  0  0  0  0  0
  192.3840  176.0070  148.0620 C   0  0  0  0  0  1  0  0  0  0  0  0
  192.0030  175.4020  145.6300 C   0  0  0  0  0  1  0  0  0  0  0  0
  184.7160  178.4130  140.8280 C   0  0  0  0  0  2  0  0  0  0  0  0
  185.0040  179.4760  139.8720 N   0  0  0  0  0  2  0  0  0  0  0  0
  184.6190  179.0330  138.6460 O   0  0  0  0  0  0  0  0  0  0  0  0
  185.5390  178.0280  138.3390 C   0  0  0  0  0  2  0  0  0  0  0  0
  185.2770  177.4860  137.0140 N   0  0  0  0  0  2  0  0  0  0  0  0
  184.6130  173.2600  135.5240 C   0  0  0  0  0  3  0  0  0  0  0  0
  183.2910  174.3620  137.2570 C   0  0  0  0  0  3  0  0  0  0  0  0
  182.0920  172.4770  135.8020 Cl  0  0  0  0  0  0  0  0  0  0  0  0
  185.7210  173.9960  135.5130 C   0  0  0  0  0  3  0  0  0  0  0  0
  184.0620  175.3900  137.6130 C   0  0  0  0  0  3  0  0  0  0  0  0
  185.8620  175.4310  135.8740 C   0  0  0  0  0  0  0  0  0  0  0  0
  185.0610  176.0830  136.7640 C   0  0  0  0  0  0  0  0  0  0  0  0
  183.2710  173.8010  135.8840 C   0  0  2  0  0  3  0  0  0  0  0  0
  186.9710  177.1080  134.5970 O   0  0  0  0  0  0  0  0  0  0  0  0
  187.0830  176.0860  135.3240 C   0  0  0  0  0  0  0  0  0  0  0  0
  191.7060  175.8540  135.2780 C   0  0  0  0  0  1  0  0  0  0  0  0
  188.4290  175.6640  135.7670 C   0  0  0  0  0  0  0  0  0  0  0  0
  191.1510  175.3090  138.6000 O   0  0  0  0  0  1  0  0  0  0  0  0
  188.6180  174.3310  136.3890 C   0  0  0  0  0  3  0  0  0  0  0  0
  190.7610  176.2280  136.3920 C   0  0  1  0  0  3  0  0  0  0  0  0
  189.4130  176.5710  135.8180 C   0  0  0  0  0  3  0  0  0  0  0  0
  190.6620  175.1250  137.3530 N   0  0  0  0  0  0  0  0  0  0  0  0
  189.6920  174.0900  137.1460 C   0  0  0  0  0  3  0  0  0  0  0  0
  1  2  1  6  0  0  0
  1  4  1  0  0  0  0
  3  4  2  0  0  0  0
  4  5  1  0  0  0  0
  5  6  1  0  0  0  0
  6  8  1  0  0  0  0
  8  9  1  0  0  0  0
  8  7  2  0  0  0  0
 10 11  1  0  0  0  0
 10  9  1  0  0  0  0
 11 22  1  0  0  0  0
 11 12  1  1  0  0  0
 13 11  1  0  0  0  0
 14 13  1  0  0  0  0
 15 19  1  6  0  0  0
 15 17  1  0  0  0  0
 15 16  1  0  0  0  0
 16 14  1  1  0  0  0
 17 16  1  0  0  0  0
 18 19  1  0  0  0  0
 19 21  1  0  0  0  0
 20 19  1  0  0  0  0
 23 22  1  0  0  0  0
 23 24  1  0  0  0  0
 25 23  1  0  0  0  0
 26  1  1  0  0  0  0
 27 26  1  0  0  0  0
 28 27  1  0  0  0  0
 29 28  1  0  0  0  0
 30 29  1  0  0  0  0
 31 38  1  0  0  0  0
 32 35  2  0  0  0  0
 34 31  2  0  0  0  0
 34 36  1  0  0  0  0
 36 37  2  0  0  0  0
 37 30  1  0  0  0  0
 37 35  1  0  0  0  0
 38 33  1  1  0  0  0
 38 32  1  0  0  0  0
 39 40  2  0  0  0  0
 40 42  1  0  0  0  0
 40 36  1  0  0  0  0
 42 46  2  0  0  0  0
 42 44  1  0  0  0  0
 44 48  2  0  0  0  0
 45 41  1  6  0  0  0
 45 47  1  0  0  0  0
 46 45  1  0  0  0  0
 47 43  1  0  0  0  0
 48 47  1  0  0  0  0
M  END
>  <MODEL>
6

>  <REMARK>
 VINA RESULT:      -6.6      3.505      7.069
  Name = 
  22 active torsions:
  status: ('A' for Active; 'I' for Inactive)
    1  A    between atoms: O_3  and  C_12
    2  A    between atoms: O_3  and  C_14
    3  A    between atoms: C_4  and  C_33
    4  A    between atoms: C_4  and  C_37
    5  A    between atoms: C_5  and  C_25
    6  A    between atoms: O_7  and  C_9
    7  A    between atoms: O_7  and  N_32
    8  A    between atoms: C_8  and  C_22
    9  A    between atoms: C_8  and  C_42
   10  A    between atoms: C_9  and  N_48
   11  A    between atoms: C_12  and  C_24
   12  A    between atoms: C_12  and  C_42
   13  A    between atoms: C_13  and  C_34
   14  A    between atoms: C_13  and  C_37
   15  A    between atoms: C_15  and  O_45
   16  A    between atoms: C_19  and  C_33
   17  A    between atoms: C_19  and  C_36
   18  A    between atoms: C_22  and  O_45
   19  A    between atoms: C_24  and  C_36
   20  A    between atoms: C_25  and  C_31
   21  A    between atoms: N_32  and  C_34
   22  A    between atoms: C_35  and  N_48
                            x       y       z     vdW  Elec       q    Type
                         _______ _______ _______ _____ _____    ______ ____

>  <TORSDO>
F 22

$$$$
=
 OpenBabel11062412053D

 48 50  0  0  1  0  0  0  0  0999 V2000
  182.3370  178.5060  140.0730 C   0  0  1  0  0  3  0  0  0  0  0  0
  182.3700  179.8120  139.5560 O   0  0  0  0  0  1  0  0  0  0  0  0
  180.4670  177.6200  141.2400 O   0  0  0  0  0  0  0  0  0  0  0  0
  181.3790  178.4390  141.2260 C   0  0  0  0  0  0  0  0  0  0  0  0
  181.5530  179.3640  142.3880 C   0  0  0  0  0  2  0  0  0  0  0  0
  181.9930  178.5930  143.6240 C   0  0  0  0  0  2  0  0  0  0  0  0
  183.4390  179.3360  145.3270 O   0  0  0  0  0  0  0  0  0  0  0  0
  183.3150  179.0870  144.1370 C   0  0  0  0  0  0  0  0  0  0  0  0
  184.5410  179.1520  143.2730 C   0  0  0  0  0  2  0  0  0  0  0  0
  185.3310  177.8440  143.1380 C   0  0  0  0  0  2  0  0  0  0  0  0
  186.5730  177.6920  144.0510 C   0  0  2  0  0  0  0  0  0  0  0  0
  187.1900  178.9470  144.0570 O   0  0  0  0  0  1  0  0  0  0  0  0
  187.5930  176.6550  143.5030 C   0  0  0  0  0  2  0  0  0  0  0  0
  188.3770  177.1360  142.2770 C   0  0  0  0  0  2  0  0  0  0  0  0
  190.4960  177.3370  143.6570 C   0  0  1  0  0  3  0  0  0  0  0  0
  189.8500  177.0650  142.5150 C   0  0  2  0  0  3  0  0  0  0  0  0
  190.5650  178.1970  142.9850 O   0  0  0  0  0  0  0  0  0  0  0  0
  191.6700  177.0170  144.6690 F   0  0  0  0  0  0  0  0  0  0  0  0
  191.1070  178.2440  144.3640 C   0  0  0  0  0  0  0  0  0  0  0  0
  192.0830  179.2150  144.4500 F   0  0  0  0  0  0  0  0  0  0  0  0
  190.1070  178.5120  145.2890 F   0  0  0  0  0  0  0  0  0  0  0  0
  186.1840  177.4180  145.3950 O   0  0  0  0  0  0  0  0  0  0  0  0
  186.8860  178.1310  146.4200 C   0  0  0  0  0  3  0  0  0  0  0  0
  186.0630  179.0160  147.3490 C   0  0  0  0  0  1  0  0  0  0  0  0
  187.9100  177.2910  147.1620 C   0  0  0  0  0  1  0  0  0  0  0  0
  181.9890  177.4600  139.0110 C   0  0  0  0  0  2  0  0  0  0  0  0
  182.3500  177.9010  137.6700 N   0  0  0  0  0  2  0  0  0  0  0  0
  183.6230  177.4840  137.4360 O   0  0  0  0  0  0  0  0  0  0  0  0
  183.5480  176.0910  137.5090 C   0  0  0  0  0  2  0  0  0  0  0  0
  184.0890  175.4880  136.3000 N   0  0  0  0  0  2  0  0  0  0  0  0
  187.0210  172.0940  135.6640 C   0  0  0  0  0  3  0  0  0  0  0  0
  184.7590  171.8470  136.5520 C   0  0  0  0  0  3  0  0  0  0  0  0
  185.8020  169.7740  135.2400 Cl  0  0  0  0  0  0  0  0  0  0  0  0
  187.2570  173.3880  135.8640 C   0  0  0  0  0  3  0  0  0  0  0  0
  184.4400  173.0920  136.9070 C   0  0  0  0  0  3  0  0  0  0  0  0
  186.2640  174.4930  135.9200 C   0  0  0  0  0  0  0  0  0  0  0  0
  184.9680  174.3460  136.3140 C   0  0  0  0  0  0  0  0  0  0  0  0
  185.6610  171.5350  135.4160 C   0  0  2  0  0  3  0  0  0  0  0  0
  186.2820  176.6320  134.8720 O   0  0  0  0  0  0  0  0  0  0  0  0
  186.8400  175.8480  135.6830 C   0  0  0  0  0  0  0  0  0  0  0  0
  188.9650  178.6220  138.7190 C   0  0  0  0  0  1  0  0  0  0  0  0
  187.9490  176.3520  136.5220 C   0  0  0  0  0  0  0  0  0  0  0  0
  190.7250  175.7500  139.2590 O   0  0  0  0  0  1  0  0  0  0  0  0
  189.3510  176.1900  136.0680 C   0  0  0  0  0  3  0  0  0  0  0  0
  188.8030  177.1230  138.7180 C   0  0  1  0  0  3  0  0  0  0  0  0
  187.6930  176.7350  137.7800 C   0  0  0  0  0  3  0  0  0  0  0  0
  190.0670  176.4860  138.3350 N   0  0  0  0  0  0  0  0  0  0  0  0
  190.3530  176.2560  136.9490 C   0  0  0  0  0  3  0  0  0  0  0  0
  1  2  1  6  0  0  0
  1  4  1  0  0  0  0
  4  3  2  0  0  0  0
  4  5  1  0  0  0  0
  5  6  1  0  0  0  0
  6  8  1  0  0  0  0
  8  7  2  0  0  0  0
  9  8  1  0  0  0  0
 10  9  1  0  0  0  0
 10 11  1  0  0  0  0
 11 12  1  1  0  0  0
 11 22  1  0  0  0  0
 13 11  1  0  0  0  0
 14 13  1  0  0  0  0
 15 19  1  1  0  0  0
 16 14  1  1  0  0  0
 16 17  1  0  0  0  0
 16 15  1  0  0  0  0
 17 15  1  0  0  0  0
 19 20  1  0  0  0  0
 19 18  1  0  0  0  0
 19 21  1  0  0  0  0
 22 23  1  0  0  0  0
 23 25  1  0  0  0  0
 23 24  1  0  0  0  0
 26  1  1  0  0  0  0
 27 26  1  0  0  0  0
 28 29  1  0  0  0  0
 28 27  1  0  0  0  0
 30 37  1  0  0  0  0
 30 29  1  0  0  0  0
 31 34  2  0  0  0  0
 32 35  2  0  0  0  0
 34 36  1  0  0  0  0
 36 37  2  0  0  0  0
 37 35  1  0  0  0  0
 38 33  1  1  0  0  0
 38 31  1  0  0  0  0
 38 32  1  0  0  0  0
 39 40  2  0  0  0  0
 40 36  1  0  0  0  0
 40 42  1  0  0  0  0
 42 46  2  0  0  0  0
 44 42  1  0  0  0  0
 44 48  2  0  0  0  0
 45 41  1  6  0  0  0
 46 45  1  0  0  0  0
 47 45  1  0  0  0  0
 47 43  1  0  0  0  0
 48 47  1  0  0  0  0
M  END
>  <MODEL>
7

>  <REMARK>
 VINA RESULT:      -6.3      3.000      6.139
  Name = 
  22 active torsions:
  status: ('A' for Active; 'I' for Inactive)
    1  A    between atoms: O_3  and  C_12
    2  A    between atoms: O_3  and  C_14
    3  A    between atoms: C_4  and  C_33
    4  A    between atoms: C_4  and  C_37
    5  A    between atoms: C_5  and  C_25
    6  A    between atoms: O_7  and  C_9
    7  A    between atoms: O_7  and  N_32
    8  A    between atoms: C_8  and  C_22
    9  A    between atoms: C_8  and  C_42
   10  A    between atoms: C_9  and  N_48
   11  A    between atoms: C_12  and  C_24
   12  A    between atoms: C_12  and  C_42
   13  A    between atoms: C_13  and  C_34
   14  A    between atoms: C_13  and  C_37
   15  A    between atoms: C_15  and  O_45
   16  A    between atoms: C_19  and  C_33
   17  A    between atoms: C_19  and  C_36
   18  A    between atoms: C_22  and  O_45
   19  A    between atoms: C_24  and  C_36
   20  A    between atoms: C_25  and  C_31
   21  A    between atoms: N_32  and  C_34
   22  A    between atoms: C_35  and  N_48
                            x       y       z     vdW  Elec       q    Type
                         _______ _______ _______ _____ _____    ______ ____

>  <TORSDO>
F 22

$$$$
=
 OpenBabel11062412053D

 48 50  0  0  1  0  0  0  0  0999 V2000
  187.9480  177.4260  136.2700 C   0  0  1  0  0  3  0  0  0  0  0  0
  188.9550  177.4750  135.2930 O   0  0  0  0  0  1  0  0  0  0  0  0
  188.7100  179.4630  137.2250 O   0  0  0  0  0  0  0  0  0  0  0  0
  188.3080  178.3230  137.4190 C   0  0  0  0  0  0  0  0  0  0  0  0
  188.1490  177.8280  138.8210 C   0  0  0  0  0  2  0  0  0  0  0  0
  189.3640  177.0160  139.2430 C   0  0  0  0  0  2  0  0  0  0  0  0
  190.6300  176.6450  141.1930 O   0  0  0  0  0  0  0  0  0  0  0  0
  189.6130  177.1280  140.7210 C   0  0  0  0  0  0  0  0  0  0  0  0
  188.7320  177.9390  141.6260 C   0  0  0  0  0  2  0  0  0  0  0  0
  189.3090  178.2540  143.0120 C   0  0  0  0  0  2  0  0  0  0  0  0
  189.0060  177.2280  144.1330 C   0  0  2  0  0  0  0  0  0  0  0  0
  188.1190  176.3070  143.5680 O   0  0  0  0  0  1  0  0  0  0  0  0
  188.3110  177.8780  145.3630 C   0  0  0  0  0  2  0  0  0  0  0  0
  187.0570  177.1350  145.8360 C   0  0  0  0  0  2  0  0  0  0  0  0
  185.6060  178.6900  144.4520 C   0  0  2  0  0  3  0  0  0  0  0  0
  185.8670  177.4990  145.0080 C   0  0  2  0  0  3  0  0  0  0  0  0
  185.0310  178.5840  145.3770 O   0  0  0  0  0  0  0  0  0  0  0  0
  184.3240  180.3240  143.9900 F   0  0  0  0  0  0  0  0  0  0  0  0
  183.9660  179.0750  144.4700 C   0  0  0  0  0  0  0  0  0  0  0  0
  183.8260  178.2130  143.4020 F   0  0  0  0  0  0  0  0  0  0  0  0
  182.7530  179.1890  145.1330 F   0  0  0  0  0  0  0  0  0  0  0  0
  190.1810  176.5040  144.4900 O   0  0  0  0  0  0  0  0  0  0  0  0
  191.0850  177.1590  145.3890 C   0  0  0  0  0  3  0  0  0  0  0  0
  191.8170  176.2880  146.4040 C   0  0  0  0  0  1  0  0  0  0  0  0
  191.9940  178.1720  144.7170 C   0  0  0  0  0  1  0  0  0  0  0  0
  186.5670  177.7810  135.7140 C   0  0  0  0  0  2  0  0  0  0  0  0
  185.5070  177.5360  136.6840 N   0  0  0  0  0  2  0  0  0  0  0  0
  184.9410  176.3390  136.3730 O   0  0  0  0  0  0  0  0  0  0  0  0
  183.6570  176.6690  135.9350 C   0  0  0  0  0  2  0  0  0  0  0  0
  183.0500  177.6450  136.8280 N   0  0  0  0  0  2  0  0  0  0  0  0
  180.0930  176.8630  140.1700 C   0  0  0  0  0  3  0  0  0  0  0  0
  180.6400  175.2900  138.3820 C   0  0  0  0  0  3  0  0  0  0  0  0
  179.8520  174.2760  140.7190 Cl  0  0  0  0  0  0  0  0  0  0  0  0
  180.4970  178.0190  139.6530 C   0  0  0  0  0  3  0  0  0  0  0  0
  181.2250  176.0660  137.4700 C   0  0  0  0  0  3  0  0  0  0  0  0
  181.5810  178.2400  138.6580 C   0  0  0  0  0  0  0  0  0  0  0  0
  181.9650  177.3270  137.7230 C   0  0  0  0  0  0  0  0  0  0  0  0
  180.7210  175.5510  139.8410 C   0  0  2  0  0  3  0  0  0  0  0  0
  183.2760  179.8660  139.0490 O   0  0  0  0  0  0  0  0  0  0  0  0
  182.1120  179.6330  138.6300 C   0  0  0  0  0  0  0  0  0  0  0  0
  179.6270  183.5210  138.2640 C   0  0  0  0  0  1  0  0  0  0  0  0
  181.3650  180.7110  137.9480 C   0  0  0  0  0  0  0  0  0  0  0  0
  181.1720  183.5560  135.2220 O   0  0  0  0  0  1  0  0  0  0  0  0
  180.6350  180.4230  136.6900 C   0  0  0  0  0  3  0  0  0  0  0  0
  180.9180  183.1240  137.5930 C   0  0  1  0  0  3  0  0  0  0  0  0
  181.5450  181.9790  138.3410 C   0  0  0  0  0  3  0  0  0  0  0  0
  180.6630  182.7660  136.1940 N   0  0  0  0  0  0  0  0  0  0  0  0
  180.3070  181.4170  135.8610 C   0  0  0  0  0  3  0  0  0  0  0  0
  1  2  1  6  0  0  0
  1  4  1  0  0  0  0
  3  4  2  0  0  0  0
  4  5  1  0  0  0  0
  5  6  1  0  0  0  0
  6  8  1  0  0  0  0
  8  7  2  0  0  0  0
  8  9  1  0  0  0  0
  9 10  1  0  0  0  0
 10 11  1  0  0  0  0
 11 12  1  6  0  0  0
 11 22  1  0  0  0  0
 11 13  1  0  0  0  0
 13 14  1  0  0  0  0
 15 19  1  6  0  0  0
 15 16  1  0  0  0  0
 15 17  1  0  0  0  0
 16 17  1  0  0  0  0
 16 14  1  1  0  0  0
 18 19  1  0  0  0  0
 19 21  1  0  0  0  0
 20 19  1  0  0  0  0
 22 23  1  0  0  0  0
 23 24  1  0  0  0  0
 25 23  1  0  0  0  0
 26  1  1  0  0  0  0
 26 27  1  0  0  0  0
 28 27  1  0  0  0  0
 29 28  1  0  0  0  0
 29 30  1  0  0  0  0
 30 37  1  0  0  0  0
 32 38  1  0  0  0  0
 34 31  2  0  0  0  0
 35 37  1  0  0  0  0
 35 32  2  0  0  0  0
 36 34  1  0  0  0  0
 37 36  2  0  0  0  0
 38 31  1  0  0  0  0
 38 33  1  1  0  0  0
 40 36  1  0  0  0  0
 40 39  2  0  0  0  0
 42 46  2  0  0  0  0
 42 40  1  0  0  0  0
 43 47  1  0  0  0  0
 44 42  1  0  0  0  0
 45 41  1  1  0  0  0
 45 46  1  0  0  0  0
 47 45  1  0  0  0  0
 48 47  1  0  0  0  0
 48 44  2  0  0  0  0
M  END
>  <MODEL>
8

>  <REMARK>
 VINA RESULT:      -6.2      4.498      8.544
  Name = 
  22 active torsions:
  status: ('A' for Active; 'I' for Inactive)
    1  A    between atoms: O_3  and  C_12
    2  A    between atoms: O_3  and  C_14
    3  A    between atoms: C_4  and  C_33
    4  A    between atoms: C_4  and  C_37
    5  A    between atoms: C_5  and  C_25
    6  A    between atoms: O_7  and  C_9
    7  A    between atoms: O_7  and  N_32
    8  A    between atoms: C_8  and  C_22
    9  A    between atoms: C_8  and  C_42
   10  A    between atoms: C_9  and  N_48
   11  A    between atoms: C_12  and  C_24
   12  A    between atoms: C_12  and  C_42
   13  A    between atoms: C_13  and  C_34
   14  A    between atoms: C_13  and  C_37
   15  A    between atoms: C_15  and  O_45
   16  A    between atoms: C_19  and  C_33
   17  A    between atoms: C_19  and  C_36
   18  A    between atoms: C_22  and  O_45
   19  A    between atoms: C_24  and  C_36
   20  A    between atoms: C_25  and  C_31
   21  A    between atoms: N_32  and  C_34
   22  A    between atoms: C_35  and  N_48
                            x       y       z     vdW  Elec       q    Type
                         _______ _______ _______ _____ _____    ______ ____

>  <TORSDO>
F 22

$$$$
=
 OpenBabel11062412053D

 48 49  0  0  1  0  0  0  0  0999 V2000
  184.7010  178.7840  142.9430 C   0  0  1  0  0  3  0  0  0  0  0  0
  185.3250  180.0140  142.6810 O   0  0  0  0  0  1  0  0  0  0  0  0
  182.6650  179.1640  144.1070 O   0  0  0  0  0  0  0  0  0  0  0  0
  183.8580  178.8930  144.1800 C   0  0  0  0  0  0  0  0  0  0  0  0
  184.4730  178.6410  145.5190 C   0  0  0  0  0  2  0  0  0  0  0  0
  185.9570  178.9750  145.4980 C   0  0  0  0  0  2  0  0  0  0  0  0
  186.6840  177.1050  146.7310 O   0  0  0  0  0  0  0  0  0  0  0  0
  186.7990  177.7460  145.6980 C   0  0  0  0  0  0  0  0  0  0  0  0
  187.6760  177.1870  144.6160 C   0  0  0  0  0  3  0  0  0  0  0  0
  188.5110  178.2120  143.8370 C   0  0  0  0  0  3  0  0  0  0  0  0
  189.5440  177.6390  142.8360 C   0  0  2  0  0  0  0  0  0  0  0  0
  189.3600  176.2520  142.8580 O   0  0  0  0  0  1  0  0  0  0  0  0
  191.0110  177.9380  143.2550 C   0  0  0  0  0  2  0  0  0  0  0  0
  191.1890  178.2130  144.7530 C   0  0  0  0  0  2  0  0  0  0  0  0
  190.8310  176.7540  146.7980 C   0  0  0  0  0  2  0  0  0  0  0  0
  191.2360  176.9400  145.5340 C   0  0  2  0  0  3  0  0  0  0  0  0
  191.9180  176.8760  146.7760 O   0  0  0  0  0  0  0  0  0  0  0  0
  191.2450  174.9500  147.9110 F   0  0  0  0  0  0  0  0  0  0  0  0
  192.3440  175.5790  147.3520 C   0  0  0  0  0  3  0  0  0  0  0  0
  192.8600  174.7730  146.3590 F   0  0  0  0  0  0  0  0  0  0  0  0
  193.3000  175.7580  148.3430 F   0  0  0  0  0  0  0  0  0  0  0  0
  189.2570  178.0710  141.5070 O   0  0  0  0  0  0  0  0  0  0  0  0
  189.6650  177.1940  140.4500 C   0  0  0  0  0  3  0  0  0  0  0  0
  188.7660  177.1130  139.2210 C   0  0  0  0  0  1  0  0  0  0  0  0
  191.1370  177.2990  140.0970 C   0  0  0  0  0  1  0  0  0  0  0  0
  183.8720  178.2780  141.7600 C   0  0  0  0  0  2  0  0  0  0  0  0
  184.1760  179.0010  140.5310 N   0  0  0  0  0  2  0  0  0  0  0  0
  185.0870  178.2640  139.8430 O   0  0  0  0  0  0  0  0  0  0  0  0
  184.5980  178.2450  138.5350 C   0  0  0  0  0  2  0  0  0  0  0  0
  184.7380  176.9160  137.9580 N   0  0  0  0  0  2  0  0  0  0  0  0
  187.8710  175.4500  135.0330 C   0  0  0  0  0  3  0  0  0  0  0  0
  187.4960  177.7880  135.6340 C   0  0  0  0  0  3  0  0  0  0  0  0
  189.9560  177.0870  134.8840 Cl  0  0  0  0  0  0  0  0  0  0  0  0
  186.7240  174.8840  135.3960 C   0  0  0  0  0  3  0  0  0  0  0  0
  186.2850  177.7630  136.1910 C   0  0  0  0  0  3  0  0  0  0  0  0
  185.7940  175.3240  136.4700 C   0  0  0  0  0  0  0  0  0  0  0  0
  185.6530  176.6140  136.8860 C   0  0  0  0  0  0  0  0  0  0  0  0
  188.4450  176.6500  135.7070 C   0  0  2  0  0  3  0  0  0  0  0  0
  185.1810  173.5650  137.9540 O   0  0  0  0  0  0  0  0  0  0  0  0
  184.8670  174.2610  136.9530 C   0  0  0  0  0  0  0  0  0  0  0  0
  180.6460  172.4520  136.3730 C   0  0  0  0  0  1  0  0  0  0  0  0
  183.5060  174.1350  136.3880 C   0  0  0  0  0  0  0  0  0  0  0  0
  179.9810  175.6970  135.5560 O   0  0  0  0  0  1  0  0  0  0  0  0
  183.2440  174.5580  134.9910 C   0  0  0  0  0  3  0  0  0  0  0  0
  181.0630  173.8620  136.7100 C   0  0  1  0  0  3  0  0  0  0  0  0
  182.4830  173.8630  137.2080 C   0  0  0  0  0  3  0  0  0  0  0  0
  180.9160  174.7200  135.5300 N   0  0  0  0  0  0  0  0  0  0  0  0
  181.9980  174.8350  134.5970 C   0  0  0  0  0  3  0  0  0  0  0  0
  1  2  1  6  0  0  0
  1  4  1  0  0  0  0
  3  4  2  0  0  0  0
  4  5  1  0  0  0  0
  6  5  1  0  0  0  0
  6  8  1  0  0  0  0
  8  7  2  0  0  0  0
  9  8  1  0  0  0  0
 10  9  2  0  0  0  0
 11 12  1  1  0  0  0
 11 13  1  0  0  0  0
 11 10  1  0  0  0  0
 13 14  1  0  0  0  0
 16 14  1  1  0  0  0
 16 17  1  0  0  0  0
 16 15  1  0  0  0  0
 17 15  1  0  0  0  0
 19 18  1  0  0  0  0
 19 21  1  0  0  0  0
 20 19  1  0  0  0  0
 22 11  1  0  0  0  0
 23 22  1  0  0  0  0
 24 23  1  0  0  0  0
 25 23  1  0  0  0  0
 26  1  1  0  0  0  0
 27 26  1  0  0  0  0
 28 27  1  0  0  0  0
 29 28  1  0  0  0  0
 30 29  1  0  0  0  0
 31 34  2  0  0  0  0
 31 38  1  0  0  0  0
 32 38  1  0  0  0  0
 32 35  2  0  0  0  0
 34 36  1  0  0  0  0
 35 37  1  0  0  0  0
 36 37  2  0  0  0  0
 36 40  1  0  0  0  0
 37 30  1  0  0  0  0
 38 33  1  6  0  0  0
 40 39  2  0  0  0  0
 42 40  1  0  0  0  0
 42 46  2  0  0  0  0
 44 42  1  0  0  0  0
 45 41  1  6  0  0  0
 45 46  1  0  0  0  0
 47 43  1  0  0  0  0
 47 45  1  0  0  0  0
 48 44  2  0  0  0  0
 48 47  1  0  0  0  0
M  END
>  <MODEL>
9

>  <REMARK>
 VINA RESULT:      -6.2      3.326      6.335
  Name = 
  22 active torsions:
  status: ('A' for Active; 'I' for Inactive)
    1  A    between atoms: O_3  and  C_12
    2  A    between atoms: O_3  and  C_14
    3  A    between atoms: C_4  and  C_33
    4  A    between atoms: C_4  and  C_37
    5  A    between atoms: C_5  and  C_25
    6  A    between atoms: O_7  and  C_9
    7  A    between atoms: O_7  and  N_32
    8  A    between atoms: C_8  and  C_22
    9  A    between atoms: C_8  and  C_42
   10  A    between atoms: C_9  and  N_48
   11  A    between atoms: C_12  and  C_24
   12  A    between atoms: C_12  and  C_42
   13  A    between atoms: C_13  and  C_34
   14  A    between atoms: C_13  and  C_37
   15  A    between atoms: C_15  and  O_45
   16  A    between atoms: C_19  and  C_33
   17  A    between atoms: C_19  and  C_36
   18  A    between atoms: C_22  and  O_45
   19  A    between atoms: C_24  and  C_36
   20  A    between atoms: C_25  and  C_31
   21  A    between atoms: N_32  and  C_34
   22  A    between atoms: C_35  and  N_48
                            x       y       z     vdW  Elec       q    Type
                         _______ _______ _______ _____ _____    ______ ____

>  <TORSDO>
F 22

$$$$
