=
 OpenBabel11062414563D

 51 58  0  0  1  0  0  0  0  0999 V2000
  182.2080  179.0760  140.7370 C   0  0  2  0  0  3  0  0  0  0  0  0
  181.3810  179.7040  138.3660 C   0  0  0  0  0  2  0  0  0  0  0  0
  184.3630  176.5810  137.8120 C   0  0  0  0  0  2  0  0  0  0  0  0
  181.6090  177.5140  138.6100 C   0  0  1  0  0  3  0  0  0  0  0  0
  187.7620  178.3930  142.3350 N   0  0  0  0  0  0  0  0  0  0  0  0
  181.3240  178.5370  136.2690 C   0  0  1  0  0  3  0  0  0  0  0  0
  181.8670  176.9080  134.6100 F   0  0  0  0  0  0  0  0  0  0  0  0
  184.6840  176.9970  136.3750 C   0  0  0  0  0  2  0  0  0  0  0  0
  186.0320  177.9710  139.1170 C   0  0  0  0  0  2  0  0  0  0  0  0
  188.5340  178.9690  140.1870 O   0  0  0  0  0  0  0  0  0  0  0  0
  180.8270  178.4630  137.7280 C   0  0  2  0  0  0  0  0  0  0  0  0
  184.5690  177.6620  138.8770 C   0  0  1  0  0  3  0  0  0  0  0  0
  182.2970  178.7870  139.2040 C   0  0  2  0  0  0  0  0  0  0  0  0
  182.2400  177.3880  135.8530 C   0  0  1  0  0  3  0  0  0  0  0  0
  183.0570  178.0850  141.5340 C   0  0  0  0  0  2  0  0  0  0  0  0
  185.5320  177.8520  141.6410 C   0  0  1  0  0  3  0  0  0  0  0  0
  183.6500  177.9460  135.7750 C   0  0  0  0  0  2  0  0  0  0  0  0
  183.7350  178.9320  138.6830 C   0  0  0  0  0  2  0  0  0  0  0  0
  187.5790  178.6620  140.9610 C   0  0  0  0  0  0  0  0  0  0  0  0
  186.2680  178.3890  140.5020 N   0  0  0  0  0  0  0  0  0  0  0  0
  186.5050  177.8630  142.8340 C   0  0  0  0  0  2  0  0  0  0  0  0
  184.3520  178.7520  141.9610 C   0  0  0  0  0  2  0  0  0  0  0  0
  179.9190  178.0910  136.5560 C   0  0  1  0  0  3  0  0  0  0  0  0
  180.7080  176.7590  139.5990 C   0  0  1  0  0  3  0  0  0  0  0  0
  178.9310  175.0690  139.3240 C   0  0  1  0  0  3  0  0  0  0  0  0
  179.3000  176.5170  139.0820 C   0  0  0  0  0  2  0  0  0  0  0  0
  180.1650  174.3660  139.8470 C   0  0  2  0  0  3  0  0  0  0  0  0
  179.0380  174.7260  140.7980 C   0  0  0  0  0  2  0  0  0  0  0  0
  181.2840  175.3900  139.9010 C   0  0  0  0  0  2  0  0  0  0  0  0
  180.5730  180.5160  141.7810 O   0  0  0  0  0  1  0  0  0  0  0  0
  180.7740  179.2240  141.2960 C   0  0  2  0  0  3  0  0  0  0  0  0
  180.4520  178.2420  142.3870 C   0  0  0  0  0  3  0  0  0  0  0  0
  179.9540  178.6020  143.4410 O   0  0  0  0  0  0  0  0  0  0  0  0
  189.0460  177.9360  142.8360 C   0  0  0  0  0  2  0  0  0  0  0  0
  189.2230  178.3300  144.2920 C   0  0  0  0  0  2  0  0  0  0  0  0
  191.1550  176.7810  144.5760 C   0  0  0  0  0  1  0  0  0  0  0  0
  189.7760  177.1480  145.0890 C   0  0  1  0  0  3  0  0  0  0  0  0
  190.8230  176.6410  147.2010 O   0  0  0  0  0  1  0  0  0  0  0  0
  188.4930  177.1340  147.2910 C   0  0  0  0  0  1  0  0  0  0  0  0
  189.8220  177.4040  146.6020 C   0  0  2  0  0  3  0  0  0  0  0  0
  178.9910  179.1700  136.2540 N   0  0  0  0  0  2  0  0  0  0  0  0
  179.7330  183.4260  136.6550 C   0  0  2  0  0  3  0  0  0  0  0  0
  179.6150  182.4380  134.6070 N   0  0  0  0  0  2  0  0  0  0  0  0
  179.7140  183.7020  135.2140 N   0  0  0  0  0  2  0  0  0  0  0  0
  179.2790  180.1450  135.2510 C   0  0  0  0  0  3  0  0  0  0  0  0
  179.1880  182.0160  136.8990 C   0  0  0  0  0  2  0  0  0  0  0  0
  179.2960  181.4410  135.5490 C   0  0  0  0  0  0  0  0  0  0  0  0
  178.9320  184.4760  137.4100 C   0  0  0  0  0  2  0  0  0  0  0  0
  181.2150  185.4350  137.8790 N   0  0  0  0  0  1  0  0  0  0  0  0
  179.8060  185.6180  137.7990 C   0  0  0  0  0  0  0  0  0  0  0  0
  179.3050  186.7540  138.0230 O   0  0  0  0  0  0  0  0  0  0  0  0
  1 31  1  1  0  0  0
  1 15  1  0  0  0  0
  2 13  1  0  0  0  0
  3 12  1  0  0  0  0
  4 13  1  0  0  0  0
  4 24  1  1  0  0  0
  5 21  1  0  0  0  0
  5 34  1  0  0  0  0
  6 23  1  0  0  0  0
  6 11  1  0  0  0  0
  7 14  1  0  0  0  0
  8  3  1  0  0  0  0
  9 20  1  0  0  0  0
 10 19  2  0  0  0  0
 11  2  1  0  0  0  0
 11  4  1  0  0  0  0
 12  9  1  0  0  0  0
 13  1  1  0  0  0  0
 14  6  1  0  0  0  0
 15 22  1  0  0  0  0
 16 22  1  0  0  0  0
 16 21  1  0  0  0  0
 17 14  1  0  0  0  0
 17  8  1  0  0  0  0
 18 12  1  0  0  0  0
 18 13  1  0  0  0  0
 19  5  1  0  0  0  0
 20 19  1  0  0  0  0
 20 16  1  0  0  0  0
 23 11  1  0  0  0  0
 24 29  1  0  0  0  0
 25 27  1  0  0  0  0
 25 28  1  0  0  0  0
 26 25  1  0  0  0  0
 26 24  1  0  0  0  0
 27 29  1  0  0  0  0
 27 28  1  0  0  0  0
 31 30  1  0  0  0  0
 31 32  1  0  0  0  0
 32 33  2  0  0  0  0
 34 35  1  0  0  0  0
 35 37  1  0  0  0  0
 36 37  1  0  0  0  0
 37 40  1  0  0  0  0
 40 38  1  0  0  0  0
 40 39  1  0  0  0  0
 41 23  1  0  0  0  0
 42 46  1  0  0  0  0
 42 48  1  0  0  0  0
 43 44  1  0  0  0  0
 43 47  1  0  0  0  0
 44 42  1  0  0  0  0
 45 47  2  0  0  0  0
 45 41  1  0  0  0  0
 47 46  1  0  0  0  0
 48 50  1  0  0  0  0
 50 49  1  0  0  0  0
 50 51  2  0  0  0  0
M  END
>  <MODEL>
1

>  <REMARK>
 VINA RESULT:      -6.1      0.000      0.000
  Name = 
  11 active torsions:
  status: ('A' for Active; 'I' for Inactive)
    1  A    between atoms: C_1  and  C_35
    2  A    between atoms: C_2  and  C_9
    3  A    between atoms: C_3  and  C_13
    4  A    between atoms: C_4  and  C_35
    5  A    between atoms: N_10  and  C_11
    6  A    between atoms: C_11  and  C_51
    7  A    between atoms: C_13  and  C_34
    8  A    between atoms: C_28  and  C_48
    9  A    between atoms: C_28  and  C_51
   10  A    between atoms: N_36  and  C_37
   11  A    between atoms: N_36  and  C_49
                            x       y       z     vdW  Elec       q    Type
                         _______ _______ _______ _____ _____    ______ ____

>  <TORSDO>
F 11

$$$$
=
 OpenBabel11062414563D

 51 58  0  0  1  0  0  0  0  0999 V2000
  186.9080  177.7050  136.9350 C   0  0  2  0  0  3  0  0  0  0  0  0
  189.4170  177.8760  136.3250 C   0  0  0  0  0  2  0  0  0  0  0  0
  189.2700  176.2710  140.3690 C   0  0  0  0  0  2  0  0  0  0  0  0
  188.9500  175.9870  137.3840 C   0  0  1  0  0  3  0  0  0  0  0  0
  184.4950  179.4380  141.9390 N   0  0  0  0  0  0  0  0  0  0  0  0
  191.3890  176.7450  137.0940 C   0  0  1  0  0  3  0  0  0  0  0  0
  192.8060  175.4540  138.5200 F   0  0  0  0  0  0  0  0  0  0  0  0
  190.6790  176.7510  140.7230 C   0  0  0  0  0  2  0  0  0  0  0  0
  187.8730  178.2600  141.0850 C   0  0  0  0  0  2  0  0  0  0  0  0
  186.5570  180.2360  142.7490 O   0  0  0  0  0  0  0  0  0  0  0  0
  190.0140  176.5030  136.4390 C   0  0  2  0  0  0  0  0  0  0  0  0
  188.2870  177.3630  139.9380 C   0  0  1  0  0  3  0  0  0  0  0  0
  188.3820  177.4440  137.3840 C   0  0  2  0  0  0  0  0  0  0  0  0
  191.5710  176.0730  138.4540 C   0  0  1  0  0  3  0  0  0  0  0  0
  185.9160  177.1760  137.9720 C   0  0  0  0  0  2  0  0  0  0  0  0
  185.4430  178.0000  140.2720 C   0  0  1  0  0  3  0  0  0  0  0  0
  191.5000  177.1670  139.5050 C   0  0  0  0  0  2  0  0  0  0  0  0
  188.7070  178.1640  138.7020 C   0  0  0  0  0  2  0  0  0  0  0  0
  185.9000  179.5760  141.8900 C   0  0  0  0  0  0  0  0  0  0  0  0
  186.5110  178.7700  140.9000 N   0  0  0  0  0  0  0  0  0  0  0  0
  184.1320  178.4440  140.9450 C   0  0  0  0  0  2  0  0  0  0  0  0
  185.3730  178.3330  138.7920 C   0  0  0  0  0  2  0  0  0  0  0  0
  191.2630  175.7590  135.9680 C   0  0  1  0  0  3  0  0  0  0  0  0
  188.0340  174.9480  136.7210 C   0  0  1  0  0  3  0  0  0  0  0  0
  188.4500  173.0260  135.2290 C   0  0  1  0  0  3  0  0  0  0  0  0
  188.4820  174.5360  135.3290 C   0  0  0  0  0  2  0  0  0  0  0  0
  188.1370  172.4850  136.6080 C   0  0  2  0  0  3  0  0  0  0  0  0
  187.0610  172.4960  135.5360 C   0  0  0  0  0  2  0  0  0  0  0  0
  187.9980  173.6740  137.5420 C   0  0  0  0  0  2  0  0  0  0  0  0
  186.8080  178.2890  134.5940 O   0  0  0  0  0  1  0  0  0  0  0  0
  186.5700  177.2530  135.4950 C   0  0  2  0  0  3  0  0  0  0  0  0
  185.1510  176.7850  135.3320 C   0  0  0  0  0  3  0  0  0  0  0  0
  184.8520  175.6070  135.4460 O   0  0  0  0  0  0  0  0  0  0  0  0
  183.7820  179.5710  143.1970 C   0  0  0  0  0  2  0  0  0  0  0  0
  184.0330  178.3650  144.0850 C   0  0  0  0  0  2  0  0  0  0  0  0
  184.3620  178.3250  146.5550 C   0  0  0  0  0  1  0  0  0  0  0  0
  184.9700  178.7470  145.2310 C   0  0  1  0  0  3  0  0  0  0  0  0
  186.3640  177.0330  144.2670 O   0  0  0  0  0  1  0  0  0  0  0  0
  187.0250  177.8190  146.4180 C   0  0  0  0  0  1  0  0  0  0  0  0
  186.3810  178.1620  145.0830 C   0  0  2  0  0  3  0  0  0  0  0  0
  191.7870  176.3450  134.7430 N   0  0  0  0  0  2  0  0  0  0  0  0
  195.2710  173.8870  135.5500 C   0  0  2  0  0  3  0  0  0  0  0  0
  195.4850  176.0620  134.9090 N   0  0  0  0  0  2  0  0  0  0  0  0
  196.2440  174.9690  135.3610 N   0  0  0  0  0  2  0  0  0  0  0  0
  193.1740  176.6500  134.5940 C   0  0  0  0  0  3  0  0  0  0  0  0
  193.8670  174.4920  135.6360 C   0  0  0  0  0  2  0  0  0  0  0  0
  194.1050  175.8270  135.0670 C   0  0  0  0  0  0  0  0  0  0  0  0
  195.6100  173.0750  136.7910 C   0  0  0  0  0  2  0  0  0  0  0  0
  197.8310  173.7630  137.7640 N   0  0  0  0  0  1  0  0  0  0  0  0
  196.4140  173.8920  137.7430 C   0  0  0  0  0  0  0  0  0  0  0  0
  195.8460  174.7220  138.5040 O   0  0  0  0  0  0  0  0  0  0  0  0
  1 31  1  6  0  0  0
  1 13  1  0  0  0  0
  1 15  1  0  0  0  0
  2 11  1  0  0  0  0
  2 13  1  0  0  0  0
  3  8  1  0  0  0  0
  4 24  1  6  0  0  0
  4 13  1  0  0  0  0
  5 34  1  0  0  0  0
  6 14  1  0  0  0  0
 11  6  1  0  0  0  0
 11  4  1  0  0  0  0
 12  3  1  0  0  0  0
 12  9  1  0  0  0  0
 13 18  1  0  0  0  0
 14  7  1  0  0  0  0
 14 17  1  0  0  0  0
 15 22  1  0  0  0  0
 16 20  1  0  0  0  0
 16 21  1  0  0  0  0
 17  8  1  0  0  0  0
 18 12  1  0  0  0  0
 19  5  1  0  0  0  0
 19 10  2  0  0  0  0
 20  9  1  0  0  0  0
 20 19  1  0  0  0  0
 21  5  1  0  0  0  0
 22 16  1  0  0  0  0
 23 11  1  0  0  0  0
 23  6  1  0  0  0  0
 24 29  1  0  0  0  0
 25 26  1  0  0  0  0
 25 28  1  0  0  0  0
 25 27  1  0  0  0  0
 26 24  1  0  0  0  0
 27 29  1  0  0  0  0
 28 27  1  0  0  0  0
 30 31  1  0  0  0  0
 32 33  2  0  0  0  0
 32 31  1  0  0  0  0
 34 35  1  0  0  0  0
 35 37  1  0  0  0  0
 37 36  1  0  0  0  0
 38 40  1  0  0  0  0
 40 37  1  0  0  0  0
 40 39  1  0  0  0  0
 41 23  1  0  0  0  0
 42 46  1  0  0  0  0
 42 48  1  0  0  0  0
 43 47  1  0  0  0  0
 43 44  1  0  0  0  0
 44 42  1  0  0  0  0
 45 41  1  0  0  0  0
 45 47  2  0  0  0  0
 47 46  1  0  0  0  0
 48 50  1  0  0  0  0
 50 49  1  0  0  0  0
 50 51  2  0  0  0  0
M  END
>  <MODEL>
2

>  <REMARK>
 VINA RESULT:      -3.9      5.874     10.493
  Name = 
  11 active torsions:
  status: ('A' for Active; 'I' for Inactive)
    1  A    between atoms: C_1  and  C_35
    2  A    between atoms: C_2  and  C_9
    3  A    between atoms: C_3  and  C_13
    4  A    between atoms: C_4  and  C_35
    5  A    between atoms: N_10  and  C_11
    6  A    between atoms: C_11  and  C_51
    7  A    between atoms: C_13  and  C_34
    8  A    between atoms: C_28  and  C_48
    9  A    between atoms: C_28  and  C_51
   10  A    between atoms: N_36  and  C_37
   11  A    between atoms: N_36  and  C_49
                            x       y       z     vdW  Elec       q    Type
                         _______ _______ _______ _____ _____    ______ ____

>  <TORSDO>
F 11

$$$$
