=
 OpenBabel11062417393D

 65 71  0  0  1  0  0  0  0  0999 V2000
  182.1710  178.8300  143.1000 C   0  0  0  0  0  0  0  0  0  0  0  0
  180.0640  177.5940  138.4470 C   0  0  0  0  0  2  0  0  0  0  0  0
  180.8670  178.3630  143.2930 N   0  0  0  0  0  0  0  0  0  0  0  0
  182.4860  178.8350  141.7440 N   0  0  0  0  0  0  0  0  0  0  0  0
  183.2190  177.5010  136.2270 C   0  0  1  0  0  3  0  0  0  0  0  0
  179.5330  179.9990  138.1180 C   0  0  0  0  0  3  0  0  0  0  0  0
  187.9420  174.7680  136.2240 C   0  0  0  0  0  2  0  0  0  0  0  0
  192.3560  176.3000  140.7620 C   0  0  1  0  0  3  0  0  0  0  0  0
  182.9610  179.1560  144.0270 O   0  0  0  0  0  0  0  0  0  0  0  0
  192.0850  175.4640  139.5090 C   0  0  0  0  0  2  0  0  0  0  0  0
  183.2590  178.1500  134.9400 N   0  0  0  0  0  2  0  0  0  0  0  0
  181.9140  178.4000  134.5940 N   0  0  0  0  0  2  0  0  0  0  0  0
  189.6960  174.3560  138.0040 C   0  0  0  0  0  2  0  0  0  0  0  0
  188.6730  178.0050  140.2990 C   0  0  0  0  0  2  0  0  0  0  0  0
  184.7520  179.1620  137.4270 C   0  0  0  0  0  2  0  0  0  0  0  0
  180.1040  179.0140  138.9330 C   0  0  0  0  0  0  0  0  0  0  0  0
  186.6880  174.9440  137.0720 C   0  0  0  0  0  2  0  0  0  0  0  0
  186.0480  178.5530  142.1730 C   0  0  1  0  0  3  0  0  0  0  0  0
  184.5090  177.7070  137.0360 C   0  0  2  0  0  3  0  0  0  0  0  0
  181.3980  177.1110  137.8740 C   0  0  0  0  0  2  0  0  0  0  0  0
  191.1490  176.1420  138.5080 C   0  0  2  0  0  3  0  0  0  0  0  0
  184.8360  179.2680  138.9170 C   0  0  0  0  0  3  0  0  0  0  0  0
  179.5250  181.3370  138.5180 C   0  0  0  0  0  0  0  0  0  0  0  0
  183.8240  179.0050  141.1660 C   0  0  2  0  0  3  0  0  0  0  0  0
  182.0180  178.0840  136.8740 C   0  0  2  0  0  3  0  0  0  0  0  0
  190.7590  175.2010  137.4700 N   0  0  0  0  0  2  0  0  0  0  0  0
  181.1250  178.3650  135.7670 N   0  0  0  0  0  2  0  0  0  0  0  0
  185.7270  177.1260  136.3290 C   0  0  0  0  0  2  0  0  0  0  0  0
  185.9010  178.9310  143.5090 O   0  0  0  0  0  1  0  0  0  0  0  0
  190.0660  178.1610  140.2640 O   0  0  0  0  0  0  0  0  0  0  0  0
  188.1960  178.4160  141.6670 C   0  0  2  0  0  3  0  0  0  0  0  0
  180.0960  181.7020  139.7390 C   0  0  0  0  0  3  0  0  0  0  0  0
  189.3700  178.1350  142.5490 C   0  0  1  0  0  3  0  0  0  0  0  0
  193.0250  177.4950  140.4660 O   0  0  0  0  0  1  0  0  0  0  0  0
  180.6670  180.7280  140.5610 C   0  0  0  0  0  3  0  0  0  0  0  0
  180.6900  179.3800  140.1650 C   0  0  0  0  0  0  0  0  0  0  0  0
  185.6050  175.6120  136.2480 C   0  0  0  0  0  2  0  0  0  0  0  0
  187.0990  177.6400  142.0540 O   0  0  0  0  0  0  0  0  0  0  0  0
  183.7770  178.9700  139.6700 C   0  0  0  0  0  3  0  0  0  0  0  0
  191.1290  176.4910  141.6730 C   0  0  2  0  0  3  0  0  0  0  0  0
  180.2900  178.0320  142.1010 O   0  0  0  0  0  0  0  0  0  0  0  0
  184.7610  177.9210  141.6790 C   0  0  0  0  0  2  0  0  0  0  0  0
  190.5210  177.9080  141.5720 C   0  0  1  0  0  3  0  0  0  0  0  0
  181.2640  178.3430  141.0950 C   0  0  2  0  0  3  0  0  0  0  0  0
  191.8010  177.2250  137.9140 O   0  0  0  0  0  1  0  0  0  0  0  0
  188.8570  173.7420  136.8840 C   0  0  2  0  0  3  0  0  0  0  0  0
  190.3440  175.6900  143.9080 C   0  0  0  0  0  2  0  0  0  0  0  0
  191.5410  176.1640  143.1080 C   0  0  0  0  0  3  0  0  0  0  0  0
  191.3340  174.6830  143.3760 C   0  0  0  0  0  2  0  0  0  0  0  0
  189.6370  179.3650  143.4060 C   0  0  0  0  0  2  0  0  0  0  0  0
  189.7120  178.9940  144.8740 C   0  0  0  0  0  2  0  0  0  0  0  0
  189.0230  177.7990  145.0830 O   0  0  0  0  0  1  0  0  0  0  0  0
  189.6800  172.9080  135.8880 C   0  0  1  0  0  3  0  0  0  0  0  0
  187.6380  171.4680  135.9120 O   0  0  0  0  0  1  0  0  0  0  0  0
  189.4560  170.8630  134.6480 O   0  0  0  0  0  0  0  0  0  0  0  0
  188.9220  171.7020  135.4220 C   0  0  0  0  0  0  0  0  0  0  0  0
  191.7040  173.6350  134.6120 C   0  0  0  0  0  1  0  0  0  0  0  0
  190.1950  173.7230  134.7050 C   0  0  0  0  0  2  0  0  0  0  0  0
  180.4620  177.7160  144.5320 C   0  0  0  0  0  2  0  0  0  0  0  0
  179.2820  178.4160  145.1230 C   0  0  0  0  0  3  0  0  0  0  0  0
  178.9960  179.6680  144.7750 C   0  0  0  0  0  2  0  0  0  0  0  0
  178.9340  182.3730  137.6280 C   0  0  0  0  0  2  0  0  0  0  0  0
  179.9520  183.1030  137.0100 O   0  0  0  0  0  0  0  0  0  0  0  0
  179.4220  183.4880  135.8240 N   0  0  0  0  0  2  0  0  0  0  0  0
  180.5070  184.0690  135.0500 C   0  0  0  0  0  1  0  0  0  0  0  0
  1  3  1  0  0  0  0
  1  9  2  0  0  0  0
  2 16  1  0  0  0  0
  3 59  1  0  0  0  0
  4  1  1  0  0  0  0
  5 11  1  6  0  0  0
  5 25  1  0  0  0  0
  5 19  1  0  0  0  0
  6 23  2  0  0  0  0
  6 16  1  0  0  0  0
  7 46  1  0  0  0  0
  7 17  1  0  0  0  0
  8 34  1  6  0  0  0
  8 40  1  0  0  0  0
 10  8  1  0  0  0  0
 12 11  1  0  0  0  0
 12 27  1  0  0  0  0
 15 22  1  0  0  0  0
 16 36  2  0  0  0  0
 18 29  1  1  0  0  0
 19 28  1  6  0  0  0
 19 15  1  0  0  0  0
 20  2  1  0  0  0  0
 21 45  1  6  0  0  0
 21 10  1  0  0  0  0
 22 39  2  0  0  0  0
 23 32  1  0  0  0  0
 24 39  1  6  0  0  0
 24 42  1  0  0  0  0
 24  4  1  0  0  0  0
 25 20  1  1  0  0  0
 26 13  1  0  0  0  0
 26 21  1  0  0  0  0
 27 25  1  0  0  0  0
 30 14  1  0  0  0  0
 31 14  1  6  0  0  0
 31 38  1  0  0  0  0
 31 33  1  0  0  0  0
 32 35  2  0  0  0  0
 33 50  1  1  0  0  0
 36 35  1  0  0  0  0
 37 28  1  0  0  0  0
 37 17  1  0  0  0  0
 38 18  1  0  0  0  0
 40 48  1  1  0  0  0
 41  3  1  0  0  0  0
 42 18  1  0  0  0  0
 43 30  1  6  0  0  0
 43 40  1  0  0  0  0
 43 33  1  0  0  0  0
 44 36  1  6  0  0  0
 44  4  1  0  0  0  0
 44 41  1  0  0  0  0
 46 53  1  6  0  0  0
 46 13  1  0  0  0  0
 48 49  1  0  0  0  0
 48 47  1  0  0  0  0
 49 47  1  0  0  0  0
 50 51  1  0  0  0  0
 51 52  1  0  0  0  0
 53 58  1  6  0  0  0
 55 56  2  0  0  0  0
 56 53  1  0  0  0  0
 56 54  1  0  0  0  0
 57 58  1  0  0  0  0
 59 60  1  0  0  0  0
 61 60  2  0  0  0  0
 62 23  1  0  0  0  0
 63 62  1  0  0  0  0
 64 63  1  0  0  0  0
 65 64  1  0  0  0  0
M  END
>  <MODEL>
1

>  <REMARK>
 VINA RESULT:       0.4      0.000      0.000
  Name = 
  11 active torsions:
  status: ('A' for Active; 'I' for Inactive)
    1  A    between atoms: C_1  and  C_8
    2  A    between atoms: C_1  and  C_47
    3  A    between atoms: C_2  and  C_44
    4  A    between atoms: C_2  and  C_53
    5  A    between atoms: C_2  and  C_65
    6  A    between atoms: N_6  and  C_21
    7  A    between atoms: C_11  and  C_21
    8  A    between atoms: O_15  and  N_18
    9  A    between atoms: O_15  and  C_22
   10  A    between atoms: C_22  and  C_34
   11  A    between atoms: C_54  and  C_57
                            x       y       z     vdW  Elec       q    Type
                         _______ _______ _______ _____ _____    ______ ____

>  <TORSDO>
F 11

$$$$
=
 OpenBabel11062417393D

 65 71  0  0  1  0  0  0  0  0999 V2000
  189.1610  173.5970  135.2030 C   0  0  0  0  0  0  0  0  0  0  0  0
  193.2430  174.3020  138.4370 C   0  0  0  0  0  2  0  0  0  0  0  0
  190.0330  172.5080  135.0920 N   0  0  0  0  0  0  0  0  0  0  0  0
  189.6600  174.5230  136.1150 N   0  0  0  0  0  0  0  0  0  0  0  0
  191.8970  177.1280  140.6930 C   0  0  1  0  0  3  0  0  0  0  0  0
  194.2790  175.7600  136.7120 C   0  0  0  0  0  3  0  0  0  0  0  0
  187.5820  177.8300  143.9580 C   0  0  0  0  0  2  0  0  0  0  0  0
  181.7410  178.5830  141.1750 C   0  0  1  0  0  3  0  0  0  0  0  0
  188.0620  173.7010  134.5960 O   0  0  0  0  0  0  0  0  0  0  0  0
  182.5120  178.6040  142.4970 C   0  0  0  0  0  2  0  0  0  0  0  0
  192.6940  178.2870  141.0130 N   0  0  0  0  0  2  0  0  0  0  0  0
  194.0230  177.9400  140.6900 N   0  0  0  0  0  2  0  0  0  0  0  0
  185.0950  177.4850  143.6260 C   0  0  0  0  0  2  0  0  0  0  0  0
  185.2910  178.0210  139.2330 C   0  0  0  0  0  2  0  0  0  0  0  0
  190.2760  178.3280  139.1190 C   0  0  0  0  0  2  0  0  0  0  0  0
  193.1900  174.9670  137.0920 C   0  0  0  0  0  0  0  0  0  0  0  0
  188.1600  176.8160  142.9790 C   0  0  0  0  0  2  0  0  0  0  0  0
  186.4780  175.9580  136.9880 C   0  0  1  0  0  3  0  0  0  0  0  0
  190.4360  177.4820  140.3780 C   0  0  2  0  0  3  0  0  0  0  0  0
  192.3930  175.0070  139.4960 C   0  0  0  0  0  2  0  0  0  0  0  0
  183.9470  179.1120  142.3650 C   0  0  2  0  0  3  0  0  0  0  0  0
  189.3980  177.6070  138.1450 C   0  0  0  0  0  3  0  0  0  0  0  0
  194.2990  176.3940  135.4680 C   0  0  0  0  0  0  0  0  0  0  0  0
  188.9250  175.6530  136.6920 C   0  0  2  0  0  3  0  0  0  0  0  0
  192.6160  176.5160  139.5490 C   0  0  2  0  0  3  0  0  0  0  0  0
  184.6760  178.8810  143.6030 N   0  0  0  0  0  2  0  0  0  0  0  0
  194.0050  176.8510  139.7880 N   0  0  0  0  0  2  0  0  0  0  0  0
  189.7370  178.1370  141.5620 C   0  0  0  0  0  2  0  0  0  0  0  0
  185.9210  175.3790  135.8470 O   0  0  0  0  0  1  0  0  0  0  0  0
  184.2050  178.8680  139.5010 O   0  0  0  0  0  0  0  0  0  0  0  0
  184.9900  177.2730  137.9610 C   0  0  2  0  0  3  0  0  0  0  0  0
  193.2200  176.2450  134.5940 C   0  0  0  0  0  3  0  0  0  0  0  0
  183.4960  177.2110  137.9320 C   0  0  1  0  0  3  0  0  0  0  0  0
  181.5720  179.8680  140.6420 O   0  0  0  0  0  1  0  0  0  0  0  0
  192.1280  175.4550  134.9610 C   0  0  0  0  0  3  0  0  0  0  0  0
  192.0930  174.8200  136.2140 C   0  0  0  0  0  0  0  0  0  0  0  0
  189.6150  177.1420  142.7070 C   0  0  0  0  0  2  0  0  0  0  0  0
  185.5300  175.9840  138.0140 O   0  0  0  0  0  0  0  0  0  0  0  0
  189.7880  176.4420  137.6270 C   0  0  0  0  0  3  0  0  0  0  0  0
  182.2660  177.5570  140.1530 C   0  0  2  0  0  3  0  0  0  0  0  0
  191.1060  172.6600  135.9210 O   0  0  0  0  0  0  0  0  0  0  0  0
  187.6870  175.1550  137.4280 C   0  0  0  0  0  2  0  0  0  0  0  0
  183.0640  178.2110  139.0020 C   0  0  1  0  0  3  0  0  0  0  0  0
  190.9280  173.9310  136.5630 C   0  0  2  0  0  3  0  0  0  0  0  0
  183.9380  180.4830  142.0950 O   0  0  0  0  0  1  0  0  0  0  0  0
  186.2910  177.2770  144.5540 C   0  0  2  0  0  3  0  0  0  0  0  0
  181.5040  175.3530  139.2510 C   0  0  0  0  0  2  0  0  0  0  0  0
  181.0750  176.7600  139.6210 C   0  0  0  0  0  3  0  0  0  0  0  0
  180.7800  175.5970  140.5520 C   0  0  0  0  0  2  0  0  0  0  0  0
  183.0180  177.6640  136.5600 C   0  0  0  0  0  2  0  0  0  0  0  0
  182.7350  176.4730  135.6670 C   0  0  0  0  0  2  0  0  0  0  0  0
  181.3890  176.4810  135.3000 O   0  0  0  0  0  1  0  0  0  0  0  0
  186.0300  177.7250  146.0020 C   0  0  1  0  0  3  0  0  0  0  0  0
  188.3920  177.0560  146.4640 O   0  0  0  0  0  0  0  0  0  0  0  0
  187.3910  178.6880  147.7300 O   0  0  0  0  0  1  0  0  0  0  0  0
  187.3080  177.8770  146.7690 C   0  0  0  0  0  0  0  0  0  0  0  0
  183.7340  178.6430  146.3780 C   0  0  0  0  0  1  0  0  0  0  0  0
  185.1810  178.9900  146.0930 C   0  0  0  0  0  2  0  0  0  0  0  0
  189.5600  171.1870  134.7050 C   0  0  0  0  0  2  0  0  0  0  0  0
  188.4620  170.7410  135.6140 C   0  0  0  0  0  3  0  0  0  0  0  0
  187.6680  169.7310  135.2690 C   0  0  0  0  0  2  0  0  0  0  0  0
  195.4550  177.2520  135.0920 C   0  0  0  0  0  2  0  0  0  0  0  0
  196.5710  176.9040  135.8550 O   0  0  0  0  0  0  0  0  0  0  0  0
  197.4770  176.4600  134.9510 N   0  0  0  0  0  2  0  0  0  0  0  0
  198.2410  175.4110  135.6060 C   0  0  0  0  0  1  0  0  0  0  0  0
  1  4  1  0  0  0  0
  2 20  1  0  0  0  0
  3  1  1  0  0  0  0
  3 41  1  0  0  0  0
  4 44  1  0  0  0  0
  4 24  1  0  0  0  0
  5 11  1  6  0  0  0
  6 16  1  0  0  0  0
  7 46  1  0  0  0  0
  8 34  1  6  0  0  0
  8 10  1  0  0  0  0
  9  1  2  0  0  0  0
 12 11  1  0  0  0  0
 13 46  1  0  0  0  0
 14 30  1  0  0  0  0
 16  2  1  0  0  0  0
 17  7  1  0  0  0  0
 18 29  1  6  0  0  0
 18 42  1  0  0  0  0
 18 38  1  0  0  0  0
 19 15  1  6  0  0  0
 19  5  1  0  0  0  0
 19 28  1  0  0  0  0
 21 45  1  1  0  0  0
 21 10  1  0  0  0  0
 21 26  1  0  0  0  0
 22 15  1  0  0  0  0
 23  6  2  0  0  0  0
 24 42  1  1  0  0  0
 24 39  1  0  0  0  0
 25 20  1  1  0  0  0
 25 27  1  0  0  0  0
 25  5  1  0  0  0  0
 26 13  1  0  0  0  0
 27 12  1  0  0  0  0
 28 37  1  0  0  0  0
 31 38  1  0  0  0  0
 31 14  1  1  0  0  0
 32 35  2  0  0  0  0
 32 23  1  0  0  0  0
 33 50  1  6  0  0  0
 33 31  1  0  0  0  0
 33 43  1  0  0  0  0
 35 36  1  0  0  0  0
 36 44  1  0  0  0  0
 36 16  2  0  0  0  0
 37 17  1  0  0  0  0
 39 22  2  0  0  0  0
 40 48  1  6  0  0  0
 40  8  1  0  0  0  0
 43 30  1  1  0  0  0
 43 40  1  0  0  0  0
 44 41  1  6  0  0  0
 46 53  1  1  0  0  0
 47 48  1  0  0  0  0
 47 49  1  0  0  0  0
 48 49  1  0  0  0  0
 51 50  1  0  0  0  0
 52 51  1  0  0  0  0
 53 58  1  6  0  0  0
 53 56  1  0  0  0  0
 54 56  2  0  0  0  0
 56 55  1  0  0  0  0
 58 57  1  0  0  0  0
 59  3  1  0  0  0  0
 59 60  1  0  0  0  0
 61 60  2  0  0  0  0
 62 23  1  0  0  0  0
 62 63  1  0  0  0  0
 64 65  1  0  0  0  0
 64 63  1  0  0  0  0
M  END
>  <MODEL>
2

>  <REMARK>
 VINA RESULT:       0.8      3.503     11.591
  Name = 
  11 active torsions:
  status: ('A' for Active; 'I' for Inactive)
    1  A    between atoms: C_1  and  C_8
    2  A    between atoms: C_1  and  C_47
    3  A    between atoms: C_2  and  C_44
    4  A    between atoms: C_2  and  C_53
    5  A    between atoms: C_2  and  C_65
    6  A    between atoms: N_6  and  C_21
    7  A    between atoms: C_11  and  C_21
    8  A    between atoms: O_15  and  N_18
    9  A    between atoms: O_15  and  C_22
   10  A    between atoms: C_22  and  C_34
   11  A    between atoms: C_54  and  C_57
                            x       y       z     vdW  Elec       q    Type
                         _______ _______ _______ _____ _____    ______ ____

>  <TORSDO>
F 11

$$$$
