=
 OpenBabel11062415453D

 27 30  0  0  1  0  0  0  0  0999 V2000
  189.5920  177.5110  139.1230 C   0  0  2  0  0  3  0  0  0  0  0  0
  190.5420  176.3210  139.1710 C   0  0  0  0  0  2  0  0  0  0  0  0
  188.6810  177.4350  140.1740 O   0  0  0  0  0  1  0  0  0  0  0  0
  187.7900  177.9090  134.9270 C   0  0  0  0  0  3  0  0  0  0  0  0
  189.0430  177.1150  134.6470 C   0  0  0  0  0  2  0  0  0  0  0  0
  190.9240  175.9800  137.7330 C   0  0  2  0  0  0  0  0  0  0  0  0
  189.8910  176.7550  136.9010 C   0  0  2  0  0  3  0  0  0  0  0  0
  187.5560  178.6150  136.0510 C   0  0  0  0  0  3  0  0  0  0  0  0
  193.4610  176.0100  137.2290 C   0  0  0  0  0  3  0  0  0  0  0  0
  192.7660  173.9310  136.1180 C   0  0  0  0  0  0  0  0  0  0  0  0
  191.4480  173.9070  136.3250 C   0  0  0  0  0  3  0  0  0  0  0  0
  193.6760  174.5290  137.1490 C   0  0  1  0  0  3  0  0  0  0  0  0
  190.8510  174.4460  137.5930 C   0  0  0  0  0  2  0  0  0  0  0  0
  188.8710  177.3910  137.8030 C   0  0  2  0  0  3  0  0  0  0  0  0
  189.2820  176.1490  135.7150 N   0  0  0  0  0  0  0  0  0  0  0  0
  188.5020  178.7490  137.2180 C   0  0  0  0  0  2  0  0  0  0  0  0
  195.0090  174.2730  136.8270 O   0  0  0  0  0  1  0  0  0  0  0  0
  193.2670  173.4310  134.9570 F   0  0  0  0  0  0  0  0  0  0  0  0
  192.2820  176.6100  137.4730 C   0  0  0  0  0  3  0  0  0  0  0  0
  187.9460  171.9160  135.7670 C   0  0  0  0  0  0  0  0  0  0  0  0
  188.3700  170.6480  135.5470 F   0  0  0  0  0  0  0  0  0  0  0  0
  188.4830  174.9490  135.7510 C   0  0  0  0  0  0  0  0  0  0  0  0
  187.5560  172.2630  136.9920 C   0  0  0  0  0  3  0  0  0  0  0  0
  187.4930  174.7670  136.8430 C   0  0  0  0  0  3  0  0  0  0  0  0
  187.7910  172.8340  134.6010 C   0  0  0  0  0  2  0  0  0  0  0  0
  188.6230  174.0640  134.7560 C   0  0  0  0  0  3  0  0  0  0  0  0
  187.0940  173.6090  137.3830 C   0  0  0  0  0  3  0  0  0  0  0  0
  1  2  1  0  0  0  0
  1  3  1  1  0  0  0
  4  8  2  0  0  0  0
  5  4  1  0  0  0  0
  5 15  1  0  0  0  0
  6 19  1  6  0  0  0
  6  2  1  0  0  0  0
  7 15  1  6  0  0  0
  7  6  1  0  0  0  0
  7 14  1  0  0  0  0
  8 16  1  0  0  0  0
  9 19  2  0  0  0  0
 10 11  2  0  0  0  0
 10 12  1  0  0  0  0
 11 13  1  0  0  0  0
 12 17  1  6  0  0  0
 12  9  1  0  0  0  0
 13  6  1  0  0  0  0
 14 16  1  6  0  0  0
 14  1  1  0  0  0  0
 15 22  1  0  0  0  0
 18 10  1  0  0  0  0
 20 23  2  0  0  0  0
 21 20  1  0  0  0  0
 22 24  1  0  0  0  0
 23 27  1  0  0  0  0
 24 27  2  0  0  0  0
 25 26  1  0  0  0  0
 25 20  1  0  0  0  0
 26 22  2  0  0  0  0
M  END
>  <MODEL>
1

>  <REMARK>
 VINA RESULT:      -5.4      0.000      0.000
  Name = 
  1 active torsions:
  status: ('A' for Active; 'I' for Inactive)
    1  A    between atoms: C_7  and  N_21
                            x       y       z     vdW  Elec       q    Type
                         _______ _______ _______ _____ _____    ______ ____

>  <TORSDO>
F 1

$$$$
=
 OpenBabel11062415453D

 27 30  0  0  1  0  0  0  0  0999 V2000
  179.4340  177.4290  140.0230 C   0  0  2  0  0  3  0  0  0  0  0  0
  180.3940  177.0630  141.1490 C   0  0  0  0  0  2  0  0  0  0  0  0
  178.9310  176.2720  139.4330 O   0  0  0  0  0  1  0  0  0  0  0  0
  181.4200  180.4300  137.1860 C   0  0  0  0  0  3  0  0  0  0  0  0
  182.2250  180.6250  138.4470 C   0  0  0  0  0  2  0  0  0  0  0  0
  181.4640  178.1500  141.2120 C   0  0  2  0  0  0  0  0  0  0  0  0
  181.2820  178.8990  139.8830 C   0  0  2  0  0  3  0  0  0  0  0  0
  180.2160  179.8290  137.1200 C   0  0  0  0  0  3  0  0  0  0  0  0
  181.6900  179.3440  143.4950 C   0  0  0  0  0  3  0  0  0  0  0  0
  184.0450  178.9370  142.9200 C   0  0  0  0  0  0  0  0  0  0  0  0
  183.9650  178.3560  141.7210 C   0  0  0  0  0  3  0  0  0  0  0  0
  182.9700  178.7040  143.9400 C   0  0  1  0  0  3  0  0  0  0  0  0
  182.8230  177.4420  141.3760 C   0  0  0  0  0  2  0  0  0  0  0  0
  180.2660  178.1980  139.0270 C   0  0  2  0  0  3  0  0  0  0  0  0
  182.4450  179.3450  139.1120 N   0  0  0  0  0  0  0  0  0  0  0  0
  179.4550  179.2570  138.2910 C   0  0  0  0  0  2  0  0  0  0  0  0
  183.3480  179.2350  145.1720 O   0  0  0  0  0  1  0  0  0  0  0  0
  185.0950  179.7570  143.1940 F   0  0  0  0  0  0  0  0  0  0  0  0
  181.0670  179.1000  142.3290 C   0  0  0  0  0  3  0  0  0  0  0  0
  184.8390  176.7660  136.4050 C   0  0  0  0  0  0  0  0  0  0  0  0
  184.8240  176.1740  135.1870 F   0  0  0  0  0  0  0  0  0  0  0  0
  183.4370  178.4470  138.5720 C   0  0  0  0  0  0  0  0  0  0  0  0
  185.7590  177.6950  136.6600 C   0  0  0  0  0  3  0  0  0  0  0  0
  184.8770  178.7590  138.7550 C   0  0  0  0  0  3  0  0  0  0  0  0
  183.9230  176.2530  137.4650 C   0  0  0  0  0  2  0  0  0  0  0  0
  183.0170  177.3250  137.9730 C   0  0  0  0  0  3  0  0  0  0  0  0
  185.8810  178.4390  137.9290 C   0  0  0  0  0  3  0  0  0  0  0  0
  1  3  1  6  0  0  0
  1  2  1  0  0  0  0
  4  5  1  0  0  0  0
  5 15  1  0  0  0  0
  6  2  1  1  0  0  0
  6 13  1  0  0  0  0
  6 19  1  0  0  0  0
  7 15  1  6  0  0  0
  7  6  1  0  0  0  0
  8  4  2  0  0  0  0
  8 16  1  0  0  0  0
  9 12  1  0  0  0  0
 10 18  1  0  0  0  0
 10 12  1  0  0  0  0
 11 10  2  0  0  0  0
 12 17  1  1  0  0  0
 13 11  1  0  0  0  0
 14 16  1  1  0  0  0
 14  7  1  0  0  0  0
 14  1  1  0  0  0  0
 19  9  2  0  0  0  0
 20 23  2  0  0  0  0
 20 25  1  0  0  0  0
 21 20  1  0  0  0  0
 22 24  1  0  0  0  0
 22 15  1  0  0  0  0
 23 27  1  0  0  0  0
 25 26  1  0  0  0  0
 26 22  2  0  0  0  0
 27 24  2  0  0  0  0
M  END
>  <MODEL>
2

>  <REMARK>
 VINA RESULT:      -5.1      7.272      9.572
  Name = 
  1 active torsions:
  status: ('A' for Active; 'I' for Inactive)
    1  A    between atoms: C_7  and  N_21
                            x       y       z     vdW  Elec       q    Type
                         _______ _______ _______ _____ _____    ______ ____

>  <TORSDO>
F 1

$$$$
=
 OpenBabel11062415453D

 27 30  0  0  1  0  0  0  0  0999 V2000
  180.9320  177.3300  135.7620 C   0  0  2  0  0  3  0  0  0  0  0  0
  181.9380  178.3250  136.3280 C   0  0  0  0  0  2  0  0  0  0  0  0
  179.9970  177.9970  134.9730 O   0  0  0  0  0  1  0  0  0  0  0  0
  179.2310  174.7340  139.1340 C   0  0  0  0  0  3  0  0  0  0  0  0
  180.5290  175.2100  139.7410 C   0  0  0  0  0  2  0  0  0  0  0  0
  182.3770  177.8080  137.6950 C   0  0  2  0  0  0  0  0  0  0  0  0
  181.3300  176.7300  138.0160 C   0  0  2  0  0  3  0  0  0  0  0  0
  178.9310  174.7700  137.8210 C   0  0  0  0  0  3  0  0  0  0  0  0
  184.9230  177.4400  137.9710 C   0  0  0  0  0  3  0  0  0  0  0  0
  184.3620  178.5800  140.0750 C   0  0  0  0  0  0  0  0  0  0  0  0
  183.0410  178.7480  139.9820 C   0  0  0  0  0  3  0  0  0  0  0  0
  185.2120  178.6260  138.8400 C   0  0  1  0  0  3  0  0  0  0  0  0
  182.3830  179.0120  138.6580 C   0  0  0  0  0  2  0  0  0  0  0  0
  180.2550  176.7220  136.9660 C   0  0  2  0  0  3  0  0  0  0  0  0
  180.7850  176.5970  139.3690 N   0  0  0  0  0  0  0  0  0  0  0  0
  179.8370  175.2770  136.7260 C   0  0  0  0  0  2  0  0  0  0  0  0
  186.5640  178.6280  139.1830 O   0  0  0  0  0  1  0  0  0  0  0  0
  184.9190  178.3450  141.2930 F   0  0  0  0  0  0  0  0  0  0  0  0
  183.7090  177.1040  137.4980 C   0  0  0  0  0  3  0  0  0  0  0  0
  179.6360  180.0600  141.8980 C   0  0  0  0  0  0  0  0  0  0  0  0
  180.0780  180.8590  142.8980 F   0  0  0  0  0  0  0  0  0  0  0  0
  180.0460  177.6400  140.0380 C   0  0  0  0  0  0  0  0  0  0  0  0
  179.3920  180.5970  140.7030 C   0  0  0  0  0  3  0  0  0  0  0  0
  179.2110  178.5700  139.2340 C   0  0  0  0  0  3  0  0  0  0  0  0
  179.2960  178.6410  142.2080 C   0  0  0  0  0  2  0  0  0  0  0  0
  180.0920  177.6910  141.3750 C   0  0  0  0  0  3  0  0  0  0  0  0
  178.9310  179.8480  139.5180 C   0  0  0  0  0  3  0  0  0  0  0  0
  1  3  1  6  0  0  0
  1  2  1  0  0  0  0
  1 14  1  0  0  0  0
  4  5  1  0  0  0  0
  6  2  1  6  0  0  0
  6  7  1  0  0  0  0
  6 13  1  0  0  0  0
  7 15  1  1  0  0  0
  8  4  2  0  0  0  0
  9 12  1  0  0  0  0
 10 18  1  0  0  0  0
 11 10  2  0  0  0  0
 12 17  1  1  0  0  0
 12 10  1  0  0  0  0
 13 11  1  0  0  0  0
 14 16  1  6  0  0  0
 14  7  1  0  0  0  0
 15  5  1  0  0  0  0
 15 22  1  0  0  0  0
 16  8  1  0  0  0  0
 19  6  1  0  0  0  0
 19  9  2  0  0  0  0
 20 25  1  0  0  0  0
 20 21  1  0  0  0  0
 22 26  2  0  0  0  0
 23 20  2  0  0  0  0
 24 27  2  0  0  0  0
 24 22  1  0  0  0  0
 26 25  1  0  0  0  0
 27 23  1  0  0  0  0
M  END
>  <MODEL>
3

>  <REMARK>
 VINA RESULT:      -4.9      8.014     10.343
  Name = 
  1 active torsions:
  status: ('A' for Active; 'I' for Inactive)
    1  A    between atoms: C_7  and  N_21
                            x       y       z     vdW  Elec       q    Type
                         _______ _______ _______ _____ _____    ______ ____

>  <TORSDO>
F 1

$$$$
=
 OpenBabel11062415453D

 27 30  0  0  1  0  0  0  0  0999 V2000
  179.9000  176.8290  135.8400 C   0  0  2  0  0  3  0  0  0  0  0  0
  179.3460  178.1810  136.2710 C   0  0  0  0  0  2  0  0  0  0  0  0
  178.9680  175.8280  136.1040 O   0  0  0  0  0  1  0  0  0  0  0  0
  184.0770  176.2070  137.6200 C   0  0  0  0  0  3  0  0  0  0  0  0
  183.9490  177.7100  137.6610 C   0  0  0  0  0  2  0  0  0  0  0  0
  180.5250  179.0360  136.7280 C   0  0  2  0  0  0  0  0  0  0  0  0
  181.6610  178.0130  136.8860 C   0  0  2  0  0  3  0  0  0  0  0  0
  183.3110  175.3840  136.8760 C   0  0  0  0  0  3  0  0  0  0  0  0
  180.8060  181.2860  135.4840 C   0  0  0  0  0  3  0  0  0  0  0  0
  181.1310  181.9750  137.8210 C   0  0  0  0  0  0  0  0  0  0  0  0
  181.0330  180.8250  138.4890 C   0  0  0  0  0  3  0  0  0  0  0  0
  180.3220  182.1910  136.5760 C   0  0  1  0  0  3  0  0  0  0  0  0
  180.1000  179.7390  138.0330 C   0  0  0  0  0  2  0  0  0  0  0  0
  181.1370  176.6200  136.6790 C   0  0  2  0  0  3  0  0  0  0  0  0
  182.5870  178.0950  138.0170 N   0  0  0  0  0  0  0  0  0  0  0  0
  182.2040  175.8160  135.9470 C   0  0  0  0  0  2  0  0  0  0  0  0
  180.4230  183.5170  136.1560 O   0  0  0  0  0  1  0  0  0  0  0  0
  181.9850  182.9340  138.2670 F   0  0  0  0  0  0  0  0  0  0  0  0
  180.8910  179.9460  135.5680 C   0  0  0  0  0  3  0  0  0  0  0  0
  181.1790  178.9840  142.1330 C   0  0  0  0  0  0  0  0  0  0  0  0
  180.9600  180.0000  143.0020 F   0  0  0  0  0  0  0  0  0  0  0  0
  182.1770  177.9830  139.3960 C   0  0  0  0  0  0  0  0  0  0  0  0
  180.1440  178.2520  141.7220 C   0  0  0  0  0  3  0  0  0  0  0  0
  181.1090  177.0180  139.7610 C   0  0  0  0  0  3  0  0  0  0  0  0
  182.5850  178.6280  141.7820 C   0  0  0  0  0  2  0  0  0  0  0  0
  182.8230  178.7170  140.3110 C   0  0  0  0  0  3  0  0  0  0  0  0
  180.2280  177.1340  140.7620 C   0  0  0  0  0  3  0  0  0  0  0  0
  1  3  1  1  0  0  0
  1  2  1  0  0  0  0
  1 14  1  0  0  0  0
  2  6  1  0  0  0  0
  4  5  1  0  0  0  0
  5 15  1  0  0  0  0
  6 19  1  6  0  0  0
  6  7  1  0  0  0  0
  6 13  1  0  0  0  0
  7 15  1  1  0  0  0
  8  4  2  0  0  0  0
  9 19  2  0  0  0  0
  9 12  1  0  0  0  0
 10 18  1  0  0  0  0
 10 11  2  0  0  0  0
 12 17  1  6  0  0  0
 12 10  1  0  0  0  0
 13 11  1  0  0  0  0
 14 16  1  6  0  0  0
 14  7  1  0  0  0  0
 15 22  1  0  0  0  0
 16  8  1  0  0  0  0
 20 21  1  0  0  0  0
 22 24  1  0  0  0  0
 22 26  2  0  0  0  0
 23 20  2  0  0  0  0
 24 27  2  0  0  0  0
 25 20  1  0  0  0  0
 26 25  1  0  0  0  0
 27 23  1  0  0  0  0
M  END
>  <MODEL>
4

>  <REMARK>
 VINA RESULT:      -4.8      8.129     10.952
  Name = 
  1 active torsions:
  status: ('A' for Active; 'I' for Inactive)
    1  A    between atoms: C_7  and  N_21
                            x       y       z     vdW  Elec       q    Type
                         _______ _______ _______ _____ _____    ______ ____

>  <TORSDO>
F 1

$$$$
=
 OpenBabel11062415453D

 27 30  0  0  1  0  0  0  0  0999 V2000
  183.4000  179.5550  138.3210 C   0  0  2  0  0  3  0  0  0  0  0  0
  183.3660  178.0990  138.7670 C   0  0  0  0  0  2  0  0  0  0  0  0
  184.5320  180.1840  138.8360 O   0  0  0  0  0  1  0  0  0  0  0  0
  179.3890  181.5710  139.2420 C   0  0  0  0  0  3  0  0  0  0  0  0
  178.9980  180.1140  139.2100 C   0  0  0  0  0  2  0  0  0  0  0  0
  181.9010  177.6990  138.9160 C   0  0  2  0  0  0  0  0  0  0  0  0
  181.1640  179.0470  138.9040 C   0  0  2  0  0  3  0  0  0  0  0  0
  180.5260  182.0790  138.7270 C   0  0  0  0  0  3  0  0  0  0  0  0
  181.1630  175.6660  137.4950 C   0  0  0  0  0  3  0  0  0  0  0  0
  180.1310  175.1470  139.6650 C   0  0  0  0  0  0  0  0  0  0  0  0
  180.4600  176.2020  140.4130 C   0  0  0  0  0  3  0  0  0  0  0  0
  181.0710  174.6600  138.6020 C   0  0  1  0  0  3  0  0  0  0  0  0
  181.7760  176.9040  140.2310 C   0  0  0  0  0  2  0  0  0  0  0  0
  182.1540  180.1780  138.9000 C   0  0  2  0  0  3  0  0  0  0  0  0
  180.0430  179.2930  139.8120 N   0  0  0  0  0  0  0  0  0  0  0  0
  181.6000  181.2900  138.0190 C   0  0  0  0  0  2  0  0  0  0  0  0
  180.6270  173.4430  138.0840 O   0  0  0  0  0  1  0  0  0  0  0  0
  178.9320  174.5390  139.8620 F   0  0  0  0  0  0  0  0  0  0  0  0
  181.5120  176.9560  137.6480 C   0  0  0  0  0  3  0  0  0  0  0  0
  180.0740  178.0310  144.0690 C   0  0  0  0  0  0  0  0  0  0  0  0
  179.6830  177.0370  144.9020 F   0  0  0  0  0  0  0  0  0  0  0  0
  180.1600  179.2700  141.2500 C   0  0  0  0  0  0  0  0  0  0  0  0
  181.3750  178.2800  143.9250 C   0  0  0  0  0  3  0  0  0  0  0  0
  181.4180  179.7410  141.8850 C   0  0  0  0  0  3  0  0  0  0  0  0
  179.0330  178.9080  143.4570 C   0  0  0  0  0  2  0  0  0  0  0  0
  179.0980  178.8800  141.9660 C   0  0  0  0  0  3  0  0  0  0  0  0
  181.9460  179.3110  143.0380 C   0  0  0  0  0  3  0  0  0  0  0  0
  1  2  1  0  0  0  0
  1  3  1  1  0  0  0
  1 14  1  0  0  0  0
  2  6  1  0  0  0  0
  5  4  1  0  0  0  0
  5 15  1  0  0  0  0
  6 19  1  6  0  0  0
  6 13  1  0  0  0  0
  7  6  1  0  0  0  0
  7 15  1  1  0  0  0
  8  4  2  0  0  0  0
  9 19  2  0  0  0  0
  9 12  1  0  0  0  0
 10 18  1  0  0  0  0
 10 11  2  0  0  0  0
 12 17  1  6  0  0  0
 12 10  1  0  0  0  0
 13 11  1  0  0  0  0
 14 16  1  6  0  0  0
 14  7  1  0  0  0  0
 15 22  1  0  0  0  0
 16  8  1  0  0  0  0
 20 21  1  0  0  0  0
 22 24  1  0  0  0  0
 22 26  2  0  0  0  0
 23 20  2  0  0  0  0
 24 27  2  0  0  0  0
 25 20  1  0  0  0  0
 26 25  1  0  0  0  0
 27 23  1  0  0  0  0
M  END
>  <MODEL>
5

>  <REMARK>
 VINA RESULT:      -4.8      8.539     10.967
  Name = 
  1 active torsions:
  status: ('A' for Active; 'I' for Inactive)
    1  A    between atoms: C_7  and  N_21
                            x       y       z     vdW  Elec       q    Type
                         _______ _______ _______ _____ _____    ______ ____

>  <TORSDO>
F 1

$$$$
=
 OpenBabel11062415453D

 27 30  0  0  1  0  0  0  0  0999 V2000
  179.7510  178.7050  141.8530 C   0  0  2  0  0  3  0  0  0  0  0  0
  180.2590  179.9420  141.1210 C   0  0  0  0  0  2  0  0  0  0  0  0
  180.2950  178.6550  143.1350 O   0  0  0  0  0  1  0  0  0  0  0  0
  180.3790  174.9810  139.2580 C   0  0  0  0  0  3  0  0  0  0  0  0
  180.3910  176.0790  138.2230 C   0  0  0  0  0  2  0  0  0  0  0  0
  180.3500  179.5920  139.6380 C   0  0  2  0  0  0  0  0  0  0  0  0
  180.2420  178.0600  139.6310 C   0  0  2  0  0  3  0  0  0  0  0  0
  179.9010  175.1030  140.5120 C   0  0  0  0  0  3  0  0  0  0  0  0
  178.9840  181.1190  138.0590 C   0  0  0  0  0  3  0  0  0  0  0  0
  181.1190  180.9530  136.8530 C   0  0  0  0  0  0  0  0  0  0  0  0
  181.8360  180.1340  137.6250 C   0  0  0  0  0  3  0  0  0  0  0  0
  180.1270  181.8910  137.4740 C   0  0  1  0  0  3  0  0  0  0  0  0
  181.6910  180.1500  139.1200 C   0  0  0  0  0  2  0  0  0  0  0  0
  180.2390  177.5330  141.0380 C   0  0  2  0  0  3  0  0  0  0  0  0
  181.0810  177.2570  138.7390 N   0  0  0  0  0  0  0  0  0  0  0  0
  179.2830  176.3490  141.0990 C   0  0  0  0  0  2  0  0  0  0  0  0
  179.6410  182.7840  136.5190 O   0  0  0  0  0  1  0  0  0  0  0  0
  181.2820  180.9090  135.5040 F   0  0  0  0  0  0  0  0  0  0  0  0
  179.0980  180.1410  138.9750 C   0  0  0  0  0  3  0  0  0  0  0  0
  185.3850  178.0860  138.0360 C   0  0  0  0  0  0  0  0  0  0  0  0
  186.2400  178.6940  137.1790 F   0  0  0  0  0  0  0  0  0  0  0  0
  182.5220  177.2420  138.7960 C   0  0  0  0  0  0  0  0  0  0  0  0
  185.2980  178.5330  139.2880 C   0  0  0  0  0  3  0  0  0  0  0  0
  183.1990  177.4260  140.1060 C   0  0  0  0  0  3  0  0  0  0  0  0
  184.6820  176.8470  137.5910 C   0  0  0  0  0  2  0  0  0  0  0  0
  183.1990  177.0010  137.6670 C   0  0  0  0  0  3  0  0  0  0  0  0
  184.3960  177.9860  140.3200 C   0  0  0  0  0  3  0  0  0  0  0  0
  1  3  1  1  0  0  0
  2  1  1  0  0  0  0
  4  8  2  0  0  0  0
  5 15  1  0  0  0  0
  5  4  1  0  0  0  0
  6 19  1  6  0  0  0
  6  2  1  0  0  0  0
  7 15  1  6  0  0  0
  7  6  1  0  0  0  0
  7 14  1  0  0  0  0
  8 16  1  0  0  0  0
  9 19  2  0  0  0  0
 10 12  1  0  0  0  0
 10 11  2  0  0  0  0
 11 13  1  0  0  0  0
 12 17  1  6  0  0  0
 12  9  1  0  0  0  0
 13  6  1  0  0  0  0
 14 16  1  6  0  0  0
 14  1  1  0  0  0  0
 15 22  1  0  0  0  0
 18 10  1  0  0  0  0
 20 23  2  0  0  0  0
 21 20  1  0  0  0  0
 22 24  1  0  0  0  0
 23 27  1  0  0  0  0
 24 27  2  0  0  0  0
 25 26  1  0  0  0  0
 25 20  1  0  0  0  0
 26 22  2  0  0  0  0
M  END
>  <MODEL>
6

>  <REMARK>
 VINA RESULT:      -4.7      7.851     10.632
  Name = 
  1 active torsions:
  status: ('A' for Active; 'I' for Inactive)
    1  A    between atoms: C_7  and  N_21
                            x       y       z     vdW  Elec       q    Type
                         _______ _______ _______ _____ _____    ______ ____

>  <TORSDO>
F 1

$$$$
=
 OpenBabel11062415453D

 27 30  0  0  1  0  0  0  0  0999 V2000
  185.4260  178.2390  138.9950 C   0  0  2  0  0  3  0  0  0  0  0  0
  185.2290  179.1360  140.2120 C   0  0  0  0  0  2  0  0  0  0  0  0
  185.8270  179.0040  137.9020 O   0  0  0  0  0  1  0  0  0  0  0  0
  181.7190  175.6200  138.3620 C   0  0  0  0  0  3  0  0  0  0  0  0
  181.5940  175.9770  139.8230 C   0  0  0  0  0  2  0  0  0  0  0  0
  184.1090  178.5280  141.0530 C   0  0  2  0  0  0  0  0  0  0  0  0
  183.4630  177.5130  140.0980 C   0  0  2  0  0  3  0  0  0  0  0  0
  182.8440  175.7360  137.6290 C   0  0  0  0  0  3  0  0  0  0  0  0
  184.7440  177.9710  143.4980 C   0  0  0  0  0  3  0  0  0  0  0  0
  182.5570  179.0530  143.7940 C   0  0  0  0  0  0  0  0  0  0  0  0
  182.1810  179.3170  142.5420 C   0  0  0  0  0  3  0  0  0  0  0  0
  184.0100  179.0940  144.1660 C   0  0  1  0  0  3  0  0  0  0  0  0
  183.1880  179.6850  141.4890 C   0  0  0  0  0  2  0  0  0  0  0  0
  184.0730  177.6270  138.7300 C   0  0  2  0  0  3  0  0  0  0  0  0
  182.0080  177.3580  140.0470 N   0  0  0  0  0  0  0  0  0  0  0  0
  184.1770  176.2270  138.1390 C   0  0  0  0  0  2  0  0  0  0  0  0
  184.1600  178.9870  145.5480 O   0  0  0  0  0  1  0  0  0  0  0  0
  181.6140  178.7250  144.7180 F   0  0  0  0  0  0  0  0  0  0  0  0
  184.7710  177.7430  142.1730 C   0  0  0  0  0  3  0  0  0  0  0  0
  179.4730  181.0030  140.0530 C   0  0  0  0  0  0  0  0  0  0  0  0
  178.9310  181.9380  140.8700 F   0  0  0  0  0  0  0  0  0  0  0  0
  181.1040  178.4180  139.6710 C   0  0  0  0  0  0  0  0  0  0  0  0
  180.3640  181.3820  139.1390 C   0  0  0  0  0  3  0  0  0  0  0  0
  181.3680  179.1930  138.4310 C   0  0  0  0  0  3  0  0  0  0  0  0
  178.9440  179.6080  140.1070 C   0  0  0  0  0  2  0  0  0  0  0  0
  180.0200  178.6250  140.4290 C   0  0  0  0  0  3  0  0  0  0  0  0
  181.0520  180.4740  138.2010 C   0  0  0  0  0  3  0  0  0  0  0  0
  1  3  1  6  0  0  0
  1  2  1  0  0  0  0
  4  5  1  0  0  0  0
  5 15  1  0  0  0  0
  6  2  1  6  0  0  0
  6 13  1  0  0  0  0
  6 19  1  0  0  0  0
  7 15  1  6  0  0  0
  7  6  1  0  0  0  0
  8 16  1  0  0  0  0
  8  4  2  0  0  0  0
  9 12  1  0  0  0  0
 10 12  1  0  0  0  0
 10 18  1  0  0  0  0
 11 10  2  0  0  0  0
 12 17  1  1  0  0  0
 13 11  1  0  0  0  0
 14 16  1  1  0  0  0
 14  1  1  0  0  0  0
 14  7  1  0  0  0  0
 19  9  2  0  0  0  0
 20 25  1  0  0  0  0
 20 21  1  0  0  0  0
 22 15  1  0  0  0  0
 22 26  2  0  0  0  0
 23 20  2  0  0  0  0
 24 22  1  0  0  0  0
 25 26  1  0  0  0  0
 27 24  2  0  0  0  0
 27 23  1  0  0  0  0
M  END
>  <MODEL>
7

>  <REMARK>
 VINA RESULT:      -4.7      7.727     10.232
  Name = 
  1 active torsions:
  status: ('A' for Active; 'I' for Inactive)
    1  A    between atoms: C_7  and  N_21
                            x       y       z     vdW  Elec       q    Type
                         _______ _______ _______ _____ _____    ______ ____

>  <TORSDO>
F 1

$$$$
=
 OpenBabel11062415453D

 27 30  0  0  1  0  0  0  0  0999 V2000
  188.8770  176.0460  142.6490 C   0  0  2  0  0  3  0  0  0  0  0  0
  187.7110  175.9920  143.6280 C   0  0  0  0  0  2  0  0  0  0  0  0
  189.3560  174.7600  142.4080 O   0  0  0  0  0  1  0  0  0  0  0  0
  191.9740  179.1100  144.0710 C   0  0  0  0  0  3  0  0  0  0  0  0
  190.7290  179.5830  144.7810 C   0  0  0  0  0  2  0  0  0  0  0  0
  187.7430  177.2750  144.4530 C   0  0  2  0  0  0  0  0  0  0  0  0
  189.1410  177.8440  144.1640 C   0  0  2  0  0  3  0  0  0  0  0  0
  191.9930  178.2710  143.0160 C   0  0  0  0  0  3  0  0  0  0  0  0
  185.5860  178.7000  144.3630 C   0  0  0  0  0  3  0  0  0  0  0  0
  186.0930  178.7320  146.7680 C   0  0  0  0  0  0  0  0  0  0  0  0
  187.2300  178.0360  146.8430 C   0  0  0  0  0  3  0  0  0  0  0  0
  185.0670  178.3800  145.7320 C   0  0  1  0  0  3  0  0  0  0  0  0
  187.4950  176.8790  145.9220 C   0  0  0  0  0  2  0  0  0  0  0  0
  189.9350  176.8720  143.3370 C   0  0  2  0  0  3  0  0  0  0  0  0
  189.9390  178.4430  145.2350 N   0  0  0  0  0  0  0  0  0  0  0  0
  190.7800  177.6690  142.3510 C   0  0  0  0  0  2  0  0  0  0  0  0
  183.8880  179.0910  145.9570 O   0  0  0  0  0  1  0  0  0  0  0  0
  185.8900  179.7710  147.6210 F   0  0  0  0  0  0  0  0  0  0  0  0
  186.7290  178.2250  143.8370 C   0  0  0  0  0  3  0  0  0  0  0  0
  192.3980  176.3340  148.2710 C   0  0  0  0  0  0  0  0  0  0  0  0
  193.6180  175.7820  148.4760 F   0  0  0  0  0  0  0  0  0  0  0  0
  190.3780  177.7210  146.4050 C   0  0  0  0  0  0  0  0  0  0  0  0
  192.0310  177.3820  149.0060 C   0  0  0  0  0  3  0  0  0  0  0  0
  190.0330  178.2400  147.7530 C   0  0  0  0  0  3  0  0  0  0  0  0
  191.4520  175.6580  147.3350 C   0  0  0  0  0  2  0  0  0  0  0  0
  191.0340  176.5670  146.2270 C   0  0  0  0  0  3  0  0  0  0  0  0
  190.7470  178.0980  148.8760 C   0  0  0  0  0  3  0  0  0  0  0  0
  1  3  1  1  0  0  0
  1 14  1  0  0  0  0
  1  2  1  0  0  0  0
  4  5  1  0  0  0  0
  5 15  1  0  0  0  0
  6  2  1  6  0  0  0
  6 13  1  0  0  0  0
  7  6  1  0  0  0  0
  7 15  1  1  0  0  0
  8  4  2  0  0  0  0
  9 12  1  0  0  0  0
 10 11  2  0  0  0  0
 10 18  1  0  0  0  0
 12 17  1  1  0  0  0
 12 10  1  0  0  0  0
 13 11  1  0  0  0  0
 14 16  1  6  0  0  0
 14  7  1  0  0  0  0
 15 22  1  0  0  0  0
 16  8  1  0  0  0  0
 19  9  2  0  0  0  0
 19  6  1  0  0  0  0
 20 21  1  0  0  0  0
 20 23  2  0  0  0  0
 22 24  1  0  0  0  0
 24 27  2  0  0  0  0
 25 20  1  0  0  0  0
 26 22  2  0  0  0  0
 26 25  1  0  0  0  0
 27 23  1  0  0  0  0
M  END
>  <MODEL>
8

>  <REMARK>
 VINA RESULT:      -4.6      7.866     10.934
  Name = 
  1 active torsions:
  status: ('A' for Active; 'I' for Inactive)
    1  A    between atoms: C_7  and  N_21
                            x       y       z     vdW  Elec       q    Type
                         _______ _______ _______ _____ _____    ______ ____

>  <TORSDO>
F 1

$$$$
=
 OpenBabel11062415453D

 27 30  0  0  1  0  0  0  0  0999 V2000
  180.3030  179.2210  135.6970 C   0  0  2  0  0  3  0  0  0  0  0  0
  180.8550  177.8350  136.0090 C   0  0  0  0  0  2  0  0  0  0  0  0
  181.2090  179.9270  134.9100 O   0  0  0  0  0  1  0  0  0  0  0  0
  178.9680  181.2830  139.5660 C   0  0  0  0  0  3  0  0  0  0  0  0
  178.9340  179.8290  139.9680 C   0  0  0  0  0  2  0  0  0  0  0  0
  180.3420  177.4370  137.3910 C   0  0  2  0  0  0  0  0  0  0  0  0
  179.8190  178.7620  137.9670 C   0  0  2  0  0  3  0  0  0  0  0  0
  178.9930  181.7350  138.2970 C   0  0  0  0  0  3  0  0  0  0  0  0
  179.0020  175.2260  137.4760 C   0  0  0  0  0  3  0  0  0  0  0  0
  180.4740  174.9820  139.4290 C   0  0  0  0  0  0  0  0  0  0  0  0
  181.1540  176.1300  139.4380 C   0  0  0  0  0  3  0  0  0  0  0  0
  180.0490  174.3720  138.1260 C   0  0  1  0  0  3  0  0  0  0  0  0
  181.5290  176.8200  138.1570 C   0  0  0  0  0  2  0  0  0  0  0  0
  180.1440  179.8960  137.0370 C   0  0  2  0  0  3  0  0  0  0  0  0
  180.0540  179.1100  139.3700 N   0  0  0  0  0  0  0  0  0  0  0  0
  178.9780  180.8750  137.0570 C   0  0  0  0  0  2  0  0  0  0  0  0
  179.5360  173.0920  138.3340 O   0  0  0  0  0  1  0  0  0  0  0  0
  180.1550  174.3870  140.6090 F   0  0  0  0  0  0  0  0  0  0  0  0
  179.1430  176.5290  137.1760 C   0  0  0  0  0  3  0  0  0  0  0  0
  183.9640  178.4050  141.3510 C   0  0  0  0  0  0  0  0  0  0  0  0
  184.6500  177.5030  142.0930 F   0  0  0  0  0  0  0  0  0  0  0  0
  181.3680  179.2770  139.9430 C   0  0  0  0  0  0  0  0  0  0  0  0
  184.4100  178.7120  140.1340 C   0  0  0  0  0  3  0  0  0  0  0  0
  182.4420  179.9010  139.1280 C   0  0  0  0  0  3  0  0  0  0  0  0
  182.8210  179.1310  141.9780 C   0  0  0  0  0  2  0  0  0  0  0  0
  181.5530  178.9170  141.2190 C   0  0  0  0  0  3  0  0  0  0  0  0
  183.7560  179.6550  139.2060 C   0  0  0  0  0  3  0  0  0  0  0  0
  1  3  1  6  0  0  0
  1  2  1  0  0  0  0
  1 14  1  0  0  0  0
  4  5  1  0  0  0  0
  6  2  1  6  0  0  0
  6  7  1  0  0  0  0
  6 13  1  0  0  0  0
  7 15  1  1  0  0  0
  8  4  2  0  0  0  0
  9 12  1  0  0  0  0
 10 11  2  0  0  0  0
 10 18  1  0  0  0  0
 12 17  1  1  0  0  0
 12 10  1  0  0  0  0
 13 11  1  0  0  0  0
 14 16  1  6  0  0  0
 14  7  1  0  0  0  0
 15 22  1  0  0  0  0
 15  5  1  0  0  0  0
 16  8  1  0  0  0  0
 19  6  1  0  0  0  0
 19  9  2  0  0  0  0
 20 25  1  0  0  0  0
 20 21  1  0  0  0  0
 22 26  2  0  0  0  0
 23 20  2  0  0  0  0
 24 27  2  0  0  0  0
 24 22  1  0  0  0  0
 26 25  1  0  0  0  0
 27 23  1  0  0  0  0
M  END
>  <MODEL>
9

>  <REMARK>
 VINA RESULT:      -4.6      8.496     10.915
  Name = 
  1 active torsions:
  status: ('A' for Active; 'I' for Inactive)
    1  A    between atoms: C_7  and  N_21
                            x       y       z     vdW  Elec       q    Type
                         _______ _______ _______ _____ _____    ______ ____

>  <TORSDO>
F 1

$$$$
