=
 OpenBabel11062416083D

 43 52  0  0  1  0  0  0  0  0999 V2000
  187.7670  176.2930  142.7180 C   0  0  0  0  0  2  0  0  0  0  0  0
  186.1580  178.0770  142.9550 C   0  0  1  0  0  3  0  0  0  0  0  0
  189.0850  178.1010  143.6830 C   0  0  2  0  0  0  0  0  0  0  0  0
  188.3910  177.6470  142.4270 C   0  0  2  0  0  0  0  0  0  0  0  0
  187.5670  178.3330  143.4870 C   0  0  2  0  0  0  0  0  0  0  0  0
  186.8490  176.9840  143.7020 C   0  0  2  0  0  3  0  0  0  0  0  0
  189.8520  177.8870  142.4270 N   0  0  0  0  0  0  0  0  0  0  0  0
  187.7480  178.1120  146.4600 C   0  0  0  0  0  3  0  0  0  0  0  0
  191.0150  177.0790  144.9440 C   0  0  0  0  0  3  0  0  0  0  0  0
  191.0760  177.0840  147.3520 N   0  0  0  0  0  0  0  0  0  0  0  0
  188.9830  177.6320  146.2680 C   0  0  0  0  0  0  0  0  0  0  0  0
  187.2510  178.5390  147.8150 C   0  0  0  0  0  2  0  0  0  0  0  0
  189.8160  177.3720  147.4700 C   0  0  0  0  0  0  0  0  0  0  0  0
  189.5000  177.1820  144.8940 C   0  0  1  0  0  3  0  0  0  0  0  0
  187.7780  177.6010  148.8980 C   0  0  0  0  0  2  0  0  0  0  0  0
  189.2250  177.4680  148.7700 N   0  0  0  0  0  2  0  0  0  0  0  0
  191.7170  176.9970  146.0750 C   0  0  0  0  0  3  0  0  0  0  0  0
  191.9680  176.8790  142.3610 O   0  0  0  0  0  1  0  0  0  0  0  0
  190.1570  175.6020  142.8250 O   0  0  0  0  0  1  0  0  0  0  0  0
  190.6220  176.6630  142.0440 C   0  0  0  0  0  0  0  0  0  0  0  0
  190.5060  176.2920  140.6290 N   0  0  0  0  0  2  0  0  0  0  0  0
  190.6440  177.4640  139.7720 C   0  0  0  0  0  2  0  0  0  0  0  0
  189.7530  177.3230  138.5850 C   0  0  0  0  0  0  0  0  0  0  0  0
  190.0140  176.3490  137.7180 C   0  0  0  0  0  2  0  0  0  0  0  0
  188.9780  179.4100  137.6500 N   0  0  0  0  0  2  0  0  0  0  0  0
  188.6980  178.3320  138.3090 C   0  0  0  0  0  0  0  0  0  0  0  0
  187.2720  178.0620  138.6710 C   0  0  0  0  0  2  0  0  0  0  0  0
  186.3780  178.2400  137.4550 C   0  0  0  0  0  3  0  0  0  0  0  0
  186.4180  176.9740  136.6220 C   0  0  0  0  0  2  0  0  0  0  0  0
  185.2340  177.2440  137.5290 C   0  0  0  0  0  2  0  0  0  0  0  0
  185.1560  178.7850  143.8560 C   0  0  0  0  0  2  0  0  0  0  0  0
  183.9430  178.3300  141.9120 C   0  0  0  0  0  2  0  0  0  0  0  0
  182.6720  177.7850  139.9760 O   0  0  0  0  0  1  0  0  0  0  0  0
  181.5460  179.2100  143.1160 C   0  0  0  0  0  2  0  0  0  0  0  0
  182.8060  178.8870  143.9120 C   0  0  0  0  0  2  0  0  0  0  0  0
  183.9810  179.1840  143.0970 N   0  0  0  0  0  0  0  0  0  0  0  0
  182.6790  178.6160  141.0980 C   0  0  1  0  0  3  0  0  0  0  0  0
  181.4840  178.3690  141.9150 N   0  0  0  0  0  0  0  0  0  0  0  0
  180.3280  178.8210  141.1440 C   0  0  0  0  0  2  0  0  0  0  0  0
  180.4660  180.2890  140.7640 C   0  0  2  0  0  0  0  0  0  0  0  0
  180.2500  180.5100  139.2860 C   0  0  0  0  0  2  0  0  0  0  0  0
  179.6250  181.1170  141.5280 O   0  0  0  0  0  0  0  0  0  0  0  0
  179.1280  180.7280  140.2750 C   0  0  2  0  0  3  0  0  0  0  0  0
  1  6  1  0  0  0  0
  2  5  1  0  0  0  0
  2  6  1  0  0  0  0
  2 31  1  1  0  0  0
  3  7  1  6  0  0  0
  3 14  1  0  0  0  0
  4  1  1  1  0  0  0
  4  5  1  0  0  0  0
  4  3  1  0  0  0  0
  5  3  1  0  0  0  0
  5  6  1  0  0  0  0
  7  4  1  0  0  0  0
  8 12  1  0  0  0  0
  9 17  2  0  0  0  0
 10 13  2  0  0  0  0
 11  8  2  0  0  0  0
 11 13  1  0  0  0  0
 12 15  1  0  0  0  0
 13 16  1  0  0  0  0
 14  9  1  0  0  0  0
 14 11  1  0  0  0  0
 16 15  1  0  0  0  0
 17 10  1  0  0  0  0
 20 18  1  0  0  0  0
 20  7  1  0  0  0  0
 20 19  1  0  0  0  0
 21 20  1  0  0  0  0
 22 21  1  0  0  0  0
 23 22  1  0  0  0  0
 24 23  2  0  0  0  0
 25 26  2  0  0  0  0
 26 23  1  0  0  0  0
 26 27  1  0  0  0  0
 28 30  1  0  0  0  0
 28 27  1  0  0  0  0
 29 28  1  0  0  0  0
 29 30  1  0  0  0  0
 32 36  1  0  0  0  0
 33 37  1  0  0  0  0
 34 35  1  0  0  0  0
 36 31  1  0  0  0  0
 36 35  1  0  0  0  0
 37 32  1  0  0  0  0
 37 38  1  0  0  0  0
 38 34  1  0  0  0  0
 39 38  1  0  0  0  0
 40 39  1  0  0  0  0
 40 42  1  0  0  0  0
 41 43  1  0  0  0  0
 41 40  1  0  0  0  0
 43 40  1  0  0  0  0
 43 42  1  0  0  0  0
M  END
>  <MODEL>
1

>  <REMARK>
 VINA RESULT:      -8.2      0.000      0.000
  Name = 
  12 active torsions:
  status: ('A' for Active; 'I' for Inactive)
    1  A    between atoms: C_1  and  C_12
    2  A    between atoms: C_1  and  N_35
    3  A    between atoms: C_4  and  C_30
    4  A    between atoms: C_5  and  C_25
    5  A    between atoms: C_5  and  C_43
    6  A    between atoms: C_10  and  C_13
    7  A    between atoms: C_10  and  N_39
    8  A    between atoms: N_16  and  C_24
    9  A    between atoms: N_16  and  C_43
   10  A    between atoms: C_24  and  N_41
   11  A    between atoms: C_25  and  C_30
   12  A    between atoms: C_26  and  C_28
                            x       y       z     vdW  Elec       q    Type
                         _______ _______ _______ _____ _____    ______ ____

>  <TORSDO>
F 12

$$$$
=
 OpenBabel11062416083D

 43 52  0  0  1  0  0  0  0  0999 V2000
  186.8800  177.0480  143.7090 C   0  0  0  0  0  2  0  0  0  0  0  0
  187.9900  178.2060  141.9040 C   0  0  1  0  0  3  0  0  0  0  0  0
  185.6560  179.1500  143.5640 C   0  0  2  0  0  0  0  0  0  0  0  0
  186.9690  178.5410  143.9760 C   0  0  2  0  0  0  0  0  0  0  0  0
  186.7690  178.8850  142.5220 C   0  0  2  0  0  0  0  0  0  0  0  0
  186.7970  177.3690  142.2320 C   0  0  2  0  0  3  0  0  0  0  0  0
  186.1260  179.2400  144.9720 N   0  0  0  0  0  0  0  0  0  0  0  0
  184.3830  178.5140  140.8300 C   0  0  0  0  0  3  0  0  0  0  0  0
  183.3010  178.8190  144.4040 C   0  0  0  0  0  3  0  0  0  0  0  0
  181.4380  178.7030  142.8830 N   0  0  0  0  0  0  0  0  0  0  0  0
  183.6670  178.5230  141.9620 C   0  0  0  0  0  0  0  0  0  0  0  0
  183.7470  178.6510  139.4730 C   0  0  0  0  0  2  0  0  0  0  0  0
  182.1870  178.5100  141.8410 C   0  0  0  0  0  0  0  0  0  0  0  0
  184.3020  178.3720  143.3520 C   0  0  1  0  0  3  0  0  0  0  0  0
  182.4160  177.9040  139.4280 C   0  0  0  0  0  2  0  0  0  0  0  0
  181.5870  178.3090  140.5580 N   0  0  0  0  0  2  0  0  0  0  0  0
  181.9900  178.9290  144.1840 C   0  0  0  0  0  3  0  0  0  0  0  0
  184.4780  178.7500  146.5670 O   0  0  0  0  0  1  0  0  0  0  0  0
  185.6220  177.0470  145.6070 O   0  0  0  0  0  1  0  0  0  0  0  0
  185.7380  178.3470  146.1060 C   0  0  0  0  0  0  0  0  0  0  0  0
  186.6880  178.3400  147.2250 N   0  0  0  0  0  2  0  0  0  0  0  0
  187.5600  177.1740  147.1590 C   0  0  0  0  0  2  0  0  0  0  0  0
  188.9150  177.5330  147.6650 C   0  0  0  0  0  0  0  0  0  0  0  0
  188.9970  178.3370  148.7220 C   0  0  0  0  0  2  0  0  0  0  0  0
  191.1630  176.6570  147.5520 N   0  0  0  0  0  2  0  0  0  0  0  0
  190.1330  177.1210  146.9200 C   0  0  0  0  0  0  0  0  0  0  0  0
  190.1440  177.1110  145.4240 C   0  0  0  0  0  2  0  0  0  0  0  0
  191.4340  177.7240  144.9040 C   0  0  0  0  0  3  0  0  0  0  0  0
  191.5260  177.4900  143.4100 C   0  0  0  0  0  2  0  0  0  0  0  0
  191.0970  178.8450  143.9370 C   0  0  0  0  0  2  0  0  0  0  0  0
  188.0260  178.5180  140.4140 C   0  0  0  0  0  2  0  0  0  0  0  0
  188.7420  177.8730  138.2860 C   0  0  0  0  0  2  0  0  0  0  0  0
  189.5390  177.2890  136.1210 O   0  0  0  0  0  1  0  0  0  0  0  0
  191.0270  176.6120  139.3590 C   0  0  0  0  0  2  0  0  0  0  0  0
  190.1750  177.5980  140.1500 C   0  0  0  0  0  2  0  0  0  0  0  0
  188.7890  177.5070  139.6990 N   0  0  0  0  0  0  0  0  0  0  0  0
  189.6030  176.9120  137.4650 C   0  0  1  0  0  3  0  0  0  0  0  0
  190.9950  176.9530  137.9330 N   0  0  0  0  0  0  0  0  0  0  0  0
  191.7220  175.8980  137.2310 C   0  0  0  0  0  2  0  0  0  0  0  0
  193.1590  175.8060  137.7240 C   0  0  2  0  0  0  0  0  0  0  0  0
  193.6920  174.3960  137.6460 C   0  0  0  0  0  2  0  0  0  0  0  0
  194.0090  176.7050  137.0560 O   0  0  0  0  0  0  0  0  0  0  0  0
  193.9840  175.3960  136.5520 C   0  0  2  0  0  3  0  0  0  0  0  0
  2 31  1  6  0  0  0
  2  6  1  0  0  0  0
  2  5  1  0  0  0  0
  3  4  1  0  0  0  0
  3  7  1  1  0  0  0
  4  1  1  1  0  0  0
  4  7  1  0  0  0  0
  5  3  1  0  0  0  0
  5  4  1  0  0  0  0
  6  5  1  0  0  0  0
  6  1  1  0  0  0  0
  7 20  1  0  0  0  0
  8 11  2  0  0  0  0
 10 17  1  0  0  0  0
 11 14  1  0  0  0  0
 12  8  1  0  0  0  0
 13 11  1  0  0  0  0
 13 10  2  0  0  0  0
 14  3  1  0  0  0  0
 14  9  1  0  0  0  0
 15 12  1  0  0  0  0
 15 16  1  0  0  0  0
 16 13  1  0  0  0  0
 17  9  2  0  0  0  0
 19 20  1  0  0  0  0
 20 18  1  0  0  0  0
 20 21  1  0  0  0  0
 22 21  1  0  0  0  0
 22 23  1  0  0  0  0
 23 24  2  0  0  0  0
 26 25  2  0  0  0  0
 26 23  1  0  0  0  0
 27 26  1  0  0  0  0
 28 27  1  0  0  0  0
 29 30  1  0  0  0  0
 29 28  1  0  0  0  0
 30 28  1  0  0  0  0
 32 36  1  0  0  0  0
 33 37  1  0  0  0  0
 34 35  1  0  0  0  0
 36 35  1  0  0  0  0
 36 31  1  0  0  0  0
 37 38  1  0  0  0  0
 37 32  1  0  0  0  0
 38 34  1  0  0  0  0
 39 40  1  0  0  0  0
 39 38  1  0  0  0  0
 41 40  1  0  0  0  0
 42 40  1  0  0  0  0
 43 42  1  0  0  0  0
 43 41  1  0  0  0  0
 43 40  1  0  0  0  0
M  END
>  <MODEL>
2

>  <REMARK>
 VINA RESULT:      -8.0      2.594      8.913
  Name = 
  12 active torsions:
  status: ('A' for Active; 'I' for Inactive)
    1  A    between atoms: C_1  and  C_12
    2  A    between atoms: C_1  and  N_35
    3  A    between atoms: C_4  and  C_30
    4  A    between atoms: C_5  and  C_25
    5  A    between atoms: C_5  and  C_43
    6  A    between atoms: C_10  and  C_13
    7  A    between atoms: C_10  and  N_39
    8  A    between atoms: N_16  and  C_24
    9  A    between atoms: N_16  and  C_43
   10  A    between atoms: C_24  and  N_41
   11  A    between atoms: C_25  and  C_30
   12  A    between atoms: C_26  and  C_28
                            x       y       z     vdW  Elec       q    Type
                         _______ _______ _______ _____ _____    ______ ____

>  <TORSDO>
F 12

$$$$
=
 OpenBabel11062416083D

 43 52  0  0  1  0  0  0  0  0999 V2000
  187.5160  179.3510  141.8990 C   0  0  0  0  0  2  0  0  0  0  0  0
  189.0950  177.5550  141.5670 C   0  0  1  0  0  3  0  0  0  0  0  0
  186.5420  177.5170  143.1740 C   0  0  2  0  0  0  0  0  0  0  0  0
  186.8140  178.0090  141.7770 C   0  0  2  0  0  0  0  0  0  0  0  0
  187.9190  177.2870  142.5050 C   0  0  2  0  0  0  0  0  0  0  0  0
  188.6870  178.6250  142.5250 C   0  0  2  0  0  3  0  0  0  0  0  0
  185.4240  177.7750  142.2280 N   0  0  0  0  0  0  0  0  0  0  0  0
  188.6550  177.3780  145.4140 C   0  0  0  0  0  3  0  0  0  0  0  0
  185.1140  178.5280  144.9890 C   0  0  0  0  0  3  0  0  0  0  0  0
  185.7820  178.4340  147.3010 N   0  0  0  0  0  0  0  0  0  0  0  0
  187.4330  177.8880  145.6190 C   0  0  0  0  0  0  0  0  0  0  0  0
  189.5250  176.8920  146.5410 C   0  0  0  0  0  2  0  0  0  0  0  0
  187.0100  178.1180  147.0240 C   0  0  0  0  0  0  0  0  0  0  0  0
  186.5390  178.3980  144.4800 C   0  0  1  0  0  3  0  0  0  0  0  0
  189.3760  177.7990  147.7610 C   0  0  0  0  0  2  0  0  0  0  0  0
  187.9620  177.9630  148.0810 N   0  0  0  0  0  2  0  0  0  0  0  0
  184.7880  178.5800  146.2820 C   0  0  0  0  0  3  0  0  0  0  0  0
  185.2740  180.0460  142.7930 O   0  0  0  0  0  1  0  0  0  0  0  0
  184.4690  179.3550  140.7930 O   0  0  0  0  0  1  0  0  0  0  0  0
  184.5890  179.0130  142.1410 C   0  0  0  0  0  0  0  0  0  0  0  0
  183.2450  178.8790  142.7160 N   0  0  0  0  0  2  0  0  0  0  0  0
  182.2480  178.6990  141.6690 C   0  0  0  0  0  2  0  0  0  0  0  0
  180.9260  179.1950  142.1460 C   0  0  0  0  0  0  0  0  0  0  0  0
  180.4530  178.7160  143.2930 C   0  0  0  0  0  2  0  0  0  0  0  0
  179.5090  181.1200  141.7980 N   0  0  0  0  0  2  0  0  0  0  0  0
  180.1010  180.0870  141.2900 C   0  0  0  0  0  0  0  0  0  0  0  0
  180.0470  179.8850  139.8090 C   0  0  0  0  0  2  0  0  0  0  0  0
  180.6260  181.0930  139.0920 C   0  0  0  0  0  3  0  0  0  0  0  0
  182.0020  180.7420  138.5630 C   0  0  0  0  0  2  0  0  0  0  0  0
  180.8130  180.7570  137.6230 C   0  0  0  0  0  2  0  0  0  0  0  0
  190.3190  176.8150  142.0880 C   0  0  0  0  0  2  0  0  0  0  0  0
  190.3240  176.3990  139.7890 C   0  0  0  0  0  2  0  0  0  0  0  0
  190.3300  176.0750  137.4310 O   0  0  0  0  0  1  0  0  0  0  0  0
  193.0700  177.0250  139.6090 C   0  0  0  0  0  2  0  0  0  0  0  0
  192.2120  177.3910  140.8160 C   0  0  0  0  0  2  0  0  0  0  0  0
  191.1640  176.3880  140.9830 N   0  0  0  0  0  0  0  0  0  0  0  0
  191.1600  176.0530  138.5550 C   0  0  1  0  0  3  0  0  0  0  0  0
  192.2500  177.0240  138.3930 N   0  0  0  0  0  0  0  0  0  0  0  0
  193.1040  176.5440  137.3090 C   0  0  0  0  0  2  0  0  0  0  0  0
  193.6790  175.1720  137.6350 C   0  0  2  0  0  0  0  0  0  0  0  0
  193.3630  174.1590  136.5620 C   0  0  0  0  0  2  0  0  0  0  0  0
  195.0610  175.2230  137.8920 O   0  0  0  0  0  0  0  0  0  0  0  0
  194.6930  174.8770  136.5830 C   0  0  2  0  0  3  0  0  0  0  0  0
  1  6  1  0  0  0  0
  2 31  1  1  0  0  0
  2  5  1  0  0  0  0
  2  6  1  0  0  0  0
  3  7  1  1  0  0  0
  3 14  1  0  0  0  0
  4  1  1  1  0  0  0
  4  7  1  0  0  0  0
  4  5  1  0  0  0  0
  4  3  1  0  0  0  0
  5  6  1  0  0  0  0
  5  3  1  0  0  0  0
  8 11  2  0  0  0  0
  8 12  1  0  0  0  0
  9 17  2  0  0  0  0
 11 13  1  0  0  0  0
 12 15  1  0  0  0  0
 13 10  2  0  0  0  0
 13 16  1  0  0  0  0
 14  9  1  0  0  0  0
 14 11  1  0  0  0  0
 15 16  1  0  0  0  0
 17 10  1  0  0  0  0
 19 20  1  0  0  0  0
 20  7  1  0  0  0  0
 20 21  1  0  0  0  0
 20 18  1  0  0  0  0
 22 23  1  0  0  0  0
 22 21  1  0  0  0  0
 23 24  2  0  0  0  0
 26 25  2  0  0  0  0
 26 23  1  0  0  0  0
 27 26  1  0  0  0  0
 28 27  1  0  0  0  0
 29 28  1  0  0  0  0
 30 29  1  0  0  0  0
 30 28  1  0  0  0  0
 32 36  1  0  0  0  0
 33 37  1  0  0  0  0
 34 35  1  0  0  0  0
 35 36  1  0  0  0  0
 36 31  1  0  0  0  0
 37 32  1  0  0  0  0
 38 37  1  0  0  0  0
 38 34  1  0  0  0  0
 39 40  1  0  0  0  0
 39 38  1  0  0  0  0
 40 42  1  0  0  0  0
 41 43  1  0  0  0  0
 41 40  1  0  0  0  0
 43 40  1  0  0  0  0
 43 42  1  0  0  0  0
M  END
>  <MODEL>
3

>  <REMARK>
 VINA RESULT:      -7.4      2.459      8.300
  Name = 
  12 active torsions:
  status: ('A' for Active; 'I' for Inactive)
    1  A    between atoms: C_1  and  C_12
    2  A    between atoms: C_1  and  N_35
    3  A    between atoms: C_4  and  C_30
    4  A    between atoms: C_5  and  C_25
    5  A    between atoms: C_5  and  C_43
    6  A    between atoms: C_10  and  C_13
    7  A    between atoms: C_10  and  N_39
    8  A    between atoms: N_16  and  C_24
    9  A    between atoms: N_16  and  C_43
   10  A    between atoms: C_24  and  N_41
   11  A    between atoms: C_25  and  C_30
   12  A    between atoms: C_26  and  C_28
                            x       y       z     vdW  Elec       q    Type
                         _______ _______ _______ _____ _____    ______ ____

>  <TORSDO>
F 12

$$$$
=
 OpenBabel11062416083D

 43 52  0  0  1  0  0  0  0  0999 V2000
  187.3760  179.3660  142.0280 C   0  0  0  0  0  2  0  0  0  0  0  0
  189.0390  177.6600  141.6350 C   0  0  1  0  0  3  0  0  0  0  0  0
  186.5890  177.5010  143.3860 C   0  0  2  0  0  0  0  0  0  0  0  0
  186.7510  177.9820  141.9690 C   0  0  2  0  0  0  0  0  0  0  0  0
  187.9370  177.3400  142.6430 C   0  0  2  0  0  0  0  0  0  0  0  0
  188.6220  178.7220  142.5980 C   0  0  2  0  0  3  0  0  0  0  0  0
  185.4050  177.6740  142.5020 N   0  0  0  0  0  0  0  0  0  0  0  0
  188.7230  177.3850  145.6060 C   0  0  0  0  0  3  0  0  0  0  0  0
  185.1870  178.5560  145.1980 C   0  0  0  0  0  3  0  0  0  0  0  0
  185.8790  178.4980  147.5040 N   0  0  0  0  0  0  0  0  0  0  0  0
  187.5080  177.9090  145.8150 C   0  0  0  0  0  0  0  0  0  0  0  0
  189.6010  176.9130  146.7330 C   0  0  0  0  0  2  0  0  0  0  0  0
  187.1010  178.1670  147.2200 C   0  0  0  0  0  0  0  0  0  0  0  0
  186.6060  178.4050  144.6760 C   0  0  1  0  0  3  0  0  0  0  0  0
  189.4720  177.8420  147.9380 C   0  0  0  0  0  2  0  0  0  0  0  0
  188.0630  178.0240  148.2690 N   0  0  0  0  0  2  0  0  0  0  0  0
  184.8750  178.6340  146.4930 C   0  0  0  0  0  3  0  0  0  0  0  0
  183.3030  178.5230  143.0990 O   0  0  0  0  0  1  0  0  0  0  0  0
  185.1000  179.9000  143.1510 O   0  0  0  0  0  1  0  0  0  0  0  0
  184.4940  178.8580  142.4440 C   0  0  0  0  0  0  0  0  0  0  0  0
  184.1900  179.3240  141.0850 N   0  0  0  0  0  2  0  0  0  0  0  0
  183.4010  178.3350  140.3610 C   0  0  0  0  0  2  0  0  0  0  0  0
  183.2300  178.7700  138.9460 C   0  0  0  0  0  0  0  0  0  0  0  0
  182.7170  179.9750  138.7180 C   0  0  0  0  0  2  0  0  0  0  0  0
  182.5420  177.4990  137.0100 N   0  0  0  0  0  2  0  0  0  0  0  0
  183.4900  177.8240  137.8300 C   0  0  0  0  0  0  0  0  0  0  0  0
  184.8770  177.3340  137.5540 C   0  0  0  0  0  2  0  0  0  0  0  0
  185.8810  178.4580  137.7460 C   0  0  0  0  0  3  0  0  0  0  0  0
  187.1780  177.8790  138.2740 C   0  0  0  0  0  2  0  0  0  0  0  0
  187.0540  178.2430  136.8070 C   0  0  0  0  0  2  0  0  0  0  0  0
  190.3330  177.0040  142.0960 C   0  0  0  0  0  2  0  0  0  0  0  0
  190.1330  176.3840  139.8530 C   0  0  0  0  0  2  0  0  0  0  0  0
  189.9240  175.8500  137.5430 O   0  0  0  0  0  1  0  0  0  0  0  0
  192.8300  177.0480  139.3530 C   0  0  0  0  0  2  0  0  0  0  0  0
  192.0800  177.5030  140.6010 C   0  0  0  0  0  2  0  0  0  0  0  0
  191.0820  176.4970  140.9560 N   0  0  0  0  0  0  0  0  0  0  0  0
  190.8570  175.9470  138.5780 C   0  0  1  0  0  3  0  0  0  0  0  0
  191.8990  176.9210  138.2270 N   0  0  0  0  0  0  0  0  0  0  0  0
  192.6590  176.3630  137.1120 C   0  0  0  0  0  2  0  0  0  0  0  0
  193.6580  175.3220  137.6000 C   0  0  2  0  0  0  0  0  0  0  0  0
  193.2770  173.9290  137.1630 C   0  0  0  0  0  2  0  0  0  0  0  0
  194.9760  175.6310  137.2170 O   0  0  0  0  0  0  0  0  0  0  0  0
  194.2880  174.7360  136.3820 C   0  0  2  0  0  3  0  0  0  0  0  0
  1  6  1  0  0  0  0
  2 31  1  1  0  0  0
  2  6  1  0  0  0  0
  2  5  1  0  0  0  0
  3  7  1  1  0  0  0
  3 14  1  0  0  0  0
  4  1  1  1  0  0  0
  4  7  1  0  0  0  0
  4  5  1  0  0  0  0
  4  3  1  0  0  0  0
  5  3  1  0  0  0  0
  6  5  1  0  0  0  0
  8 11  2  0  0  0  0
  8 12  1  0  0  0  0
  9 17  2  0  0  0  0
 11 13  1  0  0  0  0
 12 15  1  0  0  0  0
 13 10  2  0  0  0  0
 13 16  1  0  0  0  0
 14  9  1  0  0  0  0
 14 11  1  0  0  0  0
 15 16  1  0  0  0  0
 17 10  1  0  0  0  0
 20  7  1  0  0  0  0
 20 18  1  0  0  0  0
 20 19  1  0  0  0  0
 21 20  1  0  0  0  0
 22 21  1  0  0  0  0
 23 22  1  0  0  0  0
 24 23  2  0  0  0  0
 25 26  2  0  0  0  0
 26 23  1  0  0  0  0
 27 28  1  0  0  0  0
 27 26  1  0  0  0  0
 28 29  1  0  0  0  0
 30 28  1  0  0  0  0
 30 29  1  0  0  0  0
 32 36  1  0  0  0  0
 33 37  1  0  0  0  0
 34 35  1  0  0  0  0
 35 36  1  0  0  0  0
 36 31  1  0  0  0  0
 37 32  1  0  0  0  0
 38 37  1  0  0  0  0
 38 34  1  0  0  0  0
 39 40  1  0  0  0  0
 39 38  1  0  0  0  0
 41 40  1  0  0  0  0
 42 40  1  0  0  0  0
 43 41  1  0  0  0  0
 43 42  1  0  0  0  0
 43 40  1  0  0  0  0
M  END
>  <MODEL>
4

>  <REMARK>
 VINA RESULT:      -7.3      2.497      7.626
  Name = 
  12 active torsions:
  status: ('A' for Active; 'I' for Inactive)
    1  A    between atoms: C_1  and  C_12
    2  A    between atoms: C_1  and  N_35
    3  A    between atoms: C_4  and  C_30
    4  A    between atoms: C_5  and  C_25
    5  A    between atoms: C_5  and  C_43
    6  A    between atoms: C_10  and  C_13
    7  A    between atoms: C_10  and  N_39
    8  A    between atoms: N_16  and  C_24
    9  A    between atoms: N_16  and  C_43
   10  A    between atoms: C_24  and  N_41
   11  A    between atoms: C_25  and  C_30
   12  A    between atoms: C_26  and  C_28
                            x       y       z     vdW  Elec       q    Type
                         _______ _______ _______ _____ _____    ______ ____

>  <TORSDO>
F 12

$$$$
=
 OpenBabel11062416083D

 43 52  0  0  1  0  0  0  0  0999 V2000
  187.7350  176.4120  142.5740 C   0  0  0  0  0  2  0  0  0  0  0  0
  186.1030  178.1640  142.8880 C   0  0  1  0  0  3  0  0  0  0  0  0
  189.0380  178.2080  143.5820 C   0  0  2  0  0  0  0  0  0  0  0  0
  188.3350  177.7850  142.3200 C   0  0  2  0  0  0  0  0  0  0  0  0
  187.5150  178.4240  143.4110 C   0  0  2  0  0  0  0  0  0  0  0  0
  186.8190  177.0580  143.5920 C   0  0  2  0  0  3  0  0  0  0  0  0
  189.7920  178.0460  142.3100 N   0  0  0  0  0  0  0  0  0  0  0  0
  187.6920  178.0610  146.3500 C   0  0  0  0  0  3  0  0  0  0  0  0
  190.9990  177.2050  144.8100 C   0  0  0  0  0  3  0  0  0  0  0  0
  191.0510  177.1170  147.2160 N   0  0  0  0  0  0  0  0  0  0  0  0
  188.9450  177.6330  146.1450 C   0  0  0  0  0  0  0  0  0  0  0  0
  187.1750  178.4150  147.7190 C   0  0  0  0  0  2  0  0  0  0  0  0
  189.7820  177.3550  147.3400 C   0  0  0  0  0  0  0  0  0  0  0  0
  189.4810  177.2570  144.7570 C   0  0  1  0  0  3  0  0  0  0  0  0
  187.7320  177.4540  148.7660 C   0  0  0  0  0  2  0  0  0  0  0  0
  189.1840  177.3770  148.6400 N   0  0  0  0  0  2  0  0  0  0  0  0
  191.7000  177.1040  145.9400 C   0  0  0  0  0  3  0  0  0  0  0  0
  191.9320  177.1100  142.0990 O   0  0  0  0  0  1  0  0  0  0  0  0
  190.2030  175.7760  142.6950 O   0  0  0  0  0  1  0  0  0  0  0  0
  190.5750  176.8470  141.8790 C   0  0  0  0  0  0  0  0  0  0  0  0
  190.3730  176.4640  140.4760 N   0  0  0  0  0  2  0  0  0  0  0  0
  191.5620  176.7480  139.6830 C   0  0  0  0  0  2  0  0  0  0  0  0
  191.3670  176.2510  138.2910 C   0  0  0  0  0  0  0  0  0  0  0  0
  190.1270  175.9980  137.8840 C   0  0  0  0  0  2  0  0  0  0  0  0
  192.4320  175.9180  136.1490 N   0  0  0  0  0  2  0  0  0  0  0  0
  192.5360  175.9130  137.4400 C   0  0  0  0  0  0  0  0  0  0  0  0
  193.8850  175.6900  138.0500 C   0  0  0  0  0  2  0  0  0  0  0  0
  194.4340  174.3370  137.6280 C   0  0  0  0  0  3  0  0  0  0  0  0
  195.9320  174.4530  137.4250 C   0  0  0  0  0  2  0  0  0  0  0  0
  195.3870  173.8320  138.6970 C   0  0  0  0  0  2  0  0  0  0  0  0
  185.1020  178.8280  143.8240 C   0  0  0  0  0  2  0  0  0  0  0  0
  183.7870  178.2990  141.9670 C   0  0  0  0  0  2  0  0  0  0  0  0
  182.4120  177.6810  140.1250 O   0  0  0  0  0  1  0  0  0  0  0  0
  181.4760  179.3220  143.2220 C   0  0  0  0  0  2  0  0  0  0  0  0
  182.7610  179.0070  143.9790 C   0  0  0  0  0  2  0  0  0  0  0  0
  183.9050  179.2180  143.0950 N   0  0  0  0  0  0  0  0  0  0  0  0
  182.4960  178.5760  141.1950 C   0  0  1  0  0  3  0  0  0  0  0  0
  181.3330  178.4160  142.0770 N   0  0  0  0  0  0  0  0  0  0  0  0
  180.1570  178.8580  141.3330 C   0  0  0  0  0  2  0  0  0  0  0  0
  180.1620  180.3700  141.1520 C   0  0  2  0  0  0  0  0  0  0  0  0
  180.3020  180.7630  139.7020 C   0  0  0  0  0  2  0  0  0  0  0  0
  179.0370  180.9780  141.7360 O   0  0  0  0  0  0  0  0  0  0  0  0
  178.9440  180.7060  140.3620 C   0  0  2  0  0  3  0  0  0  0  0  0
  1  6  1  0  0  0  0
  2  5  1  0  0  0  0
  2  6  1  0  0  0  0
  2 31  1  1  0  0  0
  3  7  1  6  0  0  0
  3 14  1  0  0  0  0
  4  1  1  1  0  0  0
  4  5  1  0  0  0  0
  4  3  1  0  0  0  0
  5  3  1  0  0  0  0
  5  6  1  0  0  0  0
  7  4  1  0  0  0  0
  8 12  1  0  0  0  0
  9 17  2  0  0  0  0
 10 13  2  0  0  0  0
 11  8  2  0  0  0  0
 11 13  1  0  0  0  0
 12 15  1  0  0  0  0
 13 16  1  0  0  0  0
 14  9  1  0  0  0  0
 14 11  1  0  0  0  0
 16 15  1  0  0  0  0
 17 10  1  0  0  0  0
 20 18  1  0  0  0  0
 20  7  1  0  0  0  0
 20 19  1  0  0  0  0
 21 20  1  0  0  0  0
 22 21  1  0  0  0  0
 23 22  1  0  0  0  0
 24 23  2  0  0  0  0
 25 26  2  0  0  0  0
 26 27  1  0  0  0  0
 26 23  1  0  0  0  0
 28 27  1  0  0  0  0
 28 30  1  0  0  0  0
 29 28  1  0  0  0  0
 29 30  1  0  0  0  0
 32 36  1  0  0  0  0
 33 37  1  0  0  0  0
 34 35  1  0  0  0  0
 36 31  1  0  0  0  0
 36 35  1  0  0  0  0
 37 32  1  0  0  0  0
 37 38  1  0  0  0  0
 38 34  1  0  0  0  0
 39 38  1  0  0  0  0
 40 39  1  0  0  0  0
 40 42  1  0  0  0  0
 41 43  1  0  0  0  0
 41 40  1  0  0  0  0
 43 40  1  0  0  0  0
 43 42  1  0  0  0  0
M  END
>  <MODEL>
5

>  <REMARK>
 VINA RESULT:      -7.2      1.869      3.045
  Name = 
  12 active torsions:
  status: ('A' for Active; 'I' for Inactive)
    1  A    between atoms: C_1  and  C_12
    2  A    between atoms: C_1  and  N_35
    3  A    between atoms: C_4  and  C_30
    4  A    between atoms: C_5  and  C_25
    5  A    between atoms: C_5  and  C_43
    6  A    between atoms: C_10  and  C_13
    7  A    between atoms: C_10  and  N_39
    8  A    between atoms: N_16  and  C_24
    9  A    between atoms: N_16  and  C_43
   10  A    between atoms: C_24  and  N_41
   11  A    between atoms: C_25  and  C_30
   12  A    between atoms: C_26  and  C_28
                            x       y       z     vdW  Elec       q    Type
                         _______ _______ _______ _____ _____    ______ ____

>  <TORSDO>
F 12

$$$$
=
 OpenBabel11062416083D

 43 52  0  0  1  0  0  0  0  0999 V2000
  187.9740  176.3510  142.5500 C   0  0  0  0  0  2  0  0  0  0  0  0
  186.2680  178.0490  142.7300 C   0  0  1  0  0  3  0  0  0  0  0  0
  189.1310  178.1810  143.6690 C   0  0  2  0  0  0  0  0  0  0  0  0
  188.5510  177.7420  142.3510 C   0  0  2  0  0  0  0  0  0  0  0  0
  187.6220  178.3500  143.3710 C   0  0  2  0  0  0  0  0  0  0  0  0
  186.9560  176.9620  143.4880 C   0  0  2  0  0  3  0  0  0  0  0  0
  189.9950  178.0480  142.4660 N   0  0  0  0  0  0  0  0  0  0  0  0
  187.6740  178.1130  146.3840 C   0  0  0  0  0  3  0  0  0  0  0  0
  191.0150  177.1480  144.9890 C   0  0  0  0  0  3  0  0  0  0  0  0
  190.9710  177.0960  147.3960 N   0  0  0  0  0  0  0  0  0  0  0  0
  188.9230  177.6490  146.2360 C   0  0  0  0  0  0  0  0  0  0  0  0
  187.1150  178.5020  147.7260 C   0  0  0  0  0  2  0  0  0  0  0  0
  189.7050  177.3690  147.4660 C   0  0  0  0  0  0  0  0  0  0  0  0
  189.5030  177.2370  144.8750 C   0  0  1  0  0  3  0  0  0  0  0  0
  187.6050  177.5440  148.8090 C   0  0  0  0  0  2  0  0  0  0  0  0
  189.0570  177.4280  148.7410 N   0  0  0  0  0  2  0  0  0  0  0  0
  191.6690  177.0460  146.1470 C   0  0  0  0  0  3  0  0  0  0  0  0
  192.1720  177.1770  142.4430 O   0  0  0  0  0  1  0  0  0  0  0  0
  190.4360  175.7880  142.8700 O   0  0  0  0  0  1  0  0  0  0  0  0
  190.8480  176.8770  142.0990 C   0  0  0  0  0  0  0  0  0  0  0  0
  190.7850  176.5010  140.6810 N   0  0  0  0  0  2  0  0  0  0  0  0
  191.8610  177.1330  139.9280 C   0  0  0  0  0  2  0  0  0  0  0  0
  191.9260  176.5460  138.5590 C   0  0  0  0  0  0  0  0  0  0  0  0
  193.1030  176.5210  137.9430 C   0  0  0  0  0  2  0  0  0  0  0  0
  190.4440  174.8870  137.6170 N   0  0  0  0  0  2  0  0  0  0  0  0
  190.6830  176.1370  137.8550 C   0  0  0  0  0  0  0  0  0  0  0  0
  189.6270  177.1440  137.5240 C   0  0  0  0  0  2  0  0  0  0  0  0
  188.7260  176.6170  136.4190 C   0  0  0  0  0  3  0  0  0  0  0  0
  187.7030  177.6790  136.0670 C   0  0  0  0  0  2  0  0  0  0  0  0
  188.9120  177.4690  135.1770 C   0  0  0  0  0  2  0  0  0  0  0  0
  185.1710  178.6770  143.5790 C   0  0  0  0  0  2  0  0  0  0  0  0
  182.9450  179.3730  143.4420 C   0  0  0  0  0  2  0  0  0  0  0  0
  180.7040  180.1460  143.2310 O   0  0  0  0  0  1  0  0  0  0  0  0
  182.5590  177.9100  141.0600 C   0  0  0  0  0  2  0  0  0  0  0  0
  183.9400  178.2250  141.6260 C   0  0  0  0  0  2  0  0  0  0  0  0
  183.8590  178.2920  143.0830 N   0  0  0  0  0  0  0  0  0  0  0  0
  181.5530  179.0950  142.8730 C   0  0  1  0  0  3  0  0  0  0  0  0
  181.6170  178.9780  141.4100 N   0  0  0  0  0  0  0  0  0  0  0  0
  180.3000  178.5470  140.9480 C   0  0  0  0  0  2  0  0  0  0  0  0
  180.4140  177.7070  139.6840 C   0  0  2  0  0  0  0  0  0  0  0  0
  179.4260  176.5660  139.6750 C   0  0  0  0  0  2  0  0  0  0  0  0
  180.3000  178.4840  138.5180 O   0  0  0  0  0  0  0  0  0  0  0  0
  179.1220  177.8600  138.9560 C   0  0  2  0  0  3  0  0  0  0  0  0
  1  6  1  0  0  0  0
  2  5  1  0  0  0  0
  2  6  1  0  0  0  0
  2 31  1  1  0  0  0
  3  7  1  6  0  0  0
  3 14  1  0  0  0  0
  4  7  1  0  0  0  0
  4  1  1  1  0  0  0
  4  5  1  0  0  0  0
  4  3  1  0  0  0  0
  5  6  1  0  0  0  0
  5  3  1  0  0  0  0
  8 12  1  0  0  0  0
  9 17  2  0  0  0  0
 10 13  2  0  0  0  0
 11  8  2  0  0  0  0
 11 13  1  0  0  0  0
 12 15  1  0  0  0  0
 13 16  1  0  0  0  0
 14  9  1  0  0  0  0
 14 11  1  0  0  0  0
 16 15  1  0  0  0  0
 17 10  1  0  0  0  0
 20 18  1  0  0  0  0
 20  7  1  0  0  0  0
 20 19  1  0  0  0  0
 21 20  1  0  0  0  0
 22 21  1  0  0  0  0
 23 22  1  0  0  0  0
 24 23  2  0  0  0  0
 25 26  2  0  0  0  0
 26 23  1  0  0  0  0
 27 26  1  0  0  0  0
 28 27  1  0  0  0  0
 29 28  1  0  0  0  0
 30 29  1  0  0  0  0
 30 28  1  0  0  0  0
 34 38  1  0  0  0  0
 34 35  1  0  0  0  0
 35 36  1  0  0  0  0
 36 32  1  0  0  0  0
 36 31  1  0  0  0  0
 37 33  1  0  0  0  0
 37 32  1  0  0  0  0
 38 37  1  0  0  0  0
 39 38  1  0  0  0  0
 40 39  1  0  0  0  0
 41 40  1  0  0  0  0
 42 43  1  0  0  0  0
 42 40  1  0  0  0  0
 43 41  1  0  0  0  0
 43 40  1  0  0  0  0
M  END
>  <MODEL>
6

>  <REMARK>
 VINA RESULT:      -7.2      1.384      2.062
  Name = 
  12 active torsions:
  status: ('A' for Active; 'I' for Inactive)
    1  A    between atoms: C_1  and  C_12
    2  A    between atoms: C_1  and  N_35
    3  A    between atoms: C_4  and  C_30
    4  A    between atoms: C_5  and  C_25
    5  A    between atoms: C_5  and  C_43
    6  A    between atoms: C_10  and  C_13
    7  A    between atoms: C_10  and  N_39
    8  A    between atoms: N_16  and  C_24
    9  A    between atoms: N_16  and  C_43
   10  A    between atoms: C_24  and  N_41
   11  A    between atoms: C_25  and  C_30
   12  A    between atoms: C_26  and  C_28
                            x       y       z     vdW  Elec       q    Type
                         _______ _______ _______ _____ _____    ______ ____

>  <TORSDO>
F 12

$$$$
=
 OpenBabel11062416083D

 43 52  0  0  1  0  0  0  0  0999 V2000
  182.0930  176.7670  139.8160 C   0  0  0  0  0  2  0  0  0  0  0  0
  183.2220  178.4550  141.1210 C   0  0  1  0  0  3  0  0  0  0  0  0
  182.7250  178.4250  138.1460 C   0  0  2  0  0  0  0  0  0  0  0  0
  181.7930  178.1630  139.2980 C   0  0  2  0  0  0  0  0  0  0  0  0
  183.1850  178.6530  139.6060 C   0  0  2  0  0  0  0  0  0  0  0  0
  183.4550  177.2720  140.2400 C   0  0  2  0  0  3  0  0  0  0  0  0
  181.2510  178.4310  137.9470 N   0  0  0  0  0  0  0  0  0  0  0  0
  185.7610  177.9250  138.3200 C   0  0  0  0  0  3  0  0  0  0  0  0
  182.9630  177.2780  135.9130 C   0  0  0  0  0  3  0  0  0  0  0  0
  185.1290  176.8840  134.9370 N   0  0  0  0  0  0  0  0  0  0  0  0
  185.0350  177.5280  137.2660 C   0  0  0  0  0  0  0  0  0  0  0  0
  187.2540  178.1020  138.2480 C   0  0  0  0  0  2  0  0  0  0  0  0
  185.7660  177.1030  136.0460 C   0  0  0  0  0  0  0  0  0  0  0  0
  183.5130  177.3330  137.3280 C   0  0  1  0  0  3  0  0  0  0  0  0
  187.8800  177.0160  137.3760 C   0  0  0  0  0  2  0  0  0  0  0  0
  187.1890  176.9590  136.0920 N   0  0  0  0  0  2  0  0  0  0  0  0
  183.7100  177.0340  134.8340 C   0  0  0  0  0  3  0  0  0  0  0  0
  179.1810  177.3410  138.1170 O   0  0  0  0  0  1  0  0  0  0  0  0
  180.1680  177.5170  136.0870 O   0  0  0  0  0  1  0  0  0  0  0  0
  180.4090  177.3010  137.4460 C   0  0  0  0  0  0  0  0  0  0  0  0
  181.0140  175.9740  137.6130 N   0  0  0  0  0  2  0  0  0  0  0  0
  180.1530  174.9370  137.0590 C   0  0  0  0  0  2  0  0  0  0  0  0
  180.9790  173.9440  136.3150 C   0  0  0  0  0  0  0  0  0  0  0  0
  181.1150  174.0990  135.0020 C   0  0  0  0  0  2  0  0  0  0  0  0
  180.7090  171.9180  137.6030 N   0  0  0  0  0  2  0  0  0  0  0  0
  181.5110  172.7390  137.0030 C   0  0  0  0  0  0  0  0  0  0  0  0
  182.9610  172.3830  136.9060 C   0  0  0  0  0  2  0  0  0  0  0  0
  183.8220  173.5720  137.3030 C   0  0  0  0  0  3  0  0  0  0  0  0
  185.1570  173.0680  137.8130 C   0  0  0  0  0  2  0  0  0  0  0  0
  185.0460  173.6210  136.4060 C   0  0  0  0  0  2  0  0  0  0  0  0
  184.5450  178.9890  141.6540 C   0  0  0  0  0  2  0  0  0  0  0  0
  186.3280  177.9250  142.7250 C   0  0  0  0  0  2  0  0  0  0  0  0
  188.1830  176.9310  143.8360 O   0  0  0  0  0  1  0  0  0  0  0  0
  185.2800  178.5700  145.2650 C   0  0  0  0  0  2  0  0  0  0  0  0
  184.8090  179.2390  143.9780 C   0  0  0  0  0  2  0  0  0  0  0  0
  184.9210  178.2910  142.8730 N   0  0  0  0  0  0  0  0  0  0  0  0
  186.8380  177.2660  144.0090 C   0  0  1  0  0  3  0  0  0  0  0  0
  186.6900  178.1870  145.1440 N   0  0  0  0  0  0  0  0  0  0  0  0
  187.0310  177.4440  146.3550 C   0  0  0  0  0  2  0  0  0  0  0  0
  188.1260  178.1540  147.1390 C   0  0  2  0  0  0  0  0  0  0  0  0
  188.0670  177.8260  148.6110 C   0  0  0  0  0  2  0  0  0  0  0  0
  189.4060  177.8980  146.6150 O   0  0  0  0  0  0  0  0  0  0  0  0
  189.0110  177.0880  147.6910 C   0  0  2  0  0  3  0  0  0  0  0  0
  1  6  1  0  0  0  0
  2 31  1  1  0  0  0
  3  7  1  6  0  0  0
  3  4  1  0  0  0  0
  3  5  1  0  0  0  0
  4  5  1  0  0  0  0
  4  1  1  1  0  0  0
  5  6  1  0  0  0  0
  5  2  1  0  0  0  0
  6  2  1  0  0  0  0
  7  4  1  0  0  0  0
  9 14  1  0  0  0  0
 10 13  2  0  0  0  0
 11 14  1  0  0  0  0
 11  8  2  0  0  0  0
 12  8  1  0  0  0  0
 13 16  1  0  0  0  0
 13 11  1  0  0  0  0
 14  3  1  0  0  0  0
 15 12  1  0  0  0  0
 16 15  1  0  0  0  0
 17 10  1  0  0  0  0
 17  9  2  0  0  0  0
 19 20  1  0  0  0  0
 20 21  1  0  0  0  0
 20  7  1  0  0  0  0
 20 18  1  0  0  0  0
 22 21  1  0  0  0  0
 23 26  1  0  0  0  0
 23 22  1  0  0  0  0
 24 23  2  0  0  0  0
 26 25  2  0  0  0  0
 27 26  1  0  0  0  0
 27 28  1  0  0  0  0
 28 29  1  0  0  0  0
 30 28  1  0  0  0  0
 30 29  1  0  0  0  0
 31 36  1  0  0  0  0
 32 36  1  0  0  0  0
 32 37  1  0  0  0  0
 33 37  1  0  0  0  0
 35 34  1  0  0  0  0
 36 35  1  0  0  0  0
 37 38  1  0  0  0  0
 38 34  1  0  0  0  0
 38 39  1  0  0  0  0
 39 40  1  0  0  0  0
 40 43  1  0  0  0  0
 40 41  1  0  0  0  0
 42 40  1  0  0  0  0
 42 43  1  0  0  0  0
 43 41  1  0  0  0  0
M  END
>  <MODEL>
7

>  <REMARK>
 VINA RESULT:      -7.2      3.388      9.177
  Name = 
  12 active torsions:
  status: ('A' for Active; 'I' for Inactive)
    1  A    between atoms: C_1  and  C_12
    2  A    between atoms: C_1  and  N_35
    3  A    between atoms: C_4  and  C_30
    4  A    between atoms: C_5  and  C_25
    5  A    between atoms: C_5  and  C_43
    6  A    between atoms: C_10  and  C_13
    7  A    between atoms: C_10  and  N_39
    8  A    between atoms: N_16  and  C_24
    9  A    between atoms: N_16  and  C_43
   10  A    between atoms: C_24  and  N_41
   11  A    between atoms: C_25  and  C_30
   12  A    between atoms: C_26  and  C_28
                            x       y       z     vdW  Elec       q    Type
                         _______ _______ _______ _____ _____    ______ ____

>  <TORSDO>
F 12

$$$$
=
 OpenBabel11062416083D

 43 52  0  0  1  0  0  0  0  0999 V2000
  188.1440  178.6080  137.6940 C   0  0  0  0  0  2  0  0  0  0  0  0
  187.5050  176.8430  136.1770 C   0  0  1  0  0  3  0  0  0  0  0  0
  189.1710  176.6310  138.6810 C   0  0  2  0  0  0  0  0  0  0  0  0
  187.8530  177.3150  138.4360 C   0  0  2  0  0  0  0  0  0  0  0  0
  188.4320  176.4690  137.3310 C   0  0  2  0  0  0  0  0  0  0  0  0
  188.6210  177.7720  136.5270 C   0  0  2  0  0  3  0  0  0  0  0  0
  188.3100  177.0500  139.8190 N   0  0  0  0  0  0  0  0  0  0  0  0
  191.3510  176.0150  136.5910 C   0  0  0  0  0  3  0  0  0  0  0  0
  191.1250  177.4720  140.0360 C   0  0  0  0  0  3  0  0  0  0  0  0
  193.3940  176.9970  139.3810 N   0  0  0  0  0  0  0  0  0  0  0  0
  191.6380  176.5790  137.7720 C   0  0  0  0  0  0  0  0  0  0  0  0
  192.3890  175.3090  135.7620 C   0  0  0  0  0  2  0  0  0  0  0  0
  193.0650  176.6350  138.1790 C   0  0  0  0  0  0  0  0  0  0  0  0
  190.5910  177.3120  138.6220 C   0  0  1  0  0  3  0  0  0  0  0  0
  193.7280  176.0390  135.8450 C   0  0  0  0  0  2  0  0  0  0  0  0
  194.0800  176.2590  137.2440 N   0  0  0  0  0  2  0  0  0  0  0  0
  192.4150  177.3620  140.3590 C   0  0  0  0  0  3  0  0  0  0  0  0
  188.9980  179.2910  139.8040 O   0  0  0  0  0  1  0  0  0  0  0  0
  187.1430  178.7190  140.9680 O   0  0  0  0  0  1  0  0  0  0  0  0
  188.4310  178.3060  140.6210 C   0  0  0  0  0  0  0  0  0  0  0  0
  189.2290  178.1680  141.8460 N   0  0  0  0  0  2  0  0  0  0  0  0
  188.5010  177.4130  142.8580 C   0  0  0  0  0  2  0  0  0  0  0  0
  189.2150  177.5060  144.1630 C   0  0  0  0  0  0  0  0  0  0  0  0
  190.5380  177.3680  144.1650 C   0  0  0  0  0  2  0  0  0  0  0  0
  189.0570  177.9050  146.5400 N   0  0  0  0  0  2  0  0  0  0  0  0
  188.4530  177.6060  145.4340 C   0  0  0  0  0  0  0  0  0  0  0  0
  186.9620  177.4910  145.4400 C   0  0  0  0  0  2  0  0  0  0  0  0
  186.3510  178.6180  146.2580 C   0  0  0  0  0  3  0  0  0  0  0  0
  185.2030  179.2280  145.4800 C   0  0  0  0  0  2  0  0  0  0  0  0
  184.9190  178.2580  146.6090 C   0  0  0  0  0  2  0  0  0  0  0  0
  187.8730  176.0070  134.9590 C   0  0  0  0  0  2  0  0  0  0  0  0
  187.1750  173.7770  134.9860 C   0  0  0  0  0  2  0  0  0  0  0  0
  186.4460  171.5150  135.1120 O   0  0  0  0  0  1  0  0  0  0  0  0
  184.4640  174.5530  135.1080 C   0  0  0  0  0  2  0  0  0  0  0  0
  185.6150  175.5100  135.3960 C   0  0  0  0  0  2  0  0  0  0  0  0
  186.7740  175.1260  134.5940 N   0  0  0  0  0  0  0  0  0  0  0  0
  186.0330  172.7930  134.7260 C   0  0  1  0  0  3  0  0  0  0  0  0
  184.8400  173.1870  135.4870 N   0  0  0  0  0  0  0  0  0  0  0  0
  183.7460  172.3160  135.0660 C   0  0  0  0  0  2  0  0  0  0  0  0
  183.1330  171.5950  136.2590 C   0  0  2  0  0  0  0  0  0  0  0  0
  181.6300  171.5030  136.1490 C   0  0  0  0  0  2  0  0  0  0  0  0
  183.7040  170.3270  136.4650 O   0  0  0  0  0  0  0  0  0  0  0  0
  182.5100  170.3490  135.7280 C   0  0  2  0  0  3  0  0  0  0  0  0
  2 31  1  6  0  0  0
  2  6  1  0  0  0  0
  2  5  1  0  0  0  0
  3  7  1  1  0  0  0
  4  1  1  6  0  0  0
  4  3  1  0  0  0  0
  4  7  1  0  0  0  0
  5  4  1  0  0  0  0
  5  3  1  0  0  0  0
  6  5  1  0  0  0  0
  6  1  1  0  0  0  0
  7 20  1  0  0  0  0
  8 11  2  0  0  0  0
  9 17  2  0  0  0  0
 10 17  1  0  0  0  0
 11 13  1  0  0  0  0
 11 14  1  0  0  0  0
 12 15  1  0  0  0  0
 12  8  1  0  0  0  0
 13 10  2  0  0  0  0
 14  3  1  0  0  0  0
 14  9  1  0  0  0  0
 15 16  1  0  0  0  0
 16 13  1  0  0  0  0
 18 20  1  0  0  0  0
 20 19  1  0  0  0  0
 20 21  1  0  0  0  0
 21 22  1  0  0  0  0
 22 23  1  0  0  0  0
 23 24  2  0  0  0  0
 23 26  1  0  0  0  0
 26 27  1  0  0  0  0
 26 25  2  0  0  0  0
 27 28  1  0  0  0  0
 28 30  1  0  0  0  0
 29 28  1  0  0  0  0
 29 30  1  0  0  0  0
 34 35  1  0  0  0  0
 34 38  1  0  0  0  0
 36 31  1  0  0  0  0
 36 32  1  0  0  0  0
 36 35  1  0  0  0  0
 37 32  1  0  0  0  0
 37 33  1  0  0  0  0
 37 38  1  0  0  0  0
 39 38  1  0  0  0  0
 39 40  1  0  0  0  0
 40 42  1  0  0  0  0
 41 40  1  0  0  0  0
 43 41  1  0  0  0  0
 43 40  1  0  0  0  0
 43 42  1  0  0  0  0
M  END
>  <MODEL>
8

>  <REMARK>
 VINA RESULT:      -7.1      3.855      8.485
  Name = 
  12 active torsions:
  status: ('A' for Active; 'I' for Inactive)
    1  A    between atoms: C_1  and  C_12
    2  A    between atoms: C_1  and  N_35
    3  A    between atoms: C_4  and  C_30
    4  A    between atoms: C_5  and  C_25
    5  A    between atoms: C_5  and  C_43
    6  A    between atoms: C_10  and  C_13
    7  A    between atoms: C_10  and  N_39
    8  A    between atoms: N_16  and  C_24
    9  A    between atoms: N_16  and  C_43
   10  A    between atoms: C_24  and  N_41
   11  A    between atoms: C_25  and  C_30
   12  A    between atoms: C_26  and  C_28
                            x       y       z     vdW  Elec       q    Type
                         _______ _______ _______ _____ _____    ______ ____

>  <TORSDO>
F 12

$$$$
=
 OpenBabel11062416083D

 43 52  0  0  1  0  0  0  0  0999 V2000
  187.0200  179.3660  142.0150 C   0  0  0  0  0  2  0  0  0  0  0  0
  188.6920  177.7390  141.3940 C   0  0  1  0  0  3  0  0  0  0  0  0
  186.5020  177.4650  143.4500 C   0  0  2  0  0  0  0  0  0  0  0  0
  186.4550  177.9550  142.0270 C   0  0  2  0  0  0  0  0  0  0  0  0
  187.7470  177.3670  142.5350 C   0  0  2  0  0  0  0  0  0  0  0  0
  188.3570  178.7790  142.4110 C   0  0  2  0  0  3  0  0  0  0  0  0
  185.2060  177.5860  142.7300 N   0  0  0  0  0  0  0  0  0  0  0  0
  188.8340  177.3270  145.4600 C   0  0  0  0  0  3  0  0  0  0  0  0
  185.2850  178.5280  145.3860 C   0  0  0  0  0  3  0  0  0  0  0  0
  186.1900  178.4600  147.6170 N   0  0  0  0  0  0  0  0  0  0  0  0
  187.6480  177.8610  145.7830 C   0  0  0  0  0  0  0  0  0  0  0  0
  189.8100  176.8450  146.4990 C   0  0  0  0  0  2  0  0  0  0  0  0
  187.3780  178.1200  147.2200 C   0  0  0  0  0  0  0  0  0  0  0  0
  186.6480  178.3670  144.7340 C   0  0  1  0  0  3  0  0  0  0  0  0
  189.8030  177.7740  147.7110 C   0  0  0  0  0  2  0  0  0  0  0  0
  188.4320  177.9660  148.1740 N   0  0  0  0  0  2  0  0  0  0  0  0
  185.0970  178.6060  146.7050 C   0  0  0  0  0  3  0  0  0  0  0  0
  183.3340  178.4660  143.8340 O   0  0  0  0  0  1  0  0  0  0  0  0
  184.9630  179.8750  143.1380 O   0  0  0  0  0  1  0  0  0  0  0  0
  184.2430  178.7270  142.8020 C   0  0  0  0  0  0  0  0  0  0  0  0
  183.5070  178.9790  141.5560 N   0  0  0  0  0  2  0  0  0  0  0  0
  182.6690  177.8390  141.2080 C   0  0  0  0  0  2  0  0  0  0  0  0
  181.3980  178.3200  140.5960 C   0  0  0  0  0  0  0  0  0  0  0  0
  180.9020  177.6440  139.5650 C   0  0  0  0  0  2  0  0  0  0  0  0
  180.4560  180.5040  140.1710 N   0  0  0  0  0  2  0  0  0  0  0  0
  180.7860  179.6000  141.0380 C   0  0  0  0  0  0  0  0  0  0  0  0
  180.4210  179.8160  142.4730 C   0  0  0  0  0  2  0  0  0  0  0  0
  179.4520  178.7410  142.9370 C   0  0  0  0  0  3  0  0  0  0  0  0
  180.0350  178.0380  144.1460 C   0  0  0  0  0  2  0  0  0  0  0  0
  178.9550  179.0860  144.3290 C   0  0  0  0  0  2  0  0  0  0  0  0
  190.0630  177.1420  141.6760 C   0  0  0  0  0  2  0  0  0  0  0  0
  189.6650  176.7880  139.4020 C   0  0  0  0  0  2  0  0  0  0  0  0
  189.2920  176.5210  137.0670 O   0  0  0  0  0  1  0  0  0  0  0  0
  192.4190  176.4210  138.9030 C   0  0  0  0  0  2  0  0  0  0  0  0
  191.8830  177.0430  140.1880 C   0  0  0  0  0  2  0  0  0  0  0  0
  190.5780  176.4650  140.4950 N   0  0  0  0  0  0  0  0  0  0  0  0
  190.1840  176.1930  138.0910 C   0  0  1  0  0  3  0  0  0  0  0  0
  191.5180  176.7260  137.7860 N   0  0  0  0  0  0  0  0  0  0  0  0
  192.0240  175.9960  136.6260 C   0  0  0  0  0  2  0  0  0  0  0  0
  193.5460  175.9710  136.6190 C   0  0  2  0  0  0  0  0  0  0  0  0
  194.0860  174.5640  136.5460 C   0  0  0  0  0  2  0  0  0  0  0  0
  194.0860  176.7740  135.5980 O   0  0  0  0  0  0  0  0  0  0  0  0
  193.9550  175.4090  135.3000 C   0  0  2  0  0  3  0  0  0  0  0  0
  1  6  1  0  0  0  0
  2 31  1  1  0  0  0
  2  6  1  0  0  0  0
  2  5  1  0  0  0  0
  3  7  1  1  0  0  0
  3 14  1  0  0  0  0
  4  1  1  1  0  0  0
  4  5  1  0  0  0  0
  4  7  1  0  0  0  0
  4  3  1  0  0  0  0
  5  3  1  0  0  0  0
  6  5  1  0  0  0  0
  7 20  1  0  0  0  0
  8 11  2  0  0  0  0
  8 12  1  0  0  0  0
  9 17  2  0  0  0  0
 11 13  1  0  0  0  0
 12 15  1  0  0  0  0
 13 10  2  0  0  0  0
 13 16  1  0  0  0  0
 14  9  1  0  0  0  0
 14 11  1  0  0  0  0
 15 16  1  0  0  0  0
 17 10  1  0  0  0  0
 20 19  1  0  0  0  0
 20 18  1  0  0  0  0
 21 20  1  0  0  0  0
 22 21  1  0  0  0  0
 23 26  1  0  0  0  0
 23 22  1  0  0  0  0
 24 23  2  0  0  0  0
 25 26  2  0  0  0  0
 26 27  1  0  0  0  0
 27 28  1  0  0  0  0
 28 29  1  0  0  0  0
 28 30  1  0  0  0  0
 29 30  1  0  0  0  0
 32 36  1  0  0  0  0
 33 37  1  0  0  0  0
 34 35  1  0  0  0  0
 35 36  1  0  0  0  0
 36 31  1  0  0  0  0
 37 32  1  0  0  0  0
 38 37  1  0  0  0  0
 38 34  1  0  0  0  0
 39 38  1  0  0  0  0
 40 39  1  0  0  0  0
 41 40  1  0  0  0  0
 42 40  1  0  0  0  0
 43 42  1  0  0  0  0
 43 41  1  0  0  0  0
 43 40  1  0  0  0  0
M  END
>  <MODEL>
9

>  <REMARK>
 VINA RESULT:      -6.8      2.543      8.224
  Name = 
  12 active torsions:
  status: ('A' for Active; 'I' for Inactive)
    1  A    between atoms: C_1  and  C_12
    2  A    between atoms: C_1  and  N_35
    3  A    between atoms: C_4  and  C_30
    4  A    between atoms: C_5  and  C_25
    5  A    between atoms: C_5  and  C_43
    6  A    between atoms: C_10  and  C_13
    7  A    between atoms: C_10  and  N_39
    8  A    between atoms: N_16  and  C_24
    9  A    between atoms: N_16  and  C_43
   10  A    between atoms: C_24  and  N_41
   11  A    between atoms: C_25  and  C_30
   12  A    between atoms: C_26  and  C_28
                            x       y       z     vdW  Elec       q    Type
                         _______ _______ _______ _____ _____    ______ ____

>  <TORSDO>
F 12

$$$$
