=
 OpenBabel11062416153D

 44 49  0  0  1  0  0  0  0  0999 V2000
  185.7800  177.7380  146.1410 N   0  0  0  0  0  0  0  0  0  0  0  0
  183.3700  179.7660  144.3990 C   0  0  0  0  0  2  0  0  0  0  0  0
  185.7850  178.7820  144.0570 C   0  0  2  0  0  3  0  0  0  0  0  0
  187.6280  177.1030  144.7990 N   0  0  0  0  0  2  0  0  0  0  0  0
  184.6760  178.5880  146.1460 N   0  0  0  0  0  2  0  0  0  0  0  0
  182.8810  178.6510  143.4930 C   0  0  2  0  0  3  0  0  0  0  0  0
  183.8860  178.4260  142.3760 C   0  0  0  0  0  2  0  0  0  0  0  0
  184.7470  179.4560  144.9860 C   0  0  2  0  0  3  0  0  0  0  0  0
  185.1600  177.8680  142.9870 C   0  0  0  0  0  2  0  0  0  0  0  0
  186.4470  177.8720  145.0470 C   0  0  0  0  0  0  0  0  0  0  0  0
  181.4600  178.9030  142.9810 C   0  0  0  0  0  2  0  0  0  0  0  0
  181.2590  178.6770  141.5110 C   0  0  0  0  0  0  0  0  0  0  0  0
  180.3050  177.1290  139.7480 C   0  0  0  0  0  0  0  0  0  0  0  0
  180.3990  177.6150  141.0920 N   0  0  0  0  0  2  0  0  0  0  0  0
  181.7550  179.4680  140.6610 O   0  0  0  0  0  0  0  0  0  0  0  0
  181.4660  176.9280  138.9410 N   0  0  0  0  0  2  0  0  0  0  0  0
  179.1610  176.7380  139.2980 N   0  0  0  0  0  2  0  0  0  0  0  0
  182.7680  177.0850  139.4430 N   0  0  0  0  0  2  0  0  0  0  0  0
  183.6020  177.7450  138.4300 C   0  0  1  0  0  3  0  0  0  0  0  0
  185.4820  179.2330  138.0880 O   0  0  0  0  0  0  0  0  0  0  0  0
  184.7270  179.8010  139.0410 O   0  0  0  0  0  0  0  0  0  0  0  0
  184.8560  178.4300  139.0160 C   0  0  0  0  0  3  0  0  0  0  0  0
  183.4220  177.2560  136.0910 O   0  0  0  0  0  0  0  0  0  0  0  0
  183.8590  176.8730  137.2110 C   0  0  0  0  0  0  0  0  0  0  0  0
  184.8140  173.2760  137.6630 C   0  0  0  0  0  3  0  0  0  0  0  0
  184.0760  174.4990  137.5250 N   0  0  0  0  0  0  0  0  0  0  0  0
  186.0820  175.6570  137.0770 N   0  0  0  0  0  2  0  0  0  0  0  0
  186.1210  173.2260  137.3960 C   0  0  0  0  0  3  0  0  0  0  0  0
  186.8460  174.4280  136.8610 C   0  0  0  0  0  2  0  0  0  0  0  0
  184.6620  175.6300  137.2640 C   0  0  0  0  0  0  0  0  0  0  0  0
  188.7560  177.5230  143.9680 C   0  0  1  0  0  3  0  0  0  0  0  0
  191.8840  175.8420  146.5530 C   0  0  0  0  0  3  0  0  0  0  0  0
  189.8660  178.1810  144.7750 C   0  0  1  0  0  3  0  0  0  0  0  0
  189.8980  177.6170  146.0600 C   0  0  0  0  0  0  0  0  0  0  0  0
  191.9220  176.3840  145.2200 C   0  0  0  0  0  3  0  0  0  0  0  0
  190.8910  177.2550  145.0530 C   0  0  0  0  0  0  0  0  0  0  0  0
  189.8160  177.1430  147.3340 C   0  0  0  0  0  3  0  0  0  0  0  0
  190.8850  176.2070  147.5600 C   0  0  0  0  0  3  0  0  0  0  0  0
  189.2930  176.3430  143.1670 C   0  0  0  0  0  2  0  0  0  0  0  0
  189.7570  176.8020  141.7910 C   0  0  0  0  0  2  0  0  0  0  0  0
  188.8570  177.9070  141.2550 C   0  0  0  0  0  2  0  0  0  0  0  0
  188.8660  176.7470  139.1760 O   0  0  0  0  0  1  0  0  0  0  0  0
  188.6650  179.0290  139.0290 O   0  0  0  0  0  0  0  0  0  0  0  0
  188.7890  177.8550  139.7670 C   0  0  0  0  0  0  0  0  0  0  0  0
  1  5  1  0  0  0  0
  3  9  1  6  0  0  0
  3  8  1  0  0  0  0
  3 10  1  0  0  0  0
  4 10  1  0  0  0  0
  6 11  1  6  0  0  0
  6  2  1  0  0  0  0
  7  9  1  0  0  0  0
  7  6  1  0  0  0  0
  8  2  1  6  0  0  0
  8  5  1  0  0  0  0
 10  1  2  0  0  0  0
 12 11  1  0  0  0  0
 13 14  1  0  0  0  0
 14 12  1  0  0  0  0
 15 12  2  0  0  0  0
 16 18  1  0  0  0  0
 16 13  1  0  0  0  0
 17 13  2  0  0  0  0
 19 24  1  6  0  0  0
 19 22  1  0  0  0  0
 19 18  1  0  0  0  0
 20 22  1  0  0  0  0
 20 21  1  0  0  0  0
 22 21  1  0  0  0  0
 23 24  2  0  0  0  0
 24 30  1  0  0  0  0
 26 25  1  0  0  0  0
 27 30  1  0  0  0  0
 28 25  2  0  0  0  0
 29 27  1  0  0  0  0
 29 28  1  0  0  0  0
 30 26  2  0  0  0  0
 31 39  1  1  0  0  0
 31  4  1  0  0  0  0
 32 38  1  0  0  0  0
 33 31  1  6  0  0  0
 33 36  1  0  0  0  0
 33 34  1  0  0  0  0
 34 37  1  0  0  0  0
 35 32  2  0  0  0  0
 36 35  1  0  0  0  0
 36 34  2  0  0  0  0
 37 38  2  0  0  0  0
 40 39  1  0  0  0  0
 41 40  1  0  0  0  0
 42 44  1  0  0  0  0
 43 44  2  0  0  0  0
 44 41  1  0  0  0  0
M  END
>  <MODEL>
1

>  <REMARK>
 VINA RESULT:      -9.0      0.000      0.000
  Name = 
  13 active torsions:
  status: ('A' for Active; 'I' for Inactive)
    1  A    between atoms: C_4  and  C_8
    2  A    between atoms: C_5  and  C_33
    3  A    between atoms: C_8  and  C_26
    4  A    between atoms: N_10  and  C_33
    5  A    between atoms: C_17  and  C_22
    6  A    between atoms: C_17  and  C_32
    7  A    between atoms: C_19  and  N_31
    8  A    between atoms: C_19  and  C_43
    9  A    between atoms: C_19  and  C_44
   10  A    between atoms: C_22  and  C_30
   11  A    between atoms: N_24  and  N_31
   12  A    between atoms: C_32  and  C_33
   13  A    between atoms: C_39  and  C_44
                            x       y       z     vdW  Elec       q    Type
                         _______ _______ _______ _____ _____    ______ ____

>  <TORSDO>
F 13

$$$$
=
 OpenBabel11062416153D

 44 49  0  0  1  0  0  0  0  0999 V2000
  185.6940  177.7230  145.9910 N   0  0  0  0  0  0  0  0  0  0  0  0
  183.3010  179.8370  144.3280 C   0  0  0  0  0  2  0  0  0  0  0  0
  185.7070  178.8450  143.9490 C   0  0  2  0  0  3  0  0  0  0  0  0
  187.5360  177.1240  144.6250 N   0  0  0  0  0  2  0  0  0  0  0  0
  184.5960  178.5810  146.0280 N   0  0  0  0  0  2  0  0  0  0  0  0
  182.8020  178.7610  143.3800 C   0  0  2  0  0  3  0  0  0  0  0  0
  183.8050  178.5710  142.2550 C   0  0  0  0  0  2  0  0  0  0  0  0
  184.6740  179.4920  144.9030 C   0  0  2  0  0  3  0  0  0  0  0  0
  185.0750  177.9790  142.8440 C   0  0  0  0  0  2  0  0  0  0  0  0
  186.3620  177.8930  144.9030 C   0  0  0  0  0  0  0  0  0  0  0  0
  181.3840  179.0440  142.8790 C   0  0  0  0  0  2  0  0  0  0  0  0
  181.1170  178.6520  141.4550 C   0  0  0  0  0  0  0  0  0  0  0  0
  180.3370  176.8030  139.9100 C   0  0  0  0  0  0  0  0  0  0  0  0
  180.4410  177.4190  141.1990 N   0  0  0  0  0  2  0  0  0  0  0  0
  181.3910  179.4370  140.5050 O   0  0  0  0  0  0  0  0  0  0  0  0
  181.4510  176.7400  139.0170 N   0  0  0  0  0  2  0  0  0  0  0  0
  179.2550  176.1730  139.5980 N   0  0  0  0  0  2  0  0  0  0  0  0
  182.7350  177.1720  139.3850 N   0  0  0  0  0  2  0  0  0  0  0  0
  183.5630  177.3110  138.1800 C   0  0  1  0  0  3  0  0  0  0  0  0
  183.5330  177.4680  135.7630 O   0  0  0  0  0  0  0  0  0  0  0  0
  182.7730  176.4060  136.0760 O   0  0  0  0  0  0  0  0  0  0  0  0
  182.7410  177.5190  136.8890 C   0  0  0  0  0  3  0  0  0  0  0  0
  184.4950  179.4030  138.8840 O   0  0  0  0  0  0  0  0  0  0  0  0
  184.7230  178.2770  138.3630 C   0  0  0  0  0  0  0  0  0  0  0  0
  187.6890  176.5950  136.8050 C   0  0  0  0  0  3  0  0  0  0  0  0
  186.3570  177.0250  137.1190 N   0  0  0  0  0  0  0  0  0  0  0  0
  187.2230  178.5380  138.7080 N   0  0  0  0  0  2  0  0  0  0  0  0
  188.7530  177.2030  137.3350 C   0  0  0  0  0  3  0  0  0  0  0  0
  188.5930  178.4110  138.2130 C   0  0  0  0  0  2  0  0  0  0  0  0
  186.1220  177.9290  138.0250 C   0  0  0  0  0  0  0  0  0  0  0  0
  188.6680  177.5660  143.8110 C   0  0  1  0  0  3  0  0  0  0  0  0
  191.8300  176.1660  146.5190 C   0  0  0  0  0  3  0  0  0  0  0  0
  189.7150  178.3170  144.6200 C   0  0  1  0  0  3  0  0  0  0  0  0
  189.7510  177.7960  145.9230 C   0  0  0  0  0  0  0  0  0  0  0  0
  191.8670  176.6660  145.1700 C   0  0  0  0  0  3  0  0  0  0  0  0
  190.7880  177.4660  144.9510 C   0  0  0  0  0  0  0  0  0  0  0  0
  189.6670  177.3580  147.2110 C   0  0  0  0  0  3  0  0  0  0  0  0
  190.7860  176.4980  147.4900 C   0  0  0  0  0  3  0  0  0  0  0  0
  189.2910  176.3810  143.0810 C   0  0  0  0  0  2  0  0  0  0  0  0
  189.3890  176.6690  141.5890 C   0  0  0  0  0  2  0  0  0  0  0  0
  190.6020  177.5340  141.2800 C   0  0  0  0  0  2  0  0  0  0  0  0
  190.9470  175.9900  139.5010 O   0  0  0  0  0  0  0  0  0  0  0  0
  192.7290  177.3560  139.9780 O   0  0  0  0  0  1  0  0  0  0  0  0
  191.4250  176.9210  140.2000 C   0  0  0  0  0  0  0  0  0  0  0  0
  1  5  1  0  0  0  0
  3  9  1  6  0  0  0
  3  8  1  0  0  0  0
  3 10  1  0  0  0  0
  4 10  1  0  0  0  0
  6 11  1  6  0  0  0
  6  2  1  0  0  0  0
  7  9  1  0  0  0  0
  7  6  1  0  0  0  0
  8  2  1  6  0  0  0
  8  5  1  0  0  0  0
 10  1  2  0  0  0  0
 12 11  1  0  0  0  0
 13 14  1  0  0  0  0
 14 12  1  0  0  0  0
 15 12  2  0  0  0  0
 16 18  1  0  0  0  0
 16 13  1  0  0  0  0
 17 13  2  0  0  0  0
 19 24  1  1  0  0  0
 19 18  1  0  0  0  0
 20 21  1  0  0  0  0
 20 22  1  0  0  0  0
 21 22  1  0  0  0  0
 22 19  1  0  0  0  0
 24 23  2  0  0  0  0
 25 26  1  0  0  0  0
 25 28  2  0  0  0  0
 26 30  2  0  0  0  0
 28 29  1  0  0  0  0
 29 27  1  0  0  0  0
 30 24  1  0  0  0  0
 30 27  1  0  0  0  0
 31 39  1  1  0  0  0
 31  4  1  0  0  0  0
 32 38  1  0  0  0  0
 33 31  1  6  0  0  0
 33 36  1  0  0  0  0
 33 34  1  0  0  0  0
 34 37  1  0  0  0  0
 35 32  2  0  0  0  0
 36 35  1  0  0  0  0
 36 34  2  0  0  0  0
 37 38  2  0  0  0  0
 40 39  1  0  0  0  0
 41 40  1  0  0  0  0
 42 44  2  0  0  0  0
 43 44  1  0  0  0  0
 44 41  1  0  0  0  0
M  END
>  <MODEL>
2

>  <REMARK>
 VINA RESULT:      -8.6      1.403      2.122
  Name = 
  13 active torsions:
  status: ('A' for Active; 'I' for Inactive)
    1  A    between atoms: C_4  and  C_8
    2  A    between atoms: C_5  and  C_33
    3  A    between atoms: C_8  and  C_26
    4  A    between atoms: N_10  and  C_33
    5  A    between atoms: C_17  and  C_22
    6  A    between atoms: C_17  and  C_32
    7  A    between atoms: C_19  and  N_31
    8  A    between atoms: C_19  and  C_43
    9  A    between atoms: C_19  and  C_44
   10  A    between atoms: C_22  and  C_30
   11  A    between atoms: N_24  and  N_31
   12  A    between atoms: C_32  and  C_33
   13  A    between atoms: C_39  and  C_44
                            x       y       z     vdW  Elec       q    Type
                         _______ _______ _______ _____ _____    ______ ____

>  <TORSDO>
F 13

$$$$
=
 OpenBabel11062416153D

 44 49  0  0  1  0  0  0  0  0999 V2000
  185.8940  177.8800  146.3800 N   0  0  0  0  0  0  0  0  0  0  0  0
  183.7810  179.9630  144.3420 C   0  0  0  0  0  2  0  0  0  0  0  0
  185.9940  178.5560  144.1520 C   0  0  2  0  0  3  0  0  0  0  0  0
  187.5710  176.7430  145.1480 N   0  0  0  0  0  2  0  0  0  0  0  0
  184.9400  178.8870  146.2510 N   0  0  0  0  0  2  0  0  0  0  0  0
  183.0890  178.8100  143.6370 C   0  0  2  0  0  3  0  0  0  0  0  0
  184.0070  178.2460  142.5660 C   0  0  0  0  0  2  0  0  0  0  0  0
  185.1090  179.5320  144.9630 C   0  0  2  0  0  3  0  0  0  0  0  0
  185.1960  177.5940  143.2520 C   0  0  0  0  0  2  0  0  0  0  0  0
  186.5370  177.7240  145.2740 C   0  0  0  0  0  0  0  0  0  0  0  0
  181.7110  179.2030  143.1010 C   0  0  0  0  0  2  0  0  0  0  0  0
  181.4500  178.8350  141.6690 C   0  0  0  0  0  0  0  0  0  0  0  0
  180.4330  177.1210  140.1060 C   0  0  0  0  0  0  0  0  0  0  0  0
  180.5790  177.7350  141.3920 N   0  0  0  0  0  2  0  0  0  0  0  0
  181.9070  179.5390  140.7270 O   0  0  0  0  0  0  0  0  0  0  0  0
  181.5610  176.8430  139.2760 N   0  0  0  0  0  2  0  0  0  0  0  0
  179.2730  176.6860  139.7440 N   0  0  0  0  0  2  0  0  0  0  0  0
  182.8820  177.0490  139.7060 N   0  0  0  0  0  2  0  0  0  0  0  0
  183.6320  177.7440  138.6520 C   0  0  1  0  0  3  0  0  0  0  0  0
  185.5480  179.1430  138.1650 O   0  0  0  0  0  0  0  0  0  0  0  0
  184.8230  179.8090  139.0780 O   0  0  0  0  0  0  0  0  0  0  0  0
  184.9140  178.4370  139.1630 C   0  0  0  0  0  3  0  0  0  0  0  0
  183.3270  177.3200  136.3140 O   0  0  0  0  0  0  0  0  0  0  0  0
  183.8160  176.9020  137.4000 C   0  0  0  0  0  0  0  0  0  0  0  0
  184.7570  173.2890  137.7390 C   0  0  0  0  0  3  0  0  0  0  0  0
  184.0250  174.5220  137.6700 N   0  0  0  0  0  0  0  0  0  0  0  0
  186.0070  175.6610  137.0870 N   0  0  0  0  0  2  0  0  0  0  0  0
  186.0390  173.2270  137.3750 C   0  0  0  0  0  3  0  0  0  0  0  0
  186.7370  174.4270  136.8010 C   0  0  0  0  0  2  0  0  0  0  0  0
  184.6050  175.6490  137.3790 C   0  0  0  0  0  0  0  0  0  0  0  0
  188.7230  176.8340  144.2510 C   0  0  1  0  0  3  0  0  0  0  0  0
  190.4530  177.6240  140.2920 C   0  0  0  0  0  3  0  0  0  0  0  0
  188.4520  176.2190  142.8860 C   0  0  1  0  0  3  0  0  0  0  0  0
  188.3330  177.2430  141.9340 C   0  0  0  0  0  0  0  0  0  0  0  0
  190.6470  176.5520  141.2330 C   0  0  0  0  0  3  0  0  0  0  0  0
  189.5450  176.4330  142.0220 C   0  0  0  0  0  0  0  0  0  0  0  0
  188.0920  178.2630  141.0640 C   0  0  0  0  0  3  0  0  0  0  0  0
  189.2370  178.4340  140.2090 C   0  0  0  0  0  3  0  0  0  0  0  0
  189.1760  178.2830  144.1140 C   0  0  0  0  0  2  0  0  0  0  0  0
  190.4220  178.5310  144.9530 C   0  0  0  0  0  2  0  0  0  0  0  0
  191.2260  177.2500  145.1230 C   0  0  0  0  0  2  0  0  0  0  0  0
  192.3520  176.2840  146.9860 O   0  0  0  0  0  0  0  0  0  0  0  0
  190.2820  177.1690  147.4380 O   0  0  0  0  0  1  0  0  0  0  0  0
  191.3270  176.8800  146.5640 C   0  0  0  0  0  0  0  0  0  0  0  0
  3  9  1  6  0  0  0
  3  8  1  0  0  0  0
  3 10  1  0  0  0  0
  4 10  1  0  0  0  0
  5  1  1  0  0  0  0
  6 11  1  6  0  0  0
  6  2  1  0  0  0  0
  7  9  1  0  0  0  0
  7  6  1  0  0  0  0
  8  2  1  6  0  0  0
  8  5  1  0  0  0  0
 10  1  2  0  0  0  0
 12 11  1  0  0  0  0
 13 14  1  0  0  0  0
 14 12  1  0  0  0  0
 15 12  2  0  0  0  0
 16 18  1  0  0  0  0
 16 13  1  0  0  0  0
 17 13  2  0  0  0  0
 19 24  1  6  0  0  0
 19 22  1  0  0  0  0
 19 18  1  0  0  0  0
 20 21  1  0  0  0  0
 20 22  1  0  0  0  0
 21 22  1  0  0  0  0
 23 24  2  0  0  0  0
 26 25  1  0  0  0  0
 27 30  1  0  0  0  0
 28 25  2  0  0  0  0
 29 27  1  0  0  0  0
 29 28  1  0  0  0  0
 30 24  1  0  0  0  0
 30 26  2  0  0  0  0
 31 39  1  6  0  0  0
 31  4  1  0  0  0  0
 32 35  1  0  0  0  0
 33 31  1  1  0  0  0
 34 36  1  0  0  0  0
 34 33  1  0  0  0  0
 35 36  2  0  0  0  0
 36 33  1  0  0  0  0
 37 34  2  0  0  0  0
 38 32  2  0  0  0  0
 38 37  1  0  0  0  0
 39 40  1  0  0  0  0
 40 41  1  0  0  0  0
 41 44  1  0  0  0  0
 44 42  2  0  0  0  0
 44 43  1  0  0  0  0
M  END
>  <MODEL>
3

>  <REMARK>
 VINA RESULT:      -8.3      1.893      3.212
  Name = 
  13 active torsions:
  status: ('A' for Active; 'I' for Inactive)
    1  A    between atoms: C_4  and  C_8
    2  A    between atoms: C_5  and  C_33
    3  A    between atoms: C_8  and  C_26
    4  A    between atoms: N_10  and  C_33
    5  A    between atoms: C_17  and  C_22
    6  A    between atoms: C_17  and  C_32
    7  A    between atoms: C_19  and  N_31
    8  A    between atoms: C_19  and  C_43
    9  A    between atoms: C_19  and  C_44
   10  A    between atoms: C_22  and  C_30
   11  A    between atoms: N_24  and  N_31
   12  A    between atoms: C_32  and  C_33
   13  A    between atoms: C_39  and  C_44
                            x       y       z     vdW  Elec       q    Type
                         _______ _______ _______ _____ _____    ______ ____

>  <TORSDO>
F 13

$$$$
=
 OpenBabel11062416153D

 44 49  0  0  1  0  0  0  0  0999 V2000
  184.7760  178.1660  146.5100 N   0  0  0  0  0  0  0  0  0  0  0  0
  183.4850  179.8550  143.6040 C   0  0  0  0  0  2  0  0  0  0  0  0
  185.6920  178.6870  144.4310 C   0  0  2  0  0  3  0  0  0  0  0  0
  186.8780  177.1320  146.1460 N   0  0  0  0  0  2  0  0  0  0  0  0
  183.8780  179.0520  145.9160 N   0  0  0  0  0  2  0  0  0  0  0  0
  183.2110  178.5860  142.8170 C   0  0  2  0  0  3  0  0  0  0  0  0
  184.5130  178.0490  142.2480 C   0  0  0  0  0  2  0  0  0  0  0  0
  184.4910  179.6170  144.7300 C   0  0  2  0  0  3  0  0  0  0  0  0
  185.3820  177.5820  143.4040 C   0  0  0  0  0  2  0  0  0  0  0  0
  185.8090  178.0020  145.7590 C   0  0  0  0  0  0  0  0  0  0  0  0
  182.1280  178.7870  141.7550 C   0  0  0  0  0  2  0  0  0  0  0  0
  182.6330  179.0840  140.3730 C   0  0  0  0  0  0  0  0  0  0  0  0
  182.1800  178.8580  137.8910 C   0  0  0  0  0  0  0  0  0  0  0  0
  181.7630  178.8560  139.2620 N   0  0  0  0  0  2  0  0  0  0  0  0
  183.7640  179.6170  140.1980 O   0  0  0  0  0  0  0  0  0  0  0  0
  183.3900  178.2230  137.4750 N   0  0  0  0  0  2  0  0  0  0  0  0
  181.3820  179.3240  136.9900 N   0  0  0  0  0  2  0  0  0  0  0  0
  184.1860  177.4690  138.3540 N   0  0  0  0  0  2  0  0  0  0  0  0
  185.0870  176.6110  137.5750 C   0  0  1  0  0  3  0  0  0  0  0  0
  185.1460  174.8240  135.9410 O   0  0  0  0  0  0  0  0  0  0  0  0
  184.1050  174.5580  136.7460 O   0  0  0  0  0  0  0  0  0  0  0  0
  184.3840  175.8670  136.4190 C   0  0  0  0  0  3  0  0  0  0  0  0
  186.4640  177.8640  136.0670 O   0  0  0  0  0  0  0  0  0  0  0  0
  186.3860  177.3030  137.1940 C   0  0  0  0  0  0  0  0  0  0  0  0
  189.7320  176.7260  138.7840 C   0  0  0  0  0  3  0  0  0  0  0  0
  188.6130  176.7160  137.8850 N   0  0  0  0  0  0  0  0  0  0  0  0
  187.4810  178.2440  139.2810 N   0  0  0  0  0  2  0  0  0  0  0  0
  189.7710  177.5590  139.8260 C   0  0  0  0  0  3  0  0  0  0  0  0
  188.6840  178.5720  140.0460 C   0  0  0  0  0  2  0  0  0  0  0  0
  187.5400  177.4140  138.1150 C   0  0  0  0  0  0  0  0  0  0  0  0
  188.2790  177.2820  145.7560 C   0  0  1  0  0  3  0  0  0  0  0  0
  191.5430  176.6180  142.8920 C   0  0  0  0  0  3  0  0  0  0  0  0
  188.4410  177.6750  144.2950 C   0  0  1  0  0  3  0  0  0  0  0  0
  189.7220  178.2170  144.1020 C   0  0  0  0  0  0  0  0  0  0  0  0
  190.2530  175.9980  143.0460 C   0  0  0  0  0  3  0  0  0  0  0  0
  189.4040  176.8600  143.6670 C   0  0  0  0  0  0  0  0  0  0  0  0
  190.9180  178.8560  143.9790 C   0  0  0  0  0  3  0  0  0  0  0  0
  191.8570  177.9790  143.3320 C   0  0  0  0  0  3  0  0  0  0  0  0
  188.9800  178.2820  146.6690 C   0  0  0  0  0  2  0  0  0  0  0  0
  189.7960  177.5530  147.7270 C   0  0  0  0  0  2  0  0  0  0  0  0
  190.5310  176.3640  147.1240 C   0  0  0  0  0  2  0  0  0  0  0  0
  192.3330  177.1470  148.4690 O   0  0  0  0  0  1  0  0  0  0  0  0
  192.7850  175.2840  147.2050 O   0  0  0  0  0  0  0  0  0  0  0  0
  191.9250  176.2880  147.6450 C   0  0  0  0  0  0  0  0  0  0  0  0
  3  9  1  6  0  0  0
  3  8  1  0  0  0  0
  3 10  1  0  0  0  0
  5  1  1  0  0  0  0
  6 11  1  6  0  0  0
  6  2  1  0  0  0  0
  7  6  1  0  0  0  0
  7  9  1  0  0  0  0
  8  2  1  6  0  0  0
  8  5  1  0  0  0  0
 10  4  1  0  0  0  0
 10  1  2  0  0  0  0
 12 11  1  0  0  0  0
 13 14  1  0  0  0  0
 14 12  1  0  0  0  0
 15 12  2  0  0  0  0
 16 13  1  0  0  0  0
 16 18  1  0  0  0  0
 17 13  2  0  0  0  0
 19 24  1  6  0  0  0
 19 18  1  0  0  0  0
 20 22  1  0  0  0  0
 20 21  1  0  0  0  0
 22 21  1  0  0  0  0
 22 19  1  0  0  0  0
 23 24  2  0  0  0  0
 24 30  1  0  0  0  0
 25 28  2  0  0  0  0
 26 30  2  0  0  0  0
 26 25  1  0  0  0  0
 27 29  1  0  0  0  0
 28 29  1  0  0  0  0
 30 27  1  0  0  0  0
 31  4  1  0  0  0  0
 31 39  1  1  0  0  0
 32 35  2  0  0  0  0
 32 38  1  0  0  0  0
 33 31  1  1  0  0  0
 34 33  1  0  0  0  0
 35 36  1  0  0  0  0
 36 34  2  0  0  0  0
 36 33  1  0  0  0  0
 37 34  1  0  0  0  0
 38 37  2  0  0  0  0
 39 40  1  0  0  0  0
 41 44  1  0  0  0  0
 41 40  1  0  0  0  0
 43 44  2  0  0  0  0
 44 42  1  0  0  0  0
M  END
>  <MODEL>
4

>  <REMARK>
 VINA RESULT:      -8.1      2.617      4.119
  Name = 
  13 active torsions:
  status: ('A' for Active; 'I' for Inactive)
    1  A    between atoms: C_4  and  C_8
    2  A    between atoms: C_5  and  C_33
    3  A    between atoms: C_8  and  C_26
    4  A    between atoms: N_10  and  C_33
    5  A    between atoms: C_17  and  C_22
    6  A    between atoms: C_17  and  C_32
    7  A    between atoms: C_19  and  N_31
    8  A    between atoms: C_19  and  C_43
    9  A    between atoms: C_19  and  C_44
   10  A    between atoms: C_22  and  C_30
   11  A    between atoms: N_24  and  N_31
   12  A    between atoms: C_32  and  C_33
   13  A    between atoms: C_39  and  C_44
                            x       y       z     vdW  Elec       q    Type
                         _______ _______ _______ _____ _____    ______ ____

>  <TORSDO>
F 13

$$$$
=
 OpenBabel11062416153D

 44 49  0  0  1  0  0  0  0  0999 V2000
  186.4070  177.3960  145.5170 N   0  0  0  0  0  0  0  0  0  0  0  0
  183.4520  179.4040  145.0750 C   0  0  0  0  0  2  0  0  0  0  0  0
  185.7290  178.8910  143.8630 C   0  0  2  0  0  3  0  0  0  0  0  0
  187.8270  177.3720  143.6190 N   0  0  0  0  0  2  0  0  0  0  0  0
  185.2920  178.0500  146.0380 N   0  0  0  0  0  2  0  0  0  0  0  0
  182.8040  178.4750  144.0650 C   0  0  2  0  0  3  0  0  0  0  0  0
  183.4550  178.6690  142.7050 C   0  0  0  0  0  2  0  0  0  0  0  0
  184.9590  179.1680  145.1770 C   0  0  2  0  0  3  0  0  0  0  0  0
  184.8890  178.1750  142.7890 C   0  0  0  0  0  2  0  0  0  0  0  0
  186.7160  177.8800  144.3640 C   0  0  0  0  0  0  0  0  0  0  0  0
  181.2820  178.6300  144.0290 C   0  0  0  0  0  2  0  0  0  0  0  0
  180.6990  178.9360  142.6800 C   0  0  0  0  0  0  0  0  0  0  0  0
  179.9390  177.9680  140.4670 C   0  0  0  0  0  0  0  0  0  0  0  0
  180.2790  177.8480  141.8530 N   0  0  0  0  0  2  0  0  0  0  0  0
  180.4900  180.1280  142.3210 O   0  0  0  0  0  0  0  0  0  0  0  0
  180.7190  178.7600  139.5690 N   0  0  0  0  0  2  0  0  0  0  0  0
  178.9880  177.2400  139.9860 N   0  0  0  0  0  2  0  0  0  0  0  0
  181.9200  179.3760  139.9580 N   0  0  0  0  0  2  0  0  0  0  0  0
  182.8940  179.2740  138.8640 C   0  0  1  0  0  3  0  0  0  0  0  0
  185.3020  179.3290  138.6060 O   0  0  0  0  0  0  0  0  0  0  0  0
  185.0520  179.7440  139.8580 O   0  0  0  0  0  0  0  0  0  0  0  0
  184.2740  178.7460  139.3140 C   0  0  0  0  0  3  0  0  0  0  0  0
  181.5190  179.2510  136.9010 O   0  0  0  0  0  0  0  0  0  0  0  0
  182.3260  178.6030  137.6230 C   0  0  0  0  0  0  0  0  0  0  0  0
  183.9400  175.8340  135.6800 C   0  0  0  0  0  3  0  0  0  0  0  0
  183.5700  177.1200  136.1970 N   0  0  0  0  0  0  0  0  0  0  0  0
  182.1820  176.0750  137.7930 N   0  0  0  0  0  2  0  0  0  0  0  0
  183.5400  174.7090  136.2770 C   0  0  0  0  0  3  0  0  0  0  0  0
  182.7610  174.7520  137.5610 C   0  0  0  0  0  2  0  0  0  0  0  0
  182.7310  177.2490  137.1820 C   0  0  0  0  0  0  0  0  0  0  0  0
  188.6300  178.1370  142.6660 C   0  0  1  0  0  3  0  0  0  0  0  0
  191.6580  175.9770  145.0030 C   0  0  0  0  0  3  0  0  0  0  0  0
  189.9670  178.5760  143.2460 C   0  0  1  0  0  3  0  0  0  0  0  0
  190.0650  178.1250  144.5710 C   0  0  0  0  0  0  0  0  0  0  0  0
  191.6150  176.3850  143.6240 C   0  0  0  0  0  3  0  0  0  0  0  0
  190.7900  177.4590  143.4920 C   0  0  0  0  0  0  0  0  0  0  0  0
  190.0720  177.7870  145.8910 C   0  0  0  0  0  3  0  0  0  0  0  0
  190.9270  176.6460  146.0810 C   0  0  0  0  0  3  0  0  0  0  0  0
  188.8310  177.3400  141.3810 C   0  0  0  0  0  2  0  0  0  0  0  0
  188.7470  178.2570  140.1690 C   0  0  0  0  0  2  0  0  0  0  0  0
  189.4090  177.6170  138.9570 C   0  0  0  0  0  2  0  0  0  0  0  0
  190.7150  175.6310  139.0930 O   0  0  0  0  0  0  0  0  0  0  0  0
  191.6520  177.4930  140.0560 O   0  0  0  0  0  1  0  0  0  0  0  0
  190.6260  176.8570  139.3610 C   0  0  0  0  0  0  0  0  0  0  0  0
  1  5  1  0  0  0  0
  3  9  1  6  0  0  0
  3 10  1  0  0  0  0
  3  8  1  0  0  0  0
  4 10  1  0  0  0  0
  6 11  1  6  0  0  0
  6  2  1  0  0  0  0
  7  9  1  0  0  0  0
  7  6  1  0  0  0  0
  8  2  1  6  0  0  0
  8  5  1  0  0  0  0
 10  1  2  0  0  0  0
 12 11  1  0  0  0  0
 13 14  1  0  0  0  0
 14 12  1  0  0  0  0
 15 12  2  0  0  0  0
 16 18  1  0  0  0  0
 16 13  1  0  0  0  0
 17 13  2  0  0  0  0
 19 24  1  6  0  0  0
 19 22  1  0  0  0  0
 19 18  1  0  0  0  0
 20 22  1  0  0  0  0
 20 21  1  0  0  0  0
 22 21  1  0  0  0  0
 23 24  2  0  0  0  0
 25 26  1  0  0  0  0
 25 28  2  0  0  0  0
 26 30  2  0  0  0  0
 28 29  1  0  0  0  0
 29 27  1  0  0  0  0
 30 24  1  0  0  0  0
 30 27  1  0  0  0  0
 31 39  1  6  0  0  0
 31  4  1  0  0  0  0
 32 38  1  0  0  0  0
 33 31  1  6  0  0  0
 33 36  1  0  0  0  0
 33 34  1  0  0  0  0
 34 37  1  0  0  0  0
 35 32  2  0  0  0  0
 36 35  1  0  0  0  0
 36 34  2  0  0  0  0
 37 38  2  0  0  0  0
 40 39  1  0  0  0  0
 41 44  1  0  0  0  0
 41 40  1  0  0  0  0
 42 44  2  0  0  0  0
 44 43  1  0  0  0  0
M  END
>  <MODEL>
5

>  <REMARK>
 VINA RESULT:      -7.8      1.602      1.975
  Name = 
  13 active torsions:
  status: ('A' for Active; 'I' for Inactive)
    1  A    between atoms: C_4  and  C_8
    2  A    between atoms: C_5  and  C_33
    3  A    between atoms: C_8  and  C_26
    4  A    between atoms: N_10  and  C_33
    5  A    between atoms: C_17  and  C_22
    6  A    between atoms: C_17  and  C_32
    7  A    between atoms: C_19  and  N_31
    8  A    between atoms: C_19  and  C_43
    9  A    between atoms: C_19  and  C_44
   10  A    between atoms: C_22  and  C_30
   11  A    between atoms: N_24  and  N_31
   12  A    between atoms: C_32  and  C_33
   13  A    between atoms: C_39  and  C_44
                            x       y       z     vdW  Elec       q    Type
                         _______ _______ _______ _____ _____    ______ ____

>  <TORSDO>
F 13

$$$$
=
 OpenBabel11062416153D

 44 49  0  0  1  0  0  0  0  0999 V2000
  180.3920  180.2640  141.6550 N   0  0  0  0  0  0  0  0  0  0  0  0
  182.4230  178.8370  144.2630 C   0  0  0  0  0  2  0  0  0  0  0  0
  181.8490  178.4460  141.7260 C   0  0  2  0  0  3  0  0  0  0  0  0
  180.8270  179.3490  139.5120 N   0  0  0  0  0  2  0  0  0  0  0  0
  180.6710  180.0600  143.0050 N   0  0  0  0  0  2  0  0  0  0  0  0
  183.7220  179.4620  143.7840 C   0  0  2  0  0  3  0  0  0  0  0  0
  184.2490  178.6850  142.5900 C   0  0  0  0  0  2  0  0  0  0  0  0
  181.3710  178.7990  143.1550 C   0  0  2  0  0  3  0  0  0  0  0  0
  183.2930  178.8910  141.4260 C   0  0  0  0  0  2  0  0  0  0  0  0
  180.9600  179.3580  140.9370 C   0  0  0  0  0  0  0  0  0  0  0  0
  184.7470  179.6010  144.9110 C   0  0  0  0  0  2  0  0  0  0  0  0
  185.6840  178.4390  145.0730 C   0  0  0  0  0  0  0  0  0  0  0  0
  187.7290  177.5590  146.2790 C   0  0  0  0  0  0  0  0  0  0  0  0
  186.6260  178.4630  146.1480 N   0  0  0  0  0  2  0  0  0  0  0  0
  185.5790  177.4170  144.3400 O   0  0  0  0  0  0  0  0  0  0  0  0
  188.5410  177.1990  145.1610 N   0  0  0  0  0  2  0  0  0  0  0  0
  188.0830  177.1640  147.4560 N   0  0  0  0  0  2  0  0  0  0  0  0
  188.3820  177.7860  143.8950 N   0  0  0  0  0  2  0  0  0  0  0  0
  189.6880  177.8640  143.2290 C   0  0  1  0  0  3  0  0  0  0  0  0
  192.0830  178.0230  143.5580 O   0  0  0  0  0  0  0  0  0  0  0  0
  191.5740  179.2010  143.9520 O   0  0  0  0  0  0  0  0  0  0  0  0
  190.8690  178.0460  144.2080 C   0  0  0  0  0  3  0  0  0  0  0  0
  190.0570  175.5910  142.5660 O   0  0  0  0  0  0  0  0  0  0  0  0
  189.8870  176.7810  142.1810 C   0  0  0  0  0  0  0  0  0  0  0  0
  188.7590  178.1040  138.8600 C   0  0  0  0  0  3  0  0  0  0  0  0
  188.9210  177.8680  140.2660 N   0  0  0  0  0  0  0  0  0  0  0  0
  190.6910  176.3770  139.8080 N   0  0  0  0  0  2  0  0  0  0  0  0
  189.6120  177.5900  137.9720 C   0  0  0  0  0  3  0  0  0  0  0  0
  190.8190  176.8160  138.4190 C   0  0  0  0  0  2  0  0  0  0  0  0
  189.8170  177.0450  140.7260 C   0  0  0  0  0  0  0  0  0  0  0  0
  180.8780  178.1610  138.6610 C   0  0  1  0  0  3  0  0  0  0  0  0
  179.6310  174.2510  140.2280 C   0  0  0  0  0  3  0  0  0  0  0  0
  179.5490  177.4230  138.6040 C   0  0  1  0  0  3  0  0  0  0  0  0
  179.7780  176.0870  138.2410 C   0  0  0  0  0  0  0  0  0  0  0  0
  179.3750  175.5960  140.6740 C   0  0  0  0  0  3  0  0  0  0  0  0
  179.4770  176.4520  139.6220 C   0  0  0  0  0  0  0  0  0  0  0  0
  180.0230  174.8360  137.7610 C   0  0  0  0  0  3  0  0  0  0  0  0
  179.9350  173.8900  138.8420 C   0  0  0  0  0  3  0  0  0  0  0  0
  181.3550  178.5310  137.2610 C   0  0  0  0  0  2  0  0  0  0  0  0
  182.6040  177.7380  136.8990 C   0  0  0  0  0  2  0  0  0  0  0  0
  183.4080  177.3910  138.1440 C   0  0  0  0  0  2  0  0  0  0  0  0
  185.6110  177.0280  137.3170 O   0  0  0  0  0  0  0  0  0  0  0  0
  185.3260  178.9440  138.5500 O   0  0  0  0  0  1  0  0  0  0  0  0
  184.8370  177.7750  137.9710 C   0  0  0  0  0  0  0  0  0  0  0  0
  1  5  1  0  0  0  0
  3  9  1  1  0  0  0
  3  8  1  0  0  0  0
  4 10  1  0  0  0  0
  5  8  1  0  0  0  0
  6  2  1  0  0  0  0
  6 11  1  1  0  0  0
  7  6  1  0  0  0  0
  8  2  1  1  0  0  0
  9  7  1  0  0  0  0
 10  1  2  0  0  0  0
 10  3  1  0  0  0  0
 11 12  1  0  0  0  0
 12 14  1  0  0  0  0
 13 17  2  0  0  0  0
 14 13  1  0  0  0  0
 15 12  2  0  0  0  0
 16 13  1  0  0  0  0
 18 16  1  0  0  0  0
 19 24  1  1  0  0  0
 19 18  1  0  0  0  0
 19 22  1  0  0  0  0
 20 21  1  0  0  0  0
 20 22  1  0  0  0  0
 21 22  1  0  0  0  0
 24 23  2  0  0  0  0
 25 26  1  0  0  0  0
 26 30  2  0  0  0  0
 27 30  1  0  0  0  0
 28 29  1  0  0  0  0
 28 25  2  0  0  0  0
 29 27  1  0  0  0  0
 30 24  1  0  0  0  0
 31 39  1  6  0  0  0
 31  4  1  0  0  0  0
 32 35  1  0  0  0  0
 33 31  1  1  0  0  0
 33 36  1  0  0  0  0
 34 33  1  0  0  0  0
 34 36  1  0  0  0  0
 36 35  2  0  0  0  0
 37 34  2  0  0  0  0
 37 38  1  0  0  0  0
 38 32  2  0  0  0  0
 40 39  1  0  0  0  0
 40 41  1  0  0  0  0
 42 44  2  0  0  0  0
 44 41  1  0  0  0  0
 44 43  1  0  0  0  0
M  END
>  <MODEL>
6

>  <REMARK>
 VINA RESULT:      -7.8      2.530      8.266
  Name = 
  13 active torsions:
  status: ('A' for Active; 'I' for Inactive)
    1  A    between atoms: C_4  and  C_8
    2  A    between atoms: C_5  and  C_33
    3  A    between atoms: C_8  and  C_26
    4  A    between atoms: N_10  and  C_33
    5  A    between atoms: C_17  and  C_22
    6  A    between atoms: C_17  and  C_32
    7  A    between atoms: C_19  and  N_31
    8  A    between atoms: C_19  and  C_43
    9  A    between atoms: C_19  and  C_44
   10  A    between atoms: C_22  and  C_30
   11  A    between atoms: N_24  and  N_31
   12  A    between atoms: C_32  and  C_33
   13  A    between atoms: C_39  and  C_44
                            x       y       z     vdW  Elec       q    Type
                         _______ _______ _______ _____ _____    ______ ____

>  <TORSDO>
F 13

$$$$
=
 OpenBabel11062416153D

 44 49  0  0  1  0  0  0  0  0999 V2000
  190.5100  178.0370  143.4110 N   0  0  0  0  0  0  0  0  0  0  0  0
  189.9670  176.8470  140.0570 C   0  0  0  0  0  2  0  0  0  0  0  0
  188.6380  177.2050  142.2980 C   0  0  2  0  0  3  0  0  0  0  0  0
  188.5100  178.2870  144.6600 N   0  0  0  0  0  2  0  0  0  0  0  0
  190.9910  177.5010  142.2180 N   0  0  0  0  0  2  0  0  0  0  0  0
  189.3080  178.1230  139.5630 C   0  0  2  0  0  3  0  0  0  0  0  0
  187.8710  178.1760  140.0550 C   0  0  0  0  0  2  0  0  0  0  0  0
  189.9300  176.7440  141.5810 C   0  0  2  0  0  3  0  0  0  0  0  0
  187.8910  178.3350  141.5660 C   0  0  0  0  0  2  0  0  0  0  0  0
  189.2430  177.8280  143.5200 C   0  0  0  0  0  0  0  0  0  0  0  0
  189.4300  178.2870  138.0470 C   0  0  0  0  0  2  0  0  0  0  0  0
  189.6760  177.0200  137.2820 C   0  0  0  0  0  0  0  0  0  0  0  0
  188.9420  174.6230  136.9220 C   0  0  0  0  0  0  0  0  0  0  0  0
  188.7230  175.9590  137.3880 N   0  0  0  0  0  2  0  0  0  0  0  0
  190.6480  176.9250  136.4820 O   0  0  0  0  0  0  0  0  0  0  0  0
  190.1840  173.9490  137.1320 N   0  0  0  0  0  2  0  0  0  0  0  0
  187.9540  173.9610  136.4190 N   0  0  0  0  0  2  0  0  0  0  0  0
  191.2210  174.5050  137.8990 N   0  0  0  0  0  2  0  0  0  0  0  0
  192.5130  174.1290  137.3100 C   0  0  1  0  0  3  0  0  0  0  0  0
  193.5670  173.0590  135.4100 O   0  0  0  0  0  0  0  0  0  0  0  0
  192.5050  172.3000  135.7230 O   0  0  0  0  0  0  0  0  0  0  0  0
  192.4100  173.6690  135.8390 C   0  0  0  0  0  3  0  0  0  0  0  0
  193.2970  176.2440  138.1200 O   0  0  0  0  0  0  0  0  0  0  0  0
  193.6110  175.1440  137.5880 C   0  0  0  0  0  0  0  0  0  0  0  0
  197.0420  175.2970  136.0860 C   0  0  0  0  0  3  0  0  0  0  0  0
  195.6760  175.5680  136.4310 N   0  0  0  0  0  0  0  0  0  0  0  0
  195.7350  173.8260  138.0200 N   0  0  0  0  0  2  0  0  0  0  0  0
  197.7620  174.4060  136.7710 C   0  0  0  0  0  3  0  0  0  0  0  0
  197.1930  173.7180  137.9780 C   0  0  0  0  0  2  0  0  0  0  0  0
  195.0430  174.8720  137.3290 C   0  0  0  0  0  0  0  0  0  0  0  0
  187.3040  177.6630  145.2010 C   0  0  1  0  0  3  0  0  0  0  0  0
  189.7160  178.2540  148.8240 C   0  0  0  0  0  3  0  0  0  0  0  0
  187.5950  176.7530  146.3850 C   0  0  1  0  0  3  0  0  0  0  0  0
  188.9680  176.7920  146.6710 C   0  0  0  0  0  0  0  0  0  0  0  0
  188.2940  178.2540  148.6020 C   0  0  0  0  0  3  0  0  0  0  0  0
  188.0050  177.5080  147.5020 C   0  0  0  0  0  0  0  0  0  0  0  0
  190.3200  176.7520  146.8350 C   0  0  0  0  0  3  0  0  0  0  0  0
  190.6780  177.5360  147.9870 C   0  0  0  0  0  3  0  0  0  0  0  0
  186.2770  178.7280  145.5740 C   0  0  0  0  0  2  0  0  0  0  0  0
  184.8760  178.1330  145.5860 C   0  0  0  0  0  2  0  0  0  0  0  0
  183.8510  179.1460  145.0960 C   0  0  0  0  0  2  0  0  0  0  0  0
  182.1770  178.9770  143.4110 O   0  0  0  0  0  1  0  0  0  0  0  0
  184.2690  178.2590  142.7950 O   0  0  0  0  0  0  0  0  0  0  0  0
  183.3830  178.8000  143.7240 C   0  0  0  0  0  0  0  0  0  0  0  0
  1 10  2  0  0  0  0
  3  9  1  6  0  0  0
  3 10  1  0  0  0  0
  4 31  1  0  0  0  0
  5  1  1  0  0  0  0
  6 11  1  6  0  0  0
  6  7  1  0  0  0  0
  6  2  1  0  0  0  0
  7  9  1  0  0  0  0
  8  2  1  6  0  0  0
  8  5  1  0  0  0  0
  8  3  1  0  0  0  0
 10  4  1  0  0  0  0
 12 14  1  0  0  0  0
 12 11  1  0  0  0  0
 13 16  1  0  0  0  0
 13 14  1  0  0  0  0
 15 12  2  0  0  0  0
 16 18  1  0  0  0  0
 17 13  2  0  0  0  0
 19 24  1  6  0  0  0
 19 18  1  0  0  0  0
 20 21  1  0  0  0  0
 20 22  1  0  0  0  0
 21 22  1  0  0  0  0
 22 19  1  0  0  0  0
 24 23  2  0  0  0  0
 25 26  1  0  0  0  0
 25 28  2  0  0  0  0
 26 30  2  0  0  0  0
 28 29  1  0  0  0  0
 29 27  1  0  0  0  0
 30 24  1  0  0  0  0
 30 27  1  0  0  0  0
 31 39  1  1  0  0  0
 33 31  1  6  0  0  0
 33 34  1  0  0  0  0
 33 36  1  0  0  0  0
 34 37  2  0  0  0  0
 34 36  1  0  0  0  0
 35 32  1  0  0  0  0
 36 35  2  0  0  0  0
 37 38  1  0  0  0  0
 38 32  2  0  0  0  0
 39 40  1  0  0  0  0
 41 40  1  0  0  0  0
 42 44  1  0  0  0  0
 43 44  2  0  0  0  0
 44 41  1  0  0  0  0
M  END
>  <MODEL>
7

>  <REMARK>
 VINA RESULT:      -7.7      4.503      7.877
  Name = 
  13 active torsions:
  status: ('A' for Active; 'I' for Inactive)
    1  A    between atoms: C_4  and  C_8
    2  A    between atoms: C_5  and  C_33
    3  A    between atoms: C_8  and  C_26
    4  A    between atoms: N_10  and  C_33
    5  A    between atoms: C_17  and  C_22
    6  A    between atoms: C_17  and  C_32
    7  A    between atoms: C_19  and  N_31
    8  A    between atoms: C_19  and  C_43
    9  A    between atoms: C_19  and  C_44
   10  A    between atoms: C_22  and  C_30
   11  A    between atoms: N_24  and  N_31
   12  A    between atoms: C_32  and  C_33
   13  A    between atoms: C_39  and  C_44
                            x       y       z     vdW  Elec       q    Type
                         _______ _______ _______ _____ _____    ______ ____

>  <TORSDO>
F 13

$$$$
=
 OpenBabel11062416153D

 44 49  0  0  1  0  0  0  0  0999 V2000
  184.4450  174.0870  137.8420 N   0  0  0  0  0  0  0  0  0  0  0  0
  187.3270  175.5560  136.2630 C   0  0  0  0  0  2  0  0  0  0  0  0
  184.7490  175.9970  136.5420 C   0  0  2  0  0  3  0  0  0  0  0  0
  182.5250  175.4760  137.7860 N   0  0  0  0  0  2  0  0  0  0  0  0
  185.7280  173.9770  137.3100 N   0  0  0  0  0  2  0  0  0  0  0  0
  187.5370  176.6230  137.3230 C   0  0  2  0  0  3  0  0  0  0  0  0
  186.5310  177.7440  137.1220 C   0  0  0  0  0  2  0  0  0  0  0  0
  185.9050  174.9980  136.2950 C   0  0  2  0  0  3  0  0  0  0  0  0
  185.1440  177.1990  137.4210 C   0  0  0  0  0  2  0  0  0  0  0  0
  183.8570  175.1380  137.3860 C   0  0  0  0  0  0  0  0  0  0  0  0
  188.9840  177.1160  137.3700 C   0  0  0  0  0  2  0  0  0  0  0  0
  189.3860  177.8070  138.6400 C   0  0  0  0  0  0  0  0  0  0  0  0
  190.5230  177.5480  140.8890 C   0  0  0  0  0  0  0  0  0  0  0  0
  190.2560  177.1240  139.5460 N   0  0  0  0  0  2  0  0  0  0  0  0
  189.0470  179.0020  138.8610 O   0  0  0  0  0  0  0  0  0  0  0  0
  189.4830  178.0160  141.7480 N   0  0  0  0  0  2  0  0  0  0  0  0
  191.7050  177.3780  141.3790 N   0  0  0  0  0  2  0  0  0  0  0  0
  188.1290  177.9880  141.3760 N   0  0  0  0  0  2  0  0  0  0  0  0
  187.2940  178.0640  142.5810 C   0  0  1  0  0  3  0  0  0  0  0  0
  185.0330  178.2540  143.4290 O   0  0  0  0  0  0  0  0  0  0  0  0
  185.2830  179.4010  142.7760 O   0  0  0  0  0  0  0  0  0  0  0  0
  185.7870  178.2200  142.2770 C   0  0  0  0  0  3  0  0  0  0  0  0
  187.7560  175.8010  143.2190 O   0  0  0  0  0  0  0  0  0  0  0  0
  187.6330  176.9960  143.6080 C   0  0  0  0  0  0  0  0  0  0  0  0
  189.4230  177.4740  146.8660 C   0  0  0  0  0  3  0  0  0  0  0  0
  189.1180  177.2590  145.4810 N   0  0  0  0  0  0  0  0  0  0  0  0
  186.8290  177.6030  145.9360 N   0  0  0  0  0  2  0  0  0  0  0  0
  188.4810  177.8590  147.7290 C   0  0  0  0  0  3  0  0  0  0  0  0
  187.0860  178.1640  147.2620 C   0  0  0  0  0  2  0  0  0  0  0  0
  187.8980  177.3020  145.0320 C   0  0  0  0  0  0  0  0  0  0  0  0
  181.5590  176.2190  136.9780 C   0  0  1  0  0  3  0  0  0  0  0  0
  180.5500  172.0140  137.7500 C   0  0  0  0  0  3  0  0  0  0  0  0
  180.3600  175.3730  136.5740 C   0  0  1  0  0  3  0  0  0  0  0  0
  180.8100  174.1360  136.0880 C   0  0  0  0  0  0  0  0  0  0  0  0
  180.0580  173.2430  138.3150 C   0  0  0  0  0  3  0  0  0  0  0  0
  180.2330  174.2560  137.4240 C   0  0  0  0  0  0  0  0  0  0  0  0
  181.2850  173.0030  135.5010 C   0  0  0  0  0  3  0  0  0  0  0  0
  181.1290  171.8990  136.4110 C   0  0  0  0  0  3  0  0  0  0  0  0
  181.1130  177.4800  137.7090 C   0  0  0  0  0  2  0  0  0  0  0  0
  182.0320  178.6450  137.3670 C   0  0  0  0  0  2  0  0  0  0  0  0
  181.9320  179.7420  138.4170 C   0  0  0  0  0  2  0  0  0  0  0  0
  184.1810  180.1340  139.0930 O   0  0  0  0  0  0  0  0  0  0  0  0
  182.8820  179.0000  140.6080 O   0  0  0  0  0  1  0  0  0  0  0  0
  183.0590  179.6470  139.3880 C   0  0  0  0  0  0  0  0  0  0  0  0
  2  6  1  0  0  0  0
  3 10  1  0  0  0  0
  3  9  1  1  0  0  0
  5  1  1  0  0  0  0
  6 11  1  6  0  0  0
  7  6  1  0  0  0  0
  7  9  1  0  0  0  0
  8  2  1  1  0  0  0
  8  3  1  0  0  0  0
  8  5  1  0  0  0  0
 10  4  1  0  0  0  0
 10  1  2  0  0  0  0
 11 12  1  0  0  0  0
 12 15  2  0  0  0  0
 12 14  1  0  0  0  0
 13 17  2  0  0  0  0
 13 16  1  0  0  0  0
 14 13  1  0  0  0  0
 18 16  1  0  0  0  0
 19 18  1  6  0  0  0
 19 24  1  0  0  0  0
 21 20  1  0  0  0  0
 22 19  1  0  0  0  0
 22 21  1  0  0  0  0
 22 20  1  0  0  0  0
 23 24  2  0  0  0  0
 24 30  1  0  0  0  0
 25 28  2  0  0  0  0
 26 25  1  0  0  0  0
 27 29  1  0  0  0  0
 29 28  1  0  0  0  0
 30 26  2  0  0  0  0
 30 27  1  0  0  0  0
 31 39  1  1  0  0  0
 31  4  1  0  0  0  0
 32 35  1  0  0  0  0
 33 31  1  1  0  0  0
 33 36  1  0  0  0  0
 34 33  1  0  0  0  0
 34 36  1  0  0  0  0
 36 35  2  0  0  0  0
 37 34  2  0  0  0  0
 37 38  1  0  0  0  0
 38 32  2  0  0  0  0
 40 39  1  0  0  0  0
 40 41  1  0  0  0  0
 41 44  1  0  0  0  0
 42 44  2  0  0  0  0
 44 43  1  0  0  0  0
M  END
>  <MODEL>
8

>  <REMARK>
 VINA RESULT:      -7.4      2.759      9.707
  Name = 
  13 active torsions:
  status: ('A' for Active; 'I' for Inactive)
    1  A    between atoms: C_4  and  C_8
    2  A    between atoms: C_5  and  C_33
    3  A    between atoms: C_8  and  C_26
    4  A    between atoms: N_10  and  C_33
    5  A    between atoms: C_17  and  C_22
    6  A    between atoms: C_17  and  C_32
    7  A    between atoms: C_19  and  N_31
    8  A    between atoms: C_19  and  C_43
    9  A    between atoms: C_19  and  C_44
   10  A    between atoms: C_22  and  C_30
   11  A    between atoms: N_24  and  N_31
   12  A    between atoms: C_32  and  C_33
   13  A    between atoms: C_39  and  C_44
                            x       y       z     vdW  Elec       q    Type
                         _______ _______ _______ _____ _____    ______ ____

>  <TORSDO>
F 13

$$$$
=
 OpenBabel11062416153D

 44 49  0  0  1  0  0  0  0  0999 V2000
  192.4790  177.1480  139.7560 N   0  0  0  0  0  0  0  0  0  0  0  0
  189.7420  175.9840  137.7280 C   0  0  0  0  0  2  0  0  0  0  0  0
  190.2180  176.7840  140.1880 C   0  0  2  0  0  3  0  0  0  0  0  0
  191.8020  177.9730  141.8730 N   0  0  0  0  0  2  0  0  0  0  0  0
  191.9950  176.4490  138.6520 N   0  0  0  0  0  2  0  0  0  0  0  0
  189.1530  177.3620  137.4850 C   0  0  2  0  0  3  0  0  0  0  0  0
  188.3890  177.8120  138.7190 C   0  0  0  0  0  2  0  0  0  0  0  0
  190.6600  175.9670  138.9500 C   0  0  2  0  0  3  0  0  0  0  0  0
  189.3870  178.0340  139.8430 C   0  0  0  0  0  2  0  0  0  0  0  0
  191.5550  177.2840  140.6430 C   0  0  0  0  0  0  0  0  0  0  0  0
  188.3160  177.4160  136.2060 C   0  0  0  0  0  2  0  0  0  0  0  0
  186.9150  176.8910  136.3340 C   0  0  0  0  0  0  0  0  0  0  0  0
  184.4870  177.2470  135.7070 C   0  0  0  0  0  0  0  0  0  0  0  0
  185.8900  177.4690  135.5220 N   0  0  0  0  0  2  0  0  0  0  0  0
  186.6620  175.8950  137.0660 O   0  0  0  0  0  0  0  0  0  0  0  0
  183.8930  177.2470  137.0060 N   0  0  0  0  0  2  0  0  0  0  0  0
  183.7180  177.1800  134.6730 N   0  0  0  0  0  2  0  0  0  0  0  0
  184.6180  177.5700  138.1650 N   0  0  0  0  0  2  0  0  0  0  0  0
  183.6830  177.7860  139.2760 C   0  0  1  0  0  3  0  0  0  0  0  0
  181.6330  176.5420  139.6190 O   0  0  0  0  0  0  0  0  0  0  0  0
  182.3600  175.8280  138.7450 O   0  0  0  0  0  0  0  0  0  0  0  0
  183.0010  176.4900  139.7680 C   0  0  0  0  0  3  0  0  0  0  0  0
  185.2490  179.3970  140.1080 O   0  0  0  0  0  0  0  0  0  0  0  0
  184.2590  178.6630  140.3760 C   0  0  0  0  0  0  0  0  0  0  0  0
  183.9260  178.8380  144.1060 C   0  0  0  0  0  3  0  0  0  0  0  0
  184.4440  178.8250  142.7680 N   0  0  0  0  0  0  0  0  0  0  0  0
  182.2460  178.7140  141.9210 N   0  0  0  0  0  2  0  0  0  0  0  0
  182.6130  178.9100  144.3360 C   0  0  0  0  0  3  0  0  0  0  0  0
  181.6390  179.0660  143.2040 C   0  0  0  0  0  2  0  0  0  0  0  0
  183.6650  178.7520  141.7300 C   0  0  0  0  0  0  0  0  0  0  0  0
  191.1250  177.7130  143.1430 C   0  0  1  0  0  3  0  0  0  0  0  0
  187.6210  177.2830  145.7560 C   0  0  0  0  0  3  0  0  0  0  0  0
  189.8950  178.5860  143.3400 C   0  0  1  0  0  3  0  0  0  0  0  0
  188.7490  177.7750  143.3440 C   0  0  0  0  0  0  0  0  0  0  0  0
  188.7840  178.1280  145.8330 C   0  0  0  0  0  3  0  0  0  0  0  0
  189.2920  178.3170  144.5860 C   0  0  0  0  0  0  0  0  0  0  0  0
  187.6540  176.9770  143.2100 C   0  0  0  0  0  3  0  0  0  0  0  0
  187.0820  176.7390  144.5080 C   0  0  0  0  0  3  0  0  0  0  0  0
  190.7680  176.2360  143.2610 C   0  0  0  0  0  2  0  0  0  0  0  0
  191.6180  175.5680  144.3330 C   0  0  0  0  0  2  0  0  0  0  0  0
  192.0320  176.5700  145.4010 C   0  0  0  0  0  2  0  0  0  0  0  0
  190.5950  175.8240  147.1470 O   0  0  0  0  0  0  0  0  0  0  0  0
  192.8400  175.7530  147.6220 O   0  0  0  0  0  1  0  0  0  0  0  0
  191.7770  176.0230  146.7640 C   0  0  0  0  0  0  0  0  0  0  0  0
  1 10  2  0  0  0  0
  3  9  1  6  0  0  0
  3 10  1  0  0  0  0
  4 31  1  0  0  0  0
  5  8  1  0  0  0  0
  5  1  1  0  0  0  0
  6 11  1  6  0  0  0
  6  2  1  0  0  0  0
  6  7  1  0  0  0  0
  7  9  1  0  0  0  0
  8  2  1  6  0  0  0
  8  3  1  0  0  0  0
 10  4  1  0  0  0  0
 11 12  1  0  0  0  0
 12 15  2  0  0  0  0
 13 16  1  0  0  0  0
 14 13  1  0  0  0  0
 14 12  1  0  0  0  0
 16 18  1  0  0  0  0
 17 13  2  0  0  0  0
 19 18  1  6  0  0  0
 19 22  1  0  0  0  0
 19 24  1  0  0  0  0
 20 22  1  0  0  0  0
 21 20  1  0  0  0  0
 21 22  1  0  0  0  0
 23 24  2  0  0  0  0
 24 30  1  0  0  0  0
 25 28  2  0  0  0  0
 26 25  1  0  0  0  0
 27 29  1  0  0  0  0
 29 28  1  0  0  0  0
 30 27  1  0  0  0  0
 30 26  2  0  0  0  0
 31 39  1  6  0  0  0
 32 35  1  0  0  0  0
 33 31  1  1  0  0  0
 33 34  1  0  0  0  0
 33 36  1  0  0  0  0
 34 36  1  0  0  0  0
 36 35  2  0  0  0  0
 37 34  2  0  0  0  0
 37 38  1  0  0  0  0
 38 32  2  0  0  0  0
 39 40  1  0  0  0  0
 40 41  1  0  0  0  0
 41 44  1  0  0  0  0
 44 42  2  0  0  0  0
 44 43  1  0  0  0  0
M  END
>  <MODEL>
9

>  <REMARK>
 VINA RESULT:      -7.3      3.124      6.464
  Name = 
  13 active torsions:
  status: ('A' for Active; 'I' for Inactive)
    1  A    between atoms: C_4  and  C_8
    2  A    between atoms: C_5  and  C_33
    3  A    between atoms: C_8  and  C_26
    4  A    between atoms: N_10  and  C_33
    5  A    between atoms: C_17  and  C_22
    6  A    between atoms: C_17  and  C_32
    7  A    between atoms: C_19  and  N_31
    8  A    between atoms: C_19  and  C_43
    9  A    between atoms: C_19  and  C_44
   10  A    between atoms: C_22  and  C_30
   11  A    between atoms: N_24  and  N_31
   12  A    between atoms: C_32  and  C_33
   13  A    between atoms: C_39  and  C_44
                            x       y       z     vdW  Elec       q    Type
                         _______ _______ _______ _____ _____    ______ ____

>  <TORSDO>
F 13

$$$$
