=
 OpenBabel11062413013D

 38 40  0  0  1  0  0  0  0  0999 V2000
  183.5400  178.3360  142.3860 C   0  0  1  0  0  3  0  0  0  0  0  0
  184.9090  179.3110  144.8790 C   0  0  2  0  0  3  0  0  0  0  0  0
  185.0150  178.0090  142.6920 C   0  0  0  0  0  2  0  0  0  0  0  0
  182.8280  179.1180  143.4980 C   0  0  0  0  0  2  0  0  0  0  0  0
  183.4510  178.8400  144.8600 C   0  0  0  0  0  2  0  0  0  0  0  0
  185.6730  179.0760  143.5660 C   0  0  0  0  0  2  0  0  0  0  0  0
  185.6570  178.7850  146.0670 C   0  0  0  0  0  0  0  0  0  0  0  0
  185.6090  179.4400  147.1400 O   0  0  0  0  0  0  0  0  0  0  0  0
  186.4210  177.6130  146.0300 O   0  0  0  0  0  0  0  0  0  0  0  0
  187.7860  177.5530  146.4210 C   0  0  0  0  0  2  0  0  0  0  0  0
  188.6590  177.1780  145.2320 C   0  0  0  0  0  2  0  0  0  0  0  0
  190.0280  177.8400  145.3170 C   0  0  1  0  0  3  0  0  0  0  0  0
  190.9420  176.9500  145.8850 O   0  0  0  0  0  1  0  0  0  0  0  0
  190.5060  178.2860  143.9380 C   0  0  2  0  0  3  0  0  0  0  0  0
  191.0030  179.5920  143.9840 O   0  0  0  0  0  1  0  0  0  0  0  0
  189.3750  178.1880  142.9240 C   0  0  0  0  0  2  0  0  0  0  0  0
  190.0950  177.4970  139.4190 C   0  0  0  0  0  0  0  0  0  0  0  0
  187.5120  178.1740  138.7940 C   0  0  0  0  0  3  0  0  0  0  0  0
  187.8960  178.1140  140.1430 C   0  0  0  0  0  3  0  0  0  0  0  0
  188.4570  177.8900  137.7830 C   0  0  0  0  0  3  0  0  0  0  0  0
  189.7430  177.5580  138.1090 N   0  0  0  0  0  0  0  0  0  0  0  0
  191.3880  177.2110  139.9250 N   0  0  0  0  0  0  0  0  0  0  0  0
  191.2750  177.3280  141.3890 C   0  0  0  0  0  3  0  0  0  0  0  0
  189.8670  177.6470  141.6660 N   0  0  0  0  0  0  0  0  0  0  0  0
  189.2160  177.7610  140.4150 C   0  0  0  0  0  0  0  0  0  0  0  0
  184.6040  179.4490  140.5400 O   0  0  0  0  0  1  0  0  0  0  0  0
  183.3640  179.0400  141.0380 C   0  0  1  0  0  3  0  0  0  0  0  0
  182.6220  178.1480  140.0210 C   0  0  1  0  0  3  0  0  0  0  0  0
  180.8410  176.4340  140.3560 O   0  0  0  0  0  0  0  0  0  0  0  0
  181.2720  177.7430  140.5270 C   0  0  0  0  0  0  0  0  0  0  0  0
  180.5180  178.5800  141.0910 O   0  0  0  0  0  1  0  0  0  0  0  0
  183.5590  178.2130  137.6830 C   0  0  0  0  0  1  0  0  0  0  0  0
  182.4920  178.7550  138.6170 C   0  0  2  0  0  3  0  0  0  0  0  0
  182.5420  180.2120  138.6540 N   0  0  0  0  0  2  0  0  0  0  0  0
  180.9480  180.8140  138.2360 P   0  0  0  0  0  0  0  0  0  0  0  0
  179.9610  179.5130  137.7990 O   0  0  0  0  0  1  0  0  0  0  0  0
  181.0630  181.8900  136.9360 O   0  0  0  0  0  0  0  0  0  0  0  0
  180.3420  181.5220  139.4270 O   0  0  0  0  0  1  0  0  0  0  0  0
  1 27  1  6  0  0  0
  1  3  1  0  0  0  0
  1  4  1  0  0  0  0
  2  7  1  1  0  0  0
  3  6  1  0  0  0  0
  4  5  1  0  0  0  0
  5  2  1  0  0  0  0
  6  2  1  0  0  0  0
  7  8  2  0  0  0  0
  9  7  1  0  0  0  0
  9 10  1  0  0  0  0
 11 12  1  0  0  0  0
 11 10  1  0  0  0  0
 12 13  1  6  0  0  0
 14 15  1  1  0  0  0
 14 12  1  0  0  0  0
 16 14  1  0  0  0  0
 17 22  1  0  0  0  0
 17 25  1  0  0  0  0
 18 19  1  0  0  0  0
 19 25  2  0  0  0  0
 20 21  1  0  0  0  0
 20 18  2  0  0  0  0
 21 17  2  0  0  0  0
 22 23  2  0  0  0  0
 23 24  1  0  0  0  0
 24 16  1  0  0  0  0
 25 24  1  0  0  0  0
 27 26  1  6  0  0  0
 28 30  1  1  0  0  0
 28 27  1  0  0  0  0
 29 30  2  0  0  0  0
 30 31  1  0  0  0  0
 33 32  1  6  0  0  0
 33 34  1  0  0  0  0
 33 28  1  0  0  0  0
 35 34  1  0  0  0  0
 35 38  1  0  0  0  0
 36 35  1  0  0  0  0
 37 35  2  0  0  0  0
M  END
>  <MODEL>
1

>  <REMARK>
 VINA RESULT:      -7.6      0.000      0.000
  Name = 
  14 active torsions:
  status: ('A' for Active; 'I' for Inactive)
    1  A    between atoms: C_1  and  C_3
    2  A    between atoms: C_1  and  C_37
    3  A    between atoms: C_3  and  C_32
    4  A    between atoms: C_4  and  C_29
    5  A    between atoms: C_5  and  C_15
    6  A    between atoms: P_8  and  N_21
    7  A    between atoms: C_13  and  C_24
    8  A    between atoms: C_15  and  O_19
    9  A    between atoms: C_16  and  N_30
   10  A    between atoms: C_16  and  C_32
   11  A    between atoms: O_19  and  C_37
   12  A    between atoms: N_21  and  C_27
   13  A    between atoms: C_24  and  C_27
   14  A    between atoms: C_24  and  C_29
                            x       y       z     vdW  Elec       q    Type
                         _______ _______ _______ _____ _____    ______ ____

>  <TORSDO>
F 14

$$$$
=
 OpenBabel11062413013D

 38 40  0  0  1  0  0  0  0  0999 V2000
  183.4950  178.3120  142.5000 C   0  0  1  0  0  3  0  0  0  0  0  0
  184.7600  179.3490  145.0230 C   0  0  2  0  0  3  0  0  0  0  0  0
  184.9840  178.0780  142.8270 C   0  0  0  0  0  2  0  0  0  0  0  0
  182.7170  179.0360  143.6080 C   0  0  0  0  0  2  0  0  0  0  0  0
  183.3360  178.7850  144.9770 C   0  0  0  0  0  2  0  0  0  0  0  0
  185.5580  179.1770  143.7210 C   0  0  0  0  0  2  0  0  0  0  0  0
  185.5220  178.8610  146.2190 C   0  0  0  0  0  0  0  0  0  0  0  0
  185.6760  179.6470  147.1890 O   0  0  0  0  0  0  0  0  0  0  0  0
  186.0850  177.5820  146.2940 O   0  0  0  0  0  0  0  0  0  0  0  0
  187.4610  177.3450  146.5590 C   0  0  0  0  0  2  0  0  0  0  0  0
  188.2800  177.5140  145.2890 C   0  0  0  0  0  2  0  0  0  0  0  0
  189.7450  177.7830  145.6030 C   0  0  1  0  0  3  0  0  0  0  0  0
  190.0330  177.3460  146.8970 O   0  0  0  0  0  1  0  0  0  0  0  0
  190.6570  177.0920  144.5920 C   0  0  2  0  0  3  0  0  0  0  0  0
  191.6820  176.3980  145.2420 O   0  0  0  0  0  1  0  0  0  0  0  0
  191.2410  178.1060  143.6190 C   0  0  0  0  0  2  0  0  0  0  0  0
  190.4220  177.5650  140.1100 C   0  0  0  0  0  0  0  0  0  0  0  0
  187.8450  178.3430  140.6300 C   0  0  0  0  0  3  0  0  0  0  0  0
  188.7470  178.2070  141.6980 C   0  0  0  0  0  3  0  0  0  0  0  0
  188.2770  178.0820  139.3100 C   0  0  0  0  0  3  0  0  0  0  0  0
  189.5660  177.6990  139.0650 N   0  0  0  0  0  0  0  0  0  0  0  0
  191.7950  177.2190  140.0270 N   0  0  0  0  0  0  0  0  0  0  0  0
  192.3000  177.2680  141.4100 C   0  0  0  0  0  3  0  0  0  0  0  0
  191.1470  177.6130  142.2540 N   0  0  0  0  0  0  0  0  0  0  0  0
  190.0440  177.8050  141.3880 C   0  0  0  0  0  0  0  0  0  0  0  0
  184.5300  179.3690  140.6060 O   0  0  0  0  0  1  0  0  0  0  0  0
  183.2940  179.0170  141.1560 C   0  0  1  0  0  3  0  0  0  0  0  0
  182.4740  178.1520  140.1770 C   0  0  1  0  0  3  0  0  0  0  0  0
  180.1970  177.1400  140.2740 O   0  0  0  0  0  0  0  0  0  0  0  0
  181.0050  178.2540  140.4490 C   0  0  0  0  0  0  0  0  0  0  0  0
  180.4940  179.3440  140.8210 O   0  0  0  0  0  1  0  0  0  0  0  0
  181.8910  179.5810  138.1840 C   0  0  0  0  0  1  0  0  0  0  0  0
  182.7500  178.4360  138.6930 C   0  0  2  0  0  3  0  0  0  0  0  0
  182.5490  177.2470  137.8710 N   0  0  0  0  0  2  0  0  0  0  0  0
  184.0570  176.9110  137.0380 P   0  0  0  0  0  0  0  0  0  0  0  0
  184.4970  175.3020  137.3150 O   0  0  0  0  0  1  0  0  0  0  0  0
  185.2740  177.9310  137.6210 O   0  0  0  0  0  1  0  0  0  0  0  0
  183.8790  177.1310  135.5530 O   0  0  0  0  0  0  0  0  0  0  0  0
  1 27  1  6  0  0  0
  1  3  1  0  0  0  0
  1  4  1  0  0  0  0
  2  7  1  1  0  0  0
  3  6  1  0  0  0  0
  4  5  1  0  0  0  0
  5  2  1  0  0  0  0
  6  2  1  0  0  0  0
  7  9  1  0  0  0  0
  7  8  2  0  0  0  0
  9 10  1  0  0  0  0
 11 12  1  0  0  0  0
 11 10  1  0  0  0  0
 12 13  1  1  0  0  0
 14 15  1  1  0  0  0
 14 12  1  0  0  0  0
 16 14  1  0  0  0  0
 17 25  1  0  0  0  0
 18 19  1  0  0  0  0
 20 18  2  0  0  0  0
 21 20  1  0  0  0  0
 21 17  2  0  0  0  0
 22 17  1  0  0  0  0
 22 23  2  0  0  0  0
 23 24  1  0  0  0  0
 24 16  1  0  0  0  0
 25 19  2  0  0  0  0
 25 24  1  0  0  0  0
 27 26  1  6  0  0  0
 28 30  1  6  0  0  0
 28 27  1  0  0  0  0
 29 30  2  0  0  0  0
 30 31  1  0  0  0  0
 33 32  1  6  0  0  0
 33 28  1  0  0  0  0
 34 33  1  0  0  0  0
 35 36  1  0  0  0  0
 35 37  1  0  0  0  0
 35 34  1  0  0  0  0
 38 35  2  0  0  0  0
M  END
>  <MODEL>
2

>  <REMARK>
 VINA RESULT:      -7.5      1.749      2.286
  Name = 
  14 active torsions:
  status: ('A' for Active; 'I' for Inactive)
    1  A    between atoms: C_1  and  C_3
    2  A    between atoms: C_1  and  C_37
    3  A    between atoms: C_3  and  C_32
    4  A    between atoms: C_4  and  C_29
    5  A    between atoms: C_5  and  C_15
    6  A    between atoms: P_8  and  N_21
    7  A    between atoms: C_13  and  C_24
    8  A    between atoms: C_15  and  O_19
    9  A    between atoms: C_16  and  N_30
   10  A    between atoms: C_16  and  C_32
   11  A    between atoms: O_19  and  C_37
   12  A    between atoms: N_21  and  C_27
   13  A    between atoms: C_24  and  C_27
   14  A    between atoms: C_24  and  C_29
                            x       y       z     vdW  Elec       q    Type
                         _______ _______ _______ _____ _____    ______ ____

>  <TORSDO>
F 14

$$$$
=
 OpenBabel11062413013D

 38 40  0  0  1  0  0  0  0  0999 V2000
  184.0500  179.0230  142.6060 C   0  0  1  0  0  3  0  0  0  0  0  0
  185.3860  178.0710  145.1260 C   0  0  2  0  0  3  0  0  0  0  0  0
  183.7950  179.6910  143.9720 C   0  0  0  0  0  2  0  0  0  0  0  0
  185.1000  177.9040  142.6430 C   0  0  0  0  0  2  0  0  0  0  0  0
  186.1010  178.1170  143.7720 C   0  0  0  0  0  2  0  0  0  0  0  0
  183.9930  178.7200  145.1350 C   0  0  0  0  0  2  0  0  0  0  0  0
  186.2510  178.5810  146.2390 C   0  0  0  0  0  0  0  0  0  0  0  0
  185.6920  179.0960  147.2410 O   0  0  0  0  0  0  0  0  0  0  0  0
  187.6490  178.5270  146.2040 O   0  0  0  0  0  0  0  0  0  0  0  0
  188.3950  177.3450  146.4590 C   0  0  0  0  0  2  0  0  0  0  0  0
  189.2440  176.9860  145.2500 C   0  0  0  0  0  2  0  0  0  0  0  0
  190.6710  177.4990  145.3980 C   0  0  1  0  0  3  0  0  0  0  0  0
  191.4880  176.4740  145.8770 O   0  0  0  0  0  1  0  0  0  0  0  0
  191.2030  178.0280  144.0680 C   0  0  2  0  0  3  0  0  0  0  0  0
  191.9370  179.2020  144.2600 O   0  0  0  0  0  1  0  0  0  0  0  0
  190.0590  178.2740  143.0960 C   0  0  0  0  0  2  0  0  0  0  0  0
  190.2620  177.4630  139.5490 C   0  0  0  0  0  0  0  0  0  0  0  0
  187.6270  178.1690  139.2740 C   0  0  0  0  0  3  0  0  0  0  0  0
  188.1980  178.1430  140.5570 C   0  0  0  0  0  3  0  0  0  0  0  0
  188.4150  177.8370  138.1500 C   0  0  0  0  0  3  0  0  0  0  0  0
  189.7280  177.4900  138.3010 N   0  0  0  0  0  0  0  0  0  0  0  0
  191.6100  177.1680  139.8760 N   0  0  0  0  0  0  0  0  0  0  0  0
  191.7080  177.3320  141.3370 C   0  0  0  0  0  3  0  0  0  0  0  0
  190.3590  177.6860  141.7990 N   0  0  0  0  0  0  0  0  0  0  0  0
  189.5380  177.7740  140.6510 C   0  0  0  0  0  0  0  0  0  0  0  0
  181.6670  178.7700  142.7800 O   0  0  0  0  0  1  0  0  0  0  0  0
  182.7620  178.5280  141.9450 C   0  0  1  0  0  3  0  0  0  0  0  0
  182.5530  179.1650  140.5550 C   0  0  1  0  0  3  0  0  0  0  0  0
  184.4610  180.1600  139.2940 O   0  0  0  0  0  0  0  0  0  0  0  0
  183.7730  179.0240  139.6970 C   0  0  0  0  0  0  0  0  0  0  0  0
  184.1710  177.8870  139.3260 O   0  0  0  0  0  1  0  0  0  0  0  0
  180.2870  179.7470  139.6200 C   0  0  0  0  0  1  0  0  0  0  0  0
  181.3210  178.6490  139.7970 C   0  0  2  0  0  3  0  0  0  0  0  0
  180.7270  177.4930  140.4590 N   0  0  0  0  0  2  0  0  0  0  0  0
  180.8270  176.1340  139.3540 P   0  0  0  0  0  0  0  0  0  0  0  0
  180.6380  176.6930  137.7690 O   0  0  0  0  0  0  0  0  0  0  0  0
  179.6040  175.0190  139.7030 O   0  0  0  0  0  1  0  0  0  0  0  0
  182.1760  175.4650  139.4890 O   0  0  0  0  0  1  0  0  0  0  0  0
  1 27  1  1  0  0  0
  1  4  1  0  0  0  0
  1  3  1  0  0  0  0
  2  6  1  0  0  0  0
  2  7  1  1  0  0  0
  3  6  1  0  0  0  0
  4  5  1  0  0  0  0
  5  2  1  0  0  0  0
  7  8  2  0  0  0  0
  9  7  1  0  0  0  0
  9 10  1  0  0  0  0
 11 12  1  0  0  0  0
 11 10  1  0  0  0  0
 12 13  1  6  0  0  0
 14 15  1  1  0  0  0
 14 12  1  0  0  0  0
 16 14  1  0  0  0  0
 17 22  1  0  0  0  0
 17 25  1  0  0  0  0
 18 19  1  0  0  0  0
 19 25  2  0  0  0  0
 20 21  1  0  0  0  0
 20 18  2  0  0  0  0
 21 17  2  0  0  0  0
 22 23  2  0  0  0  0
 23 24  1  0  0  0  0
 24 16  1  0  0  0  0
 25 24  1  0  0  0  0
 27 26  1  1  0  0  0
 28 30  1  6  0  0  0
 28 27  1  0  0  0  0
 29 30  2  0  0  0  0
 31 30  1  0  0  0  0
 33 32  1  1  0  0  0
 33 34  1  0  0  0  0
 33 28  1  0  0  0  0
 35 38  1  0  0  0  0
 35 37  1  0  0  0  0
 35 34  1  0  0  0  0
 36 35  2  0  0  0  0
M  END
>  <MODEL>
3

>  <REMARK>
 VINA RESULT:      -7.4      1.768      2.671
  Name = 
  14 active torsions:
  status: ('A' for Active; 'I' for Inactive)
    1  A    between atoms: C_1  and  C_3
    2  A    between atoms: C_1  and  C_37
    3  A    between atoms: C_3  and  C_32
    4  A    between atoms: C_4  and  C_29
    5  A    between atoms: C_5  and  C_15
    6  A    between atoms: P_8  and  N_21
    7  A    between atoms: C_13  and  C_24
    8  A    between atoms: C_15  and  O_19
    9  A    between atoms: C_16  and  N_30
   10  A    between atoms: C_16  and  C_32
   11  A    between atoms: O_19  and  C_37
   12  A    between atoms: N_21  and  C_27
   13  A    between atoms: C_24  and  C_27
   14  A    between atoms: C_24  and  C_29
                            x       y       z     vdW  Elec       q    Type
                         _______ _______ _______ _____ _____    ______ ____

>  <TORSDO>
F 14

$$$$
=
 OpenBabel11062413013D

 38 40  0  0  1  0  0  0  0  0999 V2000
  184.1150  179.0430  142.7730 C   0  0  1  0  0  3  0  0  0  0  0  0
  185.3960  178.1140  145.3290 C   0  0  2  0  0  3  0  0  0  0  0  0
  183.8890  179.7690  144.1140 C   0  0  0  0  0  2  0  0  0  0  0  0
  185.1090  177.8750  142.8520 C   0  0  0  0  0  2  0  0  0  0  0  0
  186.1160  178.0780  143.9770 C   0  0  0  0  0  2  0  0  0  0  0  0
  184.0360  178.8290  145.3110 C   0  0  0  0  0  2  0  0  0  0  0  0
  186.2820  178.6190  146.4280 C   0  0  0  0  0  0  0  0  0  0  0  0
  185.7620  179.3030  147.3470 O   0  0  0  0  0  0  0  0  0  0  0  0
  187.6610  178.3810  146.4660 O   0  0  0  0  0  0  0  0  0  0  0  0
  188.3070  177.6780  147.5180 C   0  0  0  0  0  2  0  0  0  0  0  0
  189.4100  176.7910  146.9610 C   0  0  0  0  0  2  0  0  0  0  0  0
  190.2260  177.5180  145.9000 C   0  0  1  0  0  3  0  0  0  0  0  0
  191.5810  177.2310  146.0750 O   0  0  0  0  0  1  0  0  0  0  0  0
  189.7750  177.1220  144.4970 C   0  0  2  0  0  3  0  0  0  0  0  0
  190.4260  175.9580  144.0770 O   0  0  0  0  0  1  0  0  0  0  0  0
  190.0340  178.2540  143.5130 C   0  0  0  0  0  2  0  0  0  0  0  0
  190.3270  177.5610  139.9470 C   0  0  0  0  0  0  0  0  0  0  0  0
  187.6650  178.1480  139.6520 C   0  0  0  0  0  3  0  0  0  0  0  0
  188.2180  178.1100  140.9430 C   0  0  0  0  0  3  0  0  0  0  0  0
  188.4840  177.8870  138.5310 C   0  0  0  0  0  3  0  0  0  0  0  0
  189.8100  177.6010  138.6930 N   0  0  0  0  0  0  0  0  0  0  0  0
  191.6830  177.3210  140.2870 N   0  0  0  0  0  0  0  0  0  0  0  0
  191.7520  177.4450  141.7530 C   0  0  0  0  0  3  0  0  0  0  0  0
  190.3810  177.7200  142.2050 N   0  0  0  0  0  0  0  0  0  0  0  0
  189.5730  177.8030  141.0470 C   0  0  0  0  0  0  0  0  0  0  0  0
  181.7300  178.8380  142.9800 O   0  0  0  0  0  1  0  0  0  0  0  0
  182.8050  178.5890  142.1240 C   0  0  1  0  0  3  0  0  0  0  0  0
  182.5900  179.2560  140.7490 C   0  0  1  0  0  3  0  0  0  0  0  0
  184.5240  180.0330  139.3790 O   0  0  0  0  0  0  0  0  0  0  0  0
  183.7310  178.9820  139.8190 C   0  0  0  0  0  0  0  0  0  0  0  0
  183.9690  177.8100  139.4200 O   0  0  0  0  0  1  0  0  0  0  0  0
  181.0040  177.3970  140.1290 C   0  0  0  0  0  1  0  0  0  0  0  0
  181.2630  178.8920  140.0670 C   0  0  2  0  0  3  0  0  0  0  0  0
  181.2240  179.3580  138.6850 N   0  0  0  0  0  2  0  0  0  0  0  0
  180.5100  180.9610  138.6790 P   0  0  0  0  0  0  0  0  0  0  0  0
  179.2930  181.0220  137.5060 O   0  0  0  0  0  0  0  0  0  0  0  0
  181.6930  182.1150  138.3170 O   0  0  0  0  0  1  0  0  0  0  0  0
  179.9120  181.2570  140.0360 O   0  0  0  0  0  1  0  0  0  0  0  0
  1 27  1  1  0  0  0
  1  4  1  0  0  0  0
  1  3  1  0  0  0  0
  2  7  1  1  0  0  0
  3  6  1  0  0  0  0
  4  5  1  0  0  0  0
  5  2  1  0  0  0  0
  6  2  1  0  0  0  0
  7  9  1  0  0  0  0
  7  8  2  0  0  0  0
  9 10  1  0  0  0  0
 11 10  1  0  0  0  0
 12 13  1  6  0  0  0
 12 11  1  0  0  0  0
 14 15  1  6  0  0  0
 14 12  1  0  0  0  0
 16 14  1  0  0  0  0
 17 22  1  0  0  0  0
 17 25  1  0  0  0  0
 18 19  1  0  0  0  0
 19 25  2  0  0  0  0
 20 21  1  0  0  0  0
 20 18  2  0  0  0  0
 21 17  2  0  0  0  0
 22 23  2  0  0  0  0
 23 24  1  0  0  0  0
 24 16  1  0  0  0  0
 25 24  1  0  0  0  0
 27 26  1  1  0  0  0
 28 30  1  6  0  0  0
 28 27  1  0  0  0  0
 29 30  2  0  0  0  0
 31 30  1  0  0  0  0
 33 32  1  6  0  0  0
 33 28  1  0  0  0  0
 34 33  1  0  0  0  0
 35 34  1  0  0  0  0
 35 38  1  0  0  0  0
 36 35  2  0  0  0  0
 37 35  1  0  0  0  0
M  END
>  <MODEL>
4

>  <REMARK>
 VINA RESULT:      -7.4      1.333      2.021
  Name = 
  14 active torsions:
  status: ('A' for Active; 'I' for Inactive)
    1  A    between atoms: C_1  and  C_3
    2  A    between atoms: C_1  and  C_37
    3  A    between atoms: C_3  and  C_32
    4  A    between atoms: C_4  and  C_29
    5  A    between atoms: C_5  and  C_15
    6  A    between atoms: P_8  and  N_21
    7  A    between atoms: C_13  and  C_24
    8  A    between atoms: C_15  and  O_19
    9  A    between atoms: C_16  and  N_30
   10  A    between atoms: C_16  and  C_32
   11  A    between atoms: O_19  and  C_37
   12  A    between atoms: N_21  and  C_27
   13  A    between atoms: C_24  and  C_27
   14  A    between atoms: C_24  and  C_29
                            x       y       z     vdW  Elec       q    Type
                         _______ _______ _______ _____ _____    ______ ____

>  <TORSDO>
F 14

$$$$
=
 OpenBabel11062413013D

 38 40  0  0  1  0  0  0  0  0999 V2000
  182.7450  178.3860  141.8080 C   0  0  1  0  0  3  0  0  0  0  0  0
  184.0550  179.4040  144.3160 C   0  0  2  0  0  3  0  0  0  0  0  0
  184.2580  178.2310  142.0640 C   0  0  0  0  0  2  0  0  0  0  0  0
  181.9740  179.0190  142.9740 C   0  0  0  0  0  2  0  0  0  0  0  0
  182.6660  178.7560  144.3060 C   0  0  0  0  0  2  0  0  0  0  0  0
  184.8040  179.3290  142.9760 C   0  0  0  0  0  2  0  0  0  0  0  0
  184.8960  178.9200  145.4590 C   0  0  0  0  0  0  0  0  0  0  0  0
  184.3570  178.8040  146.5890 O   0  0  0  0  0  0  0  0  0  0  0  0
  186.2550  178.6120  145.3280 O   0  0  0  0  0  0  0  0  0  0  0  0
  186.8380  177.4120  145.8160 C   0  0  0  0  0  2  0  0  0  0  0  0
  188.1050  177.0870  145.0410 C   0  0  0  0  0  2  0  0  0  0  0  0
  189.3510  177.5040  145.8110 C   0  0  1  0  0  3  0  0  0  0  0  0
  189.4500  176.7520  146.9830 O   0  0  0  0  0  1  0  0  0  0  0  0
  190.6050  177.3280  144.9580 C   0  0  2  0  0  3  0  0  0  0  0  0
  191.7550  177.3710  145.7530 O   0  0  0  0  0  1  0  0  0  0  0  0
  190.6720  178.3980  143.8780 C   0  0  0  0  0  2  0  0  0  0  0  0
  190.1910  177.5570  140.3650 C   0  0  0  0  0  0  0  0  0  0  0  0
  187.5900  178.4060  140.5570 C   0  0  0  0  0  3  0  0  0  0  0  0
  188.3800  178.3550  141.7170 C   0  0  0  0  0  3  0  0  0  0  0  0
  188.1440  178.0240  139.3150 C   0  0  0  0  0  3  0  0  0  0  0  0
  189.4440  177.6070  139.2340 N   0  0  0  0  0  0  0  0  0  0  0  0
  191.5570  177.1900  140.4500 N   0  0  0  0  0  0  0  0  0  0  0  0
  191.9250  177.3560  141.8670 C   0  0  0  0  0  3  0  0  0  0  0  0
  190.7020  177.7870  142.5580 N   0  0  0  0  0  0  0  0  0  0  0  0
  189.6940  177.9140  141.5740 C   0  0  0  0  0  0  0  0  0  0  0  0
  183.0570  178.4760  139.4270 O   0  0  0  0  0  1  0  0  0  0  0  0
  182.4450  179.1260  140.5020 C   0  0  1  0  0  3  0  0  0  0  0  0
  180.9270  179.2770  140.2700 C   0  0  1  0  0  3  0  0  0  0  0  0
  179.6230  181.4030  140.2520 O   0  0  0  0  0  1  0  0  0  0  0  0
  180.5930  180.6050  139.6620 C   0  0  0  0  0  0  0  0  0  0  0  0
  181.1730  180.9970  138.6140 O   0  0  0  0  0  0  0  0  0  0  0  0
  179.1380  178.6690  138.6020 C   0  0  0  0  0  1  0  0  0  0  0  0
  180.2940  178.1510  139.4390 C   0  0  2  0  0  3  0  0  0  0  0  0
  179.8560  177.0440  140.2810 N   0  0  0  0  0  2  0  0  0  0  0  0
  180.4770  175.5590  139.5800 P   0  0  0  0  0  0  0  0  0  0  0  0
  179.8510  174.2400  140.4330 O   0  0  0  0  0  1  0  0  0  0  0  0
  182.1660  175.5400  139.6810 O   0  0  0  0  0  1  0  0  0  0  0  0
  180.0550  175.4640  138.1320 O   0  0  0  0  0  0  0  0  0  0  0  0
  1 27  1  6  0  0  0
  1  3  1  0  0  0  0
  1  4  1  0  0  0  0
  2  7  1  1  0  0  0
  3  6  1  0  0  0  0
  4  5  1  0  0  0  0
  5  2  1  0  0  0  0
  6  2  1  0  0  0  0
  7  8  2  0  0  0  0
  9  7  1  0  0  0  0
  9 10  1  0  0  0  0
 11 12  1  0  0  0  0
 11 10  1  0  0  0  0
 12 13  1  1  0  0  0
 14 15  1  1  0  0  0
 14 12  1  0  0  0  0
 16 14  1  0  0  0  0
 17 22  1  0  0  0  0
 17 25  1  0  0  0  0
 18 19  1  0  0  0  0
 20 18  2  0  0  0  0
 21 20  1  0  0  0  0
 21 17  2  0  0  0  0
 22 23  2  0  0  0  0
 23 24  1  0  0  0  0
 24 16  1  0  0  0  0
 25 19  2  0  0  0  0
 25 24  1  0  0  0  0
 27 26  1  6  0  0  0
 28 30  1  6  0  0  0
 28 27  1  0  0  0  0
 30 29  1  0  0  0  0
 31 30  2  0  0  0  0
 33 32  1  1  0  0  0
 33 28  1  0  0  0  0
 33 34  1  0  0  0  0
 35 37  1  0  0  0  0
 35 34  1  0  0  0  0
 35 36  1  0  0  0  0
 38 35  2  0  0  0  0
M  END
>  <MODEL>
5

>  <REMARK>
 VINA RESULT:      -7.4      1.827      2.815
  Name = 
  14 active torsions:
  status: ('A' for Active; 'I' for Inactive)
    1  A    between atoms: C_1  and  C_3
    2  A    between atoms: C_1  and  C_37
    3  A    between atoms: C_3  and  C_32
    4  A    between atoms: C_4  and  C_29
    5  A    between atoms: C_5  and  C_15
    6  A    between atoms: P_8  and  N_21
    7  A    between atoms: C_13  and  C_24
    8  A    between atoms: C_15  and  O_19
    9  A    between atoms: C_16  and  N_30
   10  A    between atoms: C_16  and  C_32
   11  A    between atoms: O_19  and  C_37
   12  A    between atoms: N_21  and  C_27
   13  A    between atoms: C_24  and  C_27
   14  A    between atoms: C_24  and  C_29
                            x       y       z     vdW  Elec       q    Type
                         _______ _______ _______ _____ _____    ______ ____

>  <TORSDO>
F 14

$$$$
=
 OpenBabel11062413013D

 38 40  0  0  1  0  0  0  0  0999 V2000
  184.2620  179.0340  142.7520 C   0  0  1  0  0  3  0  0  0  0  0  0
  185.7720  177.8680  145.0760 C   0  0  2  0  0  3  0  0  0  0  0  0
  184.2310  179.6740  144.1540 C   0  0  0  0  0  2  0  0  0  0  0  0
  185.1920  177.8170  142.6400 C   0  0  0  0  0  2  0  0  0  0  0  0
  186.3300  177.8930  143.6490 C   0  0  0  0  0  2  0  0  0  0  0  0
  184.4610  178.6470  145.2630 C   0  0  0  0  0  2  0  0  0  0  0  0
  186.8040  178.2520  146.0930 C   0  0  0  0  0  0  0  0  0  0  0  0
  186.4150  178.5880  147.2410 O   0  0  0  0  0  0  0  0  0  0  0  0
  188.1760  178.2730  145.8170 O   0  0  0  0  0  0  0  0  0  0  0  0
  189.0170  177.1330  145.9320 C   0  0  0  0  0  2  0  0  0  0  0  0
  190.4120  177.4530  145.4180 C   0  0  0  0  0  2  0  0  0  0  0  0
  190.3710  177.9960  143.9960 C   0  0  1  0  0  3  0  0  0  0  0  0
  191.0650  179.2060  143.9380 O   0  0  0  0  0  1  0  0  0  0  0  0
  190.9650  176.9940  143.0100 C   0  0  2  0  0  3  0  0  0  0  0  0
  191.9520  177.5970  142.2240 O   0  0  0  0  0  1  0  0  0  0  0  0
  189.8760  176.4040  142.1260 C   0  0  0  0  0  2  0  0  0  0  0  0
  189.2270  177.9190  138.8760 C   0  0  0  0  0  0  0  0  0  0  0  0
  191.1620  176.3120  137.7830 C   0  0  0  0  0  3  0  0  0  0  0  0
  190.9710  176.3020  139.1740 C   0  0  0  0  0  3  0  0  0  0  0  0
  190.3570  177.1420  136.9710 C   0  0  0  0  0  3  0  0  0  0  0  0
  189.3940  177.9350  137.5290 N   0  0  0  0  0  0  0  0  0  0  0  0
  188.2530  178.6440  139.6070 N   0  0  0  0  0  0  0  0  0  0  0  0
  188.4340  178.2440  141.0140 C   0  0  0  0  0  3  0  0  0  0  0  0
  189.5670  177.3080  141.0290 N   0  0  0  0  0  0  0  0  0  0  0  0
  189.9810  177.1380  139.6870 C   0  0  0  0  0  0  0  0  0  0  0  0
  181.8960  179.0480  143.1770 O   0  0  0  0  0  1  0  0  0  0  0  0
  182.8630  178.6890  142.2340 C   0  0  1  0  0  3  0  0  0  0  0  0
  182.5830  179.3510  140.8690 C   0  0  1  0  0  3  0  0  0  0  0  0
  184.4550  180.1240  139.4130 O   0  0  0  0  0  0  0  0  0  0  0  0
  183.6790  179.0750  139.8870 C   0  0  0  0  0  0  0  0  0  0  0  0
  183.8960  177.9040  139.4760 O   0  0  0  0  0  1  0  0  0  0  0  0
  180.2690  180.1630  140.2860 C   0  0  0  0  0  1  0  0  0  0  0  0
  181.2260  178.9840  140.2500 C   0  0  2  0  0  3  0  0  0  0  0  0
  180.6300  177.8270  140.9090 N   0  0  0  0  0  2  0  0  0  0  0  0
  180.4180  176.5730  139.6990 P   0  0  0  0  0  0  0  0  0  0  0  0
  181.7700  175.5570  139.7120 O   0  0  0  0  0  1  0  0  0  0  0  0
  180.2600  177.2730  138.1680 O   0  0  0  0  0  0  0  0  0  0  0  0
  179.1820  175.7630  140.0160 O   0  0  0  0  0  1  0  0  0  0  0  0
  1 27  1  1  0  0  0
  1  3  1  0  0  0  0
  2  6  1  0  0  0  0
  2  7  1  1  0  0  0
  3  6  1  0  0  0  0
  4  1  1  0  0  0  0
  4  5  1  0  0  0  0
  5  2  1  0  0  0  0
  7  8  2  0  0  0  0
  9 10  1  0  0  0  0
  9  7  1  0  0  0  0
 11 10  1  0  0  0  0
 12 13  1  1  0  0  0
 12 11  1  0  0  0  0
 14 15  1  6  0  0  0
 14 12  1  0  0  0  0
 16 14  1  0  0  0  0
 17 22  1  0  0  0  0
 17 25  1  0  0  0  0
 18 19  1  0  0  0  0
 19 25  2  0  0  0  0
 20 21  1  0  0  0  0
 20 18  2  0  0  0  0
 21 17  2  0  0  0  0
 22 23  2  0  0  0  0
 23 24  1  0  0  0  0
 24 16  1  0  0  0  0
 25 24  1  0  0  0  0
 27 26  1  1  0  0  0
 28 30  1  6  0  0  0
 28 27  1  0  0  0  0
 29 30  2  0  0  0  0
 31 30  1  0  0  0  0
 33 32  1  1  0  0  0
 33 28  1  0  0  0  0
 33 34  1  0  0  0  0
 35 36  1  0  0  0  0
 35 38  1  0  0  0  0
 35 34  1  0  0  0  0
 37 35  2  0  0  0  0
M  END
>  <MODEL>
6

>  <REMARK>
 VINA RESULT:      -7.1      1.950      2.996
  Name = 
  14 active torsions:
  status: ('A' for Active; 'I' for Inactive)
    1  A    between atoms: C_1  and  C_3
    2  A    between atoms: C_1  and  C_37
    3  A    between atoms: C_3  and  C_32
    4  A    between atoms: C_4  and  C_29
    5  A    between atoms: C_5  and  C_15
    6  A    between atoms: P_8  and  N_21
    7  A    between atoms: C_13  and  C_24
    8  A    between atoms: C_15  and  O_19
    9  A    between atoms: C_16  and  N_30
   10  A    between atoms: C_16  and  C_32
   11  A    between atoms: O_19  and  C_37
   12  A    between atoms: N_21  and  C_27
   13  A    between atoms: C_24  and  C_27
   14  A    between atoms: C_24  and  C_29
                            x       y       z     vdW  Elec       q    Type
                         _______ _______ _______ _____ _____    ______ ____

>  <TORSDO>
F 14

$$$$
=
 OpenBabel11062413013D

 38 40  0  0  1  0  0  0  0  0999 V2000
  186.2870  178.4820  144.9300 C   0  0  1  0  0  3  0  0  0  0  0  0
  183.5320  178.2530  143.7480 C   0  0  2  0  0  3  0  0  0  0  0  0
  186.0300  178.6200  143.4160 C   0  0  0  0  0  2  0  0  0  0  0  0
  185.0120  178.3080  145.7680 C   0  0  0  0  0  2  0  0  0  0  0  0
  183.8070  178.9460  145.0870 C   0  0  0  0  0  2  0  0  0  0  0  0
  184.7910  177.8450  142.9680 C   0  0  0  0  0  2  0  0  0  0  0  0
  182.5700  179.0280  142.8990 C   0  0  0  0  0  0  0  0  0  0  0  0
  182.1450  180.1300  143.3330 O   0  0  0  0  0  0  0  0  0  0  0  0
  182.1110  178.5730  141.6570 O   0  0  0  0  0  0  0  0  0  0  0  0
  182.4990  179.1500  140.4180 C   0  0  0  0  0  2  0  0  0  0  0  0
  183.2810  178.1420  139.5890 C   0  0  0  0  0  2  0  0  0  0  0  0
  184.3320  178.8280  138.7250 C   0  0  1  0  0  3  0  0  0  0  0  0
  184.4340  180.1710  139.0920 O   0  0  0  0  0  1  0  0  0  0  0  0
  185.6860  178.1350  138.8590 C   0  0  2  0  0  3  0  0  0  0  0  0
  186.4170  178.6760  139.9210 O   0  0  0  0  0  1  0  0  0  0  0  0
  186.4750  178.2520  137.5630 C   0  0  0  0  0  2  0  0  0  0  0  0
  189.5100  176.2510  137.3070 C   0  0  0  0  0  0  0  0  0  0  0  0
  187.9660  174.0350  136.8380 C   0  0  0  0  0  3  0  0  0  0  0  0
  187.3390  175.2480  137.1660 C   0  0  0  0  0  3  0  0  0  0  0  0
  189.3740  173.9750  136.7520 C   0  0  0  0  0  3  0  0  0  0  0  0
  190.1320  175.0890  136.9840 N   0  0  0  0  0  0  0  0  0  0  0  0
  190.1400  177.5010  137.5370 N   0  0  0  0  0  0  0  0  0  0  0  0
  189.0460  178.4560  137.7850 C   0  0  0  0  0  3  0  0  0  0  0  0
  187.8020  177.6770  137.7230 N   0  0  0  0  0  0  0  0  0  0  0  0
  188.1620  176.3470  137.4010 C   0  0  0  0  0  0  0  0  0  0  0  0
  187.3850  176.4760  144.1930 O   0  0  0  0  0  1  0  0  0  0  0  0
  187.2970  177.3790  145.2560 C   0  0  1  0  0  3  0  0  0  0  0  0
  188.6820  177.9610  145.6080 C   0  0  1  0  0  3  0  0  0  0  0  0
  189.4600  176.3590  147.3540 O   0  0  0  0  0  0  0  0  0  0  0  0
  189.0660  177.6480  147.0210 C   0  0  0  0  0  0  0  0  0  0  0  0
  189.0220  178.5370  147.9130 O   0  0  0  0  0  1  0  0  0  0  0  0
  191.1740  177.7890  145.2760 C   0  0  0  0  0  1  0  0  0  0  0  0
  189.8110  177.5410  144.6560 C   0  0  2  0  0  3  0  0  0  0  0  0
  189.7080  178.2170  143.3680 N   0  0  0  0  0  2  0  0  0  0  0  0
  190.2210  177.0880  142.1270 P   0  0  0  0  0  0  0  0  0  0  0  0
  189.1000  177.1080  140.8610 O   0  0  0  0  0  0  0  0  0  0  0  0
  190.3080  175.5270  142.7720 O   0  0  0  0  0  1  0  0  0  0  0  0
  191.5780  177.4940  141.5980 O   0  0  0  0  0  1  0  0  0  0  0  0
  1 27  1  6  0  0  0
  1  4  1  0  0  0  0
  2  7  1  6  0  0  0
  2  5  1  0  0  0  0
  3  1  1  0  0  0  0
  5  4  1  0  0  0  0
  6  3  1  0  0  0  0
  6  2  1  0  0  0  0
  7  8  2  0  0  0  0
  9  7  1  0  0  0  0
 10  9  1  0  0  0  0
 11 10  1  0  0  0  0
 12 14  1  0  0  0  0
 12 13  1  1  0  0  0
 12 11  1  0  0  0  0
 14 15  1  1  0  0  0
 16 24  1  0  0  0  0
 16 14  1  0  0  0  0
 17 25  1  0  0  0  0
 17 22  1  0  0  0  0
 18 19  1  0  0  0  0
 19 25  2  0  0  0  0
 20 18  2  0  0  0  0
 20 21  1  0  0  0  0
 21 17  2  0  0  0  0
 22 23  2  0  0  0  0
 24 23  1  0  0  0  0
 25 24  1  0  0  0  0
 27 26  1  6  0  0  0
 27 28  1  0  0  0  0
 28 30  1  1  0  0  0
 30 29  2  0  0  0  0
 30 31  1  0  0  0  0
 33 32  1  1  0  0  0
 33 28  1  0  0  0  0
 34 33  1  0  0  0  0
 35 37  1  0  0  0  0
 35 34  1  0  0  0  0
 36 35  2  0  0  0  0
 38 35  1  0  0  0  0
M  END
>  <MODEL>
7

>  <REMARK>
 VINA RESULT:      -7.1      2.909      7.183
  Name = 
  14 active torsions:
  status: ('A' for Active; 'I' for Inactive)
    1  A    between atoms: C_1  and  C_3
    2  A    between atoms: C_1  and  C_37
    3  A    between atoms: C_3  and  C_32
    4  A    between atoms: C_4  and  C_29
    5  A    between atoms: C_5  and  C_15
    6  A    between atoms: P_8  and  N_21
    7  A    between atoms: C_13  and  C_24
    8  A    between atoms: C_15  and  O_19
    9  A    between atoms: C_16  and  N_30
   10  A    between atoms: C_16  and  C_32
   11  A    between atoms: O_19  and  C_37
   12  A    between atoms: N_21  and  C_27
   13  A    between atoms: C_24  and  C_27
   14  A    between atoms: C_24  and  C_29
                            x       y       z     vdW  Elec       q    Type
                         _______ _______ _______ _____ _____    ______ ____

>  <TORSDO>
F 14

$$$$
=
 OpenBabel11062413013D

 38 40  0  0  1  0  0  0  0  0999 V2000
  183.0120  178.5120  141.9430 C   0  0  1  0  0  3  0  0  0  0  0  0
  184.3880  179.2470  144.5130 C   0  0  2  0  0  3  0  0  0  0  0  0
  184.5240  178.2980  142.1540 C   0  0  0  0  0  2  0  0  0  0  0  0
  182.2770  179.0450  143.1810 C   0  0  0  0  0  2  0  0  0  0  0  0
  182.9840  178.6360  144.4670 C   0  0  0  0  0  2  0  0  0  0  0  0
  185.1130  179.2870  143.1590 C   0  0  0  0  0  2  0  0  0  0  0  0
  185.2360  178.6340  145.5870 C   0  0  0  0  0  0  0  0  0  0  0  0
  185.0400  178.9880  146.7770 O   0  0  0  0  0  0  0  0  0  0  0  0
  186.2460  177.7020  145.3210 O   0  0  0  0  0  0  0  0  0  0  0  0
  187.5970  177.8710  145.7280 C   0  0  0  0  0  2  0  0  0  0  0  0
  188.5150  176.9970  144.8870 C   0  0  0  0  0  2  0  0  0  0  0  0
  189.9220  177.5740  144.8180 C   0  0  1  0  0  3  0  0  0  0  0  0
  190.6390  177.1960  145.9550 O   0  0  0  0  0  1  0  0  0  0  0  0
  190.6420  177.1070  143.5550 C   0  0  2  0  0  3  0  0  0  0  0  0
  191.2820  178.1780  142.9240 O   0  0  0  0  0  1  0  0  0  0  0  0
  189.6650  176.4390  142.5990 C   0  0  0  0  0  2  0  0  0  0  0  0
  189.0030  177.9390  139.3440 C   0  0  0  0  0  0  0  0  0  0  0  0
  191.0030  176.4000  138.2700 C   0  0  0  0  0  3  0  0  0  0  0  0
  190.7960  176.3810  139.6590 C   0  0  0  0  0  3  0  0  0  0  0  0
  190.1800  177.2040  137.4500 C   0  0  0  0  0  3  0  0  0  0  0  0
  189.1840  177.9630  137.9990 N   0  0  0  0  0  0  0  0  0  0  0  0
  187.9960  178.6290  140.0650 N   0  0  0  0  0  0  0  0  0  0  0  0
  188.1750  178.2320  141.4730 C   0  0  0  0  0  3  0  0  0  0  0  0
  189.3380  177.3350  141.5000 N   0  0  0  0  0  0  0  0  0  0  0  0
  189.7730  177.1820  140.1620 C   0  0  0  0  0  0  0  0  0  0  0  0
  183.8500  179.5190  139.9280 O   0  0  0  0  0  1  0  0  0  0  0  0
  182.7080  179.3840  140.7220 C   0  0  1  0  0  3  0  0  0  0  0  0
  181.5240  178.8270  139.9050 C   0  0  1  0  0  3  0  0  0  0  0  0
  180.3960  180.9170  140.6680 O   0  0  0  0  0  1  0  0  0  0  0  0
  180.2950  179.6660  140.0740 C   0  0  0  0  0  0  0  0  0  0  0  0
  179.1700  179.2420  139.6980 O   0  0  0  0  0  0  0  0  0  0  0  0
  181.1730  179.7220  137.5750 C   0  0  0  0  0  1  0  0  0  0  0  0
  181.8190  178.6300  138.4100 C   0  0  2  0  0  3  0  0  0  0  0  0
  181.3910  177.3160  137.9460 N   0  0  0  0  0  2  0  0  0  0  0  0
  182.8220  176.3150  137.7790 P   0  0  0  0  0  0  0  0  0  0  0  0
  184.1690  177.3090  137.5410 O   0  0  0  0  0  1  0  0  0  0  0  0
  182.6490  175.2820  136.4500 O   0  0  0  0  0  0  0  0  0  0  0  0
  183.0220  175.4960  139.0340 O   0  0  0  0  0  1  0  0  0  0  0  0
  1 27  1  6  0  0  0
  1  3  1  0  0  0  0
  1  4  1  0  0  0  0
  2  7  1  1  0  0  0
  3  6  1  0  0  0  0
  4  5  1  0  0  0  0
  5  2  1  0  0  0  0
  6  2  1  0  0  0  0
  7  8  2  0  0  0  0
  9  7  1  0  0  0  0
  9 10  1  0  0  0  0
 11 10  1  0  0  0  0
 12 11  1  0  0  0  0
 12 13  1  1  0  0  0
 14 15  1  6  0  0  0
 14 12  1  0  0  0  0
 16 14  1  0  0  0  0
 17 22  1  0  0  0  0
 17 25  1  0  0  0  0
 18 19  1  0  0  0  0
 19 25  2  0  0  0  0
 20 21  1  0  0  0  0
 20 18  2  0  0  0  0
 21 17  2  0  0  0  0
 22 23  2  0  0  0  0
 23 24  1  0  0  0  0
 24 16  1  0  0  0  0
 25 24  1  0  0  0  0
 27 26  1  6  0  0  0
 28 30  1  6  0  0  0
 28 27  1  0  0  0  0
 30 29  1  0  0  0  0
 31 30  2  0  0  0  0
 33 32  1  6  0  0  0
 33 28  1  0  0  0  0
 34 33  1  0  0  0  0
 35 34  1  0  0  0  0
 35 38  1  0  0  0  0
 36 35  1  0  0  0  0
 37 35  2  0  0  0  0
M  END
>  <MODEL>
8

>  <REMARK>
 VINA RESULT:      -7.1      1.834      2.614
  Name = 
  14 active torsions:
  status: ('A' for Active; 'I' for Inactive)
    1  A    between atoms: C_1  and  C_3
    2  A    between atoms: C_1  and  C_37
    3  A    between atoms: C_3  and  C_32
    4  A    between atoms: C_4  and  C_29
    5  A    between atoms: C_5  and  C_15
    6  A    between atoms: P_8  and  N_21
    7  A    between atoms: C_13  and  C_24
    8  A    between atoms: C_15  and  O_19
    9  A    between atoms: C_16  and  N_30
   10  A    between atoms: C_16  and  C_32
   11  A    between atoms: O_19  and  C_37
   12  A    between atoms: N_21  and  C_27
   13  A    between atoms: C_24  and  C_27
   14  A    between atoms: C_24  and  C_29
                            x       y       z     vdW  Elec       q    Type
                         _______ _______ _______ _____ _____    ______ ____

>  <TORSDO>
F 14

$$$$
=
 OpenBabel11062413013D

 38 40  0  0  1  0  0  0  0  0999 V2000
  188.5720  177.2620  137.0070 C   0  0  1  0  0  3  0  0  0  0  0  0
  185.6130  177.7890  137.0910 C   0  0  2  0  0  3  0  0  0  0  0  0
  187.5930  176.3250  137.7430 C   0  0  0  0  0  2  0  0  0  0  0  0
  187.8910  178.4180  136.2610 C   0  0  0  0  0  2  0  0  0  0  0  0
  186.4700  178.0540  135.8490 C   0  0  0  0  0  2  0  0  0  0  0  0
  186.3460  177.0620  138.2300 C   0  0  0  0  0  2  0  0  0  0  0  0
  184.3110  177.1290  136.7480 C   0  0  0  0  0  0  0  0  0  0  0  0
  184.3370  175.9450  136.3230 O   0  0  0  0  0  0  0  0  0  0  0  0
  183.0750  177.7750  136.8610 O   0  0  0  0  0  0  0  0  0  0  0  0
  182.1440  177.5120  137.9010 C   0  0  0  0  0  2  0  0  0  0  0  0
  182.1780  178.6260  138.9350 C   0  0  0  0  0  2  0  0  0  0  0  0
  182.6420  178.1130  140.2920 C   0  0  1  0  0  3  0  0  0  0  0  0
  183.1360  176.8140  140.1560 O   0  0  0  0  0  1  0  0  0  0  0  0
  183.7090  179.0280  140.8880 C   0  0  2  0  0  3  0  0  0  0  0  0
  184.4440  179.6550  139.8770 O   0  0  0  0  0  1  0  0  0  0  0  0
  184.6360  178.2420  141.8030 C   0  0  0  0  0  2  0  0  0  0  0  0
  184.4030  178.8210  145.3940 C   0  0  0  0  0  0  0  0  0  0  0  0
  186.9880  177.9470  145.6650 C   0  0  0  0  0  3  0  0  0  0  0  0
  186.3650  177.8600  144.4090 C   0  0  0  0  0  3  0  0  0  0  0  0
  186.2800  178.4840  146.7630 C   0  0  0  0  0  3  0  0  0  0  0  0
  184.9930  178.9200  146.6120 N   0  0  0  0  0  0  0  0  0  0  0  0
  183.0980  179.2620  145.0580 N   0  0  0  0  0  0  0  0  0  0  0  0
  182.9490  178.9960  143.6170 C   0  0  0  0  0  3  0  0  0  0  0  0
  184.2010  178.3590  143.1870 N   0  0  0  0  0  0  0  0  0  0  0  0
  185.0500  178.3110  144.3180 C   0  0  0  0  0  0  0  0  0  0  0  0
  189.1900  178.8340  138.7160 O   0  0  0  0  0  1  0  0  0  0  0  0
  189.6780  177.7920  137.9230 C   0  0  1  0  0  3  0  0  0  0  0  0
  190.2860  176.6700  138.7890 C   0  0  1  0  0  3  0  0  0  0  0  0
  191.5900  174.6230  138.2110 O   0  0  0  0  0  1  0  0  0  0  0  0
  191.4300  175.9970  138.0940 C   0  0  0  0  0  0  0  0  0  0  0  0
  192.2560  176.6660  137.4180 O   0  0  0  0  0  0  0  0  0  0  0  0
  192.1930  177.4790  140.2250 C   0  0  0  0  0  1  0  0  0  0  0  0
  190.7200  177.1140  140.1940 C   0  0  2  0  0  3  0  0  0  0  0  0
  190.4280  176.0940  141.1940 N   0  0  0  0  0  2  0  0  0  0  0  0
  189.4890  176.8480  142.4710 P   0  0  0  0  0  0  0  0  0  0  0  0
  188.6240  178.1510  141.8260 O   0  0  0  0  0  0  0  0  0  0  0  0
  190.5200  177.4090  143.6880 O   0  0  0  0  0  1  0  0  0  0  0  0
  188.5180  175.8440  143.0510 O   0  0  0  0  0  1  0  0  0  0  0  0
  1  3  1  0  0  0  0
  1 27  1  1  0  0  0
  2  7  1  6  0  0  0
  2  6  1  0  0  0  0
  3  6  1  0  0  0  0
  4  1  1  0  0  0  0
  5  4  1  0  0  0  0
  5  2  1  0  0  0  0
  7  9  1  0  0  0  0
  8  7  2  0  0  0  0
  9 10  1  0  0  0  0
 10 11  1  0  0  0  0
 11 12  1  0  0  0  0
 12 13  1  6  0  0  0
 12 14  1  0  0  0  0
 14 15  1  6  0  0  0
 14 16  1  0  0  0  0
 16 24  1  0  0  0  0
 17 21  2  0  0  0  0
 18 20  2  0  0  0  0
 19 18  1  0  0  0  0
 21 20  1  0  0  0  0
 22 17  1  0  0  0  0
 23 22  2  0  0  0  0
 24 23  1  0  0  0  0
 24 25  1  0  0  0  0
 25 19  2  0  0  0  0
 25 17  1  0  0  0  0
 27 26  1  1  0  0  0
 27 28  1  0  0  0  0
 28 30  1  6  0  0  0
 28 33  1  0  0  0  0
 30 29  1  0  0  0  0
 31 30  2  0  0  0  0
 33 32  1  6  0  0  0
 33 34  1  0  0  0  0
 34 35  1  0  0  0  0
 35 38  1  0  0  0  0
 35 37  1  0  0  0  0
 36 35  2  0  0  0  0
M  END
>  <MODEL>
9

>  <REMARK>
 VINA RESULT:      -7.0      3.603      8.848
  Name = 
  14 active torsions:
  status: ('A' for Active; 'I' for Inactive)
    1  A    between atoms: C_1  and  C_3
    2  A    between atoms: C_1  and  C_37
    3  A    between atoms: C_3  and  C_32
    4  A    between atoms: C_4  and  C_29
    5  A    between atoms: C_5  and  C_15
    6  A    between atoms: P_8  and  N_21
    7  A    between atoms: C_13  and  C_24
    8  A    between atoms: C_15  and  O_19
    9  A    between atoms: C_16  and  N_30
   10  A    between atoms: C_16  and  C_32
   11  A    between atoms: O_19  and  C_37
   12  A    between atoms: N_21  and  C_27
   13  A    between atoms: C_24  and  C_27
   14  A    between atoms: C_24  and  C_29
                            x       y       z     vdW  Elec       q    Type
                         _______ _______ _______ _____ _____    ______ ____

>  <TORSDO>
F 14

$$$$
