=
 OpenBabel11062415153D

 52 57  0  0  1  0  0  0  0  0999 V2000
  186.4850  178.8980  140.2880 O   0  0  0  0  0  0  0  0  0  0  0  0
  188.1530  178.0600  138.3840 C   0  0  2  0  0  0  0  0  0  0  0  0
  186.9010  178.2940  137.7050 C   0  0  2  0  0  3  0  0  0  0  0  0
  186.9820  178.5610  139.2260 C   0  0  0  0  0  0  0  0  0  0  0  0
  189.1070  179.0570  138.1820 O   0  0  0  0  0  1  0  0  0  0  0  0
  183.9290  174.7040  135.2650 O   0  0  0  0  0  1  0  0  0  0  0  0
  182.5700  176.6350  135.0320 C   0  0  0  0  0  2  0  0  0  0  0  0
  182.0820  177.6780  135.8340 O   0  0  0  0  0  0  0  0  0  0  0  0
  186.0870  177.0350  137.4150 C   0  0  2  0  0  3  0  0  0  0  0  0
  185.0450  176.8010  135.0960 C   0  0  0  0  0  2  0  0  0  0  0  0
  181.8090  174.8970  137.8790 O   0  0  0  0  0  1  0  0  0  0  0  0
  183.8350  176.0400  135.6560 C   0  0  2  0  0  0  0  0  0  0  0  0
  186.2930  176.5930  135.9560 C   0  0  0  0  0  2  0  0  0  0  0  0
  183.7720  176.1000  137.2120 C   0  0  1  0  0  3  0  0  0  0  0  0
  181.4100  177.0680  136.9110 C   0  0  1  0  0  3  0  0  0  0  0  0
  184.6150  177.2350  137.7840 C   0  0  0  0  0  2  0  0  0  0  0  0
  182.3480  176.1820  137.7680 C   0  0  1  0  0  3  0  0  0  0  0  0
  181.5860  179.7170  139.4400 C   0  0  0  0  0  2  0  0  0  0  0  0
  179.5480  176.6720  139.3930 C   0  0  0  0  0  2  0  0  0  0  0  0
  180.0300  178.9710  141.0780 F   0  0  0  0  0  0  0  0  0  0  0  0
  181.9970  177.8380  140.8620 O   0  0  0  0  0  1  0  0  0  0  0  0
  180.6950  178.1400  137.7500 C   0  0  1  0  0  3  0  0  0  0  0  0
  180.3960  177.6690  139.1310 C   0  0  0  0  0  0  0  0  0  0  0  0
  181.5840  179.3660  137.9490 C   0  0  1  0  0  3  0  0  0  0  0  0
  180.9910  178.5310  140.1860 C   0  0  2  0  0  0  0  0  0  0  0  0
  181.1300  181.7130  137.8160 O   0  0  0  0  0  1  0  0  0  0  0  0
  181.1330  180.5310  137.0740 C   0  0  0  0  0  3  0  0  0  0  0  0
  179.8580  180.3010  136.5500 O   0  0  0  0  0  1  0  0  0  0  0  0
  188.6940  176.6650  138.7630 C   0  0  1  0  0  3  0  0  0  0  0  0
  188.9730  175.8850  137.6340 O   0  0  0  0  0  1  0  0  0  0  0  0
  189.9310  176.7910  139.6740 C   0  0  2  0  0  3  0  0  0  0  0  0
  190.9600  177.7140  141.8410 C   0  0  0  0  0  2  0  0  0  0  0  0
  189.6830  177.2870  141.1090 C   0  0  2  0  0  3  0  0  0  0  0  0
  190.6810  178.0700  143.3120 C   0  0  1  0  0  3  0  0  0  0  0  0
  188.9820  176.3210  141.8580 O   0  0  0  0  0  0  0  0  0  0  0  0
  189.1760  178.1510  143.6000 C   0  0  0  0  0  2  0  0  0  0  0  0
  188.4320  176.9210  143.0270 C   0  0  1  0  0  3  0  0  0  0  0  0
  191.3880  177.0950  144.2560 C   0  0  2  0  0  3  0  0  0  0  0  0
  191.8390  175.9840  143.5420 O   0  0  0  0  0  1  0  0  0  0  0  0
  190.4320  176.6290  145.3470 C   0  0  1  0  0  3  0  0  0  0  0  0
  191.1580  176.5080  146.6770 C   0  0  0  0  0  2  0  0  0  0  0  0
  190.3020  177.7230  146.3920 C   0  0  2  0  0  3  0  0  0  0  0  0
  189.0290  178.2610  148.4510 C   0  0  0  0  0  1  0  0  0  0  0  0
  188.9700  177.5790  147.0970 C   0  0  0  0  0  2  0  0  0  0  0  0
  186.6040  177.7600  144.0990 C   0  0  0  0  0  1  0  0  0  0  0  0
  187.0360  177.0920  142.9440 O   0  0  0  0  0  0  0  0  0  0  0  0
  191.0620  177.3510  139.0370 O   0  0  0  0  0  0  0  0  0  0  0  0
  191.8960  176.3170  138.5800 C   0  0  1  0  0  3  0  0  0  0  0  0
  191.9970  176.3850  137.0640 C   0  0  0  0  0  1  0  0  0  0  0  0
  194.2570  175.9050  138.3860 O   0  0  0  0  0  1  0  0  0  0  0  0
  193.5740  177.7430  139.5620 O   0  0  0  0  0  1  0  0  0  0  0  0
  193.2730  176.4180  139.2350 C   0  0  0  0  0  3  0  0  0  0  0  0
  2  5  1  6  0  0  0
  2 29  1  0  0  0  0
  2  4  1  0  0  0  0
  3  2  1  0  0  0  0
  3  4  1  1  0  0  0
  4  1  2  0  0  0  0
  7 12  1  0  0  0  0
  7  8  1  0  0  0  0
  9 13  1  6  0  0  0
  9  3  1  0  0  0  0
  9 16  1  0  0  0  0
 10 12  1  0  0  0  0
 10 13  1  0  0  0  0
 12  6  1  6  0  0  0
 12 14  1  0  0  0  0
 14 17  1  0  0  0  0
 14 16  1  6  0  0  0
 15  8  1  6  0  0  0
 15 22  1  0  0  0  0
 15 17  1  0  0  0  0
 17 11  1  6  0  0  0
 18 25  1  0  0  0  0
 22 24  1  0  0  0  0
 22 23  1  1  0  0  0
 23 19  2  0  0  0  0
 23 25  1  0  0  0  0
 24 27  1  6  0  0  0
 24 18  1  0  0  0  0
 25 21  1  1  0  0  0
 25 20  1  0  0  0  0
 27 26  1  0  0  0  0
 28 27  1  0  0  0  0
 29 30  1  6  0  0  0
 29 31  1  0  0  0  0
 31 47  1  6  0  0  0
 32 34  1  0  0  0  0
 33 31  1  6  0  0  0
 33 32  1  0  0  0  0
 33 35  1  0  0  0  0
 34 36  1  0  0  0  0
 34 38  1  1  0  0  0
 35 37  1  0  0  0  0
 37 46  1  6  0  0  0
 37 36  1  0  0  0  0
 38 39  1  6  0  0  0
 40 38  1  6  0  0  0
 40 42  1  0  0  0  0
 40 41  1  0  0  0  0
 42 41  1  0  0  0  0
 42 44  1  1  0  0  0
 44 43  1  0  0  0  0
 46 45  1  0  0  0  0
 48 49  1  6  0  0  0
 48 47  1  0  0  0  0
 48 52  1  0  0  0  0
 50 52  1  0  0  0  0
 52 51  1  0  0  0  0
M  END
>  <MODEL>
1

>  <REMARK>
 VINA RESULT:      -7.6      0.000      0.000
  Name = 
  13 active torsions:
  status: ('A' for Active; 'I' for Inactive)
    1  A    between atoms: C_1  and  C_14
    2  A    between atoms: C_1  and  C_30
    3  A    between atoms: O_7  and  C_12
    4  A    between atoms: O_7  and  C_16
    5  A    between atoms: C_12  and  C_27
    6  A    between atoms: C_12  and  C_28
    7  A    between atoms: C_13  and  C_27
    8  A    between atoms: C_16  and  C_45
    9  A    between atoms: C_17  and  C_19
   10  A    between atoms: C_18  and  C_32
   11  A    between atoms: C_20  and  C_40
   12  A    between atoms: C_37  and  C_52
   13  A    between atoms: C_44  and  O_50
                            x       y       z     vdW  Elec       q    Type
                         _______ _______ _______ _____ _____    ______ ____

>  <TORSDO>
F 13

$$$$
=
 OpenBabel11062415153D

 52 57  0  0  1  0  0  0  0  0999 V2000
  186.6610  179.0030  141.3210 O   0  0  0  0  0  0  0  0  0  0  0  0
  189.1200  178.0960  141.8100 C   0  0  2  0  0  0  0  0  0  0  0  0
  189.1700  178.5940  140.4570 C   0  0  2  0  0  3  0  0  0  0  0  0
  187.8380  178.6950  141.2360 C   0  0  0  0  0  0  0  0  0  0  0  0
  189.7080  178.9410  142.7510 O   0  0  0  0  0  1  0  0  0  0  0  0
  189.1180  176.1880  135.7790 O   0  0  0  0  0  1  0  0  0  0  0  0
  187.4010  177.7960  135.4680 C   0  0  0  0  0  2  0  0  0  0  0  0
  186.2660  178.2640  136.1480 O   0  0  0  0  0  0  0  0  0  0  0  0
  189.0900  177.5180  139.3760 C   0  0  2  0  0  3  0  0  0  0  0  0
  189.3420  178.2530  136.9450 C   0  0  0  0  0  2  0  0  0  0  0  0
  186.1580  174.8430  136.6680 O   0  0  0  0  0  1  0  0  0  0  0  0
  188.3810  177.1590  136.4570 C   0  0  2  0  0  0  0  0  0  0  0  0
  190.0620  177.8420  138.2300 C   0  0  0  0  0  2  0  0  0  0  0  0
  187.6220  176.4760  137.6340 C   0  0  1  0  0  3  0  0  0  0  0  0
  185.4640  177.1350  136.4030 C   0  0  1  0  0  3  0  0  0  0  0  0
  187.6480  177.3170  138.9060 C   0  0  0  0  0  2  0  0  0  0  0  0
  186.1800  176.0910  137.2960 C   0  0  1  0  0  3  0  0  0  0  0  0
  183.1730  177.2610  139.2640 C   0  0  0  0  0  2  0  0  0  0  0  0
  182.6220  175.9300  135.8950 C   0  0  0  0  0  2  0  0  0  0  0  0
  181.2030  176.2500  138.3920 F   0  0  0  0  0  0  0  0  0  0  0  0
  183.0160  174.9240  138.7840 O   0  0  0  0  0  1  0  0  0  0  0  0
  184.1170  177.5810  136.9960 C   0  0  1  0  0  3  0  0  0  0  0  0
  183.1140  176.4800  137.0080 C   0  0  0  0  0  0  0  0  0  0  0  0
  184.2650  177.9770  138.4630 C   0  0  1  0  0  3  0  0  0  0  0  0
  182.5840  176.1830  138.3640 C   0  0  2  0  0  0  0  0  0  0  0  0
  184.7650  179.8440  139.8760 O   0  0  0  0  0  1  0  0  0  0  0  0
  184.2220  179.4910  138.6390 C   0  0  0  0  0  3  0  0  0  0  0  0
  182.9130  179.9710  138.5470 O   0  0  0  0  0  1  0  0  0  0  0  0
  189.0430  176.6020  142.1890 C   0  0  1  0  0  3  0  0  0  0  0  0
  189.9540  175.8280  141.4600 O   0  0  0  0  0  1  0  0  0  0  0  0
  189.2400  176.4150  143.7050 C   0  0  2  0  0  3  0  0  0  0  0  0
  186.8310  177.3020  143.8340 C   0  0  0  0  0  2  0  0  0  0  0  0
  188.0570  176.8070  144.6080 C   0  0  2  0  0  3  0  0  0  0  0  0
  185.7290  177.8120  144.7790 C   0  0  1  0  0  3  0  0  0  0  0  0
  188.4560  177.7600  145.5680 O   0  0  0  0  0  0  0  0  0  0  0  0
  186.0310  177.4630  146.2430 C   0  0  0  0  0  2  0  0  0  0  0  0
  187.4890  177.8260  146.6120 C   0  0  1  0  0  3  0  0  0  0  0  0
  185.4930  179.3120  144.5900 C   0  0  2  0  0  3  0  0  0  0  0  0
  185.3030  179.9230  145.8310 O   0  0  0  0  0  1  0  0  0  0  0  0
  184.2610  179.5500  143.7260 C   0  0  1  0  0  3  0  0  0  0  0  0
  183.9360  178.3110  142.9080 C   0  0  0  0  0  2  0  0  0  0  0  0
  183.1560  178.6070  144.1700 C   0  0  2  0  0  3  0  0  0  0  0  0
  181.4670  178.8550  142.3720 C   0  0  0  0  0  1  0  0  0  0  0  0
  181.8160  179.2090  143.8060 C   0  0  0  0  0  2  0  0  0  0  0  0
  188.5770  178.2040  148.5790 C   0  0  0  0  0  1  0  0  0  0  0  0
  187.9370  177.2260  147.8050 O   0  0  0  0  0  0  0  0  0  0  0  0
  190.5100  176.8210  144.1770 O   0  0  0  0  0  0  0  0  0  0  0  0
  191.0390  175.8170  145.0050 C   0  0  1  0  0  3  0  0  0  0  0  0
  192.1920  175.1300  144.2900 C   0  0  0  0  0  1  0  0  0  0  0  0
  192.5070  175.6400  146.9010 O   0  0  0  0  0  1  0  0  0  0  0  0
  191.9240  177.7280  146.1780 O   0  0  0  0  0  1  0  0  0  0  0  0
  191.4870  176.4110  146.3400 C   0  0  0  0  0  3  0  0  0  0  0  0
  2 29  1  0  0  0  0
  2  5  1  1  0  0  0
  3  4  1  6  0  0  0
  3  2  1  0  0  0  0
  4  1  2  0  0  0  0
  4  2  1  0  0  0  0
  7  8  1  0  0  0  0
  7 12  1  0  0  0  0
  9 13  1  6  0  0  0
  9  3  1  0  0  0  0
 10 13  1  0  0  0  0
 12  6  1  6  0  0  0
 12 10  1  0  0  0  0
 12 14  1  0  0  0  0
 14 16  1  1  0  0  0
 15  8  1  1  0  0  0
 15 22  1  0  0  0  0
 15 17  1  0  0  0  0
 16  9  1  0  0  0  0
 17 11  1  6  0  0  0
 17 14  1  0  0  0  0
 19 23  2  0  0  0  0
 22 23  1  1  0  0  0
 22 24  1  0  0  0  0
 23 25  1  0  0  0  0
 24 27  1  6  0  0  0
 24 18  1  0  0  0  0
 25 20  1  1  0  0  0
 25 21  1  0  0  0  0
 25 18  1  0  0  0  0
 27 26  1  0  0  0  0
 28 27  1  0  0  0  0
 29 30  1  6  0  0  0
 29 31  1  0  0  0  0
 31 47  1  1  0  0  0
 32 33  1  0  0  0  0
 32 34  1  0  0  0  0
 33 31  1  6  0  0  0
 33 35  1  0  0  0  0
 34 38  1  1  0  0  0
 34 36  1  0  0  0  0
 35 37  1  0  0  0  0
 36 37  1  0  0  0  0
 37 46  1  1  0  0  0
 38 39  1  1  0  0  0
 40 42  1  0  0  0  0
 40 38  1  1  0  0  0
 41 40  1  0  0  0  0
 41 42  1  0  0  0  0
 42 44  1  6  0  0  0
 43 44  1  0  0  0  0
 46 45  1  0  0  0  0
 47 48  1  0  0  0  0
 48 49  1  6  0  0  0
 48 52  1  0  0  0  0
 51 52  1  0  0  0  0
 52 50  1  0  0  0  0
M  END
>  <MODEL>
2

>  <REMARK>
 VINA RESULT:      -7.3      2.343      5.149
  Name = 
  13 active torsions:
  status: ('A' for Active; 'I' for Inactive)
    1  A    between atoms: C_1  and  C_14
    2  A    between atoms: C_1  and  C_30
    3  A    between atoms: O_7  and  C_12
    4  A    between atoms: O_7  and  C_16
    5  A    between atoms: C_12  and  C_27
    6  A    between atoms: C_12  and  C_28
    7  A    between atoms: C_13  and  C_27
    8  A    between atoms: C_16  and  C_45
    9  A    between atoms: C_17  and  C_19
   10  A    between atoms: C_18  and  C_32
   11  A    between atoms: C_20  and  C_40
   12  A    between atoms: C_37  and  C_52
   13  A    between atoms: C_44  and  O_50
                            x       y       z     vdW  Elec       q    Type
                         _______ _______ _______ _____ _____    ______ ____

>  <TORSDO>
F 13

$$$$
=
 OpenBabel11062415153D

 52 57  0  0  1  0  0  0  0  0999 V2000
  186.5910  178.9180  137.7570 O   0  0  0  0  0  0  0  0  0  0  0  0
  187.5450  176.7930  136.4600 C   0  0  2  0  0  0  0  0  0  0  0  0
  186.1430  176.8380  136.1200 C   0  0  2  0  0  3  0  0  0  0  0  0
  186.7150  177.9260  137.0590 C   0  0  0  0  0  0  0  0  0  0  0  0
  188.3920  177.2520  135.4520 O   0  0  0  0  0  1  0  0  0  0  0  0
  182.5130  173.2130  137.2850 O   0  0  0  0  0  1  0  0  0  0  0  0
  181.1710  174.8580  136.2250 C   0  0  0  0  0  2  0  0  0  0  0  0
  180.9730  176.2460  136.2810 O   0  0  0  0  0  0  0  0  0  0  0  0
  185.2660  175.8560  136.8910 C   0  0  2  0  0  3  0  0  0  0  0  0
  183.5400  174.5130  135.5740 C   0  0  0  0  0  2  0  0  0  0  0  0
  181.3340  175.3540  139.6060 O   0  0  0  0  0  1  0  0  0  0  0  0
  182.5620  174.5040  136.7580 C   0  0  2  0  0  0  0  0  0  0  0  0
  184.9940  174.6040  136.0410 C   0  0  0  0  0  2  0  0  0  0  0  0
  182.9960  175.4870  137.8860 C   0  0  1  0  0  3  0  0  0  0  0  0
  180.6700  176.5500  137.6220 C   0  0  1  0  0  3  0  0  0  0  0  0
  183.9890  176.5350  137.3920 C   0  0  0  0  0  2  0  0  0  0  0  0
  181.8230  176.1760  138.5880 C   0  0  1  0  0  3  0  0  0  0  0  0
  181.6590  180.0470  138.1140 C   0  0  0  0  0  2  0  0  0  0  0  0
  179.2900  178.0050  140.0230 C   0  0  0  0  0  2  0  0  0  0  0  0
  180.3700  180.6860  140.0080 F   0  0  0  0  0  0  0  0  0  0  0  0
  182.1020  179.2370  140.3200 O   0  0  0  0  0  1  0  0  0  0  0  0
  180.2700  178.0300  137.7400 C   0  0  1  0  0  3  0  0  0  0  0  0
  180.1880  178.4810  139.1570 C   0  0  0  0  0  0  0  0  0  0  0  0
  181.3250  178.9370  137.1120 C   0  0  1  0  0  3  0  0  0  0  0  0
  181.0780  179.6330  139.4580 C   0  0  2  0  0  0  0  0  0  0  0  0
  181.6370  178.9480  134.7380 O   0  0  0  0  0  1  0  0  0  0  0  0
  180.8610  179.4840  135.7660 C   0  0  0  0  0  3  0  0  0  0  0  0
  180.9410  180.8790  135.7360 O   0  0  0  0  0  1  0  0  0  0  0  0
  188.1650  175.8140  137.4800 C   0  0  1  0  0  3  0  0  0  0  0  0
  188.3430  174.5350  136.9380 O   0  0  0  0  0  1  0  0  0  0  0  0
  189.4890  176.3730  138.0340 C   0  0  2  0  0  3  0  0  0  0  0  0
  190.5470  176.8280  140.3330 C   0  0  0  0  0  2  0  0  0  0  0  0
  189.4070  177.1510  139.3600 C   0  0  2  0  0  3  0  0  0  0  0  0
  190.3480  177.5210  141.6920 C   0  0  1  0  0  3  0  0  0  0  0  0
  188.1570  176.9560  139.9780 O   0  0  0  0  0  0  0  0  0  0  0  0
  189.2100  178.5500  141.6430 C   0  0  0  0  0  2  0  0  0  0  0  0
  187.9490  177.9530  140.9730 C   0  0  1  0  0  3  0  0  0  0  0  0
  190.1370  176.4950  142.8080 C   0  0  2  0  0  3  0  0  0  0  0  0
  188.9840  176.8070  143.5300 O   0  0  0  0  0  1  0  0  0  0  0  0
  191.3300  176.4910  143.7550 C   0  0  1  0  0  3  0  0  0  0  0  0
  191.5250  177.8660  144.3740 C   0  0  0  0  0  2  0  0  0  0  0  0
  190.8430  176.7720  145.1660 C   0  0  2  0  0  3  0  0  0  0  0  0
  191.4570  176.6140  147.5630 C   0  0  0  0  0  1  0  0  0  0  0  0
  191.8220  176.1790  146.1560 C   0  0  0  0  0  2  0  0  0  0  0  0
  185.9160  178.8600  141.4650 C   0  0  0  0  0  1  0  0  0  0  0  0
  187.0040  178.9220  140.5830 O   0  0  0  0  0  0  0  0  0  0  0  0
  190.3270  176.9540  137.0540 O   0  0  0  0  0  0  0  0  0  0  0  0
  191.3600  176.0570  136.7380 C   0  0  1  0  0  3  0  0  0  0  0  0
  191.4020  175.8470  135.2320 C   0  0  0  0  0  1  0  0  0  0  0  0
  193.0940  175.8570  138.3920 O   0  0  0  0  0  1  0  0  0  0  0  0
  193.6840  176.5020  136.2800 O   0  0  0  0  0  1  0  0  0  0  0  0
  192.6960  176.5790  137.2650 C   0  0  0  0  0  3  0  0  0  0  0  0
  2  5  1  6  0  0  0
  2  4  1  0  0  0  0
  2 29  1  0  0  0  0
  3  2  1  0  0  0  0
  3  9  1  0  0  0  0
  3  4  1  1  0  0  0
  4  1  2  0  0  0  0
  7  8  1  0  0  0  0
  7 12  1  0  0  0  0
  9 13  1  6  0  0  0
  9 16  1  0  0  0  0
 10 13  1  0  0  0  0
 10 12  1  0  0  0  0
 12  6  1  1  0  0  0
 12 14  1  0  0  0  0
 14 16  1  6  0  0  0
 14 17  1  0  0  0  0
 15  8  1  6  0  0  0
 15 22  1  0  0  0  0
 15 17  1  0  0  0  0
 17 11  1  1  0  0  0
 18 25  1  0  0  0  0
 22 23  1  1  0  0  0
 23 25  1  0  0  0  0
 23 19  2  0  0  0  0
 24 27  1  6  0  0  0
 24 22  1  0  0  0  0
 24 18  1  0  0  0  0
 25 20  1  1  0  0  0
 25 21  1  0  0  0  0
 26 27  1  0  0  0  0
 28 27  1  0  0  0  0
 29 30  1  6  0  0  0
 29 31  1  0  0  0  0
 31 47  1  6  0  0  0
 32 34  1  0  0  0  0
 33 31  1  6  0  0  0
 33 35  1  0  0  0  0
 33 32  1  0  0  0  0
 34 38  1  1  0  0  0
 35 37  1  0  0  0  0
 36 34  1  0  0  0  0
 37 46  1  6  0  0  0
 37 36  1  0  0  0  0
 38 39  1  1  0  0  0
 40 38  1  6  0  0  0
 40 41  1  0  0  0  0
 40 42  1  0  0  0  0
 41 42  1  0  0  0  0
 42 44  1  1  0  0  0
 44 43  1  0  0  0  0
 46 45  1  0  0  0  0
 48 49  1  6  0  0  0
 48 47  1  0  0  0  0
 48 52  1  0  0  0  0
 51 52  1  0  0  0  0
 52 50  1  0  0  0  0
M  END
>  <MODEL>
3

>  <REMARK>
 VINA RESULT:      -7.1      1.670      2.166
  Name = 
  13 active torsions:
  status: ('A' for Active; 'I' for Inactive)
    1  A    between atoms: C_1  and  C_14
    2  A    between atoms: C_1  and  C_30
    3  A    between atoms: O_7  and  C_12
    4  A    between atoms: O_7  and  C_16
    5  A    between atoms: C_12  and  C_27
    6  A    between atoms: C_12  and  C_28
    7  A    between atoms: C_13  and  C_27
    8  A    between atoms: C_16  and  C_45
    9  A    between atoms: C_17  and  C_19
   10  A    between atoms: C_18  and  C_32
   11  A    between atoms: C_20  and  C_40
   12  A    between atoms: C_37  and  C_52
   13  A    between atoms: C_44  and  O_50
                            x       y       z     vdW  Elec       q    Type
                         _______ _______ _______ _____ _____    ______ ____

>  <TORSDO>
F 13

$$$$
=
 OpenBabel11062415153D

 52 57  0  0  1  0  0  0  0  0999 V2000
  186.0610  179.0120  140.5180 O   0  0  0  0  0  0  0  0  0  0  0  0
  187.9520  178.1260  138.8610 C   0  0  2  0  0  0  0  0  0  0  0  0
  186.8310  178.4450  138.0100 C   0  0  2  0  0  3  0  0  0  0  0  0
  186.6950  178.6720  139.5330 C   0  0  0  0  0  0  0  0  0  0  0  0
  188.9760  179.0720  138.8360 O   0  0  0  0  0  1  0  0  0  0  0  0
  183.8970  175.1890  135.1010 O   0  0  0  0  0  1  0  0  0  0  0  0
  182.5860  177.1650  135.0100 C   0  0  0  0  0  2  0  0  0  0  0  0
  182.0840  178.1330  135.8930 O   0  0  0  0  0  0  0  0  0  0  0  0
  186.0060  177.2410  137.5610 C   0  0  2  0  0  3  0  0  0  0  0  0
  185.0590  177.2650  135.1910 C   0  0  0  0  0  2  0  0  0  0  0  0
  181.6730  175.1680  137.6340 O   0  0  0  0  0  1  0  0  0  0  0  0
  183.8120  176.4800  135.6220 C   0  0  2  0  0  0  0  0  0  0  0  0
  186.2650  176.9430  136.0750 C   0  0  0  0  0  2  0  0  0  0  0  0
  183.6840  176.3850  137.1710 C   0  0  1  0  0  3  0  0  0  0  0  0
  181.3560  177.4330  136.8750 C   0  0  1  0  0  3  0  0  0  0  0  0
  184.5240  177.4370  137.8890 C   0  0  0  0  0  2  0  0  0  0  0  0
  182.2400  176.4440  137.6750 C   0  0  1  0  0  3  0  0  0  0  0  0
  181.3180  179.4390  139.9450 C   0  0  0  0  0  2  0  0  0  0  0  0
  178.9310  176.9130  138.7820 C   0  0  0  0  0  2  0  0  0  0  0  0
  179.3330  178.6920  141.0240 F   0  0  0  0  0  0  0  0  0  0  0  0
  181.1140  177.2700  140.9330 O   0  0  0  0  0  1  0  0  0  0  0  0
  180.6270  178.4320  137.7890 C   0  0  1  0  0  3  0  0  0  0  0  0
  179.9510  177.7610  138.9340 C   0  0  0  0  0  0  0  0  0  0  0  0
  181.6120  179.4000  138.4420 C   0  0  1  0  0  3  0  0  0  0  0  0
  180.4020  178.2640  140.2580 C   0  0  2  0  0  0  0  0  0  0  0  0
  182.2740  181.6980  138.5590 O   0  0  0  0  0  1  0  0  0  0  0  0
  181.5480  180.7810  137.7970 C   0  0  0  0  0  3  0  0  0  0  0  0
  180.2260  181.2160  137.6720 O   0  0  0  0  0  1  0  0  0  0  0  0
  188.3560  176.6940  139.2730 C   0  0  1  0  0  3  0  0  0  0  0  0
  188.4650  175.8410  138.1690 O   0  0  0  0  0  1  0  0  0  0  0  0
  189.6590  176.7120  140.0940 C   0  0  2  0  0  3  0  0  0  0  0  0
  188.0600  176.6540  142.1070 C   0  0  0  0  0  2  0  0  0  0  0  0
  189.5100  176.7810  141.6250 C   0  0  2  0  0  3  0  0  0  0  0  0
  187.9460  176.8670  143.6260 C   0  0  1  0  0  3  0  0  0  0  0  0
  190.1000  177.9550  142.1320 O   0  0  0  0  0  0  0  0  0  0  0  0
  189.3250  176.8970  144.3000 C   0  0  0  0  0  2  0  0  0  0  0  0
  190.2960  177.8290  143.5370 C   0  0  1  0  0  3  0  0  0  0  0  0
  187.1300  178.1220  143.9460 C   0  0  2  0  0  3  0  0  0  0  0  0
  187.4000  178.5450  145.2480 O   0  0  0  0  0  1  0  0  0  0  0  0
  185.6400  177.8300  143.8180 C   0  0  1  0  0  3  0  0  0  0  0  0
  184.8790  178.4130  144.9970 C   0  0  0  0  0  2  0  0  0  0  0  0
  184.8890  179.1420  143.6710 C   0  0  2  0  0  3  0  0  0  0  0  0
  182.4390  178.8790  143.9370 C   0  0  0  0  0  1  0  0  0  0  0  0
  183.5860  178.8880  142.9440 C   0  0  0  0  0  2  0  0  0  0  0  0
  191.7030  177.0300  145.1440 C   0  0  0  0  0  1  0  0  0  0  0  0
  191.6490  177.6390  143.8820 O   0  0  0  0  0  0  0  0  0  0  0  0
  190.6690  177.5440  139.5570 O   0  0  0  0  0  0  0  0  0  0  0  0
  191.6830  176.7440  139.0060 C   0  0  1  0  0  3  0  0  0  0  0  0
  191.5680  176.7580  137.4890 C   0  0  0  0  0  1  0  0  0  0  0  0
  193.0980  177.3420  140.8550 O   0  0  0  0  0  1  0  0  0  0  0  0
  194.0650  176.3760  139.0240 O   0  0  0  0  0  1  0  0  0  0  0  0
  193.0550  177.2360  139.4640 C   0  0  0  0  0  3  0  0  0  0  0  0
  2  5  1  6  0  0  0
  2 29  1  0  0  0  0
  2  4  1  0  0  0  0
  3  2  1  0  0  0  0
  3  4  1  1  0  0  0
  4  1  2  0  0  0  0
  7 12  1  0  0  0  0
  7  8  1  0  0  0  0
  9 13  1  6  0  0  0
  9 16  1  0  0  0  0
  9  3  1  0  0  0  0
 10 12  1  0  0  0  0
 10 13  1  0  0  0  0
 12  6  1  6  0  0  0
 12 14  1  0  0  0  0
 14 17  1  0  0  0  0
 14 16  1  1  0  0  0
 15  8  1  6  0  0  0
 15 17  1  0  0  0  0
 15 22  1  0  0  0  0
 17 11  1  6  0  0  0
 18 25  1  0  0  0  0
 19 23  2  0  0  0  0
 22 24  1  0  0  0  0
 22 23  1  1  0  0  0
 23 25  1  0  0  0  0
 24 27  1  6  0  0  0
 24 18  1  0  0  0  0
 25 21  1  1  0  0  0
 25 20  1  0  0  0  0
 27 26  1  0  0  0  0
 28 27  1  0  0  0  0
 29 30  1  6  0  0  0
 29 31  1  0  0  0  0
 31 47  1  6  0  0  0
 32 34  1  0  0  0  0
 33 31  1  6  0  0  0
 33 32  1  0  0  0  0
 33 35  1  0  0  0  0
 34 38  1  6  0  0  0
 34 36  1  0  0  0  0
 35 37  1  0  0  0  0
 37 46  1  6  0  0  0
 37 36  1  0  0  0  0
 38 39  1  1  0  0  0
 40 38  1  1  0  0  0
 40 41  1  0  0  0  0
 42 44  1  6  0  0  0
 42 40  1  0  0  0  0
 42 41  1  0  0  0  0
 44 43  1  0  0  0  0
 46 45  1  0  0  0  0
 48 49  1  6  0  0  0
 48 52  1  0  0  0  0
 48 47  1  0  0  0  0
 51 52  1  0  0  0  0
 52 50  1  0  0  0  0
M  END
>  <MODEL>
4

>  <REMARK>
 VINA RESULT:      -6.9      1.204      2.700
  Name = 
  13 active torsions:
  status: ('A' for Active; 'I' for Inactive)
    1  A    between atoms: C_1  and  C_14
    2  A    between atoms: C_1  and  C_30
    3  A    between atoms: O_7  and  C_12
    4  A    between atoms: O_7  and  C_16
    5  A    between atoms: C_12  and  C_27
    6  A    between atoms: C_12  and  C_28
    7  A    between atoms: C_13  and  C_27
    8  A    between atoms: C_16  and  C_45
    9  A    between atoms: C_17  and  C_19
   10  A    between atoms: C_18  and  C_32
   11  A    between atoms: C_20  and  C_40
   12  A    between atoms: C_37  and  C_52
   13  A    between atoms: C_44  and  O_50
                            x       y       z     vdW  Elec       q    Type
                         _______ _______ _______ _____ _____    ______ ____

>  <TORSDO>
F 13

$$$$
=
 OpenBabel11062415153D

 52 57  0  0  1  0  0  0  0  0999 V2000
  188.6560  177.3760  139.4600 O   0  0  0  0  0  0  0  0  0  0  0  0
  188.0300  177.8570  136.9130 C   0  0  2  0  0  0  0  0  0  0  0  0
  186.8760  178.2850  137.6670 C   0  0  2  0  0  3  0  0  0  0  0  0
  188.0910  177.7090  138.4320 C   0  0  0  0  0  0  0  0  0  0  0  0
  188.8390  178.9000  136.4640 O   0  0  0  0  0  1  0  0  0  0  0  0
  182.2690  175.9740  136.6150 O   0  0  0  0  0  1  0  0  0  0  0  0
  181.5370  178.1130  137.3340 C   0  0  0  0  0  2  0  0  0  0  0  0
  181.7710  179.0010  138.3960 O   0  0  0  0  0  0  0  0  0  0  0  0
  185.7120  177.2980  137.6690 C   0  0  2  0  0  3  0  0  0  0  0  0
  183.7100  177.8180  136.1730 C   0  0  0  0  0  2  0  0  0  0  0  0
  181.7140  175.9020  139.9390 O   0  0  0  0  0  1  0  0  0  0  0  0
  182.7310  177.1700  137.1640 C   0  0  2  0  0  0  0  0  0  0  0  0
  185.1020  177.1920  136.2610 C   0  0  0  0  0  2  0  0  0  0  0  0
  183.4010  176.8630  138.5360 C   0  0  1  0  0  3  0  0  0  0  0  0
  181.5250  178.2770  139.5790 C   0  0  1  0  0  3  0  0  0  0  0  0
  184.6860  177.6600  138.7450 C   0  0  0  0  0  2  0  0  0  0  0  0
  182.4700  177.0590  139.7350 C   0  0  1  0  0  3  0  0  0  0  0  0
  181.2410  178.7800  143.2000 C   0  0  0  0  0  2  0  0  0  0  0  0
  179.4540  180.4460  140.4690 C   0  0  0  0  0  2  0  0  0  0  0  0
  179.5840  180.4810  143.3560 F   0  0  0  0  0  0  0  0  0  0  0  0
  178.9320  178.3930  142.7110 O   0  0  0  0  0  1  0  0  0  0  0  0
  181.5930  179.2240  140.7880 C   0  0  1  0  0  3  0  0  0  0  0  0
  180.2440  179.6800  141.2250 C   0  0  0  0  0  0  0  0  0  0  0  0
  182.1700  178.5140  142.0110 C   0  0  1  0  0  3  0  0  0  0  0  0
  179.9440  179.3520  142.6430 C   0  0  2  0  0  0  0  0  0  0  0  0
  184.4760  177.8750  142.0800 O   0  0  0  0  0  1  0  0  0  0  0  0
  183.6060  178.9480  142.2830 C   0  0  0  0  0  3  0  0  0  0  0  0
  183.7480  179.4270  143.5880 O   0  0  0  0  0  1  0  0  0  0  0  0
  188.1110  176.5380  136.1140 C   0  0  1  0  0  3  0  0  0  0  0  0
  188.5560  176.7450  134.8030 O   0  0  0  0  0  1  0  0  0  0  0  0
  188.9960  175.5120  136.8480 C   0  0  2  0  0  3  0  0  0  0  0  0
  191.3200  175.1320  135.8160 C   0  0  0  0  0  2  0  0  0  0  0  0
  190.5020  175.8220  136.9130 C   0  0  2  0  0  3  0  0  0  0  0  0
  192.8300  175.3580  136.0040 C   0  0  1  0  0  3  0  0  0  0  0  0
  191.0210  175.5140  138.1860 O   0  0  0  0  0  0  0  0  0  0  0  0
  193.1150  176.4160  137.0800 C   0  0  0  0  0  2  0  0  0  0  0  0
  192.2860  176.1460  138.3580 C   0  0  1  0  0  3  0  0  0  0  0  0
  193.5520  174.0410  136.2970 C   0  0  2  0  0  3  0  0  0  0  0  0
  193.0520  173.4770  137.4720 O   0  0  0  0  0  1  0  0  0  0  0  0
  195.0470  174.2820  136.4600 C   0  0  1  0  0  3  0  0  0  0  0  0
  195.8410  173.3010  135.6140 C   0  0  0  0  0  2  0  0  0  0  0  0
  195.6270  174.7170  135.1260 C   0  0  2  0  0  3  0  0  0  0  0  0
  197.7500  174.8350  136.4020 C   0  0  0  0  0  1  0  0  0  0  0  0
  196.8790  175.5310  135.3710 C   0  0  0  0  0  2  0  0  0  0  0  0
  193.2980  177.1460  140.1390 C   0  0  0  0  0  1  0  0  0  0  0  0
  192.2290  177.2450  139.2370 O   0  0  0  0  0  0  0  0  0  0  0  0
  188.6780  174.1650  136.5610 O   0  0  0  0  0  0  0  0  0  0  0  0
  187.3400  174.0840  136.1430 C   0  0  1  0  0  3  0  0  0  0  0  0
  187.2630  173.2920  134.8470 C   0  0  0  0  0  1  0  0  0  0  0  0
  185.2100  173.1430  136.7420 O   0  0  0  0  0  1  0  0  0  0  0  0
  187.0840  172.2930  137.7360 O   0  0  0  0  0  1  0  0  0  0  0  0
  186.4800  173.4490  137.2350 C   0  0  0  0  0  3  0  0  0  0  0  0
  2  5  1  6  0  0  0
  2  3  1  0  0  0  0
  2  4  1  0  0  0  0
  3  9  1  0  0  0  0
  3  4  1  1  0  0  0
  4  1  2  0  0  0  0
  7  8  1  0  0  0  0
  9 13  1  6  0  0  0
  9 16  1  0  0  0  0
 10 13  1  0  0  0  0
 10 12  1  0  0  0  0
 12  6  1  6  0  0  0
 12  7  1  0  0  0  0
 12 14  1  0  0  0  0
 14 16  1  1  0  0  0
 14 17  1  0  0  0  0
 15  8  1  6  0  0  0
 15 17  1  0  0  0  0
 15 22  1  0  0  0  0
 17 11  1  6  0  0  0
 19 23  2  0  0  0  0
 22 23  1  1  0  0  0
 22 24  1  0  0  0  0
 23 25  1  0  0  0  0
 24 27  1  1  0  0  0
 24 18  1  0  0  0  0
 25 21  1  1  0  0  0
 25 18  1  0  0  0  0
 25 20  1  0  0  0  0
 26 27  1  0  0  0  0
 27 28  1  0  0  0  0
 29 30  1  6  0  0  0
 29 31  1  0  0  0  0
 29  2  1  0  0  0  0
 31 47  1  6  0  0  0
 32 34  1  0  0  0  0
 32 33  1  0  0  0  0
 33 31  1  1  0  0  0
 33 35  1  0  0  0  0
 34 38  1  1  0  0  0
 34 36  1  0  0  0  0
 35 37  1  0  0  0  0
 36 37  1  0  0  0  0
 37 46  1  6  0  0  0
 38 39  1  1  0  0  0
 40 38  1  6  0  0  0
 41 40  1  0  0  0  0
 42 44  1  1  0  0  0
 42 41  1  0  0  0  0
 42 40  1  0  0  0  0
 44 43  1  0  0  0  0
 46 45  1  0  0  0  0
 48 49  1  6  0  0  0
 48 47  1  0  0  0  0
 48 52  1  0  0  0  0
 50 52  1  0  0  0  0
 52 51  1  0  0  0  0
M  END
>  <MODEL>
5

>  <REMARK>
 VINA RESULT:      -6.3      3.181      6.183
  Name = 
  13 active torsions:
  status: ('A' for Active; 'I' for Inactive)
    1  A    between atoms: C_1  and  C_14
    2  A    between atoms: C_1  and  C_30
    3  A    between atoms: O_7  and  C_12
    4  A    between atoms: O_7  and  C_16
    5  A    between atoms: C_12  and  C_27
    6  A    between atoms: C_12  and  C_28
    7  A    between atoms: C_13  and  C_27
    8  A    between atoms: C_16  and  C_45
    9  A    between atoms: C_17  and  C_19
   10  A    between atoms: C_18  and  C_32
   11  A    between atoms: C_20  and  C_40
   12  A    between atoms: C_37  and  C_52
   13  A    between atoms: C_44  and  O_50
                            x       y       z     vdW  Elec       q    Type
                         _______ _______ _______ _____ _____    ______ ____

>  <TORSDO>
F 13

$$$$
=
 OpenBabel11062415153D

 52 57  0  0  1  0  0  0  0  0999 V2000
  187.7980  177.7650  139.3670 O   0  0  0  0  0  0  0  0  0  0  0  0
  188.0530  178.1150  136.7360 C   0  0  2  0  0  0  0  0  0  0  0  0
  186.6420  178.2710  136.9970 C   0  0  2  0  0  3  0  0  0  0  0  0
  187.5880  177.9730  138.1830 C   0  0  0  0  0  0  0  0  0  0  0  0
  188.7310  179.3160  136.5280 O   0  0  0  0  0  1  0  0  0  0  0  0
  183.2450  175.0430  134.6070 O   0  0  0  0  0  1  0  0  0  0  0  0
  181.8580  176.9270  135.0050 C   0  0  0  0  0  2  0  0  0  0  0  0
  181.5420  177.7920  136.0640 O   0  0  0  0  0  0  0  0  0  0  0  0
  185.7910  177.0500  136.6560 C   0  0  2  0  0  3  0  0  0  0  0  0
  184.2920  177.1820  134.5940 C   0  0  0  0  0  2  0  0  0  0  0  0
  181.7130  174.6870  137.5880 O   0  0  0  0  0  1  0  0  0  0  0  0
  183.2280  176.2840  135.2420 C   0  0  2  0  0  0  0  0  0  0  0  0
  185.6920  176.8790  135.1310 C   0  0  0  0  0  2  0  0  0  0  0  0
  183.4880  176.0680  136.7630 C   0  0  1  0  0  3  0  0  0  0  0  0
  181.1110  176.9750  137.1270 C   0  0  1  0  0  3  0  0  0  0  0  0
  184.4270  177.1200  137.3460 C   0  0  0  0  0  2  0  0  0  0  0  0
  182.2110  175.9930  137.6030 C   0  0  1  0  0  3  0  0  0  0  0  0
  181.7640  179.4430  139.7600 C   0  0  0  0  0  2  0  0  0  0  0  0
  180.2680  176.1070  140.0120 C   0  0  0  0  0  2  0  0  0  0  0  0
  180.9690  178.3380  141.7120 F   0  0  0  0  0  0  0  0  0  0  0  0
  182.8840  177.5700  140.7400 O   0  0  0  0  0  1  0  0  0  0  0  0
  180.5810  177.8530  138.2730 C   0  0  1  0  0  3  0  0  0  0  0  0
  180.8330  177.2480  139.6100 C   0  0  0  0  0  0  0  0  0  0  0  0
  181.3080  179.1950  138.3190 C   0  0  1  0  0  3  0  0  0  0  0  0
  181.6240  178.1260  140.5120 C   0  0  2  0  0  0  0  0  0  0  0  0
  181.0730  181.5510  137.9590 O   0  0  0  0  0  1  0  0  0  0  0  0
  180.4340  180.3230  137.7800 C   0  0  0  0  0  3  0  0  0  0  0  0
  179.1910  180.3430  138.4200 O   0  0  0  0  0  1  0  0  0  0  0  0
  188.6930  176.8550  136.1170 C   0  0  1  0  0  3  0  0  0  0  0  0
  189.6470  177.1740  135.1430 O   0  0  0  0  0  1  0  0  0  0  0  0
  189.2960  175.9570  137.2150 C   0  0  2  0  0  3  0  0  0  0  0  0
  191.8410  175.9600  136.8460 C   0  0  0  0  0  2  0  0  0  0  0  0
  190.6770  176.3650  137.7580 C   0  0  2  0  0  3  0  0  0  0  0  0
  193.2030  176.2630  137.4940 C   0  0  1  0  0  3  0  0  0  0  0  0
  190.8700  175.8630  139.0600 O   0  0  0  0  0  0  0  0  0  0  0  0
  193.0510  177.1170  138.7600 C   0  0  0  0  0  2  0  0  0  0  0  0
  191.9510  176.5470  139.6870 C   0  0  1  0  0  3  0  0  0  0  0  0
  193.9810  174.9740  137.7680 C   0  0  2  0  0  3  0  0  0  0  0  0
  195.2430  175.2800  138.2790 O   0  0  0  0  0  1  0  0  0  0  0  0
  194.1480  174.1740  136.4820 C   0  0  1  0  0  3  0  0  0  0  0  0
  195.0200  172.9520  136.7230 C   0  0  0  0  0  2  0  0  0  0  0  0
  193.5150  172.8050  136.6650 C   0  0  2  0  0  3  0  0  0  0  0  0
  192.7320  170.7970  135.4400 C   0  0  0  0  0  1  0  0  0  0  0  0
  193.1120  172.2610  135.3120 C   0  0  0  0  0  2  0  0  0  0  0  0
  190.4700  176.8600  141.3920 C   0  0  0  0  0  1  0  0  0  0  0  0
  191.5200  177.4530  140.6760 O   0  0  0  0  0  0  0  0  0  0  0  0
  189.1340  174.5710  136.9820 O   0  0  0  0  0  0  0  0  0  0  0  0
  188.0450  174.3720  136.1180 C   0  0  1  0  0  3  0  0  0  0  0  0
  188.5010  173.5680  134.9100 C   0  0  0  0  0  1  0  0  0  0  0  0
  185.8470  173.4070  135.9810 O   0  0  0  0  0  1  0  0  0  0  0  0
  187.3450  172.4790  137.4360 O   0  0  0  0  0  1  0  0  0  0  0  0
  186.9050  173.6710  136.8540 C   0  0  0  0  0  3  0  0  0  0  0  0
  2  5  1  6  0  0  0
  2  3  1  0  0  0  0
  2  4  1  0  0  0  0
  3  4  1  1  0  0  0
  4  1  2  0  0  0  0
  7 12  1  0  0  0  0
  7  8  1  0  0  0  0
  9 13  1  6  0  0  0
  9  3  1  0  0  0  0
  9 16  1  0  0  0  0
 10 13  1  0  0  0  0
 10 12  1  0  0  0  0
 12  6  1  6  0  0  0
 12 14  1  0  0  0  0
 14 16  1  1  0  0  0
 14 17  1  0  0  0  0
 15  8  1  6  0  0  0
 15 17  1  0  0  0  0
 15 22  1  0  0  0  0
 17 11  1  6  0  0  0
 18 25  1  0  0  0  0
 22 24  1  0  0  0  0
 22 23  1  1  0  0  0
 23 19  2  0  0  0  0
 23 25  1  0  0  0  0
 24 27  1  1  0  0  0
 24 18  1  0  0  0  0
 25 21  1  1  0  0  0
 25 20  1  0  0  0  0
 27 26  1  0  0  0  0
 27 28  1  0  0  0  0
 29 30  1  6  0  0  0
 29  2  1  0  0  0  0
 29 31  1  0  0  0  0
 31 47  1  6  0  0  0
 32 34  1  0  0  0  0
 32 33  1  0  0  0  0
 33 31  1  6  0  0  0
 33 35  1  0  0  0  0
 34 38  1  1  0  0  0
 34 36  1  0  0  0  0
 35 37  1  0  0  0  0
 36 37  1  0  0  0  0
 37 46  1  6  0  0  0
 38 39  1  6  0  0  0
 40 42  1  0  0  0  0
 40 41  1  0  0  0  0
 40 38  1  1  0  0  0
 42 44  1  6  0  0  0
 42 41  1  0  0  0  0
 44 43  1  0  0  0  0
 46 45  1  0  0  0  0
 48 49  1  6  0  0  0
 48 52  1  0  0  0  0
 48 47  1  0  0  0  0
 50 52  1  0  0  0  0
 52 51  1  0  0  0  0
M  END
>  <MODEL>
6

>  <REMARK>
 VINA RESULT:      -6.2      2.375      5.194
  Name = 
  13 active torsions:
  status: ('A' for Active; 'I' for Inactive)
    1  A    between atoms: C_1  and  C_14
    2  A    between atoms: C_1  and  C_30
    3  A    between atoms: O_7  and  C_12
    4  A    between atoms: O_7  and  C_16
    5  A    between atoms: C_12  and  C_27
    6  A    between atoms: C_12  and  C_28
    7  A    between atoms: C_13  and  C_27
    8  A    between atoms: C_16  and  C_45
    9  A    between atoms: C_17  and  C_19
   10  A    between atoms: C_18  and  C_32
   11  A    between atoms: C_20  and  C_40
   12  A    between atoms: C_37  and  C_52
   13  A    between atoms: C_44  and  O_50
                            x       y       z     vdW  Elec       q    Type
                         _______ _______ _______ _____ _____    ______ ____

>  <TORSDO>
F 13

$$$$
=
 OpenBabel11062415153D

 52 57  0  0  1  0  0  0  0  0999 V2000
  187.1610  178.1070  140.1860 O   0  0  0  0  0  0  0  0  0  0  0  0
  184.6600  179.0270  140.2630 C   0  0  2  0  0  0  0  0  0  0  0  0
  185.2460  179.4370  141.5160 C   0  0  2  0  0  3  0  0  0  0  0  0
  186.1160  178.6440  140.5140 C   0  0  0  0  0  0  0  0  0  0  0  0
  184.5510  180.0500  139.3220 O   0  0  0  0  0  1  0  0  0  0  0  0
  183.7760  177.9190  146.3340 O   0  0  0  0  0  1  0  0  0  0  0  0
  185.6770  179.2420  146.8490 C   0  0  0  0  0  2  0  0  0  0  0  0
  187.0050  179.3840  146.4170 O   0  0  0  0  0  0  0  0  0  0  0  0
  184.8640  178.5700  142.7140 C   0  0  2  0  0  3  0  0  0  0  0  0
  184.2430  179.7540  144.8890 C   0  0  0  0  0  2  0  0  0  0  0  0
  186.5160  175.9570  146.3920 O   0  0  0  0  0  1  0  0  0  0  0  0
  184.8280  178.6160  145.7390 C   0  0  2  0  0  0  0  0  0  0  0  0
  183.7520  179.2510  143.5300 C   0  0  0  0  0  2  0  0  0  0  0  0
  185.6680  177.6180  144.8880 C   0  0  1  0  0  3  0  0  0  0  0  0
  187.5930  178.1090  146.5180 C   0  0  1  0  0  3  0  0  0  0  0  0
  186.0950  178.2140  143.5500 C   0  0  0  0  0  2  0  0  0  0  0  0
  186.8910  177.0600  145.6200 C   0  0  1  0  0  3  0  0  0  0  0  0
  190.6760  176.5290  145.3150 C   0  0  0  0  0  2  0  0  0  0  0  0
  189.9720  178.1010  148.5490 C   0  0  0  0  0  2  0  0  0  0  0  0
  192.1400  176.7730  147.1740 F   0  0  0  0  0  0  0  0  0  0  0  0
  190.4120  175.2950  147.3470 O   0  0  0  0  0  1  0  0  0  0  0  0
  189.0990  178.2090  146.2260 C   0  0  1  0  0  3  0  0  0  0  0  0
  189.9260  177.6080  147.3090 C   0  0  0  0  0  0  0  0  0  0  0  0
  189.4710  177.4130  144.9770 C   0  0  1  0  0  3  0  0  0  0  0  0
  190.8230  176.5250  146.8300 C   0  0  2  0  0  0  0  0  0  0  0  0
  189.4840  177.6520  142.5940 O   0  0  0  0  0  1  0  0  0  0  0  0
  189.7350  178.3310  143.7880 C   0  0  0  0  0  3  0  0  0  0  0  0
  191.0530  178.7960  143.7950 O   0  0  0  0  0  1  0  0  0  0  0  0
  183.6800  177.8450  140.1020 C   0  0  1  0  0  3  0  0  0  0  0  0
  182.4240  178.1250  140.6520 O   0  0  0  0  0  1  0  0  0  0  0  0
  183.5620  177.4360  138.6210 C   0  0  2  0  0  3  0  0  0  0  0  0
  181.6990  175.7710  138.0150 C   0  0  0  0  0  2  0  0  0  0  0  0
  182.1380  177.2380  138.0710 C   0  0  2  0  0  3  0  0  0  0  0  0
  180.3290  175.6130  137.3330 C   0  0  1  0  0  3  0  0  0  0  0  0
  182.0010  177.8460  136.8080 O   0  0  0  0  0  0  0  0  0  0  0  0
  179.6440  176.9690  137.1160 C   0  0  0  0  0  2  0  0  0  0  0  0
  180.6200  177.9920  136.4890 C   0  0  1  0  0  3  0  0  0  0  0  0
  180.4530  174.8240  136.0270 C   0  0  2  0  0  3  0  0  0  0  0  0
  179.2580  174.9020  135.3100 O   0  0  0  0  0  1  0  0  0  0  0  0
  180.7610  173.3610  136.3200 C   0  0  1  0  0  3  0  0  0  0  0  0
  181.1720  172.6360  135.0490 C   0  0  0  0  0  2  0  0  0  0  0  0
  182.2280  173.0960  136.0310 C   0  0  2  0  0  3  0  0  0  0  0  0
  184.1260  171.5720  136.5060 C   0  0  0  0  0  1  0  0  0  0  0  0
  182.6920  171.9190  136.8620 C   0  0  0  0  0  2  0  0  0  0  0  0
  180.3200  179.9300  135.3260 C   0  0  0  0  0  1  0  0  0  0  0  0
  180.1790  179.3260  136.5840 O   0  0  0  0  0  0  0  0  0  0  0  0
  184.4980  176.4570  138.2150 O   0  0  0  0  0  0  0  0  0  0  0  0
  184.9390  176.7490  136.9140 C   0  0  1  0  0  3  0  0  0  0  0  0
  186.1100  177.7180  136.9850 C   0  0  0  0  0  1  0  0  0  0  0  0
  186.1300  175.7510  135.0790 O   0  0  0  0  0  1  0  0  0  0  0  0
  185.9920  174.5840  137.0390 O   0  0  0  0  0  1  0  0  0  0  0  0
  185.3240  175.4640  136.1830 C   0  0  0  0  0  3  0  0  0  0  0  0
  1  4  2  0  0  0  0
  2  5  1  6  0  0  0
  2  4  1  0  0  0  0
  2  3  1  0  0  0  0
  3  4  1  6  0  0  0
  3  9  1  0  0  0  0
  8  7  1  0  0  0  0
  9 13  1  1  0  0  0
  9 16  1  0  0  0  0
 10 12  1  0  0  0  0
 12  6  1  1  0  0  0
 12  7  1  0  0  0  0
 13 10  1  0  0  0  0
 14 16  1  6  0  0  0
 14 17  1  0  0  0  0
 14 12  1  0  0  0  0
 15  8  1  6  0  0  0
 17 11  1  1  0  0  0
 17 15  1  0  0  0  0
 18 25  1  0  0  0  0
 22 15  1  0  0  0  0
 22 23  1  1  0  0  0
 23 19  2  0  0  0  0
 24 27  1  6  0  0  0
 24 18  1  0  0  0  0
 24 22  1  0  0  0  0
 25 20  1  1  0  0  0
 25 23  1  0  0  0  0
 25 21  1  0  0  0  0
 26 27  1  0  0  0  0
 27 28  1  0  0  0  0
 29  2  1  0  0  0  0
 29 30  1  6  0  0  0
 31 47  1  1  0  0  0
 31 29  1  0  0  0  0
 32 33  1  0  0  0  0
 33 31  1  6  0  0  0
 34 38  1  6  0  0  0
 34 32  1  0  0  0  0
 35 33  1  0  0  0  0
 36 34  1  0  0  0  0
 37 46  1  1  0  0  0
 37 35  1  0  0  0  0
 37 36  1  0  0  0  0
 38 39  1  1  0  0  0
 40 38  1  6  0  0  0
 41 42  1  0  0  0  0
 41 40  1  0  0  0  0
 42 40  1  0  0  0  0
 42 44  1  1  0  0  0
 43 44  1  0  0  0  0
 45 46  1  0  0  0  0
 48 49  1  1  0  0  0
 48 47  1  0  0  0  0
 50 52  1  0  0  0  0
 52 48  1  0  0  0  0
 52 51  1  0  0  0  0
M  END
>  <MODEL>
7

>  <REMARK>
 VINA RESULT:      -6.1      3.310     10.370
  Name = 
  13 active torsions:
  status: ('A' for Active; 'I' for Inactive)
    1  A    between atoms: C_1  and  C_14
    2  A    between atoms: C_1  and  C_30
    3  A    between atoms: O_7  and  C_12
    4  A    between atoms: O_7  and  C_16
    5  A    between atoms: C_12  and  C_27
    6  A    between atoms: C_12  and  C_28
    7  A    between atoms: C_13  and  C_27
    8  A    between atoms: C_16  and  C_45
    9  A    between atoms: C_17  and  C_19
   10  A    between atoms: C_18  and  C_32
   11  A    between atoms: C_20  and  C_40
   12  A    between atoms: C_37  and  C_52
   13  A    between atoms: C_44  and  O_50
                            x       y       z     vdW  Elec       q    Type
                         _______ _______ _______ _____ _____    ______ ____

>  <TORSDO>
F 13

$$$$
=
 OpenBabel11062415153D

 52 57  0  0  1  0  0  0  0  0999 V2000
  186.1700  179.0000  140.5790 O   0  0  0  0  0  0  0  0  0  0  0  0
  187.7980  178.1400  138.6510 C   0  0  2  0  0  0  0  0  0  0  0  0
  186.5220  178.3300  138.0030 C   0  0  2  0  0  3  0  0  0  0  0  0
  186.6430  178.6420  139.5130 C   0  0  0  0  0  0  0  0  0  0  0  0
  188.7250  179.1490  138.3920 O   0  0  0  0  0  1  0  0  0  0  0  0
  183.5140  174.6370  135.7710 O   0  0  0  0  0  1  0  0  0  0  0  0
  182.0970  176.5310  135.5880 C   0  0  0  0  0  2  0  0  0  0  0  0
  181.6260  177.5720  136.4030 O   0  0  0  0  0  0  0  0  0  0  0  0
  185.7260  177.0480  137.7720 C   0  0  2  0  0  3  0  0  0  0  0  0
  184.5660  176.7580  135.5170 C   0  0  0  0  0  2  0  0  0  0  0  0
  181.5340  174.8130  138.4930 O   0  0  0  0  0  1  0  0  0  0  0  0
  183.4080  175.9750  136.1510 C   0  0  2  0  0  0  0  0  0  0  0  0
  185.8640  176.5920  136.3100 C   0  0  0  0  0  2  0  0  0  0  0  0
  183.4270  176.0540  137.7060 C   0  0  1  0  0  3  0  0  0  0  0  0
  181.0280  176.9600  137.5220 C   0  0  1  0  0  3  0  0  0  0  0  0
  184.2710  177.2170  138.2180 C   0  0  0  0  0  2  0  0  0  0  0  0
  182.0330  176.1090  138.3380 C   0  0  1  0  0  3  0  0  0  0  0  0
  181.2650  179.9890  139.5760 C   0  0  0  0  0  2  0  0  0  0  0  0
  179.9320  176.6860  140.4390 C   0  0  0  0  0  2  0  0  0  0  0  0
  180.3280  179.2830  141.6460 F   0  0  0  0  0  0  0  0  0  0  0  0
  182.3730  178.4690  141.0530 O   0  0  0  0  0  1  0  0  0  0  0  0
  180.3340  178.0260  138.3860 C   0  0  1  0  0  3  0  0  0  0  0  0
  180.4740  177.7510  139.8430 C   0  0  0  0  0  0  0  0  0  0  0  0
  180.9780  179.3970  138.1930 C   0  0  1  0  0  3  0  0  0  0  0  0
  181.1170  178.8630  140.5900 C   0  0  2  0  0  0  0  0  0  0  0  0
  178.9670  179.6200  136.9120 O   0  0  0  0  0  1  0  0  0  0  0  0
  180.1060  180.3080  137.3350 C   0  0  0  0  0  3  0  0  0  0  0  0
  180.8110  180.7770  136.2240 O   0  0  0  0  0  1  0  0  0  0  0  0
  188.3780  176.7670  139.0520 C   0  0  1  0  0  3  0  0  0  0  0  0
  188.4270  175.8800  137.9690 O   0  0  0  0  0  1  0  0  0  0  0  0
  189.7660  176.9320  139.7000 C   0  0  2  0  0  3  0  0  0  0  0  0
  188.7620  176.0820  141.9090 C   0  0  0  0  0  2  0  0  0  0  0  0
  189.8080  176.9800  141.2380 C   0  0  2  0  0  3  0  0  0  0  0  0
  188.7500  176.2680  143.4370 C   0  0  1  0  0  3  0  0  0  0  0  0
  189.6940  178.3060  141.7000 O   0  0  0  0  0  0  0  0  0  0  0  0
  189.9460  177.1020  143.9160 C   0  0  0  0  0  2  0  0  0  0  0  0
  190.1110  178.3800  143.0600 C   0  0  1  0  0  3  0  0  0  0  0  0
  187.4190  176.8590  143.9080 C   0  0  2  0  0  3  0  0  0  0  0  0
  186.7730  177.4860  142.8410 O   0  0  0  0  0  1  0  0  0  0  0  0
  187.6570  177.8810  145.0130 C   0  0  1  0  0  3  0  0  0  0  0  0
  186.4310  177.9980  145.9040 C   0  0  0  0  0  2  0  0  0  0  0  0
  187.6180  177.1750  146.3570 C   0  0  2  0  0  3  0  0  0  0  0  0
  187.9340  177.6850  148.7630 C   0  0  0  0  0  1  0  0  0  0  0  0
  188.4310  177.9690  147.3570 C   0  0  0  0  0  2  0  0  0  0  0  0
  191.7020  179.0000  144.5710 C   0  0  0  0  0  1  0  0  0  0  0  0
  191.3660  179.0020  143.2100 O   0  0  0  0  0  0  0  0  0  0  0  0
  190.5980  177.8750  139.0530 O   0  0  0  0  0  0  0  0  0  0  0  0
  191.8640  177.3060  138.8400 C   0  0  1  0  0  3  0  0  0  0  0  0
  192.5700  177.1340  140.1760 C   0  0  0  0  0  1  0  0  0  0  0  0
  191.4760  176.1830  136.7490 O   0  0  0  0  0  1  0  0  0  0  0  0
  192.8850  175.2010  138.2580 O   0  0  0  0  0  1  0  0  0  0  0  0
  191.7290  175.9720  138.1070 C   0  0  0  0  0  3  0  0  0  0  0  0
  2  5  1  6  0  0  0
  2 29  1  0  0  0  0
  2  4  1  0  0  0  0
  3  2  1  0  0  0  0
  3  4  1  1  0  0  0
  4  1  2  0  0  0  0
  7 12  1  0  0  0  0
  7  8  1  0  0  0  0
  9 13  1  6  0  0  0
  9  3  1  0  0  0  0
  9 16  1  0  0  0  0
 10 12  1  0  0  0  0
 10 13  1  0  0  0  0
 12  6  1  6  0  0  0
 12 14  1  0  0  0  0
 14 16  1  6  0  0  0
 14 17  1  0  0  0  0
 15  8  1  6  0  0  0
 15 17  1  0  0  0  0
 15 22  1  0  0  0  0
 17 11  1  6  0  0  0
 18 25  1  0  0  0  0
 22 23  1  1  0  0  0
 23 19  2  0  0  0  0
 23 25  1  0  0  0  0
 24 27  1  1  0  0  0
 24 22  1  0  0  0  0
 24 18  1  0  0  0  0
 25 21  1  1  0  0  0
 25 20  1  0  0  0  0
 26 27  1  0  0  0  0
 28 27  1  0  0  0  0
 29 30  1  6  0  0  0
 29 31  1  0  0  0  0
 31 47  1  6  0  0  0
 32 34  1  0  0  0  0
 33 31  1  6  0  0  0
 33 35  1  0  0  0  0
 33 32  1  0  0  0  0
 34 38  1  6  0  0  0
 34 36  1  0  0  0  0
 35 37  1  0  0  0  0
 37 46  1  6  0  0  0
 37 36  1  0  0  0  0
 38 39  1  6  0  0  0
 40 38  1  6  0  0  0
 40 41  1  0  0  0  0
 40 42  1  0  0  0  0
 41 42  1  0  0  0  0
 42 44  1  1  0  0  0
 44 43  1  0  0  0  0
 46 45  1  0  0  0  0
 48 47  1  0  0  0  0
 48 49  1  1  0  0  0
 50 52  1  0  0  0  0
 52 51  1  0  0  0  0
 52 48  1  0  0  0  0
M  END
>  <MODEL>
8

>  <REMARK>
 VINA RESULT:      -6.0      1.187      2.071
  Name = 
  13 active torsions:
  status: ('A' for Active; 'I' for Inactive)
    1  A    between atoms: C_1  and  C_14
    2  A    between atoms: C_1  and  C_30
    3  A    between atoms: O_7  and  C_12
    4  A    between atoms: O_7  and  C_16
    5  A    between atoms: C_12  and  C_27
    6  A    between atoms: C_12  and  C_28
    7  A    between atoms: C_13  and  C_27
    8  A    between atoms: C_16  and  C_45
    9  A    between atoms: C_17  and  C_19
   10  A    between atoms: C_18  and  C_32
   11  A    between atoms: C_20  and  C_40
   12  A    between atoms: C_37  and  C_52
   13  A    between atoms: C_44  and  O_50
                            x       y       z     vdW  Elec       q    Type
                         _______ _______ _______ _____ _____    ______ ____

>  <TORSDO>
F 13

$$$$
=
 OpenBabel11062415153D

 52 57  0  0  1  0  0  0  0  0999 V2000
  185.6940  178.8300  138.8080 O   0  0  0  0  0  0  0  0  0  0  0  0
  188.1230  177.9230  138.1870 C   0  0  2  0  0  0  0  0  0  0  0  0
  187.3120  177.6380  137.0280 C   0  0  2  0  0  3  0  0  0  0  0  0
  186.6550  178.3390  138.2390 C   0  0  0  0  0  0  0  0  0  0  0  0
  188.9650  179.0250  138.0370 O   0  0  0  0  0  1  0  0  0  0  0  0
  185.4170  173.1220  135.1080 O   0  0  0  0  0  1  0  0  0  0  0  0
  183.6360  174.6020  134.5940 C   0  0  0  0  0  2  0  0  0  0  0  0
  182.8730  175.5900  135.2360 O   0  0  0  0  0  0  0  0  0  0  0  0
  186.8450  176.1890  136.9150 C   0  0  2  0  0  3  0  0  0  0  0  0
  185.9890  175.3870  134.6480 C   0  0  0  0  0  2  0  0  0  0  0  0
  183.2100  173.1360  137.6550 O   0  0  0  0  0  1  0  0  0  0  0  0
  184.9820  174.4320  135.3040 C   0  0  2  0  0  0  0  0  0  0  0  0
  187.2130  175.6170  135.5360 C   0  0  0  0  0  2  0  0  0  0  0  0
  184.8420  174.6870  136.8340 C   0  0  1  0  0  3  0  0  0  0  0  0
  182.3280  174.9840  136.3850 C   0  0  1  0  0  3  0  0  0  0  0  0
  185.3560  176.0640  137.2430 C   0  0  0  0  0  2  0  0  0  0  0  0
  183.4200  174.4870  137.3650 C   0  0  1  0  0  3  0  0  0  0  0  0
  181.2700  176.8260  139.3740 C   0  0  0  0  0  2  0  0  0  0  0  0
  179.4050  174.4150  137.3400 C   0  0  0  0  0  2  0  0  0  0  0  0
  179.0370  176.0650  139.6850 F   0  0  0  0  0  0  0  0  0  0  0  0
  180.7420  174.6130  140.1120 O   0  0  0  0  0  1  0  0  0  0  0  0
  181.3380  175.9490  137.0580 C   0  0  1  0  0  3  0  0  0  0  0  0
  180.3170  175.2330  137.8720 C   0  0  0  0  0  0  0  0  0  0  0  0
  182.0500  176.8600  138.0560 C   0  0  1  0  0  3  0  0  0  0  0  0
  180.3000  175.6550  139.2960 C   0  0  2  0  0  0  0  0  0  0  0  0
  181.5400  179.1840  138.3270 O   0  0  0  0  0  1  0  0  0  0  0  0
  182.2090  178.2740  137.5070 C   0  0  0  0  0  3  0  0  0  0  0  0
  181.7140  178.3640  136.2040 O   0  0  0  0  0  1  0  0  0  0  0  0
  188.5530  176.8720  139.2320 C   0  0  1  0  0  3  0  0  0  0  0  0
  189.8470  176.3930  138.9930 O   0  0  0  0  0  1  0  0  0  0  0  0
  188.4230  177.4400  140.6590 C   0  0  2  0  0  3  0  0  0  0  0  0
  188.8350  176.6930  143.0840 C   0  0  0  0  0  2  0  0  0  0  0  0
  189.4410  176.9360  141.6970 C   0  0  2  0  0  3  0  0  0  0  0  0
  189.9140  176.3250  144.1190 C   0  0  1  0  0  3  0  0  0  0  0  0
  190.5420  177.8110  141.7830 O   0  0  0  0  0  0  0  0  0  0  0  0
  191.2680  176.0480  143.4530 C   0  0  0  0  0  2  0  0  0  0  0  0
  191.6270  177.1590  142.4380 C   0  0  1  0  0  3  0  0  0  0  0  0
  190.0230  177.3990  145.2040 C   0  0  2  0  0  3  0  0  0  0  0  0
  191.3130  177.4030  145.7390 O   0  0  0  0  0  1  0  0  0  0  0  0
  189.0240  177.1270  146.3200 C   0  0  1  0  0  3  0  0  0  0  0  0
  188.9330  178.3190  147.2590 C   0  0  0  0  0  2  0  0  0  0  0  0
  187.8700  178.1080  146.2030 C   0  0  2  0  0  3  0  0  0  0  0  0
  185.4160  178.3250  146.4770 C   0  0  0  0  0  1  0  0  0  0  0  0
  186.6380  177.5030  146.8400 C   0  0  0  0  0  2  0  0  0  0  0  0
  192.7320  177.7720  140.5400 C   0  0  0  0  0  1  0  0  0  0  0  0
  192.6620  176.8020  141.5510 O   0  0  0  0  0  0  0  0  0  0  0  0
  187.0920  177.5290  141.1260 O   0  0  0  0  0  0  0  0  0  0  0  0
  186.9700  178.6490  141.9640 C   0  0  1  0  0  3  0  0  0  0  0  0
  187.7720  179.8040  141.3820 C   0  0  0  0  0  1  0  0  0  0  0  0
  184.6780  177.9310  141.8580 O   0  0  0  0  0  1  0  0  0  0  0  0
  185.2510  179.4870  143.4310 O   0  0  0  0  0  1  0  0  0  0  0  0
  185.4990  179.0260  142.1360 C   0  0  0  0  0  3  0  0  0  0  0  0
  2  5  1  6  0  0  0
  2  4  1  0  0  0  0
  2 29  1  0  0  0  0
  3  2  1  0  0  0  0
  3  4  1  1  0  0  0
  4  1  2  0  0  0  0
  7  8  1  0  0  0  0
  7 12  1  0  0  0  0
  9 13  1  6  0  0  0
  9  3  1  0  0  0  0
  9 16  1  0  0  0  0
 10 12  1  0  0  0  0
 10 13  1  0  0  0  0
 12  6  1  6  0  0  0
 12 14  1  0  0  0  0
 14 16  1  6  0  0  0
 14 17  1  0  0  0  0
 15  8  1  6  0  0  0
 15 22  1  0  0  0  0
 15 17  1  0  0  0  0
 17 11  1  6  0  0  0
 19 23  2  0  0  0  0
 22 23  1  1  0  0  0
 22 24  1  0  0  0  0
 23 25  1  0  0  0  0
 24 27  1  6  0  0  0
 24 18  1  0  0  0  0
 25 18  1  0  0  0  0
 25 20  1  1  0  0  0
 25 21  1  0  0  0  0
 27 26  1  0  0  0  0
 28 27  1  0  0  0  0
 29 30  1  6  0  0  0
 29 31  1  0  0  0  0
 31 47  1  1  0  0  0
 32 34  1  0  0  0  0
 33 31  1  6  0  0  0
 33 35  1  0  0  0  0
 33 32  1  0  0  0  0
 34 38  1  1  0  0  0
 35 37  1  0  0  0  0
 36 34  1  0  0  0  0
 37 46  1  6  0  0  0
 37 36  1  0  0  0  0
 38 39  1  1  0  0  0
 40 38  1  6  0  0  0
 40 41  1  0  0  0  0
 42 40  1  0  0  0  0
 42 44  1  1  0  0  0
 42 41  1  0  0  0  0
 43 44  1  0  0  0  0
 45 46  1  0  0  0  0
 47 48  1  0  0  0  0
 48 49  1  6  0  0  0
 48 52  1  0  0  0  0
 50 52  1  0  0  0  0
 52 51  1  0  0  0  0
M  END
>  <MODEL>
9

>  <REMARK>
 VINA RESULT:      -6.0      1.849      3.670
  Name = 
  13 active torsions:
  status: ('A' for Active; 'I' for Inactive)
    1  A    between atoms: C_1  and  C_14
    2  A    between atoms: C_1  and  C_30
    3  A    between atoms: O_7  and  C_12
    4  A    between atoms: O_7  and  C_16
    5  A    between atoms: C_12  and  C_27
    6  A    between atoms: C_12  and  C_28
    7  A    between atoms: C_13  and  C_27
    8  A    between atoms: C_16  and  C_45
    9  A    between atoms: C_17  and  C_19
   10  A    between atoms: C_18  and  C_32
   11  A    between atoms: C_20  and  C_40
   12  A    between atoms: C_37  and  C_52
   13  A    between atoms: C_44  and  O_50
                            x       y       z     vdW  Elec       q    Type
                         _______ _______ _______ _____ _____    ______ ____

>  <TORSDO>
F 13

$$$$
