=
 OpenBabel11062417123D

 36 40  0  0  1  0  0  0  0  0999 V2000
  190.5960  176.1180  135.9400 C   0  0  0  0  0  0  0  0  0  0  0  0
  192.5500  174.8280  135.4590 O   0  0  0  0  0  1  0  0  0  0  0  0
  188.4150  177.8030  139.1860 C   0  0  2  0  0  3  0  0  0  0  0  0
  190.0180  176.9720  136.9870 C   0  0  0  0  0  0  0  0  0  0  0  0
  191.4770  174.9700  136.3440 C   0  0  1  0  0  3  0  0  0  0  0  0
  189.9080  177.6390  139.4790 C   0  0  2  0  0  3  0  0  0  0  0  0
  191.9630  175.0700  137.8100 C   0  0  2  0  0  3  0  0  0  0  0  0
  190.6650  176.8930  138.3530 C   0  0  1  0  0  3  0  0  0  0  0  0
  190.2840  176.2800  134.7290 O   0  0  0  0  0  0  0  0  0  0  0  0
  190.9510  175.5470  138.6810 O   0  0  0  0  0  0  0  0  0  0  0  0
  188.2600  178.4960  137.8360 C   0  0  0  0  0  2  0  0  0  0  0  0
  188.9040  177.6780  136.7610 C   0  0  0  0  0  3  0  0  0  0  0  0
  193.2880  175.8150  137.9840 C   0  0  0  0  0  1  0  0  0  0  0  0
  190.1300  177.0210  140.8590 C   0  0  0  0  0  2  0  0  0  0  0  0
  191.4030  177.3390  141.3460 O   0  0  0  0  0  0  0  0  0  0  0  0
  191.1990  177.7790  142.6580 C   0  0  0  0  0  2  0  0  0  0  0  0
  191.7040  176.7450  143.6590 C   0  0  0  0  0  2  0  0  0  0  0  0
  190.8080  176.6730  144.8050 N   0  0  0  0  0  0  0  0  0  0  0  0
  191.6500  176.6440  145.9980 C   0  0  0  0  0  2  0  0  0  0  0  0
  189.0090  177.8690  145.9650 C   0  0  0  0  0  2  0  0  0  0  0  0
  190.0370  177.9160  144.8350 C   0  0  0  0  0  2  0  0  0  0  0  0
  189.6840  177.4940  147.2510 C   0  0  0  0  0  0  0  0  0  0  0  0
  189.2820  177.9540  148.3060 O   0  0  0  0  0  0  0  0  0  0  0  0
  190.7860  176.4760  147.2480 C   0  0  0  0  0  2  0  0  0  0  0  0
  187.7960  178.6210  140.2210 N   0  0  0  0  0  2  0  0  0  0  0  0
  185.5310  178.1070  144.0300 C   0  0  0  0  0  0  0  0  0  0  0  0
  184.0570  178.6730  139.8270 C   0  0  0  0  0  3  0  0  0  0  0  0
  185.9450  178.4290  141.8130 C   0  0  0  0  0  0  0  0  0  0  0  0
  186.6960  178.2550  143.0820 C   0  0  0  0  0  2  0  0  0  0  0  0
  183.6670  178.4980  141.1250 N   0  0  0  0  0  0  0  0  0  0  0  0
  184.6100  178.3800  142.0930 C   0  0  0  0  0  0  0  0  0  0  0  0
  185.4260  178.7250  139.4940 C   0  0  0  0  0  3  0  0  0  0  0  0
  186.3950  178.6000  140.5070 C   0  0  0  0  0  0  0  0  0  0  0  0
  184.3600  178.1800  143.4690 N   0  0  0  0  0  0  0  0  0  0  0  0
  185.7020  177.9080  145.4000 O   0  0  0  0  0  0  0  0  0  0  0  0
  185.1970  178.8230  146.3610 C   0  0  0  0  0  1  0  0  0  0  0  0
  1  5  1  0  0  0  0
  1  4  1  0  0  0  0
  3  6  1  0  0  0  0
  3 25  1  1  0  0  0
  5  2  1  6  0  0  0
  5  7  1  0  0  0  0
  6 14  1  1  0  0  0
  7 13  1  6  0  0  0
  7 10  1  0  0  0  0
  8  4  1  6  0  0  0
  8 10  1  0  0  0  0
  8  6  1  0  0  0  0
  9  1  2  0  0  0  0
 11  3  1  0  0  0  0
 12  4  2  0  0  0  0
 12 11  1  0  0  0  0
 14 15  1  0  0  0  0
 15 16  1  0  0  0  0
 16 17  1  0  0  0  0
 17 18  1  0  0  0  0
 18 21  1  0  0  0  0
 18 19  1  0  0  0  0
 19 24  1  0  0  0  0
 20 22  1  0  0  0  0
 21 20  1  0  0  0  0
 22 23  2  0  0  0  0
 24 22  1  0  0  0  0
 25 33  1  0  0  0  0
 26 35  1  0  0  0  0
 27 30  1  0  0  0  0
 28 31  1  0  0  0  0
 28 29  1  0  0  0  0
 29 26  1  0  0  0  0
 30 31  2  0  0  0  0
 31 34  1  0  0  0  0
 32 27  2  0  0  0  0
 32 33  1  0  0  0  0
 33 28  2  0  0  0  0
 34 26  2  0  0  0  0
 35 36  1  0  0  0  0
M  END
>  <MODEL>
1

>  <REMARK>
 VINA RESULT:      -8.8      0.000      0.000
  Name = 
  8 active torsions:
  status: ('A' for Active; 'I' for Inactive)
    1  A    between atoms: C_2  and  O_22
    2  A    between atoms: C_2  and  C_31
    3  A    between atoms: C_4  and  N_17
    4  A    between atoms: C_5  and  C_10
    5  A    between atoms: C_5  and  O_22
    6  A    between atoms: N_6  and  C_31
    7  A    between atoms: C_9  and  O_11
    8  A    between atoms: N_17  and  C_26
                            x       y       z     vdW  Elec       q    Type
                         _______ _______ _______ _____ _____    ______ ____

>  <TORSDO>
F 8

$$$$
=
 OpenBabel11062417123D

 36 40  0  0  1  0  0  0  0  0999 V2000
  189.7760  177.0840  146.3640 C   0  0  0  0  0  0  0  0  0  0  0  0
  192.0790  176.5110  146.6540 O   0  0  0  0  0  1  0  0  0  0  0  0
  186.9270  178.0740  143.3580 C   0  0  2  0  0  3  0  0  0  0  0  0
  188.7210  177.1020  145.3410 C   0  0  0  0  0  0  0  0  0  0  0  0
  191.1970  177.3340  145.9460 C   0  0  1  0  0  3  0  0  0  0  0  0
  188.0710  177.1980  142.8440 C   0  0  2  0  0  3  0  0  0  0  0  0
  191.4070  177.2070  144.4190 C   0  0  2  0  0  3  0  0  0  0  0  0
  189.1760  176.9660  143.9040 C   0  0  1  0  0  3  0  0  0  0  0  0
  189.4890  176.9600  147.5860 O   0  0  0  0  0  0  0  0  0  0  0  0
  190.3280  177.7540  143.6790 O   0  0  0  0  0  0  0  0  0  0  0  0
  186.3730  177.4480  144.6340 C   0  0  0  0  0  2  0  0  0  0  0  0
  187.4490  177.3530  145.6700 C   0  0  0  0  0  3  0  0  0  0  0  0
  191.7870  175.7990  143.9510 C   0  0  0  0  0  1  0  0  0  0  0  0
  188.6170  177.7320  141.5200 C   0  0  0  0  0  2  0  0  0  0  0  0
  189.3640  176.7510  140.8600 O   0  0  0  0  0  0  0  0  0  0  0  0
  189.7330  177.3250  139.6380 C   0  0  0  0  0  2  0  0  0  0  0  0
  188.9430  178.6030  139.3820 C   0  0  0  0  0  2  0  0  0  0  0  0
  188.3740  178.5840  138.0420 N   0  0  0  0  0  0  0  0  0  0  0  0
  189.2860  177.8100  137.2050 C   0  0  0  0  0  2  0  0  0  0  0  0
  186.4100  177.8740  136.7560 C   0  0  0  0  0  2  0  0  0  0  0  0
  187.1080  177.8540  138.1150 C   0  0  0  0  0  2  0  0  0  0  0  0
  187.3610  177.4180  135.6890 C   0  0  0  0  0  0  0  0  0  0  0  0
  186.9440  176.7930  134.7290 O   0  0  0  0  0  0  0  0  0  0  0  0
  188.8060  177.8180  135.7540 C   0  0  0  0  0  2  0  0  0  0  0  0
  185.8700  178.1430  142.3580 N   0  0  0  0  0  2  0  0  0  0  0  0
  182.1770  178.2560  139.8570 C   0  0  0  0  0  0  0  0  0  0  0  0
  182.7680  179.1880  144.2090 C   0  0  0  0  0  3  0  0  0  0  0  0
  183.5310  178.4100  141.6820 C   0  0  0  0  0  0  0  0  0  0  0  0
  183.6210  178.0500  140.2450 C   0  0  0  0  0  2  0  0  0  0  0  0
  181.8440  179.1240  143.2040 N   0  0  0  0  0  0  0  0  0  0  0  0
  182.2360  178.7390  141.9640 C   0  0  0  0  0  0  0  0  0  0  0  0
  184.1170  178.8600  143.9610 C   0  0  0  0  0  3  0  0  0  0  0  0
  184.5110  178.4620  142.6700 C   0  0  0  0  0  0  0  0  0  0  0  0
  181.4020  178.6420  140.8280 N   0  0  0  0  0  0  0  0  0  0  0  0
  181.7140  178.0480  138.5580 O   0  0  0  0  0  0  0  0  0  0  0  0
  182.6010  177.8430  137.4680 C   0  0  0  0  0  1  0  0  0  0  0  0
  1  9  2  0  0  0  0
  3 25  1  6  0  0  0
  3 11  1  0  0  0  0
  4 12  2  0  0  0  0
  4  1  1  0  0  0  0
  5  1  1  0  0  0  0
  5  2  1  1  0  0  0
  6 14  1  6  0  0  0
  6  3  1  0  0  0  0
  6  8  1  0  0  0  0
  7 13  1  1  0  0  0
  7  5  1  0  0  0  0
  8 10  1  6  0  0  0
  8  4  1  0  0  0  0
 10  7  1  0  0  0  0
 11 12  1  0  0  0  0
 15 14  1  0  0  0  0
 16 15  1  0  0  0  0
 17 16  1  0  0  0  0
 18 21  1  0  0  0  0
 18 17  1  0  0  0  0
 19 18  1  0  0  0  0
 20 21  1  0  0  0  0
 22 24  1  0  0  0  0
 22 20  1  0  0  0  0
 23 22  2  0  0  0  0
 24 19  1  0  0  0  0
 25 33  1  0  0  0  0
 26 29  1  0  0  0  0
 26 34  2  0  0  0  0
 28 31  2  0  0  0  0
 28 33  1  0  0  0  0
 29 28  1  0  0  0  0
 30 27  2  0  0  0  0
 31 30  1  0  0  0  0
 32 27  1  0  0  0  0
 33 32  2  0  0  0  0
 34 31  1  0  0  0  0
 35 26  1  0  0  0  0
 36 35  1  0  0  0  0
M  END
>  <MODEL>
2

>  <REMARK>
 VINA RESULT:      -8.6      2.489      7.423
  Name = 
  8 active torsions:
  status: ('A' for Active; 'I' for Inactive)
    1  A    between atoms: C_2  and  O_22
    2  A    between atoms: C_2  and  C_31
    3  A    between atoms: C_4  and  N_17
    4  A    between atoms: C_5  and  C_10
    5  A    between atoms: C_5  and  O_22
    6  A    between atoms: N_6  and  C_31
    7  A    between atoms: C_9  and  O_11
    8  A    between atoms: N_17  and  C_26
                            x       y       z     vdW  Elec       q    Type
                         _______ _______ _______ _____ _____    ______ ____

>  <TORSDO>
F 8

$$$$
=
 OpenBabel11062417123D

 36 40  0  0  1  0  0  0  0  0999 V2000
  189.9980  175.7500  135.9050 C   0  0  0  0  0  0  0  0  0  0  0  0
  191.7630  174.2620  135.2840 O   0  0  0  0  0  1  0  0  0  0  0  0
  188.3970  177.8280  139.2600 C   0  0  2  0  0  3  0  0  0  0  0  0
  189.6300  176.7170  136.9480 C   0  0  0  0  0  0  0  0  0  0  0  0
  190.8280  174.5560  136.2820 C   0  0  1  0  0  3  0  0  0  0  0  0
  189.8970  177.5500  139.3770 C   0  0  2  0  0  3  0  0  0  0  0  0
  191.5050  174.7060  137.6650 C   0  0  2  0  0  3  0  0  0  0  0  0
  190.4400  176.6680  138.2260 C   0  0  1  0  0  3  0  0  0  0  0  0
  189.5450  175.8610  134.7330 O   0  0  0  0  0  0  0  0  0  0  0  0
  190.6560  175.3260  138.6160 O   0  0  0  0  0  0  0  0  0  0  0  0
  188.1250  178.4430  137.8910 C   0  0  0  0  0  2  0  0  0  0  0  0
  188.5570  177.5030  136.8090 C   0  0  0  0  0  3  0  0  0  0  0  0
  192.8980  175.3400  137.6180 C   0  0  0  0  0  1  0  0  0  0  0  0
  190.2460  177.0040  140.7620 C   0  0  0  0  0  2  0  0  0  0  0  0
  191.3350  177.6920  141.3070 O   0  0  0  0  0  0  0  0  0  0  0  0
  191.0160  177.8840  142.6560 C   0  0  0  0  0  2  0  0  0  0  0  0
  191.5080  176.7120  143.4980 C   0  0  0  0  0  2  0  0  0  0  0  0
  190.7150  176.5970  144.7140 N   0  0  0  0  0  0  0  0  0  0  0  0
  191.6440  176.6980  145.8360 C   0  0  0  0  0  2  0  0  0  0  0  0
  188.8980  177.6540  145.9760 C   0  0  0  0  0  2  0  0  0  0  0  0
  189.8260  177.7570  144.7670 C   0  0  0  0  0  2  0  0  0  0  0  0
  189.7040  177.3980  147.2150 C   0  0  0  0  0  0  0  0  0  0  0  0
  189.3390  177.8570  148.2850 O   0  0  0  0  0  0  0  0  0  0  0  0
  190.9000  176.4940  147.1560 C   0  0  0  0  0  2  0  0  0  0  0  0
  187.9850  178.7620  140.2990 N   0  0  0  0  0  2  0  0  0  0  0  0
  183.5510  179.0580  139.8980 C   0  0  0  0  0  0  0  0  0  0  0  0
  186.0770  177.8640  143.4120 C   0  0  0  0  0  3  0  0  0  0  0  0
  185.5940  178.6660  140.8250 C   0  0  0  0  0  0  0  0  0  0  0  0
  185.0140  179.0960  139.5280 C   0  0  0  0  0  2  0  0  0  0  0  0
  184.7940  178.0480  142.9810 N   0  0  0  0  0  0  0  0  0  0  0  0
  184.5720  178.4430  141.7020 C   0  0  0  0  0  0  0  0  0  0  0  0
  187.1630  178.0870  142.5400 C   0  0  0  0  0  3  0  0  0  0  0  0
  186.9200  178.4980  141.2160 C   0  0  0  0  0  0  0  0  0  0  0  0
  183.3080  178.6880  141.1220 N   0  0  0  0  0  0  0  0  0  0  0  0
  182.5420  179.3930  138.9950 O   0  0  0  0  0  0  0  0  0  0  0  0
  182.3110  180.7340  138.5910 C   0  0  0  0  0  1  0  0  0  0  0  0
  1  5  1  0  0  0  0
  1  4  1  0  0  0  0
  3  6  1  0  0  0  0
  3 25  1  1  0  0  0
  5  2  1  6  0  0  0
  5  7  1  0  0  0  0
  6 14  1  1  0  0  0
  7 13  1  6  0  0  0
  7 10  1  0  0  0  0
  8  4  1  6  0  0  0
  8 10  1  0  0  0  0
  8  6  1  0  0  0  0
  9  1  2  0  0  0  0
 11  3  1  0  0  0  0
 12  4  2  0  0  0  0
 12 11  1  0  0  0  0
 14 15  1  0  0  0  0
 15 16  1  0  0  0  0
 16 17  1  0  0  0  0
 17 18  1  0  0  0  0
 18 21  1  0  0  0  0
 18 19  1  0  0  0  0
 19 24  1  0  0  0  0
 20 22  1  0  0  0  0
 21 20  1  0  0  0  0
 22 23  2  0  0  0  0
 24 22  1  0  0  0  0
 25 33  1  0  0  0  0
 26 34  2  0  0  0  0
 28 33  2  0  0  0  0
 28 31  1  0  0  0  0
 29 26  1  0  0  0  0
 29 28  1  0  0  0  0
 30 27  1  0  0  0  0
 31 30  2  0  0  0  0
 32 27  2  0  0  0  0
 33 32  1  0  0  0  0
 34 31  1  0  0  0  0
 35 26  1  0  0  0  0
 36 35  1  0  0  0  0
M  END
>  <MODEL>
3

>  <REMARK>
 VINA RESULT:      -8.5      1.406      2.431
  Name = 
  8 active torsions:
  status: ('A' for Active; 'I' for Inactive)
    1  A    between atoms: C_2  and  O_22
    2  A    between atoms: C_2  and  C_31
    3  A    between atoms: C_4  and  N_17
    4  A    between atoms: C_5  and  C_10
    5  A    between atoms: C_5  and  O_22
    6  A    between atoms: N_6  and  C_31
    7  A    between atoms: C_9  and  O_11
    8  A    between atoms: N_17  and  C_26
                            x       y       z     vdW  Elec       q    Type
                         _______ _______ _______ _____ _____    ______ ____

>  <TORSDO>
F 8

$$$$
=
 OpenBabel11062417123D

 36 40  0  0  1  0  0  0  0  0999 V2000
  189.9050  177.2000  146.5080 C   0  0  0  0  0  0  0  0  0  0  0  0
  192.1800  176.5140  146.7690 O   0  0  0  0  0  1  0  0  0  0  0  0
  186.9390  177.8930  143.5320 C   0  0  2  0  0  3  0  0  0  0  0  0
  188.7900  177.1280  145.5540 C   0  0  0  0  0  0  0  0  0  0  0  0
  191.3100  177.2730  145.9810 C   0  0  1  0  0  3  0  0  0  0  0  0
  187.9900  176.8620  143.1130 C   0  0  2  0  0  3  0  0  0  0  0  0
  191.4130  176.8820  144.4870 C   0  0  2  0  0  3  0  0  0  0  0  0
  189.1430  176.7250  144.1380 C   0  0  1  0  0  3  0  0  0  0  0  0
  189.6880  177.2980  147.7470 O   0  0  0  0  0  0  0  0  0  0  0  0
  190.3270  177.3790  143.7240 O   0  0  0  0  0  0  0  0  0  0  0  0
  186.4290  177.5260  144.9220 C   0  0  0  0  0  2  0  0  0  0  0  0
  187.5610  177.5230  145.9020 C   0  0  0  0  0  3  0  0  0  0  0  0
  191.6710  175.3930  144.2430 C   0  0  0  0  0  1  0  0  0  0  0  0
  188.4830  177.1310  141.6920 C   0  0  0  0  0  2  0  0  0  0  0  0
  188.6080  178.5050  141.4620 O   0  0  0  0  0  0  0  0  0  0  0  0
  188.8860  178.6280  140.0960 C   0  0  0  0  0  2  0  0  0  0  0  0
  189.2560  177.2770  139.4950 C   0  0  0  0  0  2  0  0  0  0  0  0
  190.5960  177.3260  138.9290 N   0  0  0  0  0  0  0  0  0  0  0  0
  191.5300  177.1290  140.0340 C   0  0  0  0  0  2  0  0  0  0  0  0
  192.0870  176.2230  137.3240 C   0  0  0  0  0  2  0  0  0  0  0  0
  190.7300  176.1830  138.0250 C   0  0  0  0  0  2  0  0  0  0  0  0
  193.1800  176.3770  138.3400 C   0  0  0  0  0  0  0  0  0  0  0  0
  194.2650  175.8540  138.1510 O   0  0  0  0  0  0  0  0  0  0  0  0
  192.9700  177.2580  139.5360 C   0  0  0  0  0  2  0  0  0  0  0  0
  185.8270  177.8750  142.5910 N   0  0  0  0  0  2  0  0  0  0  0  0
  182.0800  178.1880  140.1900 C   0  0  0  0  0  0  0  0  0  0  0  0
  182.8270  179.0420  144.5340 C   0  0  0  0  0  3  0  0  0  0  0  0
  183.4860  178.2580  141.9800 C   0  0  0  0  0  0  0  0  0  0  0  0
  183.5220  177.9100  140.5380 C   0  0  0  0  0  2  0  0  0  0  0  0
  181.8750  179.0330  143.5530 N   0  0  0  0  0  0  0  0  0  0  0  0
  182.2160  178.6440  142.3000 C   0  0  0  0  0  0  0  0  0  0  0  0
  184.1520  178.6550  144.2470 C   0  0  0  0  0  3  0  0  0  0  0  0
  184.4940  178.2530  142.9420 C   0  0  0  0  0  0  0  0  0  0  0  0
  181.3490  178.5980  141.1850 N   0  0  0  0  0  0  0  0  0  0  0  0
  181.5740  178.0160  138.9020 O   0  0  0  0  0  0  0  0  0  0  0  0
  181.8350  178.9460  137.8620 C   0  0  0  0  0  1  0  0  0  0  0  0
  1  9  2  0  0  0  0
  3 25  1  6  0  0  0
  3 11  1  0  0  0  0
  4 12  2  0  0  0  0
  4  1  1  0  0  0  0
  5  1  1  0  0  0  0
  5  2  1  1  0  0  0
  6 14  1  6  0  0  0
  6  3  1  0  0  0  0
  6  8  1  0  0  0  0
  7 13  1  1  0  0  0
  7  5  1  0  0  0  0
  8 10  1  6  0  0  0
  8  4  1  0  0  0  0
 10  7  1  0  0  0  0
 11 12  1  0  0  0  0
 15 14  1  0  0  0  0
 16 15  1  0  0  0  0
 17 16  1  0  0  0  0
 18 17  1  0  0  0  0
 18 19  1  0  0  0  0
 20 21  1  0  0  0  0
 20 22  1  0  0  0  0
 21 18  1  0  0  0  0
 22 24  1  0  0  0  0
 23 22  2  0  0  0  0
 24 19  1  0  0  0  0
 25 33  1  0  0  0  0
 26 29  1  0  0  0  0
 26 34  2  0  0  0  0
 28 31  2  0  0  0  0
 28 33  1  0  0  0  0
 29 28  1  0  0  0  0
 30 27  2  0  0  0  0
 31 30  1  0  0  0  0
 32 27  1  0  0  0  0
 33 32  2  0  0  0  0
 34 31  1  0  0  0  0
 35 26  1  0  0  0  0
 36 35  1  0  0  0  0
M  END
>  <MODEL>
4

>  <REMARK>
 VINA RESULT:      -8.3      2.324      6.988
  Name = 
  8 active torsions:
  status: ('A' for Active; 'I' for Inactive)
    1  A    between atoms: C_2  and  O_22
    2  A    between atoms: C_2  and  C_31
    3  A    between atoms: C_4  and  N_17
    4  A    between atoms: C_5  and  C_10
    5  A    between atoms: C_5  and  O_22
    6  A    between atoms: N_6  and  C_31
    7  A    between atoms: C_9  and  O_11
    8  A    between atoms: N_17  and  C_26
                            x       y       z     vdW  Elec       q    Type
                         _______ _______ _______ _____ _____    ______ ____

>  <TORSDO>
F 8

$$$$
=
 OpenBabel11062417123D

 36 40  0  0  1  0  0  0  0  0999 V2000
  181.6380  178.8780  142.0800 C   0  0  0  0  0  0  0  0  0  0  0  0
  180.4110  179.1410  140.0450 O   0  0  0  0  0  1  0  0  0  0  0  0
  185.5730  178.1760  143.5490 C   0  0  2  0  0  3  0  0  0  0  0  0
  183.0040  178.9660  142.6130 C   0  0  0  0  0  0  0  0  0  0  0  0
  181.4380  178.4210  140.6630 C   0  0  1  0  0  3  0  0  0  0  0  0
  185.5490  178.8680  142.1840 C   0  0  2  0  0  3  0  0  0  0  0  0
  182.7400  178.4620  139.8280 C   0  0  2  0  0  3  0  0  0  0  0  0
  184.1230  178.9860  141.5930 C   0  0  1  0  0  3  0  0  0  0  0  0
  180.6410  179.0850  142.8250 O   0  0  0  0  0  0  0  0  0  0  0  0
  183.8710  178.0400  140.5720 O   0  0  0  0  0  0  0  0  0  0  0  0
  184.6250  178.9180  144.4850 C   0  0  0  0  0  2  0  0  0  0  0  0
  183.2350  178.9030  143.9290 C   0  0  0  0  0  3  0  0  0  0  0  0
  182.9760  179.7870  139.0980 C   0  0  0  0  0  1  0  0  0  0  0  0
  186.5420  178.2170  141.2230 C   0  0  0  0  0  2  0  0  0  0  0  0
  187.6770  179.0190  141.0630 O   0  0  0  0  0  0  0  0  0  0  0  0
  188.5930  178.2300  140.3580 C   0  0  0  0  0  2  0  0  0  0  0  0
  189.4550  177.4170  141.3170 C   0  0  0  0  0  2  0  0  0  0  0  0
  190.5780  176.8220  140.6060 N   0  0  0  0  0  0  0  0  0  0  0  0
  190.2280  176.8210  139.1890 C   0  0  0  0  0  2  0  0  0  0  0  0
  192.9680  177.1010  140.1330 C   0  0  0  0  0  2  0  0  0  0  0  0
  191.7260  177.7120  140.7800 C   0  0  0  0  0  2  0  0  0  0  0  0
  192.6620  176.7080  138.7180 C   0  0  0  0  0  0  0  0  0  0  0  0
  193.5290  176.7830  137.8640 O   0  0  0  0  0  0  0  0  0  0  0  0
  191.3210  176.1260  138.3770 C   0  0  0  0  0  2  0  0  0  0  0  0
  186.9210  178.2150  144.0990 N   0  0  0  0  0  2  0  0  0  0  0  0
  190.4910  176.8530  146.4040 C   0  0  0  0  0  0  0  0  0  0  0  0
  186.5720  178.5170  147.8310 C   0  0  0  0  0  3  0  0  0  0  0  0
  188.4240  177.7040  145.9650 C   0  0  0  0  0  0  0  0  0  0  0  0
  189.6040  177.1860  145.2290 C   0  0  0  0  0  2  0  0  0  0  0  0
  187.7860  178.0380  148.2350 N   0  0  0  0  0  0  0  0  0  0  0  0
  188.6880  177.6410  147.3030 C   0  0  0  0  0  0  0  0  0  0  0  0
  186.2550  178.5950  146.4590 C   0  0  0  0  0  3  0  0  0  0  0  0
  187.2000  178.1800  145.5010 C   0  0  0  0  0  0  0  0  0  0  0  0
  189.9710  177.1120  147.5680 N   0  0  0  0  0  0  0  0  0  0  0  0
  191.7650  176.3090  146.2490 O   0  0  0  0  0  0  0  0  0  0  0  0
  192.4260  175.6300  147.3060 C   0  0  0  0  0  1  0  0  0  0  0  0
  1  4  1  0  0  0  0
  1  9  2  0  0  0  0
  3 25  1  1  0  0  0
  3 11  1  0  0  0  0
  4 12  2  0  0  0  0
  5  2  1  6  0  0  0
  5  1  1  0  0  0  0
  6 14  1  6  0  0  0
  6  3  1  0  0  0  0
  7 13  1  1  0  0  0
  7 10  1  0  0  0  0
  7  5  1  0  0  0  0
  8 10  1  6  0  0  0
  8  6  1  0  0  0  0
  8  4  1  0  0  0  0
 12 11  1  0  0  0  0
 15 14  1  0  0  0  0
 16 15  1  0  0  0  0
 16 17  1  0  0  0  0
 18 21  1  0  0  0  0
 18 17  1  0  0  0  0
 19 18  1  0  0  0  0
 20 21  1  0  0  0  0
 22 20  1  0  0  0  0
 23 22  2  0  0  0  0
 24 22  1  0  0  0  0
 24 19  1  0  0  0  0
 25 33  1  0  0  0  0
 26 34  2  0  0  0  0
 27 30  1  0  0  0  0
 28 31  1  0  0  0  0
 29 28  1  0  0  0  0
 29 26  1  0  0  0  0
 31 34  1  0  0  0  0
 31 30  2  0  0  0  0
 32 27  2  0  0  0  0
 33 28  2  0  0  0  0
 33 32  1  0  0  0  0
 35 26  1  0  0  0  0
 35 36  1  0  0  0  0
M  END
>  <MODEL>
5

>  <REMARK>
 VINA RESULT:      -8.3      2.747      7.836
  Name = 
  8 active torsions:
  status: ('A' for Active; 'I' for Inactive)
    1  A    between atoms: C_2  and  O_22
    2  A    between atoms: C_2  and  C_31
    3  A    between atoms: C_4  and  N_17
    4  A    between atoms: C_5  and  C_10
    5  A    between atoms: C_5  and  O_22
    6  A    between atoms: N_6  and  C_31
    7  A    between atoms: C_9  and  O_11
    8  A    between atoms: N_17  and  C_26
                            x       y       z     vdW  Elec       q    Type
                         _______ _______ _______ _____ _____    ______ ____

>  <TORSDO>
F 8

$$$$
=
 OpenBabel11062417123D

 36 40  0  0  1  0  0  0  0  0999 V2000
  190.7150  176.2280  135.9290 C   0  0  0  0  0  0  0  0  0  0  0  0
  192.8460  175.2650  136.4270 O   0  0  0  0  0  1  0  0  0  0  0  0
  187.3050  177.9600  137.8010 C   0  0  2  0  0  3  0  0  0  0  0  0
  189.6940  177.1110  136.5090 C   0  0  0  0  0  0  0  0  0  0  0  0
  191.5130  175.3400  136.8420 C   0  0  1  0  0  3  0  0  0  0  0  0
  188.5920  178.1240  138.6130 C   0  0  2  0  0  3  0  0  0  0  0  0
  191.4060  175.7550  138.3280 C   0  0  2  0  0  3  0  0  0  0  0  0
  189.7940  177.3660  137.9980 C   0  0  1  0  0  3  0  0  0  0  0  0
  190.8560  176.1390  134.6780 O   0  0  0  0  0  0  0  0  0  0  0  0
  190.0950  176.1640  138.6800 O   0  0  0  0  0  0  0  0  0  0  0  0
  187.5800  178.3930  136.3650 C   0  0  0  0  0  2  0  0  0  0  0  0
  188.6680  177.5520  135.7730 C   0  0  0  0  0  3  0  0  0  0  0  0
  192.4750  176.7520  138.7820 C   0  0  0  0  0  1  0  0  0  0  0  0
  188.3590  177.7800  140.0840 C   0  0  0  0  0  2  0  0  0  0  0  0
  189.3050  178.4120  140.8970 O   0  0  0  0  0  0  0  0  0  0  0  0
  189.5790  177.5020  141.9240 C   0  0  0  0  0  2  0  0  0  0  0  0
  188.2940  177.0730  142.6230 C   0  0  0  0  0  2  0  0  0  0  0  0
  188.2470  177.6150  143.9730 N   0  0  0  0  0  0  0  0  0  0  0  0
  186.9790  177.1900  144.5570 C   0  0  0  0  0  2  0  0  0  0  0  0
  189.3890  177.5740  146.1420 C   0  0  0  0  0  2  0  0  0  0  0  0
  189.3230  176.9820  144.7360 C   0  0  0  0  0  2  0  0  0  0  0  0
  188.0310  177.5290  146.7780 C   0  0  0  0  0  0  0  0  0  0  0  0
  187.9270  177.3580  147.9800 O   0  0  0  0  0  0  0  0  0  0  0  0
  186.8090  177.7970  145.9490 C   0  0  0  0  0  2  0  0  0  0  0  0
  186.2550  178.7980  138.3640 N   0  0  0  0  0  2  0  0  0  0  0  0
  184.2480  178.9470  142.3460 C   0  0  0  0  0  0  0  0  0  0  0  0
  182.9300  177.0480  138.4970 C   0  0  0  0  0  3  0  0  0  0  0  0
  184.6020  178.4840  140.1440 C   0  0  0  0  0  0  0  0  0  0  0  0
  185.2740  179.1880  141.2650 C   0  0  0  0  0  2  0  0  0  0  0  0
  182.5850  177.2660  139.8010 N   0  0  0  0  0  0  0  0  0  0  0  0
  183.4200  177.9760  140.6000 C   0  0  0  0  0  0  0  0  0  0  0  0
  184.1440  177.5510  137.9860 C   0  0  0  0  0  3  0  0  0  0  0  0
  185.0020  178.2860  138.8250 C   0  0  0  0  0  0  0  0  0  0  0  0
  183.2070  178.2660  141.9660 N   0  0  0  0  0  0  0  0  0  0  0  0
  184.4090  179.4190  143.6490 O   0  0  0  0  0  0  0  0  0  0  0  0
  183.5260  179.0470  144.6970 C   0  0  0  0  0  1  0  0  0  0  0  0
  1  4  1  0  0  0  0
  1  5  1  0  0  0  0
  3 25  1  1  0  0  0
  3  6  1  0  0  0  0
  5  2  1  6  0  0  0
  5  7  1  0  0  0  0
  6 14  1  1  0  0  0
  7 10  1  0  0  0  0
  7 13  1  6  0  0  0
  8  4  1  6  0  0  0
  8  6  1  0  0  0  0
  8 10  1  0  0  0  0
  9  1  2  0  0  0  0
 11  3  1  0  0  0  0
 12 11  1  0  0  0  0
 12  4  2  0  0  0  0
 14 15  1  0  0  0  0
 15 16  1  0  0  0  0
 16 17  1  0  0  0  0
 17 18  1  0  0  0  0
 18 19  1  0  0  0  0
 18 21  1  0  0  0  0
 19 24  1  0  0  0  0
 20 22  1  0  0  0  0
 21 20  1  0  0  0  0
 22 23  2  0  0  0  0
 24 22  1  0  0  0  0
 25 33  1  0  0  0  0
 26 35  1  0  0  0  0
 27 30  1  0  0  0  0
 28 31  1  0  0  0  0
 28 29  1  0  0  0  0
 29 26  1  0  0  0  0
 30 31  2  0  0  0  0
 31 34  1  0  0  0  0
 32 27  2  0  0  0  0
 32 33  1  0  0  0  0
 33 28  2  0  0  0  0
 34 26  2  0  0  0  0
 35 36  1  0  0  0  0
M  END
>  <MODEL>
6

>  <REMARK>
 VINA RESULT:      -8.3      1.553      2.135
  Name = 
  8 active torsions:
  status: ('A' for Active; 'I' for Inactive)
    1  A    between atoms: C_2  and  O_22
    2  A    between atoms: C_2  and  C_31
    3  A    between atoms: C_4  and  N_17
    4  A    between atoms: C_5  and  C_10
    5  A    between atoms: C_5  and  O_22
    6  A    between atoms: N_6  and  C_31
    7  A    between atoms: C_9  and  O_11
    8  A    between atoms: N_17  and  C_26
                            x       y       z     vdW  Elec       q    Type
                         _______ _______ _______ _____ _____    ______ ____

>  <TORSDO>
F 8

$$$$
=
 OpenBabel11062417123D

 36 40  0  0  1  0  0  0  0  0999 V2000
  190.6510  177.1400  145.7530 C   0  0  0  0  0  0  0  0  0  0  0  0
  189.3500  177.1550  147.7580 O   0  0  0  0  0  1  0  0  0  0  0  0
  190.2850  177.4680  141.5230 C   0  0  2  0  0  3  0  0  0  0  0  0
  190.5970  177.5720  144.3500 C   0  0  0  0  0  0  0  0  0  0  0  0
  189.3810  176.7130  146.4320 C   0  0  1  0  0  3  0  0  0  0  0  0
  189.1730  178.1920  142.2870 C   0  0  2  0  0  3  0  0  0  0  0  0
  188.1110  177.1480  145.6620 C   0  0  2  0  0  3  0  0  0  0  0  0
  189.2310  177.9450  143.8140 C   0  0  1  0  0  3  0  0  0  0  0  0
  191.7560  177.0320  146.3530 O   0  0  0  0  0  0  0  0  0  0  0  0
  188.2610  177.0150  144.2580 O   0  0  0  0  0  0  0  0  0  0  0  0
  191.6270  177.8780  142.1190 C   0  0  0  0  0  2  0  0  0  0  0  0
  191.6810  177.5110  143.5690 C   0  0  0  0  0  3  0  0  0  0  0  0
  187.5680  178.5200  146.0690 C   0  0  0  0  0  1  0  0  0  0  0  0
  187.8030  177.8820  141.6830 C   0  0  0  0  0  2  0  0  0  0  0  0
  187.2920  179.0000  141.0160 O   0  0  0  0  0  0  0  0  0  0  0  0
  185.9150  178.9850  141.2680 C   0  0  0  0  0  2  0  0  0  0  0  0
  185.6140  178.2610  142.5750 C   0  0  0  0  0  2  0  0  0  0  0  0
  184.1770  178.1970  142.7970 N   0  0  0  0  0  0  0  0  0  0  0  0
  183.8810  179.0880  143.9160 C   0  0  0  0  0  2  0  0  0  0  0  0
  182.0080  178.6260  141.7360 C   0  0  0  0  0  2  0  0  0  0  0  0
  183.5260  178.7460  141.6080 C   0  0  0  0  0  2  0  0  0  0  0  0
  181.5610  179.2060  143.0440 C   0  0  0  0  0  0  0  0  0  0  0  0
  180.4800  179.7640  143.1250 O   0  0  0  0  0  0  0  0  0  0  0  0
  182.3970  179.0090  144.2750 C   0  0  0  0  0  2  0  0  0  0  0  0
  190.2460  177.8470  140.1170 N   0  0  0  0  0  2  0  0  0  0  0  0
  193.4090  175.5700  137.9460 C   0  0  0  0  0  0  0  0  0  0  0  0
  188.9550  175.6150  137.3800 C   0  0  0  0  0  3  0  0  0  0  0  0
  191.3440  176.3170  138.5500 C   0  0  0  0  0  0  0  0  0  0  0  0
  192.7630  176.4960  138.9470 C   0  0  0  0  0  2  0  0  0  0  0  0
  190.1240  175.0760  136.9250 N   0  0  0  0  0  0  0  0  0  0  0  0
  191.2940  175.4320  137.5130 C   0  0  0  0  0  0  0  0  0  0  0  0
  188.9600  176.5370  138.4480 C   0  0  0  0  0  3  0  0  0  0  0  0
  190.1800  176.8990  139.0490 C   0  0  0  0  0  0  0  0  0  0  0  0
  192.5770  174.9720  137.1420 N   0  0  0  0  0  0  0  0  0  0  0  0
  194.7880  175.3730  137.8890 O   0  0  0  0  0  0  0  0  0  0  0  0
  195.4210  174.2950  138.5620 C   0  0  0  0  0  1  0  0  0  0  0  0
  1  9  2  0  0  0  0
  1  5  1  0  0  0  0
  3 25  1  6  0  0  0
  3 11  1  0  0  0  0
  3  6  1  0  0  0  0
  4  1  1  0  0  0  0
  5  2  1  1  0  0  0
  6 14  1  6  0  0  0
  6  8  1  0  0  0  0
  7 13  1  6  0  0  0
  7  5  1  0  0  0  0
  8 10  1  6  0  0  0
  8  4  1  0  0  0  0
 10  7  1  0  0  0  0
 11 12  1  0  0  0  0
 12  4  2  0  0  0  0
 15 16  1  0  0  0  0
 15 14  1  0  0  0  0
 16 17  1  0  0  0  0
 17 18  1  0  0  0  0
 18 19  1  0  0  0  0
 19 24  1  0  0  0  0
 20 22  1  0  0  0  0
 21 20  1  0  0  0  0
 21 18  1  0  0  0  0
 22 23  2  0  0  0  0
 22 24  1  0  0  0  0
 26 29  1  0  0  0  0
 27 32  1  0  0  0  0
 28 29  1  0  0  0  0
 28 33  1  0  0  0  0
 30 27  2  0  0  0  0
 30 31  1  0  0  0  0
 31 28  2  0  0  0  0
 32 33  2  0  0  0  0
 33 25  1  0  0  0  0
 34 31  1  0  0  0  0
 34 26  2  0  0  0  0
 35 26  1  0  0  0  0
 35 36  1  0  0  0  0
M  END
>  <MODEL>
7

>  <REMARK>
 VINA RESULT:      -8.3      2.573      8.221
  Name = 
  8 active torsions:
  status: ('A' for Active; 'I' for Inactive)
    1  A    between atoms: C_2  and  O_22
    2  A    between atoms: C_2  and  C_31
    3  A    between atoms: C_4  and  N_17
    4  A    between atoms: C_5  and  C_10
    5  A    between atoms: C_5  and  O_22
    6  A    between atoms: N_6  and  C_31
    7  A    between atoms: C_9  and  O_11
    8  A    between atoms: N_17  and  C_26
                            x       y       z     vdW  Elec       q    Type
                         _______ _______ _______ _____ _____    ______ ____

>  <TORSDO>
F 8

$$$$
=
 OpenBabel11062417123D

 36 40  0  0  1  0  0  0  0  0999 V2000
  190.5350  177.1710  145.9320 C   0  0  0  0  0  0  0  0  0  0  0  0
  189.1410  177.2070  147.8740 O   0  0  0  0  0  1  0  0  0  0  0  0
  190.3680  177.4630  141.6870 C   0  0  2  0  0  3  0  0  0  0  0  0
  190.5470  177.5910  144.5240 C   0  0  0  0  0  0  0  0  0  0  0  0
  189.2330  176.7530  146.5540 C   0  0  1  0  0  3  0  0  0  0  0  0
  189.2240  178.1960  142.3910 C   0  0  2  0  0  3  0  0  0  0  0  0
  188.0020  177.1840  145.7210 C   0  0  2  0  0  3  0  0  0  0  0  0
  189.2090  177.9620  143.9220 C   0  0  1  0  0  3  0  0  0  0  0  0
  191.6100  177.0660  146.5840 O   0  0  0  0  0  0  0  0  0  0  0  0
  188.2180  177.0390  144.3270 O   0  0  0  0  0  0  0  0  0  0  0  0
  191.6820  177.8760  142.3420 C   0  0  0  0  0  2  0  0  0  0  0  0
  191.6670  177.5210  143.7960 C   0  0  0  0  0  3  0  0  0  0  0  0
  187.4430  178.5610  146.0900 C   0  0  0  0  0  1  0  0  0  0  0  0
  187.8840  177.8840  141.7260 C   0  0  0  0  0  2  0  0  0  0  0  0
  187.3620  179.0230  141.1030 O   0  0  0  0  0  0  0  0  0  0  0  0
  185.9760  178.9350  141.2690 C   0  0  0  0  0  2  0  0  0  0  0  0
  185.6310  178.3490  142.6330 C   0  0  0  0  0  2  0  0  0  0  0  0
  184.1870  178.2500  142.7900 N   0  0  0  0  0  0  0  0  0  0  0  0
  183.8200  179.1310  143.8960 C   0  0  0  0  0  2  0  0  0  0  0  0
  182.0590  178.6300  141.6330 C   0  0  0  0  0  2  0  0  0  0  0  0
  183.5780  178.7860  141.5730 C   0  0  0  0  0  2  0  0  0  0  0  0
  181.5400  179.1960  142.9210 C   0  0  0  0  0  0  0  0  0  0  0  0
  180.4430  179.7280  142.9540 O   0  0  0  0  0  0  0  0  0  0  0  0
  182.3240  179.0160  144.1870 C   0  0  0  0  0  2  0  0  0  0  0  0
  190.3970  177.8300  140.2770 N   0  0  0  0  0  2  0  0  0  0  0  0
  187.7220  175.9990  137.2110 C   0  0  0  0  0  0  0  0  0  0  0  0
  192.1050  175.3960  137.9760 C   0  0  0  0  0  3  0  0  0  0  0  0
  189.6120  176.4850  138.3870 C   0  0  0  0  0  0  0  0  0  0  0  0
  188.1780  176.8670  138.3590 C   0  0  0  0  0  2  0  0  0  0  0  0
  191.0560  175.0240  137.1830 N   0  0  0  0  0  0  0  0  0  0  0  0
  189.8330  175.5700  137.3980 C   0  0  0  0  0  0  0  0  0  0  0  0
  191.9190  176.3340  139.0130 C   0  0  0  0  0  3  0  0  0  0  0  0
  190.6450  176.8930  139.2260 C   0  0  0  0  0  0  0  0  0  0  0  0
  188.6580  175.2730  136.6730 N   0  0  0  0  0  0  0  0  0  0  0  0
  186.4010  175.9810  136.7660 O   0  0  0  0  0  0  0  0  0  0  0  0
  185.7630  177.1420  136.2560 C   0  0  0  0  0  1  0  0  0  0  0  0
  1  5  1  0  0  0  0
  1  9  2  0  0  0  0
  3 25  1  6  0  0  0
  3 11  1  0  0  0  0
  3  6  1  0  0  0  0
  4  1  1  0  0  0  0
  5  2  1  1  0  0  0
  6 14  1  6  0  0  0
  6  8  1  0  0  0  0
  7 13  1  6  0  0  0
  7  5  1  0  0  0  0
  8 10  1  6  0  0  0
  8  4  1  0  0  0  0
 10  7  1  0  0  0  0
 11 12  1  0  0  0  0
 12  4  2  0  0  0  0
 15 16  1  0  0  0  0
 15 14  1  0  0  0  0
 16 17  1  0  0  0  0
 17 18  1  0  0  0  0
 18 19  1  0  0  0  0
 19 24  1  0  0  0  0
 20 22  1  0  0  0  0
 21 20  1  0  0  0  0
 21 18  1  0  0  0  0
 22 23  2  0  0  0  0
 22 24  1  0  0  0  0
 26 29  1  0  0  0  0
 27 32  1  0  0  0  0
 28 33  1  0  0  0  0
 29 28  1  0  0  0  0
 30 31  1  0  0  0  0
 30 27  2  0  0  0  0
 31 28  2  0  0  0  0
 32 33  2  0  0  0  0
 33 25  1  0  0  0  0
 34 26  2  0  0  0  0
 34 31  1  0  0  0  0
 35 26  1  0  0  0  0
 36 35  1  0  0  0  0
M  END
>  <MODEL>
8

>  <REMARK>
 VINA RESULT:      -8.1      2.555      7.906
  Name = 
  8 active torsions:
  status: ('A' for Active; 'I' for Inactive)
    1  A    between atoms: C_2  and  O_22
    2  A    between atoms: C_2  and  C_31
    3  A    between atoms: C_4  and  N_17
    4  A    between atoms: C_5  and  C_10
    5  A    between atoms: C_5  and  O_22
    6  A    between atoms: N_6  and  C_31
    7  A    between atoms: C_9  and  O_11
    8  A    between atoms: N_17  and  C_26
                            x       y       z     vdW  Elec       q    Type
                         _______ _______ _______ _____ _____    ______ ____

>  <TORSDO>
F 8

$$$$
=
 OpenBabel11062417123D

 36 40  0  0  1  0  0  0  0  0999 V2000
  183.4820  178.6500  144.3440 C   0  0  0  0  0  0  0  0  0  0  0  0
  184.1820  178.2780  146.5990 O   0  0  0  0  0  1  0  0  0  0  0  0
  185.0160  179.1140  140.3980 C   0  0  2  0  0  3  0  0  0  0  0  0
  183.9470  178.4860  142.9600 C   0  0  0  0  0  0  0  0  0  0  0  0
  184.4890  178.9570  145.4170 C   0  0  1  0  0  3  0  0  0  0  0  0
  185.9180  178.2740  141.3050 C   0  0  2  0  0  3  0  0  0  0  0  0
  185.9450  178.6870  144.9710 C   0  0  2  0  0  3  0  0  0  0  0  0
  185.4280  178.2330  142.7730 C   0  0  1  0  0  3  0  0  0  0  0  0
  182.2510  178.6330  144.6180 O   0  0  0  0  0  0  0  0  0  0  0  0
  186.1780  179.0750  143.6270 O   0  0  0  0  0  0  0  0  0  0  0  0
  183.5900  178.5860  140.5110 C   0  0  0  0  0  2  0  0  0  0  0  0
  183.1170  178.6780  141.9290 C   0  0  0  0  0  3  0  0  0  0  0  0
  186.4410  177.2690  145.2680 C   0  0  0  0  0  1  0  0  0  0  0  0
  187.3790  178.7050  141.1750 C   0  0  0  0  0  2  0  0  0  0  0  0
  188.2260  177.5920  141.1720 O   0  0  0  0  0  0  0  0  0  0  0  0
  189.1760  177.8470  142.1680 C   0  0  0  0  0  2  0  0  0  0  0  0
  190.0620  176.6270  142.3930 C   0  0  0  0  0  2  0  0  0  0  0  0
  190.2280  176.3780  143.8180 N   0  0  0  0  0  0  0  0  0  0  0  0
  191.6360  176.0580  144.0310 C   0  0  0  0  0  2  0  0  0  0  0  0
  190.0140  177.4210  146.0270 C   0  0  0  0  0  2  0  0  0  0  0  0
  189.9460  177.6330  144.5150 C   0  0  0  0  0  2  0  0  0  0  0  0
  191.3070  176.7540  146.3900 C   0  0  0  0  0  0  0  0  0  0  0  0
  191.8500  177.0140  147.4500 O   0  0  0  0  0  0  0  0  0  0  0  0
  191.8780  175.6930  145.4960 C   0  0  0  0  0  2  0  0  0  0  0  0
  185.4630  179.0030  139.0160 N   0  0  0  0  0  2  0  0  0  0  0  0
  188.5550  176.7010  136.7690 C   0  0  0  0  0  0  0  0  0  0  0  0
  184.1680  175.9110  137.3130 C   0  0  0  0  0  3  0  0  0  0  0  0
  186.5350  177.2710  137.6560 C   0  0  0  0  0  0  0  0  0  0  0  0
  187.9340  177.7680  137.6380 C   0  0  0  0  0  2  0  0  0  0  0  0
  185.3150  175.4460  136.7330 N   0  0  0  0  0  0  0  0  0  0  0  0
  186.4740  176.1280  136.9120 C   0  0  0  0  0  0  0  0  0  0  0  0
  184.1850  177.0900  138.0860 C   0  0  0  0  0  3  0  0  0  0  0  0
  185.3940  177.7890  138.2630 C   0  0  0  0  0  0  0  0  0  0  0  0
  187.7290  175.7800  136.3650 N   0  0  0  0  0  0  0  0  0  0  0  0
  189.9070  176.7060  136.4290 O   0  0  0  0  0  0  0  0  0  0  0  0
  190.9230  176.4390  137.3830 C   0  0  0  0  0  1  0  0  0  0  0  0
  1  9  2  0  0  0  0
  1  5  1  0  0  0  0
  3 25  1  6  0  0  0
  3 11  1  0  0  0  0
  3  6  1  0  0  0  0
  4  1  1  0  0  0  0
  5  2  1  1  0  0  0
  6 14  1  1  0  0  0
  6  8  1  0  0  0  0
  7 13  1  6  0  0  0
  7  5  1  0  0  0  0
  8  4  1  6  0  0  0
  8 10  1  0  0  0  0
 10  7  1  0  0  0  0
 11 12  1  0  0  0  0
 12  4  2  0  0  0  0
 15 14  1  0  0  0  0
 15 16  1  0  0  0  0
 16 17  1  0  0  0  0
 17 18  1  0  0  0  0
 18 19  1  0  0  0  0
 18 21  1  0  0  0  0
 19 24  1  0  0  0  0
 20 22  1  0  0  0  0
 21 20  1  0  0  0  0
 22 23  2  0  0  0  0
 24 22  1  0  0  0  0
 26 29  1  0  0  0  0
 27 32  1  0  0  0  0
 28 33  1  0  0  0  0
 29 28  1  0  0  0  0
 30 31  1  0  0  0  0
 30 27  2  0  0  0  0
 31 28  2  0  0  0  0
 32 33  2  0  0  0  0
 33 25  1  0  0  0  0
 34 26  2  0  0  0  0
 34 31  1  0  0  0  0
 35 26  1  0  0  0  0
 35 36  1  0  0  0  0
M  END
>  <MODEL>
9

>  <REMARK>
 VINA RESULT:      -8.0      2.165      6.899
  Name = 
  8 active torsions:
  status: ('A' for Active; 'I' for Inactive)
    1  A    between atoms: C_2  and  O_22
    2  A    between atoms: C_2  and  C_31
    3  A    between atoms: C_4  and  N_17
    4  A    between atoms: C_5  and  C_10
    5  A    between atoms: C_5  and  O_22
    6  A    between atoms: N_6  and  C_31
    7  A    between atoms: C_9  and  O_11
    8  A    between atoms: N_17  and  C_26
                            x       y       z     vdW  Elec       q    Type
                         _______ _______ _______ _____ _____    ______ ____

>  <TORSDO>
F 8

$$$$
