=
 OpenBabel11062417453D

 39 43  0  0  1  0  0  0  0  0999 V2000
  182.7600  179.3580  141.0700 C   0  0  1  0  0  3  0  0  0  0  0  0
  183.5380  178.4390  140.1490 C   0  0  2  0  0  0  0  0  0  0  0  0
  185.0770  178.5940  140.4280 C   0  0  1  0  0  0  0  0  0  0  0  0
  184.4610  179.0320  139.1120 C   0  0  2  0  0  0  0  0  0  0  0  0
  181.8760  178.6460  141.9010 O   0  0  0  0  0  0  0  0  0  0  0  0
  183.2390  178.5470  142.2240 C   0  0  1  0  0  0  0  0  0  0  0  0
  184.2550  180.4080  138.9120 O   0  0  0  0  0  1  0  0  0  0  0  0
  185.4660  179.7480  141.1290 O   0  0  0  0  0  1  0  0  0  0  0  0
  184.1720  177.7350  141.3120 C   0  0  1  0  0  3  0  0  0  0  0  0
  183.2980  174.8630  136.8650 O   0  0  0  0  0  1  0  0  0  0  0  0
  186.2180  174.5960  137.3100 O   0  0  0  0  0  1  0  0  0  0  0  0
  186.2150  176.2830  135.2750 O   0  0  0  0  0  0  0  0  0  0  0  0
  185.9380  177.4320  137.7830 C   0  0  1  0  0  3  0  0  0  0  0  0
  183.8450  176.1310  136.6600 C   0  0  2  0  0  3  0  0  0  0  0  0
  184.5900  178.1270  137.8830 C   0  0  1  0  0  3  0  0  0  0  0  0
  185.6450  176.0430  136.6570 P   0  0  2  0  0  0  0  0  0  0  0  0
  183.5060  177.0460  137.8220 C   0  0  0  0  0  2  0  0  0  0  0  0
  187.2070  178.5720  137.1340 S   0  0  0  0  0  0  0  0  0  0  0  0
  188.4690  178.0370  138.3340 C   0  0  0  0  0  2  0  0  0  0  0  0
  190.4470  177.0140  140.0370 C   0  0  0  0  0  1  0  0  0  0  0  0
  190.5720  176.8980  138.5200 C   0  0  1  0  0  0  0  0  0  0  0  0
  189.5950  177.4420  137.6260 N   0  0  0  0  0  0  0  0  0  0  0  0
  191.8310  176.7040  137.9500 O   0  0  0  0  0  1  0  0  0  0  0  0
  189.5970  176.0320  137.9500 N   0  0  0  0  0  2  0  0  0  0  0  0
  183.7720  179.4050  143.2930 N   0  0  0  0  0  2  0  0  0  0  0  0
  185.3720  180.0900  144.8320 O   0  0  0  0  0  0  0  0  0  0  0  0
  184.8770  179.1390  144.1740 C   0  0  0  0  0  0  0  0  0  0  0  0
  185.4230  177.7540  144.3740 C   0  0  0  0  0  2  0  0  0  0  0  0
  186.6400  177.7730  145.2850 C   0  0  0  0  0  2  0  0  0  0  0  0
  187.9360  177.8120  144.4770 C   0  0  0  0  0  2  0  0  0  0  0  0
  190.6560  177.3400  144.4610 P   0  0  0  0  0  2  0  0  0  0  0  0
  191.4930  176.3810  145.7820 C   0  0  0  0  0  1  0  0  0  0  0  0
  190.5150  178.6000  143.2610 O   0  0  0  0  0  0  0  0  0  0  0  0
  190.4280  175.9940  143.4630 O   0  0  0  0  0  1  0  0  0  0  0  0
  191.7090  178.6840  143.8840 C   0  0  0  0  0  1  0  0  0  0  0  0
  189.1450  177.8180  145.4030 C   0  0  0  0  0  2  0  0  0  0  0  0
  191.3570  177.0960  147.1230 C   0  0  0  0  0  2  0  0  0  0  0  0
  189.9310  176.9960  147.6710 C   0  0  0  0  0  2  0  0  0  0  0  0
  188.8760  176.8670  146.5730 C   0  0  0  0  0  2  0  0  0  0  0  0
  1  5  1  6  0  0  0
  1  6  1  0  0  0  0
  2  3  1  0  0  0  0
  2  1  1  0  0  0  0
  2  9  1  0  0  0  0
  3  8  1  0  0  0  0
  3  9  1  0  0  0  0
  4  2  1  0  0  0  0
  4  3  1  0  0  0  0
  5  6  1  0  0  0  0
  6 25  1  0  0  0  0
  7  4  1  0  0  0  0
  9  6  1  0  0  0  0
 12 16  2  0  0  0  0
 13 15  1  0  0  0  0
 14 10  1  0  0  0  0
 14 17  1  0  0  0  0
 15  4  1  0  0  0  0
 16 14  1  0  0  0  0
 16 11  1  0  0  0  0
 16 13  1  0  0  0  0
 17 15  1  0  0  0  0
 18 13  1  0  0  0  0
 18 19  1  0  0  0  0
 21 20  1  0  0  0  0
 22 24  1  0  0  0  0
 22 19  1  0  0  0  0
 22 21  1  0  0  0  0
 23 21  1  0  0  0  0
 24 21  1  0  0  0  0
 25 27  1  0  0  0  0
 27 28  1  0  0  0  0
 27 26  2  0  0  0  0
 28 29  1  0  0  0  0
 30 29  1  0  0  0  0
 30 36  1  0  0  0  0
 32 37  1  0  0  0  0
 33 35  1  0  0  0  0
 33 31  1  0  0  0  0
 34 31  1  0  0  0  0
 36 39  1  0  0  0  0
 37 38  1  0  0  0  0
 39 38  1  0  0  0  0
M  END
>  <MODEL>
1

>  <REMARK>
 VINA RESULT:      -7.8      0.000      0.000
  Name = 
  9 active torsions:
  status: ('A' for Active; 'I' for Inactive)
    1  A    between atoms: C_3  and  C_22
    2  A    between atoms: C_3  and  C_34
    3  A    between atoms: N_4  and  C_28
    4  A    between atoms: C_15  and  C_25
    5  A    between atoms: C_17  and  C_32
    6  A    between atoms: C_21  and  S_27
    7  A    between atoms: C_23  and  S_27
    8  A    between atoms: C_23  and  N_31
    9  A    between atoms: C_25  and  C_34
                            x       y       z     vdW  Elec       q    Type
                         _______ _______ _______ _____ _____    ______ ____

>  <TORSDO>
F 9

$$$$
=
 OpenBabel11062417453D

 39 43  0  0  1  0  0  0  0  0999 V2000
  182.1410  178.9790  141.0680 C   0  0  1  0  0  3  0  0  0  0  0  0
  182.6520  177.9370  140.0940 C   0  0  2  0  0  0  0  0  0  0  0  0
  184.1330  178.2740  139.6910 C   0  0  1  0  0  0  0  0  0  0  0  0
  183.0010  178.3430  138.6830 C   0  0  2  0  0  0  0  0  0  0  0  0
  181.7690  178.4120  142.3000 O   0  0  0  0  0  0  0  0  0  0  0  0
  183.1490  178.5000  142.0550 C   0  0  1  0  0  0  0  0  0  0  0  0
  182.5100  179.6140  138.3370 O   0  0  0  0  0  1  0  0  0  0  0  0
  184.5620  179.5860  139.9520 O   0  0  0  0  0  1  0  0  0  0  0  0
  183.7870  177.5750  141.0060 C   0  0  1  0  0  3  0  0  0  0  0  0
  181.2300  173.8920  137.7720 O   0  0  0  0  0  1  0  0  0  0  0  0
  184.1620  173.5060  137.5610 O   0  0  0  0  0  1  0  0  0  0  0  0
  183.6910  174.7160  135.2590 O   0  0  0  0  0  0  0  0  0  0  0  0
  184.0680  176.3900  137.4370 C   0  0  1  0  0  3  0  0  0  0  0  0
  181.7350  175.0420  137.1630 C   0  0  2  0  0  3  0  0  0  0  0  0
  182.8020  177.1900  137.6940 C   0  0  1  0  0  3  0  0  0  0  0  0
  183.4760  174.8200  136.7540 P   0  0  2  0  0  0  0  0  0  0  0  0
  181.7140  176.2060  138.1370 C   0  0  0  0  0  2  0  0  0  0  0  0
  185.1600  177.2670  136.2660 S   0  0  0  0  0  0  0  0  0  0  0  0
  186.6420  177.0480  137.3030 C   0  0  0  0  0  2  0  0  0  0  0  0
  189.1360  176.8540  138.5690 C   0  0  0  0  0  1  0  0  0  0  0  0
  188.5800  178.2030  138.1180 C   0  0  1  0  0  0  0  0  0  0  0  0
  187.2950  178.3350  137.5020 N   0  0  0  0  0  0  0  0  0  0  0  0
  189.0600  179.3720  138.7080 O   0  0  0  0  0  1  0  0  0  0  0  0
  188.5000  178.3220  136.7020 N   0  0  0  0  0  2  0  0  0  0  0  0
  183.8970  179.6220  142.6400 N   0  0  0  0  0  2  0  0  0  0  0  0
  185.3390  180.6130  144.1690 O   0  0  0  0  0  0  0  0  0  0  0  0
  184.5040  179.7000  143.9420 C   0  0  0  0  0  0  0  0  0  0  0  0
  184.1320  178.7590  145.0520 C   0  0  0  0  0  2  0  0  0  0  0  0
  185.3520  178.3750  145.8740 C   0  0  0  0  0  2  0  0  0  0  0  0
  186.1970  177.3250  145.1560 C   0  0  0  0  0  2  0  0  0  0  0  0
  188.3440  177.1810  143.4260 P   0  0  0  0  0  2  0  0  0  0  0  0
  190.0540  176.8700  144.0100 C   0  0  0  0  0  1  0  0  0  0  0  0
  187.1210  177.8920  142.4030 O   0  0  0  0  0  0  0  0  0  0  0  0
  188.0170  175.5470  143.1380 O   0  0  0  0  0  1  0  0  0  0  0  0
  188.3440  178.3280  142.0360 C   0  0  0  0  0  1  0  0  0  0  0  0
  187.6360  177.8010  145.0110 C   0  0  0  0  0  2  0  0  0  0  0  0
  190.5200  178.0060  144.9160 C   0  0  0  0  0  2  0  0  0  0  0  0
  189.8270  177.9580  146.2800 C   0  0  0  0  0  2  0  0  0  0  0  0
  188.4400  177.3210  146.2240 C   0  0  0  0  0  2  0  0  0  0  0  0
  1  6  1  0  0  0  0
  1  5  1  1  0  0  0
  2  9  1  0  0  0  0
  2  1  1  0  0  0  0
  3  8  1  0  0  0  0
  3  2  1  0  0  0  0
  3  9  1  0  0  0  0
  4  3  1  0  0  0  0
  4  2  1  0  0  0  0
  6  5  1  0  0  0  0
  6 25  1  0  0  0  0
  7  4  1  0  0  0  0
  9  6  1  0  0  0  0
 12 16  2  0  0  0  0
 13 15  1  0  0  0  0
 14 10  1  0  0  0  0
 14 17  1  0  0  0  0
 15 17  1  0  0  0  0
 15  4  1  0  0  0  0
 16 14  1  0  0  0  0
 16 13  1  0  0  0  0
 16 11  1  0  0  0  0
 18 19  1  0  0  0  0
 18 13  1  0  0  0  0
 19 22  1  0  0  0  0
 21 20  1  0  0  0  0
 21 23  1  0  0  0  0
 22 21  1  0  0  0  0
 24 22  1  0  0  0  0
 24 21  1  0  0  0  0
 25 27  1  0  0  0  0
 27 26  2  0  0  0  0
 27 28  1  0  0  0  0
 28 29  1  0  0  0  0
 30 29  1  0  0  0  0
 32 37  1  0  0  0  0
 33 31  1  0  0  0  0
 34 31  1  0  0  0  0
 35 33  1  0  0  0  0
 36 30  1  0  0  0  0
 36 39  1  0  0  0  0
 37 38  1  0  0  0  0
 39 38  1  0  0  0  0
M  END
>  <MODEL>
2

>  <REMARK>
 VINA RESULT:      -7.7      1.759      2.136
  Name = 
  9 active torsions:
  status: ('A' for Active; 'I' for Inactive)
    1  A    between atoms: C_3  and  C_22
    2  A    between atoms: C_3  and  C_34
    3  A    between atoms: N_4  and  C_28
    4  A    between atoms: C_15  and  C_25
    5  A    between atoms: C_17  and  C_32
    6  A    between atoms: C_21  and  S_27
    7  A    between atoms: C_23  and  S_27
    8  A    between atoms: C_23  and  N_31
    9  A    between atoms: C_25  and  C_34
                            x       y       z     vdW  Elec       q    Type
                         _______ _______ _______ _____ _____    ______ ____

>  <TORSDO>
F 9

$$$$
=
 OpenBabel11062417453D

 39 43  0  0  1  0  0  0  0  0999 V2000
  183.0590  179.2310  141.7950 C   0  0  1  0  0  3  0  0  0  0  0  0
  183.8910  178.2840  140.9530 C   0  0  2  0  0  0  0  0  0  0  0  0
  185.4180  178.5980  141.1610 C   0  0  1  0  0  0  0  0  0  0  0  0
  184.7330  178.8330  139.8270 C   0  0  2  0  0  0  0  0  0  0  0  0
  182.2620  178.5440  142.7280 O   0  0  0  0  0  0  0  0  0  0  0  0
  183.6360  178.5970  143.0140 C   0  0  1  0  0  0  0  0  0  0  0  0
  184.4030  180.1560  139.4860 O   0  0  0  0  0  1  0  0  0  0  0  0
  185.7210  179.8500  141.7190 O   0  0  0  0  0  1  0  0  0  0  0  0
  184.6130  177.7690  142.1640 C   0  0  1  0  0  3  0  0  0  0  0  0
  186.5570  177.7420  135.4380 O   0  0  0  0  0  1  0  0  0  0  0  0
  183.6280  177.6640  134.9880 O   0  0  0  0  0  0  0  0  0  0  0  0
  183.9590  175.3690  136.2560 O   0  0  0  0  0  1  0  0  0  0  0  0
  183.6500  177.5980  137.8760 C   0  0  1  0  0  3  0  0  0  0  0  0
  185.9970  177.1830  136.5890 C   0  0  2  0  0  3  0  0  0  0  0  0
  184.9100  177.8110  138.7000 C   0  0  1  0  0  3  0  0  0  0  0  0
  184.2440  176.8540  136.3340 P   0  0  2  0  0  0  0  0  0  0  0  0
  186.0390  178.1790  137.7330 C   0  0  0  0  0  2  0  0  0  0  0  0
  182.4840  176.5000  138.7500 S   0  0  0  0  0  0  0  0  0  0  0  0
  181.0160  177.4280  138.1980 C   0  0  0  0  0  2  0  0  0  0  0  0
  181.0650  180.0520  137.2140 C   0  0  0  0  0  1  0  0  0  0  0  0
  180.6660  179.7560  138.6580 C   0  0  1  0  0  0  0  0  0  0  0  0
  180.6670  178.4300  139.1970 N   0  0  0  0  0  0  0  0  0  0  0  0
  180.7590  180.7680  139.6140 O   0  0  0  0  0  1  0  0  0  0  0  0
  179.4360  179.0490  138.7570 N   0  0  0  0  0  2  0  0  0  0  0  0
  184.1180  179.6090  143.9640 N   0  0  0  0  0  2  0  0  0  0  0  0
  185.4600  180.3970  145.6900 O   0  0  0  0  0  0  0  0  0  0  0  0
  184.9000  179.4060  145.1550 C   0  0  0  0  0  0  0  0  0  0  0  0
  185.0210  178.0590  145.8080 C   0  0  0  0  0  2  0  0  0  0  0  0
  186.4790  177.6370  145.9200 C   0  0  0  0  0  2  0  0  0  0  0  0
  187.1900  177.7400  144.5740 C   0  0  0  0  0  2  0  0  0  0  0  0
  189.5210  176.9240  143.3390 P   0  0  0  0  0  2  0  0  0  0  0  0
  190.8880  176.1180  144.2590 C   0  0  0  0  0  1  0  0  0  0  0  0
  188.8230  177.9540  142.1160 O   0  0  0  0  0  0  0  0  0  0  0  0
  188.7920  175.4600  142.9040 O   0  0  0  0  0  1  0  0  0  0  0  0
  190.1700  177.9940  142.0410 C   0  0  0  0  0  1  0  0  0  0  0  0
  188.7010  177.7550  144.7660 C   0  0  0  0  0  2  0  0  0  0  0  0
  191.4620  177.0740  145.3010 C   0  0  0  0  0  2  0  0  0  0  0  0
  190.5040  177.2610  146.4810 C   0  0  0  0  0  2  0  0  0  0  0  0
  189.0380  177.0740  146.0960 C   0  0  0  0  0  2  0  0  0  0  0  0
  1  5  1  1  0  0  0
  1  6  1  0  0  0  0
  2  3  1  0  0  0  0
  2  1  1  0  0  0  0
  2  9  1  0  0  0  0
  3  8  1  0  0  0  0
  3  9  1  0  0  0  0
  4  2  1  0  0  0  0
  4  3  1  0  0  0  0
  5  6  1  0  0  0  0
  6 25  1  0  0  0  0
  7  4  1  0  0  0  0
  9  6  1  0  0  0  0
 10 14  1  0  0  0  0
 11 16  2  0  0  0  0
 12 16  1  0  0  0  0
 13 15  1  0  0  0  0
 13 18  1  0  0  0  0
 14 17  1  0  0  0  0
 15  4  1  0  0  0  0
 16 14  1  0  0  0  0
 16 13  1  0  0  0  0
 17 15  1  0  0  0  0
 19 18  1  0  0  0  0
 19 22  1  0  0  0  0
 20 21  1  0  0  0  0
 21 24  1  0  0  0  0
 21 22  1  0  0  0  0
 21 23  1  0  0  0  0
 24 22  1  0  0  0  0
 25 27  1  0  0  0  0
 27 26  2  0  0  0  0
 27 28  1  0  0  0  0
 28 29  1  0  0  0  0
 30 36  1  0  0  0  0
 30 29  1  0  0  0  0
 32 37  1  0  0  0  0
 33 31  1  0  0  0  0
 34 31  1  0  0  0  0
 35 33  1  0  0  0  0
 36 39  1  0  0  0  0
 37 38  1  0  0  0  0
 39 38  1  0  0  0  0
M  END
>  <MODEL>
3

>  <REMARK>
 VINA RESULT:      -7.4      2.706      4.367
  Name = 
  9 active torsions:
  status: ('A' for Active; 'I' for Inactive)
    1  A    between atoms: C_3  and  C_22
    2  A    between atoms: C_3  and  C_34
    3  A    between atoms: N_4  and  C_28
    4  A    between atoms: C_15  and  C_25
    5  A    between atoms: C_17  and  C_32
    6  A    between atoms: C_21  and  S_27
    7  A    between atoms: C_23  and  S_27
    8  A    between atoms: C_23  and  N_31
    9  A    between atoms: C_25  and  C_34
                            x       y       z     vdW  Elec       q    Type
                         _______ _______ _______ _____ _____    ______ ____

>  <TORSDO>
F 9

$$$$
=
 OpenBabel11062417453D

 39 43  0  0  1  0  0  0  0  0999 V2000
  188.1390  178.6240  136.4600 C   0  0  1  0  0  3  0  0  0  0  0  0
  186.9010  178.1760  137.2100 C   0  0  2  0  0  0  0  0  0  0  0  0
  186.8100  176.6070  137.1860 C   0  0  1  0  0  0  0  0  0  0  0  0
  185.7930  177.4720  136.4650 C   0  0  2  0  0  0  0  0  0  0  0  0
  189.0190  179.3500  137.2830 O   0  0  0  0  0  0  0  0  0  0  0  0
  188.9680  177.9650  137.5080 C   0  0  1  0  0  0  0  0  0  0  0  0
  185.9070  177.5880  135.0680 O   0  0  0  0  0  1  0  0  0  0  0  0
  187.5910  175.9560  136.2180 O   0  0  0  0  0  1  0  0  0  0  0  0
  187.7180  177.3550  138.1630 C   0  0  1  0  0  3  0  0  0  0  0  0
  183.1890  178.4610  140.4670 O   0  0  0  0  0  1  0  0  0  0  0  0
  182.2930  175.7300  139.7400 O   0  0  0  0  0  1  0  0  0  0  0  0
  180.9860  177.1410  137.9270 O   0  0  0  0  0  0  0  0  0  0  0  0
  183.5920  176.4620  137.2650 C   0  0  1  0  0  3  0  0  0  0  0  0
  183.1300  178.4260  139.0730 C   0  0  2  0  0  3  0  0  0  0  0  0
  184.4260  177.7230  137.1080 C   0  0  1  0  0  3  0  0  0  0  0  0
  182.3580  176.8940  138.5190 P   0  0  2  0  0  0  0  0  0  0  0  0
  184.5290  178.3850  138.4860 C   0  0  0  0  0  2  0  0  0  0  0  0
  182.8130  176.0010  135.6800 S   0  0  0  0  0  0  0  0  0  0  0  0
  183.2430  174.2390  135.8480 C   0  0  0  0  0  2  0  0  0  0  0  0
  183.5960  171.7520  137.0940 C   0  0  0  0  0  1  0  0  0  0  0  0
  184.6870  172.8200  137.1350 C   0  0  1  0  0  0  0  0  0  0  0  0
  184.5200  174.1110  136.5380 N   0  0  0  0  0  0  0  0  0  0  0  0
  185.6570  172.7690  138.1370 O   0  0  0  0  0  1  0  0  0  0  0  0
  185.2610  173.0720  135.8580 N   0  0  0  0  0  2  0  0  0  0  0  0
  190.0090  177.1170  136.9100 N   0  0  0  0  0  2  0  0  0  0  0  0
  191.8200  175.6620  136.9660 O   0  0  0  0  0  0  0  0  0  0  0  0
  191.1940  176.5930  137.5350 C   0  0  0  0  0  0  0  0  0  0  0  0
  191.7350  177.1590  138.8170 C   0  0  0  0  0  2  0  0  0  0  0  0
  190.8660  176.7590  140.0000 C   0  0  0  0  0  2  0  0  0  0  0  0
  191.2690  177.5160  141.2630 C   0  0  0  0  0  2  0  0  0  0  0  0
  190.0170  176.5160  143.5120 P   0  0  0  0  0  2  0  0  0  0  0  0
  188.2000  176.2890  143.6030 C   0  0  0  0  0  1  0  0  0  0  0  0
  191.6020  176.8940  144.1370 O   0  0  0  0  0  0  0  0  0  0  0  0
  190.3080  174.9350  142.9850 O   0  0  0  0  0  1  0  0  0  0  0  0
  190.6760  177.0370  145.1070 C   0  0  0  0  0  1  0  0  0  0  0  0
  190.0570  177.7600  142.1520 C   0  0  0  0  0  2  0  0  0  0  0  0
  187.4910  177.6350  143.4820 C   0  0  0  0  0  2  0  0  0  0  0  0
  187.5570  178.1790  142.0530 C   0  0  0  0  0  2  0  0  0  0  0  0
  188.7920  177.7050  141.2890 C   0  0  0  0  0  2  0  0  0  0  0  0
  1  2  1  0  0  0  0
  1  5  1  1  0  0  0
  1  6  1  0  0  0  0
  2  9  1  0  0  0  0
  3  2  1  0  0  0  0
  3  9  1  0  0  0  0
  4 15  1  0  0  0  0
  4  3  1  0  0  0  0
  4  2  1  0  0  0  0
  5  6  1  0  0  0  0
  6  9  1  0  0  0  0
  7  4  1  0  0  0  0
  8  3  1  0  0  0  0
 12 16  2  0  0  0  0
 13 16  1  0  0  0  0
 14 10  1  0  0  0  0
 15 13  1  0  0  0  0
 15 17  1  0  0  0  0
 16 14  1  0  0  0  0
 16 11  1  0  0  0  0
 17 14  1  0  0  0  0
 18 19  1  0  0  0  0
 18 13  1  0  0  0  0
 19 22  1  0  0  0  0
 20 21  1  0  0  0  0
 21 23  1  0  0  0  0
 22 21  1  0  0  0  0
 24 22  1  0  0  0  0
 24 21  1  0  0  0  0
 25  6  1  0  0  0  0
 25 27  1  0  0  0  0
 26 27  2  0  0  0  0
 27 28  1  0  0  0  0
 28 29  1  0  0  0  0
 29 30  1  0  0  0  0
 30 36  1  0  0  0  0
 31 33  1  0  0  0  0
 33 35  1  0  0  0  0
 34 31  1  0  0  0  0
 37 32  1  0  0  0  0
 38 37  1  0  0  0  0
 39 38  1  0  0  0  0
 39 36  1  0  0  0  0
M  END
>  <MODEL>
4

>  <REMARK>
 VINA RESULT:      -7.2      2.643      5.883
  Name = 
  9 active torsions:
  status: ('A' for Active; 'I' for Inactive)
    1  A    between atoms: C_3  and  C_22
    2  A    between atoms: C_3  and  C_34
    3  A    between atoms: N_4  and  C_28
    4  A    between atoms: C_15  and  C_25
    5  A    between atoms: C_17  and  C_32
    6  A    between atoms: C_21  and  S_27
    7  A    between atoms: C_23  and  S_27
    8  A    between atoms: C_23  and  N_31
    9  A    between atoms: C_25  and  C_34
                            x       y       z     vdW  Elec       q    Type
                         _______ _______ _______ _____ _____    ______ ____

>  <TORSDO>
F 9

$$$$
=
 OpenBabel11062417453D

 39 43  0  0  1  0  0  0  0  0999 V2000
  185.6310  179.6720  144.8250 C   0  0  1  0  0  3  0  0  0  0  0  0
  186.4970  178.4310  144.9250 C   0  0  2  0  0  0  0  0  0  0  0  0
  185.7380  177.3240  145.7430 C   0  0  1  0  0  0  0  0  0  0  0  0
  186.9990  177.9800  146.2750 C   0  0  2  0  0  0  0  0  0  0  0  0
  185.3390  180.0040  143.4910 O   0  0  0  0  0  0  0  0  0  0  0  0
  184.6640  178.8870  144.0080 C   0  0  1  0  0  0  0  0  0  0  0  0
  186.8550  178.9590  147.2730 O   0  0  0  0  0  1  0  0  0  0  0  0
  184.6570  177.7640  146.5250 O   0  0  0  0  0  1  0  0  0  0  0  0
  185.4450  177.5890  144.2660 C   0  0  1  0  0  3  0  0  0  0  0  0
  191.6000  177.4420  147.7970 O   0  0  0  0  0  1  0  0  0  0  0  0
  191.9210  178.3400  144.9900 O   0  0  0  0  0  1  0  0  0  0  0  0
  191.2240  175.8220  144.5900 O   0  0  0  0  0  0  0  0  0  0  0  0
  189.1280  177.6060  144.9210 C   0  0  1  0  0  3  0  0  0  0  0  0
  190.5820  176.8240  147.0690 C   0  0  2  0  0  3  0  0  0  0  0  0
  188.3360  177.2400  146.1660 C   0  0  1  0  0  3  0  0  0  0  0  0
  190.8240  177.0960  145.3040 P   0  0  2  0  0  0  0  0  0  0  0  0
  189.2450  177.4710  147.3780 C   0  0  0  0  0  2  0  0  0  0  0  0
  188.4720  176.7320  143.4590 S   0  0  0  0  0  0  0  0  0  0  0  0
  189.5240  177.6540  142.2920 C   0  0  0  0  0  2  0  0  0  0  0  0
  189.3760  178.0880  139.5260 C   0  0  0  0  0  1  0  0  0  0  0  0
  190.2580  176.9860  140.1080 C   0  0  1  0  0  0  0  0  0  0  0  0
  190.3260  176.7190  141.5130 N   0  0  0  0  0  0  0  0  0  0  0  0
  190.6390  175.9150  139.2990 O   0  0  0  0  0  1  0  0  0  0  0  0
  191.3560  177.4950  140.8580 N   0  0  0  0  0  2  0  0  0  0  0  0
  183.2880  179.0610  144.4970 N   0  0  0  0  0  2  0  0  0  0  0  0
  180.9830  178.7790  144.4220 O   0  0  0  0  0  0  0  0  0  0  0  0
  182.0600  178.8600  143.7760 C   0  0  0  0  0  0  0  0  0  0  0  0
  182.0160  178.7990  142.2770 C   0  0  0  0  0  2  0  0  0  0  0  0
  180.7180  179.3870  141.7440 C   0  0  0  0  0  2  0  0  0  0  0  0
  180.5460  179.0900  140.2560 C   0  0  0  0  0  2  0  0  0  0  0  0
  182.4980  178.4940  138.3960 P   0  0  0  0  0  2  0  0  0  0  0  0
  182.5310  176.9030  137.4850 C   0  0  0  0  0  1  0  0  0  0  0  0
  183.1950  179.8770  139.2000 O   0  0  0  0  0  0  0  0  0  0  0  0
  181.6160  179.2990  137.1970 O   0  0  0  0  0  1  0  0  0  0  0  0
  184.1710  179.0510  138.7690 C   0  0  0  0  0  1  0  0  0  0  0  0
  181.4660  177.9550  139.8250 C   0  0  0  0  0  2  0  0  0  0  0  0
  182.7270  175.7410  138.4550 C   0  0  0  0  0  2  0  0  0  0  0  0
  181.4640  175.4780  139.2800 C   0  0  0  0  0  2  0  0  0  0  0  0
  180.6130  176.7290  139.4850 C   0  0  0  0  0  2  0  0  0  0  0  0
  1  5  1  6  0  0  0
  1  2  1  0  0  0  0
  2  3  1  0  0  0  0
  2  4  1  0  0  0  0
  3  4  1  0  0  0  0
  3  8  1  0  0  0  0
  4  7  1  0  0  0  0
  5  6  1  0  0  0  0
  6  9  1  0  0  0  0
  6 25  1  0  0  0  0
  6  1  1  0  0  0  0
  9  2  1  0  0  0  0
  9  3  1  0  0  0  0
 11 16  1  0  0  0  0
 12 16  2  0  0  0  0
 13 16  1  0  0  0  0
 13 15  1  0  0  0  0
 14 17  1  0  0  0  0
 14 10  1  0  0  0  0
 15  4  1  0  0  0  0
 15 17  1  0  0  0  0
 16 14  1  0  0  0  0
 18 13  1  0  0  0  0
 19 18  1  0  0  0  0
 20 21  1  0  0  0  0
 21 24  1  0  0  0  0
 21 22  1  0  0  0  0
 22 19  1  0  0  0  0
 23 21  1  0  0  0  0
 24 22  1  0  0  0  0
 27 26  2  0  0  0  0
 27 25  1  0  0  0  0
 28 27  1  0  0  0  0
 29 28  1  0  0  0  0
 30 29  1  0  0  0  0
 31 33  1  0  0  0  0
 32 37  1  0  0  0  0
 34 31  1  0  0  0  0
 35 33  1  0  0  0  0
 36 30  1  0  0  0  0
 37 38  1  0  0  0  0
 38 39  1  0  0  0  0
 39 36  1  0  0  0  0
M  END
>  <MODEL>
5

>  <REMARK>
 VINA RESULT:      -7.0      2.548      8.072
  Name = 
  9 active torsions:
  status: ('A' for Active; 'I' for Inactive)
    1  A    between atoms: C_3  and  C_22
    2  A    between atoms: C_3  and  C_34
    3  A    between atoms: N_4  and  C_28
    4  A    between atoms: C_15  and  C_25
    5  A    between atoms: C_17  and  C_32
    6  A    between atoms: C_21  and  S_27
    7  A    between atoms: C_23  and  S_27
    8  A    between atoms: C_23  and  N_31
    9  A    between atoms: C_25  and  C_34
                            x       y       z     vdW  Elec       q    Type
                         _______ _______ _______ _____ _____    ______ ____

>  <TORSDO>
F 9

$$$$
=
 OpenBabel11062417453D

 39 43  0  0  1  0  0  0  0  0999 V2000
  186.8610  177.3830  135.5340 C   0  0  1  0  0  3  0  0  0  0  0  0
  185.4590  177.3150  136.1060 C   0  0  2  0  0  0  0  0  0  0  0  0
  185.3330  176.0600  137.0430 C   0  0  1  0  0  0  0  0  0  0  0  0
  184.5600  176.1580  135.7400 C   0  0  2  0  0  0  0  0  0  0  0  0
  187.5200  178.5720  135.8930 O   0  0  0  0  0  0  0  0  0  0  0  0
  187.3730  177.6180  136.9130 C   0  0  1  0  0  0  0  0  0  0  0  0
  185.0330  175.4180  134.6430 O   0  0  0  0  0  1  0  0  0  0  0  0
  186.3180  175.0710  136.8900 O   0  0  0  0  0  1  0  0  0  0  0  0
  185.9800  177.3640  137.5110 C   0  0  1  0  0  3  0  0  0  0  0  0
  181.0960  179.4070  134.6370 O   0  0  0  0  0  1  0  0  0  0  0  0
  181.1100  179.4190  137.6020 O   0  0  0  0  0  1  0  0  0  0  0  0
  179.8320  177.1490  137.1570 O   0  0  0  0  0  0  0  0  0  0  0  0
  182.5990  176.9870  137.1450 C   0  0  1  0  0  3  0  0  0  0  0  0
  181.3060  178.0850  135.0340 C   0  0  2  0  0  3  0  0  0  0  0  0
  183.0810  176.5560  135.7690 C   0  0  1  0  0  3  0  0  0  0  0  0
  181.0850  177.9260  136.8150 P   0  0  2  0  0  0  0  0  0  0  0  0
  182.7480  177.6840  134.7880 C   0  0  0  0  0  2  0  0  0  0  0  0
  182.2770  175.5330  138.2010 S   0  0  0  0  0  0  0  0  0  0  0  0
  182.2810  176.5060  139.7410 C   0  0  0  0  0  2  0  0  0  0  0  0
  181.7120  178.9620  140.9690 C   0  0  0  0  0  1  0  0  0  0  0  0
  183.0950  178.6670  140.3920 C   0  0  1  0  0  0  0  0  0  0  0  0
  183.4030  177.4370  139.7290 N   0  0  0  0  0  0  0  0  0  0  0  0
  183.9380  179.7280  140.0590 O   0  0  0  0  0  1  0  0  0  0  0  0
  183.7860  177.6500  141.1070 N   0  0  0  0  0  2  0  0  0  0  0  0
  188.5080  176.7340  137.2180 N   0  0  0  0  0  2  0  0  0  0  0  0
  190.1150  175.7840  138.6000 O   0  0  0  0  0  0  0  0  0  0  0  0
  189.3840  176.7780  138.3580 C   0  0  0  0  0  0  0  0  0  0  0  0
  189.4920  177.9930  139.2340 C   0  0  0  0  0  2  0  0  0  0  0  0
  188.5950  177.8660  140.4560 C   0  0  0  0  0  2  0  0  0  0  0  0
  189.2840  177.0790  141.5680 C   0  0  0  0  0  2  0  0  0  0  0  0
  190.3040  177.6170  144.0770 P   0  0  0  0  0  2  0  0  0  0  0  0
  189.4270  177.1380  145.6150 C   0  0  0  0  0  1  0  0  0  0  0  0
  191.3020  178.6360  143.0720 O   0  0  0  0  0  0  0  0  0  0  0  0
  191.2260  176.2000  144.0190 O   0  0  0  0  0  1  0  0  0  0  0  0
  191.1470  179.1960  144.2890 C   0  0  0  0  0  1  0  0  0  0  0  0
  188.8570  177.5970  142.9350 C   0  0  0  0  0  2  0  0  0  0  0  0
  188.0900  177.8660  145.7120 C   0  0  0  0  0  2  0  0  0  0  0  0
  187.0720  177.3070  144.7150 C   0  0  0  0  0  2  0  0  0  0  0  0
  187.7220  176.7150  143.4650 C   0  0  0  0  0  2  0  0  0  0  0  0
  1  5  1  6  0  0  0
  1  2  1  0  0  0  0
  1  6  1  0  0  0  0
  2  3  1  0  0  0  0
  2  9  1  0  0  0  0
  3  9  1  0  0  0  0
  4 15  1  0  0  0  0
  4  2  1  0  0  0  0
  4  3  1  0  0  0  0
  5  6  1  0  0  0  0
  6 25  1  0  0  0  0
  6  9  1  0  0  0  0
  7  4  1  0  0  0  0
  8  3  1  0  0  0  0
 10 14  1  0  0  0  0
 13 18  1  0  0  0  0
 14 16  1  0  0  0  0
 15 13  1  0  0  0  0
 16 13  1  0  0  0  0
 16 12  2  0  0  0  0
 16 11  1  0  0  0  0
 17 14  1  0  0  0  0
 17 15  1  0  0  0  0
 18 19  1  0  0  0  0
 21 20  1  0  0  0  0
 21 24  1  0  0  0  0
 22 19  1  0  0  0  0
 22 21  1  0  0  0  0
 22 24  1  0  0  0  0
 23 21  1  0  0  0  0
 25 27  1  0  0  0  0
 27 26  2  0  0  0  0
 27 28  1  0  0  0  0
 28 29  1  0  0  0  0
 29 30  1  0  0  0  0
 30 36  1  0  0  0  0
 32 37  1  0  0  0  0
 33 31  1  0  0  0  0
 33 35  1  0  0  0  0
 34 31  1  0  0  0  0
 36 39  1  0  0  0  0
 38 37  1  0  0  0  0
 39 38  1  0  0  0  0
M  END
>  <MODEL>
6

>  <REMARK>
 VINA RESULT:      -7.0      2.422      5.656
  Name = 
  9 active torsions:
  status: ('A' for Active; 'I' for Inactive)
    1  A    between atoms: C_3  and  C_22
    2  A    between atoms: C_3  and  C_34
    3  A    between atoms: N_4  and  C_28
    4  A    between atoms: C_15  and  C_25
    5  A    between atoms: C_17  and  C_32
    6  A    between atoms: C_21  and  S_27
    7  A    between atoms: C_23  and  S_27
    8  A    between atoms: C_23  and  N_31
    9  A    between atoms: C_25  and  C_34
                            x       y       z     vdW  Elec       q    Type
                         _______ _______ _______ _____ _____    ______ ____

>  <TORSDO>
F 9

$$$$
=
 OpenBabel11062417453D

 39 43  0  0  1  0  0  0  0  0999 V2000
  185.6060  179.6210  144.6010 C   0  0  1  0  0  3  0  0  0  0  0  0
  186.4540  178.3760  144.7720 C   0  0  2  0  0  0  0  0  0  0  0  0
  185.7070  177.3540  145.7030 C   0  0  1  0  0  0  0  0  0  0  0  0
  186.9970  178.0260  146.1360 C   0  0  2  0  0  0  0  0  0  0  0  0
  185.2710  179.8490  143.2540 O   0  0  0  0  0  0  0  0  0  0  0  0
  184.5970  178.7910  143.8840 C   0  0  1  0  0  0  0  0  0  0  0  0
  186.9060  179.0860  147.0540 O   0  0  0  0  0  1  0  0  0  0  0  0
  184.6630  177.8770  146.4840 O   0  0  0  0  0  1  0  0  0  0  0  0
  185.3650  177.5030  144.2200 C   0  0  1  0  0  3  0  0  0  0  0  0
  191.5720  177.3850  147.6980 O   0  0  0  0  0  1  0  0  0  0  0  0
  191.9370  178.2640  144.8900 O   0  0  0  0  0  1  0  0  0  0  0  0
  191.1840  175.7610  144.4950 O   0  0  0  0  0  0  0  0  0  0  0  0
  189.1280  177.5950  144.8010 C   0  0  1  0  0  3  0  0  0  0  0  0
  190.5450  176.7890  146.9630 C   0  0  2  0  0  3  0  0  0  0  0  0
  188.3170  177.2550  146.0410 C   0  0  1  0  0  3  0  0  0  0  0  0
  190.8080  177.0470  145.2000 P   0  0  2  0  0  0  0  0  0  0  0  0
  189.2210  177.4690  147.2590 C   0  0  0  0  0  2  0  0  0  0  0  0
  188.4640  176.7310  143.3370 S   0  0  0  0  0  0  0  0  0  0  0  0
  189.5060  177.6630  142.1690 C   0  0  0  0  0  2  0  0  0  0  0  0
  189.3710  178.1990  139.4210 C   0  0  0  0  0  1  0  0  0  0  0  0
  190.2210  177.0520  139.9620 C   0  0  1  0  0  0  0  0  0  0  0  0
  190.2810  176.7340  141.3570 N   0  0  0  0  0  0  0  0  0  0  0  0
  190.5710  176.0000  139.1150 O   0  0  0  0  0  1  0  0  0  0  0  0
  191.3330  177.5030  140.7290 N   0  0  0  0  0  2  0  0  0  0  0  0
  183.2430  179.0310  144.4050 N   0  0  0  0  0  2  0  0  0  0  0  0
  180.9230  178.9190  144.3500 O   0  0  0  0  0  0  0  0  0  0  0  0
  181.9950  178.9640  143.6940 C   0  0  0  0  0  0  0  0  0  0  0  0
  181.9300  179.0030  142.1940 C   0  0  0  0  0  2  0  0  0  0  0  0
  180.5140  179.2860  141.7160 C   0  0  0  0  0  2  0  0  0  0  0  0
  180.3030  178.7940  140.2860 C   0  0  0  0  0  2  0  0  0  0  0  0
  181.3530  180.2440  138.1840 P   0  0  0  0  0  2  0  0  0  0  0  0
  181.2550  182.0740  138.1110 C   0  0  0  0  0  1  0  0  0  0  0  0
  181.3570  178.6280  137.5260 O   0  0  0  0  0  0  0  0  0  0  0  0
  182.8750  180.2360  138.9230 O   0  0  0  0  0  1  0  0  0  0  0  0
  181.1790  179.5300  136.5380 C   0  0  0  0  0  1  0  0  0  0  0  0
  179.9650  179.9570  139.3630 C   0  0  0  0  0  2  0  0  0  0  0  0
  179.8000  182.5250  138.0420 C   0  0  0  0  0  2  0  0  0  0  0  0
  179.0890  182.3370  139.3850 C   0  0  0  0  0  2  0  0  0  0  0  0
  179.6720  181.1950  140.2150 C   0  0  0  0  0  2  0  0  0  0  0  0
  1  5  1  6  0  0  0
  1  2  1  0  0  0  0
  2  3  1  0  0  0  0
  2  4  1  0  0  0  0
  3  4  1  0  0  0  0
  3  8  1  0  0  0  0
  4  7  1  0  0  0  0
  5  6  1  0  0  0  0
  6  9  1  0  0  0  0
  6 25  1  0  0  0  0
  6  1  1  0  0  0  0
  9  2  1  0  0  0  0
  9  3  1  0  0  0  0
 11 16  1  0  0  0  0
 12 16  2  0  0  0  0
 13 16  1  0  0  0  0
 13 15  1  0  0  0  0
 14 17  1  0  0  0  0
 14 10  1  0  0  0  0
 15  4  1  0  0  0  0
 15 17  1  0  0  0  0
 16 14  1  0  0  0  0
 18 13  1  0  0  0  0
 19 18  1  0  0  0  0
 20 21  1  0  0  0  0
 21 24  1  0  0  0  0
 21 22  1  0  0  0  0
 22 19  1  0  0  0  0
 23 21  1  0  0  0  0
 24 22  1  0  0  0  0
 27 26  2  0  0  0  0
 27 25  1  0  0  0  0
 28 27  1  0  0  0  0
 29 28  1  0  0  0  0
 30 29  1  0  0  0  0
 31 34  1  0  0  0  0
 33 31  1  0  0  0  0
 35 33  1  0  0  0  0
 36 39  1  0  0  0  0
 36 30  1  0  0  0  0
 37 32  1  0  0  0  0
 37 38  1  0  0  0  0
 38 39  1  0  0  0  0
M  END
>  <MODEL>
7

>  <REMARK>
 VINA RESULT:      -6.8      2.959      8.635
  Name = 
  9 active torsions:
  status: ('A' for Active; 'I' for Inactive)
    1  A    between atoms: C_3  and  C_22
    2  A    between atoms: C_3  and  C_34
    3  A    between atoms: N_4  and  C_28
    4  A    between atoms: C_15  and  C_25
    5  A    between atoms: C_17  and  C_32
    6  A    between atoms: C_21  and  S_27
    7  A    between atoms: C_23  and  S_27
    8  A    between atoms: C_23  and  N_31
    9  A    between atoms: C_25  and  C_34
                            x       y       z     vdW  Elec       q    Type
                         _______ _______ _______ _____ _____    ______ ____

>  <TORSDO>
F 9

$$$$
=
 OpenBabel11062417453D

 39 43  0  0  1  0  0  0  0  0999 V2000
  189.1950  177.3180  136.6090 C   0  0  1  0  0  3  0  0  0  0  0  0
  188.1440  176.3910  137.1860 C   0  0  2  0  0  0  0  0  0  0  0  0
  188.7160  174.9290  137.2620 C   0  0  1  0  0  0  0  0  0  0  0  0
  187.5740  175.2870  136.3280 C   0  0  2  0  0  0  0  0  0  0  0  0
  189.5390  178.3470  137.5050 O   0  0  0  0  0  0  0  0  0  0  0  0
  190.0270  177.0680  137.8200 C   0  0  1  0  0  0  0  0  0  0  0  0
  187.8700  175.4410  134.9630 O   0  0  0  0  0  1  0  0  0  0  0  0
  189.8510  174.6670  136.4770 O   0  0  0  0  0  1  0  0  0  0  0  0
  189.0500  175.9890  138.3120 C   0  0  1  0  0  3  0  0  0  0  0  0
  184.2090  171.8790  137.2450 O   0  0  0  0  0  1  0  0  0  0  0  0
  183.1600  173.2250  134.8220 O   0  0  0  0  0  0  0  0  0  0  0  0
  182.5560  175.0350  136.6510 O   0  0  0  0  0  1  0  0  0  0  0  0
  185.1250  175.1850  135.6210 C   0  0  1  0  0  3  0  0  0  0  0  0
  184.4980  173.2360  137.3950 C   0  0  2  0  0  3  0  0  0  0  0  0
  186.1370  174.9400  136.7290 C   0  0  1  0  0  3  0  0  0  0  0  0
  183.6870  174.1930  136.1000 P   0  0  2  0  0  0  0  0  0  0  0  0
  185.9800  173.4870  137.1870 C   0  0  0  0  0  2  0  0  0  0  0  0
  184.7140  176.9590  135.5030 S   0  0  0  0  0  0  0  0  0  0  0  0
  184.7080  177.1970  137.3100 C   0  0  0  0  0  2  0  0  0  0  0  0
  183.6980  178.0010  139.7980 C   0  0  0  0  0  1  0  0  0  0  0  0
  184.4740  178.9700  138.9090 C   0  0  1  0  0  0  0  0  0  0  0  0
  184.9700  178.5970  137.6190 N   0  0  0  0  0  0  0  0  0  0  0  0
  184.3120  180.3440  139.0900 O   0  0  0  0  0  1  0  0  0  0  0  0
  185.8450  178.6150  138.7710 N   0  0  0  0  0  2  0  0  0  0  0  0
  191.4120  176.7350  137.4550 N   0  0  0  0  0  2  0  0  0  0  0  0
  193.6240  176.1790  137.9000 O   0  0  0  0  0  0  0  0  0  0  0  0
  192.5800  176.7600  138.2940 C   0  0  0  0  0  0  0  0  0  0  0  0
  192.6080  177.5050  139.5980 C   0  0  0  0  0  2  0  0  0  0  0  0
  191.4550  177.0790  140.4940 C   0  0  0  0  0  2  0  0  0  0  0  0
  191.5530  177.7330  141.8710 C   0  0  0  0  0  2  0  0  0  0  0  0
  189.8470  176.6210  143.7350 P   0  0  0  0  0  2  0  0  0  0  0  0
  188.0600  176.3730  143.4040 C   0  0  0  0  0  1  0  0  0  0  0  0
  191.2430  176.9860  144.7170 O   0  0  0  0  0  0  0  0  0  0  0  0
  190.2790  175.0680  143.2220 O   0  0  0  0  0  1  0  0  0  0  0  0
  190.1190  177.0760  145.4580 C   0  0  0  0  0  1  0  0  0  0  0  0
  190.1670  177.9250  142.4720 C   0  0  0  0  0  2  0  0  0  0  0  0
  187.3700  177.7160  143.1840 C   0  0  0  0  0  2  0  0  0  0  0  0
  187.7450  178.3240  141.8300 C   0  0  0  0  0  2  0  0  0  0  0  0
  189.1300  177.8980  141.3450 C   0  0  0  0  0  2  0  0  0  0  0  0
  1  2  1  0  0  0  0
  1  5  1  1  0  0  0
  1  6  1  0  0  0  0
  2  3  1  0  0  0  0
  2  9  1  0  0  0  0
  3  9  1  0  0  0  0
  4 15  1  0  0  0  0
  4  2  1  0  0  0  0
  4  3  1  0  0  0  0
  5  6  1  0  0  0  0
  6  9  1  0  0  0  0
  7  4  1  0  0  0  0
  8  3  1  0  0  0  0
 10 14  1  0  0  0  0
 11 16  2  0  0  0  0
 13 16  1  0  0  0  0
 13 15  1  0  0  0  0
 15 17  1  0  0  0  0
 16 12  1  0  0  0  0
 16 14  1  0  0  0  0
 17 14  1  0  0  0  0
 18 13  1  0  0  0  0
 18 19  1  0  0  0  0
 19 22  1  0  0  0  0
 21 23  1  0  0  0  0
 21 20  1  0  0  0  0
 22 24  1  0  0  0  0
 22 21  1  0  0  0  0
 24 21  1  0  0  0  0
 25  6  1  0  0  0  0
 25 27  1  0  0  0  0
 26 27  2  0  0  0  0
 27 28  1  0  0  0  0
 28 29  1  0  0  0  0
 29 30  1  0  0  0  0
 30 36  1  0  0  0  0
 31 33  1  0  0  0  0
 33 35  1  0  0  0  0
 34 31  1  0  0  0  0
 37 32  1  0  0  0  0
 38 37  1  0  0  0  0
 39 38  1  0  0  0  0
 39 36  1  0  0  0  0
M  END
>  <MODEL>
8

>  <REMARK>
 VINA RESULT:      -6.8      2.338      6.034
  Name = 
  9 active torsions:
  status: ('A' for Active; 'I' for Inactive)
    1  A    between atoms: C_3  and  C_22
    2  A    between atoms: C_3  and  C_34
    3  A    between atoms: N_4  and  C_28
    4  A    between atoms: C_15  and  C_25
    5  A    between atoms: C_17  and  C_32
    6  A    between atoms: C_21  and  S_27
    7  A    between atoms: C_23  and  S_27
    8  A    between atoms: C_23  and  N_31
    9  A    between atoms: C_25  and  C_34
                            x       y       z     vdW  Elec       q    Type
                         _______ _______ _______ _____ _____    ______ ____

>  <TORSDO>
F 9

$$$$
=
 OpenBabel11062417453D

 39 43  0  0  1  0  0  0  0  0999 V2000
  184.4450  177.7420  141.5330 C   0  0  1  0  0  3  0  0  0  0  0  0
  183.7470  178.3320  140.3240 C   0  0  2  0  0  0  0  0  0  0  0  0
  182.2260  178.5550  140.6500 C   0  0  1  0  0  0  0  0  0  0  0  0
  182.6750  177.5350  139.6200 C   0  0  2  0  0  0  0  0  0  0  0  0
  185.4800  178.5710  142.0000 O   0  0  0  0  0  0  0  0  0  0  0  0
  184.1730  179.0130  142.2640 C   0  0  1  0  0  0  0  0  0  0  0  0
  182.6620  176.1800  139.9930 O   0  0  0  0  0  1  0  0  0  0  0  0
  181.7220  177.8570  141.7600 O   0  0  0  0  0  1  0  0  0  0  0  0
  183.3080  179.5340  141.1060 C   0  0  1  0  0  3  0  0  0  0  0  0
  180.0310  179.1530  135.8560 O   0  0  0  0  0  1  0  0  0  0  0  0
  180.5960  176.3370  135.1200 O   0  0  0  0  0  1  0  0  0  0  0  0
  182.9440  177.4300  134.5940 O   0  0  0  0  0  0  0  0  0  0  0  0
  182.5450  176.6610  137.2270 C   0  0  1  0  0  3  0  0  0  0  0  0
  181.3360  178.8910  136.2780 C   0  0  2  0  0  3  0  0  0  0  0  0
  182.5940  177.8830  138.1310 C   0  0  1  0  0  3  0  0  0  0  0  0
  181.8810  177.2880  135.6630 P   0  0  2  0  0  0  0  0  0  0  0  0
  181.3860  178.7600  137.7890 C   0  0  0  0  0  2  0  0  0  0  0  0
  184.2120  175.9470  137.0170 S   0  0  0  0  0  0  0  0  0  0  0  0
  185.0480  177.5580  137.1670 C   0  0  0  0  0  2  0  0  0  0  0  0
  187.1120  177.7940  135.2840 C   0  0  0  0  0  1  0  0  0  0  0  0
  187.4120  177.5280  136.7570 C   0  0  1  0  0  0  0  0  0  0  0  0
  186.3770  177.3690  137.7340 N   0  0  0  0  0  0  0  0  0  0  0  0
  188.6350  176.9610  137.1160 O   0  0  0  0  0  1  0  0  0  0  0  0
  187.0750  178.6280  137.5960 N   0  0  0  0  0  2  0  0  0  0  0  0
  183.5980  178.7510  143.5910 N   0  0  0  0  0  2  0  0  0  0  0  0
  183.4380  179.0030  145.8950 O   0  0  0  0  0  0  0  0  0  0  0  0
  184.1780  179.0270  144.8780 C   0  0  0  0  0  0  0  0  0  0  0  0
  185.6460  179.2890  145.0510 C   0  0  0  0  0  2  0  0  0  0  0  0
  186.3630  178.0530  145.5730 C   0  0  0  0  0  2  0  0  0  0  0  0
  187.4410  177.5850  144.5980 C   0  0  0  0  0  2  0  0  0  0  0  0
  190.1060  177.1340  144.0330 P   0  0  0  0  0  2  0  0  0  0  0  0
  191.2300  176.2970  145.2160 C   0  0  0  0  0  1  0  0  0  0  0  0
  189.6780  178.2860  142.7940 O   0  0  0  0  0  0  0  0  0  0  0  0
  189.7040  175.7050  143.2210 O   0  0  0  0  0  1  0  0  0  0  0  0
  190.9750  178.4320  143.1350 C   0  0  0  0  0  1  0  0  0  0  0  0
  188.8200  177.6780  145.2370 C   0  0  0  0  0  2  0  0  0  0  0  0
  191.3660  177.1220  146.4920 C   0  0  0  0  0  2  0  0  0  0  0  0
  190.0940  177.0590  147.3410 C   0  0  0  0  0  2  0  0  0  0  0  0
  188.8330  176.8280  146.5110 C   0  0  0  0  0  2  0  0  0  0  0  0
  1  5  1  6  0  0  0
  1  6  1  0  0  0  0
  2  3  1  0  0  0  0
  2  9  1  0  0  0  0
  2  1  1  0  0  0  0
  3  9  1  0  0  0  0
  3  8  1  0  0  0  0
  4  7  1  0  0  0  0
  4  2  1  0  0  0  0
  4  3  1  0  0  0  0
  5  6  1  0  0  0  0
  6 25  1  0  0  0  0
  9  6  1  0  0  0  0
 10 14  1  0  0  0  0
 11 16  1  0  0  0  0
 12 16  2  0  0  0  0
 13 15  1  0  0  0  0
 14 17  1  0  0  0  0
 15  4  1  0  0  0  0
 16 14  1  0  0  0  0
 16 13  1  0  0  0  0
 17 15  1  0  0  0  0
 18 19  1  0  0  0  0
 18 13  1  0  0  0  0
 19 22  1  0  0  0  0
 20 21  1  0  0  0  0
 21 23  1  0  0  0  0
 21 24  1  0  0  0  0
 21 22  1  0  0  0  0
 24 22  1  0  0  0  0
 25 27  1  0  0  0  0
 27 28  1  0  0  0  0
 27 26  2  0  0  0  0
 28 29  1  0  0  0  0
 30 36  1  0  0  0  0
 30 29  1  0  0  0  0
 32 37  1  0  0  0  0
 33 35  1  0  0  0  0
 33 31  1  0  0  0  0
 34 31  1  0  0  0  0
 36 39  1  0  0  0  0
 37 38  1  0  0  0  0
 39 38  1  0  0  0  0
M  END
>  <MODEL>
9

>  <REMARK>
 VINA RESULT:      -6.6      2.138      2.957
  Name = 
  9 active torsions:
  status: ('A' for Active; 'I' for Inactive)
    1  A    between atoms: C_3  and  C_22
    2  A    between atoms: C_3  and  C_34
    3  A    between atoms: N_4  and  C_28
    4  A    between atoms: C_15  and  C_25
    5  A    between atoms: C_17  and  C_32
    6  A    between atoms: C_21  and  S_27
    7  A    between atoms: C_23  and  S_27
    8  A    between atoms: C_23  and  N_31
    9  A    between atoms: C_25  and  C_34
                            x       y       z     vdW  Elec       q    Type
                         _______ _______ _______ _____ _____    ______ ____

>  <TORSDO>
F 9

$$$$
