=
 OpenBabel11062412083D

 54 60  0  0  1  0  0  0  0  0999 V2000
  184.9660  179.2390  142.5470 C   0  0  0  0  0  3  0  0  0  0  0  0
  185.9390  179.1490  141.5570 C   0  0  0  0  0  3  0  0  0  0  0  0
  187.0990  177.4500  142.8480 C   0  0  0  0  0  0  0  0  0  0  0  0
  192.3460  177.5960  142.5110 O   0  0  0  0  0  0  0  0  0  0  0  0
  186.1100  177.5410  143.8350 C   0  0  0  0  0  3  0  0  0  0  0  0
  191.4890  177.4340  141.5930 C   0  0  0  0  0  0  0  0  0  0  0  0
  187.0120  178.2650  141.6910 C   0  0  0  0  0  0  0  0  0  0  0  0
  188.1870  176.4460  143.0480 C   0  0  0  0  0  2  0  0  0  0  0  0
  185.0510  178.4430  143.6980 C   0  0  0  0  0  0  0  0  0  0  0  0
  191.6500  176.4600  138.0240 N   0  0  0  0  0  2  0  0  0  0  0  0
  189.1380  177.4570  140.6340 C   0  0  2  0  0  3  0  0  0  0  0  0
  190.0440  177.7930  141.8450 C   0  0  1  0  0  3  0  0  0  0  0  0
  191.1560  176.9780  139.2620 C   0  0  0  0  0  0  0  0  0  0  0  0
  189.8410  177.7060  139.3110 C   0  0  0  0  0  2  0  0  0  0  0  0
  187.9590  178.2520  140.6590 O   0  0  0  0  0  0  0  0  0  0  0  0
  189.5620  177.1160  143.1420 C   0  0  0  0  0  2  0  0  0  0  0  0
  191.9160  176.9360  140.3160 N   0  0  0  0  0  0  0  0  0  0  0  0
  190.8570  176.4220  136.8300 C   0  0  0  0  0  0  0  0  0  0  0  0
  189.9630  177.3970  136.6300 C   0  0  0  0  0  3  0  0  0  0  0  0
  191.1010  175.3200  135.8320 C   0  0  0  0  0  2  0  0  0  0  0  0
  192.2270  175.7860  134.8750 C   0  0  0  0  0  2  0  0  0  0  0  0
  194.4650  176.2180  135.8730 C   0  0  0  0  0  2  0  0  0  0  0  0
  194.9480  175.5410  137.0200 O   0  0  0  0  0  0  0  0  0  0  0  0
  193.4460  174.0800  135.9610 C   0  0  0  0  0  2  0  0  0  0  0  0
  193.5920  175.2780  135.1310 N   0  0  0  0  0  0  0  0  0  0  0  0
  194.5450  173.4880  138.0260 O   0  0  0  0  0  0  0  0  0  0  0  0
  194.3560  174.3100  137.0900 C   0  0  0  0  0  0  0  0  0  0  0  0
  189.0090  177.4510  135.4750 C   0  0  0  0  0  2  0  0  0  0  0  0
  187.9090  176.4060  135.6080 C   0  0  0  0  0  2  0  0  0  0  0  0
  186.5260  177.0430  135.5940 C   0  0  0  0  0  2  0  0  0  0  0  0
  183.7890  174.8730  138.2300 O   0  0  0  0  0  1  0  0  0  0  0  0
  183.0820  177.1670  138.1980 C   0  0  0  0  0  2  0  0  0  0  0  0
  184.2290  176.1340  136.2260 C   0  0  0  0  0  2  0  0  0  0  0  0
  183.2910  175.8810  137.3990 C   0  0  1  0  0  3  0  0  0  0  0  0
  185.7000  177.3910  137.9670 C   0  0  0  0  0  2  0  0  0  0  0  0
  185.6340  176.5130  136.7120 C   0  0  2  0  0  3  0  0  0  0  0  0
  184.3680  177.9760  138.4650 C   0  0  1  0  0  3  0  0  0  0  0  0
  184.2290  179.4540  138.1220 C   0  0  0  0  0  2  0  0  0  0  0  0
  184.1430  180.2400  139.2670 O   0  0  0  0  0  1  0  0  0  0  0  0
  183.9480  178.4470  144.7220 C   0  0  1  0  0  3  0  0  0  0  0  0
  186.3150  179.6740  147.2390 N   0  0  0  0  0  2  0  0  0  0  0  0
  185.3640  179.9450  146.1820 C   0  0  0  0  0  2  0  0  0  0  0  0
  185.3310  177.6930  146.6330 N   0  0  0  0  0  2  0  0  0  0  0  0
  186.1920  178.3010  147.5670 N   0  0  0  0  0  0  0  0  0  0  0  0
  187.5090  177.7050  147.3910 C   0  0  0  0  0  1  0  0  0  0  0  0
  184.4760  178.7480  146.1380 C   0  0  2  0  0  3  0  0  0  0  0  0
  182.8100  179.3470  144.1970 C   0  0  0  0  0  2  0  0  0  0  0  0
  181.4500  178.6870  143.9660 C   0  0  0  0  0  2  0  0  0  0  0  0
  179.2410  181.0130  141.4810 S   0  0  0  0  0  0  0  0  0  0  0  0
  180.6840  179.7600  139.5130 C   0  0  0  0  0  1  0  0  0  0  0  0
  180.6860  179.3130  142.8400 C   0  0  0  0  0  0  0  0  0  0  0  0
  180.5820  178.7190  141.7030 N   0  0  0  0  0  0  0  0  0  0  0  0
  179.8050  179.4490  140.7070 C   0  0  1  0  0  3  0  0  0  0  0  0
  180.0900  180.5580  142.9290 O   0  0  0  0  0  0  0  0  0  0  0  0
  1  9  1  0  0  0  0
  2  7  1  0  0  0  0
  2  1  2  0  0  0  0
  3  8  1  0  0  0  0
  3  5  1  0  0  0  0
  6 12  1  0  0  0  0
  6  4  2  0  0  0  0
  7  3  2  0  0  0  0
  8 16  1  0  0  0  0
  9  5  2  0  0  0  0
  9 40  1  0  0  0  0
 10 13  1  0  0  0  0
 11 14  1  6  0  0  0
 11 15  1  0  0  0  0
 11 12  1  0  0  0  0
 12 16  1  1  0  0  0
 13 14  1  0  0  0  0
 13 17  2  0  0  0  0
 15  7  1  0  0  0  0
 17  6  1  0  0  0  0
 18 10  1  0  0  0  0
 19 18  2  0  0  0  0
 20 18  1  0  0  0  0
 21 25  1  0  0  0  0
 21 20  1  0  0  0  0
 22 23  1  0  0  0  0
 23 27  1  0  0  0  0
 24 27  1  0  0  0  0
 25 22  1  0  0  0  0
 25 24  1  0  0  0  0
 27 26  2  0  0  0  0
 28 29  1  0  0  0  0
 28 19  1  0  0  0  0
 30 29  1  0  0  0  0
 32 37  1  0  0  0  0
 33 36  1  0  0  0  0
 33 34  1  0  0  0  0
 34 32  1  0  0  0  0
 34 31  1  1  0  0  0
 35 37  1  0  0  0  0
 36 30  1  6  0  0  0
 36 35  1  0  0  0  0
 37 38  1  6  0  0  0
 38 39  1  0  0  0  0
 40 47  1  6  0  0  0
 41 44  1  0  0  0  0
 42 41  1  0  0  0  0
 43 44  1  0  0  0  0
 45 44  1  0  0  0  0
 46 40  1  6  0  0  0
 46 42  1  0  0  0  0
 46 43  1  0  0  0  0
 48 47  1  0  0  0  0
 49 54  1  0  0  0  0
 51 54  1  0  0  0  0
 51 48  1  0  0  0  0
 52 51  2  0  0  0  0
 53 50  1  6  0  0  0
 53 49  1  0  0  0  0
 53 52  1  0  0  0  0
M  END
>  <MODEL>
1

>  <REMARK>
 VINA RESULT:      -7.9      0.000      0.000
  Name = 
  14 active torsions:
  status: ('A' for Active; 'I' for Inactive)
    1  A    between atoms: C_3  and  C_17
    2  A    between atoms: C_3  and  C_18
    3  A    between atoms: C_4  and  C_10
    4  A    between atoms: C_4  and  C_26
    5  A    between atoms: C_4  and  C_42
    6  A    between atoms: C_9  and  C_20
    7  A    between atoms: C_9  and  C_47
    8  A    between atoms: C_10  and  C_48
    9  A    between atoms: C_11  and  C_54
   10  A    between atoms: C_17  and  N_30
   11  A    between atoms: C_18  and  N_27
   12  A    between atoms: C_20  and  C_32
   13  A    between atoms: C_32  and  C_49
   14  A    between atoms: C_35  and  C_48
                            x       y       z     vdW  Elec       q    Type
                         _______ _______ _______ _____ _____    ______ ____

>  <TORSDO>
F 14

$$$$
=
 OpenBabel11062412083D

 54 60  0  0  1  0  0  0  0  0999 V2000
  186.7830  178.3100  142.5180 C   0  0  0  0  0  3  0  0  0  0  0  0
  187.3550  178.0690  141.2730 C   0  0  0  0  0  3  0  0  0  0  0  0
  189.2080  176.9230  142.3450 C   0  0  0  0  0  0  0  0  0  0  0  0
  193.8760  177.5700  140.0070 O   0  0  0  0  0  0  0  0  0  0  0  0
  188.6200  177.1620  143.5930 C   0  0  0  0  0  3  0  0  0  0  0  0
  192.8090  177.0700  139.5420 C   0  0  0  0  0  0  0  0  0  0  0  0
  188.5660  177.3810  141.1680 C   0  0  0  0  0  0  0  0  0  0  0  0
  190.4810  176.1400  142.3170 C   0  0  0  0  0  2  0  0  0  0  0  0
  187.4170  177.8680  143.6870 C   0  0  0  0  0  0  0  0  0  0  0  0
  191.9370  175.2000  136.4670 N   0  0  0  0  0  2  0  0  0  0  0  0
  190.3210  176.5680  139.5710 C   0  0  2  0  0  3  0  0  0  0  0  0
  191.4960  177.3170  140.2460 C   0  0  1  0  0  3  0  0  0  0  0  0
  191.8010  175.9710  137.6640 C   0  0  0  0  0  0  0  0  0  0  0  0
  190.4620  176.5300  138.0600 C   0  0  0  0  0  2  0  0  0  0  0  0
  189.0850  177.2010  139.8790 O   0  0  0  0  0  0  0  0  0  0  0  0
  191.6360  176.9620  141.7390 C   0  0  0  0  0  2  0  0  0  0  0  0
  192.8670  176.3000  138.3320 N   0  0  0  0  0  0  0  0  0  0  0  0
  190.8100  174.7530  135.7020 C   0  0  0  0  0  0  0  0  0  0  0  0
  190.2460  173.5840  136.0250 C   0  0  0  0  0  3  0  0  0  0  0  0
  190.2800  175.6400  134.6060 C   0  0  0  0  0  2  0  0  0  0  0  0
  188.7810  175.9080  134.8950 C   0  0  0  0  0  2  0  0  0  0  0  0
  186.9440  177.5230  135.3560 C   0  0  0  0  0  2  0  0  0  0  0  0
  187.0100  178.5050  136.3740 O   0  0  0  0  0  0  0  0  0  0  0  0
  189.2200  178.0840  135.7020 C   0  0  0  0  0  2  0  0  0  0  0  0
  188.3180  177.3120  134.8430 N   0  0  0  0  0  0  0  0  0  0  0  0
  188.7100  179.6410  137.4740 O   0  0  0  0  0  0  0  0  0  0  0  0
  188.3210  178.8280  136.5930 C   0  0  0  0  0  0  0  0  0  0  0  0
  189.1170  172.9480  135.2730 C   0  0  0  0  0  2  0  0  0  0  0  0
  187.9570  172.5980  136.1970 C   0  0  0  0  0  2  0  0  0  0  0  0
  186.7410  172.1200  135.4130 C   0  0  0  0  0  2  0  0  0  0  0  0
  182.9120  171.2280  137.3350 O   0  0  0  0  0  1  0  0  0  0  0  0
  183.0400  173.6100  137.0700 C   0  0  0  0  0  2  0  0  0  0  0  0
  184.1920  172.0620  135.4740 C   0  0  0  0  0  2  0  0  0  0  0  0
  182.9830  172.2480  136.3810 C   0  0  1  0  0  3  0  0  0  0  0  0
  185.5620  172.9640  137.4950 C   0  0  0  0  0  2  0  0  0  0  0  0
  185.4940  172.0240  136.2860 C   0  0  2  0  0  3  0  0  0  0  0  0
  184.4260  173.9920  137.6290 C   0  0  1  0  0  3  0  0  0  0  0  0
  184.8720  175.3910  137.2250 C   0  0  0  0  0  2  0  0  0  0  0  0
  184.0290  176.3690  137.7460 O   0  0  0  0  0  1  0  0  0  0  0  0
  186.7550  178.0200  145.0300 C   0  0  1  0  0  3  0  0  0  0  0  0
  189.0200  177.2730  147.8140 N   0  0  0  0  0  2  0  0  0  0  0  0
  188.7070  177.1920  146.4030 C   0  0  0  0  0  2  0  0  0  0  0  0
  187.1320  178.5150  147.4270 N   0  0  0  0  0  2  0  0  0  0  0  0
  188.0990  178.1790  148.3940 N   0  0  0  0  0  0  0  0  0  0  0  0
  187.4120  177.4600  149.4580 C   0  0  0  0  0  1  0  0  0  0  0  0
  187.7730  178.3270  146.1450 C   0  0  2  0  0  3  0  0  0  0  0  0
  185.5770  179.0040  144.8740 C   0  0  0  0  0  2  0  0  0  0  0  0
  184.1780  178.4720  145.1900 C   0  0  0  0  0  2  0  0  0  0  0  0
  182.2360  178.7670  141.6390 S   0  0  0  0  0  0  0  0  0  0  0  0
  180.0100  178.2420  143.1540 C   0  0  0  0  0  1  0  0  0  0  0  0
  183.2150  178.6660  144.0590 C   0  0  0  0  0  0  0  0  0  0  0  0
  182.0050  179.0430  144.2810 N   0  0  0  0  0  0  0  0  0  0  0  0
  181.1870  179.1930  143.0820 C   0  0  1  0  0  3  0  0  0  0  0  0
  183.5390  178.4200  142.7370 O   0  0  0  0  0  0  0  0  0  0  0  0
  1  9  1  0  0  0  0
  2  1  2  0  0  0  0
  3  5  1  0  0  0  0
  5  9  2  0  0  0  0
  6  4  2  0  0  0  0
  6 12  1  0  0  0  0
  7  2  1  0  0  0  0
  7  3  2  0  0  0  0
  8  3  1  0  0  0  0
  9 40  1  0  0  0  0
 10 13  1  0  0  0  0
 11 14  1  6  0  0  0
 11 15  1  0  0  0  0
 11 12  1  0  0  0  0
 12 16  1  1  0  0  0
 13 14  1  0  0  0  0
 13 17  2  0  0  0  0
 15  7  1  0  0  0  0
 16  8  1  0  0  0  0
 17  6  1  0  0  0  0
 18 19  2  0  0  0  0
 18 10  1  0  0  0  0
 20 21  1  0  0  0  0
 20 18  1  0  0  0  0
 22 23  1  0  0  0  0
 23 27  1  0  0  0  0
 24 27  1  0  0  0  0
 25 21  1  0  0  0  0
 25 22  1  0  0  0  0
 25 24  1  0  0  0  0
 27 26  2  0  0  0  0
 28 19  1  0  0  0  0
 28 29  1  0  0  0  0
 30 29  1  0  0  0  0
 32 37  1  0  0  0  0
 33 36  1  0  0  0  0
 33 34  1  0  0  0  0
 34 32  1  0  0  0  0
 34 31  1  1  0  0  0
 35 37  1  0  0  0  0
 36 30  1  6  0  0  0
 36 35  1  0  0  0  0
 37 38  1  6  0  0  0
 38 39  1  0  0  0  0
 40 47  1  6  0  0  0
 41 44  1  0  0  0  0
 42 41  1  0  0  0  0
 43 44  1  0  0  0  0
 44 45  1  0  0  0  0
 46 40  1  6  0  0  0
 46 42  1  0  0  0  0
 46 43  1  0  0  0  0
 47 48  1  0  0  0  0
 49 54  1  0  0  0  0
 49 53  1  0  0  0  0
 51 52  2  0  0  0  0
 51 48  1  0  0  0  0
 53 50  1  1  0  0  0
 53 52  1  0  0  0  0
 54 51  1  0  0  0  0
M  END
>  <MODEL>
2

>  <REMARK>
 VINA RESULT:      -7.8      2.379      3.866
  Name = 
  14 active torsions:
  status: ('A' for Active; 'I' for Inactive)
    1  A    between atoms: C_3  and  C_17
    2  A    between atoms: C_3  and  C_18
    3  A    between atoms: C_4  and  C_10
    4  A    between atoms: C_4  and  C_26
    5  A    between atoms: C_4  and  C_42
    6  A    between atoms: C_9  and  C_20
    7  A    between atoms: C_9  and  C_47
    8  A    between atoms: C_10  and  C_48
    9  A    between atoms: C_11  and  C_54
   10  A    between atoms: C_17  and  N_30
   11  A    between atoms: C_18  and  N_27
   12  A    between atoms: C_20  and  C_32
   13  A    between atoms: C_32  and  C_49
   14  A    between atoms: C_35  and  C_48
                            x       y       z     vdW  Elec       q    Type
                         _______ _______ _______ _____ _____    ______ ____

>  <TORSDO>
F 14

$$$$
=
 OpenBabel11062412083D

 54 60  0  0  1  0  0  0  0  0999 V2000
  190.1700  176.6630  136.1240 C   0  0  0  0  0  3  0  0  0  0  0  0
  188.9260  177.1680  136.4860 C   0  0  0  0  0  3  0  0  0  0  0  0
  188.0600  174.9060  136.6670 C   0  0  0  0  0  0  0  0  0  0  0  0
  183.0390  174.3240  135.2080 O   0  0  0  0  0  0  0  0  0  0  0  0
  189.3180  174.4070  136.3110 C   0  0  0  0  0  3  0  0  0  0  0  0
  183.5280  175.0510  136.1220 C   0  0  0  0  0  0  0  0  0  0  0  0
  187.8610  176.3070  136.7580 C   0  0  0  0  0  0  0  0  0  0  0  0
  186.9860  173.9160  136.9860 C   0  0  0  0  0  2  0  0  0  0  0  0
  190.3720  175.2790  136.0220 C   0  0  0  0  0  0  0  0  0  0  0  0
  182.1090  177.0420  138.9040 N   0  0  0  0  0  2  0  0  0  0  0  0
  185.4280  176.1930  137.3600 C   0  0  2  0  0  3  0  0  0  0  0  0
  185.0090  175.3520  136.1290 C   0  0  1  0  0  3  0  0  0  0  0  0
  183.0340  176.5450  137.9320 C   0  0  0  0  0  0  0  0  0  0  0  0
  184.3690  177.2110  137.7420 C   0  0  0  0  0  2  0  0  0  0  0  0
  186.6350  176.8970  137.0930 O   0  0  0  0  0  0  0  0  0  0  0  0
  185.8030  174.0370  136.0200 C   0  0  0  0  0  2  0  0  0  0  0  0
  182.6570  175.6010  137.1210 N   0  0  0  0  0  0  0  0  0  0  0  0
  182.4630  178.0430  139.8670 C   0  0  0  0  0  0  0  0  0  0  0  0
  183.3400  177.7220  140.8250 C   0  0  0  0  0  3  0  0  0  0  0  0
  181.8730  179.4220  139.7290 C   0  0  0  0  0  2  0  0  0  0  0  0
  181.6160  179.6800  138.2230 C   0  0  0  0  0  2  0  0  0  0  0  0
  180.7110  181.9810  138.5040 C   0  0  0  0  0  2  0  0  0  0  0  0
  180.7210  182.9520  137.4730 O   0  0  0  0  0  0  0  0  0  0  0  0
  180.6400  180.8540  136.4210 C   0  0  0  0  0  2  0  0  0  0  0  0
  180.5570  180.6510  137.8690 N   0  0  0  0  0  0  0  0  0  0  0  0
  180.7440  182.9040  135.1510 O   0  0  0  0  0  0  0  0  0  0  0  0
  180.6950  182.3130  136.2630 C   0  0  0  0  0  0  0  0  0  0  0  0
  183.7470  178.6310  141.9450 C   0  0  0  0  0  2  0  0  0  0  0  0
  185.0210  178.1450  142.6240 C   0  0  0  0  0  2  0  0  0  0  0  0
  184.9870  178.3980  144.1260 C   0  0  0  0  0  2  0  0  0  0  0  0
  187.8490  176.6750  146.9520 O   0  0  0  0  0  1  0  0  0  0  0  0
  189.1150  177.7590  145.2240 C   0  0  0  0  0  2  0  0  0  0  0  0
  186.8370  178.5750  145.8710 C   0  0  0  0  0  2  0  0  0  0  0  0
  188.1170  177.9180  146.3710 C   0  0  1  0  0  3  0  0  0  0  0  0
  187.0090  176.8830  143.9010 C   0  0  0  0  0  2  0  0  0  0  0  0
  186.1130  177.6770  144.8590 C   0  0  2  0  0  3  0  0  0  0  0  0
  188.5050  177.2370  143.9070 C   0  0  1  0  0  3  0  0  0  0  0  0
  188.9000  178.0670  142.6930 C   0  0  0  0  0  2  0  0  0  0  0  0
  188.6440  177.3910  141.5040 O   0  0  0  0  0  1  0  0  0  0  0  0
  191.7400  174.7160  135.7440 C   0  0  1  0  0  3  0  0  0  0  0  0
  195.1720  175.6110  136.6720 N   0  0  0  0  0  2  0  0  0  0  0  0
  194.1540  175.4550  135.6550 C   0  0  0  0  0  2  0  0  0  0  0  0
  193.1900  175.1110  137.7120 N   0  0  0  0  0  2  0  0  0  0  0  0
  194.5260  175.5020  137.9280 N   0  0  0  0  0  0  0  0  0  0  0  0
  195.1800  174.4170  138.6470 C   0  0  0  0  0  1  0  0  0  0  0  0
  192.8560  175.5670  136.3810 C   0  0  2  0  0  3  0  0  0  0  0  0
  191.7200  173.2140  136.0980 C   0  0  0  0  0  2  0  0  0  0  0  0
  192.2030  172.2390  135.0240 C   0  0  0  0  0  2  0  0  0  0  0  0
  195.2660  169.6290  135.5430 S   0  0  0  0  0  0  0  0  0  0  0  0
  196.6190  171.8520  136.4100 C   0  0  0  0  0  1  0  0  0  0  0  0
  193.4270  171.4810  135.4370 C   0  0  0  0  0  0  0  0  0  0  0  0
  194.1930  171.9240  136.3720 N   0  0  0  0  0  0  0  0  0  0  0  0
  195.3430  171.0760  136.6670 C   0  0  1  0  0  3  0  0  0  0  0  0
  193.8310  170.3050  134.8320 O   0  0  0  0  0  0  0  0  0  0  0  0
  1  2  1  0  0  0  0
  2  7  2  0  0  0  0
  3  7  1  0  0  0  0
  3  8  1  0  0  0  0
  4  6  2  0  0  0  0
  5  3  2  0  0  0  0
  6 12  1  0  0  0  0
  6 17  1  0  0  0  0
  7 15  1  0  0  0  0
  9  1  2  0  0  0  0
  9  5  1  0  0  0  0
 10 18  1  0  0  0  0
 11 14  1  6  0  0  0
 12 16  1  1  0  0  0
 12 11  1  0  0  0  0
 13 10  1  0  0  0  0
 14 13  1  0  0  0  0
 15 11  1  0  0  0  0
 16  8  1  0  0  0  0
 17 13  2  0  0  0  0
 18 19  2  0  0  0  0
 19 28  1  0  0  0  0
 20 18  1  0  0  0  0
 21 20  1  0  0  0  0
 23 22  1  0  0  0  0
 24 25  1  0  0  0  0
 25 21  1  0  0  0  0
 25 22  1  0  0  0  0
 26 27  2  0  0  0  0
 27 24  1  0  0  0  0
 27 23  1  0  0  0  0
 28 29  1  0  0  0  0
 29 30  1  0  0  0  0
 32 34  1  0  0  0  0
 33 34  1  0  0  0  0
 34 31  1  6  0  0  0
 35 37  1  0  0  0  0
 35 36  1  0  0  0  0
 36 30  1  6  0  0  0
 36 33  1  0  0  0  0
 37 38  1  6  0  0  0
 37 32  1  0  0  0  0
 39 38  1  0  0  0  0
 40  9  1  0  0  0  0
 40 47  1  1  0  0  0
 41 44  1  0  0  0  0
 42 46  1  0  0  0  0
 42 41  1  0  0  0  0
 43 44  1  0  0  0  0
 44 45  1  0  0  0  0
 46 40  1  6  0  0  0
 46 43  1  0  0  0  0
 48 51  1  0  0  0  0
 48 47  1  0  0  0  0
 49 53  1  0  0  0  0
 51 52  2  0  0  0  0
 52 53  1  0  0  0  0
 53 50  1  6  0  0  0
 54 51  1  0  0  0  0
 54 49  1  0  0  0  0
M  END
>  <MODEL>
3

>  <REMARK>
 VINA RESULT:      -7.6      4.248     11.712
  Name = 
  14 active torsions:
  status: ('A' for Active; 'I' for Inactive)
    1  A    between atoms: C_3  and  C_17
    2  A    between atoms: C_3  and  C_18
    3  A    between atoms: C_4  and  C_10
    4  A    between atoms: C_4  and  C_26
    5  A    between atoms: C_4  and  C_42
    6  A    between atoms: C_9  and  C_20
    7  A    between atoms: C_9  and  C_47
    8  A    between atoms: C_10  and  C_48
    9  A    between atoms: C_11  and  C_54
   10  A    between atoms: C_17  and  N_30
   11  A    between atoms: C_18  and  N_27
   12  A    between atoms: C_20  and  C_32
   13  A    between atoms: C_32  and  C_49
   14  A    between atoms: C_35  and  C_48
                            x       y       z     vdW  Elec       q    Type
                         _______ _______ _______ _____ _____    ______ ____

>  <TORSDO>
F 14

$$$$
=
 OpenBabel11062412083D

 54 60  0  0  1  0  0  0  0  0999 V2000
  183.6790  177.7540  136.3770 C   0  0  0  0  0  3  0  0  0  0  0  0
  184.3960  178.0770  137.5250 C   0  0  0  0  0  3  0  0  0  0  0  0
  182.6670  177.0610  138.8940 C   0  0  0  0  0  0  0  0  0  0  0  0
  181.7890  179.4450  143.5000 O   0  0  0  0  0  0  0  0  0  0  0  0
  181.9560  176.7320  137.7330 C   0  0  0  0  0  3  0  0  0  0  0  0
  182.8530  178.9170  143.0620 C   0  0  0  0  0  0  0  0  0  0  0  0
  183.9050  177.7420  138.7880 C   0  0  0  0  0  0  0  0  0  0  0  0
  182.0940  176.6260  140.2040 C   0  0  0  0  0  2  0  0  0  0  0  0
  182.4480  177.0890  136.4740 C   0  0  0  0  0  0  0  0  0  0  0  0
  186.1350  178.0560  144.5460 N   0  0  0  0  0  2  0  0  0  0  0  0
  184.3280  177.9130  141.2550 C   0  0  2  0  0  3  0  0  0  0  0  0
  182.9920  178.6230  141.5860 C   0  0  1  0  0  3  0  0  0  0  0  0
  185.1210  178.3280  143.5750 C   0  0  0  0  0  0  0  0  0  0  0  0
  185.4710  178.4200  142.1150 C   0  0  0  0  0  2  0  0  0  0  0  0
  184.6780  178.1240  139.8930 O   0  0  0  0  0  0  0  0  0  0  0  0
  181.7680  177.8230  141.1020 C   0  0  0  0  0  2  0  0  0  0  0  0
  183.9220  178.6320  143.9760 N   0  0  0  0  0  0  0  0  0  0  0  0
  187.4660  177.6630  144.1860 C   0  0  0  0  0  0  0  0  0  0  0  0
  187.6180  176.6830  143.2890 C   0  0  0  0  0  3  0  0  0  0  0  0
  188.6290  178.4040  144.7920 C   0  0  0  0  0  2  0  0  0  0  0  0
  188.8630  177.8390  146.2150 C   0  0  0  0  0  2  0  0  0  0  0  0
  190.9470  176.7200  145.4400 C   0  0  0  0  0  2  0  0  0  0  0  0
  192.1120  176.6100  146.2370 O   0  0  0  0  0  0  0  0  0  0  0  0
  190.2930  176.7090  147.7180 C   0  0  0  0  0  2  0  0  0  0  0  0
  189.7750  176.6820  146.3470 N   0  0  0  0  0  0  0  0  0  0  0  0
  192.5670  176.5800  148.5130 O   0  0  0  0  0  0  0  0  0  0  0  0
  191.7490  176.6160  147.5560 C   0  0  0  0  0  0  0  0  0  0  0  0
  188.9390  176.1090  142.8720 C   0  0  0  0  0  2  0  0  0  0  0  0
  189.7350  177.0970  142.0280 C   0  0  0  0  0  2  0  0  0  0  0  0
  190.1600  176.4820  140.7000 C   0  0  0  0  0  2  0  0  0  0  0  0
  189.0520  179.6840  137.9300 O   0  0  0  0  0  1  0  0  0  0  0  0
  188.2810  177.6180  136.9800 C   0  0  0  0  0  2  0  0  0  0  0  0
  188.4590  177.9210  139.4600 C   0  0  0  0  0  2  0  0  0  0  0  0
  188.1750  178.6140  138.1340 C   0  0  1  0  0  3  0  0  0  0  0  0
  190.4890  176.8700  138.2150 C   0  0  0  0  0  2  0  0  0  0  0  0
  189.9080  177.4190  139.5230 C   0  0  2  0  0  3  0  0  0  0  0  0
  189.5000  176.6760  137.0540 C   0  0  1  0  0  3  0  0  0  0  0  0
  189.1380  175.2100  136.8520 C   0  0  0  0  0  2  0  0  0  0  0  0
  188.4860  175.0040  135.6400 O   0  0  0  0  0  1  0  0  0  0  0  0
  181.7180  176.6320  135.2400 C   0  0  1  0  0  3  0  0  0  0  0  0
  181.6690  173.0580  136.0540 N   0  0  0  0  0  2  0  0  0  0  0  0
  180.9530  174.2880  135.7870 C   0  0  0  0  0  2  0  0  0  0  0  0
  183.1920  174.6510  135.4220 N   0  0  0  0  0  2  0  0  0  0  0  0
  183.0250  173.2840  135.7160 N   0  0  0  0  0  0  0  0  0  0  0  0
  183.8110  173.0020  136.9100 C   0  0  0  0  0  1  0  0  0  0  0  0
  181.8960  175.1230  134.9880 C   0  0  2  0  0  3  0  0  0  0  0  0
  180.2690  177.1590  135.3190 C   0  0  0  0  0  2  0  0  0  0  0  0
  180.0550  178.6510  135.0620 C   0  0  0  0  0  2  0  0  0  0  0  0
  179.2270  180.3750  138.6410 S   0  0  0  0  0  0  0  0  0  0  0  0
  181.9350  180.8050  138.7220 C   0  0  0  0  0  1  0  0  0  0  0  0
  180.0110  179.4560  136.3250 C   0  0  0  0  0  0  0  0  0  0  0  0
  180.9090  180.3440  136.5720 N   0  0  0  0  0  0  0  0  0  0  0  0
  180.7310  181.0500  137.8360 C   0  0  1  0  0  3  0  0  0  0  0  0
  179.0520  179.2760  137.3050 O   0  0  0  0  0  0  0  0  0  0  0  0
  1  9  2  0  0  0  0
  1  2  1  0  0  0  0
  2  7  2  0  0  0  0
  3  8  1  0  0  0  0
  5  3  2  0  0  0  0
  6  4  2  0  0  0  0
  6 17  1  0  0  0  0
  7  3  1  0  0  0  0
  7 15  1  0  0  0  0
  8 16  1  0  0  0  0
  9  5  1  0  0  0  0
 11 12  1  0  0  0  0
 11 14  1  1  0  0  0
 12 16  1  1  0  0  0
 12  6  1  0  0  0  0
 13 17  2  0  0  0  0
 13 10  1  0  0  0  0
 14 13  1  0  0  0  0
 15 11  1  0  0  0  0
 18 10  1  0  0  0  0
 18 20  1  0  0  0  0
 19 18  2  0  0  0  0
 20 21  1  0  0  0  0
 21 25  1  0  0  0  0
 22 23  1  0  0  0  0
 22 25  1  0  0  0  0
 23 27  1  0  0  0  0
 25 24  1  0  0  0  0
 27 24  1  0  0  0  0
 27 26  2  0  0  0  0
 28 19  1  0  0  0  0
 29 28  1  0  0  0  0
 30 29  1  0  0  0  0
 32 37  1  0  0  0  0
 32 34  1  0  0  0  0
 33 36  1  0  0  0  0
 34 31  1  6  0  0  0
 34 33  1  0  0  0  0
 35 36  1  0  0  0  0
 36 30  1  1  0  0  0
 37 38  1  1  0  0  0
 37 35  1  0  0  0  0
 39 38  1  0  0  0  0
 40 47  1  1  0  0  0
 40  9  1  0  0  0  0
 42 41  1  0  0  0  0
 43 44  1  0  0  0  0
 44 41  1  0  0  0  0
 44 45  1  0  0  0  0
 46 40  1  1  0  0  0
 46 43  1  0  0  0  0
 46 42  1  0  0  0  0
 48 47  1  0  0  0  0
 48 51  1  0  0  0  0
 51 52  2  0  0  0  0
 51 54  1  0  0  0  0
 52 53  1  0  0  0  0
 53 49  1  0  0  0  0
 53 50  1  1  0  0  0
 54 49  1  0  0  0  0
M  END
>  <MODEL>
4

>  <REMARK>
 VINA RESULT:      -7.6      3.305      8.369
  Name = 
  14 active torsions:
  status: ('A' for Active; 'I' for Inactive)
    1  A    between atoms: C_3  and  C_17
    2  A    between atoms: C_3  and  C_18
    3  A    between atoms: C_4  and  C_10
    4  A    between atoms: C_4  and  C_26
    5  A    between atoms: C_4  and  C_42
    6  A    between atoms: C_9  and  C_20
    7  A    between atoms: C_9  and  C_47
    8  A    between atoms: C_10  and  C_48
    9  A    between atoms: C_11  and  C_54
   10  A    between atoms: C_17  and  N_30
   11  A    between atoms: C_18  and  N_27
   12  A    between atoms: C_20  and  C_32
   13  A    between atoms: C_32  and  C_49
   14  A    between atoms: C_35  and  C_48
                            x       y       z     vdW  Elec       q    Type
                         _______ _______ _______ _____ _____    ______ ____

>  <TORSDO>
F 14

$$$$
=
 OpenBabel11062412083D

 54 60  0  0  1  0  0  0  0  0999 V2000
  182.1090  180.4880  138.1310 C   0  0  0  0  0  3  0  0  0  0  0  0
  183.2970  180.2550  138.8170 C   0  0  0  0  0  3  0  0  0  0  0  0
  182.1030  178.8780  140.4220 C   0  0  0  0  0  0  0  0  0  0  0  0
  183.8780  179.1780  145.3650 O   0  0  0  0  0  0  0  0  0  0  0  0
  180.9140  179.1100  139.7200 C   0  0  0  0  0  3  0  0  0  0  0  0
  184.4860  178.8110  144.3170 C   0  0  0  0  0  0  0  0  0  0  0  0
  183.3130  179.4570  139.9630 C   0  0  0  0  0  0  0  0  0  0  0  0
  182.0410  177.9750  141.6110 C   0  0  0  0  0  2  0  0  0  0  0  0
  180.9070  179.9260  138.5850 C   0  0  0  0  0  0  0  0  0  0  0  0
  187.7460  177.1950  143.6300 N   0  0  0  0  0  2  0  0  0  0  0  0
  184.7570  178.5560  141.8050 C   0  0  2  0  0  3  0  0  0  0  0  0
  183.9130  179.1500  142.9600 C   0  0  1  0  0  3  0  0  0  0  0  0
  186.5260  177.9140  143.4300 C   0  0  0  0  0  0  0  0  0  0  0  0
  186.2430  178.5820  142.1130 C   0  0  0  0  0  2  0  0  0  0  0  0
  184.5460  179.2920  140.6060 O   0  0  0  0  0  0  0  0  0  0  0  0
  182.4400  178.7080  142.8960 C   0  0  0  0  0  2  0  0  0  0  0  0
  185.7270  178.1020  144.4390 N   0  0  0  0  0  0  0  0  0  0  0  0
  188.6540  176.9010  142.5600 C   0  0  0  0  0  0  0  0  0  0  0  0
  188.4960  177.5430  141.3980 C   0  0  0  0  0  3  0  0  0  0  0  0
  189.7740  175.9240  142.8080 C   0  0  0  0  0  2  0  0  0  0  0  0
  191.1060  176.7160  142.8000 C   0  0  0  0  0  2  0  0  0  0  0  0
  190.7480  178.5750  144.4150 C   0  0  0  0  0  2  0  0  0  0  0  0
  190.2150  178.3840  145.7130 O   0  0  0  0  0  0  0  0  0  0  0  0
  191.2940  176.3820  145.1300 C   0  0  0  0  0  2  0  0  0  0  0  0
  191.5230  177.3610  144.0640 N   0  0  0  0  0  0  0  0  0  0  0  0
  190.1310  176.6280  147.2300 O   0  0  0  0  0  0  0  0  0  0  0  0
  190.5120  177.1160  146.1330 C   0  0  0  0  0  0  0  0  0  0  0  0
  189.3120  177.2870  140.1670 C   0  0  0  0  0  2  0  0  0  0  0  0
  188.8950  178.2000  139.0200 C   0  0  0  0  0  2  0  0  0  0  0  0
  187.3970  178.1200  138.7560 C   0  0  0  0  0  2  0  0  0  0  0  0
  185.6630  177.5380  134.7800 O   0  0  0  0  0  1  0  0  0  0  0  0
  187.5870  176.1120  134.9360 C   0  0  0  0  0  2  0  0  0  0  0  0
  186.2490  176.7130  136.9660 C   0  0  0  0  0  2  0  0  0  0  0  0
  186.1940  176.4420  135.4680 C   0  0  1  0  0  3  0  0  0  0  0  0
  188.3170  178.1860  136.3920 C   0  0  0  0  0  2  0  0  0  0  0  0
  187.0800  177.9660  137.2720 C   0  0  2  0  0  3  0  0  0  0  0  0
  188.7110  177.0280  135.4620 C   0  0  1  0  0  3  0  0  0  0  0  0
  189.9160  176.2590  135.9870 C   0  0  0  0  0  2  0  0  0  0  0  0
  189.5390  175.2630  136.8830 O   0  0  0  0  0  1  0  0  0  0  0  0
  179.6370  180.0750  137.7910 C   0  0  1  0  0  3  0  0  0  0  0  0
  179.6350  183.3960  136.2380 N   0  0  0  0  0  2  0  0  0  0  0  0
  179.2740  181.9940  136.1900 C   0  0  0  0  0  2  0  0  0  0  0  0
  180.1720  182.4470  138.2560 N   0  0  0  0  0  2  0  0  0  0  0  0
  180.0810  183.6650  137.5540 N   0  0  0  0  0  0  0  0  0  0  0  0
  181.4320  184.1990  137.4420 C   0  0  0  0  0  1  0  0  0  0  0  0
  179.2360  181.5520  137.6140 C   0  0  2  0  0  3  0  0  0  0  0  0
  179.7740  179.2310  136.5060 C   0  0  0  0  0  2  0  0  0  0  0  0
  179.1960  177.8160  136.5380 C   0  0  0  0  0  2  0  0  0  0  0  0
  182.5930  175.5970  136.6120 S   0  0  0  0  0  0  0  0  0  0  0  0
  180.8900  173.5600  137.3030 C   0  0  0  0  0  1  0  0  0  0  0  0
  180.2550  176.7570  136.4980 C   0  0  0  0  0  0  0  0  0  0  0  0
  179.9530  175.5320  136.2430 N   0  0  0  0  0  0  0  0  0  0  0  0
  181.0890  174.6160  136.2350 C   0  0  1  0  0  3  0  0  0  0  0  0
  181.5880  177.0070  136.7680 O   0  0  0  0  0  0  0  0  0  0  0  0
  1  9  2  0  0  0  0
  1  2  1  0  0  0  0
  2  7  2  0  0  0  0
  3  8  1  0  0  0  0
  5  3  2  0  0  0  0
  6 17  1  0  0  0  0
  6  4  2  0  0  0  0
  7  3  1  0  0  0  0
  7 15  1  0  0  0  0
  8 16  1  0  0  0  0
  9  5  1  0  0  0  0
 11 14  1  1  0  0  0
 11 12  1  0  0  0  0
 12 16  1  1  0  0  0
 12  6  1  0  0  0  0
 13 10  1  0  0  0  0
 13 17  2  0  0  0  0
 14 13  1  0  0  0  0
 15 11  1  0  0  0  0
 18 20  1  0  0  0  0
 18 10  1  0  0  0  0
 19 18  2  0  0  0  0
 21 20  1  0  0  0  0
 21 25  1  0  0  0  0
 22 23  1  0  0  0  0
 23 27  1  0  0  0  0
 24 27  1  0  0  0  0
 25 22  1  0  0  0  0
 25 24  1  0  0  0  0
 27 26  2  0  0  0  0
 28 19  1  0  0  0  0
 29 28  1  0  0  0  0
 30 29  1  0  0  0  0
 32 37  1  0  0  0  0
 32 34  1  0  0  0  0
 33 36  1  0  0  0  0
 34 31  1  6  0  0  0
 34 33  1  0  0  0  0
 35 36  1  0  0  0  0
 36 30  1  1  0  0  0
 37 38  1  1  0  0  0
 37 35  1  0  0  0  0
 38 39  1  0  0  0  0
 40 47  1  6  0  0  0
 40  9  1  0  0  0  0
 41 44  1  0  0  0  0
 42 41  1  0  0  0  0
 42 46  1  0  0  0  0
 44 43  1  0  0  0  0
 45 44  1  0  0  0  0
 46 40  1  6  0  0  0
 46 43  1  0  0  0  0
 47 48  1  0  0  0  0
 49 54  1  0  0  0  0
 51 48  1  0  0  0  0
 51 54  1  0  0  0  0
 52 51  2  0  0  0  0
 53 52  1  0  0  0  0
 53 49  1  0  0  0  0
 53 50  1  1  0  0  0
M  END
>  <MODEL>
5

>  <REMARK>
 VINA RESULT:      -7.6      3.241      7.574
  Name = 
  14 active torsions:
  status: ('A' for Active; 'I' for Inactive)
    1  A    between atoms: C_3  and  C_17
    2  A    between atoms: C_3  and  C_18
    3  A    between atoms: C_4  and  C_10
    4  A    between atoms: C_4  and  C_26
    5  A    between atoms: C_4  and  C_42
    6  A    between atoms: C_9  and  C_20
    7  A    between atoms: C_9  and  C_47
    8  A    between atoms: C_10  and  C_48
    9  A    between atoms: C_11  and  C_54
   10  A    between atoms: C_17  and  N_30
   11  A    between atoms: C_18  and  N_27
   12  A    between atoms: C_20  and  C_32
   13  A    between atoms: C_32  and  C_49
   14  A    between atoms: C_35  and  C_48
                            x       y       z     vdW  Elec       q    Type
                         _______ _______ _______ _____ _____    ______ ____

>  <TORSDO>
F 14

$$$$
=
 OpenBabel11062412083D

 54 60  0  0  1  0  0  0  0  0999 V2000
  186.8650  178.6140  141.1210 C   0  0  0  0  0  3  0  0  0  0  0  0
  187.6790  178.2460  140.0550 C   0  0  0  0  0  3  0  0  0  0  0  0
  189.2520  177.2350  141.6040 C   0  0  0  0  0  0  0  0  0  0  0  0
  194.3120  177.6630  140.2310 O   0  0  0  0  0  0  0  0  0  0  0  0
  188.4220  177.6020  142.6700 C   0  0  0  0  0  3  0  0  0  0  0  0
  193.3580  177.1090  139.6100 C   0  0  0  0  0  0  0  0  0  0  0  0
  188.8750  177.5600  140.2770 C   0  0  0  0  0  0  0  0  0  0  0  0
  190.4910  176.4630  141.9250 C   0  0  0  0  0  2  0  0  0  0  0  0
  187.2360  178.3050  142.4370 C   0  0  0  0  0  0  0  0  0  0  0  0
  193.1130  174.9130  136.6370 N   0  0  0  0  0  2  0  0  0  0  0  0
  190.9100  176.5930  139.1750 C   0  0  2  0  0  3  0  0  0  0  0  0
  191.9310  177.4190  139.9960 C   0  0  1  0  0  3  0  0  0  0  0  0
  192.7440  175.8070  137.6910 C   0  0  0  0  0  0  0  0  0  0  0  0
  191.3610  176.3960  137.7390 C   0  0  0  0  0  2  0  0  0  0  0  0
  189.6470  177.2460  139.1510 O   0  0  0  0  0  0  0  0  0  0  0  0
  191.7530  177.2280  141.5140 C   0  0  0  0  0  2  0  0  0  0  0  0
  193.6530  176.2140  138.5270 N   0  0  0  0  0  0  0  0  0  0  0  0
  192.1620  174.3780  135.7070 C   0  0  0  0  0  0  0  0  0  0  0  0
  191.0430  175.0720  135.4740 C   0  0  0  0  0  3  0  0  0  0  0  0
  192.4880  173.0900  134.9980 C   0  0  0  0  0  2  0  0  0  0  0  0
  193.0600  172.1020  136.0460 C   0  0  0  0  0  2  0  0  0  0  0  0
  195.2370  172.5000  134.9080 C   0  0  0  0  0  2  0  0  0  0  0  0
  196.3610  173.0660  135.5570 O   0  0  0  0  0  0  0  0  0  0  0  0
  195.1080  171.9730  137.2150 C   0  0  0  0  0  2  0  0  0  0  0  0
  194.4820  171.7170  135.9150 N   0  0  0  0  0  0  0  0  0  0  0  0
  197.1240  173.1880  137.7470 O   0  0  0  0  0  0  0  0  0  0  0  0
  196.2910  172.7800  136.8940 C   0  0  0  0  0  0  0  0  0  0  0  0
  189.9230  174.6070  134.5940 C   0  0  0  0  0  2  0  0  0  0  0  0
  188.7170  174.1610  135.4110 C   0  0  0  0  0  2  0  0  0  0  0  0
  187.4090  174.4740  134.6960 C   0  0  0  0  0  2  0  0  0  0  0  0
  186.7740  178.7010  135.6330 O   0  0  0  0  0  1  0  0  0  0  0  0
  185.5490  177.4190  137.2510 C   0  0  0  0  0  2  0  0  0  0  0  0
  187.6360  176.5240  136.1950 C   0  0  0  0  0  2  0  0  0  0  0  0
  186.9170  177.7780  136.6740 C   0  0  1  0  0  3  0  0  0  0  0  0
  185.3580  175.9140  135.0930 C   0  0  0  0  0  2  0  0  0  0  0  0
  186.8900  175.8690  135.0250 C   0  0  2  0  0  3  0  0  0  0  0  0
  184.7440  176.4020  136.4150 C   0  0  1  0  0  3  0  0  0  0  0  0
  184.1870  175.2510  137.2440 C   0  0  0  0  0  2  0  0  0  0  0  0
  185.1380  174.2550  137.4440 O   0  0  0  0  0  1  0  0  0  0  0  0
  186.3120  178.5950  143.5890 C   0  0  1  0  0  3  0  0  0  0  0  0
  183.0130  180.1490  143.9660 N   0  0  0  0  0  2  0  0  0  0  0  0
  184.4500  180.2140  144.1290 C   0  0  0  0  0  2  0  0  0  0  0  0
  183.9320  178.2950  142.9760 N   0  0  0  0  0  2  0  0  0  0  0  0
  182.7370  179.0170  143.1610 N   0  0  0  0  0  0  0  0  0  0  0  0
  181.8340  178.1650  143.9240 C   0  0  0  0  0  1  0  0  0  0  0  0
  185.0010  179.2580  143.1250 C   0  0  2  0  0  3  0  0  0  0  0  0
  186.1830  177.3110  144.4340 C   0  0  0  0  0  2  0  0  0  0  0  0
  186.0400  177.4830  145.9470 C   0  0  0  0  0  2  0  0  0  0  0  0
  189.1200  178.2540  148.4740 S   0  0  0  0  0  0  0  0  0  0  0  0
  190.4480  176.4080  146.9400 C   0  0  0  0  0  1  0  0  0  0  0  0
  187.3570  177.6810  146.6340 C   0  0  0  0  0  0  0  0  0  0  0  0
  188.4630  177.4560  146.0170 N   0  0  0  0  0  0  0  0  0  0  0  0
  189.6620  177.6960  146.8130 C   0  0  1  0  0  3  0  0  0  0  0  0
  187.4700  178.0690  147.9570 O   0  0  0  0  0  0  0  0  0  0  0  0
  1  9  1  0  0  0  0
  2  7  1  0  0  0  0
  2  1  2  0  0  0  0
  3  8  1  0  0  0  0
  3  5  1  0  0  0  0
  6 12  1  0  0  0  0
  6  4  2  0  0  0  0
  7  3  2  0  0  0  0
  9  5  2  0  0  0  0
  9 40  1  0  0  0  0
 10 13  1  0  0  0  0
 11 14  1  6  0  0  0
 11 12  1  0  0  0  0
 12 16  1  1  0  0  0
 13 14  1  0  0  0  0
 13 17  2  0  0  0  0
 15 11  1  0  0  0  0
 15  7  1  0  0  0  0
 16  8  1  0  0  0  0
 17  6  1  0  0  0  0
 18 10  1  0  0  0  0
 19 18  2  0  0  0  0
 20 18  1  0  0  0  0
 20 21  1  0  0  0  0
 22 23  1  0  0  0  0
 22 25  1  0  0  0  0
 23 27  1  0  0  0  0
 25 21  1  0  0  0  0
 25 24  1  0  0  0  0
 27 24  1  0  0  0  0
 27 26  2  0  0  0  0
 28 29  1  0  0  0  0
 28 19  1  0  0  0  0
 30 29  1  0  0  0  0
 33 34  1  0  0  0  0
 34 31  1  6  0  0  0
 34 32  1  0  0  0  0
 35 37  1  0  0  0  0
 36 30  1  1  0  0  0
 36 35  1  0  0  0  0
 36 33  1  0  0  0  0
 37 38  1  1  0  0  0
 37 32  1  0  0  0  0
 38 39  1  0  0  0  0
 40 47  1  6  0  0  0
 41 42  1  0  0  0  0
 43 46  1  0  0  0  0
 43 44  1  0  0  0  0
 44 45  1  0  0  0  0
 44 41  1  0  0  0  0
 46 40  1  1  0  0  0
 46 42  1  0  0  0  0
 47 48  1  0  0  0  0
 48 51  1  0  0  0  0
 51 54  1  0  0  0  0
 52 51  2  0  0  0  0
 52 53  1  0  0  0  0
 53 50  1  1  0  0  0
 53 49  1  0  0  0  0
 54 49  1  0  0  0  0
M  END
>  <MODEL>
6

>  <REMARK>
 VINA RESULT:      -7.4      2.931      4.801
  Name = 
  14 active torsions:
  status: ('A' for Active; 'I' for Inactive)
    1  A    between atoms: C_3  and  C_17
    2  A    between atoms: C_3  and  C_18
    3  A    between atoms: C_4  and  C_10
    4  A    between atoms: C_4  and  C_26
    5  A    between atoms: C_4  and  C_42
    6  A    between atoms: C_9  and  C_20
    7  A    between atoms: C_9  and  C_47
    8  A    between atoms: C_10  and  C_48
    9  A    between atoms: C_11  and  C_54
   10  A    between atoms: C_17  and  N_30
   11  A    between atoms: C_18  and  N_27
   12  A    between atoms: C_20  and  C_32
   13  A    between atoms: C_32  and  C_49
   14  A    between atoms: C_35  and  C_48
                            x       y       z     vdW  Elec       q    Type
                         _______ _______ _______ _____ _____    ______ ____

>  <TORSDO>
F 14

$$$$
=
 OpenBabel11062412083D

 54 60  0  0  1  0  0  0  0  0999 V2000
  185.0120  178.8670  142.6230 C   0  0  0  0  0  3  0  0  0  0  0  0
  185.9520  178.7110  141.6090 C   0  0  0  0  0  3  0  0  0  0  0  0
  187.3100  177.3340  143.0770 C   0  0  0  0  0  0  0  0  0  0  0  0
  192.5050  177.8750  142.4570 O   0  0  0  0  0  0  0  0  0  0  0  0
  186.3540  177.4880  144.0890 C   0  0  0  0  0  3  0  0  0  0  0  0
  191.6330  177.5020  141.6180 C   0  0  0  0  0  0  0  0  0  0  0  0
  187.1050  177.9530  141.8180 C   0  0  0  0  0  0  0  0  0  0  0  0
  188.4930  176.4680  143.3680 C   0  0  0  0  0  2  0  0  0  0  0  0
  185.2120  178.2660  143.8730 C   0  0  0  0  0  0  0  0  0  0  0  0
  191.7510  176.0160  138.2290 N   0  0  0  0  0  2  0  0  0  0  0  0
  189.2570  177.1790  140.7870 C   0  0  2  0  0  3  0  0  0  0  0  0
  190.1710  177.7710  141.8870 C   0  0  1  0  0  3  0  0  0  0  0  0
  191.2570  176.6710  139.4000 C   0  0  0  0  0  0  0  0  0  0  0  0
  189.8830  177.2830  139.4080 C   0  0  0  0  0  2  0  0  0  0  0  0
  188.0110  177.8650  140.7530 O   0  0  0  0  0  0  0  0  0  0  0  0
  189.8020  177.2600  143.2920 C   0  0  0  0  0  2  0  0  0  0  0  0
  192.0560  176.8550  140.4090 N   0  0  0  0  0  0  0  0  0  0  0  0
  190.9210  175.7290  137.0950 C   0  0  0  0  0  0  0  0  0  0  0  0
  190.2050  174.5990  137.1010 C   0  0  0  0  0  3  0  0  0  0  0  0
  190.8530  176.7340  135.9750 C   0  0  0  0  0  2  0  0  0  0  0  0
  189.3770  177.1860  135.8310 C   0  0  0  0  0  2  0  0  0  0  0  0
  188.4640  179.2650  136.8490 C   0  0  0  0  0  2  0  0  0  0  0  0
  187.0840  179.4680  137.0950 O   0  0  0  0  0  0  0  0  0  0  0  0
  187.4500  177.1510  137.1950 C   0  0  0  0  0  2  0  0  0  0  0  0
  188.7410  177.8180  137.0070 N   0  0  0  0  0  0  0  0  0  0  0  0
  185.2480  178.0980  137.4760 O   0  0  0  0  0  0  0  0  0  0  0  0
  186.4840  178.2530  137.2830 C   0  0  0  0  0  0  0  0  0  0  0  0
  189.3570  174.1250  135.9600 C   0  0  0  0  0  2  0  0  0  0  0  0
  187.9350  173.8140  136.4130 C   0  0  0  0  0  2  0  0  0  0  0  0
  187.7730  172.3450  136.7810 C   0  0  0  0  0  2  0  0  0  0  0  0
  183.9450  170.4200  135.8920 O   0  0  0  0  0  1  0  0  0  0  0  0
  183.6320  172.7870  135.6350 C   0  0  0  0  0  2  0  0  0  0  0  0
  185.8590  171.7180  135.2180 C   0  0  0  0  0  2  0  0  0  0  0  0
  184.3490  171.5300  135.1430 C   0  0  1  0  0  3  0  0  0  0  0  0
  185.3920  172.6710  137.5950 C   0  0  0  0  0  2  0  0  0  0  0  0
  186.3250  171.8790  136.6710 C   0  0  2  0  0  3  0  0  0  0  0  0
  184.2180  173.4000  136.9230 C   0  0  1  0  0  3  0  0  0  0  0  0
  184.4640  174.9000  136.8150 C   0  0  0  0  0  2  0  0  0  0  0  0
  184.8680  175.2630  135.5340 O   0  0  0  0  0  1  0  0  0  0  0  0
  184.1520  178.3300  144.9400 C   0  0  1  0  0  3  0  0  0  0  0  0
  186.6570  179.5120  147.3430 N   0  0  0  0  0  2  0  0  0  0  0  0
  185.6670  179.8010  146.3260 C   0  0  0  0  0  2  0  0  0  0  0  0
  185.5990  177.5530  146.7940 N   0  0  0  0  0  2  0  0  0  0  0  0
  186.5140  178.1450  147.6850 N   0  0  0  0  0  0  0  0  0  0  0  0
  187.8070  177.5150  147.4560 C   0  0  0  0  0  1  0  0  0  0  0  0
  184.7490  178.6260  146.3300 C   0  0  2  0  0  3  0  0  0  0  0  0
  183.0340  179.2720  144.4470 C   0  0  0  0  0  2  0  0  0  0  0  0
  181.7090  178.6270  144.0400 C   0  0  0  0  0  2  0  0  0  0  0  0
  180.0540  180.3520  140.7620 S   0  0  0  0  0  0  0  0  0  0  0  0
  182.2790  179.3710  139.4920 C   0  0  0  0  0  1  0  0  0  0  0  0
  181.2580  179.0410  142.6730 C   0  0  0  0  0  0  0  0  0  0  0  0
  181.6540  178.4030  141.6270 N   0  0  0  0  0  0  0  0  0  0  0  0
  181.1290  178.9190  140.3680 C   0  0  1  0  0  3  0  0  0  0  0  0
  180.4430  180.1330  142.4420 O   0  0  0  0  0  0  0  0  0  0  0  0
  1  9  1  0  0  0  0
  2  7  1  0  0  0  0
  2  1  2  0  0  0  0
  3  8  1  0  0  0  0
  3  5  1  0  0  0  0
  6 12  1  0  0  0  0
  6  4  2  0  0  0  0
  7  3  2  0  0  0  0
  9  5  2  0  0  0  0
  9 40  1  0  0  0  0
 10 13  1  0  0  0  0
 11 14  1  6  0  0  0
 11 12  1  0  0  0  0
 12 16  1  1  0  0  0
 13 14  1  0  0  0  0
 13 17  2  0  0  0  0
 15 11  1  0  0  0  0
 15  7  1  0  0  0  0
 16  8  1  0  0  0  0
 17  6  1  0  0  0  0
 18 19  2  0  0  0  0
 18 10  1  0  0  0  0
 20 18  1  0  0  0  0
 21 20  1  0  0  0  0
 21 25  1  0  0  0  0
 22 25  1  0  0  0  0
 22 23  1  0  0  0  0
 23 27  1  0  0  0  0
 24 27  1  0  0  0  0
 25 24  1  0  0  0  0
 27 26  2  0  0  0  0
 28 29  1  0  0  0  0
 28 19  1  0  0  0  0
 29 30  1  0  0  0  0
 32 37  1  0  0  0  0
 33 36  1  0  0  0  0
 34 33  1  0  0  0  0
 34 32  1  0  0  0  0
 34 31  1  1  0  0  0
 36 30  1  6  0  0  0
 36 35  1  0  0  0  0
 37 38  1  6  0  0  0
 37 35  1  0  0  0  0
 39 38  1  0  0  0  0
 40 47  1  6  0  0  0
 41 44  1  0  0  0  0
 42 46  1  0  0  0  0
 42 41  1  0  0  0  0
 43 44  1  0  0  0  0
 45 44  1  0  0  0  0
 46 40  1  6  0  0  0
 46 43  1  0  0  0  0
 48 47  1  0  0  0  0
 49 54  1  0  0  0  0
 51 48  1  0  0  0  0
 52 51  2  0  0  0  0
 53 50  1  6  0  0  0
 53 49  1  0  0  0  0
 53 52  1  0  0  0  0
 54 51  1  0  0  0  0
M  END
>  <MODEL>
7

>  <REMARK>
 VINA RESULT:      -7.2      2.055      3.591
  Name = 
  14 active torsions:
  status: ('A' for Active; 'I' for Inactive)
    1  A    between atoms: C_3  and  C_17
    2  A    between atoms: C_3  and  C_18
    3  A    between atoms: C_4  and  C_10
    4  A    between atoms: C_4  and  C_26
    5  A    between atoms: C_4  and  C_42
    6  A    between atoms: C_9  and  C_20
    7  A    between atoms: C_9  and  C_47
    8  A    between atoms: C_10  and  C_48
    9  A    between atoms: C_11  and  C_54
   10  A    between atoms: C_17  and  N_30
   11  A    between atoms: C_18  and  N_27
   12  A    between atoms: C_20  and  C_32
   13  A    between atoms: C_32  and  C_49
   14  A    between atoms: C_35  and  C_48
                            x       y       z     vdW  Elec       q    Type
                         _______ _______ _______ _____ _____    ______ ____

>  <TORSDO>
F 14

$$$$
=
 OpenBabel11062412083D

 54 60  0  0  1  0  0  0  0  0999 V2000
  185.4030  177.8230  137.3050 C   0  0  0  0  0  3  0  0  0  0  0  0
  185.5160  178.2540  138.6230 C   0  0  0  0  0  3  0  0  0  0  0  0
  183.3670  177.2480  139.1390 C   0  0  0  0  0  0  0  0  0  0  0  0
  180.4620  179.8820  142.6440 O   0  0  0  0  0  0  0  0  0  0  0  0
  183.2660  176.8100  137.8130 C   0  0  0  0  0  3  0  0  0  0  0  0
  181.6160  179.3780  142.7780 C   0  0  0  0  0  0  0  0  0  0  0  0
  184.5100  177.9790  139.5510 C   0  0  0  0  0  0  0  0  0  0  0  0
  182.2680  176.8720  140.0790 C   0  0  0  0  0  2  0  0  0  0  0  0
  184.2720  177.1070  136.8880 C   0  0  0  0  0  0  0  0  0  0  0  0
  183.8760  178.7740  145.6490 N   0  0  0  0  0  2  0  0  0  0  0  0
  183.7630  178.3300  141.9200 C   0  0  2  0  0  3  0  0  0  0  0  0
  182.4130  178.9950  141.5530 C   0  0  1  0  0  3  0  0  0  0  0  0
  183.4100  178.9330  144.3060 C   0  0  0  0  0  0  0  0  0  0  0  0
  184.3840  178.9470  143.1600 C   0  0  0  0  0  2  0  0  0  0  0  0
  184.6910  178.4690  140.8510 O   0  0  0  0  0  0  0  0  0  0  0  0
  181.5530  178.1080  140.6340 C   0  0  0  0  0  2  0  0  0  0  0  0
  182.1560  179.2050  144.0960 N   0  0  0  0  0  0  0  0  0  0  0  0
  185.2300  178.4230  145.9610 C   0  0  0  0  0  0  0  0  0  0  0  0
  186.1330  178.4300  144.9740 C   0  0  0  0  0  3  0  0  0  0  0  0
  185.5870  178.1140  147.3920 C   0  0  0  0  0  2  0  0  0  0  0  0
  186.9820  178.7260  147.6770 C   0  0  0  0  0  2  0  0  0  0  0  0
  188.0440  176.4980  148.0040 C   0  0  0  0  0  2  0  0  0  0  0  0
  189.4060  176.2380  147.7200 O   0  0  0  0  0  0  0  0  0  0  0  0
  189.2590  178.5160  148.2700 C   0  0  0  0  0  2  0  0  0  0  0  0
  187.9390  177.9070  148.4530 N   0  0  0  0  0  0  0  0  0  0  0  0
  191.3510  177.5030  147.6230 O   0  0  0  0  0  0  0  0  0  0  0  0
  190.1170  177.3990  147.8560 C   0  0  0  0  0  0  0  0  0  0  0  0
  187.5630  178.0120  145.1270 C   0  0  0  0  0  2  0  0  0  0  0  0
  187.9210  176.8820  144.1680 C   0  0  0  0  0  2  0  0  0  0  0  0
  187.5510  177.2290  142.7320 C   0  0  0  0  0  2  0  0  0  0  0  0
  190.6770  177.8780  139.7390 O   0  0  0  0  0  1  0  0  0  0  0  0
  191.7660  177.2650  141.7890 C   0  0  0  0  0  2  0  0  0  0  0  0
  189.4650  176.4390  141.2440 C   0  0  0  0  0  2  0  0  0  0  0  0
  190.8160  176.8420  140.6690 C   0  0  1  0  0  3  0  0  0  0  0  0
  189.6730  178.6160  142.6560 C   0  0  0  0  0  2  0  0  0  0  0  0
  188.7660  177.6350  141.9040 C   0  0  2  0  0  3  0  0  0  0  0  0
  191.1350  178.1830  142.8560 C   0  0  1  0  0  3  0  0  0  0  0  0
  191.4020  177.7170  144.2820 C   0  0  0  0  0  2  0  0  0  0  0  0
  191.6580  176.3510  144.3360 O   0  0  0  0  0  1  0  0  0  0  0  0
  184.1870  176.5370  135.4980 C   0  0  1  0  0  3  0  0  0  0  0  0
  187.0750  174.4220  136.2900 N   0  0  0  0  0  2  0  0  0  0  0  0
  185.6790  174.7530  136.4840 C   0  0  0  0  0  2  0  0  0  0  0  0
  186.5130  176.0640  134.7920 N   0  0  0  0  0  2  0  0  0  0  0  0
  187.5280  175.1660  135.1740 N   0  0  0  0  0  0  0  0  0  0  0  0
  188.6600  175.9620  135.6270 C   0  0  0  0  0  1  0  0  0  0  0  0
  185.2730  175.4740  135.2430 C   0  0  2  0  0  3  0  0  0  0  0  0
  182.7260  176.1140  135.2420 C   0  0  0  0  0  2  0  0  0  0  0  0
  182.4760  174.6480  134.8870 C   0  0  0  0  0  2  0  0  0  0  0  0
  180.1060  173.4820  137.9680 S   0  0  0  0  0  0  0  0  0  0  0  0
  179.7760  171.2130  136.4620 C   0  0  0  0  0  1  0  0  0  0  0  0
  181.6810  173.9260  135.9320 C   0  0  0  0  0  0  0  0  0  0  0  0
  181.6810  172.6400  135.9880 N   0  0  0  0  0  0  0  0  0  0  0  0
  180.8650  172.0800  137.0600 C   0  0  1  0  0  3  0  0  0  0  0  0
  180.8810  174.5720  136.8560 O   0  0  0  0  0  0  0  0  0  0  0  0
  1  2  1  0  0  0  0
  2  7  2  0  0  0  0
  3  7  1  0  0  0  0
  3  8  1  0  0  0  0
  4  6  2  0  0  0  0
  5  3  2  0  0  0  0
  6 17  1  0  0  0  0
  7 15  1  0  0  0  0
  8 16  1  0  0  0  0
  9  1  2  0  0  0  0
  9  5  1  0  0  0  0
 10 18  1  0  0  0  0
 11 14  1  1  0  0  0
 12 16  1  6  0  0  0
 12 11  1  0  0  0  0
 12  6  1  0  0  0  0
 13 10  1  0  0  0  0
 14 13  1  0  0  0  0
 15 11  1  0  0  0  0
 17 13  2  0  0  0  0
 18 20  1  0  0  0  0
 19 28  1  0  0  0  0
 19 18  2  0  0  0  0
 20 21  1  0  0  0  0
 21 25  1  0  0  0  0
 22 25  1  0  0  0  0
 23 27  1  0  0  0  0
 23 22  1  0  0  0  0
 24 25  1  0  0  0  0
 26 27  2  0  0  0  0
 27 24  1  0  0  0  0
 29 28  1  0  0  0  0
 30 29  1  0  0  0  0
 32 37  1  0  0  0  0
 33 36  1  0  0  0  0
 34 31  1  6  0  0  0
 34 33  1  0  0  0  0
 34 32  1  0  0  0  0
 35 37  1  0  0  0  0
 36 35  1  0  0  0  0
 36 30  1  1  0  0  0
 37 38  1  1  0  0  0
 38 39  1  0  0  0  0
 40 47  1  1  0  0  0
 40  9  1  0  0  0  0
 41 42  1  0  0  0  0
 43 44  1  0  0  0  0
 43 46  1  0  0  0  0
 44 45  1  0  0  0  0
 44 41  1  0  0  0  0
 46 40  1  1  0  0  0
 46 42  1  0  0  0  0
 48 47  1  0  0  0  0
 48 51  1  0  0  0  0
 51 52  2  0  0  0  0
 51 54  1  0  0  0  0
 52 53  1  0  0  0  0
 53 50  1  6  0  0  0
 53 49  1  0  0  0  0
 54 49  1  0  0  0  0
M  END
>  <MODEL>
8

>  <REMARK>
 VINA RESULT:      -7.1      3.016      9.608
  Name = 
  14 active torsions:
  status: ('A' for Active; 'I' for Inactive)
    1  A    between atoms: C_3  and  C_17
    2  A    between atoms: C_3  and  C_18
    3  A    between atoms: C_4  and  C_10
    4  A    between atoms: C_4  and  C_26
    5  A    between atoms: C_4  and  C_42
    6  A    between atoms: C_9  and  C_20
    7  A    between atoms: C_9  and  C_47
    8  A    between atoms: C_10  and  C_48
    9  A    between atoms: C_11  and  C_54
   10  A    between atoms: C_17  and  N_30
   11  A    between atoms: C_18  and  N_27
   12  A    between atoms: C_20  and  C_32
   13  A    between atoms: C_32  and  C_49
   14  A    between atoms: C_35  and  C_48
                            x       y       z     vdW  Elec       q    Type
                         _______ _______ _______ _____ _____    ______ ____

>  <TORSDO>
F 14

$$$$
=
 OpenBabel11062412083D

 54 60  0  0  1  0  0  0  0  0999 V2000
  184.8320  179.0900  142.2530 C   0  0  0  0  0  3  0  0  0  0  0  0
  185.8440  178.9200  141.3140 C   0  0  0  0  0  3  0  0  0  0  0  0
  187.0430  177.4880  142.8660 C   0  0  0  0  0  0  0  0  0  0  0  0
  192.2850  177.8890  142.6650 O   0  0  0  0  0  0  0  0  0  0  0  0
  186.0150  177.6580  143.8010 C   0  0  0  0  0  3  0  0  0  0  0  0
  191.4720  177.5510  141.7550 C   0  0  0  0  0  0  0  0  0  0  0  0
  186.9560  178.1260  141.6030 C   0  0  0  0  0  0  0  0  0  0  0  0
  188.1760  176.5860  143.2370 C   0  0  0  0  0  2  0  0  0  0  0  0
  184.9160  178.4690  143.5070 C   0  0  0  0  0  0  0  0  0  0  0  0
  191.8170  176.1000  138.3650 N   0  0  0  0  0  2  0  0  0  0  0  0
  189.1610  177.3040  140.7340 C   0  0  2  0  0  3  0  0  0  0  0  0
  190.0010  177.8570  141.9110 C   0  0  1  0  0  3  0  0  0  0  0  0
  191.2500  176.7560  139.5030 C   0  0  0  0  0  0  0  0  0  0  0  0
  189.8970  177.4060  139.4100 C   0  0  0  0  0  2  0  0  0  0  0  0
  187.9410  178.0250  140.6120 O   0  0  0  0  0  0  0  0  0  0  0  0
  189.5080  177.3410  143.2760 C   0  0  0  0  0  2  0  0  0  0  0  0
  191.9720  176.9050  140.5740 N   0  0  0  0  0  0  0  0  0  0  0  0
  191.0720  175.8500  137.1660 C   0  0  0  0  0  0  0  0  0  0  0  0
  189.9150  175.1870  137.2630 C   0  0  0  0  0  3  0  0  0  0  0  0
  191.5980  176.3880  135.8610 C   0  0  0  0  0  2  0  0  0  0  0  0
  192.6090  175.3590  135.2950 C   0  0  0  0  0  2  0  0  0  0  0  0
  194.3100  173.6120  135.7920 C   0  0  0  0  0  2  0  0  0  0  0  0
  195.7050  173.8330  135.6840 O   0  0  0  0  0  0  0  0  0  0  0  0
  194.7310  175.9130  136.1700 C   0  0  0  0  0  2  0  0  0  0  0  0
  193.6820  174.8910  136.1990 N   0  0  0  0  0  0  0  0  0  0  0  0
  197.1060  175.6800  135.8080 O   0  0  0  0  0  0  0  0  0  0  0  0
  195.9600  175.1610  135.8870 C   0  0  0  0  0  0  0  0  0  0  0  0
  189.0660  174.7820  136.0960 C   0  0  0  0  0  2  0  0  0  0  0  0
  187.7190  174.2320  136.5490 C   0  0  0  0  0  2  0  0  0  0  0  0
  187.1430  173.2550  135.5320 C   0  0  0  0  0  2  0  0  0  0  0  0
  183.8200  170.5390  136.3900 O   0  0  0  0  0  1  0  0  0  0  0  0
  183.0170  172.7770  136.7180 C   0  0  0  0  0  2  0  0  0  0  0  0
  184.8330  172.2790  135.0680 C   0  0  0  0  0  2  0  0  0  0  0  0
  183.5700  171.7480  135.7340 C   0  0  1  0  0  3  0  0  0  0  0  0
  185.5350  172.9770  137.4750 C   0  0  0  0  0  2  0  0  0  0  0  0
  185.9600  172.4710  136.0910 C   0  0  2  0  0  3  0  0  0  0  0  0
  184.0780  173.4460  137.6160 C   0  0  1  0  0  3  0  0  0  0  0  0
  183.9680  174.9650  137.6460 C   0  0  0  0  0  2  0  0  0  0  0  0
  182.7320  175.3800  138.1340 O   0  0  0  0  0  1  0  0  0  0  0  0
  183.7770  178.5520  144.4880 C   0  0  1  0  0  3  0  0  0  0  0  0
  186.1250  179.8520  146.9850 N   0  0  0  0  0  2  0  0  0  0  0  0
  185.3000  180.0680  145.8150 C   0  0  0  0  0  2  0  0  0  0  0  0
  184.8970  177.9510  146.6130 N   0  0  0  0  0  2  0  0  0  0  0  0
  185.7740  178.5860  147.5140 N   0  0  0  0  0  0  0  0  0  0  0  0
  186.9950  177.7930  147.5570 C   0  0  0  0  0  1  0  0  0  0  0  0
  184.2460  179.0140  145.8800 C   0  0  2  0  0  3  0  0  0  0  0  0
  182.6380  179.3610  143.8320 C   0  0  0  0  0  2  0  0  0  0  0  0
  181.3040  178.6440  143.6260 C   0  0  0  0  0  2  0  0  0  0  0  0
  179.0500  181.1190  141.3330 S   0  0  0  0  0  0  0  0  0  0  0  0
  179.8750  179.4870  139.2880 C   0  0  0  0  0  1  0  0  0  0  0  0
  180.4450  179.3040  142.5910 C   0  0  0  0  0  0  0  0  0  0  0  0
  180.0340  178.6520  141.5610 N   0  0  0  0  0  0  0  0  0  0  0  0
  179.2030  179.4260  140.6440 C   0  0  1  0  0  3  0  0  0  0  0  0
  180.0790  180.6370  142.6490 O   0  0  0  0  0  0  0  0  0  0  0  0
  1  9  1  0  0  0  0
  2  7  1  0  0  0  0
  2  1  2  0  0  0  0
  3  8  1  0  0  0  0
  3  5  1  0  0  0  0
  6 12  1  0  0  0  0
  6  4  2  0  0  0  0
  7  3  2  0  0  0  0
  8 16  1  0  0  0  0
  9  5  2  0  0  0  0
  9 40  1  0  0  0  0
 10 13  1  0  0  0  0
 11 14  1  6  0  0  0
 11 12  1  0  0  0  0
 12 16  1  1  0  0  0
 13 17  2  0  0  0  0
 14 13  1  0  0  0  0
 15 11  1  0  0  0  0
 15  7  1  0  0  0  0
 17  6  1  0  0  0  0
 18 19  2  0  0  0  0
 18 10  1  0  0  0  0
 20 18  1  0  0  0  0
 21 20  1  0  0  0  0
 21 25  1  0  0  0  0
 22 25  1  0  0  0  0
 23 22  1  0  0  0  0
 23 27  1  0  0  0  0
 24 25  1  0  0  0  0
 26 27  2  0  0  0  0
 27 24  1  0  0  0  0
 28 29  1  0  0  0  0
 28 19  1  0  0  0  0
 30 29  1  0  0  0  0
 32 37  1  0  0  0  0
 33 34  1  0  0  0  0
 33 36  1  0  0  0  0
 34 31  1  1  0  0  0
 34 32  1  0  0  0  0
 35 37  1  0  0  0  0
 36 30  1  6  0  0  0
 36 35  1  0  0  0  0
 37 38  1  6  0  0  0
 38 39  1  0  0  0  0
 40 47  1  6  0  0  0
 41 44  1  0  0  0  0
 42 46  1  0  0  0  0
 42 41  1  0  0  0  0
 43 44  1  0  0  0  0
 44 45  1  0  0  0  0
 46 40  1  6  0  0  0
 46 43  1  0  0  0  0
 48 47  1  0  0  0  0
 49 54  1  0  0  0  0
 51 54  1  0  0  0  0
 51 48  1  0  0  0  0
 52 51  2  0  0  0  0
 53 50  1  6  0  0  0
 53 49  1  0  0  0  0
 53 52  1  0  0  0  0
M  END
>  <MODEL>
9

>  <REMARK>
 VINA RESULT:      -7.1      1.695      2.216
  Name = 
  14 active torsions:
  status: ('A' for Active; 'I' for Inactive)
    1  A    between atoms: C_3  and  C_17
    2  A    between atoms: C_3  and  C_18
    3  A    between atoms: C_4  and  C_10
    4  A    between atoms: C_4  and  C_26
    5  A    between atoms: C_4  and  C_42
    6  A    between atoms: C_9  and  C_20
    7  A    between atoms: C_9  and  C_47
    8  A    between atoms: C_10  and  C_48
    9  A    between atoms: C_11  and  C_54
   10  A    between atoms: C_17  and  N_30
   11  A    between atoms: C_18  and  N_27
   12  A    between atoms: C_20  and  C_32
   13  A    between atoms: C_32  and  C_49
   14  A    between atoms: C_35  and  C_48
                            x       y       z     vdW  Elec       q    Type
                         _______ _______ _______ _____ _____    ______ ____

>  <TORSDO>
F 14

$$$$
