=
 OpenBabel11062414183D

 45 48  0  0  1  0  0  0  0  0999 V2000
  182.8000  177.3880  137.4330 C   0  0  0  0  0  1  0  0  0  0  0  0
  187.9620  175.6920  135.4220 C   0  0  0  0  0  1  0  0  0  0  0  0
  183.0140  179.0900  139.2210 C   0  0  2  0  0  3  0  0  0  0  0  0
  190.9950  177.5880  140.9450 C   0  0  0  0  0  2  0  0  0  0  0  0
  188.9800  176.3850  137.4480 O   0  0  0  0  0  0  0  0  0  0  0  0
  187.9880  176.7250  136.5280 C   0  0  2  0  0  3  0  0  0  0  0  0
  189.3480  178.2070  142.5000 C   0  0  0  0  0  2  0  0  0  0  0  0
  185.1660  178.7240  139.8060 C   0  0  2  0  0  3  0  0  0  0  0  0
  185.9000  177.9130  140.8610 C   0  0  0  0  0  2  0  0  0  0  0  0
  183.9250  179.1650  140.2960 O   0  0  0  0  0  0  0  0  0  0  0  0
  187.9730  178.7900  140.0470 O   0  0  0  0  0  1  0  0  0  0  0  0
  187.2360  178.5540  141.2100 C   0  0  2  0  0  3  0  0  0  0  0  0
  188.0060  177.6090  142.1150 C   0  0  0  0  0  2  0  0  0  0  0  0
  184.9260  177.8800  138.5810 C   0  0  1  0  0  3  0  0  0  0  0  0
  183.6830  178.4770  138.0110 C   0  0  1  0  0  3  0  0  0  0  0  0
  186.0800  177.9540  137.6300 C   0  0  0  0  0  0  0  0  0  0  0  0
  189.7500  177.5410  137.6070 C   0  0  0  0  0  2  0  0  0  0  0  0
  190.8690  177.3170  138.6210 C   0  0  1  0  0  3  0  0  0  0  0  0
  186.6970  176.7420  137.1960 N   0  0  0  0  0  2  0  0  0  0  0  0
  190.4090  177.2480  142.2330 N   0  0  0  0  0  2  0  0  0  0  0  0
  186.5140  179.0710  137.2320 O   0  0  0  0  0  0  0  0  0  0  0  0
  190.3310  176.8410  139.8880 N   0  0  0  0  0  2  0  0  0  0  0  0
  193.1760  173.1610  137.2240 C   0  0  0  0  0  1  0  0  0  0  0  0
  192.8900  174.5920  137.5090 C   0  0  0  0  0  0  0  0  0  0  0  0
  193.1010  176.7500  137.7210 O   0  0  0  0  0  0  0  0  0  0  0  0
  191.7150  175.0320  137.9960 N   0  0  0  0  0  0  0  0  0  0  0  0
  193.7360  175.6700  137.3460 C   0  0  0  0  0  0  0  0  0  0  0  0
  191.9030  176.3680  138.1030 C   0  0  0  0  0  0  0  0  0  0  0  0
  195.0830  175.6760  136.8620 N   0  0  0  0  0  2  0  0  0  0  0  0
  195.4420  175.4360  135.4730 C   0  0  0  0  0  2  0  0  0  0  0  0
  195.7220  177.8670  135.0110 C   0  0  0  0  0  1  0  0  0  0  0  0
  196.4010  176.5080  134.9920 C   0  0  0  0  0  2  0  0  0  0  0  0
  182.5200  180.4180  138.8940 N   0  0  0  0  0  2  0  0  0  0  0  0
  180.4310  181.2670  140.2790 O   0  0  0  0  0  0  0  0  0  0  0  0
  180.7990  180.4090  139.1010 S   0  0  0  0  0  0  0  0  0  0  0  0
  180.1430  180.9680  137.8700 O   0  0  0  0  0  0  0  0  0  0  0  0
  179.6250  178.0700  138.3090 C   0  0  0  0  0  3  0  0  0  0  0  0
  180.2360  178.7660  139.3570 C   0  0  0  0  0  0  0  0  0  0  0  0
  179.3760  176.1260  139.7400 C   0  0  0  0  0  0  0  0  0  0  0  0
  179.9940  176.8220  140.7840 C   0  0  0  0  0  3  0  0  0  0  0  0
  179.1940  176.7540  138.4990 C   0  0  0  0  0  3  0  0  0  0  0  0
  180.4240  178.1370  140.5940 C   0  0  0  0  0  3  0  0  0  0  0  0
  179.5710  173.8220  139.0130 N   0  0  0  0  0  1  0  0  0  0  0  0
  178.9310  174.7160  139.9650 C   0  0  1  0  0  3  0  0  0  0  0  0
  179.2430  174.2710  141.3820 C   0  0  0  0  0  1  0  0  0  0  0  0
  3 33  1  6  0  0  0
  3 10  1  0  0  0  0
  4 20  1  0  0  0  0
  5 17  1  0  0  0  0
  6  2  1  6  0  0  0
  6 19  1  0  0  0  0
  6  5  1  0  0  0  0
  8 10  1  0  0  0  0
  8  9  1  1  0  0  0
  9 12  1  0  0  0  0
 12 11  1  6  0  0  0
 12 13  1  0  0  0  0
 13  7  1  0  0  0  0
 14 16  1  6  0  0  0
 14  8  1  0  0  0  0
 15  1  1  1  0  0  0
 15 14  1  0  0  0  0
 15  3  1  0  0  0  0
 17 18  1  0  0  0  0
 18 28  1  6  0  0  0
 18 22  1  0  0  0  0
 19 16  1  0  0  0  0
 20  7  1  0  0  0  0
 21 16  2  0  0  0  0
 22  4  1  0  0  0  0
 23 24  1  0  0  0  0
 24 26  1  0  0  0  0
 25 28  1  0  0  0  0
 26 28  2  0  0  0  0
 27 24  2  0  0  0  0
 27 25  1  0  0  0  0
 29 27  1  0  0  0  0
 30 29  1  0  0  0  0
 32 31  1  0  0  0  0
 32 30  1  0  0  0  0
 33 35  1  0  0  0  0
 35 38  1  0  0  0  0
 35 34  2  0  0  0  0
 36 35  2  0  0  0  0
 37 41  2  0  0  0  0
 37 38  1  0  0  0  0
 38 42  2  0  0  0  0
 39 44  1  0  0  0  0
 39 40  2  0  0  0  0
 41 39  1  0  0  0  0
 42 40  1  0  0  0  0
 43 44  1  0  0  0  0
 44 45  1  1  0  0  0
M  END
>  <MODEL>
1

>  <REMARK>
 VINA RESULT:      -7.0      0.000      0.000
  Name = 
  8 active torsions:
  status: ('A' for Active; 'I' for Inactive)
    1  A    between atoms: C_4  and  N_34
    2  A    between atoms: C_8  and  S_24
    3  A    between atoms: C_12  and  C_13
    4  A    between atoms: N_17  and  C_30
    5  A    between atoms: N_17  and  C_40
    6  A    between atoms: C_21  and  C_30
    7  A    between atoms: S_24  and  N_34
    8  A    between atoms: C_33  and  C_45
                            x       y       z     vdW  Elec       q    Type
                         _______ _______ _______ _____ _____    ______ ____

>  <TORSDO>
F 8

$$$$
=
 OpenBabel11062414183D

 45 48  0  0  1  0  0  0  0  0999 V2000
  183.4140  177.3430  137.5280 C   0  0  0  0  0  1  0  0  0  0  0  0
  188.4710  175.2690  135.6030 C   0  0  0  0  0  1  0  0  0  0  0  0
  183.7260  179.1810  139.1610 C   0  0  2  0  0  3  0  0  0  0  0  0
  191.6680  177.5020  140.9030 C   0  0  0  0  0  2  0  0  0  0  0  0
  189.5490  176.0890  137.5490 O   0  0  0  0  0  0  0  0  0  0  0  0
  188.5560  176.3910  136.6160 C   0  0  2  0  0  3  0  0  0  0  0  0
  190.0730  178.3190  142.4210 C   0  0  0  0  0  2  0  0  0  0  0  0
  185.8720  178.7780  139.7460 C   0  0  2  0  0  3  0  0  0  0  0  0
  186.5900  178.0290  140.8580 C   0  0  0  0  0  2  0  0  0  0  0  0
  184.6580  179.3100  140.2130 O   0  0  0  0  0  0  0  0  0  0  0  0
  188.6820  178.7480  139.9450 O   0  0  0  0  0  1  0  0  0  0  0  0
  187.9550  178.6420  141.1330 C   0  0  2  0  0  3  0  0  0  0  0  0
  188.7010  177.7460  142.1060 C   0  0  0  0  0  2  0  0  0  0  0  0
  185.5770  177.8430  138.6020 C   0  0  1  0  0  3  0  0  0  0  0  0
  184.3500  178.4400  137.9990 C   0  0  1  0  0  3  0  0  0  0  0  0
  186.7170  177.7870  137.6330 C   0  0  0  0  0  0  0  0  0  0  0  0
  190.3670  177.2220  137.5980 C   0  0  0  0  0  2  0  0  0  0  0  0
  191.4920  177.0390  138.6130 C   0  0  1  0  0  3  0  0  0  0  0  0
  187.2790  176.5180  137.2970 N   0  0  0  0  0  2  0  0  0  0  0  0
  191.0900  177.2970  142.2240 N   0  0  0  0  0  2  0  0  0  0  0  0
  187.1900  178.8470  137.1350 O   0  0  0  0  0  0  0  0  0  0  0  0
  190.9570  176.6950  139.9230 N   0  0  0  0  0  2  0  0  0  0  0  0
  193.4580  172.8970  136.7330 C   0  0  0  0  0  1  0  0  0  0  0  0
  193.3190  174.2370  137.3650 C   0  0  0  0  0  0  0  0  0  0  0  0
  193.7770  176.1380  138.3240 O   0  0  0  0  0  0  0  0  0  0  0  0
  192.1340  174.8390  137.5750 N   0  0  0  0  0  0  0  0  0  0  0  0
  194.3250  175.0560  137.8360 C   0  0  0  0  0  0  0  0  0  0  0  0
  192.4790  176.0070  138.1650 C   0  0  0  0  0  0  0  0  0  0  0  0
  195.7360  174.8210  137.8280 N   0  0  0  0  0  2  0  0  0  0  0  0
  196.3660  173.6640  138.4470 C   0  0  0  0  0  2  0  0  0  0  0  0
  197.4860  173.0590  136.3070 C   0  0  0  0  0  1  0  0  0  0  0  0
  197.6960  173.3780  137.7770 C   0  0  0  0  0  2  0  0  0  0  0  0
  183.2810  180.4960  138.7270 N   0  0  0  0  0  2  0  0  0  0  0  0
  181.0530  181.7840  138.1100 O   0  0  0  0  0  0  0  0  0  0  0  0
  181.5620  180.4290  138.5180 S   0  0  0  0  0  0  0  0  0  0  0  0
  181.2260  179.4400  137.4370 O   0  0  0  0  0  0  0  0  0  0  0  0
  180.9790  178.6250  140.4880 C   0  0  0  0  0  3  0  0  0  0  0  0
  180.7950  179.9280  140.0150 C   0  0  0  0  0  0  0  0  0  0  0  0
  179.6150  179.1310  142.4290 C   0  0  0  0  0  0  0  0  0  0  0  0
  179.4380  180.4360  141.9580 C   0  0  0  0  0  3  0  0  0  0  0  0
  180.3900  178.2250  141.6900 C   0  0  0  0  0  3  0  0  0  0  0  0
  180.0270  180.8350  140.7560 C   0  0  0  0  0  3  0  0  0  0  0  0
  179.7090  177.6240  144.3250 N   0  0  0  0  0  1  0  0  0  0  0  0
  178.9810  178.7290  143.7230 C   0  0  1  0  0  3  0  0  0  0  0  0
  178.9330  179.9010  144.6870 C   0  0  0  0  0  1  0  0  0  0  0  0
  3 33  1  6  0  0  0
  3 10  1  0  0  0  0
  4 20  1  0  0  0  0
  5 17  1  0  0  0  0
  6  2  1  6  0  0  0
  6 19  1  0  0  0  0
  6  5  1  0  0  0  0
  8 10  1  0  0  0  0
  8  9  1  1  0  0  0
  9 12  1  0  0  0  0
 12 11  1  6  0  0  0
 12 13  1  0  0  0  0
 13  7  1  0  0  0  0
 14 16  1  6  0  0  0
 14  8  1  0  0  0  0
 15  1  1  1  0  0  0
 15 14  1  0  0  0  0
 15  3  1  0  0  0  0
 17 18  1  0  0  0  0
 18 28  1  6  0  0  0
 18 22  1  0  0  0  0
 19 16  1  0  0  0  0
 20  7  1  0  0  0  0
 21 16  2  0  0  0  0
 22  4  1  0  0  0  0
 23 24  1  0  0  0  0
 24 26  1  0  0  0  0
 24 27  2  0  0  0  0
 26 28  2  0  0  0  0
 27 25  1  0  0  0  0
 28 25  1  0  0  0  0
 29 27  1  0  0  0  0
 29 30  1  0  0  0  0
 31 32  1  0  0  0  0
 32 30  1  0  0  0  0
 34 35  2  0  0  0  0
 35 33  1  0  0  0  0
 35 38  1  0  0  0  0
 36 35  2  0  0  0  0
 37 41  1  0  0  0  0
 38 37  2  0  0  0  0
 38 42  1  0  0  0  0
 39 44  1  0  0  0  0
 40 39  1  0  0  0  0
 41 39  2  0  0  0  0
 42 40  2  0  0  0  0
 44 43  1  0  0  0  0
 44 45  1  1  0  0  0
M  END
>  <MODEL>
2

>  <REMARK>
 VINA RESULT:      -6.9      1.962      2.421
  Name = 
  8 active torsions:
  status: ('A' for Active; 'I' for Inactive)
    1  A    between atoms: C_4  and  N_34
    2  A    between atoms: C_8  and  S_24
    3  A    between atoms: C_12  and  C_13
    4  A    between atoms: N_17  and  C_30
    5  A    between atoms: N_17  and  C_40
    6  A    between atoms: C_21  and  C_30
    7  A    between atoms: S_24  and  N_34
    8  A    between atoms: C_33  and  C_45
                            x       y       z     vdW  Elec       q    Type
                         _______ _______ _______ _____ _____    ______ ____

>  <TORSDO>
F 8

$$$$
=
 OpenBabel11062414183D

 45 48  0  0  1  0  0  0  0  0999 V2000
  190.0570  178.9450  143.9180 C   0  0  0  0  0  1  0  0  0  0  0  0
  194.5370  177.2620  140.6520 C   0  0  0  0  0  1  0  0  0  0  0  0
  187.9040  178.0590  143.0690 C   0  0  2  0  0  3  0  0  0  0  0  0
  190.6420  176.1780  135.4600 C   0  0  0  0  0  2  0  0  0  0  0  0
  193.0710  176.9110  138.8210 O   0  0  0  0  0  0  0  0  0  0  0  0
  193.1730  176.7790  140.2070 C   0  0  2  0  0  3  0  0  0  0  0  0
  188.4930  176.9620  135.9910 C   0  0  0  0  0  2  0  0  0  0  0  0
  188.5330  177.5600  140.9560 C   0  0  2  0  0  3  0  0  0  0  0  0
  188.4790  178.2430  139.5980 C   0  0  0  0  0  2  0  0  0  0  0  0
  187.4340  177.9400  141.7440 O   0  0  0  0  0  0  0  0  0  0  0  0
  189.4490  176.2890  138.6140 O   0  0  0  0  0  1  0  0  0  0  0  0
  188.4150  177.2180  138.4750 C   0  0  2  0  0  3  0  0  0  0  0  0
  188.5580  177.9420  137.1490 C   0  0  0  0  0  2  0  0  0  0  0  0
  189.7970  177.9470  141.6780 C   0  0  1  0  0  3  0  0  0  0  0  0
  189.4000  177.8410  143.1120 C   0  0  1  0  0  3  0  0  0  0  0  0
  190.9290  177.0300  141.3320 C   0  0  0  0  0  0  0  0  0  0  0  0
  192.6450  175.6610  138.3610 C   0  0  0  0  0  2  0  0  0  0  0  0
  192.4620  175.6710  136.8460 C   0  0  1  0  0  3  0  0  0  0  0  0
  192.1480  177.5900  140.8430 N   0  0  0  0  0  2  0  0  0  0  0  0
  189.6320  177.1650  135.1080 N   0  0  0  0  0  2  0  0  0  0  0  0
  190.8010  175.7800  141.4500 O   0  0  0  0  0  0  0  0  0  0  0  0
  191.5600  176.7390  136.4400 N   0  0  0  0  0  2  0  0  0  0  0  0
  196.4450  177.5740  134.5940 C   0  0  0  0  0  1  0  0  0  0  0  0
  195.4720  176.6060  135.1670 C   0  0  0  0  0  0  0  0  0  0  0  0
  194.4840  174.7550  135.7550 O   0  0  0  0  0  0  0  0  0  0  0  0
  194.3360  176.9750  135.7890 N   0  0  0  0  0  0  0  0  0  0  0  0
  195.5450  175.2280  135.1550 C   0  0  0  0  0  0  0  0  0  0  0  0
  193.7710  175.7930  136.1310 C   0  0  0  0  0  0  0  0  0  0  0  0
  196.5700  174.3990  134.5970 N   0  0  0  0  0  2  0  0  0  0  0  0
  197.8570  174.1690  135.2360 C   0  0  0  0  0  2  0  0  0  0  0  0
  197.9920  174.5540  137.6930 C   0  0  0  0  0  1  0  0  0  0  0  0
  197.6520  173.5490  136.6060 C   0  0  0  0  0  2  0  0  0  0  0  0
  187.2380  177.0890  143.9230 N   0  0  0  0  0  2  0  0  0  0  0  0
  185.9510  177.1260  146.2350 O   0  0  0  0  0  0  0  0  0  0  0  0
  186.2110  177.9620  145.0130 S   0  0  0  0  0  0  0  0  0  0  0  0
  186.8920  179.2340  145.4320 O   0  0  0  0  0  0  0  0  0  0  0  0
  184.6030  178.3000  142.8280 C   0  0  0  0  0  3  0  0  0  0  0  0
  184.6940  178.3540  144.2220 C   0  0  0  0  0  0  0  0  0  0  0  0
  182.2630  178.9330  142.9520 C   0  0  0  0  0  0  0  0  0  0  0  0
  182.3550  178.9790  144.3470 C   0  0  0  0  0  3  0  0  0  0  0  0
  183.3920  178.5900  142.1930 C   0  0  0  0  0  3  0  0  0  0  0  0
  183.5660  178.6900  144.9810 C   0  0  0  0  0  3  0  0  0  0  0  0
  180.3970  180.4740  142.8220 N   0  0  0  0  0  1  0  0  0  0  0  0
  180.9550  179.2390  142.2960 C   0  0  1  0  0  3  0  0  0  0  0  0
  181.1180  179.3460  140.7900 C   0  0  0  0  0  1  0  0  0  0  0  0
  3 15  1  0  0  0  0
  3 33  1  1  0  0  0
  4 22  1  0  0  0  0
  5  6  1  0  0  0  0
  6  2  1  1  0  0  0
  6 19  1  0  0  0  0
  7 13  1  0  0  0  0
  8  9  1  6  0  0  0
  8 14  1  0  0  0  0
  8 10  1  0  0  0  0
 10  3  1  0  0  0  0
 12 11  1  1  0  0  0
 12  9  1  0  0  0  0
 13 12  1  0  0  0  0
 14 16  1  1  0  0  0
 14 15  1  0  0  0  0
 15  1  1  1  0  0  0
 16 21  2  0  0  0  0
 17  5  1  0  0  0  0
 18 28  1  6  0  0  0
 18 17  1  0  0  0  0
 19 16  1  0  0  0  0
 20  4  1  0  0  0  0
 20  7  1  0  0  0  0
 22 18  1  0  0  0  0
 23 24  1  0  0  0  0
 24 26  1  0  0  0  0
 25 28  1  0  0  0  0
 26 28  2  0  0  0  0
 27 24  2  0  0  0  0
 27 25  1  0  0  0  0
 29 27  1  0  0  0  0
 29 30  1  0  0  0  0
 30 32  1  0  0  0  0
 32 31  1  0  0  0  0
 33 35  1  0  0  0  0
 35 36  2  0  0  0  0
 35 34  2  0  0  0  0
 37 38  1  0  0  0  0
 38 42  2  0  0  0  0
 38 35  1  0  0  0  0
 39 40  2  0  0  0  0
 40 42  1  0  0  0  0
 41 37  2  0  0  0  0
 41 39  1  0  0  0  0
 44 45  1  6  0  0  0
 44 43  1  0  0  0  0
 44 39  1  0  0  0  0
M  END
>  <MODEL>
3

>  <REMARK>
 VINA RESULT:      -6.5      3.563      5.820
  Name = 
  8 active torsions:
  status: ('A' for Active; 'I' for Inactive)
    1  A    between atoms: C_4  and  N_34
    2  A    between atoms: C_8  and  S_24
    3  A    between atoms: C_12  and  C_13
    4  A    between atoms: N_17  and  C_30
    5  A    between atoms: N_17  and  C_40
    6  A    between atoms: C_21  and  C_30
    7  A    between atoms: S_24  and  N_34
    8  A    between atoms: C_33  and  C_45
                            x       y       z     vdW  Elec       q    Type
                         _______ _______ _______ _____ _____    ______ ____

>  <TORSDO>
F 8

$$$$
=
 OpenBabel11062414183D

 45 48  0  0  1  0  0  0  0  0999 V2000
  190.7170  176.4000  140.2980 C   0  0  0  0  0  1  0  0  0  0  0  0
  186.0080  179.3070  142.0170 C   0  0  0  0  0  1  0  0  0  0  0  0
  190.7190  175.9990  137.8530 C   0  0  2  0  0  3  0  0  0  0  0  0
  182.6220  177.4250  136.6980 C   0  0  0  0  0  2  0  0  0  0  0  0
  184.8490  178.5740  140.0830 O   0  0  0  0  0  0  0  0  0  0  0  0
  186.0970  179.0030  140.5370 C   0  0  2  0  0  3  0  0  0  0  0  0
  183.9180  175.8510  135.5330 C   0  0  0  0  0  2  0  0  0  0  0  0
  188.5190  176.3130  137.4380 C   0  0  2  0  0  3  0  0  0  0  0  0
  187.2840  175.4360  137.3100 C   0  0  0  0  0  2  0  0  0  0  0  0
  189.6620  175.6260  136.9950 O   0  0  0  0  0  0  0  0  0  0  0  0
  185.9950  177.3850  136.7920 O   0  0  0  0  0  1  0  0  0  0  0  0
  186.2570  176.0740  136.3860 C   0  0  2  0  0  3  0  0  0  0  0  0
  184.9770  175.2580  136.4470 C   0  0  0  0  0  2  0  0  0  0  0  0
  188.7240  176.7070  138.8780 C   0  0  1  0  0  3  0  0  0  0  0  0
  190.2020  176.8920  138.9590 C   0  0  1  0  0  3  0  0  0  0  0  0
  187.9760  177.9590  139.2150 C   0  0  0  0  0  0  0  0  0  0  0  0
  184.5700  179.3650  138.9650 C   0  0  0  0  0  2  0  0  0  0  0  0
  183.2300  178.9780  138.3440 C   0  0  1  0  0  3  0  0  0  0  0  0
  187.0750  177.9490  140.3230 N   0  0  0  0  0  2  0  0  0  0  0  0
  182.6780  176.0340  136.2730 N   0  0  0  0  0  2  0  0  0  0  0  0
  188.1220  179.0030  138.5200 O   0  0  0  0  0  0  0  0  0  0  0  0
  183.1970  177.5570  138.0290 N   0  0  0  0  0  2  0  0  0  0  0  0
  179.3190  181.3400  140.2620 C   0  0  0  0  0  1  0  0  0  0  0  0
  180.4130  180.3540  140.0530 C   0  0  0  0  0  0  0  0  0  0  0  0
  181.7680  178.6680  140.3140 O   0  0  0  0  0  0  0  0  0  0  0  0
  181.2740  180.4090  139.0190 N   0  0  0  0  0  0  0  0  0  0  0  0
  180.7360  179.2710  140.8450 C   0  0  0  0  0  0  0  0  0  0  0  0
  182.0820  179.3440  139.2320 C   0  0  0  0  0  0  0  0  0  0  0  0
  180.0980  178.8310  142.0480 N   0  0  0  0  0  2  0  0  0  0  0  0
  180.3760  179.3930  143.3600 C   0  0  0  0  0  2  0  0  0  0  0  0
  182.7930  179.0030  143.8200 C   0  0  0  0  0  1  0  0  0  0  0  0
  181.3780  178.5240  144.0960 C   0  0  0  0  0  2  0  0  0  0  0  0
  191.7510  176.6920  137.0980 N   0  0  0  0  0  2  0  0  0  0  0  0
  191.7500  174.2460  136.0880 O   0  0  0  0  0  0  0  0  0  0  0  0
  192.5370  175.5270  136.0840 S   0  0  0  0  0  0  0  0  0  0  0  0
  192.6030  176.0500  134.6770 O   0  0  0  0  0  0  0  0  0  0  0  0
  194.3660  174.7620  137.9680 C   0  0  0  0  0  3  0  0  0  0  0  0
  194.1670  175.2300  136.6650 C   0  0  0  0  0  0  0  0  0  0  0  0
  196.7620  174.7070  137.5870 C   0  0  0  0  0  0  0  0  0  0  0  0
  196.5590  175.1670  136.2820 C   0  0  0  0  0  3  0  0  0  0  0  0
  195.6590  174.5030  138.4300 C   0  0  0  0  0  3  0  0  0  0  0  0
  195.2660  175.4270  135.8210 C   0  0  0  0  0  3  0  0  0  0  0  0
  199.1230  174.8730  137.0670 N   0  0  0  0  0  1  0  0  0  0  0  0
  198.1540  174.4280  138.0550 C   0  0  1  0  0  3  0  0  0  0  0  0
  198.4230  175.1090  139.3850 C   0  0  0  0  0  1  0  0  0  0  0  0
  3 33  1  6  0  0  0
  3 15  1  0  0  0  0
  4 22  1  0  0  0  0
  5  6  1  0  0  0  0
  6  2  1  1  0  0  0
  7 20  1  0  0  0  0
  7 13  1  0  0  0  0
  8  9  1  1  0  0  0
  8 14  1  0  0  0  0
 10  8  1  0  0  0  0
 10  3  1  0  0  0  0
 12 13  1  0  0  0  0
 12 11  1  1  0  0  0
 12  9  1  0  0  0  0
 14 15  1  0  0  0  0
 14 16  1  6  0  0  0
 15  1  1  1  0  0  0
 16 19  1  0  0  0  0
 17  5  1  0  0  0  0
 18 17  1  0  0  0  0
 18 28  1  1  0  0  0
 19  6  1  0  0  0  0
 20  4  1  0  0  0  0
 21 16  2  0  0  0  0
 22 18  1  0  0  0  0
 24 23  1  0  0  0  0
 24 27  2  0  0  0  0
 25 27  1  0  0  0  0
 26 28  2  0  0  0  0
 26 24  1  0  0  0  0
 27 29  1  0  0  0  0
 28 25  1  0  0  0  0
 29 30  1  0  0  0  0
 30 32  1  0  0  0  0
 31 32  1  0  0  0  0
 35 34  2  0  0  0  0
 35 38  1  0  0  0  0
 35 33  1  0  0  0  0
 36 35  2  0  0  0  0
 37 41  1  0  0  0  0
 38 37  2  0  0  0  0
 39 44  1  0  0  0  0
 39 41  2  0  0  0  0
 40 39  1  0  0  0  0
 42 40  2  0  0  0  0
 42 38  1  0  0  0  0
 43 44  1  0  0  0  0
 44 45  1  1  0  0  0
M  END
>  <MODEL>
4

>  <REMARK>
 VINA RESULT:      -6.5      3.151     12.003
  Name = 
  8 active torsions:
  status: ('A' for Active; 'I' for Inactive)
    1  A    between atoms: C_4  and  N_34
    2  A    between atoms: C_8  and  S_24
    3  A    between atoms: C_12  and  C_13
    4  A    between atoms: N_17  and  C_30
    5  A    between atoms: N_17  and  C_40
    6  A    between atoms: C_21  and  C_30
    7  A    between atoms: S_24  and  N_34
    8  A    between atoms: C_33  and  C_45
                            x       y       z     vdW  Elec       q    Type
                         _______ _______ _______ _____ _____    ______ ____

>  <TORSDO>
F 8

$$$$
=
 OpenBabel11062414183D

 45 48  0  0  1  0  0  0  0  0999 V2000
  180.6340  180.2960  139.8830 C   0  0  0  0  0  1  0  0  0  0  0  0
  184.5840  179.6360  144.0710 C   0  0  0  0  0  1  0  0  0  0  0  0
  181.1120  178.8590  137.9210 C   0  0  2  0  0  3  0  0  0  0  0  0
  189.0560  177.3640  139.8120 C   0  0  0  0  0  2  0  0  0  0  0  0
  186.1460  178.8420  142.4730 O   0  0  0  0  0  0  0  0  0  0  0  0
  184.7950  178.8060  142.8220 C   0  0  2  0  0  3  0  0  0  0  0  0
  188.1830  177.6080  137.6450 C   0  0  0  0  0  2  0  0  0  0  0  0
  183.2960  178.4340  138.3150 C   0  0  2  0  0  3  0  0  0  0  0  0
  184.6310  179.0150  137.8750 C   0  0  0  0  0  2  0  0  0  0  0  0
  182.3400  178.5630  137.2940 O   0  0  0  0  0  0  0  0  0  0  0  0
  185.7490  177.3220  139.1430 O   0  0  0  0  0  1  0  0  0  0  0  0
  185.7210  177.9540  137.8980 C   0  0  2  0  0  3  0  0  0  0  0  0
  187.0580  178.6280  137.6410 C   0  0  0  0  0  2  0  0  0  0  0  0
  182.7950  179.1590  139.5360 C   0  0  1  0  0  3  0  0  0  0  0  0
  181.3140  179.0260  139.4110 C   0  0  1  0  0  3  0  0  0  0  0  0
  183.3170  178.5400  140.7950 C   0  0  0  0  0  0  0  0  0  0  0  0
  186.5220  177.5040  142.3120 C   0  0  0  0  0  2  0  0  0  0  0  0
  187.9870  177.3960  141.8960 C   0  0  1  0  0  3  0  0  0  0  0  0
  184.0030  179.3630  141.7380 N   0  0  0  0  0  2  0  0  0  0  0  0
  189.2430  178.0480  138.5410 N   0  0  0  0  0  2  0  0  0  0  0  0
  183.1720  177.3040  141.0110 O   0  0  0  0  0  0  0  0  0  0  0  0
  188.2440  178.1830  140.6990 N   0  0  0  0  0  2  0  0  0  0  0  0
  191.8990  179.1900  144.3500 C   0  0  0  0  0  1  0  0  0  0  0  0
  190.5800  178.5720  144.0500 C   0  0  0  0  0  0  0  0  0  0  0  0
  188.6370  177.6140  144.2720 O   0  0  0  0  0  0  0  0  0  0  0  0
  190.1080  178.4000  142.8000 N   0  0  0  0  0  0  0  0  0  0  0  0
  189.6560  178.0780  144.9480 C   0  0  0  0  0  0  0  0  0  0  0  0
  188.9070  177.8080  143.0010 C   0  0  0  0  0  0  0  0  0  0  0  0
  189.7370  178.0450  146.3750 N   0  0  0  0  0  2  0  0  0  0  0  0
  189.9320  176.8250  147.1440 C   0  0  0  0  0  2  0  0  0  0  0  0
  192.0560  175.6480  146.5870 C   0  0  0  0  0  1  0  0  0  0  0  0
  191.3980  176.6670  147.5020 C   0  0  0  0  0  2  0  0  0  0  0  0
  180.1540  177.7950  137.6680 N   0  0  0  0  0  2  0  0  0  0  0  0
  179.2350  176.5670  135.5110 O   0  0  0  0  0  0  0  0  0  0  0  0
  180.4940  177.1390  136.1000 S   0  0  0  0  0  0  0  0  0  0  0  0
  180.9980  178.2310  135.1990 O   0  0  0  0  0  0  0  0  0  0  0  0
  182.7550  175.8320  135.2900 C   0  0  0  0  0  3  0  0  0  0  0  0
  181.7180  175.8880  136.2270 C   0  0  0  0  0  0  0  0  0  0  0  0
  183.7060  173.9230  136.4490 C   0  0  0  0  0  0  0  0  0  0  0  0
  182.6730  173.9860  137.3890 C   0  0  0  0  0  3  0  0  0  0  0  0
  183.7450  174.8520  135.3980 C   0  0  0  0  0  3  0  0  0  0  0  0
  181.6820  174.9660  137.2800 C   0  0  0  0  0  3  0  0  0  0  0  0
  185.4430  173.0030  137.8660 N   0  0  0  0  0  1  0  0  0  0  0  0
  184.7590  172.8710  136.5900 C   0  0  1  0  0  3  0  0  0  0  0  0
  184.1550  171.4840  136.4680 C   0  0  0  0  0  1  0  0  0  0  0  0
  3 33  1  1  0  0  0
  3 15  1  0  0  0  0
  4 22  1  0  0  0  0
  5  6  1  0  0  0  0
  6  2  1  1  0  0  0
  7 20  1  0  0  0  0
  8  9  1  6  0  0  0
  8 14  1  0  0  0  0
  9 12  1  0  0  0  0
 10  3  1  0  0  0  0
 10  8  1  0  0  0  0
 12 11  1  1  0  0  0
 13  7  1  0  0  0  0
 13 12  1  0  0  0  0
 14 16  1  1  0  0  0
 15 14  1  0  0  0  0
 15  1  1  6  0  0  0
 16 21  2  0  0  0  0
 16 19  1  0  0  0  0
 17  5  1  0  0  0  0
 18 17  1  0  0  0  0
 18 28  1  1  0  0  0
 19  6  1  0  0  0  0
 20  4  1  0  0  0  0
 22 18  1  0  0  0  0
 24 23  1  0  0  0  0
 24 27  2  0  0  0  0
 25 27  1  0  0  0  0
 26 28  2  0  0  0  0
 26 24  1  0  0  0  0
 27 29  1  0  0  0  0
 28 25  1  0  0  0  0
 29 30  1  0  0  0  0
 30 32  1  0  0  0  0
 31 32  1  0  0  0  0
 34 35  2  0  0  0  0
 35 38  1  0  0  0  0
 35 33  1  0  0  0  0
 36 35  2  0  0  0  0
 37 41  2  0  0  0  0
 37 38  1  0  0  0  0
 38 42  2  0  0  0  0
 39 44  1  0  0  0  0
 39 40  2  0  0  0  0
 41 39  1  0  0  0  0
 42 40  1  0  0  0  0
 44 45  1  1  0  0  0
 44 43  1  0  0  0  0
M  END
>  <MODEL>
5

>  <REMARK>
 VINA RESULT:      -6.2      3.857      6.477
  Name = 
  8 active torsions:
  status: ('A' for Active; 'I' for Inactive)
    1  A    between atoms: C_4  and  N_34
    2  A    between atoms: C_8  and  S_24
    3  A    between atoms: C_12  and  C_13
    4  A    between atoms: N_17  and  C_30
    5  A    between atoms: N_17  and  C_40
    6  A    between atoms: C_21  and  C_30
    7  A    between atoms: S_24  and  N_34
    8  A    between atoms: C_33  and  C_45
                            x       y       z     vdW  Elec       q    Type
                         _______ _______ _______ _____ _____    ______ ____

>  <TORSDO>
F 8

$$$$
=
 OpenBabel11062414183D

 45 48  0  0  1  0  0  0  0  0999 V2000
  191.7190  176.7240  141.0090 C   0  0  0  0  0  1  0  0  0  0  0  0
  186.4810  178.9800  142.0320 C   0  0  0  0  0  1  0  0  0  0  0  0
  192.0980  176.3140  138.5950 C   0  0  2  0  0  3  0  0  0  0  0  0
  184.1080  176.6330  136.3610 C   0  0  0  0  0  2  0  0  0  0  0  0
  185.6950  178.0880  139.9800 O   0  0  0  0  0  0  0  0  0  0  0  0
  186.8040  178.6830  140.5830 C   0  0  2  0  0  3  0  0  0  0  0  0
  185.7450  175.2410  135.4120 C   0  0  0  0  0  2  0  0  0  0  0  0
  189.9500  176.3280  137.8900 C   0  0  2  0  0  3  0  0  0  0  0  0
  188.8710  175.2920  137.6210 C   0  0  0  0  0  2  0  0  0  0  0  0
  191.2230  175.7990  137.6160 O   0  0  0  0  0  0  0  0  0  0  0  0
  187.4140  177.0470  136.8950 O   0  0  0  0  0  1  0  0  0  0  0  0
  187.8990  175.7810  136.5570 C   0  0  2  0  0  3  0  0  0  0  0  0
  186.7430  174.8010  136.4690 C   0  0  0  0  0  2  0  0  0  0  0  0
  189.9090  176.7540  139.3350 C   0  0  1  0  0  3  0  0  0  0  0  0
  191.3260  177.1360  139.6040 C   0  0  1  0  0  3  0  0  0  0  0  0
  188.9630  177.8950  139.5430 C   0  0  0  0  0  0  0  0  0  0  0  0
  185.4640  178.8290  138.8170 C   0  0  0  0  0  2  0  0  0  0  0  0
  184.2810  178.2620  138.0360 C   0  0  1  0  0  3  0  0  0  0  0  0
  187.9320  177.7690  140.5230 N   0  0  0  0  0  2  0  0  0  0  0  0
  184.4040  175.2600  135.9780 N   0  0  0  0  0  2  0  0  0  0  0  0
  189.0600  178.9450  138.8490 O   0  0  0  0  0  0  0  0  0  0  0  0
  184.4790  176.8480  137.7520 N   0  0  0  0  0  2  0  0  0  0  0  0
  179.5840  179.4860  139.0330 C   0  0  0  0  0  1  0  0  0  0  0  0
  180.9820  179.0000  139.1840 C   0  0  0  0  0  0  0  0  0  0  0  0
  182.8270  178.2130  140.0350 O   0  0  0  0  0  0  0  0  0  0  0  0
  181.8720  178.9710  138.1740 N   0  0  0  0  0  0  0  0  0  0  0  0
  181.5920  178.5280  140.3290 C   0  0  0  0  0  0  0  0  0  0  0  0
  182.9880  178.4750  138.7570 C   0  0  0  0  0  0  0  0  0  0  0  0
  181.0330  178.3860  141.6380 N   0  0  0  0  0  2  0  0  0  0  0  0
  181.1880  179.3760  142.6930 C   0  0  0  0  0  2  0  0  0  0  0  0
  183.2020  178.9900  144.1070 C   0  0  0  0  0  1  0  0  0  0  0  0
  181.7160  178.7130  143.9510 C   0  0  0  0  0  2  0  0  0  0  0  0
  193.1200  177.1360  137.9660 N   0  0  0  0  0  2  0  0  0  0  0  0
  192.5570  176.2360  135.5420 O   0  0  0  0  0  0  0  0  0  0  0  0
  193.6700  176.3030  136.5500 S   0  0  0  0  0  0  0  0  0  0  0  0
  194.8260  177.0500  135.9460 O   0  0  0  0  0  0  0  0  0  0  0  0
  193.8400  173.6020  136.1560 C   0  0  0  0  0  3  0  0  0  0  0  0
  194.1920  174.6810  136.9730 C   0  0  0  0  0  0  0  0  0  0  0  0
  195.0610  172.0940  137.6140 C   0  0  0  0  0  0  0  0  0  0  0  0
  195.4170  173.1760  138.4250 C   0  0  0  0  0  3  0  0  0  0  0  0
  194.2710  172.3120  136.4740 C   0  0  0  0  0  3  0  0  0  0  0  0
  194.9860  174.4660  138.1060 C   0  0  0  0  0  3  0  0  0  0  0  0
  194.5250  169.7300  137.6580 N   0  0  0  0  0  1  0  0  0  0  0  0
  195.5400  170.7240  137.9700 C   0  0  1  0  0  3  0  0  0  0  0  0
  196.8280  170.3940  137.2360 C   0  0  0  0  0  1  0  0  0  0  0  0
  3 33  1  6  0  0  0
  3 15  1  0  0  0  0
  4 22  1  0  0  0  0
  5  6  1  0  0  0  0
  6  2  1  1  0  0  0
  7 20  1  0  0  0  0
  7 13  1  0  0  0  0
  8  9  1  1  0  0  0
  8 14  1  0  0  0  0
 10  8  1  0  0  0  0
 10  3  1  0  0  0  0
 12 11  1  1  0  0  0
 12  9  1  0  0  0  0
 13 12  1  0  0  0  0
 14 16  1  6  0  0  0
 14 15  1  0  0  0  0
 15  1  1  1  0  0  0
 16 19  1  0  0  0  0
 17  5  1  0  0  0  0
 18 28  1  1  0  0  0
 18 17  1  0  0  0  0
 19  6  1  0  0  0  0
 20  4  1  0  0  0  0
 21 16  2  0  0  0  0
 22 18  1  0  0  0  0
 23 24  1  0  0  0  0
 24 27  2  0  0  0  0
 25 27  1  0  0  0  0
 26 28  2  0  0  0  0
 26 24  1  0  0  0  0
 27 29  1  0  0  0  0
 28 25  1  0  0  0  0
 29 30  1  0  0  0  0
 30 32  1  0  0  0  0
 32 31  1  0  0  0  0
 34 35  2  0  0  0  0
 35 38  1  0  0  0  0
 35 33  1  0  0  0  0
 36 35  2  0  0  0  0
 37 41  2  0  0  0  0
 37 38  1  0  0  0  0
 38 42  2  0  0  0  0
 39 44  1  0  0  0  0
 39 40  2  0  0  0  0
 41 39  1  0  0  0  0
 42 40  1  0  0  0  0
 43 44  1  0  0  0  0
 44 45  1  6  0  0  0
M  END
>  <MODEL>
6

>  <REMARK>
 VINA RESULT:      -6.0      3.174     11.474
  Name = 
  8 active torsions:
  status: ('A' for Active; 'I' for Inactive)
    1  A    between atoms: C_4  and  N_34
    2  A    between atoms: C_8  and  S_24
    3  A    between atoms: C_12  and  C_13
    4  A    between atoms: N_17  and  C_30
    5  A    between atoms: N_17  and  C_40
    6  A    between atoms: C_21  and  C_30
    7  A    between atoms: S_24  and  N_34
    8  A    between atoms: C_33  and  C_45
                            x       y       z     vdW  Elec       q    Type
                         _______ _______ _______ _____ _____    ______ ____

>  <TORSDO>
F 8

$$$$
=
 OpenBabel11062414183D

 45 48  0  0  1  0  0  0  0  0999 V2000
  190.8380  176.9280  134.9370 C   0  0  0  0  0  1  0  0  0  0  0  0
  185.0730  177.4420  134.6590 C   0  0  0  0  0  1  0  0  0  0  0  0
  191.6100  176.3600  137.2220 C   0  0  2  0  0  3  0  0  0  0  0  0
  184.6350  178.6190  141.1180 C   0  0  0  0  0  2  0  0  0  0  0  0
  184.9990  177.8750  136.9890 O   0  0  0  0  0  0  0  0  0  0  0  0
  185.6450  177.1060  136.0200 C   0  0  2  0  0  3  0  0  0  0  0  0
  186.8140  178.8480  141.9620 C   0  0  0  0  0  2  0  0  0  0  0  0
  189.7790  176.9960  138.3860 C   0  0  2  0  0  3  0  0  0  0  0  0
  189.3250  178.2370  139.1370 C   0  0  0  0  0  2  0  0  0  0  0  0
  191.1730  176.8470  138.4730 O   0  0  0  0  0  0  0  0  0  0  0  0
  187.3120  177.0930  139.7440 O   0  0  0  0  0  1  0  0  0  0  0  0
  188.3540  177.8740  140.2510 C   0  0  2  0  0  3  0  0  0  0  0  0
  187.7880  179.1550  140.8370 C   0  0  0  0  0  2  0  0  0  0  0  0
  189.3980  177.1060  136.9320 C   0  0  1  0  0  3  0  0  0  0  0  0
  190.4480  176.2890  136.2560 C   0  0  1  0  0  3  0  0  0  0  0  0
  188.0200  176.5770  136.6850 C   0  0  0  0  0  0  0  0  0  0  0  0
  184.5770  176.9650  137.9630 C   0  0  0  0  0  2  0  0  0  0  0  0
  183.8710  177.6830  139.1110 C   0  0  1  0  0  3  0  0  0  0  0  0
  187.0650  177.4130  136.0310 N   0  0  0  0  0  2  0  0  0  0  0  0
  185.5620  179.5550  141.7370 N   0  0  0  0  0  2  0  0  0  0  0  0
  187.6990  175.4170  137.0660 O   0  0  0  0  0  0  0  0  0  0  0  0
  184.7200  178.7250  139.6690 N   0  0  0  0  0  2  0  0  0  0  0  0
  179.1670  178.0740  137.6020 C   0  0  0  0  0  1  0  0  0  0  0  0
  180.5480  178.4210  138.0340 C   0  0  0  0  0  0  0  0  0  0  0  0
  182.3420  179.5440  138.5510 O   0  0  0  0  0  0  0  0  0  0  0  0
  181.4740  177.5030  138.3700 N   0  0  0  0  0  0  0  0  0  0  0  0
  181.1040  179.6790  138.1520 C   0  0  0  0  0  0  0  0  0  0  0  0
  182.5560  178.2540  138.6820 C   0  0  0  0  0  0  0  0  0  0  0  0
  180.4920  180.9460  137.8940 N   0  0  0  0  0  2  0  0  0  0  0  0
  180.8170  181.7800  136.7460 C   0  0  0  0  0  2  0  0  0  0  0  0
  180.8180  184.1290  135.9190 C   0  0  0  0  0  1  0  0  0  0  0  0
  180.8190  183.2420  137.1520 C   0  0  0  0  0  2  0  0  0  0  0  0
  192.2030  175.0420  137.3810 N   0  0  0  0  0  2  0  0  0  0  0  0
  194.3400  176.2350  136.3720 O   0  0  0  0  0  0  0  0  0  0  0  0
  193.9250  175.2390  137.4190 S   0  0  0  0  0  0  0  0  0  0  0  0
  194.3410  175.7530  138.7690 O   0  0  0  0  0  0  0  0  0  0  0  0
  195.4240  173.0720  138.1510 C   0  0  0  0  0  3  0  0  0  0  0  0
  194.7100  173.6970  137.1240 C   0  0  0  0  0  0  0  0  0  0  0  0
  195.9280  171.2120  136.6770 C   0  0  0  0  0  0  0  0  0  0  0  0
  195.2070  171.8350  135.6530 C   0  0  0  0  0  3  0  0  0  0  0  0
  196.0330  171.8350  137.9300 C   0  0  0  0  0  3  0  0  0  0  0  0
  194.5990  173.0730  135.8750 C   0  0  0  0  0  3  0  0  0  0  0  0
  197.0640  169.8140  135.0550 N   0  0  0  0  0  1  0  0  0  0  0  0
  196.5640  169.8840  136.4190 C   0  0  1  0  0  3  0  0  0  0  0  0
  197.6960  169.6280  137.3980 C   0  0  0  0  0  1  0  0  0  0  0  0
  3 33  1  1  0  0  0
  3 10  1  0  0  0  0
  4 20  1  0  0  0  0
  5 17  1  0  0  0  0
  6  2  1  6  0  0  0
  6 19  1  0  0  0  0
  6  5  1  0  0  0  0
  8 10  1  0  0  0  0
  8  9  1  1  0  0  0
  9 12  1  0  0  0  0
 12 11  1  6  0  0  0
 12 13  1  0  0  0  0
 13  7  1  0  0  0  0
 14 16  1  1  0  0  0
 14  8  1  0  0  0  0
 15  1  1  6  0  0  0
 15 14  1  0  0  0  0
 15  3  1  0  0  0  0
 16 21  2  0  0  0  0
 17 18  1  0  0  0  0
 18 28  1  6  0  0  0
 18 22  1  0  0  0  0
 19 16  1  0  0  0  0
 20  7  1  0  0  0  0
 22  4  1  0  0  0  0
 23 24  1  0  0  0  0
 24 27  2  0  0  0  0
 24 26  1  0  0  0  0
 25 28  1  0  0  0  0
 26 28  2  0  0  0  0
 27 25  1  0  0  0  0
 29 27  1  0  0  0  0
 30 32  1  0  0  0  0
 30 29  1  0  0  0  0
 31 32  1  0  0  0  0
 33 35  1  0  0  0  0
 34 35  2  0  0  0  0
 35 36  2  0  0  0  0
 38 35  1  0  0  0  0
 38 37  2  0  0  0  0
 39 41  2  0  0  0  0
 40 42  2  0  0  0  0
 40 39  1  0  0  0  0
 41 37  1  0  0  0  0
 42 38  1  0  0  0  0
 43 44  1  0  0  0  0
 44 39  1  0  0  0  0
 44 45  1  1  0  0  0
M  END
>  <MODEL>
7

>  <REMARK>
 VINA RESULT:      -5.6      3.472     11.598
  Name = 
  8 active torsions:
  status: ('A' for Active; 'I' for Inactive)
    1  A    between atoms: C_4  and  N_34
    2  A    between atoms: C_8  and  S_24
    3  A    between atoms: C_12  and  C_13
    4  A    between atoms: N_17  and  C_30
    5  A    between atoms: N_17  and  C_40
    6  A    between atoms: C_21  and  C_30
    7  A    between atoms: S_24  and  N_34
    8  A    between atoms: C_33  and  C_45
                            x       y       z     vdW  Elec       q    Type
                         _______ _______ _______ _____ _____    ______ ____

>  <TORSDO>
F 8

$$$$
=
 OpenBabel11062414183D

 45 48  0  0  1  0  0  0  0  0999 V2000
  189.0710  178.4000  135.7270 C   0  0  0  0  0  1  0  0  0  0  0  0
  185.4360  179.0330  140.1950 C   0  0  0  0  0  1  0  0  0  0  0  0
  190.8990  176.8060  136.2360 C   0  0  2  0  0  3  0  0  0  0  0  0
  189.9910  176.9950  144.4860 C   0  0  0  0  0  2  0  0  0  0  0  0
  187.1350  178.3050  141.6810 O   0  0  0  0  0  0  0  0  0  0  0  0
  186.5960  178.0850  140.4120 C   0  0  2  0  0  3  0  0  0  0  0  0
  192.0250  176.7760  143.3340 C   0  0  0  0  0  2  0  0  0  0  0  0
  190.7720  176.8260  138.4920 C   0  0  2  0  0  3  0  0  0  0  0  0
  191.4600  177.5630  139.6300 C   0  0  0  0  0  2  0  0  0  0  0  0
  191.6550  176.6420  137.4160 O   0  0  0  0  0  0  0  0  0  0  0  0
  190.1750  176.2850  141.1920 O   0  0  0  0  0  1  0  0  0  0  0  0
  191.4690  176.7220  140.8980 C   0  0  2  0  0  3  0  0  0  0  0  0
  191.9900  177.5740  142.0420 C   0  0  0  0  0  2  0  0  0  0  0  0
  189.5850  177.6190  138.0090 C   0  0  1  0  0  3  0  0  0  0  0  0
  189.4820  177.2130  136.5770 C   0  0  1  0  0  3  0  0  0  0  0  0
  188.3490  177.2830  138.7840 C   0  0  0  0  0  0  0  0  0  0  0  0
  187.1900  177.0440  142.2830 C   0  0  0  0  0  2  0  0  0  0  0  0
  187.7940  177.1340  143.6830 C   0  0  1  0  0  3  0  0  0  0  0  0
  187.6150  178.3370  139.4070 N   0  0  0  0  0  2  0  0  0  0  0  0
  191.3460  177.5150  144.3870 N   0  0  0  0  0  2  0  0  0  0  0  0
  187.9720  176.0840  138.9040 O   0  0  0  0  0  0  0  0  0  0  0  0
  189.0990  177.7770  143.6420 N   0  0  0  0  0  2  0  0  0  0  0  0
  186.0460  179.4230  147.7150 C   0  0  0  0  0  1  0  0  0  0  0  0
  186.1380  178.8270  146.3550 C   0  0  0  0  0  0  0  0  0  0  0  0
  185.6360  178.1410  144.3490 O   0  0  0  0  0  0  0  0  0  0  0  0
  187.2560  178.2520  145.8710 N   0  0  0  0  0  0  0  0  0  0  0  0
  185.1460  178.7470  145.3990 C   0  0  0  0  0  0  0  0  0  0  0  0
  186.8860  177.8510  144.6310 C   0  0  0  0  0  0  0  0  0  0  0  0
  183.7980  179.2200  145.4790 N   0  0  0  0  0  2  0  0  0  0  0  0
  183.0610  179.7530  144.3440 C   0  0  0  0  0  2  0  0  0  0  0  0
  182.3310  178.6280  142.2450 C   0  0  0  0  0  1  0  0  0  0  0  0
  182.1690  178.6770  143.7540 C   0  0  0  0  0  2  0  0  0  0  0  0
  190.8880  175.5670  135.4750 N   0  0  0  0  0  2  0  0  0  0  0  0
  190.9400  174.4260  137.8620 O   0  0  0  0  0  0  0  0  0  0  0  0
  191.5380  174.3200  136.4870 S   0  0  0  0  0  0  0  0  0  0  0  0
  191.1920  172.9760  135.9110 O   0  0  0  0  0  0  0  0  0  0  0  0
  193.9640  173.9980  137.7060 C   0  0  0  0  0  3  0  0  0  0  0  0
  193.2840  174.4730  136.5800 C   0  0  0  0  0  0  0  0  0  0  0  0
  196.0770  174.6690  136.7190 C   0  0  0  0  0  0  0  0  0  0  0  0
  195.3950  175.1360  135.5910 C   0  0  0  0  0  3  0  0  0  0  0  0
  195.3560  174.0960  137.7780 C   0  0  0  0  0  3  0  0  0  0  0  0
  194.0030  175.0380  135.5200 C   0  0  0  0  0  3  0  0  0  0  0  0
  198.0000  175.2590  138.0700 N   0  0  0  0  0  1  0  0  0  0  0  0
  197.5670  174.7770  136.7690 C   0  0  1  0  0  3  0  0  0  0  0  0
  198.2160  173.4370  136.4730 C   0  0  0  0  0  1  0  0  0  0  0  0
  3 33  1  1  0  0  0
  3 15  1  0  0  0  0
  3 10  1  0  0  0  0
  5 17  1  0  0  0  0
  6  2  1  6  0  0  0
  6  5  1  0  0  0  0
  7 20  1  0  0  0  0
  8  9  1  1  0  0  0
  9 12  1  0  0  0  0
 10  8  1  0  0  0  0
 12 11  1  1  0  0  0
 12 13  1  0  0  0  0
 13  7  1  0  0  0  0
 14  8  1  0  0  0  0
 14 16  1  1  0  0  0
 15  1  1  6  0  0  0
 15 14  1  0  0  0  0
 16 21  2  0  0  0  0
 16 19  1  0  0  0  0
 17 18  1  0  0  0  0
 18 28  1  1  0  0  0
 19  6  1  0  0  0  0
 20  4  1  0  0  0  0
 22 18  1  0  0  0  0
 22  4  1  0  0  0  0
 24 23  1  0  0  0  0
 25 28  1  0  0  0  0
 25 27  1  0  0  0  0
 26 24  1  0  0  0  0
 27 29  1  0  0  0  0
 27 24  2  0  0  0  0
 28 26  2  0  0  0  0
 30 29  1  0  0  0  0
 31 32  1  0  0  0  0
 32 30  1  0  0  0  0
 33 35  1  0  0  0  0
 35 38  1  0  0  0  0
 35 34  2  0  0  0  0
 36 35  2  0  0  0  0
 37 41  1  0  0  0  0
 38 37  2  0  0  0  0
 39 44  1  0  0  0  0
 39 41  2  0  0  0  0
 40 39  1  0  0  0  0
 42 40  2  0  0  0  0
 42 38  1  0  0  0  0
 44 45  1  1  0  0  0
 44 43  1  0  0  0  0
M  END
>  <MODEL>
8

>  <REMARK>
 VINA RESULT:      -5.3      3.991     11.053
  Name = 
  8 active torsions:
  status: ('A' for Active; 'I' for Inactive)
    1  A    between atoms: C_4  and  N_34
    2  A    between atoms: C_8  and  S_24
    3  A    between atoms: C_12  and  C_13
    4  A    between atoms: N_17  and  C_30
    5  A    between atoms: N_17  and  C_40
    6  A    between atoms: C_21  and  C_30
    7  A    between atoms: S_24  and  N_34
    8  A    between atoms: C_33  and  C_45
                            x       y       z     vdW  Elec       q    Type
                         _______ _______ _______ _____ _____    ______ ____

>  <TORSDO>
F 8

$$$$
=
 OpenBabel11062414183D

 45 48  0  0  1  0  0  0  0  0999 V2000
  181.7050  175.5960  136.7790 C   0  0  0  0  0  1  0  0  0  0  0  0
  186.4290  172.7570  134.9890 C   0  0  0  0  0  1  0  0  0  0  0  0
  182.1850  177.9770  137.2720 C   0  0  2  0  0  3  0  0  0  0  0  0
  190.4250  177.1380  137.8410 C   0  0  0  0  0  2  0  0  0  0  0  0
  187.8020  174.3680  136.0570 O   0  0  0  0  0  0  0  0  0  0  0  0
  186.6220  174.2200  135.3270 C   0  0  2  0  0  3  0  0  0  0  0  0
  189.1030  178.6030  139.1150 C   0  0  0  0  0  2  0  0  0  0  0  0
  184.4300  177.8480  137.5020 C   0  0  2  0  0  3  0  0  0  0  0  0
  185.4140  177.6900  138.6500 C   0  0  0  0  0  2  0  0  0  0  0  0
  183.2940  178.5620  137.9190 O   0  0  0  0  0  0  0  0  0  0  0  0
  187.2160  177.8550  137.0830 O   0  0  0  0  0  1  0  0  0  0  0  0
  186.7520  178.3320  138.3120 C   0  0  2  0  0  3  0  0  0  0  0  0
  187.7490  177.9790  139.4020 C   0  0  0  0  0  2  0  0  0  0  0  0
  183.9910  176.4930  137.0090 C   0  0  1  0  0  3  0  0  0  0  0  0
  182.6230  176.7660  136.4790 C   0  0  1  0  0  3  0  0  0  0  0  0
  184.9150  175.9680  135.9560 C   0  0  0  0  0  0  0  0  0  0  0  0
  188.5180  175.3750  135.4020 C   0  0  0  0  0  2  0  0  0  0  0  0
  189.8350  175.6630  136.1190 C   0  0  1  0  0  3  0  0  0  0  0  0
  185.5000  174.6770  136.1300 N   0  0  0  0  0  2  0  0  0  0  0  0
  190.1410  177.5860  139.1970 N   0  0  0  0  0  2  0  0  0  0  0  0
  185.1900  176.6620  134.9380 O   0  0  0  0  0  0  0  0  0  0  0  0
  189.6010  175.9820  137.5200 N   0  0  0  0  0  2  0  0  0  0  0  0
  191.8880  171.3520  134.7950 C   0  0  0  0  0  1  0  0  0  0  0  0
  191.6700  172.6780  135.4330 C   0  0  0  0  0  0  0  0  0  0  0  0
  191.9360  174.4690  136.6430 O   0  0  0  0  0  0  0  0  0  0  0  0
  190.5710  173.4290  135.2270 N   0  0  0  0  0  0  0  0  0  0  0  0
  192.5030  173.3380  136.3140 C   0  0  0  0  0  0  0  0  0  0  0  0
  190.7940  174.5210  135.9960 C   0  0  0  0  0  0  0  0  0  0  0  0
  193.7720  172.9140  136.8200 N   0  0  0  0  0  2  0  0  0  0  0  0
  194.6030  173.7260  137.6960 C   0  0  0  0  0  2  0  0  0  0  0  0
  196.9960  173.9960  138.3300 C   0  0  0  0  0  1  0  0  0  0  0  0
  196.0310  173.7450  137.1840 C   0  0  0  0  0  2  0  0  0  0  0  0
  181.5560  178.9460  136.3890 N   0  0  0  0  0  2  0  0  0  0  0  0
  179.3220  180.3640  136.3280 O   0  0  0  0  0  0  0  0  0  0  0  0
  179.8880  179.0690  136.8420 S   0  0  0  0  0  0  0  0  0  0  0  0
  179.1180  177.9300  136.2360 O   0  0  0  0  0  0  0  0  0  0  0  0
  179.3870  177.7970  139.2100 C   0  0  0  0  0  3  0  0  0  0  0  0
  179.7350  179.0010  138.5900 C   0  0  0  0  0  0  0  0  0  0  0  0
  179.5350  178.8680  141.3830 C   0  0  0  0  0  0  0  0  0  0  0  0
  179.8900  180.0690  140.7600 C   0  0  0  0  0  3  0  0  0  0  0  0
  179.2850  177.7290  140.6020 C   0  0  0  0  0  3  0  0  0  0  0  0
  179.9910  180.1360  139.3680 C   0  0  0  0  0  3  0  0  0  0  0  0
  179.6800  177.4670  143.3550 N   0  0  0  0  0  1  0  0  0  0  0  0
  179.4400  178.8180  142.8740 C   0  0  1  0  0  3  0  0  0  0  0  0
  180.4320  179.7760  143.5100 C   0  0  0  0  0  1  0  0  0  0  0  0
  3 33  1  6  0  0  0
  3 10  1  0  0  0  0
  4 20  1  0  0  0  0
  6  2  1  1  0  0  0
  6  5  1  0  0  0  0
  6 19  1  0  0  0  0
  7 20  1  0  0  0  0
  7 13  1  0  0  0  0
  8 10  1  0  0  0  0
  8  9  1  1  0  0  0
 12 11  1  6  0  0  0
 12  9  1  0  0  0  0
 12 13  1  0  0  0  0
 14 16  1  6  0  0  0
 14  8  1  0  0  0  0
 15  1  1  1  0  0  0
 15 14  1  0  0  0  0
 15  3  1  0  0  0  0
 16 19  1  0  0  0  0
 17  5  1  0  0  0  0
 17 18  1  0  0  0  0
 18 28  1  1  0  0  0
 18 22  1  0  0  0  0
 21 16  2  0  0  0  0
 22  4  1  0  0  0  0
 23 24  1  0  0  0  0
 24 27  2  0  0  0  0
 26 24  1  0  0  0  0
 26 28  2  0  0  0  0
 27 25  1  0  0  0  0
 27 29  1  0  0  0  0
 28 25  1  0  0  0  0
 29 30  1  0  0  0  0
 32 30  1  0  0  0  0
 32 31  1  0  0  0  0
 33 35  1  0  0  0  0
 34 35  2  0  0  0  0
 35 38  1  0  0  0  0
 36 35  2  0  0  0  0
 37 41  1  0  0  0  0
 38 37  2  0  0  0  0
 38 42  1  0  0  0  0
 39 44  1  0  0  0  0
 40 39  1  0  0  0  0
 41 39  2  0  0  0  0
 42 40  2  0  0  0  0
 44 43  1  0  0  0  0
 44 45  1  1  0  0  0
M  END
>  <MODEL>
9

>  <REMARK>
 VINA RESULT:      -5.0      2.456      3.239
  Name = 
  8 active torsions:
  status: ('A' for Active; 'I' for Inactive)
    1  A    between atoms: C_4  and  N_34
    2  A    between atoms: C_8  and  S_24
    3  A    between atoms: C_12  and  C_13
    4  A    between atoms: N_17  and  C_30
    5  A    between atoms: N_17  and  C_40
    6  A    between atoms: C_21  and  C_30
    7  A    between atoms: S_24  and  N_34
    8  A    between atoms: C_33  and  C_45
                            x       y       z     vdW  Elec       q    Type
                         _______ _______ _______ _____ _____    ______ ____

>  <TORSDO>
F 8

$$$$
