=
 OpenBabel11062414013D

 49 53  0  0  1  0  0  0  0  0999 V2000
  186.3610  177.3610  139.0270 C   0  0  1  0  0  3  0  0  0  0  0  0
  190.6410  177.3560  142.6400 C   0  0  2  0  0  3  0  0  0  0  0  0
  186.2850  179.2900  141.5950 C   0  0  0  0  0  3  0  0  0  0  0  0
  188.4300  175.3720  137.2600 C   0  0  0  0  0  0  0  0  0  0  0  0
  192.1670  175.6750  136.3300 C   0  0  2  0  0  3  0  0  0  0  0  0
  190.5530  175.9700  142.1930 C   0  0  0  0  0  2  0  0  0  0  0  0
  187.3680  178.3590  141.0060 C   0  0  1  0  0  3  0  0  0  0  0  0
  192.2910  177.8230  140.7010 C   0  0  0  0  0  0  0  0  0  0  0  0
  190.5610  175.1690  138.4880 C   0  0  0  0  0  2  0  0  0  0  0  0
  192.5260  173.2450  135.8960 C   0  0  1  0  0  0  0  0  0  0  0  0
  192.0480  177.7910  142.3150 C   0  0  0  0  0  2  0  0  0  0  0  0
  187.3800  176.8720  141.5510 C   0  0  0  0  0  2  0  0  0  0  0  0
  188.5850  177.3520  144.4190 C   0  0  2  0  0  0  0  0  0  0  0  0
  193.2940  178.3760  140.1190 C   0  0  0  0  0  2  0  0  0  0  0  0
  184.6540  179.1930  139.5770 C   0  0  0  0  0  0  0  0  0  0  0  0
  184.9660  179.7530  140.9010 C   0  0  0  0  0  3  0  0  0  0  0  0
  190.5790  178.5360  144.7570 O   0  0  0  0  0  1  0  0  0  0  0  0
  184.7700  180.0940  138.5970 C   0  0  0  0  0  2  0  0  0  0  0  0
  191.2570  176.9150  139.9360 C   0  0  2  0  0  3  0  0  0  0  0  0
  193.1080  174.4030  136.6810 C   0  0  0  0  0  2  0  0  0  0  0  0
  190.2660  172.7350  136.4660 O   0  0  0  0  0  0  0  0  0  0  0  0
  187.1320  175.5500  137.4350 C   0  0  0  0  0  3  0  0  0  0  0  0
  188.0280  178.6970  144.3040 O   0  0  0  0  0  1  0  0  0  0  0  0
  190.4340  176.1610  140.7390 C   0  0  0  0  0  2  0  0  0  0  0  0
  190.4100  175.1780  134.5940 C   0  0  0  0  0  1  0  0  0  0  0  0
  192.1970  176.7770  137.4410 C   0  0  0  0  0  2  0  0  0  0  0  0
  190.6920  175.0910  136.0600 C   0  0  1  0  0  0  0  0  0  0  0  0
  191.4040  176.3430  138.6550 N   0  0  2  0  0  0  0  0  0  0  0  0
  186.5270  176.8880  137.5590 C   0  0  0  0  0  2  0  0  0  0  0  0
  191.0910  173.6030  136.0160 C   0  0  0  0  0  0  0  0  0  0  0  0
  193.6420  173.5190  134.9000 C   0  0  0  0  0  1  0  0  0  0  0  0
  190.1600  177.4270  144.0920 C   0  0  2  0  0  3  0  0  0  0  0  0
  187.5600  176.2270  143.2960 S   0  0  0  0  0  0  0  0  0  0  0  0
  189.7890  175.3530  137.2310 C   0  0  0  0  0  0  0  0  0  0  0  0
  187.4690  178.3370  139.5650 C   0  0  1  0  0  3  0  0  0  0  0  0
  184.9170  177.8050  139.3330 C   0  0  1  0  0  3  0  0  0  0  0  0
  192.7860  171.8420  136.2750 O   0  0  0  0  0  1  0  0  0  0  0  0
  188.9170  178.7980  139.2170 C   0  0  0  0  0  1  0  0  0  0  0  0
  188.5370  177.0830  145.8140 O   0  0  0  0  0  0  0  0  0  0  0  0
  187.6440  178.0180  146.4700 C   0  0  0  0  0  2  0  0  0  0  0  0
  186.2250  177.4200  146.6010 C   0  0  0  0  0  2  0  0  0  0  0  0
  185.8670  179.5550  147.3170 O   0  0  0  0  0  1  0  0  0  0  0  0
  185.2470  178.5290  146.6270 C   0  0  1  0  0  3  0  0  0  0  0  0
  183.5170  178.6590  144.8810 O   0  0  0  0  0  1  0  0  0  0  0  0
  184.8020  179.0680  145.2760 C   0  0  0  0  0  2  0  0  0  0  0  0
  183.8170  176.8440  139.1830 N   0  0  0  0  0  2  0  0  0  0  0  0
  182.6080  177.6530  139.0930 C   0  0  0  0  0  2  0  0  0  0  0  0
  181.3370  178.8090  140.9360 C   0  0  0  0  0  1  0  0  0  0  0  0
  181.6060  177.5020  140.2070 C   0  0  0  0  0  2  0  0  0  0  0  0
  1 29  1  6  0  0  0
  1 36  1  0  0  0  0
  1 35  1  0  0  0  0
  2  6  1  1  0  0  0
  2 32  1  0  0  0  0
  4 22  2  0  0  0  0
  5 20  1  1  0  0  0
  5 26  1  0  0  0  0
  7 12  1  6  0  0  0
  7  3  1  0  0  0  0
  8 11  1  0  0  0  0
  9 28  1  0  0  0  0
 10 31  1  6  0  0  0
 10 30  1  0  0  0  0
 10 37  1  0  0  0  0
 10 20  1  0  0  0  0
 11  2  1  0  0  0  0
 12 33  1  0  0  0  0
 13 23  1  6  0  0  0
 13 39  1  0  0  0  0
 14  8  2  0  0  0  0
 15 16  1  0  0  0  0
 16  3  2  0  0  0  0
 18 15  2  0  0  0  0
 19  8  1  0  0  0  0
 19 24  1  1  0  0  0
 22 29  1  0  0  0  0
 24  6  1  0  0  0  0
 27 25  1  6  0  0  0
 27  5  1  0  0  0  0
 27 34  1  0  0  0  0
 28 26  1  6  0  0  0
 28 19  1  0  0  0  0
 30 27  1  0  0  0  0
 30 21  2  0  0  0  0
 32 13  1  0  0  0  0
 32 17  1  6  0  0  0
 33 13  1  0  0  0  0
 34  4  2  0  0  0  0
 34  9  1  0  0  0  0
 35 38  1  1  0  0  0
 35  7  1  0  0  0  0
 36 46  1  6  0  0  0
 36 15  1  0  0  0  0
 39 40  1  0  0  0  0
 40 41  1  0  0  0  0
 41 43  1  0  0  0  0
 43 42  1  1  0  0  0
 44 45  1  0  0  0  0
 45 43  1  0  0  0  0
 47 46  1  0  0  0  0
 47 49  1  0  0  0  0
 49 48  1  0  0  0  0
M  END
>  <MODEL>
1

>  <REMARK>
 VINA RESULT:      -1.7      0.000      0.000
  Name = 
  8 active torsions:
  status: ('A' for Active; 'I' for Inactive)
    1  A    between atoms: C_15  and  O_19
    2  A    between atoms: O_19  and  C_30
    3  A    between atoms: C_20  and  C_44
    4  A    between atoms: C_21  and  C_30
    5  A    between atoms: C_21  and  C_37
    6  A    between atoms: N_24  and  C_44
    7  A    between atoms: N_24  and  C_47
    8  A    between atoms: C_37  and  C_39
                            x       y       z     vdW  Elec       q    Type
                         _______ _______ _______ _____ _____    ______ ____

>  <TORSDO>
F 8

$$$$
=
 OpenBabel11062414013D

 49 53  0  0  1  0  0  0  0  0999 V2000
  186.6950  177.4070  137.7780 C   0  0  1  0  0  3  0  0  0  0  0  0
  181.3230  176.6260  139.1560 C   0  0  2  0  0  3  0  0  0  0  0  0
  184.4570  177.2900  135.4770 C   0  0  0  0  0  3  0  0  0  0  0  0
  187.0560  177.6380  141.1210 C   0  0  0  0  0  0  0  0  0  0  0  0
  185.1120  179.6030  143.8190 C   0  0  2  0  0  3  0  0  0  0  0  0
  182.0580  175.8360  140.1370 C   0  0  0  0  0  2  0  0  0  0  0  0
  184.3840  177.2940  137.0190 C   0  0  1  0  0  3  0  0  0  0  0  0
  181.4330  178.6450  140.7720 C   0  0  0  0  0  0  0  0  0  0  0  0
  184.8300  177.4390  142.1670 C   0  0  0  0  0  2  0  0  0  0  0  0
  185.8160  178.1750  145.7400 C   0  0  1  0  0  0  0  0  0  0  0  0
  180.4880  177.5880  139.9640 C   0  0  0  0  0  2  0  0  0  0  0  0
  184.3930  175.8750  137.7210 C   0  0  0  0  0  2  0  0  0  0  0  0
  181.4720  174.9150  137.0480 C   0  0  2  0  0  0  0  0  0  0  0  0
  181.0170  179.7180  141.3420 C   0  0  0  0  0  2  0  0  0  0  0  0
  186.9740  177.8940  135.2770 C   0  0  0  0  0  0  0  0  0  0  0  0
  185.7000  177.6240  134.5940 C   0  0  0  0  0  3  0  0  0  0  0  0
  179.5860  176.2270  137.5120 O   0  0  0  0  0  1  0  0  0  0  0  0
  187.3360  179.1780  135.2020 C   0  0  0  0  0  2  0  0  0  0  0  0
  182.8970  178.0970  140.9570 C   0  0  2  0  0  3  0  0  0  0  0  0
  184.5740  178.7530  145.0910 C   0  0  0  0  0  2  0  0  0  0  0  0
  187.0730  176.7400  144.3060 O   0  0  0  0  0  0  0  0  0  0  0  0
  187.7600  177.2530  140.0700 C   0  0  0  0  0  3  0  0  0  0  0  0
  181.5690  175.8020  135.8920 O   0  0  0  0  0  1  0  0  0  0  0  0
  183.0950  176.8010  140.5400 C   0  0  0  0  0  2  0  0  0  0  0  0
  187.6250  179.7040  143.6660 C   0  0  0  0  0  1  0  0  0  0  0  0
  184.0310  179.7700  142.7000 C   0  0  0  0  0  2  0  0  0  0  0  0
  186.4440  178.8610  143.3040 C   0  0  1  0  0  0  0  0  0  0  0  0
  183.8380  178.4780  141.9370 N   0  0  2  0  0  0  0  0  0  0  0  0
  187.7250  177.9790  138.7870 C   0  0  0  0  0  2  0  0  0  0  0  0
  186.6010  177.9120  144.5090 C   0  0  0  0  0  0  0  0  0  0  0  0
  185.6840  179.3220  146.7290 C   0  0  0  0  0  1  0  0  0  0  0  0
  180.6210  175.6650  138.1910 C   0  0  2  0  0  3  0  0  0  0  0  0
  183.2360  174.4210  137.5200 S   0  0  0  0  0  0  0  0  0  0  0  0
  186.1700  178.0740  142.0540 C   0  0  0  0  0  0  0  0  0  0  0  0
  185.3200  178.1640  137.6950 C   0  0  1  0  0  3  0  0  0  0  0  0
  187.3340  177.0940  136.4110 C   0  0  1  0  0  3  0  0  0  0  0  0
  185.7510  176.9940  146.6240 O   0  0  0  0  0  1  0  0  0  0  0  0
  184.4670  179.1710  138.5230 C   0  0  0  0  0  1  0  0  0  0  0  0
  180.6100  173.8740  136.6070 O   0  0  0  0  0  0  0  0  0  0  0  0
  181.0910  173.3300  135.3510 C   0  0  0  0  0  2  0  0  0  0  0  0
  181.2810  171.8000  135.4560 C   0  0  0  0  0  2  0  0  0  0  0  0
  183.2090  172.6590  134.5940 O   0  0  0  0  0  1  0  0  0  0  0  0
  182.6510  171.4650  135.0110 C   0  0  1  0  0  3  0  0  0  0  0  0
  184.9090  170.7220  135.6540 O   0  0  0  0  0  1  0  0  0  0  0  0
  183.5690  170.8530  136.0590 C   0  0  0  0  0  2  0  0  0  0  0  0
  188.4310  176.1210  136.3300 N   0  0  0  0  0  2  0  0  0  0  0  0
  188.1150  175.2790  135.1830 C   0  0  0  0  0  2  0  0  0  0  0  0
  187.2160  173.5460  136.7770 C   0  0  0  0  0  1  0  0  0  0  0  0
  187.1010  174.1880  135.4020 C   0  0  0  0  0  2  0  0  0  0  0  0
  1 29  1  1  0  0  0
  2 11  1  1  0  0  0
  2  6  1  0  0  0  0
  4 34  2  0  0  0  0
  5 26  1  6  0  0  0
  5 20  1  0  0  0  0
  6 24  1  0  0  0  0
  7  3  1  6  0  0  0
  7 35  1  0  0  0  0
  7 12  1  0  0  0  0
  8 19  1  0  0  0  0
  8 14  2  0  0  0  0
 10 37  1  0  0  0  0
 10 31  1  1  0  0  0
 11  8  1  0  0  0  0
 13 23  1  6  0  0  0
 13 33  1  0  0  0  0
 13 32  1  0  0  0  0
 15 36  1  0  0  0  0
 16 15  1  0  0  0  0
 16  3  2  0  0  0  0
 18 15  2  0  0  0  0
 19 24  1  1  0  0  0
 19 28  1  0  0  0  0
 20 10  1  0  0  0  0
 21 30  2  0  0  0  0
 22  4  2  0  0  0  0
 27 25  1  6  0  0  0
 27  5  1  0  0  0  0
 27 30  1  0  0  0  0
 28  9  1  6  0  0  0
 28 26  1  0  0  0  0
 29 22  1  0  0  0  0
 30 10  1  0  0  0  0
 32 17  1  6  0  0  0
 32  2  1  0  0  0  0
 33 12  1  0  0  0  0
 34  9  1  0  0  0  0
 34 27  1  0  0  0  0
 35  1  1  0  0  0  0
 35 38  1  1  0  0  0
 36 46  1  1  0  0  0
 36  1  1  0  0  0  0
 39 13  1  0  0  0  0
 40 41  1  0  0  0  0
 40 39  1  0  0  0  0
 43 42  1  1  0  0  0
 43 41  1  0  0  0  0
 43 45  1  0  0  0  0
 44 45  1  0  0  0  0
 47 49  1  0  0  0  0
 47 46  1  0  0  0  0
 49 48  1  0  0  0  0
M  END
>  <MODEL>
2

>  <REMARK>
 VINA RESULT:      -0.6      3.868      9.662
  Name = 
  8 active torsions:
  status: ('A' for Active; 'I' for Inactive)
    1  A    between atoms: C_15  and  O_19
    2  A    between atoms: O_19  and  C_30
    3  A    between atoms: C_20  and  C_44
    4  A    between atoms: C_21  and  C_30
    5  A    between atoms: C_21  and  C_37
    6  A    between atoms: N_24  and  C_44
    7  A    between atoms: N_24  and  C_47
    8  A    between atoms: C_37  and  C_39
                            x       y       z     vdW  Elec       q    Type
                         _______ _______ _______ _____ _____    ______ ____

>  <TORSDO>
F 8

$$$$
=
 OpenBabel11062414013D

 49 53  0  0  1  0  0  0  0  0999 V2000
  186.4190  177.3560  138.8880 C   0  0  1  0  0  3  0  0  0  0  0  0
  190.5600  177.3340  142.6590 C   0  0  2  0  0  3  0  0  0  0  0  0
  186.2420  179.2660  141.4640 C   0  0  0  0  0  3  0  0  0  0  0  0
  188.5570  175.3830  137.1870 C   0  0  0  0  0  0  0  0  0  0  0  0
  192.3250  175.7000  136.3990 C   0  0  2  0  0  3  0  0  0  0  0  0
  190.4920  175.9510  142.2000 C   0  0  0  0  0  2  0  0  0  0  0  0
  187.3480  178.3420  140.9100 C   0  0  1  0  0  3  0  0  0  0  0  0
  192.2810  177.8180  140.7860 C   0  0  0  0  0  0  0  0  0  0  0  0
  190.6410  175.1760  138.4920 C   0  0  0  0  0  2  0  0  0  0  0  0
  192.7060  173.2740  135.9620 C   0  0  1  0  0  0  0  0  0  0  0  0
  191.9780  177.7740  142.3900 C   0  0  0  0  0  2  0  0  0  0  0  0
  187.3440  176.8510  141.4450 C   0  0  0  0  0  2  0  0  0  0  0  0
  188.4390  177.3140  144.3590 C   0  0  2  0  0  0  0  0  0  0  0  0
  193.3040  178.3770  140.2460 C   0  0  0  0  0  2  0  0  0  0  0  0
  184.6880  179.1800  139.3870 C   0  0  0  0  0  0  0  0  0  0  0  0
  184.9490  179.7310  140.7250 C   0  0  0  0  0  3  0  0  0  0  0  0
  190.4170  178.4990  144.7790 O   0  0  0  0  0  1  0  0  0  0  0  0
  184.8390  180.0880  138.4180 C   0  0  0  0  0  2  0  0  0  0  0  0
  191.2790  176.9130  139.9770 C   0  0  2  0  0  3  0  0  0  0  0  0
  193.2560  174.4270  136.7760 C   0  0  0  0  0  2  0  0  0  0  0  0
  190.4270  172.7550  136.4440 O   0  0  0  0  0  0  0  0  0  0  0  0
  187.2530  175.5570  137.3140 C   0  0  0  0  0  3  0  0  0  0  0  0
  187.8840  178.6580  144.2330 O   0  0  0  0  0  1  0  0  0  0  0  0
  190.4270  176.1520  140.7430 C   0  0  0  0  0  2  0  0  0  0  0  0
  190.6350  175.2120  134.5950 C   0  0  0  0  0  1  0  0  0  0  0  0
  192.3110  176.7940  137.5180 C   0  0  0  0  0  2  0  0  0  0  0  0
  190.8630  175.1150  136.0700 C   0  0  1  0  0  0  0  0  0  0  0  0
  191.4740  176.3500  138.6980 N   0  0  2  0  0  0  0  0  0  0  0  0
  186.6410  176.8930  137.4240 C   0  0  0  0  0  2  0  0  0  0  0  0
  191.2670  173.6280  136.0310 C   0  0  0  0  0  0  0  0  0  0  0  0
  193.8580  173.5560  135.0100 C   0  0  0  0  0  1  0  0  0  0  0  0
  190.0250  177.3940  144.0930 C   0  0  2  0  0  3  0  0  0  0  0  0
  187.4590  176.1950  143.1910 S   0  0  0  0  0  0  0  0  0  0  0  0
  189.9160  175.3670  137.2080 C   0  0  0  0  0  0  0  0  0  0  0  0
  187.5040  178.3300  139.4730 C   0  0  1  0  0  3  0  0  0  0  0  0
  184.9640  177.7940  139.1430 C   0  0  1  0  0  3  0  0  0  0  0  0
  192.9550  171.8680  136.3410 O   0  0  0  0  0  1  0  0  0  0  0  0
  188.9620  178.7970  139.1840 C   0  0  0  0  0  1  0  0  0  0  0  0
  188.3400  177.0350  145.7500 O   0  0  0  0  0  0  0  0  0  0  0  0
  187.3510  177.9010  146.3610 C   0  0  0  0  0  2  0  0  0  0  0  0
  187.7460  178.2430  147.8150 C   0  0  0  0  0  2  0  0  0  0  0  0
  189.5160  178.6090  149.2040 O   0  0  0  0  0  1  0  0  0  0  0  0
  189.2160  178.1360  147.9400 C   0  0  1  0  0  3  0  0  0  0  0  0
  191.1800  176.7140  147.5120 O   0  0  0  0  0  1  0  0  0  0  0  0
  189.8050  176.7400  147.8040 C   0  0  0  0  0  2  0  0  0  0  0  0
  183.8720  176.8320  138.9460 N   0  0  0  0  0  2  0  0  0  0  0  0
  183.0320  176.9530  140.1310 C   0  0  0  0  0  2  0  0  0  0  0  0
  180.9590  178.3850  140.1750 C   0  0  0  0  0  1  0  0  0  0  0  0
  181.5440  177.0070  139.9050 C   0  0  0  0  0  2  0  0  0  0  0  0
  1 29  1  6  0  0  0
  1 36  1  0  0  0  0
  1 35  1  0  0  0  0
  2  6  1  1  0  0  0
  2 32  1  0  0  0  0
  4 34  2  0  0  0  0
  4 22  2  0  0  0  0
  5 20  1  1  0  0  0
  5 26  1  0  0  0  0
  7 12  1  6  0  0  0
  7  3  1  0  0  0  0
  8 11  1  0  0  0  0
  9 28  1  0  0  0  0
 10 31  1  6  0  0  0
 10 30  1  0  0  0  0
 10 37  1  0  0  0  0
 10 20  1  0  0  0  0
 11  2  1  0  0  0  0
 12 33  1  0  0  0  0
 13 23  1  6  0  0  0
 13 39  1  0  0  0  0
 14  8  2  0  0  0  0
 15 16  1  0  0  0  0
 16  3  2  0  0  0  0
 18 15  2  0  0  0  0
 19 24  1  1  0  0  0
 19  8  1  0  0  0  0
 22 29  1  0  0  0  0
 24  6  1  0  0  0  0
 27 25  1  6  0  0  0
 27  5  1  0  0  0  0
 27 34  1  0  0  0  0
 28 26  1  6  0  0  0
 28 19  1  0  0  0  0
 30 27  1  0  0  0  0
 30 21  2  0  0  0  0
 32 13  1  0  0  0  0
 32 17  1  6  0  0  0
 33 13  1  0  0  0  0
 34  9  1  0  0  0  0
 35 38  1  1  0  0  0
 35  7  1  0  0  0  0
 36 46  1  6  0  0  0
 36 15  1  0  0  0  0
 39 40  1  0  0  0  0
 40 41  1  0  0  0  0
 41 43  1  0  0  0  0
 43 42  1  1  0  0  0
 44 45  1  0  0  0  0
 45 43  1  0  0  0  0
 46 47  1  0  0  0  0
 49 47  1  0  0  0  0
 49 48  1  0  0  0  0
M  END
>  <MODEL>
3

>  <REMARK>
 VINA RESULT:      -0.6      1.044      1.751
  Name = 
  8 active torsions:
  status: ('A' for Active; 'I' for Inactive)
    1  A    between atoms: C_15  and  O_19
    2  A    between atoms: O_19  and  C_30
    3  A    between atoms: C_20  and  C_44
    4  A    between atoms: C_21  and  C_30
    5  A    between atoms: C_21  and  C_37
    6  A    between atoms: N_24  and  C_44
    7  A    between atoms: N_24  and  C_47
    8  A    between atoms: C_37  and  C_39
                            x       y       z     vdW  Elec       q    Type
                         _______ _______ _______ _____ _____    ______ ____

>  <TORSDO>
F 8

$$$$
=
 OpenBabel11062414013D

 49 53  0  0  1  0  0  0  0  0999 V2000
  188.9750  177.4210  141.9400 C   0  0  1  0  0  3  0  0  0  0  0  0
  188.9930  176.9370  136.3600 C   0  0  2  0  0  3  0  0  0  0  0  0
  191.7580  177.5180  140.3370 C   0  0  0  0  0  3  0  0  0  0  0  0
  185.6390  177.5240  141.4760 C   0  0  0  0  0  0  0  0  0  0  0  0
  183.4110  179.5210  139.0320 C   0  0  2  0  0  3  0  0  0  0  0  0
  187.8990  176.0720  136.7870 C   0  0  0  0  0  2  0  0  0  0  0  0
  190.2810  177.4780  139.8860 C   0  0  1  0  0  3  0  0  0  0  0  0
  187.3070  178.8930  136.1750 C   0  0  0  0  0  0  0  0  0  0  0  0
  185.1810  177.4320  139.0520 C   0  0  0  0  0  2  0  0  0  0  0  0
  181.4450  177.9910  139.1630 C   0  0  1  0  0  0  0  0  0  0  0  0
  188.3700  177.9230  135.4040 C   0  0  0  0  0  2  0  0  0  0  0  0
  189.6650  176.0390  139.6450 C   0  0  0  0  0  2  0  0  0  0  0  0
  191.0760  175.2870  136.9340 C   0  0  2  0  0  0  0  0  0  0  0  0
  186.8080  179.9720  135.6880 C   0  0  0  0  0  2  0  0  0  0  0  0
  191.3070  177.9680  142.8540 C   0  0  0  0  0  0  0  0  0  0  0  0
  192.2930  177.8000  141.7760 C   0  0  0  0  0  3  0  0  0  0  0  0
  191.0280  176.7000  135.0650 O   0  0  0  0  0  1  0  0  0  0  0  0
  191.2320  179.2280  143.2910 C   0  0  0  0  0  2  0  0  0  0  0  0
  186.7950  178.2480  137.5170 C   0  0  2  0  0  3  0  0  0  0  0  0
  182.3510  178.6670  138.1530 C   0  0  0  0  0  2  0  0  0  0  0  0
  182.5910  176.5260  140.6570 O   0  0  0  0  0  0  0  0  0  0  0  0
  186.5020  177.1290  142.3960 C   0  0  0  0  0  3  0  0  0  0  0  0
  192.1310  176.2020  137.3610 O   0  0  0  0  0  1  0  0  0  0  0  0
  187.2100  176.9560  137.7420 C   0  0  0  0  0  2  0  0  0  0  0  0
  182.9390  179.4680  141.5070 C   0  0  0  0  0  1  0  0  0  0  0  0
  184.7520  179.7910  138.2720 C   0  0  0  0  0  2  0  0  0  0  0  0
  183.6180  178.7130  140.4090 C   0  0  1  0  0  0  0  0  0  0  0  0
  185.5980  178.5380  138.2050 N   0  0  2  0  0  0  0  0  0  0  0  0
  187.7200  177.8950  142.7180 C   0  0  0  0  0  2  0  0  0  0  0  0
  182.4570  177.7190  140.2120 C   0  0  0  0  0  0  0  0  0  0  0  0
  180.4660  179.1140  138.8510 C   0  0  0  0  0  1  0  0  0  0  0  0
  190.1430  176.0530  135.8690 C   0  0  2  0  0  3  0  0  0  0  0  0
  190.2100  174.6690  138.4980 S   0  0  0  0  0  0  0  0  0  0  0  0
  184.9320  177.9850  140.4110 C   0  0  0  0  0  0  0  0  0  0  0  0
  189.3570  178.2650  140.6710 C   0  0  1  0  0  3  0  0  0  0  0  0
  190.1570  177.1120  142.8790 C   0  0  1  0  0  3  0  0  0  0  0  0
  180.6580  176.7900  138.8180 O   0  0  0  0  0  1  0  0  0  0  0  0
  188.7190  179.2980  139.6940 C   0  0  0  0  0  1  0  0  0  0  0  0
  191.7630  174.3170  136.1540 O   0  0  0  0  0  0  0  0  0  0  0  0
  192.8820  173.7790  136.9030 C   0  0  0  0  0  2  0  0  0  0  0  0
  194.1710  173.8040  136.0520 C   0  0  0  0  0  2  0  0  0  0  0  0
  195.4620  175.6370  136.4650 O   0  0  0  0  0  1  0  0  0  0  0  0
  195.2740  174.3330  136.8830 C   0  0  1  0  0  3  0  0  0  0  0  0
  195.7640  173.3750  139.0980 O   0  0  0  0  0  1  0  0  0  0  0  0
  195.0380  174.3460  138.3860 C   0  0  0  0  0  2  0  0  0  0  0  0
  190.0120  176.0750  143.9090 N   0  0  0  0  0  2  0  0  0  0  0  0
  190.2740  176.7490  145.1750 C   0  0  0  0  0  2  0  0  0  0  0  0
  189.4280  177.4970  147.4280 C   0  0  0  0  0  1  0  0  0  0  0  0
  189.0740  177.1530  145.9890 C   0  0  0  0  0  2  0  0  0  0  0  0
  1 29  1  1  0  0  0
  1 36  1  0  0  0  0
  2 11  1  6  0  0  0
  2  6  1  0  0  0  0
  3 16  2  0  0  0  0
  4 22  2  0  0  0  0
  5 20  1  6  0  0  0
  5 27  1  0  0  0  0
  6 24  1  0  0  0  0
  7 12  1  1  0  0  0
  7  3  1  0  0  0  0
  7 35  1  0  0  0  0
  8 19  1  0  0  0  0
  9 34  1  0  0  0  0
 10 31  1  1  0  0  0
 10 30  1  0  0  0  0
 11  8  1  0  0  0  0
 13 23  1  1  0  0  0
 13 33  1  0  0  0  0
 14  8  2  0  0  0  0
 15 36  1  0  0  0  0
 15 18  2  0  0  0  0
 16 15  1  0  0  0  0
 19 24  1  6  0  0  0
 19 28  1  0  0  0  0
 20 10  1  0  0  0  0
 22 29  1  0  0  0  0
 26  5  1  0  0  0  0
 27 34  1  0  0  0  0
 27 25  1  1  0  0  0
 28 26  1  1  0  0  0
 28  9  1  0  0  0  0
 30 27  1  0  0  0  0
 30 21  2  0  0  0  0
 32 17  1  1  0  0  0
 32  2  1  0  0  0  0
 32 13  1  0  0  0  0
 33 12  1  0  0  0  0
 34  4  2  0  0  0  0
 35 38  1  6  0  0  0
 35  1  1  0  0  0  0
 36 46  1  1  0  0  0
 37 10  1  0  0  0  0
 39 40  1  0  0  0  0
 39 13  1  0  0  0  0
 41 43  1  0  0  0  0
 41 40  1  0  0  0  0
 43 42  1  6  0  0  0
 43 45  1  0  0  0  0
 45 44  1  0  0  0  0
 46 47  1  0  0  0  0
 47 49  1  0  0  0  0
 49 48  1  0  0  0  0
M  END
>  <MODEL>
4

>  <REMARK>
 VINA RESULT:       0.1      3.012      9.042
  Name = 
  8 active torsions:
  status: ('A' for Active; 'I' for Inactive)
    1  A    between atoms: C_15  and  O_19
    2  A    between atoms: O_19  and  C_30
    3  A    between atoms: C_20  and  C_44
    4  A    between atoms: C_21  and  C_30
    5  A    between atoms: C_21  and  C_37
    6  A    between atoms: N_24  and  C_44
    7  A    between atoms: N_24  and  C_47
    8  A    between atoms: C_37  and  C_39
                            x       y       z     vdW  Elec       q    Type
                         _______ _______ _______ _____ _____    ______ ____

>  <TORSDO>
F 8

$$$$
=
 OpenBabel11062414013D

 49 53  0  0  1  0  0  0  0  0999 V2000
  189.0480  177.3920  141.8710 C   0  0  1  0  0  3  0  0  0  0  0  0
  188.9870  176.9860  136.2860 C   0  0  2  0  0  3  0  0  0  0  0  0
  191.8080  177.5020  140.2320 C   0  0  0  0  0  3  0  0  0  0  0  0
  185.7060  177.5110  141.4550 C   0  0  0  0  0  0  0  0  0  0  0  0
  183.4520  179.5500  139.0710 C   0  0  2  0  0  3  0  0  0  0  0  0
  187.8950  176.1180  136.7160 C   0  0  0  0  0  2  0  0  0  0  0  0
  190.3260  177.4730  139.8010 C   0  0  1  0  0  3  0  0  0  0  0  0
  187.3050  178.9490  136.1510 C   0  0  0  0  0  0  0  0  0  0  0  0
  185.2140  177.4560  139.0370 C   0  0  0  0  0  2  0  0  0  0  0  0
  181.4820  178.0250  139.2070 C   0  0  1  0  0  0  0  0  0  0  0  0
  188.3550  177.9870  135.3520 C   0  0  0  0  0  2  0  0  0  0  0  0
  189.7010  176.0400  139.5480 C   0  0  0  0  0  2  0  0  0  0  0  0
  191.0720  175.3220  136.8080 C   0  0  2  0  0  0  0  0  0  0  0  0
  186.8030  180.0360  135.6870 C   0  0  0  0  0  2  0  0  0  0  0  0
  191.3940  177.9180  142.7610 C   0  0  0  0  0  0  0  0  0  0  0  0
  192.3640  177.7620  141.6670 C   0  0  0  0  0  3  0  0  0  0  0  0
  191.0030  176.7600  134.9590 O   0  0  0  0  0  1  0  0  0  0  0  0
  191.3290  179.1730  143.2160 C   0  0  0  0  0  2  0  0  0  0  0  0
  186.8100  178.2870  137.4910 C   0  0  2  0  0  3  0  0  0  0  0  0
  182.3760  178.7110  138.1940 C   0  0  0  0  0  2  0  0  0  0  0  0
  182.6440  176.5350  140.6640 O   0  0  0  0  0  0  0  0  0  0  0  0
  186.5810  177.1010  142.3570 C   0  0  0  0  0  3  0  0  0  0  0  0
  192.1360  176.2270  137.2320 O   0  0  0  0  0  1  0  0  0  0  0  0
  187.2230  176.9910  137.6920 C   0  0  0  0  0  2  0  0  0  0  0  0
  183.0140  179.4640  141.5510 C   0  0  0  0  0  1  0  0  0  0  0  0
  184.7830  179.8260  138.2950 C   0  0  0  0  0  2  0  0  0  0  0  0
  183.6750  178.7220  140.4330 C   0  0  1  0  0  0  0  0  0  0  0  0
  185.6230  178.5720  138.1990 N   0  0  2  0  0  0  0  0  0  0  0  0
  187.8050  177.8580  142.6730 C   0  0  0  0  0  2  0  0  0  0  0  0
  182.5070  177.7340  140.2380 C   0  0  0  0  0  0  0  0  0  0  0  0
  180.5030  179.1540  138.9250 C   0  0  0  0  0  1  0  0  0  0  0  0
  190.1270  176.1050  135.7660 C   0  0  2  0  0  3  0  0  0  0  0  0
  190.2260  174.6840  138.3750 S   0  0  0  0  0  0  0  0  0  0  0  0
  184.9860  177.9900  140.4060 C   0  0  0  0  0  0  0  0  0  0  0  0
  189.4150  178.2520  140.6090 C   0  0  1  0  0  3  0  0  0  0  0  0
  190.2420  177.0660  142.7900 C   0  0  1  0  0  3  0  0  0  0  0  0
  180.6870  176.8310  138.8570 O   0  0  0  0  0  1  0  0  0  0  0  0
  188.7670  179.3010  139.6560 C   0  0  0  0  0  1  0  0  0  0  0  0
  191.7450  174.3600  136.0050 O   0  0  0  0  0  0  0  0  0  0  0  0
  191.2010  173.0390  136.2530 C   0  0  0  0  0  2  0  0  0  0  0  0
  191.1540  172.2130  134.9470 C   0  0  0  0  0  2  0  0  0  0  0  0
  189.5780  170.6000  134.6180 O   0  0  0  0  0  1  0  0  0  0  0  0
  189.7380  171.9730  134.5940 C   0  0  1  0  0  3  0  0  0  0  0  0
  187.5860  173.1380  134.8590 O   0  0  0  0  0  1  0  0  0  0  0  0
  188.6990  172.5880  135.5180 C   0  0  0  0  0  2  0  0  0  0  0  0
  190.1070  176.0150  143.8070 N   0  0  0  0  0  2  0  0  0  0  0  0
  190.9730  176.4270  144.9050 C   0  0  0  0  0  2  0  0  0  0  0  0
  189.1930  177.7810  146.0660 C   0  0  0  0  0  1  0  0  0  0  0  0
  190.3020  176.7500  146.2130 C   0  0  0  0  0  2  0  0  0  0  0  0
  1 29  1  1  0  0  0
  1 36  1  0  0  0  0
  2 11  1  6  0  0  0
  2  6  1  0  0  0  0
  3 16  2  0  0  0  0
  4 22  2  0  0  0  0
  5 20  1  6  0  0  0
  5 27  1  0  0  0  0
  6 24  1  0  0  0  0
  7 12  1  1  0  0  0
  7  3  1  0  0  0  0
  7 35  1  0  0  0  0
  8 19  1  0  0  0  0
  9 34  1  0  0  0  0
 10 31  1  1  0  0  0
 10 30  1  0  0  0  0
 11  8  1  0  0  0  0
 13 23  1  1  0  0  0
 13 33  1  0  0  0  0
 14  8  2  0  0  0  0
 15 36  1  0  0  0  0
 15 18  2  0  0  0  0
 16 15  1  0  0  0  0
 19 24  1  6  0  0  0
 19 28  1  0  0  0  0
 20 10  1  0  0  0  0
 22 29  1  0  0  0  0
 26  5  1  0  0  0  0
 27 25  1  1  0  0  0
 28 26  1  1  0  0  0
 28  9  1  0  0  0  0
 30 27  1  0  0  0  0
 30 21  2  0  0  0  0
 32 17  1  1  0  0  0
 32  2  1  0  0  0  0
 32 13  1  0  0  0  0
 33 12  1  0  0  0  0
 34 27  1  0  0  0  0
 34  4  2  0  0  0  0
 35 38  1  6  0  0  0
 35  1  1  0  0  0  0
 36 46  1  1  0  0  0
 37 10  1  0  0  0  0
 39 40  1  0  0  0  0
 39 13  1  0  0  0  0
 41 40  1  0  0  0  0
 43 42  1  1  0  0  0
 43 41  1  0  0  0  0
 43 45  1  0  0  0  0
 44 45  1  0  0  0  0
 46 47  1  0  0  0  0
 47 49  1  0  0  0  0
 48 49  1  0  0  0  0
M  END
>  <MODEL>
5

>  <REMARK>
 VINA RESULT:       0.9      3.041      9.007
  Name = 
  8 active torsions:
  status: ('A' for Active; 'I' for Inactive)
    1  A    between atoms: C_15  and  O_19
    2  A    between atoms: O_19  and  C_30
    3  A    between atoms: C_20  and  C_44
    4  A    between atoms: C_21  and  C_30
    5  A    between atoms: C_21  and  C_37
    6  A    between atoms: N_24  and  C_44
    7  A    between atoms: N_24  and  C_47
    8  A    between atoms: C_37  and  C_39
                            x       y       z     vdW  Elec       q    Type
                         _______ _______ _______ _____ _____    ______ ____

>  <TORSDO>
F 8

$$$$
