=
 OpenBabel11062414133D

 32 35  0  0  1  0  0  0  0  0999 V2000
  190.1390  176.5700  140.4010 C   0  0  0  0  0  2  0  0  0  0  0  0
  190.4710  177.1830  137.9390 C   0  0  1  0  0  3  0  0  0  0  0  0
  191.0820  177.0410  139.3030 C   0  0  2  0  0  3  0  0  0  0  0  0
  191.1730  176.0260  138.3320 O   0  0  0  0  0  0  0  0  0  0  0  0
  189.0250  176.9320  137.9110 N   0  0  0  0  0  0  0  0  0  0  0  0
  188.1190  178.0410  138.1190 C   0  0  0  0  0  0  0  0  0  0  0  0
  188.5450  179.0860  138.6830 O   0  0  0  0  0  0  0  0  0  0  0  0
  186.7000  178.0330  137.7110 C   0  0  0  0  0  3  0  0  0  0  0  0
  185.6750  178.2130  138.5410 C   0  0  0  0  0  3  0  0  0  0  0  0
  184.2930  178.2010  138.0600 C   0  0  0  0  0  0  0  0  0  0  0  0
  183.4250  178.8950  138.6510 O   0  0  0  0  0  1  0  0  0  0  0  0
  183.9300  177.4400  136.9520 O   0  0  0  0  0  0  0  0  0  0  0  0
  188.5650  175.6130  137.4760 C   0  0  0  0  0  2  0  0  0  0  0  0
  188.8270  174.0480  135.5880 C   0  0  0  0  0  2  0  0  0  0  0  0
  187.4560  174.6820  135.4630 C   0  0  0  0  0  2  0  0  0  0  0  0
  188.6310  175.5030  135.9630 C   0  0  0  0  0  3  0  0  0  0  0  0
  190.4070  177.3490  141.6760 C   0  0  0  0  0  2  0  0  0  0  0  0
  187.0670  177.0350  144.6810 C   0  0  0  0  0  3  0  0  0  0  0  0
  187.6250  177.4700  145.9030 C   0  0  0  0  0  0  0  0  0  0  0  0
  189.8140  177.1480  144.9770 C   0  0  0  0  0  0  0  0  0  0  0  0
  191.6430  176.6330  143.6600 N   0  0  0  0  0  0  0  0  0  0  0  0
  189.2840  176.7390  143.8020 C   0  0  0  0  0  0  0  0  0  0  0  0
  190.4060  176.4120  142.8740 C   0  0  1  0  0  3  0  0  0  0  0  0
  189.0220  177.5230  146.0620 C   0  0  0  0  0  3  0  0  0  0  0  0
  191.2160  177.1050  144.9200 N   0  0  0  0  0  0  0  0  0  0  0  0
  187.9020  176.6560  143.6150 C   0  0  0  0  0  3  0  0  0  0  0  0
  186.7320  177.8730  147.0340 C   0  0  0  0  0  2  0  0  0  0  0  0
  186.0400  179.4360  145.3720 F   0  0  0  0  0  0  0  0  0  0  0  0
  185.7340  178.9570  146.6360 C   0  0  2  0  0  0  0  0  0  0  0  0
  185.8300  180.0030  147.5570 O   0  0  0  0  0  1  0  0  0  0  0  0
  183.9130  178.6900  145.4580 F   0  0  0  0  0  0  0  0  0  0  0  0
  184.4330  178.4300  146.6490 O   0  0  0  0  0  0  0  0  0  0  0  0
  1 17  1  0  0  0  0
  2  5  1  1  0  0  0
  2  4  1  0  0  0  0
  2  3  1  0  0  0  0
  3  1  1  1  0  0  0
  4  3  1  0  0  0  0
  5  6  1  0  0  0  0
  6  7  2  0  0  0  0
  8  6  1  0  0  0  0
  8  9  2  0  0  0  0
 10  9  1  0  0  0  0
 10 11  1  0  0  0  0
 12 10  2  0  0  0  0
 13  5  1  0  0  0  0
 14 16  1  0  0  0  0
 15 14  1  0  0  0  0
 15 16  1  0  0  0  0
 16 13  1  0  0  0  0
 18 19  1  0  0  0  0
 19 24  2  0  0  0  0
 19 27  1  0  0  0  0
 20 24  1  0  0  0  0
 21 25  2  0  0  0  0
 22 20  2  0  0  0  0
 23 17  1  6  0  0  0
 23 21  1  0  0  0  0
 23 22  1  0  0  0  0
 25 20  1  0  0  0  0
 26 22  1  0  0  0  0
 26 18  2  0  0  0  0
 29 28  1  6  0  0  0
 29 32  1  0  0  0  0
 29 27  1  0  0  0  0
 29 30  1  0  0  0  0
 31 32  1  0  0  0  0
M  END
>  <MODEL>
1

>  <REMARK>
 VINA RESULT:      -7.7      0.000      0.000
  Name = 
  11 active torsions:
  status: ('A' for Active; 'I' for Inactive)
    1  A    between atoms: C_2  and  C_7
    2  A    between atoms: C_5  and  C_24
    3  A    between atoms: C_7  and  C_10
    4  A    between atoms: C_8  and  C_29
    5  A    between atoms: C_9  and  N_16
    6  A    between atoms: C_10  and  O_19
    7  A    between atoms: C_11  and  C_13
    8  A    between atoms: C_13  and  C_31
    9  A    between atoms: N_16  and  C_22
   10  A    between atoms: C_18  and  C_22
   11  A    between atoms: C_23  and  C_31
                            x       y       z     vdW  Elec       q    Type
                         _______ _______ _______ _____ _____    ______ ____

>  <TORSDO>
F 11

$$$$
=
 OpenBabel11062414133D

 32 35  0  0  1  0  0  0  0  0999 V2000
  188.9930  177.0860  140.0710 C   0  0  0  0  0  2  0  0  0  0  0  0
  188.3970  178.1130  137.8050 C   0  0  1  0  0  3  0  0  0  0  0  0
  188.3160  178.2100  139.3000 C   0  0  2  0  0  3  0  0  0  0  0  0
  189.2990  178.8920  138.5580 O   0  0  0  0  0  0  0  0  0  0  0  0
  189.0420  176.8840  137.3270 N   0  0  0  0  0  0  0  0  0  0  0  0
  188.2100  175.7660  136.9330 C   0  0  0  0  0  0  0  0  0  0  0  0
  187.0200  175.7090  137.3470 O   0  0  0  0  0  0  0  0  0  0  0  0
  188.6700  174.6650  136.0630 C   0  0  0  0  0  3  0  0  0  0  0  0
  189.0450  173.4650  136.5010 C   0  0  0  0  0  3  0  0  0  0  0  0
  189.4800  172.4180  135.5750 C   0  0  0  0  0  0  0  0  0  0  0  0
  188.6570  171.5430  135.1990 O   0  0  0  0  0  1  0  0  0  0  0  0
  190.7880  172.3850  135.1000 O   0  0  0  0  0  0  0  0  0  0  0  0
  190.4830  176.9150  137.0820 C   0  0  0  0  0  2  0  0  0  0  0  0
  192.2800  175.2430  137.3320 C   0  0  0  0  0  2  0  0  0  0  0  0
  192.6590  176.4450  138.1740 C   0  0  0  0  0  2  0  0  0  0  0  0
  191.2070  176.0180  138.0710 C   0  0  0  0  0  3  0  0  0  0  0  0
  189.8450  177.6670  141.1840 C   0  0  0  0  0  2  0  0  0  0  0  0
  186.8650  177.1790  144.5260 C   0  0  0  0  0  3  0  0  0  0  0  0
  187.5590  177.5490  145.6990 C   0  0  0  0  0  0  0  0  0  0  0  0
  189.6280  177.2850  144.5160 C   0  0  0  0  0  0  0  0  0  0  0  0
  191.2960  176.8480  142.9740 N   0  0  0  0  0  0  0  0  0  0  0  0
  188.9680  176.9380  143.3870 C   0  0  0  0  0  0  0  0  0  0  0  0
  189.9780  176.6660  142.3220 C   0  0  1  0  0  3  0  0  0  0  0  0
  188.9660  177.5970  145.7020 C   0  0  0  0  0  3  0  0  0  0  0  0
  191.0150  177.2490  144.2980 N   0  0  0  0  0  0  0  0  0  0  0  0
  187.5740  176.8610  143.3530 C   0  0  0  0  0  3  0  0  0  0  0  0
  186.8020  177.8870  146.9440 C   0  0  0  0  0  2  0  0  0  0  0  0
  185.9270  179.5390  145.4660 F   0  0  0  0  0  0  0  0  0  0  0  0
  185.7460  178.9650  146.7130 C   0  0  2  0  0  0  0  0  0  0  0  0
  185.8970  179.9470  147.6960 O   0  0  0  0  0  1  0  0  0  0  0  0
  183.8730  178.6310  145.6380 F   0  0  0  0  0  0  0  0  0  0  0  0
  184.4650  178.3980  146.8010 O   0  0  0  0  0  0  0  0  0  0  0  0
  1 17  1  0  0  0  0
  2  5  1  1  0  0  0
  2  4  1  0  0  0  0
  2  3  1  0  0  0  0
  3  1  1  1  0  0  0
  4  3  1  0  0  0  0
  6  5  1  0  0  0  0
  6  7  2  0  0  0  0
  8  9  2  0  0  0  0
  8  6  1  0  0  0  0
 10  9  1  0  0  0  0
 11 10  1  0  0  0  0
 12 10  2  0  0  0  0
 13  5  1  0  0  0  0
 13 16  1  0  0  0  0
 14 16  1  0  0  0  0
 14 15  1  0  0  0  0
 16 15  1  0  0  0  0
 18 19  1  0  0  0  0
 19 24  2  0  0  0  0
 19 27  1  0  0  0  0
 20 24  1  0  0  0  0
 21 25  2  0  0  0  0
 22 20  2  0  0  0  0
 23 17  1  6  0  0  0
 23 21  1  0  0  0  0
 23 22  1  0  0  0  0
 25 20  1  0  0  0  0
 26 22  1  0  0  0  0
 26 18  2  0  0  0  0
 29 28  1  6  0  0  0
 29 32  1  0  0  0  0
 29 27  1  0  0  0  0
 29 30  1  0  0  0  0
 31 32  1  0  0  0  0
M  END
>  <MODEL>
2

>  <REMARK>
 VINA RESULT:      -7.5      1.770      3.607
  Name = 
  11 active torsions:
  status: ('A' for Active; 'I' for Inactive)
    1  A    between atoms: C_2  and  C_7
    2  A    between atoms: C_5  and  C_24
    3  A    between atoms: C_7  and  C_10
    4  A    between atoms: C_8  and  C_29
    5  A    between atoms: C_9  and  N_16
    6  A    between atoms: C_10  and  O_19
    7  A    between atoms: C_11  and  C_13
    8  A    between atoms: C_13  and  C_31
    9  A    between atoms: N_16  and  C_22
   10  A    between atoms: C_18  and  C_22
   11  A    between atoms: C_23  and  C_31
                            x       y       z     vdW  Elec       q    Type
                         _______ _______ _______ _____ _____    ______ ____

>  <TORSDO>
F 11

$$$$
=
 OpenBabel11062414133D

 32 35  0  0  1  0  0  0  0  0999 V2000
  189.0210  177.6390  139.0760 C   0  0  0  0  0  2  0  0  0  0  0  0
  188.0650  178.7870  136.9990 C   0  0  1  0  0  3  0  0  0  0  0  0
  189.1050  178.7880  138.0820 C   0  0  2  0  0  3  0  0  0  0  0  0
  189.3540  178.2510  136.8050 O   0  0  0  0  0  0  0  0  0  0  0  0
  187.0700  177.7170  137.1370 N   0  0  0  0  0  0  0  0  0  0  0  0
  185.8430  177.9910  137.8530 C   0  0  0  0  0  0  0  0  0  0  0  0
  185.8010  178.9690  138.6490 O   0  0  0  0  0  0  0  0  0  0  0  0
  184.6110  177.1890  137.7140 C   0  0  0  0  0  3  0  0  0  0  0  0
  183.6020  177.1990  138.5830 C   0  0  0  0  0  3  0  0  0  0  0  0
  182.4070  176.3820  138.3720 C   0  0  0  0  0  0  0  0  0  0  0  0
  181.9970  176.1750  137.2000 O   0  0  0  0  0  0  0  0  0  0  0  0
  181.7250  175.8250  139.4500 O   0  0  0  0  0  1  0  0  0  0  0  0
  187.2760  176.4850  136.3750 C   0  0  0  0  0  2  0  0  0  0  0  0
  186.6230  174.1590  136.8710 C   0  0  0  0  0  2  0  0  0  0  0  0
  188.1020  174.1530  136.5440 C   0  0  0  0  0  2  0  0  0  0  0  0
  187.4990  175.3130  137.3150 C   0  0  0  0  0  3  0  0  0  0  0  0
  188.7300  178.1820  140.4640 C   0  0  0  0  0  2  0  0  0  0  0  0
  186.5820  177.3420  144.3320 C   0  0  0  0  0  3  0  0  0  0  0  0
  187.4570  177.7860  145.3470 C   0  0  0  0  0  0  0  0  0  0  0  0
  189.2530  177.7660  143.7570 C   0  0  0  0  0  0  0  0  0  0  0  0
  190.6020  177.5300  141.8950 N   0  0  0  0  0  0  0  0  0  0  0  0
  188.4160  177.3490  142.7790 C   0  0  0  0  0  0  0  0  0  0  0  0
  189.2070  177.1990  141.5220 C   0  0  1  0  0  3  0  0  0  0  0  0
  188.8200  177.9960  145.0620 C   0  0  0  0  0  3  0  0  0  0  0  0
  190.5590  177.8910  143.2580 N   0  0  0  0  0  0  0  0  0  0  0  0
  187.0630  177.1110  143.0310 C   0  0  0  0  0  3  0  0  0  0  0  0
  186.9410  178.0300  146.7300 C   0  0  0  0  0  2  0  0  0  0  0  0
  185.7630  179.7500  145.5760 F   0  0  0  0  0  0  0  0  0  0  0  0
  185.7860  179.0270  146.7560 C   0  0  2  0  0  0  0  0  0  0  0  0
  185.9860  179.9030  147.8260 O   0  0  0  0  0  1  0  0  0  0  0  0
  183.8540  178.5820  145.8380 F   0  0  0  0  0  0  0  0  0  0  0  0
  184.5730  178.3410  146.9250 O   0  0  0  0  0  0  0  0  0  0  0  0
  1 17  1  0  0  0  0
  2  5  1  1  0  0  0
  2  3  1  0  0  0  0
  3  1  1  1  0  0  0
  4  2  1  0  0  0  0
  4  3  1  0  0  0  0
  5  6  1  0  0  0  0
  6  7  2  0  0  0  0
  8  6  1  0  0  0  0
  8  9  2  0  0  0  0
 10  9  1  0  0  0  0
 10 12  1  0  0  0  0
 11 10  2  0  0  0  0
 13  5  1  0  0  0  0
 13 16  1  0  0  0  0
 14 16  1  0  0  0  0
 15 14  1  0  0  0  0
 15 16  1  0  0  0  0
 18 19  1  0  0  0  0
 19 27  1  0  0  0  0
 20 24  1  0  0  0  0
 21 25  2  0  0  0  0
 22 26  1  0  0  0  0
 22 20  2  0  0  0  0
 23 17  1  6  0  0  0
 23 21  1  0  0  0  0
 23 22  1  0  0  0  0
 24 19  2  0  0  0  0
 25 20  1  0  0  0  0
 26 18  2  0  0  0  0
 27 29  1  0  0  0  0
 29 28  1  6  0  0  0
 29 32  1  0  0  0  0
 29 30  1  0  0  0  0
 31 32  1  0  0  0  0
M  END
>  <MODEL>
3

>  <REMARK>
 VINA RESULT:      -7.4      1.571      2.048
  Name = 
  11 active torsions:
  status: ('A' for Active; 'I' for Inactive)
    1  A    between atoms: C_2  and  C_7
    2  A    between atoms: C_5  and  C_24
    3  A    between atoms: C_7  and  C_10
    4  A    between atoms: C_8  and  C_29
    5  A    between atoms: C_9  and  N_16
    6  A    between atoms: C_10  and  O_19
    7  A    between atoms: C_11  and  C_13
    8  A    between atoms: C_13  and  C_31
    9  A    between atoms: N_16  and  C_22
   10  A    between atoms: C_18  and  C_22
   11  A    between atoms: C_23  and  C_31
                            x       y       z     vdW  Elec       q    Type
                         _______ _______ _______ _____ _____    ______ ____

>  <TORSDO>
F 11

$$$$
=
 OpenBabel11062414133D

 32 35  0  0  1  0  0  0  0  0999 V2000
  184.4010  178.0340  140.9440 C   0  0  0  0  0  2  0  0  0  0  0  0
  184.1670  179.0920  138.6270 C   0  0  1  0  0  3  0  0  0  0  0  0
  183.8410  179.1620  140.0900 C   0  0  2  0  0  3  0  0  0  0  0  0
  184.9210  179.8700  139.5290 O   0  0  0  0  0  0  0  0  0  0  0  0
  184.9010  177.8800  138.2430 N   0  0  0  0  0  0  0  0  0  0  0  0
  184.1620  176.7520  137.7190 C   0  0  0  0  0  0  0  0  0  0  0  0
  182.9240  176.6680  137.9480 O   0  0  0  0  0  0  0  0  0  0  0  0
  184.7690  175.6680  136.9200 C   0  0  0  0  0  3  0  0  0  0  0  0
  184.6380  174.3710  137.1870 C   0  0  0  0  0  3  0  0  0  0  0  0
  185.2630  173.3520  136.3420 C   0  0  0  0  0  0  0  0  0  0  0  0
  185.9830  173.7080  135.3730 O   0  0  0  0  0  0  0  0  0  0  0  0
  185.0780  171.9970  136.6040 O   0  0  0  0  0  1  0  0  0  0  0  0
  186.3620  177.9410  138.2190 C   0  0  0  0  0  2  0  0  0  0  0  0
  188.3240  178.8130  137.0040 C   0  0  0  0  0  2  0  0  0  0  0  0
  187.8780  177.5500  136.2960 C   0  0  0  0  0  2  0  0  0  0  0  0
  186.8470  178.4920  136.8900 C   0  0  0  0  0  3  0  0  0  0  0  0
  183.7860  178.0870  142.3310 C   0  0  0  0  0  2  0  0  0  0  0  0
  187.5130  177.2690  144.7230 C   0  0  0  0  0  3  0  0  0  0  0  0
  187.1340  177.4400  146.0730 C   0  0  0  0  0  0  0  0  0  0  0  0
  185.1870  178.6320  145.3370 C   0  0  0  0  0  0  0  0  0  0  0  0
  183.5410  179.7220  144.1330 N   0  0  0  0  0  0  0  0  0  0  0  0
  185.5420  178.4640  144.0420 C   0  0  0  0  0  0  0  0  0  0  0  0
  184.5080  179.1170  143.1870 C   0  0  1  0  0  3  0  0  0  0  0  0
  185.9540  178.1390  146.3910 C   0  0  0  0  0  3  0  0  0  0  0  0
  183.9950  179.3690  145.4210 N   0  0  0  0  0  0  0  0  0  0  0  0
  186.7150  177.7920  143.6900 C   0  0  0  0  0  3  0  0  0  0  0  0
  187.9850  176.8810  147.1680 C   0  0  0  0  0  2  0  0  0  0  0  0
  189.5010  178.4660  146.2350 F   0  0  0  0  0  0  0  0  0  0  0  0
  189.3100  177.6250  147.3190 C   0  0  2  0  0  0  0  0  0  0  0  0
  190.3410  176.6840  147.3560 O   0  0  0  0  0  1  0  0  0  0  0  0
  188.1710  178.0650  149.1310 F   0  0  0  0  0  0  0  0  0  0  0  0
  189.3020  178.3680  148.5100 O   0  0  0  0  0  0  0  0  0  0  0  0
  1 17  1  0  0  0  0
  2  5  1  1  0  0  0
  2  4  1  0  0  0  0
  2  3  1  0  0  0  0
  3  1  1  1  0  0  0
  4  3  1  0  0  0  0
  6  7  2  0  0  0  0
  6  5  1  0  0  0  0
  8  9  2  0  0  0  0
  8  6  1  0  0  0  0
 10 12  1  0  0  0  0
 10  9  1  0  0  0  0
 11 10  2  0  0  0  0
 13  5  1  0  0  0  0
 15 16  1  0  0  0  0
 15 14  1  0  0  0  0
 16 14  1  0  0  0  0
 16 13  1  0  0  0  0
 18 19  1  0  0  0  0
 19 24  2  0  0  0  0
 19 27  1  0  0  0  0
 20 25  1  0  0  0  0
 20 24  1  0  0  0  0
 21 25  2  0  0  0  0
 22 20  2  0  0  0  0
 23 17  1  6  0  0  0
 23 22  1  0  0  0  0
 23 21  1  0  0  0  0
 26 22  1  0  0  0  0
 26 18  2  0  0  0  0
 27 29  1  0  0  0  0
 29 28  1  6  0  0  0
 29 30  1  0  0  0  0
 29 32  1  0  0  0  0
 32 31  1  0  0  0  0
M  END
>  <MODEL>
4

>  <REMARK>
 VINA RESULT:      -7.4      3.624      5.152
  Name = 
  11 active torsions:
  status: ('A' for Active; 'I' for Inactive)
    1  A    between atoms: C_2  and  C_7
    2  A    between atoms: C_5  and  C_24
    3  A    between atoms: C_7  and  C_10
    4  A    between atoms: C_8  and  C_29
    5  A    between atoms: C_9  and  N_16
    6  A    between atoms: C_10  and  O_19
    7  A    between atoms: C_11  and  C_13
    8  A    between atoms: C_13  and  C_31
    9  A    between atoms: N_16  and  C_22
   10  A    between atoms: C_18  and  C_22
   11  A    between atoms: C_23  and  C_31
                            x       y       z     vdW  Elec       q    Type
                         _______ _______ _______ _____ _____    ______ ____

>  <TORSDO>
F 11

$$$$
=
 OpenBabel11062414133D

 32 35  0  0  1  0  0  0  0  0999 V2000
  182.2320  179.1920  142.5320 C   0  0  0  0  0  2  0  0  0  0  0  0
  180.7550  178.3990  140.6000 C   0  0  1  0  0  3  0  0  0  0  0  0
  180.9100  178.5880  142.0800 C   0  0  2  0  0  3  0  0  0  0  0  0
  180.2470  179.5300  141.2710 O   0  0  0  0  0  0  0  0  0  0  0  0
  181.9570  178.7440  139.8310 N   0  0  0  0  0  0  0  0  0  0  0  0
  182.9270  177.7080  139.5480 C   0  0  0  0  0  0  0  0  0  0  0  0
  182.9340  176.6630  140.2550 O   0  0  0  0  0  0  0  0  0  0  0  0
  183.9310  177.7920  138.4680 C   0  0  0  0  0  3  0  0  0  0  0  0
  185.1890  178.1920  138.6390 C   0  0  0  0  0  3  0  0  0  0  0  0
  186.1310  178.2410  137.5200 C   0  0  0  0  0  0  0  0  0  0  0  0
  185.8590  177.6280  136.4540 O   0  0  0  0  0  0  0  0  0  0  0  0
  187.3180  178.9620  137.6170 O   0  0  0  0  0  1  0  0  0  0  0  0
  182.0230  180.0700  139.2170 C   0  0  0  0  0  2  0  0  0  0  0  0
  179.9710  180.6440  137.9760 C   0  0  0  0  0  2  0  0  0  0  0  0
  181.0970  181.4770  137.3980 C   0  0  0  0  0  2  0  0  0  0  0  0
  181.3610  180.0530  137.8510 C   0  0  0  0  0  3  0  0  0  0  0  0
  182.6950  178.5140  143.8090 C   0  0  0  0  0  2  0  0  0  0  0  0
  186.9300  177.6660  142.5330 C   0  0  0  0  0  3  0  0  0  0  0  0
  187.5690  177.1510  143.6830 C   0  0  0  0  0  0  0  0  0  0  0  0
  185.7920  178.0430  145.0250 C   0  0  0  0  0  0  0  0  0  0  0  0
  183.9150  179.1160  145.8410 N   0  0  0  0  0  0  0  0  0  0  0  0
  185.1730  178.5310  143.9260 C   0  0  0  0  0  0  0  0  0  0  0  0
  183.9230  179.2200  144.3630 C   0  0  1  0  0  3  0  0  0  0  0  0
  186.9980  177.3460  144.9540 C   0  0  0  0  0  3  0  0  0  0  0  0
  185.0620  178.3680  146.1790 N   0  0  0  0  0  0  0  0  0  0  0  0
  185.7200  178.3730  142.6500 C   0  0  0  0  0  3  0  0  0  0  0  0
  188.8550  176.3990  143.5530 C   0  0  0  0  0  2  0  0  0  0  0  0
  189.7690  178.5780  143.8620 F   0  0  0  0  0  0  0  0  0  0  0  0
  190.0650  177.2290  143.9720 C   0  0  2  0  0  0  0  0  0  0  0  0
  191.1270  176.9230  143.1170 O   0  0  0  0  0  1  0  0  0  0  0  0
  190.0440  177.9560  146.0330 F   0  0  0  0  0  0  0  0  0  0  0  0
  190.4160  176.9200  145.2960 O   0  0  0  0  0  0  0  0  0  0  0  0
  1 17  1  0  0  0  0
  2  5  1  6  0  0  0
  2  4  1  0  0  0  0
  2  3  1  0  0  0  0
  3  1  1  6  0  0  0
  4  3  1  0  0  0  0
  6  5  1  0  0  0  0
  6  7  2  0  0  0  0
  8  9  2  0  0  0  0
  8  6  1  0  0  0  0
 10 12  1  0  0  0  0
 10  9  1  0  0  0  0
 11 10  2  0  0  0  0
 13  5  1  0  0  0  0
 15 16  1  0  0  0  0
 15 14  1  0  0  0  0
 16 14  1  0  0  0  0
 16 13  1  0  0  0  0
 18 26  2  0  0  0  0
 18 19  1  0  0  0  0
 19 24  2  0  0  0  0
 20 25  1  0  0  0  0
 21 25  2  0  0  0  0
 22 23  1  0  0  0  0
 22 20  2  0  0  0  0
 23 17  1  6  0  0  0
 23 21  1  0  0  0  0
 24 20  1  0  0  0  0
 26 22  1  0  0  0  0
 27 19  1  0  0  0  0
 27 29  1  0  0  0  0
 28 29  1  0  0  0  0
 29 30  1  6  0  0  0
 29 32  1  0  0  0  0
 32 31  1  0  0  0  0
M  END
>  <MODEL>
5

>  <REMARK>
 VINA RESULT:      -7.3      3.867      6.724
  Name = 
  11 active torsions:
  status: ('A' for Active; 'I' for Inactive)
    1  A    between atoms: C_2  and  C_7
    2  A    between atoms: C_5  and  C_24
    3  A    between atoms: C_7  and  C_10
    4  A    between atoms: C_8  and  C_29
    5  A    between atoms: C_9  and  N_16
    6  A    between atoms: C_10  and  O_19
    7  A    between atoms: C_11  and  C_13
    8  A    between atoms: C_13  and  C_31
    9  A    between atoms: N_16  and  C_22
   10  A    between atoms: C_18  and  C_22
   11  A    between atoms: C_23  and  C_31
                            x       y       z     vdW  Elec       q    Type
                         _______ _______ _______ _____ _____    ______ ____

>  <TORSDO>
F 11

$$$$
=
 OpenBabel11062414133D

 32 35  0  0  1  0  0  0  0  0999 V2000
  181.8340  179.3080  142.8010 C   0  0  0  0  0  2  0  0  0  0  0  0
  179.3640  179.5440  142.1750 C   0  0  1  0  0  3  0  0  0  0  0  0
  180.4430  179.7890  143.1890 C   0  0  2  0  0  3  0  0  0  0  0  0
  180.0430  180.7760  142.2680 O   0  0  0  0  0  0  0  0  0  0  0  0
  179.8180  178.7860  141.0030 N   0  0  0  0  0  0  0  0  0  0  0  0
  179.6630  177.3460  140.9990 C   0  0  0  0  0  0  0  0  0  0  0  0
  179.5120  176.7420  142.0950 O   0  0  0  0  0  0  0  0  0  0  0  0
  179.6720  176.5200  139.7740 C   0  0  0  0  0  3  0  0  0  0  0  0
  180.5730  175.5760  139.5090 C   0  0  0  0  0  3  0  0  0  0  0  0
  180.5110  174.7910  138.2760 C   0  0  0  0  0  0  0  0  0  0  0  0
  181.0690  175.2260  137.2350 O   0  0  0  0  0  0  0  0  0  0  0  0
  179.8510  173.5650  138.2440 O   0  0  0  0  0  1  0  0  0  0  0  0
  180.2190  179.5350  139.8130 C   0  0  0  0  0  2  0  0  0  0  0  0
  181.8860  178.9690  138.0850 C   0  0  0  0  0  2  0  0  0  0  0  0
  182.1740  180.3830  138.5450 C   0  0  0  0  0  2  0  0  0  0  0  0
  181.7010  179.3420  139.5420 C   0  0  0  0  0  3  0  0  0  0  0  0
  182.4520  178.5410  143.9550 C   0  0  0  0  0  2  0  0  0  0  0  0
  186.6000  177.8840  142.3300 C   0  0  0  0  0  3  0  0  0  0  0  0
  187.3360  177.3320  143.4010 C   0  0  0  0  0  0  0  0  0  0  0  0
  185.6430  178.1030  144.9140 C   0  0  0  0  0  0  0  0  0  0  0  0
  183.8040  179.0780  145.9210 N   0  0  0  0  0  0  0  0  0  0  0  0
  184.9300  178.6260  143.8900 C   0  0  0  0  0  0  0  0  0  0  0  0
  183.6990  179.2550  144.4530 C   0  0  1  0  0  3  0  0  0  0  0  0
  186.8570  177.4470  144.7200 C   0  0  0  0  0  3  0  0  0  0  0  0
  184.9920  178.3480  146.1340 N   0  0  0  0  0  0  0  0  0  0  0  0
  185.3850  178.5480  142.5720 C   0  0  0  0  0  3  0  0  0  0  0  0
  188.6290  176.6260  143.1390 C   0  0  0  0  0  2  0  0  0  0  0  0
  189.4420  178.8520  142.8840 F   0  0  0  0  0  0  0  0  0  0  0  0
  189.8320  177.5630  143.2060 C   0  0  2  0  0  0  0  0  0  0  0  0
  190.7810  177.1260  142.2770 O   0  0  0  0  0  1  0  0  0  0  0  0
  189.9440  178.6220  145.1130 F   0  0  0  0  0  0  0  0  0  0  0  0
  190.3830  177.5340  144.4970 O   0  0  0  0  0  0  0  0  0  0  0  0
  1 17  1  0  0  0  0
  2  5  1  6  0  0  0
  2  4  1  0  0  0  0
  2  3  1  0  0  0  0
  3  1  1  6  0  0  0
  4  3  1  0  0  0  0
  6  5  1  0  0  0  0
  6  7  2  0  0  0  0
  8  6  1  0  0  0  0
  9  8  2  0  0  0  0
 10  9  1  0  0  0  0
 11 10  2  0  0  0  0
 12 10  1  0  0  0  0
 13  5  1  0  0  0  0
 14 15  1  0  0  0  0
 14 16  1  0  0  0  0
 15 16  1  0  0  0  0
 16 13  1  0  0  0  0
 18 26  2  0  0  0  0
 18 19  1  0  0  0  0
 19 24  2  0  0  0  0
 20 25  1  0  0  0  0
 21 25  2  0  0  0  0
 22 23  1  0  0  0  0
 22 20  2  0  0  0  0
 23 17  1  6  0  0  0
 23 21  1  0  0  0  0
 24 20  1  0  0  0  0
 26 22  1  0  0  0  0
 27 29  1  0  0  0  0
 27 19  1  0  0  0  0
 28 29  1  0  0  0  0
 29 30  1  6  0  0  0
 29 32  1  0  0  0  0
 32 31  1  0  0  0  0
M  END
>  <MODEL>
6

>  <REMARK>
 VINA RESULT:      -7.1      4.778      7.513
  Name = 
  11 active torsions:
  status: ('A' for Active; 'I' for Inactive)
    1  A    between atoms: C_2  and  C_7
    2  A    between atoms: C_5  and  C_24
    3  A    between atoms: C_7  and  C_10
    4  A    between atoms: C_8  and  C_29
    5  A    between atoms: C_9  and  N_16
    6  A    between atoms: C_10  and  O_19
    7  A    between atoms: C_11  and  C_13
    8  A    between atoms: C_13  and  C_31
    9  A    between atoms: N_16  and  C_22
   10  A    between atoms: C_18  and  C_22
   11  A    between atoms: C_23  and  C_31
                            x       y       z     vdW  Elec       q    Type
                         _______ _______ _______ _____ _____    ______ ____

>  <TORSDO>
F 11

$$$$
=
 OpenBabel11062414133D

 32 35  0  0  1  0  0  0  0  0999 V2000
  189.6490  176.7420  139.8570 C   0  0  0  0  0  2  0  0  0  0  0  0
  190.7930  176.2390  137.6250 C   0  0  1  0  0  3  0  0  0  0  0  0
  190.9290  176.7380  139.0340 C   0  0  2  0  0  3  0  0  0  0  0  0
  191.2230  175.4080  138.6800 O   0  0  0  0  0  0  0  0  0  0  0  0
  189.4120  175.9230  137.2410 N   0  0  0  0  0  0  0  0  0  0  0  0
  188.9930  174.5380  137.2210 C   0  0  0  0  0  0  0  0  0  0  0  0
  189.8670  173.6320  137.1540 O   0  0  0  0  0  0  0  0  0  0  0  0
  187.5820  174.1040  137.2730 C   0  0  0  0  0  3  0  0  0  0  0  0
  187.1310  172.9460  136.7940 C   0  0  0  0  0  3  0  0  0  0  0  0
  185.7180  172.5810  136.8910 C   0  0  0  0  0  0  0  0  0  0  0  0
  185.2010  171.8620  135.9960 O   0  0  0  0  0  0  0  0  0  0  0  0
  184.9420  173.0100  137.9640 O   0  0  0  0  0  1  0  0  0  0  0  0
  188.4700  177.0310  137.0910 C   0  0  0  0  0  2  0  0  0  0  0  0
  186.7730  176.9230  135.3040 C   0  0  0  0  0  2  0  0  0  0  0  0
  187.1440  178.3810  135.4880 C   0  0  0  0  0  2  0  0  0  0  0  0
  188.2050  177.3040  135.6210 C   0  0  0  0  0  3  0  0  0  0  0  0
  189.8190  177.6460  141.0650 C   0  0  0  0  0  2  0  0  0  0  0  0
  187.1040  176.9000  144.5810 C   0  0  0  0  0  3  0  0  0  0  0  0
  187.7330  177.5310  145.6770 C   0  0  0  0  0  0  0  0  0  0  0  0
  189.7780  177.5850  144.4250 C   0  0  0  0  0  0  0  0  0  0  0  0
  191.4590  177.3480  142.8540 N   0  0  0  0  0  0  0  0  0  0  0  0
  189.1790  176.9880  143.3700 C   0  0  0  0  0  0  0  0  0  0  0  0
  190.1940  176.8230  142.2880 C   0  0  1  0  0  3  0  0  0  0  0  0
  189.0970  177.8750  145.6050 C   0  0  0  0  0  3  0  0  0  0  0  0
  191.1340  177.8200  144.1440 N   0  0  0  0  0  0  0  0  0  0  0  0
  187.8330  176.6150  143.4120 C   0  0  0  0  0  3  0  0  0  0  0  0
  186.9550  177.8320  146.9170 C   0  0  0  0  0  2  0  0  0  0  0  0
  186.0030  179.4230  145.4190 F   0  0  0  0  0  0  0  0  0  0  0  0
  185.8770  178.8890  146.6910 C   0  0  2  0  0  0  0  0  0  0  0  0
  186.0530  179.9060  147.6330 O   0  0  0  0  0  1  0  0  0  0  0  0
  183.9160  178.6300  145.7620 F   0  0  0  0  0  0  0  0  0  0  0  0
  184.6070  178.3110  146.8470 O   0  0  0  0  0  0  0  0  0  0  0  0
  1 17  1  0  0  0  0
  2  5  1  1  0  0  0
  2  4  1  0  0  0  0
  2  3  1  0  0  0  0
  3  1  1  1  0  0  0
  4  3  1  0  0  0  0
  6  5  1  0  0  0  0
  6  8  1  0  0  0  0
  7  6  2  0  0  0  0
  9 10  1  0  0  0  0
  9  8  2  0  0  0  0
 10 12  1  0  0  0  0
 11 10  2  0  0  0  0
 13  5  1  0  0  0  0
 14 15  1  0  0  0  0
 14 16  1  0  0  0  0
 15 16  1  0  0  0  0
 16 13  1  0  0  0  0
 18 19  1  0  0  0  0
 19 27  1  0  0  0  0
 20 24  1  0  0  0  0
 21 25  2  0  0  0  0
 22 26  1  0  0  0  0
 22 20  2  0  0  0  0
 23 17  1  6  0  0  0
 23 21  1  0  0  0  0
 23 22  1  0  0  0  0
 24 19  2  0  0  0  0
 25 20  1  0  0  0  0
 26 18  2  0  0  0  0
 29 28  1  6  0  0  0
 29 32  1  0  0  0  0
 29 27  1  0  0  0  0
 29 30  1  0  0  0  0
 31 32  1  0  0  0  0
M  END
>  <MODEL>
7

>  <REMARK>
 VINA RESULT:      -6.9      2.033      2.821
  Name = 
  11 active torsions:
  status: ('A' for Active; 'I' for Inactive)
    1  A    between atoms: C_2  and  C_7
    2  A    between atoms: C_5  and  C_24
    3  A    between atoms: C_7  and  C_10
    4  A    between atoms: C_8  and  C_29
    5  A    between atoms: C_9  and  N_16
    6  A    between atoms: C_10  and  O_19
    7  A    between atoms: C_11  and  C_13
    8  A    between atoms: C_13  and  C_31
    9  A    between atoms: N_16  and  C_22
   10  A    between atoms: C_18  and  C_22
   11  A    between atoms: C_23  and  C_31
                            x       y       z     vdW  Elec       q    Type
                         _______ _______ _______ _____ _____    ______ ____

>  <TORSDO>
F 11

$$$$
=
 OpenBabel11062414133D

 32 35  0  0  1  0  0  0  0  0999 V2000
  190.3050  176.5240  139.9100 C   0  0  0  0  0  2  0  0  0  0  0  0
  190.2760  176.9380  137.3850 C   0  0  1  0  0  3  0  0  0  0  0  0
  191.0930  176.7940  138.6360 C   0  0  2  0  0  3  0  0  0  0  0  0
  190.8850  175.7200  137.7510 O   0  0  0  0  0  0  0  0  0  0  0  0
  188.8280  176.8870  137.6170 N   0  0  0  0  0  0  0  0  0  0  0  0
  188.1020  178.1290  137.7800 C   0  0  0  0  0  0  0  0  0  0  0  0
  188.7340  179.1730  138.0970 O   0  0  0  0  0  0  0  0  0  0  0  0
  186.6420  178.2590  137.5970 C   0  0  0  0  0  3  0  0  0  0  0  0
  185.7540  178.2460  138.5890 C   0  0  0  0  0  3  0  0  0  0  0  0
  184.3210  178.3910  138.3310 C   0  0  0  0  0  0  0  0  0  0  0  0
  183.6720  179.2880  138.9280 O   0  0  0  0  0  1  0  0  0  0  0  0
  183.6720  177.5550  137.4260 O   0  0  0  0  0  0  0  0  0  0  0  0
  188.1540  175.5960  137.4740 C   0  0  0  0  0  2  0  0  0  0  0  0
  187.4370  173.8510  135.8860 C   0  0  0  0  0  2  0  0  0  0  0  0
  186.4500  174.9950  135.7760 C   0  0  0  0  0  2  0  0  0  0  0  0
  187.9220  175.2820  136.0060 C   0  0  0  0  0  3  0  0  0  0  0  0
  191.0120  177.1560  141.0950 C   0  0  0  0  0  2  0  0  0  0  0  0
  190.6340  177.5310  145.5670 C   0  0  0  0  0  3  0  0  0  0  0  0
  189.3110  177.1340  145.8630 C   0  0  0  0  0  0  0  0  0  0  0  0
  188.7400  177.4450  143.5540 C   0  0  0  0  0  0  0  0  0  0  0  0
  188.7030  177.9350  141.2950 N   0  0  0  0  0  0  0  0  0  0  0  0
  190.0080  177.8180  143.2640 C   0  0  0  0  0  0  0  0  0  0  0  0
  190.0810  178.1260  141.8060 C   0  0  1  0  0  3  0  0  0  0  0  0
  188.3410  177.0950  144.8430 C   0  0  0  0  0  3  0  0  0  0  0  0
  187.9430  177.4960  142.3990 N   0  0  0  0  0  0  0  0  0  0  0  0
  190.9910  177.8860  144.2540 C   0  0  0  0  0  3  0  0  0  0  0  0
  188.9360  176.7560  147.2600 C   0  0  0  0  0  2  0  0  0  0  0  0
  189.4310  178.7770  148.4220 F   0  0  0  0  0  0  0  0  0  0  0  0
  188.3920  177.9370  148.0610 C   0  0  2  0  0  0  0  0  0  0  0  0
  187.7810  177.4410  149.2160 O   0  0  0  0  0  1  0  0  0  0  0  0
  186.2820  178.0510  147.5030 F   0  0  0  0  0  0  0  0  0  0  0  0
  187.4510  178.6380  147.2900 O   0  0  0  0  0  0  0  0  0  0  0  0
  1 17  1  0  0  0  0
  2  5  1  1  0  0  0
  2  4  1  0  0  0  0
  2  3  1  0  0  0  0
  3  1  1  1  0  0  0
  4  3  1  0  0  0  0
  5  6  1  0  0  0  0
  6  7  2  0  0  0  0
  8  6  1  0  0  0  0
  8  9  2  0  0  0  0
 10  9  1  0  0  0  0
 10 11  1  0  0  0  0
 12 10  2  0  0  0  0
 13  5  1  0  0  0  0
 14 16  1  0  0  0  0
 15 14  1  0  0  0  0
 15 16  1  0  0  0  0
 16 13  1  0  0  0  0
 18 19  1  0  0  0  0
 19 27  1  0  0  0  0
 20 24  1  0  0  0  0
 21 23  1  0  0  0  0
 21 25  2  0  0  0  0
 22 20  2  0  0  0  0
 22 26  1  0  0  0  0
 23 17  1  6  0  0  0
 23 22  1  0  0  0  0
 24 19  2  0  0  0  0
 25 20  1  0  0  0  0
 26 18  2  0  0  0  0
 27 29  1  0  0  0  0
 29 28  1  1  0  0  0
 29 30  1  0  0  0  0
 32 31  1  0  0  0  0
 32 29  1  0  0  0  0
M  END
>  <MODEL>
8

>  <REMARK>
 VINA RESULT:      -6.9      1.729      2.173
  Name = 
  11 active torsions:
  status: ('A' for Active; 'I' for Inactive)
    1  A    between atoms: C_2  and  C_7
    2  A    between atoms: C_5  and  C_24
    3  A    between atoms: C_7  and  C_10
    4  A    between atoms: C_8  and  C_29
    5  A    between atoms: C_9  and  N_16
    6  A    between atoms: C_10  and  O_19
    7  A    between atoms: C_11  and  C_13
    8  A    between atoms: C_13  and  C_31
    9  A    between atoms: N_16  and  C_22
   10  A    between atoms: C_18  and  C_22
   11  A    between atoms: C_23  and  C_31
                            x       y       z     vdW  Elec       q    Type
                         _______ _______ _______ _____ _____    ______ ____

>  <TORSDO>
F 11

$$$$
=
 OpenBabel11062414133D

 32 35  0  0  1  0  0  0  0  0999 V2000
  189.0710  177.1300  140.0290 C   0  0  0  0  0  2  0  0  0  0  0  0
  187.4090  177.9770  138.2780 C   0  0  1  0  0  3  0  0  0  0  0  0
  187.8760  178.0140  139.7040 C   0  0  2  0  0  3  0  0  0  0  0  0
  188.2810  178.9750  138.7580 O   0  0  0  0  0  0  0  0  0  0  0  0
  188.1330  177.0090  137.4450 N   0  0  0  0  0  0  0  0  0  0  0  0
  189.2780  177.4620  136.6830 C   0  0  0  0  0  0  0  0  0  0  0  0
  189.4060  178.6930  136.4400 O   0  0  0  0  0  0  0  0  0  0  0  0
  190.3250  176.5630  136.1580 C   0  0  0  0  0  3  0  0  0  0  0  0
  191.4810  176.3140  136.7710 C   0  0  0  0  0  3  0  0  0  0  0  0
  192.4680  175.4020  136.1930 C   0  0  0  0  0  0  0  0  0  0  0  0
  192.1030  174.2650  135.7950 O   0  0  0  0  0  0  0  0  0  0  0  0
  193.8030  175.7790  136.0710 O   0  0  0  0  0  1  0  0  0  0  0  0
  187.7880  175.5940  137.5780 C   0  0  0  0  0  2  0  0  0  0  0  0
  186.7600  175.3900  135.3450 C   0  0  0  0  0  2  0  0  0  0  0  0
  186.6730  174.0310  136.0090 C   0  0  0  0  0  2  0  0  0  0  0  0
  186.4980  175.2930  136.8350 C   0  0  0  0  0  3  0  0  0  0  0  0
  189.9050  177.7750  141.1210 C   0  0  0  0  0  2  0  0  0  0  0  0
  187.0260  177.1290  144.5230 C   0  0  0  0  0  3  0  0  0  0  0  0
  187.7160  177.5530  145.6800 C   0  0  0  0  0  0  0  0  0  0  0  0
  189.7750  177.4110  144.4590 C   0  0  0  0  0  0  0  0  0  0  0  0
  191.4380  177.0680  142.8890 N   0  0  0  0  0  0  0  0  0  0  0  0
  189.1180  177.0120  143.3460 C   0  0  0  0  0  0  0  0  0  0  0  0
  190.1230  176.7960  142.2640 C   0  0  1  0  0  3  0  0  0  0  0  0
  189.1170  177.6910  145.6550 C   0  0  0  0  0  3  0  0  0  0  0  0
  191.1580  177.4620  144.2140 N   0  0  0  0  0  0  0  0  0  0  0  0
  187.7310  176.8450  143.3400 C   0  0  0  0  0  3  0  0  0  0  0  0
  186.9620  177.8540  146.9360 C   0  0  0  0  0  2  0  0  0  0  0  0
  185.9940  179.4630  145.4680 F   0  0  0  0  0  0  0  0  0  0  0  0
  185.8730  178.9030  146.7290 C   0  0  2  0  0  0  0  0  0  0  0  0
  186.0380  179.9030  147.6910 O   0  0  0  0  0  1  0  0  0  0  0  0
  183.8710  178.7540  145.8670 F   0  0  0  0  0  0  0  0  0  0  0  0
  184.6100  178.3090  146.8730 O   0  0  0  0  0  0  0  0  0  0  0  0
  1 17  1  0  0  0  0
  2  5  1  6  0  0  0
  2  4  1  0  0  0  0
  2  3  1  0  0  0  0
  3  1  1  6  0  0  0
  4  3  1  0  0  0  0
  5 13  1  0  0  0  0
  6  5  1  0  0  0  0
  7  6  2  0  0  0  0
  8  6  1  0  0  0  0
  8  9  2  0  0  0  0
 10  9  1  0  0  0  0
 11 10  2  0  0  0  0
 12 10  1  0  0  0  0
 14 15  1  0  0  0  0
 14 16  1  0  0  0  0
 15 16  1  0  0  0  0
 16 13  1  0  0  0  0
 18 19  1  0  0  0  0
 19 27  1  0  0  0  0
 20 24  1  0  0  0  0
 21 25  2  0  0  0  0
 22 20  2  0  0  0  0
 23 17  1  6  0  0  0
 23 21  1  0  0  0  0
 23 22  1  0  0  0  0
 24 19  2  0  0  0  0
 25 20  1  0  0  0  0
 26 22  1  0  0  0  0
 26 18  2  0  0  0  0
 29 28  1  6  0  0  0
 29 32  1  0  0  0  0
 29 27  1  0  0  0  0
 29 30  1  0  0  0  0
 31 32  1  0  0  0  0
M  END
>  <MODEL>
9

>  <REMARK>
 VINA RESULT:      -6.9      1.744      3.584
  Name = 
  11 active torsions:
  status: ('A' for Active; 'I' for Inactive)
    1  A    between atoms: C_2  and  C_7
    2  A    between atoms: C_5  and  C_24
    3  A    between atoms: C_7  and  C_10
    4  A    between atoms: C_8  and  C_29
    5  A    between atoms: C_9  and  N_16
    6  A    between atoms: C_10  and  O_19
    7  A    between atoms: C_11  and  C_13
    8  A    between atoms: C_13  and  C_31
    9  A    between atoms: N_16  and  C_22
   10  A    between atoms: C_18  and  C_22
   11  A    between atoms: C_23  and  C_31
                            x       y       z     vdW  Elec       q    Type
                         _______ _______ _______ _____ _____    ______ ____

>  <TORSDO>
F 11

$$$$
