=
 OpenBabel11062416533D

 34 37  0  0  1  0  0  0  0  0999 V2000
  185.6380  177.9400  145.9550 C   0  0  2  0  0  3  0  0  0  0  0  0
  191.6020  176.5450  147.4100 O   0  0  0  0  0  0  0  0  0  0  0  0
  190.6790  176.2170  146.4300 N   0  0  2  0  0  0  0  0  0  0  0  0
  187.2890  178.6410  147.6550 C   0  0  0  0  0  3  0  0  0  0  0  0
  188.1260  177.4530  145.6040 C   0  0  2  0  0  3  0  0  0  0  0  0
  186.0300  179.0280  146.9440 C   0  0  0  0  0  2  0  0  0  0  0  0
  186.7690  177.7430  144.9420 C   0  0  1  0  0  3  0  0  0  0  0  0
  188.2820  177.9760  147.0440 C   0  0  0  0  0  0  0  0  0  0  0  0
  186.4550  176.7060  144.0620 O   0  0  0  0  0  1  0  0  0  0  0  0
  191.1680  176.5160  145.0990 C   0  0  0  0  0  2  0  0  0  0  0  0
  190.7050  177.5070  147.0710 C   0  0  1  0  0  3  0  0  0  0  0  0
  189.4520  177.5660  147.9100 C   0  0  0  0  0  2  0  0  0  0  0  0
  189.9580  176.8340  144.2060 C   0  0  1  0  0  3  0  0  0  0  0  0
  189.1880  177.9650  144.7350 N   0  0  0  0  0  2  0  0  0  0  0  0
  189.8930  177.6100  140.4830 C   0  0  0  0  0  0  0  0  0  0  0  0
  189.4630  177.3450  141.7870 C   0  0  0  0  0  3  0  0  0  0  0  0
  191.2620  177.6450  140.1960 C   0  0  0  0  0  3  0  0  0  0  0  0
  190.3980  177.1190  142.8070 C   0  0  0  0  0  0  0  0  0  0  0  0
  191.7650  177.1590  142.5150 C   0  0  0  0  0  3  0  0  0  0  0  0
  192.1980  177.4210  141.2110 C   0  0  0  0  0  3  0  0  0  0  0  0
  188.7210  177.8830  139.2070 S   0  0  0  0  0  0  0  0  0  0  0  0
  187.3500  178.0360  139.8040 O   0  0  0  0  0  0  0  0  0  0  0  0
  188.7110  176.5340  138.1270 N   0  0  0  0  0  1  0  0  0  0  0  0
  189.0830  179.1280  138.4500 O   0  0  0  0  0  0  0  0  0  0  0  0
  184.3110  178.2750  145.2760 C   0  0  0  0  0  2  0  0  0  0  0  0
  184.4210  179.7550  144.2160 S   0  0  0  0  0  0  0  0  0  0  0  0
  183.6620  178.8810  142.8090 C   0  0  0  0  0  2  0  0  0  0  0  0
  185.6940  179.6450  141.7550 O   0  0  0  0  0  1  0  0  0  0  0  0
  184.5910  178.8010  141.6000 C   0  0  2  0  0  3  0  0  0  0  0  0
  184.5480  179.9890  139.4950 O   0  0  0  0  0  1  0  0  0  0  0  0
  183.8580  179.0650  140.2850 C   0  0  1  0  0  3  0  0  0  0  0  0
  183.6510  177.7930  139.5310 C   0  0  0  0  0  0  0  0  0  0  0  0
  182.9940  176.8460  140.0410 O   0  0  0  0  0  1  0  0  0  0  0  0
  184.1590  177.6660  138.2450 O   0  0  0  0  0  0  0  0  0  0  0  0
  1 25  1  6  0  0  0
  1  6  1  0  0  0  0
  3 10  1  6  0  0  0
  3 11  1  0  0  0  0
  3  2  1  0  0  0  0
  5 14  1  6  0  0  0
  5  8  1  0  0  0  0
  6  4  1  0  0  0  0
  7  9  1  6  0  0  0
  7  5  1  0  0  0  0
  7  1  1  0  0  0  0
  8  4  2  0  0  0  0
  8 12  1  0  0  0  0
 11  2  1  0  0  0  0
 11 12  1  1  0  0  0
 13 18  1  6  0  0  0
 13 14  1  0  0  0  0
 13 10  1  0  0  0  0
 15 16  1  0  0  0  0
 16 18  2  0  0  0  0
 17 15  2  0  0  0  0
 17 20  1  0  0  0  0
 19 18  1  0  0  0  0
 20 19  2  0  0  0  0
 21 22  2  0  0  0  0
 21 15  1  0  0  0  0
 23 21  1  0  0  0  0
 24 21  2  0  0  0  0
 26 25  1  0  0  0  0
 27 26  1  0  0  0  0
 29 28  1  1  0  0  0
 29 27  1  0  0  0  0
 31 30  1  6  0  0  0
 31 29  1  0  0  0  0
 32 33  1  0  0  0  0
 32 31  1  0  0  0  0
 34 32  2  0  0  0  0
M  END
>  <MODEL>
1

>  <REMARK>
 VINA RESULT:      -8.7      0.000      0.000
  Name = 
  8 active torsions:
  status: ('A' for Active; 'I' for Inactive)
    1  A    between atoms: C_1  and  S_9
    2  A    between atoms: C_4  and  C_11
    3  A    between atoms: C_5  and  C_32
    4  A    between atoms: C_8  and  C_18
    5  A    between atoms: C_11  and  S_27
    6  A    between atoms: C_18  and  C_33
    7  A    between atoms: S_27  and  C_30
    8  A    between atoms: C_30  and  C_33
                            x       y       z     vdW  Elec       q    Type
                         _______ _______ _______ _____ _____    ______ ____

>  <TORSDO>
F 8

$$$$
=
 OpenBabel11062416533D

 34 37  0  0  1  0  0  0  0  0999 V2000
  189.2740  177.4490  142.4020 C   0  0  2  0  0  3  0  0  0  0  0  0
  185.4310  179.0230  147.1330 O   0  0  0  0  0  0  0  0  0  0  0  0
  185.6180  179.3640  145.8030 N   0  0  2  0  0  0  0  0  0  0  0  0
  188.9010  176.7290  144.7360 C   0  0  0  0  0  3  0  0  0  0  0  0
  187.0990  178.0640  143.6010 C   0  0  2  0  0  3  0  0  0  0  0  0
  189.4670  176.3260  143.4100 C   0  0  0  0  0  2  0  0  0  0  0  0
  187.7790  177.7510  142.2590 C   0  0  1  0  0  3  0  0  0  0  0  0
  187.7880  177.4690  144.8440 C   0  0  0  0  0  0  0  0  0  0  0  0
  187.5840  178.8210  141.3830 O   0  0  0  0  0  1  0  0  0  0  0  0
  184.4180  179.1610  145.0150 C   0  0  0  0  0  2  0  0  0  0  0  0
  185.8870  178.0430  146.3110 C   0  0  1  0  0  3  0  0  0  0  0  0
  187.3860  177.8820  146.2420 C   0  0  0  0  0  2  0  0  0  0  0  0
  184.8430  178.8400  143.5730 C   0  0  1  0  0  3  0  0  0  0  0  0
  185.6970  177.6480  143.5220 N   0  0  0  0  0  2  0  0  0  0  0  0
  182.6290  177.9470  140.6110 C   0  0  0  0  0  0  0  0  0  0  0  0
  183.7630  178.1150  141.4120 C   0  0  0  0  0  3  0  0  0  0  0  0
  181.3730  178.3220  141.0980 C   0  0  0  0  0  3  0  0  0  0  0  0
  183.6440  178.6520  142.7020 C   0  0  0  0  0  0  0  0  0  0  0  0
  182.3840  179.0220  143.1840 C   0  0  0  0  0  3  0  0  0  0  0  0
  181.2490  178.8570  142.3830 C   0  0  0  0  0  3  0  0  0  0  0  0
  182.7840  177.2830  138.9950 S   0  0  0  0  0  0  0  0  0  0  0  0
  182.8260  175.7820  139.0660 O   0  0  0  0  0  0  0  0  0  0  0  0
  184.2480  177.8480  138.2700 N   0  0  0  0  0  1  0  0  0  0  0  0
  181.6130  177.7160  138.1600 O   0  0  0  0  0  0  0  0  0  0  0  0
  189.9180  177.0930  141.0620 C   0  0  0  0  0  2  0  0  0  0  0  0
  191.7100  177.4300  141.0350 S   0  0  0  0  0  0  0  0  0  0  0  0
  191.8240  177.0200  139.2630 C   0  0  0  0  0  2  0  0  0  0  0  0
  190.5140  175.1840  138.4060 O   0  0  0  0  0  1  0  0  0  0  0  0
  190.4910  176.5530  138.6840 C   0  0  2  0  0  3  0  0  0  0  0  0
  189.7910  176.5440  136.3700 O   0  0  0  0  0  1  0  0  0  0  0  0
  190.0690  177.3700  137.4620 C   0  0  1  0  0  3  0  0  0  0  0  0
  188.8860  178.2230  137.7800 C   0  0  0  0  0  0  0  0  0  0  0  0
  187.8340  177.7090  138.2470 O   0  0  0  0  0  1  0  0  0  0  0  0
  188.9580  179.5960  137.5910 O   0  0  0  0  0  0  0  0  0  0  0  0
  1 25  1  6  0  0  0
  1  6  1  0  0  0  0
  3 10  1  6  0  0  0
  3 11  1  0  0  0  0
  3  2  1  0  0  0  0
  4  8  2  0  0  0  0
  5 14  1  6  0  0  0
  5  8  1  0  0  0  0
  6  4  1  0  0  0  0
  7  9  1  6  0  0  0
  7  1  1  0  0  0  0
  7  5  1  0  0  0  0
  8 12  1  0  0  0  0
 11 12  1  1  0  0  0
 11  2  1  0  0  0  0
 13 18  1  6  0  0  0
 13 10  1  0  0  0  0
 14 13  1  0  0  0  0
 15 17  2  0  0  0  0
 15 16  1  0  0  0  0
 16 18  2  0  0  0  0
 17 20  1  0  0  0  0
 18 19  1  0  0  0  0
 20 19  2  0  0  0  0
 21 22  2  0  0  0  0
 21 15  1  0  0  0  0
 23 21  1  0  0  0  0
 24 21  2  0  0  0  0
 26 25  1  0  0  0  0
 27 26  1  0  0  0  0
 29 28  1  6  0  0  0
 29 27  1  0  0  0  0
 31 30  1  6  0  0  0
 31 32  1  0  0  0  0
 31 29  1  0  0  0  0
 32 33  1  0  0  0  0
 34 32  2  0  0  0  0
M  END
>  <MODEL>
2

>  <REMARK>
 VINA RESULT:      -8.6      2.752      6.396
  Name = 
  8 active torsions:
  status: ('A' for Active; 'I' for Inactive)
    1  A    between atoms: C_1  and  S_9
    2  A    between atoms: C_4  and  C_11
    3  A    between atoms: C_5  and  C_32
    4  A    between atoms: C_8  and  C_18
    5  A    between atoms: C_11  and  S_27
    6  A    between atoms: C_18  and  C_33
    7  A    between atoms: S_27  and  C_30
    8  A    between atoms: C_30  and  C_33
                            x       y       z     vdW  Elec       q    Type
                         _______ _______ _______ _____ _____    ______ ____

>  <TORSDO>
F 8

$$$$
=
 OpenBabel11062416533D

 34 37  0  0  1  0  0  0  0  0999 V2000
  186.2110  177.7900  146.2760 C   0  0  2  0  0  3  0  0  0  0  0  0
  192.1890  175.9520  145.5650 O   0  0  0  0  0  0  0  0  0  0  0  0
  190.9790  175.7900  144.9110 N   0  0  2  0  0  0  0  0  0  0  0  0
  188.3680  178.2000  147.4080 C   0  0  0  0  0  3  0  0  0  0  0  0
  188.4080  177.2350  145.0880 C   0  0  2  0  0  3  0  0  0  0  0  0
  186.9860  178.7300  147.1880 C   0  0  0  0  0  2  0  0  0  0  0  0
  186.9410  177.6670  144.9350 C   0  0  1  0  0  3  0  0  0  0  0  0
  189.0560  177.5700  146.4450 C   0  0  0  0  0  0  0  0  0  0  0  0
  186.2780  176.7620  144.1050 O   0  0  0  0  0  1  0  0  0  0  0  0
  191.0440  176.2270  143.5300 C   0  0  0  0  0  2  0  0  0  0  0  0
  191.3150  176.9880  145.6350 C   0  0  1  0  0  3  0  0  0  0  0  0
  190.4020  177.0020  146.8370 C   0  0  0  0  0  2  0  0  0  0  0  0
  189.6440  176.7080  143.1160 C   0  0  1  0  0  3  0  0  0  0  0  0
  189.1790  177.8000  143.9780 N   0  0  0  0  0  2  0  0  0  0  0  0
  190.5070  177.0010  139.4230 C   0  0  0  0  0  0  0  0  0  0  0  0
  190.5270  176.5820  140.7570 C   0  0  0  0  0  3  0  0  0  0  0  0
  189.6010  177.9860  139.0170 C   0  0  0  0  0  3  0  0  0  0  0  0
  189.6390  177.1420  141.6860 C   0  0  0  0  0  0  0  0  0  0  0  0
  188.7320  178.1240  141.2730 C   0  0  0  0  0  3  0  0  0  0  0  0
  188.7130  178.5460  139.9400 C   0  0  0  0  0  3  0  0  0  0  0  0
  191.6270  176.3060  138.2660 S   0  0  0  0  0  0  0  0  0  0  0  0
  191.4990  174.8080  138.2740 O   0  0  0  0  0  0  0  0  0  0  0  0
  193.2470  176.7300  138.6940 N   0  0  0  0  0  1  0  0  0  0  0  0
  191.3190  176.8300  136.8920 O   0  0  0  0  0  0  0  0  0  0  0  0
  184.7690  178.2690  146.1020 C   0  0  0  0  0  2  0  0  0  0  0  0
  184.6030  179.5310  144.7960 S   0  0  0  0  0  0  0  0  0  0  0  0
  183.2580  178.6060  143.9860 C   0  0  0  0  0  2  0  0  0  0  0  0
  181.7730  178.8840  142.1050 O   0  0  0  0  0  1  0  0  0  0  0  0
  183.1080  178.9640  142.5100 C   0  0  2  0  0  3  0  0  0  0  0  0
  183.2890  177.4440  140.6390 O   0  0  0  0  0  1  0  0  0  0  0  0
  184.0210  178.1280  141.6130 C   0  0  1  0  0  3  0  0  0  0  0  0
  185.0590  178.9870  140.9710 C   0  0  0  0  0  0  0  0  0  0  0  0
  185.1850  179.0110  139.7170 O   0  0  0  0  0  0  0  0  0  0  0  0
  185.8710  179.7910  141.7600 O   0  0  0  0  0  1  0  0  0  0  0  0
  1 25  1  6  0  0  0
  1  6  1  0  0  0  0
  2 11  1  0  0  0  0
  3 10  1  6  0  0  0
  3  2  1  0  0  0  0
  3 11  1  0  0  0  0
  5 14  1  6  0  0  0
  5  8  1  0  0  0  0
  6  4  1  0  0  0  0
  7  9  1  6  0  0  0
  7  5  1  0  0  0  0
  7  1  1  0  0  0  0
  8 12  1  0  0  0  0
  8  4  2  0  0  0  0
 11 12  1  1  0  0  0
 13 18  1  6  0  0  0
 13 10  1  0  0  0  0
 13 14  1  0  0  0  0
 15 16  1  0  0  0  0
 16 18  2  0  0  0  0
 17 15  2  0  0  0  0
 17 20  1  0  0  0  0
 19 18  1  0  0  0  0
 20 19  2  0  0  0  0
 21 22  2  0  0  0  0
 21 23  1  0  0  0  0
 21 15  1  0  0  0  0
 24 21  2  0  0  0  0
 26 25  1  0  0  0  0
 27 26  1  0  0  0  0
 29 28  1  6  0  0  0
 29 27  1  0  0  0  0
 31 30  1  6  0  0  0
 31 29  1  0  0  0  0
 32 31  1  0  0  0  0
 32 34  1  0  0  0  0
 33 32  2  0  0  0  0
M  END
>  <MODEL>
3

>  <REMARK>
 VINA RESULT:      -8.5      1.797      2.441
  Name = 
  8 active torsions:
  status: ('A' for Active; 'I' for Inactive)
    1  A    between atoms: C_1  and  S_9
    2  A    between atoms: C_4  and  C_11
    3  A    between atoms: C_5  and  C_32
    4  A    between atoms: C_8  and  C_18
    5  A    between atoms: C_11  and  S_27
    6  A    between atoms: C_18  and  C_33
    7  A    between atoms: S_27  and  C_30
    8  A    between atoms: C_30  and  C_33
                            x       y       z     vdW  Elec       q    Type
                         _______ _______ _______ _____ _____    ______ ____

>  <TORSDO>
F 8

$$$$
=
 OpenBabel11062416533D

 34 37  0  0  1  0  0  0  0  0999 V2000
  188.4930  177.8840  141.9100 C   0  0  2  0  0  3  0  0  0  0  0  0
  185.2470  178.8390  147.2180 O   0  0  0  0  0  0  0  0  0  0  0  0
  185.2490  179.3100  145.9160 N   0  0  2  0  0  0  0  0  0  0  0  0
  188.4480  176.9330  144.1890 C   0  0  0  0  0  3  0  0  0  0  0  0
  186.4730  178.2890  143.4280 C   0  0  2  0  0  3  0  0  0  0  0  0
  188.8510  176.6810  142.7700 C   0  0  0  0  0  2  0  0  0  0  0  0
  186.9840  178.1330  141.9870 C   0  0  1  0  0  3  0  0  0  0  0  0
  187.3360  177.6100  144.5090 C   0  0  0  0  0  0  0  0  0  0  0  0
  186.6430  179.2700  141.2510 O   0  0  0  0  0  1  0  0  0  0  0  0
  183.9650  179.1300  145.2690 C   0  0  0  0  0  2  0  0  0  0  0  0
  185.6230  177.9610  146.2530 C   0  0  1  0  0  3  0  0  0  0  0  0
  187.1050  177.8730  145.9810 C   0  0  0  0  0  2  0  0  0  0  0  0
  184.2090  178.9630  143.7600 C   0  0  1  0  0  3  0  0  0  0  0  0
  185.0870  177.8200  143.4850 N   0  0  0  0  0  2  0  0  0  0  0  0
  181.6610  178.4580  140.9820 C   0  0  0  0  0  0  0  0  0  0  0  0
  182.8840  178.6030  141.6450 C   0  0  0  0  0  3  0  0  0  0  0  0
  180.4650  178.5220  141.7040 C   0  0  0  0  0  3  0  0  0  0  0  0
  182.9140  178.8060  143.0320 C   0  0  0  0  0  0  0  0  0  0  0  0
  181.7150  178.8650  143.7500 C   0  0  0  0  0  3  0  0  0  0  0  0
  180.4920  178.7230  143.0880 C   0  0  0  0  0  3  0  0  0  0  0  0
  181.6270  178.2140  139.2450 S   0  0  0  0  0  0  0  0  0  0  0  0
  182.9700  178.5490  138.6600 O   0  0  0  0  0  0  0  0  0  0  0  0
  180.4350  179.2440  138.5350 N   0  0  0  0  0  1  0  0  0  0  0  0
  181.2910  176.7800  138.9460 O   0  0  0  0  0  0  0  0  0  0  0  0
  188.9690  177.6830  140.4710 C   0  0  0  0  0  2  0  0  0  0  0  0
  190.5610  176.7990  140.3770 S   0  0  0  0  0  0  0  0  0  0  0  0
  190.6440  177.0100  138.5690 C   0  0  0  0  0  2  0  0  0  0  0  0
  189.3380  175.2780  137.5130 O   0  0  0  0  0  1  0  0  0  0  0  0
  189.3390  176.6280  137.8750 C   0  0  2  0  0  3  0  0  0  0  0  0
  188.2640  176.8620  135.7230 O   0  0  0  0  0  1  0  0  0  0  0  0
  189.0270  177.5320  136.6830 C   0  0  1  0  0  3  0  0  0  0  0  0
  188.3220  178.7700  137.1300 C   0  0  0  0  0  0  0  0  0  0  0  0
  188.9730  179.8150  137.4020 O   0  0  0  0  0  1  0  0  0  0  0  0
  186.9360  178.7790  137.2150 O   0  0  0  0  0  0  0  0  0  0  0  0
  1 25  1  6  0  0  0
  1  7  1  0  0  0  0
  1  6  1  0  0  0  0
  3 10  1  6  0  0  0
  3 11  1  0  0  0  0
  3  2  1  0  0  0  0
  4  8  2  0  0  0  0
  5 14  1  6  0  0  0
  5  8  1  0  0  0  0
  6  4  1  0  0  0  0
  7  9  1  6  0  0  0
  7  5  1  0  0  0  0
  8 12  1  0  0  0  0
 11 12  1  1  0  0  0
 11  2  1  0  0  0  0
 13 18  1  6  0  0  0
 13 10  1  0  0  0  0
 14 13  1  0  0  0  0
 15 16  2  0  0  0  0
 15 17  1  0  0  0  0
 16 18  1  0  0  0  0
 17 20  2  0  0  0  0
 18 19  2  0  0  0  0
 20 19  1  0  0  0  0
 21 15  1  0  0  0  0
 22 21  2  0  0  0  0
 23 21  1  0  0  0  0
 24 21  2  0  0  0  0
 26 25  1  0  0  0  0
 27 26  1  0  0  0  0
 29 28  1  6  0  0  0
 29 27  1  0  0  0  0
 31 30  1  6  0  0  0
 31 32  1  0  0  0  0
 31 29  1  0  0  0  0
 32 34  2  0  0  0  0
 32 33  1  0  0  0  0
M  END
>  <MODEL>
4

>  <REMARK>
 VINA RESULT:      -8.3      3.020      6.726
  Name = 
  8 active torsions:
  status: ('A' for Active; 'I' for Inactive)
    1  A    between atoms: C_1  and  S_9
    2  A    between atoms: C_4  and  C_11
    3  A    between atoms: C_5  and  C_32
    4  A    between atoms: C_8  and  C_18
    5  A    between atoms: C_11  and  S_27
    6  A    between atoms: C_18  and  C_33
    7  A    between atoms: S_27  and  C_30
    8  A    between atoms: C_30  and  C_33
                            x       y       z     vdW  Elec       q    Type
                         _______ _______ _______ _____ _____    ______ ____

>  <TORSDO>
F 8

$$$$
=
 OpenBabel11062416533D

 34 37  0  0  1  0  0  0  0  0999 V2000
  188.1060  178.3160  141.7210 C   0  0  2  0  0  3  0  0  0  0  0  0
  185.2080  178.6610  147.2980 O   0  0  0  0  0  0  0  0  0  0  0  0
  185.0820  179.2220  146.0380 N   0  0  2  0  0  0  0  0  0  0  0  0
  188.2930  177.2060  143.9200 C   0  0  0  0  0  3  0  0  0  0  0  0
  186.1830  178.4680  143.4020 C   0  0  2  0  0  3  0  0  0  0  0  0
  188.6050  177.0840  142.4610 C   0  0  0  0  0  2  0  0  0  0  0  0
  186.5930  178.4510  141.9210 C   0  0  1  0  0  3  0  0  0  0  0  0
  187.1660  177.7780  144.3660 C   0  0  0  0  0  0  0  0  0  0  0  0
  186.1250  179.6100  141.2990 O   0  0  0  0  0  1  0  0  0  0  0  0
  183.7680  178.9970  145.4700 C   0  0  0  0  0  2  0  0  0  0  0  0
  185.5680  177.8820  146.2460 C   0  0  1  0  0  3  0  0  0  0  0  0
  187.0280  177.9190  145.8660 C   0  0  0  0  0  2  0  0  0  0  0  0
  183.9100  178.9550  143.9400 C   0  0  1  0  0  3  0  0  0  0  0  0
  184.8380  177.9000  143.5190 N   0  0  0  0  0  2  0  0  0  0  0  0
  181.2000  178.4740  141.3140 C   0  0  0  0  0  0  0  0  0  0  0  0
  182.4570  178.6590  141.9010 C   0  0  0  0  0  3  0  0  0  0  0  0
  180.0610  178.3940  142.1210 C   0  0  0  0  0  3  0  0  0  0  0  0
  182.5770  178.7580  143.2940 C   0  0  0  0  0  0  0  0  0  0  0  0
  181.4340  178.6740  144.0960 C   0  0  0  0  0  3  0  0  0  0  0  0
  180.1770  178.4920  143.5110 C   0  0  0  0  0  3  0  0  0  0  0  0
  181.0520  178.3600  139.5700 S   0  0  0  0  0  0  0  0  0  0  0  0
  180.0550  179.3720  139.0800 O   0  0  0  0  0  0  0  0  0  0  0  0
  180.5040  176.7800  139.1340 N   0  0  0  0  0  1  0  0  0  0  0  0
  182.3880  178.6200  138.9340 O   0  0  0  0  0  0  0  0  0  0  0  0
  188.4860  178.2520  140.2410 C   0  0  0  0  0  2  0  0  0  0  0  0
  189.8750  177.1140  139.9240 S   0  0  0  0  0  0  0  0  0  0  0  0
  189.8740  177.5090  138.1450 C   0  0  0  0  0  2  0  0  0  0  0  0
  190.1170  175.7510  136.5100 O   0  0  0  0  0  1  0  0  0  0  0  0
  190.8240  176.6190  137.3480 C   0  0  2  0  0  3  0  0  0  0  0  0
  191.9380  174.5320  137.8440 O   0  0  0  0  0  1  0  0  0  0  0  0
  191.8050  175.8640  138.2450 C   0  0  1  0  0  3  0  0  0  0  0  0
  193.1370  176.5370  138.2530 C   0  0  0  0  0  0  0  0  0  0  0  0
  193.5580  177.1110  139.2940 O   0  0  0  0  0  1  0  0  0  0  0  0
  193.9320  176.5020  137.1160 O   0  0  0  0  0  0  0  0  0  0  0  0
  1 25  1  6  0  0  0
  1  7  1  0  0  0  0
  1  6  1  0  0  0  0
  3 10  1  6  0  0  0
  3 11  1  0  0  0  0
  3  2  1  0  0  0  0
  4  8  2  0  0  0  0
  5 14  1  6  0  0  0
  5  8  1  0  0  0  0
  6  4  1  0  0  0  0
  7  9  1  1  0  0  0
  7  5  1  0  0  0  0
  8 12  1  0  0  0  0
 11 12  1  1  0  0  0
 11  2  1  0  0  0  0
 13 18  1  6  0  0  0
 13 10  1  0  0  0  0
 14 13  1  0  0  0  0
 15 16  2  0  0  0  0
 15 17  1  0  0  0  0
 16 18  1  0  0  0  0
 17 20  2  0  0  0  0
 18 19  2  0  0  0  0
 20 19  1  0  0  0  0
 21 15  1  0  0  0  0
 22 21  2  0  0  0  0
 23 21  1  0  0  0  0
 24 21  2  0  0  0  0
 26 25  1  0  0  0  0
 27 26  1  0  0  0  0
 29 28  1  1  0  0  0
 29 27  1  0  0  0  0
 29 31  1  0  0  0  0
 31 30  1  6  0  0  0
 31 32  1  0  0  0  0
 32 33  1  0  0  0  0
 34 32  2  0  0  0  0
M  END
>  <MODEL>
5

>  <REMARK>
 VINA RESULT:      -8.3      3.354      7.527
  Name = 
  8 active torsions:
  status: ('A' for Active; 'I' for Inactive)
    1  A    between atoms: C_1  and  S_9
    2  A    between atoms: C_4  and  C_11
    3  A    between atoms: C_5  and  C_32
    4  A    between atoms: C_8  and  C_18
    5  A    between atoms: C_11  and  S_27
    6  A    between atoms: C_18  and  C_33
    7  A    between atoms: S_27  and  C_30
    8  A    between atoms: C_30  and  C_33
                            x       y       z     vdW  Elec       q    Type
                         _______ _______ _______ _____ _____    ______ ____

>  <TORSDO>
F 8

$$$$
=
 OpenBabel11062416533D

 34 37  0  0  1  0  0  0  0  0999 V2000
  189.6740  177.6930  142.6050 C   0  0  2  0  0  3  0  0  0  0  0  0
  185.4150  178.7860  147.1090 O   0  0  0  0  0  0  0  0  0  0  0  0
  185.6770  179.2110  145.8170 N   0  0  2  0  0  0  0  0  0  0  0  0
  189.1760  176.8220  144.8630 C   0  0  0  0  0  3  0  0  0  0  0  0
  187.3860  178.1210  143.6680 C   0  0  2  0  0  3  0  0  0  0  0  0
  189.8590  176.5270  143.5640 C   0  0  0  0  0  2  0  0  0  0  0  0
  188.1790  177.9220  142.3660 C   0  0  1  0  0  3  0  0  0  0  0  0
  188.0170  177.4940  144.9260 C   0  0  0  0  0  0  0  0  0  0  0  0
  187.9860  179.0280  141.5350 O   0  0  0  0  0  1  0  0  0  0  0  0
  184.5510  178.9890  144.9310 C   0  0  0  0  0  2  0  0  0  0  0  0
  185.9840  177.8810  146.2730 C   0  0  1  0  0  3  0  0  0  0  0  0
  187.4910  177.8040  146.3100 C   0  0  0  0  0  2  0  0  0  0  0  0
  185.0970  178.7740  143.5110 C   0  0  1  0  0  3  0  0  0  0  0  0
  186.0200  177.6350  143.4610 N   0  0  0  0  0  2  0  0  0  0  0  0
  181.6410  178.8050  141.9210 C   0  0  0  0  0  0  0  0  0  0  0  0
  182.6760  179.0020  142.8410 C   0  0  0  0  0  3  0  0  0  0  0  0
  181.9050  178.1720  140.7020 C   0  0  0  0  0  3  0  0  0  0  0  0
  183.9770  178.5730  142.5420 C   0  0  0  0  0  0  0  0  0  0  0  0
  184.2350  177.9440  141.3190 C   0  0  0  0  0  3  0  0  0  0  0  0
  183.2010  177.7430  140.4000 C   0  0  0  0  0  3  0  0  0  0  0  0
  180.0130  179.3340  142.3030 S   0  0  0  0  0  0  0  0  0  0  0  0
  180.0480  180.7420  142.8280 O   0  0  0  0  0  0  0  0  0  0  0  0
  179.3330  178.3040  143.5120 N   0  0  0  0  0  1  0  0  0  0  0  0
  179.1640  179.2800  141.0640 O   0  0  0  0  0  0  0  0  0  0  0  0
  190.4330  177.4490  141.3000 C   0  0  0  0  0  2  0  0  0  0  0  0
  189.3710  176.7500  139.9930 S   0  0  0  0  0  0  0  0  0  0  0  0
  189.4280  178.2970  139.0320 C   0  0  0  0  0  2  0  0  0  0  0  0
  188.4500  179.5120  137.1910 O   0  0  0  0  0  1  0  0  0  0  0  0
  188.5150  178.2600  137.8100 C   0  0  2  0  0  3  0  0  0  0  0  0
  186.1980  178.7570  138.2910 O   0  0  0  0  0  1  0  0  0  0  0  0
  187.1230  177.7200  138.1390 C   0  0  1  0  0  3  0  0  0  0  0  0
  186.6630  176.7690  137.0850 C   0  0  0  0  0  0  0  0  0  0  0  0
  186.8830  175.5330  137.1970 O   0  0  0  0  0  1  0  0  0  0  0  0
  185.9570  177.2460  135.9890 O   0  0  0  0  0  0  0  0  0  0  0  0
  1 25  1  6  0  0  0
  1  6  1  0  0  0  0
  3 10  1  6  0  0  0
  3 11  1  0  0  0  0
  3  2  1  0  0  0  0
  4  8  2  0  0  0  0
  5 14  1  6  0  0  0
  5  8  1  0  0  0  0
  6  4  1  0  0  0  0
  7  9  1  6  0  0  0
  7  1  1  0  0  0  0
  7  5  1  0  0  0  0
  8 12  1  0  0  0  0
 11 12  1  1  0  0  0
 11  2  1  0  0  0  0
 13 18  1  6  0  0  0
 13 10  1  0  0  0  0
 14 13  1  0  0  0  0
 15 21  1  0  0  0  0
 15 16  1  0  0  0  0
 17 15  2  0  0  0  0
 18 16  2  0  0  0  0
 19 18  1  0  0  0  0
 20 17  1  0  0  0  0
 20 19  2  0  0  0  0
 21 22  2  0  0  0  0
 21 23  1  0  0  0  0
 24 21  2  0  0  0  0
 26 25  1  0  0  0  0
 27 26  1  0  0  0  0
 29 28  1  1  0  0  0
 29 31  1  0  0  0  0
 29 27  1  0  0  0  0
 31 30  1  6  0  0  0
 32 33  1  0  0  0  0
 32 31  1  0  0  0  0
 34 32  2  0  0  0  0
M  END
>  <MODEL>
6

>  <REMARK>
 VINA RESULT:      -8.3      3.060      6.333
  Name = 
  8 active torsions:
  status: ('A' for Active; 'I' for Inactive)
    1  A    between atoms: C_1  and  S_9
    2  A    between atoms: C_4  and  C_11
    3  A    between atoms: C_5  and  C_32
    4  A    between atoms: C_8  and  C_18
    5  A    between atoms: C_11  and  S_27
    6  A    between atoms: C_18  and  C_33
    7  A    between atoms: S_27  and  C_30
    8  A    between atoms: C_30  and  C_33
                            x       y       z     vdW  Elec       q    Type
                         _______ _______ _______ _____ _____    ______ ____

>  <TORSDO>
F 8

$$$$
=
 OpenBabel11062416533D

 34 37  0  0  1  0  0  0  0  0999 V2000
  190.1560  177.5380  142.0940 C   0  0  2  0  0  3  0  0  0  0  0  0
  187.1750  177.9980  147.6190 O   0  0  0  0  0  0  0  0  0  0  0  0
  187.1610  178.6320  146.3880 N   0  0  2  0  0  0  0  0  0  0  0  0
  190.1310  176.3060  144.2350 C   0  0  0  0  0  3  0  0  0  0  0  0
  188.2240  177.8670  143.7390 C   0  0  2  0  0  3  0  0  0  0  0  0
  190.4640  176.2150  142.7790 C   0  0  0  0  0  2  0  0  0  0  0  0
  188.6700  177.8670  142.2690 C   0  0  1  0  0  3  0  0  0  0  0  0
  189.0780  177.0030  144.6870 C   0  0  0  0  0  0  0  0  0  0  0  0
  188.3790  179.1080  141.6990 O   0  0  0  0  0  1  0  0  0  0  0  0
  185.8450  178.6150  145.7810 C   0  0  0  0  0  2  0  0  0  0  0  0
  187.4560  177.2300  146.5350 C   0  0  1  0  0  3  0  0  0  0  0  0
  188.9190  177.0870  146.1890 C   0  0  0  0  0  2  0  0  0  0  0  0
  186.0230  178.6300  144.2550 C   0  0  1  0  0  3  0  0  0  0  0  0
  186.8120  177.4810  143.7990 N   0  0  0  0  0  2  0  0  0  0  0  0
  183.3490  178.6940  141.5500 C   0  0  0  0  0  0  0  0  0  0  0  0
  184.6010  178.6780  142.1720 C   0  0  0  0  0  3  0  0  0  0  0  0
  182.1860  178.6850  142.3280 C   0  0  0  0  0  3  0  0  0  0  0  0
  184.6950  178.6480  143.5710 C   0  0  0  0  0  0  0  0  0  0  0  0
  183.5280  178.6340  144.3430 C   0  0  0  0  0  3  0  0  0  0  0  0
  182.2750  178.6530  143.7230 C   0  0  0  0  0  3  0  0  0  0  0  0
  183.2360  178.7430  139.8000 S   0  0  0  0  0  0  0  0  0  0  0  0
  183.8210  177.4860  139.2200 O   0  0  0  0  0  0  0  0  0  0  0  0
  184.1190  180.1000  139.1970 N   0  0  0  0  0  1  0  0  0  0  0  0
  181.7950  178.8620  139.3930 O   0  0  0  0  0  0  0  0  0  0  0  0
  190.5650  177.4960  140.6220 C   0  0  0  0  0  2  0  0  0  0  0  0
  189.2260  176.8930  139.5400 S   0  0  0  0  0  0  0  0  0  0  0  0
  190.0180  177.6010  138.0590 C   0  0  0  0  0  2  0  0  0  0  0  0
  189.0550  179.7480  137.5220 O   0  0  0  0  0  1  0  0  0  0  0  0
  189.0390  178.3890  137.1930 C   0  0  2  0  0  3  0  0  0  0  0  0
  186.6940  178.7810  137.6320 O   0  0  0  0  0  1  0  0  0  0  0  0
  187.6240  177.8130  137.2430 C   0  0  1  0  0  3  0  0  0  0  0  0
  187.2430  177.2340  135.9200 C   0  0  0  0  0  0  0  0  0  0  0  0
  186.2160  176.5130  135.8080 O   0  0  0  0  0  1  0  0  0  0  0  0
  188.0100  177.5210  134.7980 O   0  0  0  0  0  0  0  0  0  0  0  0
  1 25  1  6  0  0  0
  1  7  1  0  0  0  0
  1  6  1  0  0  0  0
  3 10  1  6  0  0  0
  3 11  1  0  0  0  0
  3  2  1  0  0  0  0
  4  8  2  0  0  0  0
  5 14  1  6  0  0  0
  5  8  1  0  0  0  0
  6  4  1  0  0  0  0
  7  9  1  1  0  0  0
  7  5  1  0  0  0  0
  8 12  1  0  0  0  0
 11 12  1  1  0  0  0
 11  2  1  0  0  0  0
 13 18  1  6  0  0  0
 13 10  1  0  0  0  0
 14 13  1  0  0  0  0
 15 16  2  0  0  0  0
 15 17  1  0  0  0  0
 16 18  1  0  0  0  0
 17 20  2  0  0  0  0
 18 19  2  0  0  0  0
 20 19  1  0  0  0  0
 21 15  1  0  0  0  0
 22 21  2  0  0  0  0
 23 21  1  0  0  0  0
 24 21  2  0  0  0  0
 26 25  1  0  0  0  0
 27 26  1  0  0  0  0
 29 31  1  0  0  0  0
 29 28  1  1  0  0  0
 29 27  1  0  0  0  0
 31 30  1  6  0  0  0
 32 31  1  0  0  0  0
 33 32  1  0  0  0  0
 34 32  2  0  0  0  0
M  END
>  <MODEL>
7

>  <REMARK>
 VINA RESULT:      -8.1      2.536      5.755
  Name = 
  8 active torsions:
  status: ('A' for Active; 'I' for Inactive)
    1  A    between atoms: C_1  and  S_9
    2  A    between atoms: C_4  and  C_11
    3  A    between atoms: C_5  and  C_32
    4  A    between atoms: C_8  and  C_18
    5  A    between atoms: C_11  and  S_27
    6  A    between atoms: C_18  and  C_33
    7  A    between atoms: S_27  and  C_30
    8  A    between atoms: C_30  and  C_33
                            x       y       z     vdW  Elec       q    Type
                         _______ _______ _______ _____ _____    ______ ____

>  <TORSDO>
F 8

$$$$
=
 OpenBabel11062416533D

 34 37  0  0  1  0  0  0  0  0999 V2000
  185.5950  178.0680  146.1040 C   0  0  2  0  0  3  0  0  0  0  0  0
  191.5680  176.4970  147.3210 O   0  0  0  0  0  0  0  0  0  0  0  0
  190.6050  176.2150  146.3660 N   0  0  2  0  0  0  0  0  0  0  0  0
  187.3190  178.6880  147.7620 C   0  0  0  0  0  3  0  0  0  0  0  0
  188.0570  177.5310  145.6560 C   0  0  2  0  0  3  0  0  0  0  0  0
  186.0470  179.1230  147.1040 C   0  0  0  0  0  2  0  0  0  0  0  0
  186.6860  177.8690  145.0480 C   0  0  1  0  0  3  0  0  0  0  0  0
  188.2730  178.0160  147.1020 C   0  0  0  0  0  0  0  0  0  0  0  0
  186.3170  176.8610  144.1550 O   0  0  0  0  0  1  0  0  0  0  0  0
  191.0570  176.5350  145.0260 C   0  0  0  0  0  2  0  0  0  0  0  0
  190.6850  177.4880  147.0350 C   0  0  1  0  0  3  0  0  0  0  0  0
  189.4620  177.5570  147.9180 C   0  0  0  0  0  2  0  0  0  0  0  0
  189.8250  176.9030  144.1830 C   0  0  1  0  0  3  0  0  0  0  0  0
  189.1010  178.0390  144.7640 N   0  0  0  0  0  2  0  0  0  0  0  0
  189.6550  177.7780  140.4850 C   0  0  0  0  0  0  0  0  0  0  0  0
  189.2620  177.4920  141.7970 C   0  0  0  0  0  3  0  0  0  0  0  0
  191.0130  177.7780  140.1510 C   0  0  0  0  0  3  0  0  0  0  0  0
  190.2240  177.2110  142.7770 C   0  0  0  0  0  0  0  0  0  0  0  0
  191.5810  177.2160  142.4370 C   0  0  0  0  0  3  0  0  0  0  0  0
  191.9760  177.5000  141.1260 C   0  0  0  0  0  3  0  0  0  0  0  0
  188.4480  178.1200  139.2590 S   0  0  0  0  0  0  0  0  0  0  0  0
  188.1410  176.8660  138.4880 O   0  0  0  0  0  0  0  0  0  0  0  0
  189.0500  179.3150  138.1660 N   0  0  0  0  0  1  0  0  0  0  0  0
  187.1950  178.6270  139.9160 O   0  0  0  0  0  0  0  0  0  0  0  0
  184.2540  178.4520  145.4790 C   0  0  0  0  0  2  0  0  0  0  0  0
  184.4390  179.6060  144.0780 S   0  0  0  0  0  0  0  0  0  0  0  0
  183.3640  178.5880  143.0160 C   0  0  0  0  0  2  0  0  0  0  0  0
  181.2650  178.6820  144.2020 O   0  0  0  0  0  1  0  0  0  0  0  0
  181.9140  179.0630  143.0240 C   0  0  2  0  0  3  0  0  0  0  0  0
  179.9630  177.9490  142.1310 O   0  0  0  0  0  1  0  0  0  0  0  0
  181.1450  178.6090  141.7830 C   0  0  1  0  0  3  0  0  0  0  0  0
  180.8460  179.7700  140.8940 C   0  0  0  0  0  0  0  0  0  0  0  0
  181.3400  179.8330  139.7360 O   0  0  0  0  0  0  0  0  0  0  0  0
  179.9900  180.7700  141.3330 O   0  0  0  0  0  1  0  0  0  0  0  0
  1 25  1  6  0  0  0
  1  6  1  0  0  0  0
  3 10  1  6  0  0  0
  3 11  1  0  0  0  0
  3  2  1  0  0  0  0
  5 14  1  6  0  0  0
  5  8  1  0  0  0  0
  6  4  1  0  0  0  0
  7  9  1  6  0  0  0
  7  5  1  0  0  0  0
  7  1  1  0  0  0  0
  8  4  2  0  0  0  0
  8 12  1  0  0  0  0
 11  2  1  0  0  0  0
 11 12  1  1  0  0  0
 13 18  1  6  0  0  0
 13 14  1  0  0  0  0
 13 10  1  0  0  0  0
 15 16  1  0  0  0  0
 16 18  2  0  0  0  0
 17 15  2  0  0  0  0
 17 20  1  0  0  0  0
 19 18  1  0  0  0  0
 20 19  2  0  0  0  0
 21 24  2  0  0  0  0
 21 15  1  0  0  0  0
 22 21  2  0  0  0  0
 23 21  1  0  0  0  0
 26 25  1  0  0  0  0
 27 29  1  0  0  0  0
 27 26  1  0  0  0  0
 29 28  1  1  0  0  0
 31 30  1  1  0  0  0
 31 29  1  0  0  0  0
 32 34  1  0  0  0  0
 32 31  1  0  0  0  0
 33 32  2  0  0  0  0
M  END
>  <MODEL>
8

>  <REMARK>
 VINA RESULT:      -8.0      1.776      2.158
  Name = 
  8 active torsions:
  status: ('A' for Active; 'I' for Inactive)
    1  A    between atoms: C_1  and  S_9
    2  A    between atoms: C_4  and  C_11
    3  A    between atoms: C_5  and  C_32
    4  A    between atoms: C_8  and  C_18
    5  A    between atoms: C_11  and  S_27
    6  A    between atoms: C_18  and  C_33
    7  A    between atoms: S_27  and  C_30
    8  A    between atoms: C_30  and  C_33
                            x       y       z     vdW  Elec       q    Type
                         _______ _______ _______ _____ _____    ______ ____

>  <TORSDO>
F 8

$$$$
=
 OpenBabel11062416533D

 34 37  0  0  1  0  0  0  0  0999 V2000
  189.0890  177.0240  140.2630 C   0  0  2  0  0  3  0  0  0  0  0  0
  183.8700  178.9730  143.1930 O   0  0  0  0  0  0  0  0  0  0  0  0
  184.8450  178.0040  143.3650 N   0  0  2  0  0  0  0  0  0  0  0  0
  187.4380  178.8400  139.9830 C   0  0  0  0  0  3  0  0  0  0  0  0
  187.5350  177.6530  142.1960 C   0  0  2  0  0  3  0  0  0  0  0  0
  188.8300  178.3960  139.6580 C   0  0  0  0  0  2  0  0  0  0  0  0
  188.9060  177.0950  141.7820 C   0  0  1  0  0  3  0  0  0  0  0  0
  186.8530  178.5640  141.1580 C   0  0  0  0  0  0  0  0  0  0  0  0
  189.0810  175.8320  142.3490 O   0  0  0  0  0  1  0  0  0  0  0  0
  185.5010  178.1130  144.6530 C   0  0  0  0  0  2  0  0  0  0  0  0
  185.1200  179.2830  142.7630 C   0  0  1  0  0  3  0  0  0  0  0  0
  185.4100  178.9910  141.3110 C   0  0  0  0  0  2  0  0  0  0  0  0
  186.9350  177.5830  144.5040 C   0  0  1  0  0  3  0  0  0  0  0  0
  187.6780  178.3330  143.4850 N   0  0  0  0  0  2  0  0  0  0  0  0
  189.6260  177.2270  147.1700 C   0  0  0  0  0  0  0  0  0  0  0  0
  188.9690  177.1660  145.9360 C   0  0  0  0  0  3  0  0  0  0  0  0
  188.9660  177.7570  148.2840 C   0  0  0  0  0  3  0  0  0  0  0  0
  187.6550  177.6390  145.8120 C   0  0  0  0  0  0  0  0  0  0  0  0
  187.0020  178.1720  146.9290 C   0  0  0  0  0  3  0  0  0  0  0  0
  187.6560  178.2320  148.1630 C   0  0  0  0  0  3  0  0  0  0  0  0
  191.2660  176.6250  147.3240 S   0  0  0  0  0  0  0  0  0  0  0  0
  192.0120  177.4430  148.3410 O   0  0  0  0  0  0  0  0  0  0  0  0
  192.0780  176.7490  145.8030 N   0  0  0  0  0  1  0  0  0  0  0  0
  191.2340  175.1870  147.7580 O   0  0  0  0  0  0  0  0  0  0  0  0
  190.4770  176.5140  139.8750 C   0  0  0  0  0  2  0  0  0  0  0  0
  190.4900  175.6860  138.2500 S   0  0  0  0  0  0  0  0  0  0  0  0
  191.9300  176.6570  137.6970 C   0  0  0  0  0  2  0  0  0  0  0  0
  193.9860  176.5520  138.9560 O   0  0  0  0  0  1  0  0  0  0  0  0
  193.2510  175.9330  137.9400 C   0  0  2  0  0  3  0  0  0  0  0  0
  194.6120  177.0040  136.2530 O   0  0  0  0  0  1  0  0  0  0  0  0
  194.0750  175.7800  136.6620 C   0  0  1  0  0  3  0  0  0  0  0  0
  195.1640  174.7770  136.8530 C   0  0  0  0  0  0  0  0  0  0  0  0
  196.3430  175.1490  137.0990 O   0  0  0  0  0  1  0  0  0  0  0  0
  194.8680  173.4210  136.7920 O   0  0  0  0  0  0  0  0  0  0  0  0
  1 25  1  1  0  0  0
  1  7  1  0  0  0  0
  2  3  1  0  0  0  0
  3 10  1  1  0  0  0
  4  8  2  0  0  0  0
  5  8  1  6  0  0  0
  5 14  1  0  0  0  0
  6  4  1  0  0  0  0
  6  1  1  0  0  0  0
  7  5  1  0  0  0  0
  7  9  1  6  0  0  0
  8 12  1  0  0  0  0
 11 12  1  6  0  0  0
 11  2  1  0  0  0  0
 11  3  1  0  0  0  0
 13 10  1  0  0  0  0
 13 18  1  1  0  0  0
 14 13  1  0  0  0  0
 15 21  1  0  0  0  0
 15 17  1  0  0  0  0
 16 15  2  0  0  0  0
 18 16  1  0  0  0  0
 18 19  2  0  0  0  0
 19 20  1  0  0  0  0
 20 17  2  0  0  0  0
 21 24  2  0  0  0  0
 21 22  2  0  0  0  0
 23 21  1  0  0  0  0
 26 25  1  0  0  0  0
 27 29  1  0  0  0  0
 27 26  1  0  0  0  0
 29 28  1  1  0  0  0
 31 30  1  1  0  0  0
 31 32  1  0  0  0  0
 31 29  1  0  0  0  0
 32 33  1  0  0  0  0
 34 32  2  0  0  0  0
M  END
>  <MODEL>
9

>  <REMARK>
 VINA RESULT:      -7.9      3.607      8.236
  Name = 
  8 active torsions:
  status: ('A' for Active; 'I' for Inactive)
    1  A    between atoms: C_1  and  S_9
    2  A    between atoms: C_4  and  C_11
    3  A    between atoms: C_5  and  C_32
    4  A    between atoms: C_8  and  C_18
    5  A    between atoms: C_11  and  S_27
    6  A    between atoms: C_18  and  C_33
    7  A    between atoms: S_27  and  C_30
    8  A    between atoms: C_30  and  C_33
                            x       y       z     vdW  Elec       q    Type
                         _______ _______ _______ _____ _____    ______ ____

>  <TORSDO>
F 8

$$$$
