=
 OpenBabel11062415423D

 34 37  0  0  1  0  0  0  0  0999 V2000
  187.8900  176.4810  143.2230 S   0  0  0  0  0  0  0  0  0  0  0  0
  189.7900  177.0490  145.8870 C   0  0  0  0  0  1  0  0  0  0  0  0
  184.3470  178.6420  146.1790 F   0  0  0  0  0  0  0  0  0  0  0  0
  187.8270  177.9860  147.1360 C   0  0  0  0  0  0  0  0  0  0  0  0
  185.6730  178.4170  146.1140 C   0  0  0  0  0  0  0  0  0  0  0  0
  187.6680  177.6120  144.6340 C   0  0  2  0  0  3  0  0  0  0  0  0
  188.3350  177.2150  145.9910 C   0  0  1  0  0  3  0  0  0  0  0  0
  186.2660  178.2040  144.6940 C   0  0  2  0  0  3  0  0  0  0  0  0
  186.3730  178.3500  147.2080 C   0  0  0  0  0  3  0  0  0  0  0  0
  188.5640  178.1650  148.0700 O   0  0  0  0  0  0  0  0  0  0  0  0
  185.7280  179.0700  143.5160 C   0  0  0  0  0  2  0  0  0  0  0  0
  184.2540  178.2160  141.6930 C   0  0  0  0  0  3  0  0  0  0  0  0
  184.3360  178.7320  142.9880 C   0  0  0  0  0  0  0  0  0  0  0  0
  181.9290  178.9290  142.9240 C   0  0  0  0  0  3  0  0  0  0  0  0
  181.9140  178.4940  141.6130 C   0  0  0  0  0  0  0  0  0  0  0  0
  180.3540  178.3870  140.6760 Cl  0  0  0  0  0  0  0  0  0  0  0  0
  183.0410  178.0680  140.9830 C   0  0  0  0  0  3  0  0  0  0  0  0
  183.1090  179.0900  143.5730 C   0  0  0  0  0  3  0  0  0  0  0  0
  188.8090  178.8940  141.5250 O   0  0  0  0  0  0  0  0  0  0  0  0
  188.0990  177.7550  141.9150 C   0  0  1  0  0  3  0  0  0  0  0  0
  188.3840  177.8770  140.5460 N   0  0  2  0  0  0  0  0  0  0  0  0
  189.7390  176.5560  138.6750 C   0  0  1  0  0  3  0  0  0  0  0  0
  189.6900  177.3900  140.0940 C   0  0  1  0  0  0  0  0  0  0  0  0
  189.9650  178.0950  138.6650 C   0  0  2  0  0  3  0  0  0  0  0  0
  190.4460  175.3260  139.0860 O   0  0  0  0  0  1  0  0  0  0  0  0
  191.9470  177.9890  140.7170 O   0  0  0  0  0  0  0  0  0  0  0  0
  190.7900  177.4160  141.0530 C   0  0  0  0  0  0  0  0  0  0  0  0
  190.6850  176.3300  141.9870 O   0  0  0  0  0  0  0  0  0  0  0  0
  191.6210  176.5780  142.9050 C   0  0  0  0  0  1  0  0  0  0  0  0
  188.9060  179.9500  137.5200 O   0  0  0  0  0  1  0  0  0  0  0  0
  188.5330  178.7780  138.1830 C   0  0  1  0  0  3  0  0  0  0  0  0
  187.9020  177.9360  135.9380 O   0  0  0  0  0  0  0  0  0  0  0  0
  186.3070  177.9530  137.6560 O   0  0  0  0  0  1  0  0  0  0  0  0
  187.5640  178.0900  137.2660 C   0  0  0  0  0  0  0  0  0  0  0  0
  4  9  1  0  0  0  0
  4 10  2  0  0  0  0
  5  3  1  0  0  0  0
  5  9  2  0  0  0  0
  6  1  1  6  0  0  0
  6  8  1  0  0  0  0
  6  7  1  0  0  0  0
  7  2  1  6  0  0  0
  7  4  1  0  0  0  0
  8 11  1  1  0  0  0
  8  5  1  0  0  0  0
 12 13  1  0  0  0  0
 13 11  1  0  0  0  0
 13 18  2  0  0  0  0
 14 18  1  0  0  0  0
 15 14  2  0  0  0  0
 16 15  1  0  0  0  0
 17 15  1  0  0  0  0
 17 12  2  0  0  0  0
 19 20  1  0  0  0  0
 20  1  1  1  0  0  0
 21 19  1  1  0  0  0
 21 20  1  0  0  0  0
 22 25  1  1  0  0  0
 22 23  1  0  0  0  0
 23 21  1  0  0  0  0
 23 27  1  1  0  0  0
 24 31  1  6  0  0  0
 24 22  1  0  0  0  0
 24 23  1  0  0  0  0
 26 27  2  0  0  0  0
 27 28  1  0  0  0  0
 28 29  1  0  0  0  0
 31 30  1  6  0  0  0
 32 34  2  0  0  0  0
 34 33  1  0  0  0  0
 34 31  1  0  0  0  0
M  END
>  <MODEL>
1

>  <REMARK>
 VINA RESULT:      -8.5      0.000      0.000
  Name = 
  9 active torsions:
  status: ('A' for Active; 'I' for Inactive)
    1  A    between atoms: C_3  and  C_34
    2  A    between atoms: S_6  and  C_11
    3  A    between atoms: S_6  and  C_20
    4  A    between atoms: O_12  and  C_14
    5  A    between atoms: C_14  and  C_28
    6  A    between atoms: N_21  and  C_28
    7  A    between atoms: C_24  and  C_34
    8  A    between atoms: C_26  and  C_29
    9  A    between atoms: C_29  and  C_31
                            x       y       z     vdW  Elec       q    Type
                         _______ _______ _______ _____ _____    ______ ____

>  <TORSDO>
F 9

$$$$
=
 OpenBabel11062415423D

 34 37  0  0  1  0  0  0  0  0999 V2000
  185.4620  179.0280  142.0490 S   0  0  0  0  0  0  0  0  0  0  0  0
  183.3730  178.9660  144.6300 C   0  0  0  0  0  1  0  0  0  0  0  0
  188.8410  177.8400  145.6730 F   0  0  0  0  0  0  0  0  0  0  0  0
  185.2650  178.4710  146.2000 C   0  0  0  0  0  0  0  0  0  0  0  0
  187.5160  177.9570  145.4630 C   0  0  0  0  0  0  0  0  0  0  0  0
  185.6170  178.2690  143.6980 C   0  0  2  0  0  3  0  0  0  0  0  0
  184.8200  178.9230  144.8730 C   0  0  1  0  0  3  0  0  0  0  0  0
  187.0350  177.7990  143.9940 C   0  0  2  0  0  3  0  0  0  0  0  0
  186.7240  178.2280  146.4590 C   0  0  0  0  0  3  0  0  0  0  0  0
  184.4610  178.4640  147.0950 O   0  0  0  0  0  0  0  0  0  0  0  0
  187.7100  176.7220  143.0940 C   0  0  0  0  0  2  0  0  0  0  0  0
  189.0490  177.3360  141.0790 C   0  0  0  0  0  3  0  0  0  0  0  0
  189.0460  177.0930  142.4540 C   0  0  0  0  0  0  0  0  0  0  0  0
  191.4590  177.1500  142.3400 C   0  0  0  0  0  3  0  0  0  0  0  0
  191.4040  177.3030  140.9680 C   0  0  0  0  0  0  0  0  0  0  0  0
  192.9270  177.3830  139.9690 Cl  0  0  0  0  0  0  0  0  0  0  0  0
  190.2260  177.4650  140.3080 C   0  0  0  0  0  3  0  0  0  0  0  0
  190.3150  176.9990  143.0530 C   0  0  0  0  0  3  0  0  0  0  0  0
  182.7330  177.7070  141.4520 O   0  0  0  0  0  0  0  0  0  0  0  0
  184.1070  177.9630  141.4120 C   0  0  1  0  0  3  0  0  0  0  0  0
  183.5100  177.5590  140.2080 N   0  0  2  0  0  0  0  0  0  0  0  0
  183.8940  179.6980  138.6730 C   0  0  1  0  0  3  0  0  0  0  0  0
  182.8930  178.6050  139.3890 C   0  0  1  0  0  0  0  0  0  0  0  0
  183.4810  178.4170  137.8950 C   0  0  2  0  0  3  0  0  0  0  0  0
  183.2980  180.9740  139.1200 O   0  0  0  0  0  1  0  0  0  0  0  0
  180.9440  179.4790  140.5220 O   0  0  0  0  0  0  0  0  0  0  0  0
  181.4480  178.7860  139.5000 C   0  0  0  0  0  0  0  0  0  0  0  0
  180.7440  177.7220  138.8400 O   0  0  0  0  0  0  0  0  0  0  0  0
  179.7040  177.4580  139.6330 C   0  0  0  0  0  1  0  0  0  0  0  0
  184.4120  176.2960  137.1790 O   0  0  0  0  0  1  0  0  0  0  0  0
  184.7570  177.3640  138.0110 C   0  0  1  0  0  3  0  0  0  0  0  0
  186.9580  178.3650  138.5580 O   0  0  0  0  0  1  0  0  0  0  0  0
  186.4870  177.7500  136.3460 O   0  0  0  0  0  0  0  0  0  0  0  0
  186.1610  177.7320  137.6280 C   0  0  0  0  0  0  0  0  0  0  0  0
  4  9  1  0  0  0  0
  4 10  2  0  0  0  0
  5  3  1  0  0  0  0
  5  9  2  0  0  0  0
  6  1  1  6  0  0  0
  6  8  1  0  0  0  0
  6  7  1  0  0  0  0
  7  2  1  6  0  0  0
  7  4  1  0  0  0  0
  8 11  1  1  0  0  0
  8  5  1  0  0  0  0
 12 13  1  0  0  0  0
 13 18  2  0  0  0  0
 13 11  1  0  0  0  0
 14 18  1  0  0  0  0
 15 14  2  0  0  0  0
 16 15  1  0  0  0  0
 17 15  1  0  0  0  0
 17 12  2  0  0  0  0
 20 19  1  0  0  0  0
 20  1  1  6  0  0  0
 21 20  1  0  0  0  0
 21 19  1  1  0  0  0
 22 25  1  6  0  0  0
 22 23  1  0  0  0  0
 23 27  1  1  0  0  0
 23 21  1  0  0  0  0
 24 31  1  1  0  0  0
 24 22  1  0  0  0  0
 24 23  1  0  0  0  0
 27 26  2  0  0  0  0
 28 27  1  0  0  0  0
 28 29  1  0  0  0  0
 31 30  1  6  0  0  0
 33 34  2  0  0  0  0
 34 31  1  0  0  0  0
 34 32  1  0  0  0  0
M  END
>  <MODEL>
2

>  <REMARK>
 VINA RESULT:      -8.3      3.551      6.611
  Name = 
  9 active torsions:
  status: ('A' for Active; 'I' for Inactive)
    1  A    between atoms: C_3  and  C_34
    2  A    between atoms: S_6  and  C_11
    3  A    between atoms: S_6  and  C_20
    4  A    between atoms: O_12  and  C_14
    5  A    between atoms: C_14  and  C_28
    6  A    between atoms: N_21  and  C_28
    7  A    between atoms: C_24  and  C_34
    8  A    between atoms: C_26  and  C_29
    9  A    between atoms: C_29  and  C_31
                            x       y       z     vdW  Elec       q    Type
                         _______ _______ _______ _____ _____    ______ ____

>  <TORSDO>
F 9

$$$$
=
 OpenBabel11062415423D

 34 37  0  0  1  0  0  0  0  0999 V2000
  185.7660  179.0270  141.9510 S   0  0  0  0  0  0  0  0  0  0  0  0
  183.4530  179.0210  144.3350 C   0  0  0  0  0  1  0  0  0  0  0  0
  188.7670  177.7140  145.8540 F   0  0  0  0  0  0  0  0  0  0  0  0
  185.1810  178.4580  146.0640 C   0  0  0  0  0  0  0  0  0  0  0  0
  187.4710  177.8750  145.5270 C   0  0  0  0  0  0  0  0  0  0  0  0
  185.7490  178.2560  143.6010 C   0  0  2  0  0  3  0  0  0  0  0  0
  184.8710  178.9310  144.7060 C   0  0  1  0  0  3  0  0  0  0  0  0
  187.1190  177.7390  144.0200 C   0  0  2  0  0  3  0  0  0  0  0  0
  186.6020  178.1670  146.4490 C   0  0  0  0  0  3  0  0  0  0  0  0
  184.3010  178.4730  146.8830 O   0  0  0  0  0  0  0  0  0  0  0  0
  187.8370  176.6450  143.1750 C   0  0  0  0  0  2  0  0  0  0  0  0
  189.1280  177.2360  141.1230 C   0  0  0  0  0  3  0  0  0  0  0  0
  189.1510  177.0390  142.5050 C   0  0  0  0  0  0  0  0  0  0  0  0
  191.5590  177.1740  142.3540 C   0  0  0  0  0  3  0  0  0  0  0  0
  191.4810  177.2800  140.9790 C   0  0  0  0  0  0  0  0  0  0  0  0
  192.9880  177.3780  139.9570 Cl  0  0  0  0  0  0  0  0  0  0  0  0
  190.2900  177.3790  140.3310 C   0  0  0  0  0  3  0  0  0  0  0  0
  190.4300  177.0090  143.0890 C   0  0  0  0  0  3  0  0  0  0  0  0
  182.9380  178.4020  140.8740 O   0  0  0  0  0  0  0  0  0  0  0  0
  184.2630  178.2120  141.2810 C   0  0  1  0  0  3  0  0  0  0  0  0
  183.8300  177.4530  140.1820 N   0  0  2  0  0  0  0  0  0  0  0  0
  184.7620  177.2990  137.6940 C   0  0  1  0  0  3  0  0  0  0  0  0
  183.9120  178.0870  138.8640 C   0  0  1  0  0  0  0  0  0  0  0  0
  183.2320  177.0550  137.8210 C   0  0  2  0  0  3  0  0  0  0  0  0
  185.6900  178.3580  137.2460 O   0  0  0  0  0  1  0  0  0  0  0  0
  184.3410  180.4530  139.1150 O   0  0  0  0  0  0  0  0  0  0  0  0
  183.4970  179.4830  138.7580 C   0  0  0  0  0  0  0  0  0  0  0  0
  182.0690  179.6040  138.8440 O   0  0  0  0  0  0  0  0  0  0  0  0
  181.8070  180.8510  138.4460 C   0  0  0  0  0  1  0  0  0  0  0  0
  181.7140  175.6000  139.0280 O   0  0  0  0  0  1  0  0  0  0  0  0
  183.0510  175.6140  138.6230 C   0  0  1  0  0  3  0  0  0  0  0  0
  184.5770  173.7980  137.9030 O   0  0  0  0  0  1  0  0  0  0  0  0
  182.3380  173.7670  137.2120 O   0  0  0  0  0  0  0  0  0  0  0  0
  183.2880  174.2800  137.9760 C   0  0  0  0  0  0  0  0  0  0  0  0
  4  9  1  0  0  0  0
  4 10  2  0  0  0  0
  5  3  1  0  0  0  0
  5  9  2  0  0  0  0
  6  1  1  6  0  0  0
  6  8  1  0  0  0  0
  6  7  1  0  0  0  0
  7  2  1  6  0  0  0
  7  4  1  0  0  0  0
  8 11  1  1  0  0  0
  8  5  1  0  0  0  0
 12 13  1  0  0  0  0
 13 18  2  0  0  0  0
 13 11  1  0  0  0  0
 14 18  1  0  0  0  0
 15 14  2  0  0  0  0
 16 15  1  0  0  0  0
 17 15  1  0  0  0  0
 17 12  2  0  0  0  0
 19 20  1  0  0  0  0
 20  1  1  6  0  0  0
 21 19  1  1  0  0  0
 21 20  1  0  0  0  0
 22 25  1  6  0  0  0
 22 24  1  0  0  0  0
 22 23  1  0  0  0  0
 23 27  1  6  0  0  0
 23 21  1  0  0  0  0
 24 31  1  1  0  0  0
 24 23  1  0  0  0  0
 27 28  1  0  0  0  0
 27 26  2  0  0  0  0
 29 28  1  0  0  0  0
 31 30  1  6  0  0  0
 32 34  1  0  0  0  0
 33 34  2  0  0  0  0
 34 31  1  0  0  0  0
M  END
>  <MODEL>
3

>  <REMARK>
 VINA RESULT:      -8.2      3.754      6.520
  Name = 
  9 active torsions:
  status: ('A' for Active; 'I' for Inactive)
    1  A    between atoms: C_3  and  C_34
    2  A    between atoms: S_6  and  C_11
    3  A    between atoms: S_6  and  C_20
    4  A    between atoms: O_12  and  C_14
    5  A    between atoms: C_14  and  C_28
    6  A    between atoms: N_21  and  C_28
    7  A    between atoms: C_24  and  C_34
    8  A    between atoms: C_26  and  C_29
    9  A    between atoms: C_29  and  C_31
                            x       y       z     vdW  Elec       q    Type
                         _______ _______ _______ _____ _____    ______ ____

>  <TORSDO>
F 9

$$$$
=
 OpenBabel11062415423D

 34 37  0  0  1  0  0  0  0  0999 V2000
  189.2150  176.3770  141.8960 S   0  0  0  0  0  0  0  0  0  0  0  0
  191.6330  176.6020  144.1630 C   0  0  0  0  0  1  0  0  0  0  0  0
  186.3100  177.4960  145.9300 F   0  0  0  0  0  0  0  0  0  0  0  0
  189.9500  177.0470  145.9700 C   0  0  0  0  0  0  0  0  0  0  0  0
  187.5970  177.4360  145.5410 C   0  0  0  0  0  0  0  0  0  0  0  0
  189.2490  177.1700  143.5370 C   0  0  2  0  0  3  0  0  0  0  0  0
  190.2320  176.5830  144.6030 C   0  0  1  0  0  3  0  0  0  0  0  0
  187.8630  177.5800  144.0170 C   0  0  2  0  0  3  0  0  0  0  0  0
  188.5310  177.2280  146.4230 C   0  0  0  0  0  3  0  0  0  0  0  0
  190.8680  177.1140  146.7450 O   0  0  0  0  0  0  0  0  0  0  0  0
  187.0190  178.6010  143.1990 C   0  0  0  0  0  2  0  0  0  0  0  0
  184.7370  178.2170  142.2660 C   0  0  0  0  0  3  0  0  0  0  0  0
  185.5040  178.5510  143.3840 C   0  0  0  0  0  0  0  0  0  0  0  0
  183.4280  179.1280  144.4780 C   0  0  0  0  0  3  0  0  0  0  0  0
  182.7270  178.8650  143.3170 C   0  0  0  0  0  0  0  0  0  0  0  0
  180.9240  179.1190  143.2300 Cl  0  0  0  0  0  0  0  0  0  0  0  0
  183.3300  178.3490  142.2130 C   0  0  0  0  0  3  0  0  0  0  0  0
  184.7810  179.0220  144.4940 C   0  0  0  0  0  3  0  0  0  0  0  0
  191.9660  177.3450  140.8750 O   0  0  0  0  0  0  0  0  0  0  0  0
  190.5920  177.3250  141.1350 C   0  0  1  0  0  3  0  0  0  0  0  0
  190.9900  177.8770  139.9070 N   0  0  2  0  0  0  0  0  0  0  0  0
  189.9090  176.0180  138.3380 C   0  0  1  0  0  3  0  0  0  0  0  0
  191.1920  176.9450  138.7940 C   0  0  1  0  0  0  0  0  0  0  0  0
  190.1490  177.3870  137.6390 C   0  0  2  0  0  3  0  0  0  0  0  0
  190.5010  174.6650  138.3770 O   0  0  0  0  0  1  0  0  0  0  0  0
  193.5810  177.1170  139.1170 O   0  0  0  0  0  0  0  0  0  0  0  0
  192.5640  176.6900  138.3670 C   0  0  0  0  0  0  0  0  0  0  0  0
  192.6400  176.5410  136.9410 O   0  0  0  0  0  0  0  0  0  0  0  0
  193.7420  175.8180  136.7310 C   0  0  0  0  0  1  0  0  0  0  0  0
  189.0680  179.5480  137.4560 O   0  0  0  0  0  1  0  0  0  0  0  0
  189.0920  178.4600  138.3320 C   0  0  1  0  0  3  0  0  0  0  0  0
  186.8500  177.7440  137.5540 O   0  0  0  0  0  0  0  0  0  0  0  0
  187.1140  178.5390  139.7430 O   0  0  0  0  0  1  0  0  0  0  0  0
  187.6530  178.1340  138.6050 C   0  0  0  0  0  0  0  0  0  0  0  0
  4  9  1  0  0  0  0
  4 10  2  0  0  0  0
  5  3  1  0  0  0  0
  5  9  2  0  0  0  0
  6  1  1  6  0  0  0
  6  8  1  0  0  0  0
  6  7  1  0  0  0  0
  7  2  1  6  0  0  0
  7  4  1  0  0  0  0
  8 11  1  1  0  0  0
  8  5  1  0  0  0  0
 11 13  1  0  0  0  0
 12 13  1  0  0  0  0
 13 18  2  0  0  0  0
 14 18  1  0  0  0  0
 15 14  2  0  0  0  0
 16 15  1  0  0  0  0
 17 12  2  0  0  0  0
 17 15  1  0  0  0  0
 19 20  1  0  0  0  0
 20  1  1  6  0  0  0
 21 19  1  1  0  0  0
 21 20  1  0  0  0  0
 22 25  1  6  0  0  0
 22 23  1  0  0  0  0
 23 27  1  6  0  0  0
 23 21  1  0  0  0  0
 24 31  1  1  0  0  0
 24 22  1  0  0  0  0
 24 23  1  0  0  0  0
 27 26  2  0  0  0  0
 28 27  1  0  0  0  0
 29 28  1  0  0  0  0
 31 30  1  6  0  0  0
 31 34  1  0  0  0  0
 32 34  2  0  0  0  0
 34 33  1  0  0  0  0
M  END
>  <MODEL>
4

>  <REMARK>
 VINA RESULT:      -7.8      1.769      2.516
  Name = 
  9 active torsions:
  status: ('A' for Active; 'I' for Inactive)
    1  A    between atoms: C_3  and  C_34
    2  A    between atoms: S_6  and  C_11
    3  A    between atoms: S_6  and  C_20
    4  A    between atoms: O_12  and  C_14
    5  A    between atoms: C_14  and  C_28
    6  A    between atoms: N_21  and  C_28
    7  A    between atoms: C_24  and  C_34
    8  A    between atoms: C_26  and  C_29
    9  A    between atoms: C_29  and  C_31
                            x       y       z     vdW  Elec       q    Type
                         _______ _______ _______ _____ _____    ______ ____

>  <TORSDO>
F 9

$$$$
=
 OpenBabel11062415423D

 34 37  0  0  1  0  0  0  0  0999 V2000
  188.3220  179.0030  141.3450 S   0  0  0  0  0  0  0  0  0  0  0  0
  185.1030  179.0530  140.5270 C   0  0  0  0  0  1  0  0  0  0  0  0
  186.4030  177.8730  145.9290 F   0  0  0  0  0  0  0  0  0  0  0  0
  184.4520  178.5760  142.9020 C   0  0  0  0  0  0  0  0  0  0  0  0
  186.0440  178.0040  144.6370 C   0  0  0  0  0  0  0  0  0  0  0  0
  186.8640  178.2920  142.1750 C   0  0  2  0  0  3  0  0  0  0  0  0
  185.4860  178.9950  141.9440 C   0  0  1  0  0  3  0  0  0  0  0  0
  187.1710  177.8090  143.5870 C   0  0  2  0  0  3  0  0  0  0  0  0
  184.8180  178.3180  144.3350 C   0  0  0  0  0  3  0  0  0  0  0  0
  183.3030  178.6090  142.5460 O   0  0  0  0  0  0  0  0  0  0  0  0
  188.2330  176.6950  143.8210 C   0  0  0  0  0  2  0  0  0  0  0  0
  190.5730  176.7160  144.6900 C   0  0  0  0  0  3  0  0  0  0  0  0
  189.2180  176.9080  144.9680 C   0  0  0  0  0  0  0  0  0  0  0  0
  189.8460  177.0300  147.2990 C   0  0  0  0  0  3  0  0  0  0  0  0
  191.1590  176.7510  146.9740 C   0  0  0  0  0  0  0  0  0  0  0  0
  192.4320  176.5850  148.2680 Cl  0  0  0  0  0  0  0  0  0  0  0  0
  191.5760  176.6510  145.6840 C   0  0  0  0  0  3  0  0  0  0  0  0
  188.8970  177.0570  146.3290 C   0  0  0  0  0  3  0  0  0  0  0  0
  188.7880  176.1150  140.3500 O   0  0  0  0  0  0  0  0  0  0  0  0
  189.0550  177.4300  140.7430 C   0  0  1  0  0  3  0  0  0  0  0  0
  189.8320  176.9210  139.6910 N   0  0  2  0  0  0  0  0  0  0  0  0
  190.2200  177.6820  137.1700 C   0  0  1  0  0  3  0  0  0  0  0  0
  189.2690  177.0210  138.3410 C   0  0  1  0  0  0  0  0  0  0  0  0
  190.2320  176.1420  137.3840 C   0  0  2  0  0  3  0  0  0  0  0  0
  189.3270  178.7280  136.6280 O   0  0  0  0  0  1  0  0  0  0  0  0
  187.3880  175.7000  137.5940 O   0  0  0  0  0  0  0  0  0  0  0  0
  187.8330  176.8070  138.1900 C   0  0  0  0  0  0  0  0  0  0  0  0
  187.1260  178.0560  138.1710 O   0  0  0  0  0  0  0  0  0  0  0  0
  186.1540  177.8850  137.2720 C   0  0  0  0  0  1  0  0  0  0  0  0
  191.8780  174.4620  137.9690 O   0  0  0  0  0  1  0  0  0  0  0  0
  191.5970  175.7990  138.2600 C   0  0  1  0  0  3  0  0  0  0  0  0
  193.6480  176.2740  136.9500 O   0  0  0  0  0  0  0  0  0  0  0  0
  193.4390  177.1320  139.1210 O   0  0  0  0  0  1  0  0  0  0  0  0
  192.8950  176.5310  138.0760 C   0  0  0  0  0  0  0  0  0  0  0  0
  4  9  1  0  0  0  0
  5  3  1  0  0  0  0
  6  1  1  1  0  0  0
  6  8  1  0  0  0  0
  7  2  1  6  0  0  0
  7  6  1  0  0  0  0
  7  4  1  0  0  0  0
  8 11  1  6  0  0  0
  8  5  1  0  0  0  0
  9  5  2  0  0  0  0
 10  4  2  0  0  0  0
 11 13  1  0  0  0  0
 12 13  2  0  0  0  0
 12 17  1  0  0  0  0
 13 18  1  0  0  0  0
 15 14  1  0  0  0  0
 15 16  1  0  0  0  0
 17 15  2  0  0  0  0
 18 14  2  0  0  0  0
 19 20  1  0  0  0  0
 20  1  1  6  0  0  0
 21 19  1  1  0  0  0
 21 20  1  0  0  0  0
 22 25  1  6  0  0  0
 22 24  1  0  0  0  0
 22 23  1  0  0  0  0
 23 27  1  6  0  0  0
 23 21  1  0  0  0  0
 24 31  1  1  0  0  0
 24 23  1  0  0  0  0
 26 27  2  0  0  0  0
 28 27  1  0  0  0  0
 29 28  1  0  0  0  0
 31 30  1  6  0  0  0
 32 34  2  0  0  0  0
 34 31  1  0  0  0  0
 34 33  1  0  0  0  0
M  END
>  <MODEL>
5

>  <REMARK>
 VINA RESULT:      -7.5      3.320      6.006
  Name = 
  9 active torsions:
  status: ('A' for Active; 'I' for Inactive)
    1  A    between atoms: C_3  and  C_34
    2  A    between atoms: S_6  and  C_11
    3  A    between atoms: S_6  and  C_20
    4  A    between atoms: O_12  and  C_14
    5  A    between atoms: C_14  and  C_28
    6  A    between atoms: N_21  and  C_28
    7  A    between atoms: C_24  and  C_34
    8  A    between atoms: C_26  and  C_29
    9  A    between atoms: C_29  and  C_31
                            x       y       z     vdW  Elec       q    Type
                         _______ _______ _______ _____ _____    ______ ____

>  <TORSDO>
F 9

$$$$
=
 OpenBabel11062415423D

 34 37  0  0  1  0  0  0  0  0999 V2000
  187.0000  178.6530  141.7150 S   0  0  0  0  0  0  0  0  0  0  0  0
  185.6860  179.5180  144.6400 C   0  0  0  0  0  1  0  0  0  0  0  0
  182.1310  177.5900  140.6520 F   0  0  0  0  0  0  0  0  0  0  0  0
  183.4040  178.8220  143.8650 C   0  0  0  0  0  0  0  0  0  0  0  0
  182.9030  178.1860  141.5800 C   0  0  0  0  0  0  0  0  0  0  0  0
  185.2880  179.0610  142.1850 C   0  0  2  0  0  3  0  0  0  0  0  0
  184.8610  178.7930  143.6650 C   0  0  1  0  0  3  0  0  0  0  0  0
  184.2830  178.7100  141.0960 C   0  0  2  0  0  3  0  0  0  0  0  0
  182.4920  178.2610  142.8120 C   0  0  0  0  0  3  0  0  0  0  0  0
  182.9870  179.1510  144.9440 O   0  0  0  0  0  0  0  0  0  0  0  0
  184.3840  179.3750  139.6910 C   0  0  0  0  0  2  0  0  0  0  0  0
  183.9010  177.6600  137.9440 C   0  0  0  0  0  3  0  0  0  0  0  0
  184.8530  178.4900  138.5390 C   0  0  0  0  0  0  0  0  0  0  0  0
  186.5130  177.2870  137.2590 C   0  0  0  0  0  3  0  0  0  0  0  0
  185.5400  176.4390  136.7670 C   0  0  0  0  0  0  0  0  0  0  0  0
  185.9700  175.0580  135.6570 Cl  0  0  0  0  0  0  0  0  0  0  0  0
  184.2200  176.6290  137.0310 C   0  0  0  0  0  3  0  0  0  0  0  0
  186.1850  178.2510  138.1560 C   0  0  0  0  0  3  0  0  0  0  0  0
  187.8230  176.1250  143.2900 O   0  0  0  0  0  0  0  0  0  0  0  0
  187.3260  177.4050  143.0220 C   0  0  1  0  0  3  0  0  0  0  0  0
  188.0260  177.2440  144.2280 N   0  0  2  0  0  0  0  0  0  0  0  0
  190.1840  178.5310  145.1050 C   0  0  1  0  0  3  0  0  0  0  0  0
  189.4850  177.3700  144.1700 C   0  0  1  0  0  0  0  0  0  0  0  0
  190.0230  177.0920  145.6700 C   0  0  2  0  0  3  0  0  0  0  0  0
  191.0000  179.2550  144.1070 O   0  0  0  0  0  1  0  0  0  0  0  0
  190.9570  175.6270  143.3730 O   0  0  0  0  0  0  0  0  0  0  0  0
  190.1810  176.6750  143.0920 C   0  0  0  0  0  0  0  0  0  0  0  0
  190.4050  177.5490  141.9750 O   0  0  0  0  0  0  0  0  0  0  0  0
  190.3770  176.7510  140.9060 C   0  0  0  0  0  1  0  0  0  0  0  0
  188.8490  176.0050  147.4910 O   0  0  0  0  0  1  0  0  0  0  0  0
  188.6990  177.1240  146.6680 C   0  0  1  0  0  3  0  0  0  0  0  0
  189.3390  178.6210  148.5370 O   0  0  0  0  0  1  0  0  0  0  0  0
  187.1460  178.6750  147.7140 O   0  0  0  0  0  0  0  0  0  0  0  0
  188.3980  178.2660  147.5950 C   0  0  0  0  0  0  0  0  0  0  0  0
  3  5  1  0  0  0  0
  4 10  2  0  0  0  0
  5  9  2  0  0  0  0
  6  1  1  6  0  0  0
  6  7  1  0  0  0  0
  7  4  1  0  0  0  0
  7  2  1  1  0  0  0
  8 11  1  1  0  0  0
  8  5  1  0  0  0  0
  8  6  1  0  0  0  0
  9  4  1  0  0  0  0
 12 13  1  0  0  0  0
 13 11  1  0  0  0  0
 14 18  1  0  0  0  0
 15 17  1  0  0  0  0
 15 14  2  0  0  0  0
 16 15  1  0  0  0  0
 17 12  2  0  0  0  0
 18 13  2  0  0  0  0
 20  1  1  6  0  0  0
 20 19  1  0  0  0  0
 20 21  1  0  0  0  0
 21 19  1  6  0  0  0
 22 25  1  6  0  0  0
 22 24  1  0  0  0  0
 23 27  1  6  0  0  0
 23 21  1  0  0  0  0
 23 22  1  0  0  0  0
 23 24  1  0  0  0  0
 24 31  1  1  0  0  0
 27 26  2  0  0  0  0
 28 27  1  0  0  0  0
 29 28  1  0  0  0  0
 31 30  1  1  0  0  0
 31 34  1  0  0  0  0
 34 33  2  0  0  0  0
 34 32  1  0  0  0  0
M  END
>  <MODEL>
6

>  <REMARK>
 VINA RESULT:      -7.4      2.979      6.176
  Name = 
  9 active torsions:
  status: ('A' for Active; 'I' for Inactive)
    1  A    between atoms: C_3  and  C_34
    2  A    between atoms: S_6  and  C_11
    3  A    between atoms: S_6  and  C_20
    4  A    between atoms: O_12  and  C_14
    5  A    between atoms: C_14  and  C_28
    6  A    between atoms: N_21  and  C_28
    7  A    between atoms: C_24  and  C_34
    8  A    between atoms: C_26  and  C_29
    9  A    between atoms: C_29  and  C_31
                            x       y       z     vdW  Elec       q    Type
                         _______ _______ _______ _____ _____    ______ ____

>  <TORSDO>
F 9

$$$$
=
 OpenBabel11062415423D

 34 37  0  0  1  0  0  0  0  0999 V2000
  191.8080  176.7250  138.1250 S   0  0  0  0  0  0  0  0  0  0  0  0
  189.0900  176.1760  136.2950 C   0  0  0  0  0  1  0  0  0  0  0  0
  188.4260  179.0380  141.1550 F   0  0  0  0  0  0  0  0  0  0  0  0
  187.6830  177.4560  137.9300 C   0  0  0  0  0  0  0  0  0  0  0  0
  188.5010  178.2440  140.0700 C   0  0  0  0  0  0  0  0  0  0  0  0
  190.0390  176.7680  138.5630 C   0  0  2  0  0  3  0  0  0  0  0  0
  189.0210  177.1090  137.4260 C   0  0  1  0  0  3  0  0  0  0  0  0
  189.7910  177.3890  139.9310 C   0  0  0  0  0  0  0  0  0  0  0  0
  187.5420  178.2550  139.1920 C   0  0  0  0  0  3  0  0  0  0  0  0
  186.7360  177.2270  137.2240 O   0  0  0  0  0  0  0  0  0  0  0  0
  190.4100  176.7480  141.2080 C   0  0  0  0  0  3  0  0  0  0  0  0
  190.4730  177.9950  143.3690 C   0  0  0  0  0  3  0  0  0  0  0  0
  189.7690  177.1140  142.5450 C   0  0  0  0  0  0  0  0  0  0  0  0
  188.2910  176.7430  144.4210 C   0  0  0  0  0  3  0  0  0  0  0  0
  189.0730  177.5580  145.2160 C   0  0  0  0  0  0  0  0  0  0  0  0
  188.6740  177.8160  146.9760 Cl  0  0  0  0  0  0  0  0  0  0  0  0
  190.1310  178.2510  144.7170 C   0  0  0  0  0  3  0  0  0  0  0  0
  188.6570  176.4900  143.1390 C   0  0  0  0  0  3  0  0  0  0  0  0
  191.5290  173.8240  137.0990 O   0  0  0  0  0  0  0  0  0  0  0  0
  191.9560  174.9130  137.8660 C   0  0  1  0  0  3  0  0  0  0  0  0
  192.9130  173.9230  137.5970 N   0  0  2  0  0  0  0  0  0  0  0  0
  194.7650  175.2240  136.1970 C   0  0  1  0  0  3  0  0  0  0  0  0
  193.6400  174.0290  136.3290 C   0  0  1  0  0  0  0  0  0  0  0  0
  195.2030  173.8130  136.6830 C   0  0  2  0  0  3  0  0  0  0  0  0
  194.3340  175.8920  134.9510 O   0  0  0  0  0  1  0  0  0  0  0  0
  191.9950  173.6700  134.5950 O   0  0  0  0  0  0  0  0  0  0  0  0
  193.1230  173.2780  135.1890 C   0  0  0  0  0  0  0  0  0  0  0  0
  193.5630  171.9120  135.2310 O   0  0  0  0  0  0  0  0  0  0  0  0
  192.5410  171.2080  134.7390 C   0  0  0  0  0  1  0  0  0  0  0  0
  195.4310  172.5770  138.7560 O   0  0  0  0  0  1  0  0  0  0  0  0
  195.3380  173.9060  138.3330 C   0  0  1  0  0  3  0  0  0  0  0  0
  196.2030  175.2530  140.2260 O   0  0  0  0  0  1  0  0  0  0  0  0
  197.5450  174.9260  138.3330 O   0  0  0  0  0  0  0  0  0  0  0  0
  196.4590  174.6260  139.0250 C   0  0  0  0  0  0  0  0  0  0  0  0
  4  9  1  0  0  0  0
  5  3  1  0  0  0  0
  6  1  1  6  0  0  0
  6  8  1  0  0  0  0
  7  2  1  6  0  0  0
  7  4  1  0  0  0  0
  7  6  1  0  0  0  0
  8  5  1  0  0  0  0
  8 11  2  0  0  0  0
  9  5  2  0  0  0  0
 10  4  2  0  0  0  0
 11 13  1  0  0  0  0
 12 17  1  0  0  0  0
 13 18  1  0  0  0  0
 13 12  2  0  0  0  0
 14 15  1  0  0  0  0
 15 16  1  0  0  0  0
 17 15  2  0  0  0  0
 18 14  2  0  0  0  0
 19 20  1  0  0  0  0
 20  1  1  6  0  0  0
 21 19  1  6  0  0  0
 21 20  1  0  0  0  0
 22 25  1  6  0  0  0
 22 23  1  0  0  0  0
 22 24  1  0  0  0  0
 23 27  1  6  0  0  0
 23 24  1  0  0  0  0
 23 21  1  0  0  0  0
 24 31  1  1  0  0  0
 26 27  2  0  0  0  0
 27 28  1  0  0  0  0
 29 28  1  0  0  0  0
 31 30  1  1  0  0  0
 31 34  1  0  0  0  0
 33 34  2  0  0  0  0
 34 32  1  0  0  0  0
M  END
>  <MODEL>
7

>  <REMARK>
 VINA RESULT:      -7.1      4.703      7.945
  Name = 
  9 active torsions:
  status: ('A' for Active; 'I' for Inactive)
    1  A    between atoms: C_3  and  C_34
    2  A    between atoms: S_6  and  C_11
    3  A    between atoms: S_6  and  C_20
    4  A    between atoms: O_12  and  C_14
    5  A    between atoms: C_14  and  C_28
    6  A    between atoms: N_21  and  C_28
    7  A    between atoms: C_24  and  C_34
    8  A    between atoms: C_26  and  C_29
    9  A    between atoms: C_29  and  C_31
                            x       y       z     vdW  Elec       q    Type
                         _______ _______ _______ _____ _____    ______ ____

>  <TORSDO>
F 9

$$$$
=
 OpenBabel11062415423D

 34 37  0  0  1  0  0  0  0  0999 V2000
  186.0870  178.6970  142.2270 S   0  0  0  0  0  0  0  0  0  0  0  0
  183.8840  179.1280  144.6750 C   0  0  0  0  0  1  0  0  0  0  0  0
  189.0430  177.2400  146.1130 F   0  0  0  0  0  0  0  0  0  0  0  0
  185.5910  178.4500  146.3830 C   0  0  0  0  0  0  0  0  0  0  0  0
  187.7670  177.5470  145.8160 C   0  0  0  0  0  0  0  0  0  0  0  0
  186.0350  178.0320  143.9230 C   0  0  2  0  0  3  0  0  0  0  0  0
  185.2920  178.8780  145.0080 C   0  0  1  0  0  3  0  0  0  0  0  0
  187.3440  177.3690  144.3310 C   0  0  2  0  0  3  0  0  0  0  0  0
  186.9770  178.0020  146.7440 C   0  0  0  0  0  3  0  0  0  0  0  0
  184.7500  178.6260  147.2260 O   0  0  0  0  0  0  0  0  0  0  0  0
  187.8850  176.1440  143.5360 C   0  0  0  0  0  2  0  0  0  0  0  0
  190.3580  176.3440  143.2670 C   0  0  0  0  0  3  0  0  0  0  0  0
  189.1060  176.3800  142.6500 C   0  0  0  0  0  0  0  0  0  0  0  0
  190.2380  177.2280  140.6910 C   0  0  0  0  0  3  0  0  0  0  0  0
  191.4370  177.2530  141.3770 C   0  0  0  0  0  0  0  0  0  0  0  0
  192.9580  177.8740  140.5880 Cl  0  0  0  0  0  0  0  0  0  0  0  0
  191.5540  176.7620  142.6400 C   0  0  0  0  0  3  0  0  0  0  0  0
  189.0990  176.8500  141.3250 C   0  0  0  0  0  3  0  0  0  0  0  0
  183.1330  178.8450  141.3350 O   0  0  0  0  0  0  0  0  0  0  0  0
  184.3540  178.3100  141.7560 C   0  0  1  0  0  3  0  0  0  0  0  0
  183.6170  177.5430  140.8400 N   0  0  2  0  0  0  0  0  0  0  0  0
  183.2870  176.7310  138.3270 C   0  0  1  0  0  3  0  0  0  0  0  0
  183.7940  177.8550  139.4190 C   0  0  1  0  0  0  0  0  0  0  0  0
  182.3130  177.8590  138.7690 C   0  0  2  0  0  3  0  0  0  0  0  0
  184.5000  176.5640  137.5000 O   0  0  0  0  0  1  0  0  0  0  0  0
  184.1640  180.2210  139.0960 O   0  0  0  0  0  0  0  0  0  0  0  0
  184.6560  178.9820  139.0760 C   0  0  0  0  0  0  0  0  0  0  0  0
  185.7260  178.5680  138.2130 O   0  0  0  0  0  0  0  0  0  0  0  0
  186.7280  178.2550  139.0360 C   0  0  0  0  0  1  0  0  0  0  0  0
  180.3460  178.1810  140.1500 O   0  0  0  0  0  1  0  0  0  0  0  0
  181.2940  177.1870  139.8920 C   0  0  1  0  0  3  0  0  0  0  0  0
  180.0450  175.6890  138.3630 O   0  0  0  0  0  0  0  0  0  0  0  0
  179.9910  175.2880  140.6710 O   0  0  0  0  0  1  0  0  0  0  0  0
  180.5050  175.9360  139.6390 C   0  0  0  0  0  0  0  0  0  0  0  0
  4  9  1  0  0  0  0
  4 10  2  0  0  0  0
  5  3  1  0  0  0  0
  5  9  2  0  0  0  0
  6  1  1  6  0  0  0
  6  8  1  0  0  0  0
  6  7  1  0  0  0  0
  7  2  1  6  0  0  0
  7  4  1  0  0  0  0
  8 11  1  1  0  0  0
  8  5  1  0  0  0  0
 13 12  1  0  0  0  0
 13 11  1  0  0  0  0
 14 18  1  0  0  0  0
 14 15  2  0  0  0  0
 15 17  1  0  0  0  0
 16 15  1  0  0  0  0
 17 12  2  0  0  0  0
 18 13  2  0  0  0  0
 19 20  1  0  0  0  0
 20  1  1  6  0  0  0
 21 19  1  1  0  0  0
 21 20  1  0  0  0  0
 22 25  1  6  0  0  0
 22 24  1  0  0  0  0
 22 23  1  0  0  0  0
 23 27  1  6  0  0  0
 23 21  1  0  0  0  0
 24 23  1  0  0  0  0
 24 31  1  1  0  0  0
 27 26  2  0  0  0  0
 28 29  1  0  0  0  0
 28 27  1  0  0  0  0
 31 30  1  6  0  0  0
 32 34  2  0  0  0  0
 34 31  1  0  0  0  0
 34 33  1  0  0  0  0
M  END
>  <MODEL>
8

>  <REMARK>
 VINA RESULT:      -7.1      3.754      6.481
  Name = 
  9 active torsions:
  status: ('A' for Active; 'I' for Inactive)
    1  A    between atoms: C_3  and  C_34
    2  A    between atoms: S_6  and  C_11
    3  A    between atoms: S_6  and  C_20
    4  A    between atoms: O_12  and  C_14
    5  A    between atoms: C_14  and  C_28
    6  A    between atoms: N_21  and  C_28
    7  A    between atoms: C_24  and  C_34
    8  A    between atoms: C_26  and  C_29
    9  A    between atoms: C_29  and  C_31
                            x       y       z     vdW  Elec       q    Type
                         _______ _______ _______ _____ _____    ______ ____

>  <TORSDO>
F 9

$$$$
=
 OpenBabel11062415423D

 34 37  0  0  1  0  0  0  0  0999 V2000
  187.1470  177.0870  143.0950 S   0  0  0  0  0  0  0  0  0  0  0  0
  187.5210  177.8790  146.3000 C   0  0  0  0  0  1  0  0  0  0  0  0
  182.4150  178.7600  143.9750 F   0  0  0  0  0  0  0  0  0  0  0  0
  185.1100  178.5500  146.4560 C   0  0  0  0  0  0  0  0  0  0  0  0
  183.6380  178.7070  144.5370 C   0  0  0  0  0  0  0  0  0  0  0  0
  186.1680  178.1720  144.1830 C   0  0  2  0  0  3  0  0  0  0  0  0
  186.1750  177.8560  145.7150 C   0  0  1  0  0  3  0  0  0  0  0  0
  184.8390  178.5790  143.5610 C   0  0  2  0  0  3  0  0  0  0  0  0
  183.7550  178.7240  145.8320 C   0  0  0  0  0  3  0  0  0  0  0  0
  185.3060  178.8170  147.6120 O   0  0  0  0  0  0  0  0  0  0  0  0
  184.8100  179.3760  142.2230 C   0  0  0  0  0  2  0  0  0  0  0  0
  185.1200  178.8380  139.8060 C   0  0  0  0  0  3  0  0  0  0  0  0
  184.3860  178.6100  140.9720 C   0  0  0  0  0  0  0  0  0  0  0  0
  182.8120  177.4030  139.5920 C   0  0  0  0  0  3  0  0  0  0  0  0
  183.5320  177.7310  138.4590 C   0  0  0  0  0  0  0  0  0  0  0  0
  182.9650  177.2200  136.8040 Cl  0  0  0  0  0  0  0  0  0  0  0  0
  184.7200  178.3880  138.5270 C   0  0  0  0  0  3  0  0  0  0  0  0
  183.2010  177.8710  140.8040 C   0  0  0  0  0  3  0  0  0  0  0  0
  189.5020  179.0360  143.5440 O   0  0  0  0  0  0  0  0  0  0  0  0
  188.6030  178.1890  142.8900 C   0  0  1  0  0  3  0  0  0  0  0  0
  189.9280  178.1720  142.4290 N   0  0  2  0  0  0  0  0  0  0  0  0
  191.1270  175.7960  142.4790 C   0  0  1  0  0  3  0  0  0  0  0  0
  190.8640  177.2870  143.1280 C   0  0  1  0  0  0  0  0  0  0  0  0
  192.0590  176.9770  142.0830 C   0  0  2  0  0  3  0  0  0  0  0  0
  190.8620  174.9230  143.6420 O   0  0  0  0  0  1  0  0  0  0  0  0
  192.4300  178.2790  144.6780 O   0  0  0  0  0  0  0  0  0  0  0  0
  191.2650  177.6610  144.4810 C   0  0  0  0  0  0  0  0  0  0  0  0
  190.6460  176.8080  145.4560 O   0  0  0  0  0  0  0  0  0  0  0  0
  191.5170  176.7540  146.4650 C   0  0  0  0  0  1  0  0  0  0  0  0
  192.7150  177.6230  139.8410 O   0  0  0  0  0  1  0  0  0  0  0  0
  191.5460  177.5030  140.5970 C   0  0  1  0  0  3  0  0  0  0  0  0
  191.0840  175.7080  138.9510 O   0  0  0  0  0  0  0  0  0  0  0  0
  189.3940  177.2360  139.4970 O   0  0  0  0  0  1  0  0  0  0  0  0
  190.5910  176.7270  139.7370 C   0  0  0  0  0  0  0  0  0  0  0  0
  3  5  1  0  0  0  0
  4 10  2  0  0  0  0
  5  9  2  0  0  0  0
  6  1  1  6  0  0  0
  6  7  1  0  0  0  0
  7  2  1  1  0  0  0
  7  4  1  0  0  0  0
  8 11  1  1  0  0  0
  8  6  1  0  0  0  0
  8  5  1  0  0  0  0
  9  4  1  0  0  0  0
 12 13  1  0  0  0  0
 13 11  1  0  0  0  0
 14 18  1  0  0  0  0
 15 17  1  0  0  0  0
 15 14  2  0  0  0  0
 16 15  1  0  0  0  0
 17 12  2  0  0  0  0
 18 13  2  0  0  0  0
 20  1  1  1  0  0  0
 20 19  1  0  0  0  0
 21 20  1  0  0  0  0
 21 23  1  0  0  0  0
 21 19  1  1  0  0  0
 22 23  1  0  0  0  0
 22 25  1  1  0  0  0
 23 27  1  1  0  0  0
 24 31  1  6  0  0  0
 24 22  1  0  0  0  0
 24 23  1  0  0  0  0
 27 26  2  0  0  0  0
 27 28  1  0  0  0  0
 28 29  1  0  0  0  0
 31 30  1  6  0  0  0
 32 34  2  0  0  0  0
 33 34  1  0  0  0  0
 34 31  1  0  0  0  0
M  END
>  <MODEL>
9

>  <REMARK>
 VINA RESULT:      -7.1      2.137      3.297
  Name = 
  9 active torsions:
  status: ('A' for Active; 'I' for Inactive)
    1  A    between atoms: C_3  and  C_34
    2  A    between atoms: S_6  and  C_11
    3  A    between atoms: S_6  and  C_20
    4  A    between atoms: O_12  and  C_14
    5  A    between atoms: C_14  and  C_28
    6  A    between atoms: N_21  and  C_28
    7  A    between atoms: C_24  and  C_34
    8  A    between atoms: C_26  and  C_29
    9  A    between atoms: C_29  and  C_31
                            x       y       z     vdW  Elec       q    Type
                         _______ _______ _______ _____ _____    ______ ____

>  <TORSDO>
F 9

$$$$
