=
 OpenBabel11062415583D

 41 46  0  0  1  0  0  0  0  0999 V2000
  183.9250  178.6320  146.3480 O   0  0  0  0  0  0  0  0  0  0  0  0
  184.8050  178.7680  145.4560 C   0  0  0  0  0  0  0  0  0  0  0  0
  188.1590  177.7720  147.0900 C   0  0  0  0  0  0  0  0  0  0  0  0
  186.1660  178.2390  145.6670 C   0  0  0  0  0  0  0  0  0  0  0  0
  186.8710  177.7800  144.6050 C   0  0  0  0  0  3  0  0  0  0  0  0
  190.2570  177.1630  147.5430 N   0  0  0  0  0  0  0  0  0  0  0  0
  188.8280  177.2940  145.9260 C   0  0  0  0  0  0  0  0  0  0  0  0
  190.1450  176.9310  146.2940 N   0  0  0  0  0  0  0  0  0  0  0  0
  189.0320  177.6920  148.0780 C   0  0  0  0  0  3  0  0  0  0  0  0
  188.2590  177.2700  144.7240 C   0  0  0  0  0  0  0  0  0  0  0  0
  186.7440  178.2520  147.0800 C   0  0  0  0  0  2  0  0  0  0  0  0
  189.0110  176.8070  143.5230 C   0  0  0  0  0  2  0  0  0  0  0  0
  188.5010  177.4680  142.3320 N   0  0  0  0  0  2  0  0  0  0  0  0
  189.7060  177.8570  139.0070 N   0  0  0  0  0  0  0  0  0  0  0  0
  189.2200  177.4560  141.1010 C   0  0  0  0  0  0  0  0  0  0  0  0
  188.7890  178.0530  140.0410 N   0  0  0  0  0  0  0  0  0  0  0  0
  190.6920  177.1420  139.4380 C   0  0  0  0  0  0  0  0  0  0  0  0
  190.5260  176.7730  140.8720 C   0  0  0  0  0  2  0  0  0  0  0  0
  191.8270  176.7530  138.5940 C   0  0  0  0  0  0  0  0  0  0  0  0
  193.1220  176.8160  139.0910 O   0  0  0  0  0  1  0  0  0  0  0  0
  191.6290  176.3390  137.4220 O   0  0  0  0  0  0  0  0  0  0  0  0
  184.4390  179.4370  144.1680 C   0  0  0  0  0  2  0  0  0  0  0  0
  181.2570  178.2930  144.1480 C   0  0  0  0  0  1  0  0  0  0  0  0
  184.2140  178.4120  141.8850 C   0  0  0  0  0  2  0  0  0  0  0  0
  181.7590  177.3440  139.1230 C   0  0  0  0  0  2  0  0  0  0  0  0
  183.6000  178.5230  143.2780 C   0  0  2  0  0  3  0  0  0  0  0  0
  180.8080  179.6180  139.9180 C   0  0  2  0  0  3  0  0  0  0  0  0
  180.9060  178.5780  138.7840 C   0  0  0  0  0  2  0  0  0  0  0  0
  183.1480  177.6680  139.7050 C   0  0  0  0  0  2  0  0  0  0  0  0
  182.1360  178.9510  143.1020 C   0  0  1  0  0  0  0  0  0  0  0  0
  181.7880  178.4490  141.7180 C   0  0  2  0  0  3  0  0  0  0  0  0
  181.9940  180.3440  143.1630 O   0  0  0  0  0  1  0  0  0  0  0  0
  183.0770  178.6150  140.9060 C   0  0  1  0  0  3  0  0  0  0  0  0
  180.5960  179.0280  141.1880 O   0  0  0  0  0  0  0  0  0  0  0  0
  179.7350  180.5550  139.6280 N   0  0  0  0  0  2  0  0  0  0  0  0
  181.1060  181.9200  137.9560 C   0  0  2  0  0  3  0  0  0  0  0  0
  180.8060  183.4430  137.0030 S   0  0  0  0  0  0  0  0  0  0  0  0
  179.4560  183.9360  138.1220 C   0  0  0  0  0  2  0  0  0  0  0  0
  179.9360  181.7360  138.8540 C   0  0  0  0  0  0  0  0  0  0  0  0
  179.1010  182.7530  138.9420 C   0  0  0  0  0  3  0  0  0  0  0  0
  182.2510  182.0780  138.7190 F   0  0  0  0  0  0  0  0  0  0  0  0
  2  4  1  0  0  0  0
  2  1  2  0  0  0  0
  3  9  2  0  0  0  0
  4 11  1  0  0  0  0
  5 10  1  0  0  0  0
  5  4  2  0  0  0  0
  6  9  1  0  0  0  0
  7  8  1  0  0  0  0
  7  3  1  0  0  0  0
  8  6  2  0  0  0  0
 10  7  2  0  0  0  0
 11  3  1  0  0  0  0
 12 10  1  0  0  0  0
 13 12  1  0  0  0  0
 14 17  2  0  0  0  0
 14 16  1  0  0  0  0
 15 13  1  0  0  0  0
 16 15  2  0  0  0  0
 17 18  1  0  0  0  0
 18 15  1  0  0  0  0
 19 20  1  0  0  0  0
 19 17  1  0  0  0  0
 21 19  2  0  0  0  0
 22  2  1  0  0  0  0
 24 26  1  0  0  0  0
 25 29  1  0  0  0  0
 26 22  1  1  0  0  0
 27 35  1  6  0  0  0
 27 34  1  0  0  0  0
 28 25  1  0  0  0  0
 28 27  1  0  0  0  0
 30 32  1  0  0  0  0
 30 26  1  0  0  0  0
 30 23  1  1  0  0  0
 31 34  1  6  0  0  0
 31 30  1  0  0  0  0
 33 29  1  6  0  0  0
 33 31  1  0  0  0  0
 33 24  1  0  0  0  0
 36 41  1  1  0  0  0
 36 39  1  0  0  0  0
 37 36  1  0  0  0  0
 37 38  1  0  0  0  0
 38 40  1  0  0  0  0
 39 40  2  0  0  0  0
 39 35  1  0  0  0  0
M  END
>  <MODEL>
1

>  <REMARK>
 VINA RESULT:      -9.9      0.000      0.000
  Name = 
  8 active torsions:
  status: ('A' for Active; 'I' for Inactive)
    1  A    between atoms: N_1  and  C_13
    2  A    between atoms: N_1  and  C_34
    3  A    between atoms: C_6  and  C_12
    4  A    between atoms: C_6  and  C_40
    5  A    between atoms: N_7  and  C_10
    6  A    between atoms: C_8  and  C_40
    7  A    between atoms: C_10  and  C_31
    8  A    between atoms: C_15  and  C_30
                            x       y       z     vdW  Elec       q    Type
                         _______ _______ _______ _____ _____    ______ ____

>  <TORSDO>
F 8

$$$$
=
 OpenBabel11062415583D

 41 46  0  0  1  0  0  0  0  0999 V2000
  191.6630  176.8460  143.4150 O   0  0  0  0  0  0  0  0  0  0  0  0
  190.4070  176.7700  143.3550 C   0  0  0  0  0  0  0  0  0  0  0  0
  189.2310  177.6630  146.9240 C   0  0  0  0  0  0  0  0  0  0  0  0
  189.5800  177.2040  144.4980 C   0  0  0  0  0  0  0  0  0  0  0  0
  188.2680  177.4770  144.3020 C   0  0  0  0  0  3  0  0  0  0  0  0
  188.0800  178.1420  148.7740 N   0  0  0  0  0  0  0  0  0  0  0  0
  187.8650  177.9460  146.6320 C   0  0  0  0  0  0  0  0  0  0  0  0
  187.2070  178.2370  147.8500 N   0  0  0  0  0  0  0  0  0  0  0  0
  189.3620  177.7830  148.2320 C   0  0  0  0  0  3  0  0  0  0  0  0
  187.3590  177.8790  145.4030 C   0  0  0  0  0  0  0  0  0  0  0  0
  190.2330  177.3050  145.8750 C   0  0  0  0  0  2  0  0  0  0  0  0
  185.9130  178.1360  145.1490 C   0  0  0  0  0  2  0  0  0  0  0  0
  185.6490  178.1200  143.7190 N   0  0  0  0  0  2  0  0  0  0  0  0
  182.7460  178.6420  141.7300 N   0  0  0  0  0  0  0  0  0  0  0  0
  184.3500  178.3760  143.1930 C   0  0  0  0  0  0  0  0  0  0  0  0
  184.0960  178.3470  141.9280 N   0  0  0  0  0  0  0  0  0  0  0  0
  182.1810  178.8500  142.8730 C   0  0  0  0  0  0  0  0  0  0  0  0
  183.1410  178.7060  144.0030 C   0  0  0  0  0  2  0  0  0  0  0  0
  180.7600  179.1880  143.0120 C   0  0  0  0  0  0  0  0  0  0  0  0
  179.8290  178.1950  143.2870 O   0  0  0  0  0  1  0  0  0  0  0  0
  180.3810  180.3840  142.9060 O   0  0  0  0  0  0  0  0  0  0  0  0
  189.7660  176.2730  142.0980 C   0  0  0  0  0  2  0  0  0  0  0  0
  192.1480  177.6000  140.0980 C   0  0  0  0  0  1  0  0  0  0  0  0
  188.4340  177.5340  140.3810 C   0  0  0  0  0  2  0  0  0  0  0  0
  188.4440  179.0180  136.8310 C   0  0  0  0  0  2  0  0  0  0  0  0
  189.8180  177.3200  140.9870 C   0  0  2  0  0  3  0  0  0  0  0  0
  189.6300  176.7370  136.5250 C   0  0  2  0  0  3  0  0  0  0  0  0
  188.8240  177.8780  135.8730 C   0  0  0  0  0  2  0  0  0  0  0  0
  187.7900  178.5560  138.1470 C   0  0  0  0  0  2  0  0  0  0  0  0
  190.7800  176.9990  139.8350 C   0  0  1  0  0  0  0  0  0  0  0  0
  190.1280  177.6570  138.6400 C   0  0  2  0  0  3  0  0  0  0  0  0
  190.8950  175.6190  139.6270 O   0  0  0  0  0  1  0  0  0  0  0  0
  188.6230  177.4990  138.8790 C   0  0  1  0  0  3  0  0  0  0  0  0
  190.6490  177.2070  137.3890 O   0  0  0  0  0  0  0  0  0  0  0  0
  190.2140  175.8990  135.4910 N   0  0  0  0  0  2  0  0  0  0  0  0
  191.0860  173.5770  136.1150 C   0  0  2  0  0  3  0  0  0  0  0  0
  192.7260  172.7840  136.0950 S   0  0  0  0  0  0  0  0  0  0  0  0
  193.5630  174.4000  136.0550 C   0  0  0  0  0  2  0  0  0  0  0  0
  191.2940  175.0020  135.7480 C   0  0  0  0  0  0  0  0  0  0  0  0
  192.5430  175.4230  135.7190 C   0  0  0  0  0  3  0  0  0  0  0  0
  190.5590  173.5020  137.3930 F   0  0  0  0  0  0  0  0  0  0  0  0
  2  1  2  0  0  0  0
  2  4  1  0  0  0  0
  3  9  2  0  0  0  0
  4 11  1  0  0  0  0
  5  4  2  0  0  0  0
  5 10  1  0  0  0  0
  7  3  1  0  0  0  0
  7  8  1  0  0  0  0
  8  6  2  0  0  0  0
  9  6  1  0  0  0  0
 10  7  2  0  0  0  0
 11  3  1  0  0  0  0
 12 10  1  0  0  0  0
 13 12  1  0  0  0  0
 14 16  1  0  0  0  0
 14 17  2  0  0  0  0
 15 13  1  0  0  0  0
 15 18  1  0  0  0  0
 16 15  2  0  0  0  0
 17 19  1  0  0  0  0
 17 18  1  0  0  0  0
 19 20  1  0  0  0  0
 21 19  2  0  0  0  0
 22  2  1  0  0  0  0
 24 26  1  0  0  0  0
 25 29  1  0  0  0  0
 26 22  1  1  0  0  0
 27 35  1  6  0  0  0
 27 34  1  0  0  0  0
 28 27  1  0  0  0  0
 28 25  1  0  0  0  0
 30 23  1  1  0  0  0
 30 26  1  0  0  0  0
 31 34  1  6  0  0  0
 31 33  1  0  0  0  0
 31 30  1  0  0  0  0
 32 30  1  0  0  0  0
 33 29  1  6  0  0  0
 33 24  1  0  0  0  0
 35 39  1  0  0  0  0
 36 41  1  1  0  0  0
 37 36  1  0  0  0  0
 38 37  1  0  0  0  0
 39 36  1  0  0  0  0
 40 39  2  0  0  0  0
 40 38  1  0  0  0  0
M  END
>  <MODEL>
2

>  <REMARK>
 VINA RESULT:      -9.8      4.276      9.038
  Name = 
  8 active torsions:
  status: ('A' for Active; 'I' for Inactive)
    1  A    between atoms: N_1  and  C_13
    2  A    between atoms: N_1  and  C_34
    3  A    between atoms: C_6  and  C_12
    4  A    between atoms: C_6  and  C_40
    5  A    between atoms: N_7  and  C_10
    6  A    between atoms: C_8  and  C_40
    7  A    between atoms: C_10  and  C_31
    8  A    between atoms: C_15  and  C_30
                            x       y       z     vdW  Elec       q    Type
                         _______ _______ _______ _____ _____    ______ ____

>  <TORSDO>
F 8

$$$$
=
 OpenBabel11062415583D

 41 46  0  0  1  0  0  0  0  0999 V2000
  191.7730  176.9780  143.4400 O   0  0  0  0  0  0  0  0  0  0  0  0
  190.5220  176.8310  143.3870 C   0  0  0  0  0  0  0  0  0  0  0  0
  189.3250  177.7070  146.9540 C   0  0  0  0  0  0  0  0  0  0  0  0
  189.6790  177.2240  144.5330 C   0  0  0  0  0  0  0  0  0  0  0  0
  188.3470  177.3890  144.3500 C   0  0  0  0  0  3  0  0  0  0  0  0
  188.1640  178.1350  148.8100 N   0  0  0  0  0  0  0  0  0  0  0  0
  187.9380  177.8760  146.6750 C   0  0  0  0  0  0  0  0  0  0  0  0
  187.2740  178.1400  147.8960 N   0  0  0  0  0  0  0  0  0  0  0  0
  189.4630  177.8650  148.2570 C   0  0  0  0  0  3  0  0  0  0  0  0
  187.4230  177.7420  145.4560 C   0  0  0  0  0  0  0  0  0  0  0  0
  190.3390  177.4060  145.8980 C   0  0  0  0  0  2  0  0  0  0  0  0
  185.9580  177.8790  145.2170 C   0  0  0  0  0  2  0  0  0  0  0  0
  185.7010  178.0530  143.7960 N   0  0  0  0  0  2  0  0  0  0  0  0
  182.8140  178.8720  141.8840 N   0  0  0  0  0  0  0  0  0  0  0  0
  184.4070  178.3950  143.3040 C   0  0  0  0  0  0  0  0  0  0  0  0
  184.1580  178.5340  142.0460 N   0  0  0  0  0  0  0  0  0  0  0  0
  182.2470  178.9390  143.0440 C   0  0  0  0  0  0  0  0  0  0  0  0
  183.2000  178.6350  144.1480 C   0  0  0  0  0  2  0  0  0  0  0  0
  180.8310  179.2780  143.2220 C   0  0  0  0  0  0  0  0  0  0  0  0
  180.3440  180.5040  142.7850 O   0  0  0  0  0  0  0  0  0  0  0  0
  180.0450  178.4500  143.7520 O   0  0  0  0  0  1  0  0  0  0  0  0
  189.9040  176.2930  142.1360 C   0  0  0  0  0  2  0  0  0  0  0  0
  192.2380  177.6160  140.0780 C   0  0  0  0  0  1  0  0  0  0  0  0
  188.5310  177.5130  140.4210 C   0  0  0  0  0  2  0  0  0  0  0  0
  188.4670  178.9410  136.8500 C   0  0  0  0  0  2  0  0  0  0  0  0
  189.9260  177.3230  141.0090 C   0  0  2  0  0  3  0  0  0  0  0  0
  189.6750  176.6690  136.5600 C   0  0  2  0  0  3  0  0  0  0  0  0
  188.8460  177.7910  135.9030 C   0  0  0  0  0  2  0  0  0  0  0  0
  187.8400  178.4920  138.1830 C   0  0  0  0  0  2  0  0  0  0  0  0
  190.8740  176.9960  139.8460 C   0  0  1  0  0  0  0  0  0  0  0  0
  190.1960  177.6280  138.6520 C   0  0  2  0  0  3  0  0  0  0  0  0
  191.0010  175.6130  139.6570 O   0  0  0  0  0  1  0  0  0  0  0  0
  188.6960  177.4560  138.9170 C   0  0  1  0  0  3  0  0  0  0  0  0
  190.7020  177.1640  137.4000 O   0  0  0  0  0  0  0  0  0  0  0  0
  190.2520  175.8220  135.5290 N   0  0  0  0  0  2  0  0  0  0  0  0
  188.8550  173.7860  136.2000 C   0  0  2  0  0  3  0  0  0  0  0  0
  188.6420  172.1090  135.5240 S   0  0  0  0  0  0  0  0  0  0  0  0
  190.2050  172.2280  134.5970 C   0  0  0  0  0  2  0  0  0  0  0  0
  189.9280  174.4380  135.4030 C   0  0  0  0  0  0  0  0  0  0  0  0
  190.6130  173.6540  134.5940 C   0  0  0  0  0  3  0  0  0  0  0  0
  189.2540  173.6980  137.5220 F   0  0  0  0  0  0  0  0  0  0  0  0
  2  1  2  0  0  0  0
  2  4  1  0  0  0  0
  3  9  2  0  0  0  0
  4 11  1  0  0  0  0
  5  4  2  0  0  0  0
  5 10  1  0  0  0  0
  7  3  1  0  0  0  0
  7  8  1  0  0  0  0
  8  6  2  0  0  0  0
  9  6  1  0  0  0  0
 10  7  2  0  0  0  0
 11  3  1  0  0  0  0
 12 10  1  0  0  0  0
 13 12  1  0  0  0  0
 14 16  1  0  0  0  0
 14 17  2  0  0  0  0
 15 13  1  0  0  0  0
 15 18  1  0  0  0  0
 16 15  2  0  0  0  0
 17 19  1  0  0  0  0
 17 18  1  0  0  0  0
 19 21  1  0  0  0  0
 20 19  2  0  0  0  0
 22  2  1  0  0  0  0
 24 26  1  0  0  0  0
 25 29  1  0  0  0  0
 26 22  1  1  0  0  0
 27 35  1  6  0  0  0
 27 34  1  0  0  0  0
 28 27  1  0  0  0  0
 28 25  1  0  0  0  0
 30 23  1  1  0  0  0
 30 26  1  0  0  0  0
 31 34  1  6  0  0  0
 31 33  1  0  0  0  0
 31 30  1  0  0  0  0
 32 30  1  0  0  0  0
 33 29  1  6  0  0  0
 33 24  1  0  0  0  0
 36 41  1  1  0  0  0
 37 36  1  0  0  0  0
 38 37  1  0  0  0  0
 39 35  1  0  0  0  0
 39 36  1  0  0  0  0
 40 38  1  0  0  0  0
 40 39  2  0  0  0  0
M  END
>  <MODEL>
3

>  <REMARK>
 VINA RESULT:      -9.7      4.043      8.802
  Name = 
  8 active torsions:
  status: ('A' for Active; 'I' for Inactive)
    1  A    between atoms: N_1  and  C_13
    2  A    between atoms: N_1  and  C_34
    3  A    between atoms: C_6  and  C_12
    4  A    between atoms: C_6  and  C_40
    5  A    between atoms: N_7  and  C_10
    6  A    between atoms: C_8  and  C_40
    7  A    between atoms: C_10  and  C_31
    8  A    between atoms: C_15  and  C_30
                            x       y       z     vdW  Elec       q    Type
                         _______ _______ _______ _____ _____    ______ ____

>  <TORSDO>
F 8

$$$$
=
 OpenBabel11062415583D

 41 46  0  0  1  0  0  0  0  0999 V2000
  185.7160  179.6210  146.9640 O   0  0  0  0  0  0  0  0  0  0  0  0
  185.8980  178.6270  146.2110 C   0  0  0  0  0  0  0  0  0  0  0  0
  189.5010  177.3730  146.8190 C   0  0  0  0  0  0  0  0  0  0  0  0
  187.2580  178.0940  146.0000 C   0  0  0  0  0  0  0  0  0  0  0  0
  187.7020  177.8900  144.7370 C   0  0  0  0  0  3  0  0  0  0  0  0
  191.6290  176.7250  146.6600 N   0  0  0  0  0  0  0  0  0  0  0  0
  189.8860  177.1710  145.4620 C   0  0  0  0  0  0  0  0  0  0  0  0
  191.2410  176.7660  145.4460 N   0  0  0  0  0  0  0  0  0  0  0  0
  190.5650  177.1000  147.5510 C   0  0  0  0  0  3  0  0  0  0  0  0
  189.0680  177.3960  144.4370 C   0  0  0  0  0  0  0  0  0  0  0  0
  188.1310  177.8140  147.2220 C   0  0  0  0  0  2  0  0  0  0  0  0
  189.5280  177.2190  143.0300 C   0  0  0  0  0  2  0  0  0  0  0  0
  188.7130  178.0270  142.1360 N   0  0  0  0  0  2  0  0  0  0  0  0
  188.6030  178.4690  138.6070 N   0  0  0  0  0  0  0  0  0  0  0  0
  188.8960  177.9980  140.7230 C   0  0  0  0  0  0  0  0  0  0  0  0
  188.1940  178.7220  139.9180 N   0  0  0  0  0  0  0  0  0  0  0  0
  189.5500  177.5910  138.6160 C   0  0  0  0  0  0  0  0  0  0  0  0
  189.8890  177.1510  139.9990 C   0  0  0  0  0  2  0  0  0  0  0  0
  190.1980  177.1020  137.3940 C   0  0  0  0  0  0  0  0  0  0  0  0
  189.4700  176.9810  136.2170 O   0  0  0  0  0  0  0  0  0  0  0  0
  191.4230  176.8120  137.4010 O   0  0  0  0  0  1  0  0  0  0  0  0
  184.7160  177.9730  145.5690 C   0  0  0  0  0  2  0  0  0  0  0  0
  185.5150  179.7410  142.7990 C   0  0  0  0  0  1  0  0  0  0  0  0
  182.4800  178.7380  144.7140 C   0  0  0  0  0  2  0  0  0  0  0  0
  180.5140  179.9470  141.6360 C   0  0  0  0  0  2  0  0  0  0  0  0
  183.9920  178.9260  144.6200 C   0  0  2  0  0  3  0  0  0  0  0  0
  181.9810  178.0340  140.6910 C   0  0  2  0  0  3  0  0  0  0  0  0
  180.7040  178.8850  140.5410 C   0  0  0  0  0  2  0  0  0  0  0  0
  180.6640  179.4160  143.0740 C   0  0  0  0  0  2  0  0  0  0  0  0
  184.3820  178.7930  143.1410 C   0  0  1  0  0  0  0  0  0  0  0  0
  183.1180  179.1840  142.4090 C   0  0  2  0  0  3  0  0  0  0  0  0
  184.7430  177.4780  142.8190 O   0  0  0  0  0  1  0  0  0  0  0  0
  181.9780  178.6570  143.2880 C   0  0  1  0  0  3  0  0  0  0  0  0
  183.1190  178.8050  141.0330 O   0  0  0  0  0  0  0  0  0  0  0  0
  182.2330  177.3110  139.4550 N   0  0  0  0  0  2  0  0  0  0  0  0
  180.7080  176.5440  137.5490 C   0  0  2  0  0  3  0  0  0  0  0  0
  179.7890  175.0130  137.1900 S   0  0  0  0  0  0  0  0  0  0  0  0
  179.8690  174.4960  138.9350 C   0  0  0  0  0  2  0  0  0  0  0  0
  181.2990  176.3830  138.9040 C   0  0  0  0  0  0  0  0  0  0  0  0
  180.8760  175.3510  139.6080 C   0  0  0  0  0  3  0  0  0  0  0  0
  179.8290  177.6130  137.5550 F   0  0  0  0  0  0  0  0  0  0  0  0
  2  1  2  0  0  0  0
  3 11  1  0  0  0  0
  3  9  2  0  0  0  0
  4  2  1  0  0  0  0
  4 11  1  0  0  0  0
  5  4  2  0  0  0  0
  6  9  1  0  0  0  0
  7  3  1  0  0  0  0
  8  7  1  0  0  0  0
  8  6  2  0  0  0  0
 10  5  1  0  0  0  0
 10  7  2  0  0  0  0
 12 10  1  0  0  0  0
 13 12  1  0  0  0  0
 14 17  2  0  0  0  0
 14 16  1  0  0  0  0
 15 13  1  0  0  0  0
 16 15  2  0  0  0  0
 17 18  1  0  0  0  0
 18 15  1  0  0  0  0
 19 21  1  0  0  0  0
 19 17  1  0  0  0  0
 20 19  2  0  0  0  0
 22  2  1  0  0  0  0
 25 29  1  0  0  0  0
 26 24  1  0  0  0  0
 26 22  1  1  0  0  0
 27 35  1  6  0  0  0
 27 34  1  0  0  0  0
 28 27  1  0  0  0  0
 28 25  1  0  0  0  0
 30 23  1  6  0  0  0
 30 26  1  0  0  0  0
 31 34  1  6  0  0  0
 31 30  1  0  0  0  0
 31 33  1  0  0  0  0
 32 30  1  0  0  0  0
 33 29  1  1  0  0  0
 33 24  1  0  0  0  0
 36 41  1  1  0  0  0
 36 39  1  0  0  0  0
 37 36  1  0  0  0  0
 37 38  1  0  0  0  0
 38 40  1  0  0  0  0
 39 35  1  0  0  0  0
 39 40  2  0  0  0  0
M  END
>  <MODEL>
4

>  <REMARK>
 VINA RESULT:      -9.6      2.483      3.491
  Name = 
  8 active torsions:
  status: ('A' for Active; 'I' for Inactive)
    1  A    between atoms: N_1  and  C_13
    2  A    between atoms: N_1  and  C_34
    3  A    between atoms: C_6  and  C_12
    4  A    between atoms: C_6  and  C_40
    5  A    between atoms: N_7  and  C_10
    6  A    between atoms: C_8  and  C_40
    7  A    between atoms: C_10  and  C_31
    8  A    between atoms: C_15  and  C_30
                            x       y       z     vdW  Elec       q    Type
                         _______ _______ _______ _____ _____    ______ ____

>  <TORSDO>
F 8

$$$$
=
 OpenBabel11062415583D

 41 46  0  0  1  0  0  0  0  0999 V2000
  190.7090  177.1530  143.9950 O   0  0  0  0  0  0  0  0  0  0  0  0
  189.5810  177.0040  143.4530 C   0  0  0  0  0  0  0  0  0  0  0  0
  187.0640  178.1170  146.1630 C   0  0  0  0  0  0  0  0  0  0  0  0
  188.3620  177.4890  144.1280 C   0  0  0  0  0  0  0  0  0  0  0  0
  187.2370  177.6920  143.4000 C   0  0  0  0  0  3  0  0  0  0  0  0
  185.2630  178.6880  147.3490 N   0  0  0  0  0  0  0  0  0  0  0  0
  185.9290  178.3210  145.3250 C   0  0  0  0  0  0  0  0  0  0  0  0
  184.8350  178.6760  146.1480 N   0  0  0  0  0  0  0  0  0  0  0  0
  186.6580  178.3410  147.3980 C   0  0  0  0  0  3  0  0  0  0  0  0
  185.9590  178.1400  144.0080 C   0  0  0  0  0  0  0  0  0  0  0  0
  188.4060  177.7220  145.6370 C   0  0  0  0  0  2  0  0  0  0  0  0
  184.7360  178.3170  143.1750 C   0  0  0  0  0  2  0  0  0  0  0  0
  185.0280  179.1780  142.0400 N   0  0  0  0  0  2  0  0  0  0  0  0
  184.0450  179.1850  138.6200 N   0  0  0  0  0  0  0  0  0  0  0  0
  184.4730  178.9320  140.7500 C   0  0  0  0  0  0  0  0  0  0  0  0
  184.7370  179.6750  139.7290 N   0  0  0  0  0  0  0  0  0  0  0  0
  183.3600  178.1450  138.9680 C   0  0  0  0  0  0  0  0  0  0  0  0
  183.5380  177.8200  140.4110 C   0  0  0  0  0  2  0  0  0  0  0  0
  182.5170  177.3940  138.0320 C   0  0  0  0  0  0  0  0  0  0  0  0
  181.6710  176.3970  138.5000 O   0  0  0  0  0  1  0  0  0  0  0  0
  182.5390  177.6650  136.8030 O   0  0  0  0  0  0  0  0  0  0  0  0
  189.5010  176.3660  142.1020 C   0  0  0  0  0  2  0  0  0  0  0  0
  192.0310  177.6250  140.2460 C   0  0  0  0  0  1  0  0  0  0  0  0
  188.3060  177.6240  140.2840 C   0  0  0  0  0  2  0  0  0  0  0  0
  188.5740  179.0570  136.7240 C   0  0  0  0  0  2  0  0  0  0  0  0
  189.6430  177.3960  140.9830 C   0  0  2  0  0  3  0  0  0  0  0  0
  189.7380  176.7520  136.5270 C   0  0  2  0  0  3  0  0  0  0  0  0
  188.9970  177.8970  135.8080 C   0  0  0  0  0  2  0  0  0  0  0  0
  187.8280  178.6240  138.0000 C   0  0  0  0  0  2  0  0  0  0  0  0
  190.6740  177.0440  139.9020 C   0  0  1  0  0  0  0  0  0  0  0  0
  190.1130  177.6950  138.6570 C   0  0  2  0  0  3  0  0  0  0  0  0
  190.7780  175.6580  139.7190 O   0  0  0  0  0  1  0  0  0  0  0  0
  188.5920  177.5640  138.7990 C   0  0  1  0  0  3  0  0  0  0  0  0
  190.7060  177.2180  137.4500 O   0  0  0  0  0  0  0  0  0  0  0  0
  190.3740  175.8900  135.5440 N   0  0  0  0  0  2  0  0  0  0  0  0
  191.3770  173.6220  136.1720 C   0  0  2  0  0  3  0  0  0  0  0  0
  193.0690  172.9550  136.2520 S   0  0  0  0  0  0  0  0  0  0  0  0
  193.7810  174.6300  136.3120 C   0  0  0  0  0  2  0  0  0  0  0  0
  191.4990  175.0700  135.8570 C   0  0  0  0  0  0  0  0  0  0  0  0
  192.7120  175.5830  135.9290 C   0  0  0  0  0  3  0  0  0  0  0  0
  190.7680  173.4700  137.4060 F   0  0  0  0  0  0  0  0  0  0  0  0
  2  1  2  0  0  0  0
  2  4  1  0  0  0  0
  3  9  2  0  0  0  0
  4 11  1  0  0  0  0
  5 10  1  0  0  0  0
  5  4  2  0  0  0  0
  6  9  1  0  0  0  0
  7  8  1  0  0  0  0
  7  3  1  0  0  0  0
  8  6  2  0  0  0  0
 10  7  2  0  0  0  0
 11  3  1  0  0  0  0
 12 10  1  0  0  0  0
 13 12  1  0  0  0  0
 14 17  2  0  0  0  0
 14 16  1  0  0  0  0
 15 13  1  0  0  0  0
 16 15  2  0  0  0  0
 17 18  1  0  0  0  0
 18 15  1  0  0  0  0
 19 20  1  0  0  0  0
 19 17  1  0  0  0  0
 21 19  2  0  0  0  0
 22  2  1  0  0  0  0
 24 26  1  0  0  0  0
 25 29  1  0  0  0  0
 26 22  1  1  0  0  0
 27 35  1  6  0  0  0
 27 34  1  0  0  0  0
 28 27  1  0  0  0  0
 28 25  1  0  0  0  0
 30 23  1  1  0  0  0
 30 26  1  0  0  0  0
 31 34  1  6  0  0  0
 31 33  1  0  0  0  0
 31 30  1  0  0  0  0
 32 30  1  0  0  0  0
 33 29  1  6  0  0  0
 33 24  1  0  0  0  0
 35 39  1  0  0  0  0
 36 37  1  0  0  0  0
 36 41  1  1  0  0  0
 37 38  1  0  0  0  0
 39 40  2  0  0  0  0
 39 36  1  0  0  0  0
 40 38  1  0  0  0  0
M  END
>  <MODEL>
5

>  <REMARK>
 VINA RESULT:      -9.2      4.558      8.685
  Name = 
  8 active torsions:
  status: ('A' for Active; 'I' for Inactive)
    1  A    between atoms: N_1  and  C_13
    2  A    between atoms: N_1  and  C_34
    3  A    between atoms: C_6  and  C_12
    4  A    between atoms: C_6  and  C_40
    5  A    between atoms: N_7  and  C_10
    6  A    between atoms: C_8  and  C_40
    7  A    between atoms: C_10  and  C_31
    8  A    between atoms: C_15  and  C_30
                            x       y       z     vdW  Elec       q    Type
                         _______ _______ _______ _____ _____    ______ ____

>  <TORSDO>
F 8

$$$$
=
 OpenBabel11062415583D

 41 46  0  0  1  0  0  0  0  0999 V2000
  183.7690  178.6280  146.5120 O   0  0  0  0  0  0  0  0  0  0  0  0
  184.2320  178.8610  145.3640 C   0  0  0  0  0  0  0  0  0  0  0  0
  181.0910  178.7890  143.1160 C   0  0  0  0  0  0  0  0  0  0  0  0
  183.3440  178.8340  144.1860 C   0  0  0  0  0  0  0  0  0  0  0  0
  183.8850  178.7040  142.9500 C   0  0  0  0  0  3  0  0  0  0  0  0
  179.6140  178.5950  141.4560 N   0  0  0  0  0  0  0  0  0  0  0  0
  181.7380  178.6660  141.8530 C   0  0  0  0  0  0  0  0  0  0  0  0
  180.7400  178.5470  140.8580 N   0  0  0  0  0  0  0  0  0  0  0  0
  179.7940  178.7450  142.8740 C   0  0  0  0  0  3  0  0  0  0  0  0
  183.0610  178.6280  141.7180 C   0  0  0  0  0  0  0  0  0  0  0  0
  181.8350  178.9280  144.4050 C   0  0  0  0  0  2  0  0  0  0  0  0
  183.6970  178.4490  140.3810 C   0  0  0  0  0  2  0  0  0  0  0  0
  185.1340  178.6470  140.4840 N   0  0  0  0  0  2  0  0  0  0  0  0
  187.8380  178.3970  138.1860 N   0  0  0  0  0  0  0  0  0  0  0  0
  185.9970  178.4750  139.3630 C   0  0  0  0  0  0  0  0  0  0  0  0
  187.2750  178.6280  139.4420 N   0  0  0  0  0  0  0  0  0  0  0  0
  186.9020  178.1060  137.3440 C   0  0  0  0  0  0  0  0  0  0  0  0
  185.5570  178.1090  137.9850 C   0  0  0  0  0  2  0  0  0  0  0  0
  187.1610  177.8110  135.9300 C   0  0  0  0  0  0  0  0  0  0  0  0
  186.1140  177.4710  135.0840 O   0  0  0  0  0  0  0  0  0  0  0  0
  188.3320  177.8880  135.4730 O   0  0  0  0  0  1  0  0  0  0  0  0
  185.6810  179.2040  145.2180 C   0  0  0  0  0  2  0  0  0  0  0  0
  186.8430  176.3330  143.8600 C   0  0  0  0  0  1  0  0  0  0  0  0
  187.4560  178.4810  146.8420 C   0  0  0  0  0  2  0  0  0  0  0  0
  190.6430  176.3780  147.3180 C   0  0  0  0  0  2  0  0  0  0  0  0
  186.5800  178.0540  145.6680 C   0  0  2  0  0  3  0  0  0  0  0  0
  190.9950  177.4750  144.9990 C   0  0  2  0  0  3  0  0  0  0  0  0
  191.6420  176.8350  146.2440 C   0  0  0  0  0  2  0  0  0  0  0  0
  189.6010  177.4410  147.7160 C   0  0  0  0  0  2  0  0  0  0  0  0
  187.5060  177.4890  144.5820 C   0  0  1  0  0  0  0  0  0  0  0  0
  188.7110  177.0120  145.3630 C   0  0  2  0  0  3  0  0  0  0  0  0
  187.8850  178.4760  143.6620 O   0  0  0  0  0  1  0  0  0  0  0  0
  188.8600  178.0200  146.5080 C   0  0  1  0  0  3  0  0  0  0  0  0
  189.8560  176.7670  144.5470 O   0  0  0  0  0  0  0  0  0  0  0  0
  191.9760  177.5600  143.9290 N   0  0  0  0  0  2  0  0  0  0  0  0
  190.4180  176.5930  142.1460 C   0  0  2  0  0  3  0  0  0  0  0  0
  190.2870  176.7670  140.3380 S   0  0  0  0  0  0  0  0  0  0  0  0
  192.0000  177.3730  140.2220 C   0  0  0  0  0  2  0  0  0  0  0  0
  191.6410  177.3280  142.5620 C   0  0  0  0  0  0  0  0  0  0  0  0
  192.4440  177.7220  141.5930 C   0  0  0  0  0  3  0  0  0  0  0  0
  190.5550  175.2530  142.4670 F   0  0  0  0  0  0  0  0  0  0  0  0
  2  1  2  0  0  0  0
  3 11  1  0  0  0  0
  4 11  1  0  0  0  0
  4  2  1  0  0  0  0
  5  4  2  0  0  0  0
  6  9  1  0  0  0  0
  7  3  1  0  0  0  0
  8  6  2  0  0  0  0
  8  7  1  0  0  0  0
  9  3  2  0  0  0  0
 10  7  2  0  0  0  0
 10  5  1  0  0  0  0
 12 13  1  0  0  0  0
 12 10  1  0  0  0  0
 14 16  1  0  0  0  0
 15 16  2  0  0  0  0
 15 13  1  0  0  0  0
 17 18  1  0  0  0  0
 17 14  2  0  0  0  0
 18 15  1  0  0  0  0
 19 17  1  0  0  0  0
 20 19  2  0  0  0  0
 21 19  1  0  0  0  0
 22  2  1  0  0  0  0
 25 29  1  0  0  0  0
 26 22  1  6  0  0  0
 26 24  1  0  0  0  0
 27 35  1  6  0  0  0
 27 28  1  0  0  0  0
 28 25  1  0  0  0  0
 30 23  1  6  0  0  0
 30 31  1  0  0  0  0
 30 26  1  0  0  0  0
 31 34  1  6  0  0  0
 31 33  1  0  0  0  0
 32 30  1  0  0  0  0
 33 24  1  1  0  0  0
 33 29  1  0  0  0  0
 34 27  1  0  0  0  0
 36 41  1  6  0  0  0
 36 39  1  0  0  0  0
 37 36  1  0  0  0  0
 38 37  1  0  0  0  0
 38 40  1  0  0  0  0
 39 35  1  0  0  0  0
 40 39  2  0  0  0  0
M  END
>  <MODEL>
6

>  <REMARK>
 VINA RESULT:      -9.1      3.853      8.529
  Name = 
  8 active torsions:
  status: ('A' for Active; 'I' for Inactive)
    1  A    between atoms: N_1  and  C_13
    2  A    between atoms: N_1  and  C_34
    3  A    between atoms: C_6  and  C_12
    4  A    between atoms: C_6  and  C_40
    5  A    between atoms: N_7  and  C_10
    6  A    between atoms: C_8  and  C_40
    7  A    between atoms: C_10  and  C_31
    8  A    between atoms: C_15  and  C_30
                            x       y       z     vdW  Elec       q    Type
                         _______ _______ _______ _____ _____    ______ ____

>  <TORSDO>
F 8

$$$$
=
 OpenBabel11062415583D

 41 46  0  0  1  0  0  0  0  0999 V2000
  192.4730  177.8450  140.5730 O   0  0  0  0  0  0  0  0  0  0  0  0
  191.4540  177.1130  140.4600 C   0  0  0  0  0  0  0  0  0  0  0  0
  190.6010  176.6420  136.7220 C   0  0  0  0  0  0  0  0  0  0  0  0
  190.7230  177.0490  139.1790 C   0  0  0  0  0  0  0  0  0  0  0  0
  189.4330  177.4580  139.1320 C   0  0  0  0  0  3  0  0  0  0  0  0
  189.6870  176.6440  134.6870 N   0  0  0  0  0  0  0  0  0  0  0  0
  189.2440  177.0740  136.7590 C   0  0  2  0  0  3  0  0  0  0  0  0
  188.7390  177.0490  135.4380 N   0  0  0  0  0  0  0  0  0  0  0  0
  190.8720  176.3800  135.4570 C   0  0  0  0  0  3  0  0  0  0  0  0
  188.6390  177.4650  137.8780 C   0  0  0  0  0  0  0  0  0  0  0  0
  191.4620  176.5470  137.9400 C   0  0  0  0  0  3  0  0  0  0  0  0
  187.2320  177.9560  137.8640 C   0  0  0  0  0  2  0  0  0  0  0  0
  186.9280  178.6280  139.1170 N   0  0  0  0  0  2  0  0  0  0  0  0
  183.9190  179.3460  140.8750 N   0  0  0  0  0  0  0  0  0  0  0  0
  185.5890  178.7690  139.5870 C   0  0  0  0  0  0  0  0  0  0  0  0
  185.3020  179.3780  140.6880 N   0  0  0  0  0  0  0  0  0  0  0  0
  183.3670  178.7170  139.8900 C   0  0  0  0  0  0  0  0  0  0  0  0
  184.3740  178.2470  138.8970 C   0  0  0  0  0  2  0  0  0  0  0  0
  181.9200  178.5050  139.7870 C   0  0  0  0  0  0  0  0  0  0  0  0
  181.0460  179.5780  139.9120 O   0  0  0  0  0  1  0  0  0  0  0  0
  181.4630  177.3540  139.5630 O   0  0  0  0  0  0  0  0  0  0  0  0
  191.0220  176.2800  141.6250 C   0  0  0  0  0  2  0  0  0  0  0  0
  190.5590  179.3120  143.0490 C   0  0  0  0  0  1  0  0  0  0  0  0
  191.6680  175.8910  144.0220 C   0  0  0  0  0  2  0  0  0  0  0  0
  191.2850  177.1300  147.6440 C   0  0  0  0  0  2  0  0  0  0  0  0
  191.3810  176.9420  142.9540 C   0  0  2  0  0  3  0  0  0  0  0  0
  188.8900  177.3500  146.6840 C   0  0  2  0  0  3  0  0  0  0  0  0
  189.7770  177.1940  147.9360 C   0  0  0  0  0  2  0  0  0  0  0  0
  191.6830  176.1200  146.5500 C   0  0  0  0  0  2  0  0  0  0  0  0
  190.3130  177.8910  143.5170 C   0  0  1  0  0  0  0  0  0  0  0  0
  190.5000  177.7800  145.0140 C   0  0  2  0  0  3  0  0  0  0  0  0
  189.0200  177.4850  143.1580 O   0  0  0  0  0  1  0  0  0  0  0  0
  190.8950  176.3190  145.2520 C   0  0  1  0  0  3  0  0  0  0  0  0
  189.4010  178.2970  145.7630 O   0  0  0  0  0  0  0  0  0  0  0  0
  187.5460  177.7310  147.0840 N   0  0  0  0  0  2  0  0  0  0  0  0
  185.3640  178.9140  146.4640 C   0  0  2  0  0  3  0  0  0  0  0  0
  184.4800  179.2190  144.9020 S   0  0  0  0  0  0  0  0  0  0  0  0
  185.3880  177.8800  144.0670 C   0  0  0  0  0  2  0  0  0  0  0  0
  186.5230  178.0410  146.1390 C   0  0  0  0  0  0  0  0  0  0  0  0
  186.5370  177.5150  144.9300 C   0  0  0  0  0  3  0  0  0  0  0  0
  184.5230  178.2530  147.3430 F   0  0  0  0  0  0  0  0  0  0  0  0
  2  1  2  0  0  0  0
  2 22  1  0  0  0  0
  3  7  1  0  0  0  0
  3 11  1  0  0  0  0
  4  2  1  0  0  0  0
  5  4  1  0  0  0  0
  6  8  2  0  0  0  0
  6  9  1  0  0  0  0
  7  8  1  6  0  0  0
  7 10  1  0  0  0  0
  9  3  2  0  0  0  0
 10  5  2  0  0  0  0
 11  4  2  0  0  0  0
 12 10  1  0  0  0  0
 12 13  1  0  0  0  0
 13 15  1  0  0  0  0
 15 16  2  0  0  0  0
 16 14  1  0  0  0  0
 17 14  2  0  0  0  0
 18 15  1  0  0  0  0
 18 17  1  0  0  0  0
 19 17  1  0  0  0  0
 19 20  1  0  0  0  0
 21 19  2  0  0  0  0
 25 28  1  0  0  0  0
 26 22  1  6  0  0  0
 26 30  1  0  0  0  0
 26 24  1  0  0  0  0
 27 35  1  1  0  0  0
 27 28  1  0  0  0  0
 29 25  1  0  0  0  0
 30 23  1  6  0  0  0
 30 31  1  0  0  0  0
 31 33  1  0  0  0  0
 31 34  1  1  0  0  0
 32 30  1  0  0  0  0
 33 24  1  6  0  0  0
 33 29  1  0  0  0  0
 34 27  1  0  0  0  0
 36 41  1  1  0  0  0
 37 36  1  0  0  0  0
 38 37  1  0  0  0  0
 38 40  1  0  0  0  0
 39 36  1  0  0  0  0
 39 35  1  0  0  0  0
 40 39  2  0  0  0  0
M  END
>  <MODEL>
7

>  <REMARK>
 VINA RESULT:      -9.0      3.417      9.450
  Name = 
  8 active torsions:
  status: ('A' for Active; 'I' for Inactive)
    1  A    between atoms: N_1  and  C_13
    2  A    between atoms: N_1  and  C_34
    3  A    between atoms: C_6  and  C_12
    4  A    between atoms: C_6  and  C_40
    5  A    between atoms: N_7  and  C_10
    6  A    between atoms: C_8  and  C_40
    7  A    between atoms: C_10  and  C_31
    8  A    between atoms: C_15  and  C_30
                            x       y       z     vdW  Elec       q    Type
                         _______ _______ _______ _____ _____    ______ ____

>  <TORSDO>
F 8

$$$$
=
 OpenBabel11062415583D

 41 46  0  0  1  0  0  0  0  0999 V2000
  192.6960  177.8290  140.5310 O   0  0  0  0  0  0  0  0  0  0  0  0
  191.6850  177.1270  140.2590 C   0  0  0  0  0  0  0  0  0  0  0  0
  189.6100  177.0220  137.0030 C   0  0  0  0  0  0  0  0  0  0  0  0
  191.2770  176.9250  138.8560 C   0  0  0  0  0  0  0  0  0  0  0  0
  192.1280  176.3110  137.9990 C   0  0  0  0  0  3  0  0  0  0  0  0
  188.7850  176.6380  134.9660 N   0  0  0  0  0  0  0  0  0  0  0  0
  190.5680  176.3840  136.1630 C   0  0  0  0  0  0  0  0  0  0  0  0
  189.9710  176.1750  134.8970 N   0  0  0  0  0  0  0  0  0  0  0  0
  188.5210  177.1770  136.2730 C   0  0  0  0  0  3  0  0  0  0  0  0
  191.7800  176.0320  136.5840 C   0  0  0  0  0  0  0  0  0  0  0  0
  189.8890  177.3930  138.4240 C   0  0  0  0  0  2  0  0  0  0  0  0
  192.7340  175.3230  135.6850 C   0  0  0  0  0  2  0  0  0  0  0  0
  193.8000  176.2250  135.2800 N   0  0  0  0  0  2  0  0  0  0  0  0
  197.3050  176.3430  135.8790 N   0  0  0  0  0  0  0  0  0  0  0  0
  195.1520  176.0150  135.6790 C   0  0  0  0  0  0  0  0  0  0  0  0
  196.1060  176.8170  135.3440 N   0  0  0  0  0  0  0  0  0  0  0  0
  197.0800  175.2540  136.5370 C   0  0  0  0  0  0  0  0  0  0  0  0
  195.6390  174.8760  136.5100 C   0  0  0  0  0  2  0  0  0  0  0  0
  198.1370  174.5010  137.2200 C   0  0  0  0  0  0  0  0  0  0  0  0
  198.7480  175.0240  138.3530 O   0  0  0  0  0  1  0  0  0  0  0  0
  198.4790  173.3660  136.7960 O   0  0  0  0  0  0  0  0  0  0  0  0
  190.9330  176.4720  141.3730 C   0  0  0  0  0  2  0  0  0  0  0  0
  190.5550  179.4180  142.9890 C   0  0  0  0  0  1  0  0  0  0  0  0
  191.6130  175.9240  143.7290 C   0  0  0  0  0  2  0  0  0  0  0  0
  191.3200  176.9450  147.4270 C   0  0  0  0  0  2  0  0  0  0  0  0
  191.3280  177.0440  142.7330 C   0  0  2  0  0  3  0  0  0  0  0  0
  188.9130  177.2680  146.5280 C   0  0  2  0  0  3  0  0  0  0  0  0
  189.8190  177.0190  147.7510 C   0  0  0  0  0  2  0  0  0  0  0  0
  191.6780  175.9970  146.2660 C   0  0  0  0  0  2  0  0  0  0  0  0
  190.2890  177.9760  143.3730 C   0  0  1  0  0  0  0  0  0  0  0  0
  190.5010  177.7700  144.8570 C   0  0  2  0  0  3  0  0  0  0  0  0
  188.9830  177.6170  143.0150 O   0  0  0  0  0  1  0  0  0  0  0  0
  190.8710  176.2900  144.9980 C   0  0  1  0  0  3  0  0  0  0  0  0
  189.4250  178.2600  145.6570 O   0  0  0  0  0  0  0  0  0  0  0  0
  187.5840  177.6490  146.9760 N   0  0  0  0  0  2  0  0  0  0  0  0
  185.4200  178.9060  146.4470 C   0  0  2  0  0  3  0  0  0  0  0  0
  184.4970  179.2670  144.9190 S   0  0  0  0  0  0  0  0  0  0  0  0
  185.3390  177.9190  144.0320 C   0  0  0  0  0  2  0  0  0  0  0  0
  186.5420  178.0060  146.0690 C   0  0  0  0  0  0  0  0  0  0  0  0
  186.5030  177.5040  144.8510 C   0  0  0  0  0  3  0  0  0  0  0  0
  184.5870  178.2530  147.3400 F   0  0  0  0  0  0  0  0  0  0  0  0
  2  1  2  0  0  0  0
  2 22  1  0  0  0  0
  3 11  1  0  0  0  0
  4  2  1  0  0  0  0
  5  4  2  0  0  0  0
  6  9  1  0  0  0  0
  7 10  2  0  0  0  0
  7  3  1  0  0  0  0
  8  6  2  0  0  0  0
  8  7  1  0  0  0  0
  9  3  2  0  0  0  0
 10  5  1  0  0  0  0
 11  4  1  0  0  0  0
 12 10  1  0  0  0  0
 13 15  1  0  0  0  0
 13 12  1  0  0  0  0
 14 17  2  0  0  0  0
 15 18  1  0  0  0  0
 16 15  2  0  0  0  0
 16 14  1  0  0  0  0
 17 19  1  0  0  0  0
 18 17  1  0  0  0  0
 19 20  1  0  0  0  0
 21 19  2  0  0  0  0
 25 28  1  0  0  0  0
 26 22  1  6  0  0  0
 26 30  1  0  0  0  0
 26 24  1  0  0  0  0
 27 35  1  1  0  0  0
 27 28  1  0  0  0  0
 29 25  1  0  0  0  0
 30 23  1  6  0  0  0
 30 31  1  0  0  0  0
 31 33  1  0  0  0  0
 31 34  1  1  0  0  0
 32 30  1  0  0  0  0
 33 24  1  6  0  0  0
 33 29  1  0  0  0  0
 34 27  1  0  0  0  0
 36 41  1  1  0  0  0
 37 36  1  0  0  0  0
 38 40  1  0  0  0  0
 38 37  1  0  0  0  0
 39 36  1  0  0  0  0
 39 35  1  0  0  0  0
 40 39  2  0  0  0  0
M  END
>  <MODEL>
8

>  <REMARK>
 VINA RESULT:      -8.9      5.291      9.517
  Name = 
  8 active torsions:
  status: ('A' for Active; 'I' for Inactive)
    1  A    between atoms: N_1  and  C_13
    2  A    between atoms: N_1  and  C_34
    3  A    between atoms: C_6  and  C_12
    4  A    between atoms: C_6  and  C_40
    5  A    between atoms: N_7  and  C_10
    6  A    between atoms: C_8  and  C_40
    7  A    between atoms: C_10  and  C_31
    8  A    between atoms: C_15  and  C_30
                            x       y       z     vdW  Elec       q    Type
                         _______ _______ _______ _____ _____    ______ ____

>  <TORSDO>
F 8

$$$$
=
 OpenBabel11062415583D

 41 46  0  0  1  0  0  0  0  0999 V2000
  186.8480  176.3410  136.7400 O   0  0  0  0  0  0  0  0  0  0  0  0
  187.1200  177.2400  137.5800 C   0  0  0  0  0  0  0  0  0  0  0  0
  190.9200  176.9940  138.2250 C   0  0  0  0  0  0  0  0  0  0  0  0
  188.4420  177.2690  138.2350 C   0  0  0  0  0  0  0  0  0  0  0  0
  188.5150  177.4870  139.5710 C   0  0  0  0  0  3  0  0  0  0  0  0
  192.9690  176.8410  139.0950 N   0  0  0  0  0  0  0  0  0  0  0  0
  190.9130  177.2450  139.6280 C   0  0  2  0  0  3  0  0  0  0  0  0
  192.2410  177.1280  140.1020 N   0  0  0  0  0  0  0  0  0  0  0  0
  192.1750  176.7480  137.9000 C   0  0  0  0  0  3  0  0  0  0  0  0
  189.7990  177.4910  140.3130 C   0  0  0  0  0  0  0  0  0  0  0  0
  189.6860  177.0250  137.3840 C   0  0  0  0  0  3  0  0  0  0  0  0
  189.8310  177.7000  141.7890 C   0  0  0  0  0  2  0  0  0  0  0  0
  188.4770  177.6950  142.3200 N   0  0  0  0  0  2  0  0  0  0  0  0
  187.1040  177.5040  145.5970 N   0  0  0  0  0  0  0  0  0  0  0  0
  188.2210  177.6100  143.7200 C   0  0  0  0  0  0  0  0  0  0  0  0
  187.0260  177.5860  144.2060 N   0  0  0  0  0  0  0  0  0  0  0  0
  188.3450  177.4790  145.9560 C   0  0  0  0  0  0  0  0  0  0  0  0
  189.2640  177.5420  144.7850 C   0  0  0  0  0  2  0  0  0  0  0  0
  188.7710  177.3990  147.3570 C   0  0  0  0  0  0  0  0  0  0  0  0
  190.1070  177.1850  147.6710 O   0  0  0  0  0  0  0  0  0  0  0  0
  187.9300  177.5470  148.2830 O   0  0  0  0  0  1  0  0  0  0  0  0
  186.1020  178.2980  137.8710 C   0  0  0  0  0  2  0  0  0  0  0  0
  185.1850  179.0040  141.0470 C   0  0  0  0  0  1  0  0  0  0  0  0
  183.8970  177.1160  138.1050 C   0  0  0  0  0  2  0  0  0  0  0  0
  180.5750  176.9700  140.0400 C   0  0  0  0  0  2  0  0  0  0  0  0
  185.0390  177.8020  138.8490 C   0  0  2  0  0  3  0  0  0  0  0  0
  180.9630  179.5100  139.7160 C   0  0  2  0  0  3  0  0  0  0  0  0
  179.9510  178.3730  139.9600 C   0  0  0  0  0  2  0  0  0  0  0  0
  181.5290  176.6280  138.8800 C   0  0  0  0  0  2  0  0  0  0  0  0
  184.4210  178.8870  139.7430 C   0  0  1  0  0  0  0  0  0  0  0  0
  183.0170  178.3810  139.9880 C   0  0  2  0  0  3  0  0  0  0  0  0
  184.3840  180.1290  139.0960 O   0  0  0  0  0  1  0  0  0  0  0  0
  182.6180  177.6860  138.6810 C   0  0  1  0  0  3  0  0  0  0  0  0
  182.1360  179.3800  140.5000 O   0  0  0  0  0  0  0  0  0  0  0  0
  180.3330  180.7910  139.9880 N   0  0  0  0  0  2  0  0  0  0  0  0
  181.1750  182.0260  137.9130 C   0  0  2  0  0  3  0  0  0  0  0  0
  180.4350  183.2140  136.7490 S   0  0  0  0  0  0  0  0  0  0  0  0
  179.1250  183.6420  137.9400 C   0  0  0  0  0  2  0  0  0  0  0  0
  180.1750  181.7960  138.9880 C   0  0  0  0  0  0  0  0  0  0  0  0
  179.1390  182.6120  139.0060 C   0  0  0  0  0  3  0  0  0  0  0  0
  182.3210  182.5770  138.4600 F   0  0  0  0  0  0  0  0  0  0  0  0
  1  2  2  0  0  0  0
  2 22  1  0  0  0  0
  2  4  1  0  0  0  0
  4  5  1  0  0  0  0
  5 10  2  0  0  0  0
  6  8  2  0  0  0  0
  7  3  1  1  0  0  0
  7  8  1  0  0  0  0
  7 10  1  0  0  0  0
  9  3  2  0  0  0  0
  9  6  1  0  0  0  0
 10 12  1  0  0  0  0
 11  3  1  0  0  0  0
 11  4  2  0  0  0  0
 12 13  1  0  0  0  0
 13 15  1  0  0  0  0
 14 17  2  0  0  0  0
 15 16  2  0  0  0  0
 15 18  1  0  0  0  0
 16 14  1  0  0  0  0
 17 19  1  0  0  0  0
 18 17  1  0  0  0  0
 19 20  2  0  0  0  0
 19 21  1  0  0  0  0
 24 26  1  0  0  0  0
 26 22  1  6  0  0  0
 26 30  1  0  0  0  0
 27 28  1  0  0  0  0
 27 35  1  1  0  0  0
 27 34  1  0  0  0  0
 28 25  1  0  0  0  0
 29 25  1  0  0  0  0
 30 31  1  0  0  0  0
 30 23  1  1  0  0  0
 31 34  1  6  0  0  0
 32 30  1  0  0  0  0
 33 24  1  1  0  0  0
 33 29  1  0  0  0  0
 33 31  1  0  0  0  0
 36 41  1  1  0  0  0
 36 39  1  0  0  0  0
 37 36  1  0  0  0  0
 37 38  1  0  0  0  0
 38 40  1  0  0  0  0
 39 40  2  0  0  0  0
 39 35  1  0  0  0  0
M  END
>  <MODEL>
9

>  <REMARK>
 VINA RESULT:      -8.8      2.378      5.802
  Name = 
  8 active torsions:
  status: ('A' for Active; 'I' for Inactive)
    1  A    between atoms: N_1  and  C_13
    2  A    between atoms: N_1  and  C_34
    3  A    between atoms: C_6  and  C_12
    4  A    between atoms: C_6  and  C_40
    5  A    between atoms: N_7  and  C_10
    6  A    between atoms: C_8  and  C_40
    7  A    between atoms: C_10  and  C_31
    8  A    between atoms: C_15  and  C_30
                            x       y       z     vdW  Elec       q    Type
                         _______ _______ _______ _____ _____    ______ ____

>  <TORSDO>
F 8

$$$$
