=
 OpenBabel11062412413D

 32 36  0  0  1  0  0  0  0  0999 V2000
  187.6940  177.8350  142.1780 C   0  0  0  0  0  0  0  0  0  0  0  0
  186.0590  177.6800  144.4470 C   0  0  2  0  0  3  0  0  0  0  0  0
  186.7600  178.7010  139.7160 N   0  0  0  0  0  0  0  0  0  0  0  0
  188.5770  177.9520  141.0960 C   0  0  0  0  0  3  0  0  0  0  0  0
  185.8940  178.6000  140.7610 C   0  0  0  0  0  0  0  0  0  0  0  0
  188.1010  177.4010  143.4860 N   0  0  0  0  0  0  0  0  0  0  0  0
  185.4980  178.0920  143.1050 C   0  0  0  0  0  0  0  0  0  0  0  0
  186.3590  178.1710  142.0110 C   0  0  0  0  0  0  0  0  0  0  0  0
  186.3970  178.8900  145.3060 C   0  0  0  0  0  1  0  0  0  0  0  0
  187.1740  176.8050  144.3020 O   0  0  0  0  0  0  0  0  0  0  0  0
  188.0830  178.3910  139.8600 C   0  0  0  0  0  0  0  0  0  0  0  0
  184.1550  178.4360  142.9280 C   0  0  0  0  0  3  0  0  0  0  0  0
  184.5420  178.9280  140.6250 C   0  0  0  0  0  3  0  0  0  0  0  0
  183.7120  178.8390  141.7020 N   0  0  0  0  0  0  0  0  0  0  0  0
  189.4980  177.5000  143.9010 C   0  0  2  0  0  3  0  0  0  0  0  0
  190.1780  178.6640  143.1940 C   0  0  0  0  0  1  0  0  0  0  0  0
  190.2280  176.1690  143.6950 C   0  0  1  0  0  3  0  0  0  0  0  0
  190.2050  175.7740  142.3510 O   0  0  0  0  0  1  0  0  0  0  0  0
  191.6530  176.2110  144.2410 C   0  0  2  0  0  3  0  0  0  0  0  0
  192.1380  174.9180  144.4570 O   0  0  0  0  0  1  0  0  0  0  0  0
  191.6870  177.0020  145.5420 C   0  0  0  0  0  2  0  0  0  0  0  0
  191.8660  176.0810  146.7350 C   0  0  0  0  0  2  0  0  0  0  0  0
  190.7160  176.2420  147.7110 C   0  0  0  0  0  2  0  0  0  0  0  0
  188.3830  177.0330  147.7180 C   0  0  0  0  0  2  0  0  0  0  0  0
  189.2250  178.0880  148.4050 C   0  0  0  0  0  2  0  0  0  0  0  0
  189.7840  177.3300  147.2200 C   0  0  0  0  0  3  0  0  0  0  0  0
  189.0120  178.5090  138.7000 C   0  0  0  0  0  2  0  0  0  0  0  0
  189.6160  174.9240  137.2840 C   0  0  0  0  0  3  0  0  0  0  0  0
  190.6190  175.2780  138.1200 N   0  0  0  0  0  0  0  0  0  0  0  0
  189.4210  177.1690  138.1810 C   0  0  0  0  0  0  0  0  0  0  0  0
  188.5230  176.1990  137.1440 S   0  0  0  0  0  0  0  0  0  0  0  0
  190.5080  176.5070  138.6240 N   0  0  0  0  0  0  0  0  0  0  0  0
  1  6  1  0  0  0  0
  2  9  1  6  0  0  0
  3 11  2  0  0  0  0
  3  5  1  0  0  0  0
  4  1  2  0  0  0  0
  5  8  1  0  0  0  0
  6 15  1  0  0  0  0
  6 10  1  0  0  0  0
  7  2  1  0  0  0  0
  8  1  1  0  0  0  0
  8  7  2  0  0  0  0
 10  2  1  0  0  0  0
 11  4  1  0  0  0  0
 12  7  1  0  0  0  0
 13  5  2  0  0  0  0
 13 14  1  0  0  0  0
 14 12  2  0  0  0  0
 15 16  1  6  0  0  0
 17 18  1  6  0  0  0
 17 15  1  0  0  0  0
 17 19  1  0  0  0  0
 19 20  1  1  0  0  0
 19 21  1  0  0  0  0
 21 22  1  0  0  0  0
 22 23  1  0  0  0  0
 24 25  1  0  0  0  0
 26 23  1  0  0  0  0
 26 24  1  0  0  0  0
 26 25  1  0  0  0  0
 27 11  1  0  0  0  0
 28 29  2  0  0  0  0
 29 32  1  0  0  0  0
 30 32  2  0  0  0  0
 30 27  1  0  0  0  0
 31 28  1  0  0  0  0
 31 30  1  0  0  0  0
M  END
>  <MODEL>
1

>  <REMARK>
 VINA RESULT:      -8.4      0.000      0.000
  Name = 
  9 active torsions:
  status: ('A' for Active; 'I' for Inactive)
    1  A    between atoms: C_2  and  C_12
    2  A    between atoms: C_2  and  C_26
    3  A    between atoms: C_4  and  C_27
    4  A    between atoms: C_4  and  C_32
    5  A    between atoms: C_5  and  N_19
    6  A    between atoms: C_5  and  C_27
    7  A    between atoms: C_15  and  C_17
    8  A    between atoms: C_15  and  C_32
    9  A    between atoms: C_17  and  C_18
                            x       y       z     vdW  Elec       q    Type
                         _______ _______ _______ _____ _____    ______ ____

>  <TORSDO>
F 9

$$$$
=
 OpenBabel11062412413D

 32 36  0  0  1  0  0  0  0  0999 V2000
  186.7750  178.0430  143.3940 C   0  0  0  0  0  0  0  0  0  0  0  0
  184.6420  179.5050  144.4700 C   0  0  2  0  0  3  0  0  0  0  0  0
  188.6460  176.7440  144.9740 N   0  0  0  0  0  0  0  0  0  0  0  0
  187.7820  177.2750  142.7960 C   0  0  0  0  0  3  0  0  0  0  0  0
  187.6670  177.4810  145.5670 C   0  0  0  0  0  0  0  0  0  0  0  0
  185.7650  178.7410  142.6470 N   0  0  0  0  0  0  0  0  0  0  0  0
  185.6810  178.8660  145.3620 C   0  0  0  0  0  0  0  0  0  0  0  0
  186.7130  178.1330  144.7770 C   0  0  0  0  0  0  0  0  0  0  0  0
  183.4060  178.6260  144.3350 C   0  0  0  0  0  1  0  0  0  0  0  0
  185.1840  179.8530  143.2000 O   0  0  0  0  0  0  0  0  0  0  0  0
  188.7190  176.6270  143.6150 C   0  0  0  0  0  0  0  0  0  0  0  0
  185.6240  178.9490  146.7560 C   0  0  0  0  0  3  0  0  0  0  0  0
  187.5780  177.5930  146.9570 C   0  0  0  0  0  3  0  0  0  0  0  0
  186.5670  178.3200  147.5140 N   0  0  0  0  0  0  0  0  0  0  0  0
  185.4360  178.3330  141.2830 C   0  0  2  0  0  3  0  0  0  0  0  0
  186.6370  178.5270  140.3680 C   0  0  0  0  0  1  0  0  0  0  0  0
  184.1820  179.0550  140.7810 C   0  0  1  0  0  3  0  0  0  0  0  0
  184.4450  179.7900  139.6180 O   0  0  0  0  0  1  0  0  0  0  0  0
  183.0120  178.0950  140.5840 C   0  0  2  0  0  3  0  0  0  0  0  0
  183.0250  177.5580  139.2940 O   0  0  0  0  0  1  0  0  0  0  0  0
  181.6970  178.8220  140.8300 C   0  0  0  0  0  2  0  0  0  0  0  0
  180.5440  177.8420  140.9370 C   0  0  0  0  0  2  0  0  0  0  0  0
  179.4380  178.4100  141.8060 C   0  0  0  0  0  2  0  0  0  0  0  0
  178.9310  179.6290  143.8860 C   0  0  0  0  0  2  0  0  0  0  0  0
  179.7640  178.4200  144.2570 C   0  0  0  0  0  2  0  0  0  0  0  0
  180.0460  179.1650  142.9690 C   0  0  0  0  0  3  0  0  0  0  0  0
  189.8010  175.8140  142.9880 C   0  0  0  0  0  2  0  0  0  0  0  0
  191.4720  177.4930  139.8880 C   0  0  0  0  0  3  0  0  0  0  0  0
  192.2190  177.6980  140.9970 N   0  0  0  0  0  0  0  0  0  0  0  0
  190.5140  176.5750  141.9180 C   0  0  0  0  0  0  0  0  0  0  0  0
  190.0810  176.6330  140.2960 S   0  0  0  0  0  0  0  0  0  0  0  0
  191.7010  177.1840  142.1120 N   0  0  0  0  0  0  0  0  0  0  0  0
  1  8  1  0  0  0  0
  2  9  1  6  0  0  0
  2  7  1  0  0  0  0
  3  5  1  0  0  0  0
  4  1  2  0  0  0  0
  4 11  1  0  0  0  0
  5 13  1  0  0  0  0
  6 10  1  0  0  0  0
  6  1  1  0  0  0  0
  7 12  2  0  0  0  0
  8  7  1  0  0  0  0
  8  5  2  0  0  0  0
 10  2  1  0  0  0  0
 11  3  2  0  0  0  0
 12 14  1  0  0  0  0
 13 14  2  0  0  0  0
 15 16  1  6  0  0  0
 15  6  1  0  0  0  0
 17 18  1  6  0  0  0
 17 15  1  0  0  0  0
 19 20  1  6  0  0  0
 19 17  1  0  0  0  0
 19 21  1  0  0  0  0
 21 22  1  0  0  0  0
 22 23  1  0  0  0  0
 23 26  1  0  0  0  0
 24 25  1  0  0  0  0
 26 24  1  0  0  0  0
 26 25  1  0  0  0  0
 27 11  1  0  0  0  0
 28 31  1  0  0  0  0
 28 29  2  0  0  0  0
 29 32  1  0  0  0  0
 30 32  2  0  0  0  0
 30 27  1  0  0  0  0
 31 30  1  0  0  0  0
M  END
>  <MODEL>
2

>  <REMARK>
 VINA RESULT:      -8.3      3.123      6.855
  Name = 
  9 active torsions:
  status: ('A' for Active; 'I' for Inactive)
    1  A    between atoms: C_2  and  C_12
    2  A    between atoms: C_2  and  C_26
    3  A    between atoms: C_4  and  C_27
    4  A    between atoms: C_4  and  C_32
    5  A    between atoms: C_5  and  N_19
    6  A    between atoms: C_5  and  C_27
    7  A    between atoms: C_15  and  C_17
    8  A    between atoms: C_15  and  C_32
    9  A    between atoms: C_17  and  C_18
                            x       y       z     vdW  Elec       q    Type
                         _______ _______ _______ _____ _____    ______ ____

>  <TORSDO>
F 9

$$$$
=
 OpenBabel11062412413D

 32 36  0  0  1  0  0  0  0  0999 V2000
  186.5960  178.0400  142.6390 C   0  0  0  0  0  0  0  0  0  0  0  0
  187.9130  177.3120  145.0020 C   0  0  2  0  0  3  0  0  0  0  0  0
  184.0340  179.0960  142.6190 N   0  0  0  0  0  0  0  0  0  0  0  0
  186.0160  178.4440  141.4300 C   0  0  0  0  0  3  0  0  0  0  0  0
  184.5900  178.7150  143.8020 C   0  0  0  0  0  0  0  0  0  0  0  0
  187.9200  177.4890  142.7350 N   0  0  0  0  0  0  0  0  0  0  0  0
  186.4910  177.8210  145.0240 C   0  0  0  0  0  0  0  0  0  0  0  0
  185.8870  178.1880  143.8220 C   0  0  0  0  0  0  0  0  0  0  0  0
  188.9090  178.4240  145.3000 C   0  0  0  0  0  1  0  0  0  0  0  0
  188.2130  176.6480  143.7780 O   0  0  0  0  0  0  0  0  0  0  0  0
  184.7180  178.9750  141.4430 C   0  0  0  0  0  0  0  0  0  0  0  0
  185.7700  177.9780  146.2110 C   0  0  0  0  0  3  0  0  0  0  0  0
  183.9010  178.8490  145.0100 C   0  0  0  0  0  3  0  0  0  0  0  0
  184.5020  178.4800  146.1770 N   0  0  0  0  0  0  0  0  0  0  0  0
  188.9060  177.7410  141.6870 C   0  0  2  0  0  3  0  0  0  0  0  0
  188.2660  177.6000  140.3130 C   0  0  0  0  0  1  0  0  0  0  0  0
  190.1380  176.8460  141.8650 C   0  0  1  0  0  3  0  0  0  0  0  0
  190.4370  176.1480  140.6880 O   0  0  0  0  0  1  0  0  0  0  0  0
  191.3440  177.6320  142.3720 C   0  0  2  0  0  3  0  0  0  0  0  0
  192.4340  177.4740  141.5110 O   0  0  0  0  0  1  0  0  0  0  0  0
  191.7170  177.1630  143.7720 C   0  0  0  0  0  2  0  0  0  0  0  0
  191.6550  175.6510  143.8750 C   0  0  0  0  0  2  0  0  0  0  0  0
  191.8910  175.2020  145.3050 C   0  0  0  0  0  2  0  0  0  0  0  0
  190.8070  176.1860  147.2870 C   0  0  0  0  0  2  0  0  0  0  0  0
  192.2700  175.9840  147.6200 C   0  0  0  0  0  2  0  0  0  0  0  0
  191.8650  176.4060  146.2240 C   0  0  0  0  0  3  0  0  0  0  0  0
  184.0880  179.3990  140.1600 C   0  0  0  0  0  2  0  0  0  0  0  0
  183.0830  176.0920  138.3500 C   0  0  0  0  0  3  0  0  0  0  0  0
  183.8510  176.8580  137.5430 N   0  0  0  0  0  0  0  0  0  0  0  0
  183.7190  178.2260  139.3120 C   0  0  0  0  0  0  0  0  0  0  0  0
  182.8210  176.8960  139.8080 S   0  0  0  0  0  0  0  0  0  0  0  0
  184.2120  178.0270  138.0730 N   0  0  0  0  0  0  0  0  0  0  0  0
  1  6  1  0  0  0  0
  1  8  1  0  0  0  0
  2  7  1  0  0  0  0
  2  9  1  6  0  0  0
  3  5  1  0  0  0  0
  4 11  1  0  0  0  0
  4  1  2  0  0  0  0
  5  8  2  0  0  0  0
  5 13  1  0  0  0  0
  6 10  1  0  0  0  0
  7 12  2  0  0  0  0
  8  7  1  0  0  0  0
 10  2  1  0  0  0  0
 11  3  2  0  0  0  0
 13 14  2  0  0  0  0
 14 12  1  0  0  0  0
 15 16  1  6  0  0  0
 15 17  1  0  0  0  0
 15  6  1  0  0  0  0
 17 18  1  6  0  0  0
 17 19  1  0  0  0  0
 19 20  1  6  0  0  0
 19 21  1  0  0  0  0
 21 22  1  0  0  0  0
 22 23  1  0  0  0  0
 23 26  1  0  0  0  0
 24 25  1  0  0  0  0
 26 24  1  0  0  0  0
 26 25  1  0  0  0  0
 27 11  1  0  0  0  0
 28 31  1  0  0  0  0
 29 32  1  0  0  0  0
 29 28  2  0  0  0  0
 30 31  1  0  0  0  0
 30 27  1  0  0  0  0
 32 30  2  0  0  0  0
M  END
>  <MODEL>
3

>  <REMARK>
 VINA RESULT:      -8.2      2.450      3.773
  Name = 
  9 active torsions:
  status: ('A' for Active; 'I' for Inactive)
    1  A    between atoms: C_2  and  C_12
    2  A    between atoms: C_2  and  C_26
    3  A    between atoms: C_4  and  C_27
    4  A    between atoms: C_4  and  C_32
    5  A    between atoms: C_5  and  N_19
    6  A    between atoms: C_5  and  C_27
    7  A    between atoms: C_15  and  C_17
    8  A    between atoms: C_15  and  C_32
    9  A    between atoms: C_17  and  C_18
                            x       y       z     vdW  Elec       q    Type
                         _______ _______ _______ _____ _____    ______ ____

>  <TORSDO>
F 9

$$$$
=
 OpenBabel11062412413D

 32 36  0  0  1  0  0  0  0  0999 V2000
  186.9530  177.7160  143.4980 C   0  0  0  0  0  0  0  0  0  0  0  0
  187.2030  177.3150  146.2590 C   0  0  2  0  0  3  0  0  0  0  0  0
  184.8120  179.0670  142.3700 N   0  0  0  0  0  0  0  0  0  0  0  0
  186.9170  177.9390  142.1150 C   0  0  0  0  0  3  0  0  0  0  0  0
  184.8390  178.8630  143.7160 C   0  0  0  0  0  0  0  0  0  0  0  0
  188.0290  177.0300  144.1590 N   0  0  0  0  0  0  0  0  0  0  0  0
  185.9880  177.9970  145.6740 C   0  0  0  0  0  0  0  0  0  0  0  0
  185.9210  178.1890  144.2950 C   0  0  0  0  0  0  0  0  0  0  0  0
  188.2290  178.3260  146.7500 C   0  0  0  0  0  1  0  0  0  0  0  0
  187.7730  176.3850  145.3420 O   0  0  0  0  0  0  0  0  0  0  0  0
  185.8240  178.6240  141.5660 C   0  0  0  0  0  0  0  0  0  0  0  0
  184.9450  178.4810  146.4700 C   0  0  0  0  0  3  0  0  0  0  0  0
  183.8140  179.3250  144.5460 C   0  0  0  0  0  3  0  0  0  0  0  0
  183.8900  179.1240  145.8920 N   0  0  0  0  0  0  0  0  0  0  0  0
  189.3450  176.9370  143.5340 C   0  0  2  0  0  3  0  0  0  0  0  0
  189.6450  175.4960  143.1440 C   0  0  0  0  0  1  0  0  0  0  0  0
  190.4260  177.5470  144.4320 C   0  0  1  0  0  3  0  0  0  0  0  0
  190.9030  176.6170  145.3640 O   0  0  0  0  0  1  0  0  0  0  0  0
  191.5630  178.1600  143.6190 C   0  0  2  0  0  3  0  0  0  0  0  0
  191.9650  179.3800  144.1720 O   0  0  0  0  0  1  0  0  0  0  0  0
  191.1180  178.3660  142.1770 C   0  0  0  0  0  2  0  0  0  0  0  0
  192.0220  177.6160  141.2160 C   0  0  0  0  0  2  0  0  0  0  0  0
  191.2170  177.0330  140.0700 C   0  0  0  0  0  2  0  0  0  0  0  0
  189.6880  178.0210  138.4110 C   0  0  0  0  0  2  0  0  0  0  0  0
  188.9100  176.9760  139.1810 C   0  0  0  0  0  2  0  0  0  0  0  0
  189.9400  177.8270  139.8930 C   0  0  0  0  0  3  0  0  0  0  0  0
  185.7710  178.8600  140.0940 C   0  0  0  0  0  2  0  0  0  0  0  0
  182.1180  179.0400  138.7350 C   0  0  0  0  0  3  0  0  0  0  0  0
  182.7150  180.2510  138.6520 N   0  0  0  0  0  0  0  0  0  0  0  0
  184.3740  179.1030  139.6240 C   0  0  0  0  0  0  0  0  0  0  0  0
  183.1790  177.9370  139.4440 S   0  0  0  0  0  0  0  0  0  0  0  0
  183.9590  180.2860  139.1290 N   0  0  0  0  0  0  0  0  0  0  0  0
  1  6  1  0  0  0  0
  1  8  1  0  0  0  0
  2  9  1  6  0  0  0
  3  5  1  0  0  0  0
  4  1  2  0  0  0  0
  5  8  2  0  0  0  0
  5 13  1  0  0  0  0
  6 10  1  0  0  0  0
  7  2  1  0  0  0  0
  7 12  2  0  0  0  0
  8  7  1  0  0  0  0
 10  2  1  0  0  0  0
 11  4  1  0  0  0  0
 11  3  2  0  0  0  0
 13 14  2  0  0  0  0
 14 12  1  0  0  0  0
 15 16  1  1  0  0  0
 15  6  1  0  0  0  0
 15 17  1  0  0  0  0
 17 18  1  1  0  0  0
 19 20  1  1  0  0  0
 19 17  1  0  0  0  0
 21 19  1  0  0  0  0
 22 21  1  0  0  0  0
 23 22  1  0  0  0  0
 24 25  1  0  0  0  0
 24 26  1  0  0  0  0
 25 26  1  0  0  0  0
 26 23  1  0  0  0  0
 27 11  1  0  0  0  0
 28 31  1  0  0  0  0
 29 28  2  0  0  0  0
 29 32  1  0  0  0  0
 30 27  1  0  0  0  0
 31 30  1  0  0  0  0
 32 30  2  0  0  0  0
M  END
>  <MODEL>
4

>  <REMARK>
 VINA RESULT:      -8.1      2.589      4.971
  Name = 
  9 active torsions:
  status: ('A' for Active; 'I' for Inactive)
    1  A    between atoms: C_2  and  C_12
    2  A    between atoms: C_2  and  C_26
    3  A    between atoms: C_4  and  C_27
    4  A    between atoms: C_4  and  C_32
    5  A    between atoms: C_5  and  N_19
    6  A    between atoms: C_5  and  C_27
    7  A    between atoms: C_15  and  C_17
    8  A    between atoms: C_15  and  C_32
    9  A    between atoms: C_17  and  C_18
                            x       y       z     vdW  Elec       q    Type
                         _______ _______ _______ _____ _____    ______ ____

>  <TORSDO>
F 9

$$$$
=
 OpenBabel11062412413D

 32 36  0  0  1  0  0  0  0  0999 V2000
  186.6100  178.1250  143.1440 C   0  0  0  0  0  0  0  0  0  0  0  0
  184.4880  179.6590  144.1390 C   0  0  2  0  0  3  0  0  0  0  0  0
  188.3580  176.7430  144.7920 N   0  0  0  0  0  0  0  0  0  0  0  0
  187.6130  177.3240  142.5840 C   0  0  0  0  0  3  0  0  0  0  0  0
  187.3830  177.5120  145.3490 C   0  0  0  0  0  0  0  0  0  0  0  0
  185.6610  178.8670  142.3600 N   0  0  0  0  0  0  0  0  0  0  0  0
  185.4620  178.9750  145.0700 C   0  0  0  0  0  0  0  0  0  0  0  0
  186.4900  178.2070  144.5240 C   0  0  0  0  0  0  0  0  0  0  0  0
  183.2270  178.8300  143.9420 C   0  0  0  0  0  1  0  0  0  0  0  0
  185.0990  179.9960  142.8970 O   0  0  0  0  0  0  0  0  0  0  0  0
  188.4870  176.6340  143.4360 C   0  0  0  0  0  0  0  0  0  0  0  0
  185.3460  179.0480  146.4610 C   0  0  0  0  0  3  0  0  0  0  0  0
  187.2370  177.6180  146.7350 C   0  0  0  0  0  3  0  0  0  0  0  0
  186.2310  178.3780  147.2540 N   0  0  0  0  0  0  0  0  0  0  0  0
  185.3770  178.4830  140.9800 C   0  0  2  0  0  3  0  0  0  0  0  0
  186.6290  178.6210  140.1230 C   0  0  0  0  0  1  0  0  0  0  0  0
  184.1860  179.2690  140.4240 C   0  0  1  0  0  3  0  0  0  0  0  0
  184.5720  180.1070  139.3700 O   0  0  0  0  0  1  0  0  0  0  0  0
  183.0370  178.3500  140.0160 C   0  0  2  0  0  3  0  0  0  0  0  0
  183.1870  177.0850  140.5920 O   0  0  0  0  0  1  0  0  0  0  0  0
  182.9830  178.2270  138.5000 C   0  0  0  0  0  2  0  0  0  0  0  0
  183.6570  176.9500  138.0330 C   0  0  0  0  0  2  0  0  0  0  0  0
  184.4360  177.1940  136.7530 C   0  0  0  0  0  2  0  0  0  0  0  0
  186.5330  176.4730  135.6820 C   0  0  0  0  0  2  0  0  0  0  0  0
  186.7440  177.8820  136.1960 C   0  0  0  0  0  2  0  0  0  0  0  0
  185.9030  176.9060  136.9910 C   0  0  0  0  0  3  0  0  0  0  0  0
  189.5640  175.7860  142.8500 C   0  0  0  0  0  2  0  0  0  0  0  0
  191.5720  177.5180  139.9880 C   0  0  0  0  0  3  0  0  0  0  0  0
  192.2540  177.5880  141.1540 N   0  0  0  0  0  0  0  0  0  0  0  0
  190.4070  176.5530  141.8840 C   0  0  0  0  0  0  0  0  0  0  0  0
  190.0940  176.7500  140.2450 S   0  0  0  0  0  0  0  0  0  0  0  0
  191.6210  177.0480  142.1960 N   0  0  0  0  0  0  0  0  0  0  0  0
  1  8  1  0  0  0  0
  2  9  1  6  0  0  0
  2  7  1  0  0  0  0
  3  5  1  0  0  0  0
  4  1  2  0  0  0  0
  4 11  1  0  0  0  0
  5 13  1  0  0  0  0
  6 10  1  0  0  0  0
  6  1  1  0  0  0  0
  7 12  2  0  0  0  0
  8  7  1  0  0  0  0
  8  5  2  0  0  0  0
 10  2  1  0  0  0  0
 11  3  2  0  0  0  0
 12 14  1  0  0  0  0
 13 14  2  0  0  0  0
 15 16  1  6  0  0  0
 15  6  1  0  0  0  0
 17 18  1  6  0  0  0
 17 15  1  0  0  0  0
 19 17  1  0  0  0  0
 19 20  1  1  0  0  0
 21 19  1  0  0  0  0
 22 21  1  0  0  0  0
 23 26  1  0  0  0  0
 23 22  1  0  0  0  0
 24 25  1  0  0  0  0
 24 26  1  0  0  0  0
 25 26  1  0  0  0  0
 27 11  1  0  0  0  0
 28 31  1  0  0  0  0
 28 29  2  0  0  0  0
 29 32  1  0  0  0  0
 30 32  2  0  0  0  0
 30 27  1  0  0  0  0
 31 30  1  0  0  0  0
M  END
>  <MODEL>
5

>  <REMARK>
 VINA RESULT:      -7.8      3.150      6.958
  Name = 
  9 active torsions:
  status: ('A' for Active; 'I' for Inactive)
    1  A    between atoms: C_2  and  C_12
    2  A    between atoms: C_2  and  C_26
    3  A    between atoms: C_4  and  C_27
    4  A    between atoms: C_4  and  C_32
    5  A    between atoms: C_5  and  N_19
    6  A    between atoms: C_5  and  C_27
    7  A    between atoms: C_15  and  C_17
    8  A    between atoms: C_15  and  C_32
    9  A    between atoms: C_17  and  C_18
                            x       y       z     vdW  Elec       q    Type
                         _______ _______ _______ _____ _____    ______ ____

>  <TORSDO>
F 9

$$$$
=
 OpenBabel11062412413D

 32 36  0  0  1  0  0  0  0  0999 V2000
  188.6640  178.0730  140.2240 C   0  0  0  0  0  0  0  0  0  0  0  0
  190.9450  177.2040  138.8510 C   0  0  2  0  0  3  0  0  0  0  0  0
  186.2130  178.4270  138.9790 N   0  0  0  0  0  0  0  0  0  0  0  0
  187.5440  178.4490  140.9780 C   0  0  0  0  0  3  0  0  0  0  0  0
  187.2910  178.0540  138.2370 C   0  0  0  0  0  0  0  0  0  0  0  0
  189.9660  177.8640  140.7940 N   0  0  0  0  0  0  0  0  0  0  0  0
  189.6430  177.4500  138.1260 C   0  0  0  0  0  0  0  0  0  0  0  0
  188.5310  177.8650  138.8590 C   0  0  0  0  0  0  0  0  0  0  0  0
  191.1220  175.7320  139.1970 C   0  0  0  0  0  1  0  0  0  0  0  0
  191.0710  178.0360  140.0000 O   0  0  0  0  0  0  0  0  0  0  0  0
  186.3150  178.6230  140.3270 C   0  0  0  0  0  0  0  0  0  0  0  0
  189.4990  177.2390  136.7520 C   0  0  0  0  0  3  0  0  0  0  0  0
  187.1910  177.8380  136.8600 C   0  0  0  0  0  3  0  0  0  0  0  0
  188.2890  177.4400  136.1550 N   0  0  0  0  0  0  0  0  0  0  0  0
  190.1150  177.5710  142.2180 C   0  0  2  0  0  3  0  0  0  0  0  0
  191.5720  177.7120  142.6380 C   0  0  0  0  0  1  0  0  0  0  0  0
  189.5260  176.1990  142.5620 C   0  0  1  0  0  3  0  0  0  0  0  0
  190.5320  175.2470  142.7680 O   0  0  0  0  0  1  0  0  0  0  0  0
  188.5710  176.2710  143.7510 C   0  0  2  0  0  3  0  0  0  0  0  0
  187.2420  176.2120  143.3220 O   0  0  0  0  0  1  0  0  0  0  0  0
  188.8080  177.5580  144.5300 C   0  0  0  0  0  2  0  0  0  0  0  0
  188.4810  177.3720  146.0000 C   0  0  0  0  0  2  0  0  0  0  0  0
  187.3570  178.3020  146.4180 C   0  0  0  0  0  2  0  0  0  0  0  0
  184.9130  178.6070  146.4940 C   0  0  0  0  0  2  0  0  0  0  0  0
  185.3380  178.6900  145.0430 C   0  0  0  0  0  2  0  0  0  0  0  0
  186.0290  177.7200  145.9780 C   0  0  0  0  0  3  0  0  0  0  0  0
  185.1190  179.0320  141.1190 C   0  0  0  0  0  2  0  0  0  0  0  0
  181.7030  178.6040  139.2830 C   0  0  0  0  0  3  0  0  0  0  0  0
  182.0060  177.4880  139.9850 N   0  0  0  0  0  0  0  0  0  0  0  0
  183.8470  178.6900  140.4150 C   0  0  0  0  0  0  0  0  0  0  0  0
  182.9530  179.7250  139.4390 S   0  0  0  0  0  0  0  0  0  0  0  0
  183.1780  177.5370  140.6180 N   0  0  0  0  0  0  0  0  0  0  0  0
  1  6  1  0  0  0  0
  1  4  1  0  0  0  0
  2  9  1  1  0  0  0
  2 10  1  0  0  0  0
  3 11  1  0  0  0  0
  5  8  1  0  0  0  0
  5  3  2  0  0  0  0
  6 15  1  0  0  0  0
  7  2  1  0  0  0  0
  7  8  1  0  0  0  0
  8  1  2  0  0  0  0
 10  6  1  0  0  0  0
 11  4  2  0  0  0  0
 11 27  1  0  0  0  0
 12  7  2  0  0  0  0
 13  5  1  0  0  0  0
 14 12  1  0  0  0  0
 14 13  2  0  0  0  0
 15 17  1  0  0  0  0
 15 16  1  6  0  0  0
 17 18  1  1  0  0  0
 17 19  1  0  0  0  0
 19 20  1  6  0  0  0
 19 21  1  0  0  0  0
 21 22  1  0  0  0  0
 22 23  1  0  0  0  0
 25 26  1  0  0  0  0
 25 24  1  0  0  0  0
 26 23  1  0  0  0  0
 26 24  1  0  0  0  0
 28 31  1  0  0  0  0
 28 29  2  0  0  0  0
 29 32  1  0  0  0  0
 30 32  2  0  0  0  0
 30 27  1  0  0  0  0
 31 30  1  0  0  0  0
M  END
>  <MODEL>
6

>  <REMARK>
 VINA RESULT:      -7.8      2.315      5.202
  Name = 
  9 active torsions:
  status: ('A' for Active; 'I' for Inactive)
    1  A    between atoms: C_2  and  C_12
    2  A    between atoms: C_2  and  C_26
    3  A    between atoms: C_4  and  C_27
    4  A    between atoms: C_4  and  C_32
    5  A    between atoms: C_5  and  N_19
    6  A    between atoms: C_5  and  C_27
    7  A    between atoms: C_15  and  C_17
    8  A    between atoms: C_15  and  C_32
    9  A    between atoms: C_17  and  C_18
                            x       y       z     vdW  Elec       q    Type
                         _______ _______ _______ _____ _____    ______ ____

>  <TORSDO>
F 9

$$$$
=
 OpenBabel11062412413D

 32 36  0  0  1  0  0  0  0  0999 V2000
  186.2750  178.3120  142.0380 C   0  0  0  0  0  0  0  0  0  0  0  0
  184.0860  179.0030  140.4320 C   0  0  2  0  0  3  0  0  0  0  0  0
  186.0570  177.9080  144.7710 N   0  0  0  0  0  0  0  0  0  0  0  0
  187.3940  177.9060  142.7760 C   0  0  0  0  0  3  0  0  0  0  0  0
  184.9600  178.2950  144.0640 C   0  0  0  0  0  0  0  0  0  0  0  0
  186.3040  178.5360  140.6190 N   0  0  0  0  0  0  0  0  0  0  0  0
  183.9430  178.8570  141.9300 C   0  0  0  0  0  0  0  0  0  0  0  0
  185.0600  178.4930  142.6810 C   0  0  0  0  0  0  0  0  0  0  0  0
  183.6670  177.7330  139.7050 C   0  0  0  0  0  1  0  0  0  0  0  0
  185.4020  179.4100  140.0690 O   0  0  0  0  0  0  0  0  0  0  0  0
  187.2620  177.7080  144.1580 C   0  0  0  0  0  0  0  0  0  0  0  0
  182.7220  179.0340  142.5860 C   0  0  0  0  0  3  0  0  0  0  0  0
  183.7230  178.4880  144.6830 C   0  0  0  0  0  3  0  0  0  0  0  0
  182.6410  178.8510  143.9350 N   0  0  0  0  0  0  0  0  0  0  0  0
  187.3380  177.9210  139.7910 C   0  0  2  0  0  3  0  0  0  0  0  0
  188.6970  178.5370  140.0980 C   0  0  0  0  0  1  0  0  0  0  0  0
  186.9720  177.9980  138.3050 C   0  0  1  0  0  3  0  0  0  0  0  0
  187.6960  179.0030  137.6500 O   0  0  0  0  0  1  0  0  0  0  0  0
  187.1300  176.6490  137.6090 C   0  0  2  0  0  3  0  0  0  0  0  0
  188.0950  176.7230  136.6010 O   0  0  0  0  0  1  0  0  0  0  0  0
  185.7960  176.2110  137.0190 C   0  0  0  0  0  2  0  0  0  0  0  0
  185.7590  174.7080  136.8150 C   0  0  0  0  0  2  0  0  0  0  0  0
  184.4910  174.1190  137.4050 C   0  0  0  0  0  2  0  0  0  0  0  0
  183.4410  171.9210  137.0450 C   0  0  0  0  0  2  0  0  0  0  0  0
  184.7230  171.9510  136.2390 C   0  0  0  0  0  2  0  0  0  0  0  0
  184.6650  172.6270  137.5930 C   0  0  0  0  0  3  0  0  0  0  0  0
  188.4490  177.2850  144.9540 C   0  0  0  0  0  2  0  0  0  0  0  0
  191.7890  177.1610  142.9410 C   0  0  0  0  0  3  0  0  0  0  0  0
  191.6650  178.3470  143.5790 N   0  0  0  0  0  0  0  0  0  0  0  0
  189.7150  177.4180  144.1720 C   0  0  0  0  0  0  0  0  0  0  0  0
  190.4200  176.2200  143.2290 S   0  0  0  0  0  0  0  0  0  0  0  0
  190.5310  178.4870  144.2660 N   0  0  0  0  0  0  0  0  0  0  0  0
  1  8  2  0  0  0  0
  1  4  1  0  0  0  0
  2  9  1  6  0  0  0
  2  7  1  0  0  0  0
  4 11  2  0  0  0  0
  5 13  1  0  0  0  0
  5  3  2  0  0  0  0
  6  1  1  0  0  0  0
  7 12  2  0  0  0  0
  7  8  1  0  0  0  0
  8  5  1  0  0  0  0
 10  2  1  0  0  0  0
 10  6  1  0  0  0  0
 11  3  1  0  0  0  0
 11 27  1  0  0  0  0
 12 14  1  0  0  0  0
 14 13  2  0  0  0  0
 15 16  1  6  0  0  0
 15  6  1  0  0  0  0
 17 18  1  6  0  0  0
 17 15  1  0  0  0  0
 19 20  1  6  0  0  0
 19 17  1  0  0  0  0
 21 19  1  0  0  0  0
 22 21  1  0  0  0  0
 22 23  1  0  0  0  0
 23 26  1  0  0  0  0
 24 26  1  0  0  0  0
 25 24  1  0  0  0  0
 25 26  1  0  0  0  0
 28 31  1  0  0  0  0
 28 29  2  0  0  0  0
 29 32  1  0  0  0  0
 30 32  2  0  0  0  0
 30 27  1  0  0  0  0
 31 30  1  0  0  0  0
M  END
>  <MODEL>
7

>  <REMARK>
 VINA RESULT:      -7.7      3.440      7.078
  Name = 
  9 active torsions:
  status: ('A' for Active; 'I' for Inactive)
    1  A    between atoms: C_2  and  C_12
    2  A    between atoms: C_2  and  C_26
    3  A    between atoms: C_4  and  C_27
    4  A    between atoms: C_4  and  C_32
    5  A    between atoms: C_5  and  N_19
    6  A    between atoms: C_5  and  C_27
    7  A    between atoms: C_15  and  C_17
    8  A    between atoms: C_15  and  C_32
    9  A    between atoms: C_17  and  C_18
                            x       y       z     vdW  Elec       q    Type
                         _______ _______ _______ _____ _____    ______ ____

>  <TORSDO>
F 9

$$$$
=
 OpenBabel11062412413D

 32 36  0  0  1  0  0  0  0  0999 V2000
  188.8430  177.7820  139.8820 C   0  0  0  0  0  0  0  0  0  0  0  0
  191.0150  176.8750  138.3630 C   0  0  2  0  0  3  0  0  0  0  0  0
  186.4480  178.5820  138.7400 N   0  0  0  0  0  0  0  0  0  0  0  0
  187.7730  178.1650  140.7000 C   0  0  0  0  0  3  0  0  0  0  0  0
  187.4790  178.2050  137.9350 C   0  0  0  0  0  0  0  0  0  0  0  0
  190.1140  177.3480  140.3960 N   0  0  0  0  0  0  0  0  0  0  0  0
  189.7490  177.3680  137.7010 C   0  0  0  0  0  0  0  0  0  0  0  0
  188.6900  177.7910  138.5040 C   0  0  0  0  0  0  0  0  0  0  0  0
  191.0260  175.3580  138.4890 C   0  0  0  0  0  1  0  0  0  0  0  0
  191.2320  177.5120  139.6190 O   0  0  0  0  0  0  0  0  0  0  0  0
  186.5700  178.5670  140.1010 C   0  0  0  0  0  0  0  0  0  0  0  0
  189.5830  177.3770  136.3140 C   0  0  0  0  0  3  0  0  0  0  0  0
  187.3570  178.2050  136.5430 C   0  0  0  0  0  3  0  0  0  0  0  0
  188.4040  177.7950  135.7710 N   0  0  0  0  0  0  0  0  0  0  0  0
  190.2280  176.8370  141.7590 C   0  0  2  0  0  3  0  0  0  0  0  0
  188.8610  176.4210  142.2850 C   0  0  0  0  0  1  0  0  0  0  0  0
  190.9330  177.8470  142.6690 C   0  0  1  0  0  3  0  0  0  0  0  0
  190.0260  178.7610  143.2210 O   0  0  0  0  0  1  0  0  0  0  0  0
  191.7620  177.1590  143.7500 C   0  0  2  0  0  3  0  0  0  0  0  0
  191.7070  175.7690  143.6060 O   0  0  0  0  0  1  0  0  0  0  0  0
  191.2520  177.5580  145.1280 C   0  0  0  0  0  2  0  0  0  0  0  0
  191.6210  176.5170  146.1680 C   0  0  0  0  0  2  0  0  0  0  0  0
  190.7080  176.6220  147.3760 C   0  0  0  0  0  2  0  0  0  0  0  0
  188.3080  176.9780  147.7970 C   0  0  0  0  0  2  0  0  0  0  0  0
  189.0420  178.2120  148.2770 C   0  0  0  0  0  2  0  0  0  0  0  0
  189.5140  177.4880  147.0340 C   0  0  0  0  0  3  0  0  0  0  0  0
  185.4270  178.9850  140.9620 C   0  0  0  0  0  2  0  0  0  0  0  0
  182.1100  178.6100  138.9420 C   0  0  0  0  0  3  0  0  0  0  0  0
  182.6800  179.8120  138.6980 N   0  0  0  0  0  0  0  0  0  0  0  0
  184.1440  179.0230  140.1970 C   0  0  0  0  0  0  0  0  0  0  0  0
  183.0370  177.7660  140.0690 S   0  0  0  0  0  0  0  0  0  0  0  0
  183.8040  180.0370  139.3770 N   0  0  0  0  0  0  0  0  0  0  0  0
  1  6  1  0  0  0  0
  1  4  1  0  0  0  0
  2  9  1  1  0  0  0
  2 10  1  0  0  0  0
  3 11  1  0  0  0  0
  5  8  1  0  0  0  0
  5  3  2  0  0  0  0
  6 15  1  0  0  0  0
  7  2  1  0  0  0  0
  7  8  1  0  0  0  0
  8  1  2  0  0  0  0
 10  6  1  0  0  0  0
 11  4  2  0  0  0  0
 11 27  1  0  0  0  0
 12  7  2  0  0  0  0
 13  5  1  0  0  0  0
 14 12  1  0  0  0  0
 14 13  2  0  0  0  0
 15 16  1  1  0  0  0
 15 17  1  0  0  0  0
 17 18  1  1  0  0  0
 17 19  1  0  0  0  0
 19 20  1  6  0  0  0
 19 21  1  0  0  0  0
 21 22  1  0  0  0  0
 22 23  1  0  0  0  0
 24 25  1  0  0  0  0
 26 23  1  0  0  0  0
 26 24  1  0  0  0  0
 26 25  1  0  0  0  0
 28 31  1  0  0  0  0
 29 28  2  0  0  0  0
 29 32  1  0  0  0  0
 30 27  1  0  0  0  0
 31 30  1  0  0  0  0
 32 30  2  0  0  0  0
M  END
>  <MODEL>
8

>  <REMARK>
 VINA RESULT:      -7.6      2.216      4.940
  Name = 
  9 active torsions:
  status: ('A' for Active; 'I' for Inactive)
    1  A    between atoms: C_2  and  C_12
    2  A    between atoms: C_2  and  C_26
    3  A    between atoms: C_4  and  C_27
    4  A    between atoms: C_4  and  C_32
    5  A    between atoms: C_5  and  N_19
    6  A    between atoms: C_5  and  C_27
    7  A    between atoms: C_15  and  C_17
    8  A    between atoms: C_15  and  C_32
    9  A    between atoms: C_17  and  C_18
                            x       y       z     vdW  Elec       q    Type
                         _______ _______ _______ _____ _____    ______ ____

>  <TORSDO>
F 9

$$$$
=
 OpenBabel11062412413D

 32 36  0  0  1  0  0  0  0  0999 V2000
  186.9730  177.4810  143.4470 C   0  0  0  0  0  0  0  0  0  0  0  0
  189.1970  177.1600  145.1190 C   0  0  2  0  0  3  0  0  0  0  0  0
  184.6270  178.6920  144.2930 N   0  0  0  0  0  0  0  0  0  0  0  0
  185.9180  177.6700  142.5440 C   0  0  0  0  0  3  0  0  0  0  0  0
  185.6480  178.5220  145.1780 C   0  0  0  0  0  0  0  0  0  0  0  0
  188.2220  176.8690  143.0860 N   0  0  0  0  0  0  0  0  0  0  0  0
  187.9110  177.7640  145.6350 C   0  0  0  0  0  0  0  0  0  0  0  0
  186.8390  177.9190  144.7560 C   0  0  0  0  0  0  0  0  0  0  0  0
  190.1970  178.2360  144.7170 C   0  0  0  0  0  1  0  0  0  0  0  0
  188.9550  176.2410  144.0590 O   0  0  0  0  0  0  0  0  0  0  0  0
  184.7400  178.2830  142.9940 C   0  0  0  0  0  0  0  0  0  0  0  0
  187.7690  178.2110  146.9510 C   0  0  0  0  0  3  0  0  0  0  0  0
  185.5440  178.9490  146.5040 C   0  0  0  0  0  3  0  0  0  0  0  0
  186.5980  178.7840  147.3530 N   0  0  0  0  0  0  0  0  0  0  0  0
  188.6530  176.8300  141.6910 C   0  0  2  0  0  3  0  0  0  0  0  0
  190.1040  176.3780  141.5980 C   0  0  0  0  0  1  0  0  0  0  0  0
  188.4030  178.1740  140.9990 C   0  0  1  0  0  3  0  0  0  0  0  0
  188.8870  179.2420  141.7660 O   0  0  0  0  0  1  0  0  0  0  0  0
  188.9700  178.2000  139.5820 C   0  0  2  0  0  3  0  0  0  0  0  0
  188.7750  179.4530  138.9950 O   0  0  0  0  0  1  0  0  0  0  0  0
  188.3060  177.1210  138.7380 C   0  0  0  0  0  2  0  0  0  0  0  0
  189.1190  176.8270  137.4910 C   0  0  0  0  0  2  0  0  0  0  0  0
  190.5900  176.6840  137.8350 C   0  0  0  0  0  2  0  0  0  0  0  0
  192.7430  176.0040  136.8500 C   0  0  0  0  0  2  0  0  0  0  0  0
  192.1840  174.8090  137.5930 C   0  0  0  0  0  2  0  0  0  0  0  0
  191.2500  175.7410  136.8510 C   0  0  0  0  0  3  0  0  0  0  0  0
  183.6080  178.4800  142.0430 C   0  0  0  0  0  2  0  0  0  0  0  0
  184.7510  178.1380  138.3290 C   0  0  0  0  0  3  0  0  0  0  0  0
  185.3900  179.1690  138.9270 N   0  0  0  0  0  0  0  0  0  0  0  0
  184.0790  178.5280  140.6260 C   0  0  0  0  0  0  0  0  0  0  0  0
  183.6700  177.4370  139.4160 S   0  0  0  0  0  0  0  0  0  0  0  0
  185.0320  179.3780  140.1940 N   0  0  0  0  0  0  0  0  0  0  0  0
  1  8  1  0  0  0  0
  2  9  1  6  0  0  0
  2  7  1  0  0  0  0
  3  5  1  0  0  0  0
  4 11  1  0  0  0  0
  4  1  2  0  0  0  0
  5 13  1  0  0  0  0
  6  1  1  0  0  0  0
  6 10  1  0  0  0  0
  7 12  2  0  0  0  0
  8  5  2  0  0  0  0
  8  7  1  0  0  0  0
 10  2  1  0  0  0  0
 11  3  2  0  0  0  0
 12 14  1  0  0  0  0
 13 14  2  0  0  0  0
 15 16  1  1  0  0  0
 15  6  1  0  0  0  0
 17 15  1  0  0  0  0
 17 18  1  1  0  0  0
 19 20  1  6  0  0  0
 19 17  1  0  0  0  0
 21 19  1  0  0  0  0
 22 23  1  0  0  0  0
 22 21  1  0  0  0  0
 24 26  1  0  0  0  0
 24 25  1  0  0  0  0
 26 25  1  0  0  0  0
 26 23  1  0  0  0  0
 27 11  1  0  0  0  0
 28 29  2  0  0  0  0
 28 31  1  0  0  0  0
 29 32  1  0  0  0  0
 30 27  1  0  0  0  0
 31 30  1  0  0  0  0
 32 30  2  0  0  0  0
M  END
>  <MODEL>
9

>  <REMARK>
 VINA RESULT:      -7.6      2.388      6.204
  Name = 
  9 active torsions:
  status: ('A' for Active; 'I' for Inactive)
    1  A    between atoms: C_2  and  C_12
    2  A    between atoms: C_2  and  C_26
    3  A    between atoms: C_4  and  C_27
    4  A    between atoms: C_4  and  C_32
    5  A    between atoms: C_5  and  N_19
    6  A    between atoms: C_5  and  C_27
    7  A    between atoms: C_15  and  C_17
    8  A    between atoms: C_15  and  C_32
    9  A    between atoms: C_17  and  C_18
                            x       y       z     vdW  Elec       q    Type
                         _______ _______ _______ _____ _____    ______ ____

>  <TORSDO>
F 9

$$$$
