=
 OpenBabel11062417223D

 60 66  0  0  1  0  0  0  0  0999 V2000
  188.9330  175.9130  136.3360 C   0  0  1  0  0  3  0  0  0  0  0  0
  189.9090  176.6640  140.0490 C   0  0  2  0  0  3  0  0  0  0  0  0
  191.8150  176.6910  138.4990 C   0  0  2  0  0  0  0  0  0  0  0  0
  192.9480  175.6830  138.6210 C   0  0  2  0  0  3  0  0  0  0  0  0
  193.2350  177.1310  138.2440 C   0  0  0  0  0  2  0  0  0  0  0  0
  189.7250  176.2680  137.5980 C   0  0  2  0  0  0  0  0  0  0  0  0
  191.2520  177.3090  139.7750 C   0  0  0  0  0  2  0  0  0  0  0  0
  189.4480  174.8150  137.2710 C   0  0  0  0  0  2  0  0  0  0  0  0
  189.0040  176.8210  138.8360 C   0  0  0  0  0  2  0  0  0  0  0  0
  191.0400  176.7080  137.3150 O   0  0  0  0  0  0  0  0  0  0  0  0
  184.8840  173.1040  137.7970 C   0  0  0  0  0  2  0  0  0  0  0  0
  185.0160  172.0140  136.7390 C   0  0  0  0  0  2  0  0  0  0  0  0
  182.2270  175.1350  135.9090 C   0  0  1  0  0  3  0  0  0  0  0  0
  184.1850  174.3550  137.2110 C   0  0  2  0  0  3  0  0  0  0  0  0
  184.7120  176.8130  136.7300 C   0  0  0  0  0  0  0  0  0  0  0  0
  182.9580  178.5750  137.9730 S   0  0  0  0  0  0  0  0  0  0  0  0
  181.1720  178.2050  137.9530 C   0  0  1  0  0  3  0  0  0  0  0  0
  187.4490  176.1800  136.4350 C   0  0  0  0  0  0  0  0  0  0  0  0
  182.6210  172.7520  136.3210 C   0  0  0  0  0  2  0  0  0  0  0  0
  187.0130  177.4980  136.3120 C   0  0  0  0  0  3  0  0  0  0  0  0
  183.2510  174.0630  136.0980 N   0  0  1  0  0  0  0  0  0  0  0  0
  180.9050  176.9420  137.1420 C   0  0  0  0  0  2  0  0  0  0  0  0
  186.5040  175.1720  136.6800 C   0  0  0  0  0  3  0  0  0  0  0  0
  183.6510  171.6320  136.1560 C   0  0  0  0  0  2  0  0  0  0  0  0
  183.2620  177.2520  136.7680 C   0  0  2  0  0  3  0  0  0  0  0  0
  180.9400  174.6220  135.6590 O   0  0  0  0  0  1  0  0  0  0  0  0
  185.1460  175.4670  136.8560 C   0  0  0  0  0  0  0  0  0  0  0  0
  182.2130  176.1890  137.0280 C   0  0  2  0  0  3  0  0  0  0  0  0
  185.6590  177.8060  136.4400 C   0  0  0  0  0  3  0  0  0  0  0  0
  180.6520  178.0850  139.3070 N   0  0  0  0  0  0  0  0  0  0  0  0
  180.4080  176.7730  139.8890 C   0  0  0  0  0  1  0  0  0  0  0  0
  180.4390  179.2550  140.0890 C   0  0  0  0  0  0  0  0  0  0  0  0
  179.8580  179.1480  141.3900 N   0  0  0  0  0  2  0  0  0  0  0  0
  180.7600  180.3850  139.6280 O   0  0  0  0  0  0  0  0  0  0  0  0
  179.5810  180.3050  142.2190 C   0  0  0  0  0  2  0  0  0  0  0  0
  180.4900  180.3730  143.2600 O   0  0  0  0  0  0  0  0  0  0  0  0
  180.9510  179.0640  143.4060 C   0  0  0  0  0  2  0  0  0  0  0  0
  182.4120  179.0920  143.8110 C   0  0  0  0  0  1  0  0  0  0  0  0
  189.2940  177.1730  141.2770 N   0  0  0  0  0  0  0  0  0  0  0  0
  190.0740  175.4370  142.6410 O   0  0  0  0  0  0  0  0  0  0  0  0
  189.5270  176.5670  142.5580 C   0  0  0  0  0  0  0  0  0  0  0  0
  189.1060  177.4390  144.0550 S   0  0  0  0  0  0  0  0  0  0  0  0
  190.3150  178.7550  143.7210 C   0  0  0  0  0  2  0  0  0  0  0  0
  192.3390  177.6790  143.1300 F   0  0  0  0  0  0  0  0  0  0  0  0
  192.4350  179.5020  144.4500 F   0  0  0  0  0  0  0  0  0  0  0  0
  191.6670  177.5560  145.2800 F   0  0  0  0  0  0  0  0  0  0  0  0
  191.7130  178.3570  144.1550 C   0  0  0  0  0  0  0  0  0  0  0  0
  188.2380  178.1820  141.1550 C   0  0  0  0  0  2  0  0  0  0  0  0
  187.1170  177.8340  141.9300 O   0  0  0  0  0  0  0  0  0  0  0  0
  186.0030  178.5230  141.4190 C   0  0  0  0  0  0  0  0  0  0  0  0
  184.8710  177.8250  141.7730 F   0  0  0  0  0  0  0  0  0  0  0  0
  185.9150  179.8070  141.9430 F   0  0  0  0  0  0  0  0  0  0  0  0
  186.0610  178.5840  140.0450 F   0  0  0  0  0  0  0  0  0  0  0  0
  192.2020  173.7480  137.4250 O   0  0  0  0  0  1  0  0  0  0  0  0
  193.1130  174.8100  137.3830 C   0  0  2  0  0  3  0  0  0  0  0  0
  194.5560  174.2890  137.2750 C   0  0  0  0  0  3  0  0  0  0  0  0
  195.2100  174.1940  138.6490 C   0  0  0  0  0  2  0  0  0  0  0  0
  195.2360  172.8720  139.1000 O   0  0  0  0  0  1  0  0  0  0  0  0
  196.7690  174.6700  136.4080 O   0  0  0  0  0  1  0  0  0  0  0  0
  195.4300  175.0800  136.3070 C   0  0  0  0  0  2  0  0  0  0  0  0
  1 18  1  1  0  0  0
  1  8  1  0  0  0  0
  1  6  1  0  0  0  0
  2 39  1  1  0  0  0
  3  5  1  6  0  0  0
  3  4  1  0  0  0  0
  3  7  1  0  0  0  0
  4 55  1  6  0  0  0
  5  4  1  0  0  0  0
  6  8  1  1  0  0  0
  6  9  1  0  0  0  0
  7  2  1  0  0  0  0
  9  2  1  0  0  0  0
 10  6  1  0  0  0  0
 10  3  1  0  0  0  0
 12 11  1  0  0  0  0
 13 26  1  1  0  0  0
 13 21  1  0  0  0  0
 13 28  1  0  0  0  0
 14 11  1  6  0  0  0
 15 27  1  0  0  0  0
 17 16  1  0  0  0  0
 17 30  1  1  0  0  0
 18 23  1  0  0  0  0
 20 18  2  0  0  0  0
 20 29  1  0  0  0  0
 21 19  1  1  0  0  0
 21 14  1  0  0  0  0
 22 17  1  0  0  0  0
 23 27  2  0  0  0  0
 24 19  1  0  0  0  0
 24 12  1  0  0  0  0
 25 15  1  1  0  0  0
 25 28  1  0  0  0  0
 25 16  1  0  0  0  0
 27 14  1  0  0  0  0
 28 22  1  6  0  0  0
 29 15  2  0  0  0  0
 30 31  1  0  0  0  0
 30 32  1  0  0  0  0
 32 33  1  0  0  0  0
 33 35  1  0  0  0  0
 34 32  2  0  0  0  0
 35 36  1  0  0  0  0
 36 37  1  0  0  0  0
 37 38  1  0  0  0  0
 39 41  1  0  0  0  0
 41 40  2  0  0  0  0
 41 42  1  0  0  0  0
 43 42  1  0  0  0  0
 43 47  1  0  0  0  0
 44 47  1  0  0  0  0
 47 45  1  0  0  0  0
 47 46  1  0  0  0  0
 48 39  1  0  0  0  0
 48 49  1  0  0  0  0
 50 51  1  0  0  0  0
 50 49  1  0  0  0  0
 50 52  1  0  0  0  0
 53 50  1  0  0  0  0
 55 54  1  1  0  0  0
 56 55  1  0  0  0  0
 56 57  1  0  0  0  0
 57 58  1  0  0  0  0
 60 59  1  0  0  0  0
 60 56  1  0  0  0  0
M  END
>  <MODEL>
1

>  <REMARK>
 VINA RESULT:      -7.9      0.000      0.000
  Name = 
  16 active torsions:
  status: ('A' for Active; 'I' for Inactive)
    1  A    between atoms: C_4  and  N_14
    2  A    between atoms: C_4  and  O_16
    3  A    between atoms: O_8  and  C_12
    4  A    between atoms: O_8  and  C_52
    5  A    between atoms: C_9  and  C_21
    6  A    between atoms: C_10  and  C_15
    7  A    between atoms: C_13  and  N_23
    8  A    between atoms: N_14  and  C_20
    9  A    between atoms: O_16  and  C_18
   10  A    between atoms: C_21  and  C_33
   11  A    between atoms: C_21  and  C_47
   12  A    between atoms: C_25  and  C_33
   13  A    between atoms: C_39  and  S_45
   14  A    between atoms: C_39  and  C_53
   15  A    between atoms: S_45  and  C_58
   16  A    between atoms: C_52  and  N_55
                            x       y       z     vdW  Elec       q    Type
                         _______ _______ _______ _____ _____    ______ ____

>  <TORSDO>
F 16

$$$$
=
 OpenBabel11062417223D

 60 66  0  0  1  0  0  0  0  0999 V2000
  188.9750  175.5310  135.8340 C   0  0  1  0  0  3  0  0  0  0  0  0
  190.1260  176.3240  139.4870 C   0  0  2  0  0  3  0  0  0  0  0  0
  191.9620  176.2960  137.8540 C   0  0  2  0  0  0  0  0  0  0  0  0
  193.0840  175.2730  137.9430 C   0  0  2  0  0  3  0  0  0  0  0  0
  193.3760  176.7090  137.5300 C   0  0  0  0  0  2  0  0  0  0  0  0
  189.8280  175.8930  137.0540 C   0  0  2  0  0  0  0  0  0  0  0  0
  191.4660  176.9430  139.1440 C   0  0  0  0  0  2  0  0  0  0  0  0
  189.5140  174.4400  136.7630 C   0  0  0  0  0  2  0  0  0  0  0  0
  189.1710  176.4760  138.3140 C   0  0  0  0  0  2  0  0  0  0  0  0
  191.1360  176.3070  136.7050 O   0  0  0  0  0  0  0  0  0  0  0  0
  184.9790  172.8650  137.6630 C   0  0  0  0  0  2  0  0  0  0  0  0
  185.0440  171.7140  136.6640 C   0  0  0  0  0  2  0  0  0  0  0  0
  182.2480  174.8190  135.8020 C   0  0  1  0  0  3  0  0  0  0  0  0
  184.2630  174.0890  137.0440 C   0  0  2  0  0  3  0  0  0  0  0  0
  184.7900  176.5080  136.3950 C   0  0  0  0  0  0  0  0  0  0  0  0
  183.1220  178.3610  137.6230 S   0  0  0  0  0  0  0  0  0  0  0  0
  181.3340  178.0160  137.7170 C   0  0  1  0  0  3  0  0  0  0  0  0
  187.5010  175.8220  135.9950 C   0  0  0  0  0  0  0  0  0  0  0  0
  182.6380  172.4590  136.3290 C   0  0  0  0  0  2  0  0  0  0  0  0
  187.0730  177.1370  135.8180 C   0  0  0  0  0  3  0  0  0  0  0  0
  183.2690  173.7470  135.9990 N   0  0  1  0  0  0  0  0  0  0  0  0
  181.0120  176.7120  136.9950 C   0  0  0  0  0  2  0  0  0  0  0  0
  186.5590  174.8430  136.3460 C   0  0  0  0  0  3  0  0  0  0  0  0
  183.6460  171.3180  136.1760 C   0  0  0  0  0  2  0  0  0  0  0  0
  183.3490  176.9680  136.4820 C   0  0  2  0  0  3  0  0  0  0  0  0
  180.9440  174.3100  135.6490 O   0  0  0  0  0  1  0  0  0  0  0  0
  185.2150  175.1660  136.5750 C   0  0  0  0  0  0  0  0  0  0  0  0
  182.3030  175.9360  136.8580 C   0  0  2  0  0  3  0  0  0  0  0  0
  185.7310  177.4700  135.9990 C   0  0  0  0  0  3  0  0  0  0  0  0
  180.8850  177.9800  139.1000 N   0  0  0  0  0  0  0  0  0  0  0  0
  180.8040  176.7150  139.8170 C   0  0  0  0  0  1  0  0  0  0  0  0
  180.5810  179.1950  139.7770 C   0  0  0  0  0  0  0  0  0  0  0  0
  180.0670  179.1610  141.1100 N   0  0  0  0  0  2  0  0  0  0  0  0
  180.7620  180.3000  139.1950 O   0  0  0  0  0  0  0  0  0  0  0  0
  179.7030  180.3610  141.8370 C   0  0  0  0  0  2  0  0  0  0  0  0
  180.3950  180.4200  143.0350 O   0  0  0  0  0  0  0  0  0  0  0  0
  180.5390  179.0860  143.4200 C   0  0  0  0  0  2  0  0  0  0  0  0
  181.9200  178.8840  144.0110 C   0  0  0  0  0  1  0  0  0  0  0  0
  189.5750  176.8620  140.7330 N   0  0  0  0  0  0  0  0  0  0  0  0
  188.6790  178.7910  139.7540 O   0  0  0  0  0  0  0  0  0  0  0  0
  188.7550  178.0400  140.7620 C   0  0  0  0  0  0  0  0  0  0  0  0
  187.7810  178.4240  142.2050 S   0  0  0  0  0  0  0  0  0  0  0  0
  186.3070  178.7960  141.2070 C   0  0  0  0  0  2  0  0  0  0  0  0
  185.1270  179.9610  142.8970 F   0  0  0  0  0  0  0  0  0  0  0  0
  183.9540  179.0020  141.2300 F   0  0  0  0  0  0  0  0  0  0  0  0
  184.9090  177.7170  142.8120 F   0  0  0  0  0  0  0  0  0  0  0  0
  185.0550  178.8670  142.0600 C   0  0  0  0  0  0  0  0  0  0  0  0
  190.0620  176.3100  142.0000 C   0  0  0  0  0  2  0  0  0  0  0  0
  191.1390  177.0660  142.4970 O   0  0  0  0  0  0  0  0  0  0  0  0
  191.2170  176.8530  143.8850 C   0  0  0  0  0  0  0  0  0  0  0  0
  191.9950  175.7380  144.1030 F   0  0  0  0  0  0  0  0  0  0  0  0
  191.7990  177.9350  144.5340 F   0  0  0  0  0  0  0  0  0  0  0  0
  189.9660  176.6150  144.4080 F   0  0  0  0  0  0  0  0  0  0  0  0
  192.2110  173.3690  136.7820 O   0  0  0  0  0  1  0  0  0  0  0  0
  193.1800  174.3780  136.7130 C   0  0  2  0  0  3  0  0  0  0  0  0
  194.5900  173.7760  136.5890 C   0  0  0  0  0  3  0  0  0  0  0  0
  195.1580  173.4220  137.9590 C   0  0  0  0  0  2  0  0  0  0  0  0
  195.7820  172.1720  137.9340 O   0  0  0  0  0  1  0  0  0  0  0  0
  196.4840  175.2600  136.6630 O   0  0  0  0  0  1  0  0  0  0  0  0
  195.5660  174.6400  135.7990 C   0  0  0  0  0  2  0  0  0  0  0  0
  1 18  1  1  0  0  0
  1  8  1  0  0  0  0
  1  6  1  0  0  0  0
  2 39  1  1  0  0  0
  3  5  1  6  0  0  0
  3  4  1  0  0  0  0
  3  7  1  0  0  0  0
  4 55  1  6  0  0  0
  5  4  1  0  0  0  0
  6  8  1  1  0  0  0
  6  9  1  0  0  0  0
  7  2  1  0  0  0  0
  9  2  1  0  0  0  0
 10  6  1  0  0  0  0
 10  3  1  0  0  0  0
 12 11  1  0  0  0  0
 13 26  1  1  0  0  0
 13 21  1  0  0  0  0
 13 28  1  0  0  0  0
 14 11  1  6  0  0  0
 15 27  1  0  0  0  0
 16 17  1  0  0  0  0
 17 30  1  1  0  0  0
 18 23  1  0  0  0  0
 20 18  2  0  0  0  0
 20 29  1  0  0  0  0
 21 19  1  1  0  0  0
 21 14  1  0  0  0  0
 22 17  1  0  0  0  0
 23 27  2  0  0  0  0
 24 19  1  0  0  0  0
 24 12  1  0  0  0  0
 25 15  1  1  0  0  0
 25 28  1  0  0  0  0
 25 16  1  0  0  0  0
 27 14  1  0  0  0  0
 28 22  1  6  0  0  0
 29 15  2  0  0  0  0
 30 32  1  0  0  0  0
 30 31  1  0  0  0  0
 32 33  1  0  0  0  0
 33 35  1  0  0  0  0
 34 32  2  0  0  0  0
 35 36  1  0  0  0  0
 36 37  1  0  0  0  0
 37 38  1  0  0  0  0
 39 41  1  0  0  0  0
 39 48  1  0  0  0  0
 40 41  2  0  0  0  0
 41 42  1  0  0  0  0
 43 47  1  0  0  0  0
 43 42  1  0  0  0  0
 45 47  1  0  0  0  0
 47 46  1  0  0  0  0
 47 44  1  0  0  0  0
 48 49  1  0  0  0  0
 49 50  1  0  0  0  0
 50 51  1  0  0  0  0
 50 53  1  0  0  0  0
 50 52  1  0  0  0  0
 55 54  1  1  0  0  0
 56 55  1  0  0  0  0
 56 57  1  0  0  0  0
 58 57  1  0  0  0  0
 60 56  1  0  0  0  0
 60 59  1  0  0  0  0
M  END
>  <MODEL>
2

>  <REMARK>
 VINA RESULT:      -7.7      0.976      2.936
  Name = 
  16 active torsions:
  status: ('A' for Active; 'I' for Inactive)
    1  A    between atoms: C_4  and  N_14
    2  A    between atoms: C_4  and  O_16
    3  A    between atoms: O_8  and  C_12
    4  A    between atoms: O_8  and  C_52
    5  A    between atoms: C_9  and  C_21
    6  A    between atoms: C_10  and  C_15
    7  A    between atoms: C_13  and  N_23
    8  A    between atoms: N_14  and  C_20
    9  A    between atoms: O_16  and  C_18
   10  A    between atoms: C_21  and  C_33
   11  A    between atoms: C_21  and  C_47
   12  A    between atoms: C_25  and  C_33
   13  A    between atoms: C_39  and  S_45
   14  A    between atoms: C_39  and  C_53
   15  A    between atoms: S_45  and  C_58
   16  A    between atoms: C_52  and  N_55
                            x       y       z     vdW  Elec       q    Type
                         _______ _______ _______ _____ _____    ______ ____

>  <TORSDO>
F 16

$$$$
=
 OpenBabel11062417223D

 60 66  0  0  1  0  0  0  0  0999 V2000
  185.6110  179.0350  138.8210 C   0  0  1  0  0  3  0  0  0  0  0  0
  183.5750  175.8910  137.6950 C   0  0  2  0  0  3  0  0  0  0  0  0
  182.2160  177.9270  137.9030 C   0  0  2  0  0  0  0  0  0  0  0  0
  181.0970  178.0310  138.9280 C   0  0  2  0  0  3  0  0  0  0  0  0
  180.9370  178.6410  137.5420 C   0  0  0  0  0  2  0  0  0  0  0  0
  184.4790  178.1140  138.3540 C   0  0  2  0  0  0  0  0  0  0  0  0
  182.3750  176.6220  137.1290 C   0  0  0  0  0  2  0  0  0  0  0  0
  184.8390  178.1740  139.8250 C   0  0  0  0  0  2  0  0  0  0  0  0
  184.7990  176.7900  137.6450 C   0  0  0  0  0  2  0  0  0  0  0  0
  183.3090  178.8230  137.9920 O   0  0  0  0  0  0  0  0  0  0  0  0
  189.1700  176.4130  141.4440 C   0  0  0  0  0  2  0  0  0  0  0  0
  189.3740  177.4310  142.5600 C   0  0  0  0  0  2  0  0  0  0  0  0
  192.1870  177.5420  139.3540 C   0  0  1  0  0  3  0  0  0  0  0  0
  189.9670  176.8170  140.1800 C   0  0  2  0  0  3  0  0  0  0  0  0
  189.5220  177.5010  137.7540 C   0  0  0  0  0  0  0  0  0  0  0  0
  190.8010  175.8720  135.9020 S   0  0  0  0  0  0  0  0  0  0  0  0
  192.5310  175.3800  136.2040 C   0  0  1  0  0  3  0  0  0  0  0  0
  186.9980  178.5320  138.4970 C   0  0  0  0  0  0  0  0  0  0  0  0
  191.7660  177.1840  141.7410 C   0  0  0  0  0  2  0  0  0  0  0  0
  187.4110  178.5690  137.1660 C   0  0  0  0  0  3  0  0  0  0  0  0
  191.1850  177.6150  140.4590 N   0  0  1  0  0  0  0  0  0  0  0  0
  193.0540  176.0450  137.4730 C   0  0  0  0  0  2  0  0  0  0  0  0
  187.8670  178.0020  139.4630 C   0  0  0  0  0  3  0  0  0  0  0  0
  190.8590  177.5970  142.9020 C   0  0  0  0  0  2  0  0  0  0  0  0
  190.8880  177.0730  137.2610 C   0  0  2  0  0  3  0  0  0  0  0  0
  193.5080  177.4050  139.8230 O   0  0  0  0  0  1  0  0  0  0  0  0
  189.1110  177.4620  139.1130 C   0  0  0  0  0  0  0  0  0  0  0  0
  191.8540  176.4960  138.2770 C   0  0  2  0  0  3  0  0  0  0  0  0
  188.6640  178.0760  136.8050 C   0  0  0  0  0  3  0  0  0  0  0  0
  192.6530  173.9310  136.2760 N   0  0  0  0  0  0  0  0  0  0  0  0
  191.5100  173.1130  136.6520 C   0  0  0  0  0  1  0  0  0  0  0  0
  193.8810  173.3060  135.9180 C   0  0  0  0  0  0  0  0  0  0  0  0
  194.0310  171.8920  136.0600 N   0  0  0  0  0  2  0  0  0  0  0  0
  194.8370  174.0050  135.4810 O   0  0  0  0  0  0  0  0  0  0  0  0
  195.2680  171.2030  135.7490 C   0  0  0  0  0  2  0  0  0  0  0  0
  195.4010  170.0810  136.5490 O   0  0  0  0  0  0  0  0  0  0  0  0
  196.2010  170.5040  137.6110 C   0  0  0  0  0  2  0  0  0  0  0  0
  197.6580  170.4290  137.1980 C   0  0  0  0  0  1  0  0  0  0  0  0
  183.7960  174.6030  137.0330 N   0  0  0  0  0  0  0  0  0  0  0  0
  184.6850  175.5220  135.0720 O   0  0  0  0  0  0  0  0  0  0  0  0
  184.4720  174.4970  135.7710 C   0  0  0  0  0  0  0  0  0  0  0  0
  185.0790  172.9190  135.2040 S   0  0  0  0  0  0  0  0  0  0  0  0
  186.8120  173.4050  135.4620 C   0  0  0  0  0  2  0  0  0  0  0  0
  187.2820  174.6160  137.4410 F   0  0  0  0  0  0  0  0  0  0  0  0
  186.2320  172.6310  137.6170 F   0  0  0  0  0  0  0  0  0  0  0  0
  188.4170  172.7000  137.0800 F   0  0  0  0  0  0  0  0  0  0  0  0
  187.2020  173.3390  136.9260 C   0  0  0  0  0  0  0  0  0  0  0  0
  183.1100  173.4240  137.5680 C   0  0  0  0  0  2  0  0  0  0  0  0
  181.9560  173.1300  136.8180 O   0  0  0  0  0  0  0  0  0  0  0  0
  181.6950  171.7540  136.9400 C   0  0  0  0  0  0  0  0  0  0  0  0
  181.3110  171.2810  135.7060 F   0  0  0  0  0  0  0  0  0  0  0  0
  182.8240  171.0560  137.3520 F   0  0  0  0  0  0  0  0  0  0  0  0
  180.6640  171.5350  137.8250 F   0  0  0  0  0  0  0  0  0  0  0  0
  182.0510  178.6800  141.0250 O   0  0  0  0  0  1  0  0  0  0  0  0
  181.3070  179.1520  139.9380 C   0  0  2  0  0  3  0  0  0  0  0  0
  179.9560  179.7210  140.4050 C   0  0  0  0  0  3  0  0  0  0  0  0
  179.9120  181.2360  140.2420 C   0  0  0  0  0  2  0  0  0  0  0  0
  180.0250  181.5990  138.8980 O   0  0  0  0  0  1  0  0  0  0  0  0
  179.6500  180.4120  142.6900 O   0  0  0  0  0  1  0  0  0  0  0  0
  179.5670  179.3120  141.8210 C   0  0  0  0  0  2  0  0  0  0  0  0
  1 18  1  6  0  0  0
  1  8  1  0  0  0  0
  2 39  1  6  0  0  0
  3  7  1  6  0  0  0
  3 10  1  0  0  0  0
  3  4  1  0  0  0  0
  4 55  1  1  0  0  0
  5  3  1  0  0  0  0
  5  4  1  0  0  0  0
  6  9  1  6  0  0  0
  6  1  1  0  0  0  0
  6  8  1  0  0  0  0
  7  2  1  0  0  0  0
  9  2  1  0  0  0  0
 10  6  1  0  0  0  0
 11 12  1  0  0  0  0
 12 24  1  0  0  0  0
 13 26  1  1  0  0  0
 13 21  1  0  0  0  0
 14 21  1  0  0  0  0
 14 11  1  1  0  0  0
 15 27  1  0  0  0  0
 16 17  1  0  0  0  0
 17 30  1  1  0  0  0
 17 22  1  0  0  0  0
 18 23  1  0  0  0  0
 19 24  1  0  0  0  0
 20 18  2  0  0  0  0
 21 19  1  1  0  0  0
 25 16  1  6  0  0  0
 25 15  1  0  0  0  0
 25 28  1  0  0  0  0
 27 23  2  0  0  0  0
 27 14  1  0  0  0  0
 28 22  1  6  0  0  0
 28 13  1  0  0  0  0
 29 20  1  0  0  0  0
 29 15  2  0  0  0  0
 30 31  1  0  0  0  0
 32 33  1  0  0  0  0
 32 30  1  0  0  0  0
 34 32  2  0  0  0  0
 35 33  1  0  0  0  0
 35 36  1  0  0  0  0
 36 37  1  0  0  0  0
 38 37  1  0  0  0  0
 39 48  1  0  0  0  0
 40 41  2  0  0  0  0
 41 39  1  0  0  0  0
 42 43  1  0  0  0  0
 42 41  1  0  0  0  0
 43 47  1  0  0  0  0
 47 46  1  0  0  0  0
 47 44  1  0  0  0  0
 47 45  1  0  0  0  0
 49 50  1  0  0  0  0
 49 48  1  0  0  0  0
 50 52  1  0  0  0  0
 50 53  1  0  0  0  0
 51 50  1  0  0  0  0
 55 56  1  0  0  0  0
 55 54  1  1  0  0  0
 56 60  1  0  0  0  0
 57 56  1  0  0  0  0
 58 57  1  0  0  0  0
 60 59  1  0  0  0  0
M  END
>  <MODEL>
3

>  <REMARK>
 VINA RESULT:      -5.8      3.660     11.423
  Name = 
  16 active torsions:
  status: ('A' for Active; 'I' for Inactive)
    1  A    between atoms: C_4  and  N_14
    2  A    between atoms: C_4  and  O_16
    3  A    between atoms: O_8  and  C_12
    4  A    between atoms: O_8  and  C_52
    5  A    between atoms: C_9  and  C_21
    6  A    between atoms: C_10  and  C_15
    7  A    between atoms: C_13  and  N_23
    8  A    between atoms: N_14  and  C_20
    9  A    between atoms: O_16  and  C_18
   10  A    between atoms: C_21  and  C_33
   11  A    between atoms: C_21  and  C_47
   12  A    between atoms: C_25  and  C_33
   13  A    between atoms: C_39  and  S_45
   14  A    between atoms: C_39  and  C_53
   15  A    between atoms: S_45  and  C_58
   16  A    between atoms: C_52  and  N_55
                            x       y       z     vdW  Elec       q    Type
                         _______ _______ _______ _____ _____    ______ ____

>  <TORSDO>
F 16

$$$$
