=
 OpenBabel11062416163D

 44 50  0  0  1  0  0  0  0  0999 V2000
  180.6580  174.3030  137.6380 C   0  0  0  0  0  2  0  0  0  0  0  0
  180.1650  176.6930  137.3650 C   0  0  0  0  0  3  0  0  0  0  0  0
  179.8370  175.5210  137.9220 C   0  0  0  0  0  3  0  0  0  0  0  0
  183.4970  176.6520  137.0190 N   0  0  0  0  0  0  0  0  0  0  0  0
  182.1310  174.7000  137.6600 C   0  0  2  0  0  3  0  0  0  0  0  0
  182.4820  177.7260  136.9150 C   0  0  1  0  0  3  0  0  0  0  0  0
  184.9130  176.5540  137.1810 C   0  0  0  0  0  0  0  0  0  0  0  0
  182.4130  175.7580  136.5750 C   0  0  1  0  0  3  0  0  0  0  0  0
  185.4730  175.4250  137.1100 O   0  0  0  0  0  0  0  0  0  0  0  0
  181.3580  176.8350  136.4330 C   0  0  1  0  0  3  0  0  0  0  0  0
  181.3310  182.5320  137.8910 N   0  0  0  0  0  0  0  0  0  0  0  0
  183.6500  180.0470  139.2850 O   0  0  0  0  0  0  0  0  0  0  0  0
  180.6440  180.2900  137.3500 C   0  0  0  0  0  3  0  0  0  0  0  0
  181.7640  179.8290  138.0450 C   0  0  0  0  0  0  0  0  0  0  0  0
  183.5250  178.6410  139.0760 C   0  0  2  0  0  3  0  0  0  0  0  0
  182.6220  180.7010  138.6460 C   0  0  0  0  0  0  0  0  0  0  0  0
  182.4180  182.0740  138.5750 C   0  0  0  0  0  3  0  0  0  0  0  0
  180.4480  181.6790  137.2840 C   0  0  0  0  0  3  0  0  0  0  0  0
  182.2200  178.4250  138.2670 C   0  0  2  0  0  3  0  0  0  0  0  0
  183.5190  177.8640  140.3930 C   0  0  0  0  0  2  0  0  0  0  0  0
  183.9480  178.7120  141.5820 C   0  0  0  0  0  2  0  0  0  0  0  0
  184.8440  177.9450  142.4350 N   0  0  0  0  0  2  0  0  0  0  0  0
  184.8510  178.5530  143.7610 C   0  0  0  0  0  0  0  0  0  0  0  0
  184.1970  179.9150  143.8780 C   0  0  0  0  0  2  0  0  0  0  0  0
  183.4680  178.6680  144.3670 C   0  0  0  0  0  2  0  0  0  0  0  0
  188.9710  177.1090  147.3560 F   0  0  0  0  0  0  0  0  0  0  0  0
  186.8410  178.1080  146.9690 C   0  0  0  0  0  3  0  0  0  0  0  0
  185.8220  178.4700  146.0810 C   0  0  0  0  0  3  0  0  0  0  0  0
  187.0970  177.5390  144.2450 C   0  0  0  0  0  3  0  0  0  0  0  0
  188.1120  177.1750  145.1340 C   0  0  0  0  0  3  0  0  0  0  0  0
  185.9520  178.1980  144.7130 C   0  0  0  0  0  0  0  0  0  0  0  0
  187.9860  177.4640  146.4950 C   0  0  0  0  0  0  0  0  0  0  0  0
  182.4040  172.9680  136.3100 C   0  0  0  0  0  1  0  0  0  0  0  0
  182.9310  173.5750  137.4500 O   0  0  0  0  0  0  0  0  0  0  0  0
  185.6610  177.7070  137.4150 O   0  0  0  0  0  0  0  0  0  0  0  0
  189.2350  177.8150  138.4470 C   0  0  0  0  0  0  0  0  0  0  0  0
  190.0570  177.7880  137.3270 O   0  0  0  0  0  1  0  0  0  0  0  0
  187.2690  177.8550  139.8190 C   0  0  0  0  0  3  0  0  0  0  0  0
  187.0500  177.7270  137.3260 C   0  0  0  0  0  2  0  0  0  0  0  0
  189.6680  177.8520  139.6890 C   0  0  1  0  0  3  0  0  0  0  0  0
  188.5410  177.8630  140.6780 C   0  0  0  0  0  3  0  0  0  0  0  0
  187.7910  177.8060  138.4240 C   0  0  0  0  0  0  0  0  0  0  0  0
  191.0220  177.8770  140.0210 O   0  0  0  0  0  0  0  0  0  0  0  0
  191.4890  177.4520  141.2930 C   0  0  0  0  0  1  0  0  0  0  0  0
  1  5  1  0  0  0  0
  1  3  1  0  0  0  0
  2  3  2  0  0  0  0
  4  7  1  0  0  0  0
  5 34  1  6  0  0  0
  6  4  1  1  0  0  0
  6 19  1  0  0  0  0
  7 35  1  0  0  0  0
  8  4  1  1  0  0  0
  8  5  1  0  0  0  0
  9  7  2  0  0  0  0
 10  8  1  0  0  0  0
 10  6  1  0  0  0  0
 10  2  1  1  0  0  0
 11 17  1  0  0  0  0
 13 14  2  0  0  0  0
 14 16  1  0  0  0  0
 15 12  1  0  0  0  0
 15 20  1  1  0  0  0
 16 12  1  0  0  0  0
 17 16  2  0  0  0  0
 18 13  1  0  0  0  0
 18 11  2  0  0  0  0
 19 14  1  6  0  0  0
 19 15  1  0  0  0  0
 20 21  1  0  0  0  0
 21 22  1  0  0  0  0
 22 23  1  0  0  0  0
 23 24  1  0  0  0  0
 23 25  1  0  0  0  0
 23 31  1  0  0  0  0
 24 25  1  0  0  0  0
 28 27  2  0  0  0  0
 29 31  2  0  0  0  0
 29 30  1  0  0  0  0
 30 32  2  0  0  0  0
 31 28  1  0  0  0  0
 32 27  1  0  0  0  0
 32 26  1  0  0  0  0
 33 34  1  0  0  0  0
 36 40  1  0  0  0  0
 37 36  1  0  0  0  0
 38 41  2  0  0  0  0
 39 35  1  0  0  0  0
 39 42  1  0  0  0  0
 40 43  1  1  0  0  0
 40 41  1  0  0  0  0
 42 36  2  0  0  0  0
 42 38  1  0  0  0  0
 43 44  1  0  0  0  0
M  END
>  <MODEL>
1

>  <REMARK>
 VINA RESULT:      -8.1      0.000      0.000
  Name = 
  10 active torsions:
  status: ('A' for Active; 'I' for Inactive)
    1  A    between atoms: C_1  and  N_35
    2  A    between atoms: C_1  and  C_40
    3  A    between atoms: O_8  and  C_27
    4  A    between atoms: C_18  and  C_39
    5  A    between atoms: C_20  and  O_36
    6  A    between atoms: C_22  and  C_41
    7  A    between atoms: C_25  and  O_33
    8  A    between atoms: C_26  and  N_35
    9  A    between atoms: C_26  and  C_39
   10  A    between atoms: C_28  and  O_33
                            x       y       z     vdW  Elec       q    Type
                         _______ _______ _______ _____ _____    ______ ____

>  <TORSDO>
F 10

$$$$
=
 OpenBabel11062416163D

 44 50  0  0  1  0  0  0  0  0999 V2000
  180.4390  181.4910  135.7280 C   0  0  0  0  0  2  0  0  0  0  0  0
  180.6770  179.0630  135.4420 C   0  0  0  0  0  3  0  0  0  0  0  0
  180.8900  180.2920  134.9550 C   0  0  0  0  0  3  0  0  0  0  0  0
  180.7870  179.3590  138.7770 N   0  0  0  0  0  0  0  0  0  0  0  0
  180.7540  181.2590  137.2030 C   0  0  2  0  0  3  0  0  0  0  0  0
  180.8030  178.1930  137.8640 C   0  0  1  0  0  3  0  0  0  0  0  0
  181.1110  179.6330  140.1410 C   0  0  0  0  0  0  0  0  0  0  0  0
  180.0000  180.0180  137.7190 C   0  0  1  0  0  3  0  0  0  0  0  0
  180.8510  180.7670  140.6300 O   0  0  0  0  0  0  0  0  0  0  0  0
  179.9760  178.8360  136.7720 C   0  0  1  0  0  3  0  0  0  0  0  0
  182.6860  173.6590  136.7380 N   0  0  0  0  0  0  0  0  0  0  0  0
  183.7650  176.5250  138.7670 O   0  0  0  0  0  0  0  0  0  0  0  0
  181.5710  175.6810  136.0630 C   0  0  0  0  0  3  0  0  0  0  0  0
  182.2800  176.3510  137.0630 C   0  0  0  0  0  0  0  0  0  0  0  0
  183.2300  177.8400  138.6290 C   0  0  2  0  0  3  0  0  0  0  0  0
  183.1660  175.6850  137.8570 C   0  0  0  0  0  0  0  0  0  0  0  0
  183.3810  174.3210  137.7070 C   0  0  0  0  0  3  0  0  0  0  0  0
  181.7970  174.3030  135.9210 C   0  0  0  0  0  3  0  0  0  0  0  0
  182.2350  177.7940  137.4410 C   0  0  2  0  0  3  0  0  0  0  0  0
  184.3250  178.8850  138.4190 C   0  0  0  0  0  2  0  0  0  0  0  0
  185.6640  178.2700  138.0360 C   0  0  0  0  0  2  0  0  0  0  0  0
  186.6460  178.5430  139.0760 N   0  0  0  0  0  2  0  0  0  0  0  0
  187.9260  177.9790  138.6620 C   0  0  0  0  0  0  0  0  0  0  0  0
  187.9050  177.1080  137.4220 C   0  0  0  0  0  2  0  0  0  0  0  0
  188.4210  178.5400  137.3450 C   0  0  0  0  0  2  0  0  0  0  0  0
  191.9010  177.1470  142.5960 F   0  0  0  0  0  0  0  0  0  0  0  0
  191.2790  177.2560  140.2970 C   0  0  0  0  0  3  0  0  0  0  0  0
  190.2970  177.4570  139.3220 C   0  0  0  0  0  3  0  0  0  0  0  0
  188.6520  177.8260  141.0600 C   0  0  0  0  0  3  0  0  0  0  0  0
  189.6360  177.6280  142.0340 C   0  0  0  0  0  3  0  0  0  0  0  0
  188.9770  177.7300  139.7000 C   0  0  0  0  0  0  0  0  0  0  0  0
  190.9490  177.3380  141.6510 C   0  0  0  0  0  0  0  0  0  0  0  0
  179.2830  182.9100  137.2910 C   0  0  0  0  0  1  0  0  0  0  0  0
  180.3940  182.3820  137.9500 O   0  0  0  0  0  0  0  0  0  0  0  0
  181.7130  178.6430  140.9170 O   0  0  0  0  0  0  0  0  0  0  0  0
  183.6830  178.8050  144.0710 C   0  0  0  0  0  0  0  0  0  0  0  0
  182.8640  179.1830  145.1280 O   0  0  0  0  0  1  0  0  0  0  0  0
  184.4120  178.2030  141.8680 C   0  0  0  0  0  3  0  0  0  0  0  0
  182.0200  178.8320  142.2620 C   0  0  0  0  0  2  0  0  0  0  0  0
  184.9710  178.5610  144.1770 C   0  0  1  0  0  3  0  0  0  0  0  0
  185.5830  178.1840  142.8610 C   0  0  0  0  0  3  0  0  0  0  0  0
  183.2530  178.6210  142.7040 C   0  0  0  0  0  0  0  0  0  0  0  0
  185.6640  178.6500  145.3840 O   0  0  0  0  0  0  0  0  0  0  0  0
  186.7410  177.7770  145.6950 C   0  0  0  0  0  1  0  0  0  0  0  0
  1  5  1  0  0  0  0
  3  2  2  0  0  0  0
  3  1  1  0  0  0  0
  4  7  1  0  0  0  0
  5  8  1  0  0  0  0
  5 34  1  1  0  0  0
  6  4  1  1  0  0  0
  7  9  2  0  0  0  0
  7 35  1  0  0  0  0
  8  4  1  1  0  0  0
 10  2  1  6  0  0  0
 10  8  1  0  0  0  0
 10  6  1  0  0  0  0
 11 17  1  0  0  0  0
 13 14  2  0  0  0  0
 14 16  1  0  0  0  0
 15 20  1  6  0  0  0
 15 12  1  0  0  0  0
 16 12  1  0  0  0  0
 17 16  2  0  0  0  0
 18 13  1  0  0  0  0
 18 11  2  0  0  0  0
 19 14  1  1  0  0  0
 19  6  1  0  0  0  0
 19 15  1  0  0  0  0
 21 20  1  0  0  0  0
 21 22  1  0  0  0  0
 23 22  1  0  0  0  0
 23 31  1  0  0  0  0
 24 23  1  0  0  0  0
 25 24  1  0  0  0  0
 25 23  1  0  0  0  0
 27 32  1  0  0  0  0
 28 31  1  0  0  0  0
 28 27  2  0  0  0  0
 29 30  1  0  0  0  0
 31 29  2  0  0  0  0
 32 30  2  0  0  0  0
 32 26  1  0  0  0  0
 33 34  1  0  0  0  0
 35 39  1  0  0  0  0
 36 40  1  0  0  0  0
 36 37  1  0  0  0  0
 38 42  1  0  0  0  0
 38 41  2  0  0  0  0
 39 42  1  0  0  0  0
 40 43  1  6  0  0  0
 41 40  1  0  0  0  0
 42 36  2  0  0  0  0
 43 44  1  0  0  0  0
M  END
>  <MODEL>
2

>  <REMARK>
 VINA RESULT:      -7.4      2.450      6.204
  Name = 
  10 active torsions:
  status: ('A' for Active; 'I' for Inactive)
    1  A    between atoms: C_1  and  N_35
    2  A    between atoms: C_1  and  C_40
    3  A    between atoms: O_8  and  C_27
    4  A    between atoms: C_18  and  C_39
    5  A    between atoms: C_20  and  O_36
    6  A    between atoms: C_22  and  C_41
    7  A    between atoms: C_25  and  O_33
    8  A    between atoms: C_26  and  N_35
    9  A    between atoms: C_26  and  C_39
   10  A    between atoms: C_28  and  O_33
                            x       y       z     vdW  Elec       q    Type
                         _______ _______ _______ _____ _____    ______ ____

>  <TORSDO>
F 10

$$$$
=
 OpenBabel11062416163D

 44 50  0  0  1  0  0  0  0  0999 V2000
  189.8730  177.9470  144.3280 C   0  0  0  0  0  2  0  0  0  0  0  0
  188.4890  176.4820  142.9260 C   0  0  0  0  0  3  0  0  0  0  0  0
  188.5470  177.4320  143.8670 C   0  0  0  0  0  3  0  0  0  0  0  0
  191.1590  176.9610  140.9610 N   0  0  0  0  0  0  0  0  0  0  0  0
  190.7750  178.1140  143.1090 C   0  0  2  0  0  3  0  0  0  0  0  0
  189.9360  176.1380  140.8220 C   0  0  1  0  0  3  0  0  0  0  0  0
  192.1900  177.4670  140.1120 C   0  0  0  0  0  0  0  0  0  0  0  0
  190.9810  176.7560  142.4100 C   0  0  1  0  0  3  0  0  0  0  0  0
  193.1810  178.0630  140.6170 O   0  0  0  0  0  0  0  0  0  0  0  0
  189.7430  175.8900  142.3020 C   0  0  1  0  0  3  0  0  0  0  0  0
  189.0890  177.0040  135.9320 N   0  0  0  0  0  0  0  0  0  0  0  0
  188.9930  179.0030  139.0130 O   0  0  0  0  0  0  0  0  0  0  0  0
  188.8450  175.6090  137.8770 C   0  0  0  0  0  3  0  0  0  0  0  0
  188.8740  176.7670  138.6550 C   0  0  0  0  0  0  0  0  0  0  0  0
  188.9120  178.4400  140.3210 C   0  0  2  0  0  3  0  0  0  0  0  0
  188.9960  177.9960  138.0760 C   0  0  0  0  0  0  0  0  0  0  0  0
  189.1080  178.1330  136.6980 C   0  0  0  0  0  3  0  0  0  0  0  0
  188.9600  175.7590  136.4860 C   0  0  0  0  0  3  0  0  0  0  0  0
  188.7820  176.9060  140.1390 C   0  0  2  0  0  3  0  0  0  0  0  0
  187.7490  179.0220  141.1250 C   0  0  0  0  0  2  0  0  0  0  0  0
  186.3890  178.6260  140.5690 C   0  0  0  0  0  2  0  0  0  0  0  0
  185.3800  179.5770  141.0120 N   0  0  0  0  0  2  0  0  0  0  0  0
  184.3290  178.8450  141.7090 C   0  0  0  0  0  0  0  0  0  0  0  0
  182.9690  178.8260  141.0410 C   0  0  0  0  0  2  0  0  0  0  0  0
  183.8790  177.6050  140.9660 C   0  0  0  0  0  2  0  0  0  0  0  0
  184.6180  178.4820  147.3450 F   0  0  0  0  0  0  0  0  0  0  0  0
  185.6530  178.2090  145.2140 C   0  0  0  0  0  3  0  0  0  0  0  0
  185.5830  178.2950  143.8200 C   0  0  0  0  0  3  0  0  0  0  0  0
  183.3000  179.0840  143.9870 C   0  0  0  0  0  3  0  0  0  0  0  0
  183.3730  179.0020  145.3800 C   0  0  0  0  0  3  0  0  0  0  0  0
  184.4010  178.7200  143.2000 C   0  0  0  0  0  0  0  0  0  0  0  0
  184.5480  178.5600  145.9940 C   0  0  0  0  0  0  0  0  0  0  0  0
  191.6920  179.7050  144.3440 C   0  0  0  0  0  1  0  0  0  0  0  0
  192.0070  178.6440  143.4960 O   0  0  0  0  0  0  0  0  0  0  0  0
  192.0900  177.2960  138.7310 O   0  0  0  0  0  0  0  0  0  0  0  0
  194.3340  175.2450  136.5850 C   0  0  0  0  0  0  0  0  0  0  0  0
  195.4570  175.9810  136.2240 O   0  0  0  0  0  1  0  0  0  0  0  0
  192.2470  174.6370  137.5960 C   0  0  0  0  0  3  0  0  0  0  0  0
  193.1800  176.9360  137.9420 C   0  0  0  0  0  3  0  0  0  0  0  0
  194.1000  174.0080  136.2010 C   0  0  0  0  0  0  0  0  0  0  0  0
  192.8030  173.4860  136.7440 C   0  0  0  0  0  3  0  0  0  0  0  0
  193.2610  175.7150  137.4280 C   0  0  0  0  0  0  0  0  0  0  0  0
  194.9700  173.2890  135.3820 O   0  0  0  0  0  0  0  0  0  0  0  0
  195.5570  172.0670  135.8060 C   0  0  0  0  0  1  0  0  0  0  0  0
  2  3  2  0  0  0  0
  3  1  1  0  0  0  0
  5 34  1  1  0  0  0
  5  1  1  0  0  0  0
  6  4  1  1  0  0  0
  6 10  1  0  0  0  0
  7  9  2  0  0  0  0
  7  4  1  0  0  0  0
  8  4  1  6  0  0  0
  8  5  1  0  0  0  0
 10  8  1  0  0  0  0
 10  2  1  1  0  0  0
 11 18  2  0  0  0  0
 11 17  1  0  0  0  0
 12 15  1  0  0  0  0
 13 14  2  0  0  0  0
 15 20  1  6  0  0  0
 16 14  1  0  0  0  0
 16 12  1  0  0  0  0
 17 16  2  0  0  0  0
 18 13  1  0  0  0  0
 19 14  1  6  0  0  0
 19 15  1  0  0  0  0
 19  6  1  0  0  0  0
 21 22  1  0  0  0  0
 21 20  1  0  0  0  0
 22 23  1  0  0  0  0
 23 31  1  0  0  0  0
 24 23  1  0  0  0  0
 25 24  1  0  0  0  0
 25 23  1  0  0  0  0
 27 32  1  0  0  0  0
 28 27  2  0  0  0  0
 29 30  1  0  0  0  0
 30 32  2  0  0  0  0
 31 28  1  0  0  0  0
 31 29  2  0  0  0  0
 32 26  1  0  0  0  0
 34 33  1  0  0  0  0
 35  7  1  0  0  0  0
 36 42  1  0  0  0  0
 37 36  1  0  0  0  0
 39 35  1  0  0  0  0
 40 36  2  0  0  0  0
 40 41  1  0  0  0  0
 41 38  2  0  0  0  0
 42 38  1  0  0  0  0
 42 39  2  0  0  0  0
 43 44  1  0  0  0  0
 43 40  1  0  0  0  0
M  END
>  <MODEL>
3

>  <REMARK>
 VINA RESULT:      -7.2      3.740      7.542
  Name = 
  10 active torsions:
  status: ('A' for Active; 'I' for Inactive)
    1  A    between atoms: C_1  and  N_35
    2  A    between atoms: C_1  and  C_40
    3  A    between atoms: O_8  and  C_27
    4  A    between atoms: C_18  and  C_39
    5  A    between atoms: C_20  and  O_36
    6  A    between atoms: C_22  and  C_41
    7  A    between atoms: C_25  and  O_33
    8  A    between atoms: C_26  and  N_35
    9  A    between atoms: C_26  and  C_39
   10  A    between atoms: C_28  and  O_33
                            x       y       z     vdW  Elec       q    Type
                         _______ _______ _______ _____ _____    ______ ____

>  <TORSDO>
F 10

$$$$
=
 OpenBabel11062416163D

 44 50  0  0  1  0  0  0  0  0999 V2000
  180.0940  180.7130  139.9070 C   0  0  0  0  0  2  0  0  0  0  0  0
  181.3190  180.5960  137.7810 C   0  0  0  0  0  3  0  0  0  0  0  0
  181.0310  181.2870  138.8910 C   0  0  0  0  0  3  0  0  0  0  0  0
  181.1490  177.3610  138.6360 N   0  0  0  0  0  0  0  0  0  0  0  0
  180.4110  179.2290  140.0690 C   0  0  2  0  0  3  0  0  0  0  0  0
  181.6830  178.0670  137.4480 C   0  0  1  0  0  3  0  0  0  0  0  0
  181.2720  176.0720  139.2370 C   0  0  0  0  0  0  0  0  0  0  0  0
  180.2100  178.4930  138.7300 C   0  0  1  0  0  3  0  0  0  0  0  0
  180.5480  175.7710  140.2270 O   0  0  0  0  0  0  0  0  0  0  0  0
  180.7150  179.2280  137.5060 C   0  0  1  0  0  3  0  0  0  0  0  0
  185.8060  175.9310  135.4960 N   0  0  0  0  0  0  0  0  0  0  0  0
  184.8080  177.1870  138.8010 O   0  0  0  0  0  0  0  0  0  0  0  0
  183.9900  177.5000  135.3270 C   0  0  0  0  0  3  0  0  0  0  0  0
  184.0240  177.6200  136.7170 C   0  0  0  0  0  0  0  0  0  0  0  0
  183.7210  178.0860  139.0120 C   0  0  2  0  0  3  0  0  0  0  0  0
  184.9320  176.9210  137.4570 C   0  0  0  0  0  0  0  0  0  0  0  0
  185.8400  176.0590  136.8530 C   0  0  0  0  0  3  0  0  0  0  0  0
  184.9110  176.6260  134.7280 C   0  0  0  0  0  3  0  0  0  0  0  0
  183.1700  178.4560  137.6100 C   0  0  2  0  0  3  0  0  0  0  0  0
  184.1450  179.3220  139.8050 C   0  0  0  0  0  2  0  0  0  0  0  0
  185.1290  179.0000  140.9210 C   0  0  0  0  0  2  0  0  0  0  0  0
  184.5230  178.0640  141.8570 N   0  0  0  0  0  2  0  0  0  0  0  0
  184.7970  178.5250  143.2130 C   0  0  0  0  0  0  0  0  0  0  0  0
  184.2520  179.8910  143.5800 C   0  0  0  0  0  2  0  0  0  0  0  0
  183.5500  178.6280  144.0660 C   0  0  0  0  0  2  0  0  0  0  0  0
  189.4710  176.7510  145.8550 F   0  0  0  0  0  0  0  0  0  0  0  0
  188.2260  177.0110  143.8380 C   0  0  0  0  0  3  0  0  0  0  0  0
  187.0690  177.4460  143.1830 C   0  0  0  0  0  3  0  0  0  0  0  0
  186.1580  178.1960  145.2970 C   0  0  0  0  0  3  0  0  0  0  0  0
  187.3170  177.7650  145.9500 C   0  0  0  0  0  3  0  0  0  0  0  0
  186.0250  178.0280  143.9120 C   0  0  0  0  0  0  0  0  0  0  0  0
  188.3480  177.1680  145.2210 C   0  0  0  0  0  0  0  0  0  0  0  0
  180.3860  178.6040  142.1920 C   0  0  0  0  0  1  0  0  0  0  0  0
  179.5890  178.6700  141.0490 O   0  0  0  0  0  0  0  0  0  0  0  0
  182.1910  175.1570  138.7240 O   0  0  0  0  0  0  0  0  0  0  0  0
  182.7550  172.8470  135.8610 C   0  0  0  0  0  0  0  0  0  0  0  0
  181.6710  172.8870  134.9930 O   0  0  0  0  0  1  0  0  0  0  0  0
  184.1920  173.3200  137.7210 C   0  0  0  0  0  3  0  0  0  0  0  0
  181.9710  174.4630  137.5370 C   0  0  0  0  0  3  0  0  0  0  0  0
  183.8150  172.0840  135.6950 C   0  0  0  0  0  0  0  0  0  0  0  0
  184.8110  172.2550  136.8030 C   0  0  0  0  0  3  0  0  0  0  0  0
  182.8890  173.6280  137.0680 C   0  0  0  0  0  0  0  0  0  0  0  0
  183.9690  171.2240  134.6080 O   0  0  0  0  0  0  0  0  0  0  0  0
  184.9310  170.1790  134.6120 C   0  0  0  0  0  1  0  0  0  0  0  0
  1  5  1  0  0  0  0
  2  3  2  0  0  0  0
  3  1  1  0  0  0  0
  4  7  1  0  0  0  0
  5 34  1  1  0  0  0
  6 10  1  0  0  0  0
  6 19  1  0  0  0  0
  6  4  1  1  0  0  0
  7  9  2  0  0  0  0
  8  4  1  1  0  0  0
  8  5  1  0  0  0  0
 10  2  1  1  0  0  0
 10  8  1  0  0  0  0
 11 17  1  0  0  0  0
 12 15  1  0  0  0  0
 13 14  2  0  0  0  0
 14 16  1  0  0  0  0
 15 20  1  6  0  0  0
 16 12  1  0  0  0  0
 17 16  2  0  0  0  0
 18 13  1  0  0  0  0
 18 11  2  0  0  0  0
 19 14  1  6  0  0  0
 19 15  1  0  0  0  0
 20 21  1  0  0  0  0
 21 22  1  0  0  0  0
 22 23  1  0  0  0  0
 23 24  1  0  0  0  0
 23 31  1  0  0  0  0
 23 25  1  0  0  0  0
 24 25  1  0  0  0  0
 27 32  1  0  0  0  0
 28 27  2  0  0  0  0
 28 31  1  0  0  0  0
 29 30  1  0  0  0  0
 31 29  2  0  0  0  0
 32 26  1  0  0  0  0
 32 30  2  0  0  0  0
 34 33  1  0  0  0  0
 35  7  1  0  0  0  0
 36 42  1  0  0  0  0
 37 36  1  0  0  0  0
 39 35  1  0  0  0  0
 40 36  2  0  0  0  0
 40 41  1  0  0  0  0
 41 38  2  0  0  0  0
 42 39  2  0  0  0  0
 42 38  1  0  0  0  0
 43 44  1  0  0  0  0
 43 40  1  0  0  0  0
M  END
>  <MODEL>
4

>  <REMARK>
 VINA RESULT:      -7.2      2.396      5.494
  Name = 
  10 active torsions:
  status: ('A' for Active; 'I' for Inactive)
    1  A    between atoms: C_1  and  N_35
    2  A    between atoms: C_1  and  C_40
    3  A    between atoms: O_8  and  C_27
    4  A    between atoms: C_18  and  C_39
    5  A    between atoms: C_20  and  O_36
    6  A    between atoms: C_22  and  C_41
    7  A    between atoms: C_25  and  O_33
    8  A    between atoms: C_26  and  N_35
    9  A    between atoms: C_26  and  C_39
   10  A    between atoms: C_28  and  O_33
                            x       y       z     vdW  Elec       q    Type
                         _______ _______ _______ _____ _____    ______ ____

>  <TORSDO>
F 10

$$$$
=
 OpenBabel11062416163D

 44 50  0  0  1  0  0  0  0  0999 V2000
  182.4490  174.2330  136.1830 C   0  0  0  0  0  2  0  0  0  0  0  0
  181.9390  176.6320  136.3180 C   0  0  0  0  0  3  0  0  0  0  0  0
  181.5250  175.3700  136.4860 C   0  0  0  0  0  3  0  0  0  0  0  0
  185.2340  176.6120  136.9240 N   0  0  0  0  0  0  0  0  0  0  0  0
  183.8370  174.5890  136.7060 C   0  0  2  0  0  3  0  0  0  0  0  0
  184.2380  177.6990  136.7780 C   0  0  1  0  0  3  0  0  0  0  0  0
  186.5510  176.4550  137.4520 C   0  0  0  0  0  0  0  0  0  0  0  0
  184.3600  175.8590  136.0060 C   0  0  1  0  0  3  0  0  0  0  0  0
  187.1630  175.3620  137.2940 O   0  0  0  0  0  0  0  0  0  0  0  0
  183.3360  176.9590  135.8150 C   0  0  1  0  0  3  0  0  0  0  0  0
  181.2620  181.6010  137.9170 N   0  0  0  0  0  0  0  0  0  0  0  0
  184.1650  179.9660  139.4660 O   0  0  0  0  0  0  0  0  0  0  0  0
  181.5360  179.3490  137.1120 C   0  0  0  0  0  3  0  0  0  0  0  0
  182.6570  179.2400  137.9360 C   0  0  0  0  0  0  0  0  0  0  0  0
  184.6020  178.6490  139.1370 C   0  0  2  0  0  3  0  0  0  0  0  0
  183.0490  180.2800  138.7260 C   0  0  0  0  0  0  0  0  0  0  0  0
  182.3540  181.4840  138.7260 C   0  0  0  0  0  3  0  0  0  0  0  0
  180.8420  180.5700  137.1200 C   0  0  0  0  0  3  0  0  0  0  0  0
  183.5770  178.0790  138.1220 C   0  0  2  0  0  3  0  0  0  0  0  0
  184.7340  177.7620  140.3750 C   0  0  0  0  0  2  0  0  0  0  0  0
  184.5240  178.5270  141.6750 C   0  0  0  0  0  2  0  0  0  0  0  0
  185.1030  177.7810  142.7840 N   0  0  0  0  0  2  0  0  0  0  0  0
  184.8900  178.5390  144.0110 C   0  0  0  0  0  0  0  0  0  0  0  0
  184.2520  179.9040  143.8540 C   0  0  0  0  0  2  0  0  0  0  0  0
  183.4250  178.7220  144.3470 C   0  0  0  0  0  2  0  0  0  0  0  0
  188.3670  177.7340  148.3970 F   0  0  0  0  0  0  0  0  0  0  0  0
  187.8460  177.3770  146.0980 C   0  0  0  0  0  3  0  0  0  0  0  0
  186.9860  177.5710  145.0120 C   0  0  0  0  0  3  0  0  0  0  0  0
  185.4960  178.8520  146.4280 C   0  0  0  0  0  3  0  0  0  0  0  0
  186.3580  178.6600  147.5110 C   0  0  0  0  0  3  0  0  0  0  0  0
  185.8010  178.2990  145.1770 C   0  0  0  0  0  0  0  0  0  0  0  0
  187.5310  177.9180  147.3470 C   0  0  0  0  0  0  0  0  0  0  0  0
  184.7710  172.8490  137.7030 C   0  0  0  0  0  1  0  0  0  0  0  0
  184.7160  173.5270  136.4860 O   0  0  0  0  0  0  0  0  0  0  0  0
  187.1490  177.5130  138.1370 O   0  0  0  0  0  0  0  0  0  0  0  0
  190.2610  177.5910  140.1760 C   0  0  0  0  0  0  0  0  0  0  0  0
  191.3770  177.5600  139.3480 O   0  0  0  0  0  1  0  0  0  0  0  0
  187.9790  177.6440  140.9080 C   0  0  0  0  0  3  0  0  0  0  0  0
  188.5030  177.5220  138.4610 C   0  0  0  0  0  2  0  0  0  0  0  0
  190.3100  177.6230  141.4900 C   0  0  1  0  0  3  0  0  0  0  0  0
  188.9420  177.6400  142.1040 C   0  0  0  0  0  3  0  0  0  0  0  0
  188.8880  177.5930  139.7290 C   0  0  0  0  0  0  0  0  0  0  0  0
  191.5070  177.6370  142.2060 O   0  0  0  0  0  0  0  0  0  0  0  0
  191.6420  176.9660  143.4510 C   0  0  0  0  0  1  0  0  0  0  0  0
  1  3  1  0  0  0  0
  1  5  1  0  0  0  0
  2  3  2  0  0  0  0
  4  7  1  0  0  0  0
  5 34  1  6  0  0  0
  6  4  1  1  0  0  0
  6 19  1  0  0  0  0
  7 35  1  0  0  0  0
  8  5  1  0  0  0  0
  8  4  1  1  0  0  0
  9  7  2  0  0  0  0
 10  8  1  0  0  0  0
 10  2  1  1  0  0  0
 10  6  1  0  0  0  0
 11 17  1  0  0  0  0
 13 18  1  0  0  0  0
 13 14  2  0  0  0  0
 14 16  1  0  0  0  0
 15 12  1  0  0  0  0
 15 20  1  1  0  0  0
 16 12  1  0  0  0  0
 17 16  2  0  0  0  0
 18 11  2  0  0  0  0
 19 14  1  6  0  0  0
 19 15  1  0  0  0  0
 20 21  1  0  0  0  0
 21 22  1  0  0  0  0
 22 23  1  0  0  0  0
 23 25  1  0  0  0  0
 23 31  1  0  0  0  0
 24 23  1  0  0  0  0
 24 25  1  0  0  0  0
 27 32  1  0  0  0  0
 28 31  1  0  0  0  0
 28 27  2  0  0  0  0
 29 30  1  0  0  0  0
 31 29  2  0  0  0  0
 32 30  2  0  0  0  0
 32 26  1  0  0  0  0
 34 33  1  0  0  0  0
 35 39  1  0  0  0  0
 36 40  1  0  0  0  0
 37 36  1  0  0  0  0
 38 41  2  0  0  0  0
 39 42  1  0  0  0  0
 40 41  1  0  0  0  0
 40 43  1  1  0  0  0
 42 36  2  0  0  0  0
 42 38  1  0  0  0  0
 43 44  1  0  0  0  0
M  END
>  <MODEL>
5

>  <REMARK>
 VINA RESULT:      -7.2      1.220      1.702
  Name = 
  10 active torsions:
  status: ('A' for Active; 'I' for Inactive)
    1  A    between atoms: C_1  and  N_35
    2  A    between atoms: C_1  and  C_40
    3  A    between atoms: O_8  and  C_27
    4  A    between atoms: C_18  and  C_39
    5  A    between atoms: C_20  and  O_36
    6  A    between atoms: C_22  and  C_41
    7  A    between atoms: C_25  and  O_33
    8  A    between atoms: C_26  and  N_35
    9  A    between atoms: C_26  and  C_39
   10  A    between atoms: C_28  and  O_33
                            x       y       z     vdW  Elec       q    Type
                         _______ _______ _______ _____ _____    ______ ____

>  <TORSDO>
F 10

$$$$
=
 OpenBabel11062416163D

 44 50  0  0  1  0  0  0  0  0999 V2000
  189.4600  177.4980  144.9380 C   0  0  0  0  0  2  0  0  0  0  0  0
  188.0200  176.3770  143.2950 C   0  0  0  0  0  3  0  0  0  0  0  0
  188.1160  177.1700  144.3690 C   0  0  0  0  0  3  0  0  0  0  0  0
  190.7960  176.9150  141.4970 N   0  0  0  0  0  0  0  0  0  0  0  0
  190.4200  177.7660  143.7830 C   0  0  2  0  0  3  0  0  0  0  0  0
  189.5170  176.2280  141.2030 C   0  0  1  0  0  3  0  0  0  0  0  0
  191.8960  177.4510  140.7620 C   0  0  0  0  0  0  0  0  0  0  0  0
  190.5450  176.5140  142.8930 C   0  0  1  0  0  3  0  0  0  0  0  0
  192.9110  177.8800  141.3780 O   0  0  0  0  0  0  0  0  0  0  0  0
  189.2470  175.7810  142.6230 C   0  0  1  0  0  3  0  0  0  0  0  0
  188.6980  177.5730  136.4180 N   0  0  0  0  0  0  0  0  0  0  0  0
  188.9050  179.3200  139.6440 O   0  0  0  0  0  0  0  0  0  0  0  0
  188.3170  176.0690  138.2580 C   0  0  0  0  0  3  0  0  0  0  0  0
  188.5040  177.1500  139.1200 C   0  0  0  0  0  0  0  0  0  0  0  0
  188.7790  178.6700  140.9070 C   0  0  2  0  0  3  0  0  0  0  0  0
  188.7670  178.3960  138.6330 C   0  0  0  0  0  0  0  0  0  0  0  0
  188.8710  178.6270  137.2670 C   0  0  0  0  0  3  0  0  0  0  0  0
  188.4250  176.3130  136.8790 C   0  0  0  0  0  3  0  0  0  0  0  0
  188.4560  177.1820  140.6120 C   0  0  2  0  0  3  0  0  0  0  0  0
  187.7110  179.3250  141.7840 C   0  0  0  0  0  2  0  0  0  0  0  0
  186.3210  178.7500  141.5520 C   0  0  0  0  0  2  0  0  0  0  0  0
  185.3140  179.7320  141.9270 N   0  0  0  0  0  2  0  0  0  0  0  0
  184.3840  179.1070  142.8600 C   0  0  0  0  0  0  0  0  0  0  0  0
  184.9990  178.2490  143.9470 C   0  0  0  0  0  2  0  0  0  0  0  0
  184.5000  179.6540  144.2670 C   0  0  0  0  0  2  0  0  0  0  0  0
  179.1360  178.0230  141.0550 F   0  0  0  0  0  0  0  0  0  0  0  0
  180.6020  178.7380  142.7940 C   0  0  0  0  0  3  0  0  0  0  0  0
  181.8990  179.0030  143.2440 C   0  0  0  0  0  3  0  0  0  0  0  0
  182.7780  178.3440  141.0870 C   0  0  0  0  0  3  0  0  0  0  0  0
  181.4810  178.0830  140.6370 C   0  0  0  0  0  3  0  0  0  0  0  0
  182.9940  178.7950  142.3960 C   0  0  0  0  0  0  0  0  0  0  0  0
  180.3930  178.2750  141.4930 C   0  0  0  0  0  0  0  0  0  0  0  0
  191.6810  179.5210  144.2570 C   0  0  0  0  0  1  0  0  0  0  0  0
  191.6740  178.1270  144.2780 O   0  0  0  0  0  0  0  0  0  0  0  0
  191.8370  177.4950  139.3690 O   0  0  0  0  0  0  0  0  0  0  0  0
  193.8110  175.3990  137.0110 C   0  0  0  0  0  0  0  0  0  0  0  0
  195.0540  175.9760  136.7820 O   0  0  0  0  0  1  0  0  0  0  0  0
  191.6070  175.0230  137.8780 C   0  0  0  0  0  3  0  0  0  0  0  0
  192.8880  177.0650  138.5630 C   0  0  0  0  0  3  0  0  0  0  0  0
  193.3940  174.2830  136.4530 C   0  0  0  0  0  0  0  0  0  0  0  0
  192.0050  173.9200  136.8880 C   0  0  0  0  0  3  0  0  0  0  0  0
  192.7920  175.9270  137.8860 C   0  0  0  0  0  0  0  0  0  0  0  0
  194.1710  173.5420  135.5620 O   0  0  0  0  0  0  0  0  0  0  0  0
  194.0710  172.1270  135.4800 C   0  0  0  0  0  1  0  0  0  0  0  0
  2  3  2  0  0  0  0
  3  1  1  0  0  0  0
  5 34  1  1  0  0  0
  5  1  1  0  0  0  0
  6  4  1  1  0  0  0
  6 10  1  0  0  0  0
  7  9  2  0  0  0  0
  7  4  1  0  0  0  0
  8  4  1  6  0  0  0
  8  5  1  0  0  0  0
 10  8  1  0  0  0  0
 10  2  1  1  0  0  0
 11 18  2  0  0  0  0
 11 17  1  0  0  0  0
 12 15  1  0  0  0  0
 13 14  2  0  0  0  0
 15 20  1  1  0  0  0
 16 14  1  0  0  0  0
 16 12  1  0  0  0  0
 17 16  2  0  0  0  0
 18 13  1  0  0  0  0
 19 14  1  6  0  0  0
 19 15  1  0  0  0  0
 19  6  1  0  0  0  0
 21 20  1  0  0  0  0
 21 22  1  0  0  0  0
 22 23  1  0  0  0  0
 23 24  1  0  0  0  0
 23 25  1  0  0  0  0
 24 25  1  0  0  0  0
 26 32  1  0  0  0  0
 27 28  1  0  0  0  0
 29 31  1  0  0  0  0
 30 29  2  0  0  0  0
 30 32  1  0  0  0  0
 31 23  1  0  0  0  0
 31 28  2  0  0  0  0
 32 27  2  0  0  0  0
 33 34  1  0  0  0  0
 35  7  1  0  0  0  0
 36 42  1  0  0  0  0
 37 36  1  0  0  0  0
 38 42  1  0  0  0  0
 39 35  1  0  0  0  0
 40 41  1  0  0  0  0
 40 36  2  0  0  0  0
 41 38  2  0  0  0  0
 42 39  2  0  0  0  0
 43 40  1  0  0  0  0
 44 43  1  0  0  0  0
M  END
>  <MODEL>
6

>  <REMARK>
 VINA RESULT:      -7.0      3.976      7.751
  Name = 
  10 active torsions:
  status: ('A' for Active; 'I' for Inactive)
    1  A    between atoms: C_1  and  N_35
    2  A    between atoms: C_1  and  C_40
    3  A    between atoms: O_8  and  C_27
    4  A    between atoms: C_18  and  C_39
    5  A    between atoms: C_20  and  O_36
    6  A    between atoms: C_22  and  C_41
    7  A    between atoms: C_25  and  O_33
    8  A    between atoms: C_26  and  N_35
    9  A    between atoms: C_26  and  C_39
   10  A    between atoms: C_28  and  O_33
                            x       y       z     vdW  Elec       q    Type
                         _______ _______ _______ _____ _____    ______ ____

>  <TORSDO>
F 10

$$$$
=
 OpenBabel11062416163D

 44 50  0  0  1  0  0  0  0  0999 V2000
  194.5480  173.6650  135.5980 C   0  0  0  0  0  2  0  0  0  0  0  0
  192.7680  175.0590  134.6410 C   0  0  0  0  0  3  0  0  0  0  0  0
  193.3770  173.8680  134.6900 C   0  0  0  0  0  3  0  0  0  0  0  0
  193.0890  176.3880  137.6990 N   0  0  0  0  0  0  0  0  0  0  0  0
  194.2520  174.3540  136.9270 C   0  0  2  0  0  3  0  0  0  0  0  0
  192.2580  176.7410  136.5250 C   0  0  1  0  0  3  0  0  0  0  0  0
  193.1090  176.6730  139.0990 C   0  0  0  0  0  0  0  0  0  0  0  0
  194.0460  175.8650  136.7080 C   0  0  1  0  0  3  0  0  0  0  0  0
  194.0750  176.2730  139.8050 O   0  0  0  0  0  0  0  0  0  0  0  0
  193.2330  176.2360  135.4840 C   0  0  1  0  0  3  0  0  0  0  0  0
  187.7410  178.4320  137.9770 N   0  0  0  0  0  0  0  0  0  0  0  0
  189.6880  175.3590  138.4870 O   0  0  0  0  0  0  0  0  0  0  0  0
  189.4200  178.1640  136.2750 C   0  0  0  0  0  3  0  0  0  0  0  0
  189.8060  176.9810  136.9070 C   0  0  0  0  0  0  0  0  0  0  0  0
  190.7870  174.9710  137.6650 C   0  0  2  0  0  3  0  0  0  0  0  0
  189.1650  176.5450  138.0280 C   0  0  0  0  0  0  0  0  0  0  0  0
  188.1180  177.2710  138.5850 C   0  0  0  0  0  3  0  0  0  0  0  0
  188.3620  178.8890  136.8460 C   0  0  0  0  0  3  0  0  0  0  0  0
  190.8900  176.0250  136.5320 C   0  0  2  0  0  3  0  0  0  0  0  0
  190.6210  173.5540  137.1170 C   0  0  0  0  0  2  0  0  0  0  0  0
  189.4280  173.4180  136.1810 C   0  0  0  0  0  2  0  0  0  0  0  0
  188.2350  173.0900  136.9490 N   0  0  0  0  0  2  0  0  0  0  0  0
  187.0640  173.4330  136.1520 C   0  0  0  0  0  0  0  0  0  0  0  0
  186.7860  174.9110  135.9680 C   0  0  0  0  0  2  0  0  0  0  0  0
  187.4160  174.1020  134.8400 C   0  0  0  0  0  2  0  0  0  0  0  0
  182.7630  169.7620  136.0670 F   0  0  0  0  0  0  0  0  0  0  0  0
  184.8950  170.4450  135.2470 C   0  0  0  0  0  3  0  0  0  0  0  0
  185.9590  171.3540  135.2630 C   0  0  0  0  0  3  0  0  0  0  0  0
  184.8110  172.6610  136.9480 C   0  0  0  0  0  3  0  0  0  0  0  0
  183.7510  171.7500  136.9340 C   0  0  0  0  0  3  0  0  0  0  0  0
  185.9140  172.4720  136.1050 C   0  0  0  0  0  0  0  0  0  0  0  0
  183.7910  170.6450  136.0790 C   0  0  0  0  0  0  0  0  0  0  0  0
  195.2340  172.7840  138.1380 C   0  0  0  0  0  1  0  0  0  0  0  0
  195.3040  174.1400  137.8200 O   0  0  0  0  0  0  0  0  0  0  0  0
  192.0580  177.3910  139.6700 O   0  0  0  0  0  0  0  0  0  0  0  0
  191.1710  177.9300  143.2440 C   0  0  0  0  0  0  0  0  0  0  0  0
  192.0560  178.8300  143.8270 O   0  0  0  0  0  1  0  0  0  0  0  0
  190.0860  176.5450  141.6150 C   0  0  0  0  0  3  0  0  0  0  0  0
  192.1090  177.8780  140.9730 C   0  0  0  0  0  2  0  0  0  0  0  0
  190.1780  177.3450  143.8790 C   0  0  2  0  0  3  0  0  0  0  0  0
  189.4050  176.4210  142.9860 C   0  0  0  0  0  3  0  0  0  0  0  0
  191.2010  177.5020  141.8650 C   0  0  0  0  0  0  0  0  0  0  0  0
  189.8970  177.5740  145.2260 O   0  0  0  0  0  0  0  0  0  0  0  0
  188.6890  177.1280  145.8250 C   0  0  0  0  0  1  0  0  0  0  0  0
  1  5  1  0  0  0  0
  2  3  2  0  0  0  0
  3  1  1  0  0  0  0
  4  7  1  0  0  0  0
  5 34  1  1  0  0  0
  6 19  1  0  0  0  0
  6  4  1  1  0  0  0
  7 35  1  0  0  0  0
  7  9  2  0  0  0  0
  8  5  1  0  0  0  0
  8  4  1  1  0  0  0
 10  2  1  1  0  0  0
 10  6  1  0  0  0  0
 10  8  1  0  0  0  0
 11 17  1  0  0  0  0
 13 18  1  0  0  0  0
 13 14  2  0  0  0  0
 14 16  1  0  0  0  0
 15 20  1  6  0  0  0
 15 12  1  0  0  0  0
 16 12  1  0  0  0  0
 16 17  2  0  0  0  0
 18 11  2  0  0  0  0
 19 14  1  1  0  0  0
 19 15  1  0  0  0  0
 21 22  1  0  0  0  0
 21 20  1  0  0  0  0
 23 22  1  0  0  0  0
 24 23  1  0  0  0  0
 25 24  1  0  0  0  0
 25 23  1  0  0  0  0
 26 32  1  0  0  0  0
 27 28  2  0  0  0  0
 27 32  1  0  0  0  0
 28 31  1  0  0  0  0
 30 29  1  0  0  0  0
 31 23  1  0  0  0  0
 31 29  2  0  0  0  0
 32 30  2  0  0  0  0
 34 33  1  0  0  0  0
 35 39  1  0  0  0  0
 36 37  1  0  0  0  0
 36 40  1  0  0  0  0
 38 42  1  0  0  0  0
 38 41  2  0  0  0  0
 39 42  1  0  0  0  0
 40 43  1  6  0  0  0
 41 40  1  0  0  0  0
 42 36  2  0  0  0  0
 43 44  1  0  0  0  0
M  END
>  <MODEL>
7

>  <REMARK>
 VINA RESULT:      -6.7      5.183      9.713
  Name = 
  10 active torsions:
  status: ('A' for Active; 'I' for Inactive)
    1  A    between atoms: C_1  and  N_35
    2  A    between atoms: C_1  and  C_40
    3  A    between atoms: O_8  and  C_27
    4  A    between atoms: C_18  and  C_39
    5  A    between atoms: C_20  and  O_36
    6  A    between atoms: C_22  and  C_41
    7  A    between atoms: C_25  and  O_33
    8  A    between atoms: C_26  and  N_35
    9  A    between atoms: C_26  and  C_39
   10  A    between atoms: C_28  and  O_33
                            x       y       z     vdW  Elec       q    Type
                         _______ _______ _______ _____ _____    ______ ____

>  <TORSDO>
F 10

$$$$
=
 OpenBabel11062416163D

 44 50  0  0  1  0  0  0  0  0999 V2000
  181.0740  177.3200  138.7620 C   0  0  0  0  0  2  0  0  0  0  0  0
  182.3560  178.6120  137.1130 C   0  0  0  0  0  3  0  0  0  0  0  0
  181.5750  178.6130  138.2000 C   0  0  0  0  0  3  0  0  0  0  0  0
  184.1060  175.7570  137.2370 N   0  0  0  0  0  0  0  0  0  0  0  0
  182.2120  176.3050  138.7210 C   0  0  2  0  0  3  0  0  0  0  0  0
  184.2320  176.9860  136.4210 C   0  0  1  0  0  3  0  0  0  0  0  0
  184.9210  174.6370  137.5880 C   0  0  0  0  0  0  0  0  0  0  0  0
  182.6670  176.0750  137.2670 C   0  0  1  0  0  3  0  0  0  0  0  0
  184.4220  173.6810  138.2420 O   0  0  0  0  0  0  0  0  0  0  0  0
  182.7570  177.3230  136.4130 C   0  0  1  0  0  3  0  0  0  0  0  0
  189.2080  177.6790  136.0530 N   0  0  0  0  0  0  0  0  0  0  0  0
  186.7550  177.6150  138.7880 O   0  0  0  0  0  0  0  0  0  0  0  0
  186.9790  178.0860  135.2430 C   0  0  0  0  0  3  0  0  0  0  0  0
  186.5270  177.9510  136.5570 C   0  0  0  0  0  0  0  0  0  0  0  0
  185.3510  177.7690  138.5960 C   0  0  2  0  0  3  0  0  0  0  0  0
  187.3990  177.7010  137.5750 C   0  0  0  0  0  0  0  0  0  0  0  0
  188.7600  177.5570  137.3350 C   0  0  0  0  0  3  0  0  0  0  0  0
  188.3560  177.9390  135.0130 C   0  0  0  0  0  3  0  0  0  0  0  0
  185.1340  178.0490  137.0860 C   0  0  2  0  0  3  0  0  0  0  0  0
  184.7700  178.8780  139.4730 C   0  0  0  0  0  2  0  0  0  0  0  0
  184.5530  178.4400  140.9150 C   0  0  0  0  0  2  0  0  0  0  0  0
  185.2990  179.3110  141.8120 N   0  0  0  0  0  2  0  0  0  0  0  0
  184.9690  178.9510  143.1860 C   0  0  0  0  0  0  0  0  0  0  0  0
  183.8300  179.7200  143.8250 C   0  0  0  0  0  2  0  0  0  0  0  0
  183.6080  178.3000  143.3160 C   0  0  0  0  0  2  0  0  0  0  0  0
  188.9840  176.7460  146.5020 F   0  0  0  0  0  0  0  0  0  0  0  0
  186.9700  178.0040  146.2750 C   0  0  0  0  0  3  0  0  0  0  0  0
  185.9780  178.5530  145.4560 C   0  0  0  0  0  3  0  0  0  0  0  0
  187.0970  177.6570  143.5050 C   0  0  0  0  0  3  0  0  0  0  0  0
  188.0860  177.1050  144.3240 C   0  0  0  0  0  3  0  0  0  0  0  0
  186.0450  178.3930  144.0660 C   0  0  0  0  0  0  0  0  0  0  0  0
  188.0250  177.2830  145.7090 C   0  0  0  0  0  0  0  0  0  0  0  0
  180.5810  175.3940  139.9070 C   0  0  0  0  0  1  0  0  0  0  0  0
  181.7960  175.0990  139.2880 O   0  0  0  0  0  0  0  0  0  0  0  0
  186.2610  174.6140  137.2020 O   0  0  0  0  0  0  0  0  0  0  0  0
  188.7340  172.5170  135.3750 C   0  0  0  0  0  0  0  0  0  0  0  0
  188.0780  171.5740  134.5940 O   0  0  0  0  0  1  0  0  0  0  0  0
  189.1260  174.3460  136.8760 C   0  0  0  0  0  3  0  0  0  0  0  0
  186.7800  173.6310  136.3640 C   0  0  0  0  0  3  0  0  0  0  0  0
  190.0420  172.6300  135.4640 C   0  0  0  0  0  0  0  0  0  0  0  0
  190.4500  173.7350  136.3940 C   0  0  0  0  0  3  0  0  0  0  0  0
  188.0920  173.5100  136.2030 C   0  0  0  0  0  0  0  0  0  0  0  0
  190.9250  171.8070  134.7670 O   0  0  0  0  0  0  0  0  0  0  0  0
  192.2730  171.6350  135.1800 C   0  0  0  0  0  1  0  0  0  0  0  0
  2  3  2  0  0  0  0
  3  1  1  0  0  0  0
  4  7  1  0  0  0  0
  5  1  1  0  0  0  0
  5 34  1  6  0  0  0
  6 19  1  0  0  0  0
  6  4  1  1  0  0  0
  7  9  2  0  0  0  0
  8  4  1  1  0  0  0
  8  5  1  0  0  0  0
 10  6  1  0  0  0  0
 10  2  1  1  0  0  0
 10  8  1  0  0  0  0
 11 17  1  0  0  0  0
 13 14  2  0  0  0  0
 14 16  1  0  0  0  0
 15 12  1  0  0  0  0
 15 20  1  1  0  0  0
 16 12  1  0  0  0  0
 17 16  2  0  0  0  0
 18 13  1  0  0  0  0
 18 11  2  0  0  0  0
 19 14  1  6  0  0  0
 19 15  1  0  0  0  0
 20 21  1  0  0  0  0
 21 22  1  0  0  0  0
 22 23  1  0  0  0  0
 23 25  1  0  0  0  0
 23 24  1  0  0  0  0
 23 31  1  0  0  0  0
 25 24  1  0  0  0  0
 28 27  2  0  0  0  0
 29 31  2  0  0  0  0
 29 30  1  0  0  0  0
 30 32  2  0  0  0  0
 31 28  1  0  0  0  0
 32 27  1  0  0  0  0
 32 26  1  0  0  0  0
 34 33  1  0  0  0  0
 35  7  1  0  0  0  0
 36 40  2  0  0  0  0
 36 42  1  0  0  0  0
 37 36  1  0  0  0  0
 39 35  1  0  0  0  0
 40 41  1  0  0  0  0
 41 38  2  0  0  0  0
 42 39  2  0  0  0  0
 42 38  1  0  0  0  0
 43 44  1  0  0  0  0
 43 40  1  0  0  0  0
M  END
>  <MODEL>
8

>  <REMARK>
 VINA RESULT:      -6.4      2.894      4.402
  Name = 
  10 active torsions:
  status: ('A' for Active; 'I' for Inactive)
    1  A    between atoms: C_1  and  N_35
    2  A    between atoms: C_1  and  C_40
    3  A    between atoms: O_8  and  C_27
    4  A    between atoms: C_18  and  C_39
    5  A    between atoms: C_20  and  O_36
    6  A    between atoms: C_22  and  C_41
    7  A    between atoms: C_25  and  O_33
    8  A    between atoms: C_26  and  N_35
    9  A    between atoms: C_26  and  C_39
   10  A    between atoms: C_28  and  O_33
                            x       y       z     vdW  Elec       q    Type
                         _______ _______ _______ _____ _____    ______ ____

>  <TORSDO>
F 10

$$$$
=
 OpenBabel11062416163D

 44 50  0  0  1  0  0  0  0  0999 V2000
  189.1270  177.9370  144.7890 C   0  0  0  0  0  2  0  0  0  0  0  0
  187.7160  176.6820  143.2180 C   0  0  0  0  0  3  0  0  0  0  0  0
  187.7950  177.5790  144.2090 C   0  0  0  0  0  3  0  0  0  0  0  0
  190.5620  176.9790  141.4750 N   0  0  0  0  0  0  0  0  0  0  0  0
  190.1310  178.0660  143.6470 C   0  0  2  0  0  3  0  0  0  0  0  0
  189.2780  176.2900  141.2070 C   0  0  1  0  0  3  0  0  0  0  0  0
  191.6990  177.4160  140.7280 C   0  0  0  0  0  0  0  0  0  0  0  0
  190.2560  176.7280  142.8940 C   0  0  1  0  0  3  0  0  0  0  0  0
  192.7020  177.8850  141.3330 O   0  0  0  0  0  0  0  0  0  0  0  0
  188.9510  175.9960  142.6540 C   0  0  1  0  0  3  0  0  0  0  0  0
  188.8800  177.4410  136.3190 N   0  0  0  0  0  0  0  0  0  0  0  0
  188.7590  179.3100  139.4800 O   0  0  0  0  0  0  0  0  0  0  0  0
  188.3580  175.9980  138.1720 C   0  0  0  0  0  3  0  0  0  0  0  0
  188.4450  177.1140  139.0060 C   0  0  0  0  0  0  0  0  0  0  0  0
  188.5280  178.7040  140.7500 C   0  0  2  0  0  3  0  0  0  0  0  0
  188.7300  178.3470  138.4970 C   0  0  0  0  0  0  0  0  0  0  0  0
  188.9560  178.5290  137.1380 C   0  0  0  0  0  3  0  0  0  0  0  0
  188.5880  176.1940  136.8010 C   0  0  0  0  0  3  0  0  0  0  0  0
  188.2590  177.2000  140.4850 C   0  0  2  0  0  3  0  0  0  0  0  0
  187.3730  179.3680  141.5000 C   0  0  0  0  0  2  0  0  0  0  0  0
  186.0350  178.6860  141.2500 C   0  0  0  0  0  2  0  0  0  0  0  0
  185.3210  179.3800  140.1880 N   0  0  0  0  0  2  0  0  0  0  0  0
  184.1460  178.5930  139.8310 C   0  0  0  0  0  0  0  0  0  0  0  0
  183.1670  178.3050  140.9510 C   0  0  0  0  0  2  0  0  0  0  0  0
  182.8570  179.3820  139.9170 C   0  0  0  0  0  2  0  0  0  0  0  0
  184.4480  175.0040  135.4710 F   0  0  0  0  0  0  0  0  0  0  0  0
  183.5050  175.5990  137.5790 C   0  0  0  0  0  3  0  0  0  0  0  0
  183.4320  176.4830  138.6600 C   0  0  0  0  0  3  0  0  0  0  0  0
  185.1080  177.8880  137.6210 C   0  0  0  0  0  3  0  0  0  0  0  0
  185.1780  177.0050  136.5390 C   0  0  0  0  0  3  0  0  0  0  0  0
  184.2430  177.6240  138.6920 C   0  0  0  0  0  0  0  0  0  0  0  0
  184.3800  175.8580  136.5210 C   0  0  0  0  0  0  0  0  0  0  0  0
  191.6810  177.5000  145.1210 C   0  0  0  0  0  1  0  0  0  0  0  0
  191.3750  178.4510  144.1480 O   0  0  0  0  0  0  0  0  0  0  0  0
  191.6870  177.3180  139.3370 O   0  0  0  0  0  0  0  0  0  0  0  0
  192.5480  174.5980  136.9470 C   0  0  0  0  0  0  0  0  0  0  0  0
  191.6980  173.5140  137.1290 O   0  0  0  0  0  1  0  0  0  0  0  0
  193.5570  176.7590  137.1980 C   0  0  0  0  0  3  0  0  0  0  0  0
  191.6450  176.0940  138.6750 C   0  0  0  0  0  3  0  0  0  0  0  0
  193.5260  174.6390  136.0680 C   0  0  0  0  0  0  0  0  0  0  0  0
  194.2730  175.9380  136.1160 C   0  0  0  0  0  3  0  0  0  0  0  0
  192.4930  175.8370  137.6860 C   0  0  0  0  0  0  0  0  0  0  0  0
  193.8150  173.5830  135.2040 O   0  0  0  0  0  0  0  0  0  0  0  0
  195.1410  173.1100  135.0170 C   0  0  0  0  0  1  0  0  0  0  0  0
  2  3  2  0  0  0  0
  3  1  1  0  0  0  0
  5 34  1  1  0  0  0
  5  1  1  0  0  0  0
  6  4  1  1  0  0  0
  6 10  1  0  0  0  0
  7  9  2  0  0  0  0
  7  4  1  0  0  0  0
  8  4  1  6  0  0  0
  8  5  1  0  0  0  0
 10  8  1  0  0  0  0
 10  2  1  1  0  0  0
 11 18  2  0  0  0  0
 11 17  1  0  0  0  0
 12 15  1  0  0  0  0
 13 14  2  0  0  0  0
 15 20  1  6  0  0  0
 16 14  1  0  0  0  0
 16 12  1  0  0  0  0
 17 16  2  0  0  0  0
 18 13  1  0  0  0  0
 19 14  1  6  0  0  0
 19 15  1  0  0  0  0
 19  6  1  0  0  0  0
 21 20  1  0  0  0  0
 22 21  1  0  0  0  0
 23 25  1  0  0  0  0
 23 22  1  0  0  0  0
 23 24  1  0  0  0  0
 25 24  1  0  0  0  0
 26 32  1  0  0  0  0
 27 28  1  0  0  0  0
 28 31  2  0  0  0  0
 29 31  1  0  0  0  0
 30 29  2  0  0  0  0
 31 23  1  0  0  0  0
 32 30  1  0  0  0  0
 32 27  2  0  0  0  0
 34 33  1  0  0  0  0
 35  7  1  0  0  0  0
 36 37  1  0  0  0  0
 36 42  1  0  0  0  0
 38 42  1  0  0  0  0
 39 35  1  0  0  0  0
 40 41  1  0  0  0  0
 40 36  2  0  0  0  0
 41 38  2  0  0  0  0
 42 39  2  0  0  0  0
 43 40  1  0  0  0  0
 44 43  1  0  0  0  0
M  END
>  <MODEL>
9

>  <REMARK>
 VINA RESULT:      -6.3      3.723      8.054
  Name = 
  10 active torsions:
  status: ('A' for Active; 'I' for Inactive)
    1  A    between atoms: C_1  and  N_35
    2  A    between atoms: C_1  and  C_40
    3  A    between atoms: O_8  and  C_27
    4  A    between atoms: C_18  and  C_39
    5  A    between atoms: C_20  and  O_36
    6  A    between atoms: C_22  and  C_41
    7  A    between atoms: C_25  and  O_33
    8  A    between atoms: C_26  and  N_35
    9  A    between atoms: C_26  and  C_39
   10  A    between atoms: C_28  and  O_33
                            x       y       z     vdW  Elec       q    Type
                         _______ _______ _______ _____ _____    ______ ____

>  <TORSDO>
F 10

$$$$
