=
 OpenBabel11062416333D

 29 30  0  0  1  0  0  0  0  0999 V2000
  190.5050  176.7930  139.9890 C   0  0  0  0  0  2  0  0  0  0  0  0
  188.9810  178.9800  139.2090 O   0  0  0  0  0  1  0  0  0  0  0  0
  188.2680  175.7450  137.0720 S   0  0  0  0  0  0  0  0  0  0  0  0
  189.1070  178.0210  138.1990 C   0  0  1  0  0  3  0  0  0  0  0  0
  190.2340  177.0310  138.4980 C   0  0  2  0  0  3  0  0  0  0  0  0
  189.9500  175.7180  137.7750 C   0  0  2  0  0  3  0  0  0  0  0  0
  187.8240  177.2270  138.0310 C   0  0  1  0  0  3  0  0  0  0  0  0
  190.5710  175.3820  135.5030 O   0  0  0  0  0  0  0  0  0  0  0  0
  190.9520  175.4820  136.6970 C   0  0  0  0  0  0  0  0  0  0  0  0
  192.3080  175.3920  137.0000 O   0  0  0  0  0  1  0  0  0  0  0  0
  186.7330  178.0250  137.3100 C   0  0  2  0  0  3  0  0  0  0  0  0
  187.2240  179.2660  136.8940 O   0  0  0  0  0  1  0  0  0  0  0  0
  185.6990  178.9600  139.3910 O   0  0  0  0  0  1  0  0  0  0  0  0
  184.4260  177.8140  137.8710 O   0  0  0  0  0  0  0  0  0  0  0  0
  185.5570  178.2480  138.2050 C   0  0  0  0  0  0  0  0  0  0  0  0
  192.1820  177.3060  140.5080 S   0  0  0  0  0  0  0  0  0  0  0  0
  191.6440  177.6660  142.2100 C   0  0  0  0  0  2  0  0  0  0  0  0
  191.0550  176.4320  142.8830 C   0  0  0  0  0  2  0  0  0  0  0  0
  191.0280  177.0140  145.6000 S   0  0  0  0  0  0  0  0  0  0  0  0
  187.0100  177.4510  145.5560 N   0  0  0  0  0  0  0  0  0  0  0  0
  188.2860  177.2800  145.3970 C   0  0  0  0  0  0  0  0  0  0  0  0
  188.8550  176.9720  144.1420 C   0  0  0  0  0  0  0  0  0  0  0  0
  190.2650  176.8040  144.0980 C   0  0  0  0  0  0  0  0  0  0  0  0
  189.4050  177.4060  146.6720 S   0  0  0  0  0  0  0  0  0  0  0  0
  188.0120  176.8610  142.9860 N   0  0  0  0  0  2  0  0  0  0  0  0
  187.7950  177.8870  142.1310 O   0  0  0  0  0  1  0  0  0  0  0  0
  186.4730  177.7590  146.7870 O   0  0  0  0  0  0  0  0  0  0  0  0
  185.6970  178.9330  146.9540 C   0  0  0  0  0  2  0  0  0  0  0  0
  184.4010  178.7120  146.4840 O   0  0  0  0  0  1  0  0  0  0  0  0
  1 16  1  0  0  0  0
  3  6  1  0  0  0  0
  3  7  1  0  0  0  0
  4  5  1  0  0  0  0
  4  2  1  1  0  0  0
  5  1  1  1  0  0  0
  6  9  1  6  0  0  0
  6  5  1  0  0  0  0
  7 11  1  6  0  0  0
  7  4  1  0  0  0  0
  8  9  2  0  0  0  0
  9 10  1  0  0  0  0
 11 12  1  1  0  0  0
 11 15  1  0  0  0  0
 14 15  2  0  0  0  0
 15 13  1  0  0  0  0
 16 17  1  0  0  0  0
 17 18  1  0  0  0  0
 18 23  1  0  0  0  0
 19 24  1  0  0  0  0
 20 27  1  0  0  0  0
 21 20  2  0  0  0  0
 21 24  1  0  0  0  0
 22 21  1  0  0  0  0
 23 22  2  0  0  0  0
 23 19  1  0  0  0  0
 25 22  1  0  0  0  0
 26 25  1  0  0  0  0
 27 28  1  0  0  0  0
 29 28  1  0  0  0  0
M  END
>  <MODEL>
1

>  <REMARK>
 VINA RESULT:      -6.5      0.000      0.000
  Name = 
  11 active torsions:
  status: ('A' for Active; 'I' for Inactive)
    1  A    between atoms: N_1  and  C_24
    2  A    between atoms: C_3  and  O_5
    3  A    between atoms: O_5  and  N_13
    4  A    between atoms: C_6  and  S_7
    5  A    between atoms: C_6  and  C_12
    6  A    between atoms: S_7  and  C_22
    7  A    between atoms: C_16  and  C_17
    8  A    between atoms: C_16  and  C_28
    9  A    between atoms: C_20  and  C_25
   10  A    between atoms: C_22  and  C_23
   11  A    between atoms: C_23  and  C_26
                            x       y       z     vdW  Elec       q    Type
                         _______ _______ _______ _____ _____    ______ ____

>  <TORSDO>
F 11

$$$$
=
 OpenBabel11062416333D

 29 30  0  0  1  0  0  0  0  0999 V2000
  188.8820  177.5000  140.4300 C   0  0  0  0  0  2  0  0  0  0  0  0
  190.7660  178.0960  142.3840 O   0  0  0  0  0  1  0  0  0  0  0  0
  187.2780  177.0100  143.8660 S   0  0  0  0  0  0  0  0  0  0  0  0
  189.4520  178.1940  142.8520 C   0  0  1  0  0  3  0  0  0  0  0  0
  188.4440  178.2390  141.7020 C   0  0  2  0  0  3  0  0  0  0  0  0
  187.0960  177.7250  142.1990 C   0  0  2  0  0  3  0  0  0  0  0  0
  189.0950  177.0140  143.7370 C   0  0  1  0  0  3  0  0  0  0  0  0
  185.9060  179.5190  141.1880 O   0  0  0  0  0  0  0  0  0  0  0  0
  186.0890  178.8230  142.2190 C   0  0  0  0  0  0  0  0  0  0  0  0
  185.3340  179.0690  143.3620 O   0  0  0  0  0  1  0  0  0  0  0  0
  189.7300  177.1120  145.1270 C   0  0  2  0  0  3  0  0  0  0  0  0
  189.7510  178.4380  145.5670 O   0  0  0  0  0  1  0  0  0  0  0  0
  191.5320  175.6840  144.1340 O   0  0  0  0  0  0  0  0  0  0  0  0
  191.9580  176.9900  145.9660 O   0  0  0  0  0  1  0  0  0  0  0  0
  191.1300  176.5880  145.1100 C   0  0  0  0  0  0  0  0  0  0  0  0
  188.9650  178.5820  138.9590 S   0  0  0  0  0  0  0  0  0  0  0  0
  189.7930  177.3080  137.9560 C   0  0  0  0  0  2  0  0  0  0  0  0
  190.5670  176.3250  138.8260 C   0  0  0  0  0  2  0  0  0  0  0  0
  191.2610  174.2660  137.0940 S   0  0  0  0  0  0  0  0  0  0  0  0
  195.1430  175.3880  137.1770 N   0  0  0  0  0  0  0  0  0  0  0  0
  193.8680  175.1650  137.2570 C   0  0  0  0  0  0  0  0  0  0  0  0
  193.0080  175.9760  138.0290 C   0  0  0  0  0  0  0  0  0  0  0  0
  191.6300  175.6270  138.0400 C   0  0  0  0  0  0  0  0  0  0  0  0
  193.0970  173.8830  136.4480 S   0  0  0  0  0  0  0  0  0  0  0  0
  193.5400  177.1020  138.7410 N   0  0  0  0  0  2  0  0  0  0  0  0
  194.0620  177.0070  139.9860 O   0  0  0  0  0  1  0  0  0  0  0  0
  195.9660  174.5900  136.4110 O   0  0  0  0  0  0  0  0  0  0  0  0
  197.0420  175.1620  135.6880 C   0  0  0  0  0  2  0  0  0  0  0  0
  197.9430  175.7550  136.5740 O   0  0  0  0  0  1  0  0  0  0  0  0
  4  2  1  6  0  0  0
  4  7  1  0  0  0  0
  5  1  1  6  0  0  0
  5  6  1  0  0  0  0
  5  4  1  0  0  0  0
  6  9  1  1  0  0  0
  6  3  1  0  0  0  0
  7  3  1  0  0  0  0
  7 11  1  1  0  0  0
  8  9  2  0  0  0  0
  9 10  1  0  0  0  0
 11 12  1  6  0  0  0
 13 15  2  0  0  0  0
 15 11  1  0  0  0  0
 15 14  1  0  0  0  0
 16  1  1  0  0  0  0
 17 18  1  0  0  0  0
 17 16  1  0  0  0  0
 19 23  1  0  0  0  0
 20 21  2  0  0  0  0
 21 22  1  0  0  0  0
 22 23  2  0  0  0  0
 22 25  1  0  0  0  0
 23 18  1  0  0  0  0
 24 19  1  0  0  0  0
 24 21  1  0  0  0  0
 25 26  1  0  0  0  0
 27 20  1  0  0  0  0
 28 27  1  0  0  0  0
 28 29  1  0  0  0  0
M  END
>  <MODEL>
2

>  <REMARK>
 VINA RESULT:      -6.3      3.917      8.897
  Name = 
  11 active torsions:
  status: ('A' for Active; 'I' for Inactive)
    1  A    between atoms: N_1  and  C_24
    2  A    between atoms: C_3  and  O_5
    3  A    between atoms: O_5  and  N_13
    4  A    between atoms: C_6  and  S_7
    5  A    between atoms: C_6  and  C_12
    6  A    between atoms: S_7  and  C_22
    7  A    between atoms: C_16  and  C_17
    8  A    between atoms: C_16  and  C_28
    9  A    between atoms: C_20  and  C_25
   10  A    between atoms: C_22  and  C_23
   11  A    between atoms: C_23  and  C_26
                            x       y       z     vdW  Elec       q    Type
                         _______ _______ _______ _____ _____    ______ ____

>  <TORSDO>
F 11

$$$$
=
 OpenBabel11062416333D

 29 30  0  0  1  0  0  0  0  0999 V2000
  190.4410  176.7790  141.3590 C   0  0  0  0  0  2  0  0  0  0  0  0
  188.7600  178.7330  140.3200 O   0  0  0  0  0  1  0  0  0  0  0  0
  190.0740  176.2030  137.5970 S   0  0  0  0  0  0  0  0  0  0  0  0
  189.5930  178.1650  139.3510 C   0  0  1  0  0  3  0  0  0  0  0  0
  190.7490  177.3870  139.9840 C   0  0  2  0  0  3  0  0  0  0  0  0
  191.2260  176.3190  139.0050 C   0  0  2  0  0  3  0  0  0  0  0  0
  188.8230  177.2080  138.4580 C   0  0  1  0  0  3  0  0  0  0  0  0
  193.4340  177.1560  139.2990 O   0  0  0  0  0  1  0  0  0  0  0  0
  192.6010  176.6270  138.5190 C   0  0  0  0  0  0  0  0  0  0  0  0
  192.9770  176.3150  137.2160 O   0  0  0  0  0  0  0  0  0  0  0  0
  187.9350  177.9390  137.4470 C   0  0  2  0  0  3  0  0  0  0  0  0
  188.2810  179.2910  137.3740 O   0  0  0  0  0  1  0  0  0  0  0  0
  185.7040  176.8090  137.3160 O   0  0  0  0  0  0  0  0  0  0  0  0
  185.9990  178.6520  138.6420 O   0  0  0  0  0  1  0  0  0  0  0  0
  186.4940  177.8310  137.8290 C   0  0  0  0  0  0  0  0  0  0  0  0
  191.8250  176.9360  142.5430 S   0  0  0  0  0  0  0  0  0  0  0  0
  190.8140  177.8640  143.7410 C   0  0  0  0  0  2  0  0  0  0  0  0
  190.5310  177.0380  144.9910 C   0  0  0  0  0  2  0  0  0  0  0  0
  189.1570  177.7850  147.2880 S   0  0  0  0  0  0  0  0  0  0  0  0
  185.6820  178.0210  145.2380 N   0  0  0  0  0  0  0  0  0  0  0  0
  186.8710  177.9030  145.7410 C   0  0  0  0  0  0  0  0  0  0  0  0
  187.9900  177.5470  144.9570 C   0  0  0  0  0  0  0  0  0  0  0  0
  189.2400  177.4450  145.6260 C   0  0  0  0  0  0  0  0  0  0  0  0
  187.2120  178.1620  147.3870 S   0  0  0  0  0  0  0  0  0  0  0  0
  187.8310  177.3230  143.5490 N   0  0  0  0  0  2  0  0  0  0  0  0
  187.7590  176.0870  143.0030 O   0  0  0  0  0  1  0  0  0  0  0  0
  184.6030  178.3770  146.0170 O   0  0  0  0  0  0  0  0  0  0  0  0
  183.4820  179.0190  145.4330 C   0  0  0  0  0  2  0  0  0  0  0  0
  183.3070  178.5630  144.1250 O   0  0  0  0  0  1  0  0  0  0  0  0
  1 16  1  0  0  0  0
  3  7  1  0  0  0  0
  3  6  1  0  0  0  0
  4  5  1  0  0  0  0
  4  2  1  1  0  0  0
  5  1  1  1  0  0  0
  6  9  1  6  0  0  0
  6  5  1  0  0  0  0
  7 11  1  6  0  0  0
  7  4  1  0  0  0  0
  9  8  1  0  0  0  0
 10  9  2  0  0  0  0
 11 12  1  1  0  0  0
 11 15  1  0  0  0  0
 13 15  2  0  0  0  0
 15 14  1  0  0  0  0
 16 17  1  0  0  0  0
 17 18  1  0  0  0  0
 18 23  1  0  0  0  0
 19 24  1  0  0  0  0
 20 21  2  0  0  0  0
 20 27  1  0  0  0  0
 21 24  1  0  0  0  0
 22 23  2  0  0  0  0
 22 21  1  0  0  0  0
 23 19  1  0  0  0  0
 25 22  1  0  0  0  0
 26 25  1  0  0  0  0
 28 27  1  0  0  0  0
 29 28  1  0  0  0  0
M  END
>  <MODEL>
3

>  <REMARK>
 VINA RESULT:      -6.2      1.585      2.082
  Name = 
  11 active torsions:
  status: ('A' for Active; 'I' for Inactive)
    1  A    between atoms: N_1  and  C_24
    2  A    between atoms: C_3  and  O_5
    3  A    between atoms: O_5  and  N_13
    4  A    between atoms: C_6  and  S_7
    5  A    between atoms: C_6  and  C_12
    6  A    between atoms: S_7  and  C_22
    7  A    between atoms: C_16  and  C_17
    8  A    between atoms: C_16  and  C_28
    9  A    between atoms: C_20  and  C_25
   10  A    between atoms: C_22  and  C_23
   11  A    between atoms: C_23  and  C_26
                            x       y       z     vdW  Elec       q    Type
                         _______ _______ _______ _____ _____    ______ ____

>  <TORSDO>
F 11

$$$$
=
 OpenBabel11062416333D

 29 30  0  0  1  0  0  0  0  0999 V2000
  190.4830  176.8500  140.0620 C   0  0  0  0  0  2  0  0  0  0  0  0
  188.8940  178.9900  139.2800 O   0  0  0  0  0  1  0  0  0  0  0  0
  188.4980  175.8280  136.9590 S   0  0  0  0  0  0  0  0  0  0  0  0
  189.1370  178.0880  138.2390 C   0  0  1  0  0  3  0  0  0  0  0  0
  190.2950  177.1440  138.5680 C   0  0  2  0  0  3  0  0  0  0  0  0
  190.1300  175.8550  137.7710 C   0  0  2  0  0  3  0  0  0  0  0  0
  187.9130  177.2380  137.9520 C   0  0  1  0  0  3  0  0  0  0  0  0
  192.3050  176.3180  136.9250 O   0  0  0  0  0  1  0  0  0  0  0  0
  191.2110  175.7220  136.7530 C   0  0  0  0  0  0  0  0  0  0  0  0
  191.0260  174.9280  135.6250 O   0  0  0  0  0  0  0  0  0  0  0  0
  186.8280  178.0120  137.1960 C   0  0  2  0  0  3  0  0  0  0  0  0
  187.2920  179.2780  136.8290 O   0  0  0  0  0  1  0  0  0  0  0  0
  184.5980  177.2140  138.0070 O   0  0  0  0  0  0  0  0  0  0  0  0
  185.4950  179.1660  138.8000 O   0  0  0  0  0  1  0  0  0  0  0  0
  185.6040  178.1730  138.0380 C   0  0  0  0  0  0  0  0  0  0  0  0
  192.1410  177.3020  140.6840 S   0  0  0  0  0  0  0  0  0  0  0  0
  191.4950  177.8070  142.3100 C   0  0  0  0  0  2  0  0  0  0  0  0
  191.1450  176.5990  143.1710 C   0  0  0  0  0  2  0  0  0  0  0  0
  188.3710  176.6150  143.0050 S   0  0  0  0  0  0  0  0  0  0  0  0
  188.0570  177.6740  146.8930 N   0  0  0  0  0  0  0  0  0  0  0  0
  188.3320  177.3330  145.6730 C   0  0  0  0  0  0  0  0  0  0  0  0
  189.6580  177.1580  145.2190 C   0  0  0  0  0  0  0  0  0  0  0  0
  189.8300  176.7880  143.8570 C   0  0  0  0  0  0  0  0  0  0  0  0
  187.1370  177.0620  144.4930 S   0  0  0  0  0  0  0  0  0  0  0  0
  190.7520  177.3390  146.1290 N   0  0  0  0  0  2  0  0  0  0  0  0
  191.4330  176.3070  146.6780 O   0  0  0  0  0  1  0  0  0  0  0  0
  186.7570  177.8320  147.3210 O   0  0  0  0  0  0  0  0  0  0  0  0
  186.1880  179.1270  147.4110 C   0  0  0  0  0  2  0  0  0  0  0  0
  185.2380  179.2950  146.4010 O   0  0  0  0  0  1  0  0  0  0  0  0
  1 16  1  0  0  0  0
  3  6  1  0  0  0  0
  3  7  1  0  0  0  0
  4  5  1  0  0  0  0
  4  2  1  1  0  0  0
  5  1  1  1  0  0  0
  6  9  1  6  0  0  0
  6  5  1  0  0  0  0
  7 11  1  6  0  0  0
  7  4  1  0  0  0  0
  9  8  1  0  0  0  0
 10  9  2  0  0  0  0
 11 12  1  1  0  0  0
 11 15  1  0  0  0  0
 13 15  2  0  0  0  0
 15 14  1  0  0  0  0
 16 17  1  0  0  0  0
 17 18  1  0  0  0  0
 18 23  1  0  0  0  0
 19 23  1  0  0  0  0
 19 24  1  0  0  0  0
 20 27  1  0  0  0  0
 21 20  2  0  0  0  0
 22 21  1  0  0  0  0
 22 25  1  0  0  0  0
 23 22  2  0  0  0  0
 24 21  1  0  0  0  0
 25 26  1  0  0  0  0
 27 28  1  0  0  0  0
 29 28  1  0  0  0  0
M  END
>  <MODEL>
4

>  <REMARK>
 VINA RESULT:      -6.2      1.604      1.905
  Name = 
  11 active torsions:
  status: ('A' for Active; 'I' for Inactive)
    1  A    between atoms: N_1  and  C_24
    2  A    between atoms: C_3  and  O_5
    3  A    between atoms: O_5  and  N_13
    4  A    between atoms: C_6  and  S_7
    5  A    between atoms: C_6  and  C_12
    6  A    between atoms: S_7  and  C_22
    7  A    between atoms: C_16  and  C_17
    8  A    between atoms: C_16  and  C_28
    9  A    between atoms: C_20  and  C_25
   10  A    between atoms: C_22  and  C_23
   11  A    between atoms: C_23  and  C_26
                            x       y       z     vdW  Elec       q    Type
                         _______ _______ _______ _____ _____    ______ ____

>  <TORSDO>
F 11

$$$$
=
 OpenBabel11062416333D

 29 30  0  0  1  0  0  0  0  0999 V2000
  187.7780  177.3430  143.6020 C   0  0  0  0  0  2  0  0  0  0  0  0
  187.7250  178.4680  141.0630 O   0  0  0  0  0  1  0  0  0  0  0  0
  191.1660  176.7520  141.9320 S   0  0  0  0  0  0  0  0  0  0  0  0
  189.0240  178.3090  141.5570 C   0  0  1  0  0  3  0  0  0  0  0  0
  189.0270  178.0540  143.0650 C   0  0  2  0  0  3  0  0  0  0  0  0
  190.2960  177.2940  143.4400 C   0  0  2  0  0  3  0  0  0  0  0  0
  189.7270  177.1430  140.8870 C   0  0  1  0  0  3  0  0  0  0  0  0
  191.7830  177.6430  145.2630 O   0  0  0  0  0  1  0  0  0  0  0  0
  191.1930  178.1440  144.2720 C   0  0  0  0  0  0  0  0  0  0  0  0
  191.4000  179.4820  143.9490 O   0  0  0  0  0  0  0  0  0  0  0  0
  190.1760  177.4720  139.4590 C   0  0  2  0  0  3  0  0  0  0  0  0
  189.4380  178.5420  138.9460 O   0  0  0  0  0  1  0  0  0  0  0  0
  188.9310  176.2330  137.6750 O   0  0  0  0  0  0  0  0  0  0  0  0
  190.8420  175.3580  138.5840 O   0  0  0  0  0  1  0  0  0  0  0  0
  190.0010  176.2910  138.5600 C   0  0  0  0  0  0  0  0  0  0  0  0
  187.4050  177.7570  145.3430 S   0  0  0  0  0  0  0  0  0  0  0  0
  185.6490  178.0790  144.9860 C   0  0  0  0  0  2  0  0  0  0  0  0
  185.4310  178.4300  143.5190 C   0  0  0  0  0  2  0  0  0  0  0  0
  182.8550  178.8210  144.4820 S   0  0  0  0  0  0  0  0  0  0  0  0
  181.3710  178.9150  140.7230 N   0  0  0  0  0  0  0  0  0  0  0  0
  182.0050  178.8640  141.8530 C   0  0  0  0  0  0  0  0  0  0  0  0
  183.4050  178.6930  141.9260 C   0  0  0  0  0  0  0  0  0  0  0  0
  183.9820  178.6490  143.2240 C   0  0  0  0  0  0  0  0  0  0  0  0
  181.2280  178.9990  143.3600 S   0  0  0  0  0  0  0  0  0  0  0  0
  184.1720  178.5880  140.7190 N   0  0  0  0  0  2  0  0  0  0  0  0
  184.8620  179.6260  140.1920 O   0  0  0  0  0  1  0  0  0  0  0  0
  180.0050  179.0910  140.6710 O   0  0  0  0  0  0  0  0  0  0  0  0
  179.4600  180.2960  140.1630 C   0  0  0  0  0  2  0  0  0  0  0  0
  179.5840  181.3090  141.1170 O   0  0  0  0  0  1  0  0  0  0  0  0
  1 16  1  0  0  0  0
  3  6  1  0  0  0  0
  4  2  1  6  0  0  0
  4  5  1  0  0  0  0
  5  6  1  0  0  0  0
  5  1  1  6  0  0  0
  6  9  1  6  0  0  0
  7 11  1  6  0  0  0
  7  4  1  0  0  0  0
  7  3  1  0  0  0  0
  9  8  1  0  0  0  0
 10  9  2  0  0  0  0
 11 12  1  6  0  0  0
 13 15  2  0  0  0  0
 15 14  1  0  0  0  0
 15 11  1  0  0  0  0
 17 16  1  0  0  0  0
 18 17  1  0  0  0  0
 20 21  2  0  0  0  0
 21 22  1  0  0  0  0
 21 24  1  0  0  0  0
 22 23  2  0  0  0  0
 23 18  1  0  0  0  0
 23 19  1  0  0  0  0
 24 19  1  0  0  0  0
 25 22  1  0  0  0  0
 26 25  1  0  0  0  0
 27 20  1  0  0  0  0
 28 27  1  0  0  0  0
 28 29  1  0  0  0  0
M  END
>  <MODEL>
5

>  <REMARK>
 VINA RESULT:      -6.1      4.122      6.505
  Name = 
  11 active torsions:
  status: ('A' for Active; 'I' for Inactive)
    1  A    between atoms: N_1  and  C_24
    2  A    between atoms: C_3  and  O_5
    3  A    between atoms: O_5  and  N_13
    4  A    between atoms: C_6  and  S_7
    5  A    between atoms: C_6  and  C_12
    6  A    between atoms: S_7  and  C_22
    7  A    between atoms: C_16  and  C_17
    8  A    between atoms: C_16  and  C_28
    9  A    between atoms: C_20  and  C_25
   10  A    between atoms: C_22  and  C_23
   11  A    between atoms: C_23  and  C_26
                            x       y       z     vdW  Elec       q    Type
                         _______ _______ _______ _____ _____    ______ ____

>  <TORSDO>
F 11

$$$$
=
 OpenBabel11062416333D

 29 30  0  0  1  0  0  0  0  0999 V2000
  183.0190  178.7400  143.4010 C   0  0  0  0  0  2  0  0  0  0  0  0
  180.5600  179.3060  142.2390 O   0  0  0  0  0  1  0  0  0  0  0  0
  182.9540  177.2380  139.8860 S   0  0  0  0  0  0  0  0  0  0  0  0
  181.5540  179.0310  141.2940 C   0  0  1  0  0  3  0  0  0  0  0  0
  182.9530  179.0970  141.9100 C   0  0  2  0  0  3  0  0  0  0  0  0
  183.9000  178.2240  141.0930 C   0  0  2  0  0  3  0  0  0  0  0  0
  181.3750  177.6470  140.6960 C   0  0  1  0  0  3  0  0  0  0  0  0
  184.5520  179.8350  139.4690 O   0  0  0  0  0  0  0  0  0  0  0  0
  184.9140  179.0600  140.3910 C   0  0  0  0  0  0  0  0  0  0  0  0
  186.2540  179.0050  140.7600 O   0  0  0  0  0  1  0  0  0  0  0  0
  180.2240  177.5910  139.6870 C   0  0  2  0  0  3  0  0  0  0  0  0
  180.3720  176.4950  138.8320 O   0  0  0  0  0  1  0  0  0  0  0  0
  179.2010  179.8010  139.1060 O   0  0  0  0  0  1  0  0  0  0  0  0
  181.0360  179.0330  137.9720 O   0  0  0  0  0  0  0  0  0  0  0  0
  180.1750  178.8380  138.8660 C   0  0  0  0  0  0  0  0  0  0  0  0
  184.2370  179.7390  144.3280 S   0  0  0  0  0  0  0  0  0  0  0  0
  184.9910  178.2720  145.0990 C   0  0  0  0  0  2  0  0  0  0  0  0
  186.2390  177.8250  144.3480 C   0  0  0  0  0  2  0  0  0  0  0  0
  187.2080  177.8650  146.9510 S   0  0  0  0  0  0  0  0  0  0  0  0
  190.9380  176.9800  145.6700 N   0  0  0  0  0  0  0  0  0  0  0  0
  189.6940  177.2540  145.9110 C   0  0  0  0  0  0  0  0  0  0  0  0
  188.7260  177.3360  144.8860 C   0  0  0  0  0  0  0  0  0  0  0  0
  187.3960  177.6470  145.2780 C   0  0  0  0  0  0  0  0  0  0  0  0
  189.0940  177.5420  147.4760 S   0  0  0  0  0  0  0  0  0  0  0  0
  189.1090  177.0910  143.5250 N   0  0  0  0  0  2  0  0  0  0  0  0
  189.3230  178.0830  142.6300 O   0  0  0  0  0  1  0  0  0  0  0  0
  191.8670  176.8960  146.6840 O   0  0  0  0  0  0  0  0  0  0  0  0
  192.4030  175.6400  147.0590 C   0  0  0  0  0  2  0  0  0  0  0  0
  192.7610  175.6630  148.4090 O   0  0  0  0  0  1  0  0  0  0  0  0
  1 16  1  0  0  0  0
  3  7  1  0  0  0  0
  3  6  1  0  0  0  0
  4  5  1  0  0  0  0
  4  2  1  1  0  0  0
  5  1  1  1  0  0  0
  6  9  1  6  0  0  0
  6  5  1  0  0  0  0
  7 11  1  6  0  0  0
  7  4  1  0  0  0  0
  8  9  2  0  0  0  0
  9 10  1  0  0  0  0
 11 12  1  6  0  0  0
 14 15  2  0  0  0  0
 15 13  1  0  0  0  0
 15 11  1  0  0  0  0
 16 17  1  0  0  0  0
 18 17  1  0  0  0  0
 18 23  1  0  0  0  0
 19 24  1  0  0  0  0
 20 21  2  0  0  0  0
 20 27  1  0  0  0  0
 21 24  1  0  0  0  0
 22 23  2  0  0  0  0
 22 21  1  0  0  0  0
 23 19  1  0  0  0  0
 25 22  1  0  0  0  0
 26 25  1  0  0  0  0
 27 28  1  0  0  0  0
 28 29  1  0  0  0  0
M  END
>  <MODEL>
6

>  <REMARK>
 VINA RESULT:      -6.1      4.477      6.443
  Name = 
  11 active torsions:
  status: ('A' for Active; 'I' for Inactive)
    1  A    between atoms: N_1  and  C_24
    2  A    between atoms: C_3  and  O_5
    3  A    between atoms: O_5  and  N_13
    4  A    between atoms: C_6  and  S_7
    5  A    between atoms: C_6  and  C_12
    6  A    between atoms: S_7  and  C_22
    7  A    between atoms: C_16  and  C_17
    8  A    between atoms: C_16  and  C_28
    9  A    between atoms: C_20  and  C_25
   10  A    between atoms: C_22  and  C_23
   11  A    between atoms: C_23  and  C_26
                            x       y       z     vdW  Elec       q    Type
                         _______ _______ _______ _____ _____    ______ ____

>  <TORSDO>
F 11

$$$$
=
 OpenBabel11062416333D

 29 30  0  0  1  0  0  0  0  0999 V2000
  183.1290  179.2180  142.9870 C   0  0  0  0  0  2  0  0  0  0  0  0
  182.8680  177.9450  140.5310 O   0  0  0  0  0  1  0  0  0  0  0  0
  179.7290  180.1260  141.4940 S   0  0  0  0  0  0  0  0  0  0  0  0
  181.6360  178.2940  141.0930 C   0  0  1  0  0  3  0  0  0  0  0  0
  181.7690  178.6380  142.5780 C   0  0  2  0  0  3  0  0  0  0  0  0
  180.6310  179.5710  142.9780 C   0  0  2  0  0  3  0  0  0  0  0  0
  181.0330  179.4970  140.3900 C   0  0  1  0  0  3  0  0  0  0  0  0
  178.9340  179.5770  144.6450 O   0  0  0  0  0  1  0  0  0  0  0  0
  179.6980  178.8900  143.9200 C   0  0  0  0  0  0  0  0  0  0  0  0
  179.6510  177.5010  143.9890 O   0  0  0  0  0  0  0  0  0  0  0  0
  180.4490  179.1410  139.0190 C   0  0  2  0  0  3  0  0  0  0  0  0
  180.2620  177.7610  138.9070 O   0  0  0  0  0  1  0  0  0  0  0  0
  182.0370  178.6680  137.1410 O   0  0  0  0  0  0  0  0  0  0  0  0
  181.4810  180.8230  137.6810 O   0  0  0  0  0  1  0  0  0  0  0  0
  181.3560  179.5950  137.9210 C   0  0  0  0  0  0  0  0  0  0  0  0
  183.4830  179.0390  144.7710 S   0  0  0  0  0  0  0  0  0  0  0  0
  185.1650  178.4110  144.4680 C   0  0  0  0  0  2  0  0  0  0  0  0
  185.7840  177.8350  145.7360 C   0  0  0  0  0  2  0  0  0  0  0  0
  187.9430  177.4850  144.0230 S   0  0  0  0  0  0  0  0  0  0  0  0
  190.4640  177.0370  147.1500 N   0  0  0  0  0  0  0  0  0  0  0  0
  189.5290  177.2050  146.2680 C   0  0  0  0  0  0  0  0  0  0  0  0
  188.1860  177.4510  146.6290 C   0  0  0  0  0  0  0  0  0  0  0  0
  187.2530  177.6140  145.5690 C   0  0  0  0  0  0  0  0  0  0  0  0
  189.8140  177.1490  144.5920 S   0  0  0  0  0  0  0  0  0  0  0  0
  187.8260  177.5410  148.0150 N   0  0  0  0  0  2  0  0  0  0  0  0
  188.0160  178.6590  148.7540 O   0  0  0  0  0  1  0  0  0  0  0  0
  191.7710  176.8070  146.7800 O   0  0  0  0  0  0  0  0  0  0  0  0
  192.4190  175.6050  147.1590 C   0  0  0  0  0  2  0  0  0  0  0  0
  193.1480  175.8130  148.3320 O   0  0  0  0  0  1  0  0  0  0  0  0
  1 16  1  0  0  0  0
  3  6  1  0  0  0  0
  4  2  1  6  0  0  0
  4  5  1  0  0  0  0
  5  6  1  0  0  0  0
  5  1  1  6  0  0  0
  6  9  1  1  0  0  0
  7 11  1  6  0  0  0
  7  4  1  0  0  0  0
  7  3  1  0  0  0  0
  9 10  2  0  0  0  0
  9  8  1  0  0  0  0
 11 12  1  1  0  0  0
 13 15  2  0  0  0  0
 14 15  1  0  0  0  0
 15 11  1  0  0  0  0
 17 16  1  0  0  0  0
 17 18  1  0  0  0  0
 19 24  1  0  0  0  0
 19 23  1  0  0  0  0
 21 22  1  0  0  0  0
 21 20  2  0  0  0  0
 22 25  1  0  0  0  0
 23 18  1  0  0  0  0
 23 22  2  0  0  0  0
 24 21  1  0  0  0  0
 25 26  1  0  0  0  0
 27 20  1  0  0  0  0
 27 28  1  0  0  0  0
 28 29  1  0  0  0  0
M  END
>  <MODEL>
7

>  <REMARK>
 VINA RESULT:      -6.1      5.582      7.956
  Name = 
  11 active torsions:
  status: ('A' for Active; 'I' for Inactive)
    1  A    between atoms: N_1  and  C_24
    2  A    between atoms: C_3  and  O_5
    3  A    between atoms: O_5  and  N_13
    4  A    between atoms: C_6  and  S_7
    5  A    between atoms: C_6  and  C_12
    6  A    between atoms: S_7  and  C_22
    7  A    between atoms: C_16  and  C_17
    8  A    between atoms: C_16  and  C_28
    9  A    between atoms: C_20  and  C_25
   10  A    between atoms: C_22  and  C_23
   11  A    between atoms: C_23  and  C_26
                            x       y       z     vdW  Elec       q    Type
                         _______ _______ _______ _____ _____    ______ ____

>  <TORSDO>
F 11

$$$$
=
 OpenBabel11062416333D

 29 30  0  0  1  0  0  0  0  0999 V2000
  188.4520  178.4030  139.5300 C   0  0  0  0  0  2  0  0  0  0  0  0
  190.1840  176.2710  139.9480 O   0  0  0  0  0  1  0  0  0  0  0  0
  189.8190  177.2590  136.1490 S   0  0  0  0  0  0  0  0  0  0  0  0
  189.6760  176.3090  138.6450 C   0  0  1  0  0  3  0  0  0  0  0  0
  188.4610  177.2330  138.5380 C   0  0  2  0  0  3  0  0  0  0  0  0
  188.3380  177.7300  137.1010 C   0  0  2  0  0  3  0  0  0  0  0  0
  190.7220  176.8020  137.6620 C   0  0  1  0  0  3  0  0  0  0  0  0
  186.3280  176.4570  137.1250 O   0  0  0  0  0  1  0  0  0  0  0  0
  187.1140  177.1750  136.4560 C   0  0  0  0  0  0  0  0  0  0  0  0
  186.8250  177.4610  135.1250 O   0  0  0  0  0  0  0  0  0  0  0  0
  191.7810  175.7380  137.3530 C   0  0  2  0  0  3  0  0  0  0  0  0
  191.4840  174.5420  138.0120 O   0  0  0  0  0  1  0  0  0  0  0  0
  194.2780  175.5540  137.3140 O   0  0  0  0  0  0  0  0  0  0  0  0
  193.2500  177.1920  138.5400 O   0  0  0  0  0  1  0  0  0  0  0  0
  193.1380  176.1980  137.7790 C   0  0  0  0  0  0  0  0  0  0  0  0
  186.9680  178.4320  140.5970 S   0  0  0  0  0  0  0  0  0  0  0  0
  187.9550  178.4250  142.1270 C   0  0  0  0  0  2  0  0  0  0  0  0
  187.8940  177.0720  142.8260 C   0  0  0  0  0  2  0  0  0  0  0  0
  187.6530  177.4750  145.5650 S   0  0  0  0  0  0  0  0  0  0  0  0
  191.6250  176.9370  146.0830 N   0  0  0  0  0  0  0  0  0  0  0  0
  190.3810  177.0780  145.7450 C   0  0  0  0  0  0  0  0  0  0  0  0
  189.9410  176.9440  144.4100 C   0  0  0  0  0  0  0  0  0  0  0  0
  188.5520  177.1260  144.1680 C   0  0  0  0  0  0  0  0  0  0  0  0
  189.1510  177.4370  146.8640 S   0  0  0  0  0  0  0  0  0  0  0  0
  190.8840  176.6210  143.3790 N   0  0  0  0  0  2  0  0  0  0  0  0
  191.4120  177.5480  142.5460 O   0  0  0  0  0  1  0  0  0  0  0  0
  192.0350  177.0640  147.3920 O   0  0  0  0  0  0  0  0  0  0  0  0
  192.5410  175.9410  148.0930 C   0  0  0  0  0  2  0  0  0  0  0  0
  193.2830  176.3700  149.1960 O   0  0  0  0  0  1  0  0  0  0  0  0
  1 16  1  0  0  0  0
  3  6  1  0  0  0  0
  3  7  1  0  0  0  0
  4  2  1  1  0  0  0
  5  4  1  0  0  0  0
  5  1  1  1  0  0  0
  6  9  1  6  0  0  0
  6  5  1  0  0  0  0
  7 11  1  6  0  0  0
  7  4  1  0  0  0  0
  9  8  1  0  0  0  0
 10  9  2  0  0  0  0
 11 15  1  0  0  0  0
 11 12  1  1  0  0  0
 13 15  2  0  0  0  0
 15 14  1  0  0  0  0
 16 17  1  0  0  0  0
 17 18  1  0  0  0  0
 18 23  1  0  0  0  0
 19 24  1  0  0  0  0
 20 27  1  0  0  0  0
 21 20  2  0  0  0  0
 21 24  1  0  0  0  0
 22 21  1  0  0  0  0
 23 22  2  0  0  0  0
 23 19  1  0  0  0  0
 25 22  1  0  0  0  0
 26 25  1  0  0  0  0
 27 28  1  0  0  0  0
 28 29  1  0  0  0  0
M  END
>  <MODEL>
8

>  <REMARK>
 VINA RESULT:      -6.1      3.019      4.990
  Name = 
  11 active torsions:
  status: ('A' for Active; 'I' for Inactive)
    1  A    between atoms: N_1  and  C_24
    2  A    between atoms: C_3  and  O_5
    3  A    between atoms: O_5  and  N_13
    4  A    between atoms: C_6  and  S_7
    5  A    between atoms: C_6  and  C_12
    6  A    between atoms: S_7  and  C_22
    7  A    between atoms: C_16  and  C_17
    8  A    between atoms: C_16  and  C_28
    9  A    between atoms: C_20  and  C_25
   10  A    between atoms: C_22  and  C_23
   11  A    between atoms: C_23  and  C_26
                            x       y       z     vdW  Elec       q    Type
                         _______ _______ _______ _____ _____    ______ ____

>  <TORSDO>
F 11

$$$$
=
 OpenBabel11062416333D

 29 30  0  0  1  0  0  0  0  0999 V2000
  186.9400  177.2070  145.4000 C   0  0  0  0  0  2  0  0  0  0  0  0
  188.6280  178.3330  143.5030 O   0  0  0  0  0  1  0  0  0  0  0  0
  190.5580  176.4940  146.4070 S   0  0  0  0  0  0  0  0  0  0  0  0
  189.2590  178.1270  144.7340 C   0  0  1  0  0  3  0  0  0  0  0  0
  188.2460  177.8720  145.8520 C   0  0  2  0  0  3  0  0  0  0  0  0
  188.9180  177.0670  146.9600 C   0  0  2  0  0  3  0  0  0  0  0  0
  190.1980  176.9360  144.6780 C   0  0  1  0  0  3  0  0  0  0  0  0
  190.1900  178.2690  148.5720 O   0  0  0  0  0  0  0  0  0  0  0  0
  189.0520  177.8850  148.1990 C   0  0  0  0  0  0  0  0  0  0  0  0
  187.9270  178.2450  148.9340 O   0  0  0  0  0  1  0  0  0  0  0  0
  191.4940  177.2480  143.9230 C   0  0  2  0  0  3  0  0  0  0  0  0
  191.8140  178.6040  144.0350 O   0  0  0  0  0  1  0  0  0  0  0  0
  190.4310  175.9600  142.0570 O   0  0  0  0  0  1  0  0  0  0  0  0
  192.0830  177.4860  141.6260 O   0  0  0  0  0  0  0  0  0  0  0  0
  191.3640  176.9020  142.4750 C   0  0  0  0  0  0  0  0  0  0  0  0
  185.4620  177.8700  146.2480 S   0  0  0  0  0  0  0  0  0  0  0  0
  185.2340  179.1900  145.0150 C   0  0  0  0  0  2  0  0  0  0  0  0
  185.1560  178.6280  143.6010 C   0  0  0  0  0  2  0  0  0  0  0  0
  182.4420  178.9920  144.0740 S   0  0  0  0  0  0  0  0  0  0  0  0
  181.6190  178.6310  140.1330 N   0  0  0  0  0  0  0  0  0  0  0  0
  182.0520  178.7270  141.3520 C   0  0  0  0  0  0  0  0  0  0  0  0
  183.4240  178.6300  141.6740 C   0  0  0  0  0  0  0  0  0  0  0  0
  183.7730  178.7470  143.0470 C   0  0  0  0  0  0  0  0  0  0  0  0
  181.0260  178.9770  142.6850 S   0  0  0  0  0  0  0  0  0  0  0  0
  184.3890  178.4400  140.6300 N   0  0  0  0  0  2  0  0  0  0  0  0
  185.2910  179.3860  140.2790 O   0  0  0  0  0  1  0  0  0  0  0  0
  180.2770  178.7360  139.8360 O   0  0  0  0  0  0  0  0  0  0  0  0
  179.7130  177.9540  138.7990 C   0  0  0  0  0  2  0  0  0  0  0  0
  180.5070  178.0470  137.6530 O   0  0  0  0  0  1  0  0  0  0  0  0
  1 16  1  0  0  0  0
  3  6  1  0  0  0  0
  4  2  1  6  0  0  0
  4  5  1  0  0  0  0
  5  1  1  6  0  0  0
  5  6  1  0  0  0  0
  6  9  1  1  0  0  0
  7 11  1  6  0  0  0
  7  4  1  0  0  0  0
  7  3  1  0  0  0  0
  9  8  2  0  0  0  0
  9 10  1  0  0  0  0
 11 12  1  6  0  0  0
 13 15  1  0  0  0  0
 14 15  2  0  0  0  0
 15 11  1  0  0  0  0
 17 16  1  0  0  0  0
 18 17  1  0  0  0  0
 20 21  2  0  0  0  0
 21 22  1  0  0  0  0
 21 24  1  0  0  0  0
 22 23  2  0  0  0  0
 23 18  1  0  0  0  0
 23 19  1  0  0  0  0
 24 19  1  0  0  0  0
 25 22  1  0  0  0  0
 26 25  1  0  0  0  0
 27 20  1  0  0  0  0
 28 27  1  0  0  0  0
 29 28  1  0  0  0  0
M  END
>  <MODEL>
9

>  <REMARK>
 VINA RESULT:      -6.0      4.246      8.401
  Name = 
  11 active torsions:
  status: ('A' for Active; 'I' for Inactive)
    1  A    between atoms: N_1  and  C_24
    2  A    between atoms: C_3  and  O_5
    3  A    between atoms: O_5  and  N_13
    4  A    between atoms: C_6  and  S_7
    5  A    between atoms: C_6  and  C_12
    6  A    between atoms: S_7  and  C_22
    7  A    between atoms: C_16  and  C_17
    8  A    between atoms: C_16  and  C_28
    9  A    between atoms: C_20  and  C_25
   10  A    between atoms: C_22  and  C_23
   11  A    between atoms: C_23  and  C_26
                            x       y       z     vdW  Elec       q    Type
                         _______ _______ _______ _____ _____    ______ ____

>  <TORSDO>
F 11

$$$$
