=
 OpenBabel11062412203D

 43 45  0  0  1  0  0  0  0  0999 V2000
  181.2200  178.5800  142.9690 C   0  0  0  0  0  2  0  0  0  0  0  0
  182.4700  179.1840  143.5140 C   0  0  0  0  0  3  0  0  0  0  0  0
  183.6680  178.6810  143.2190 C   0  0  0  0  0  3  0  0  0  0  0  0
  184.9160  179.3010  143.7620 C   0  0  0  0  0  2  0  0  0  0  0  0
  184.8030  179.3000  146.1100 O   0  0  0  0  0  0  0  0  0  0  0  0
  185.2520  178.7480  145.1180 C   0  0  0  0  0  0  0  0  0  0  0  0
  186.1250  177.5350  145.3020 C   0  0  0  0  0  2  0  0  0  0  0  0
  187.3780  177.7860  146.1350 C   0  0  0  0  0  2  0  0  0  0  0  0
  188.6350  177.8070  145.2570 C   0  0  2  0  0  3  0  0  0  0  0  0
  188.6150  176.9270  144.1490 O   0  0  0  0  0  0  0  0  0  0  0  0
  187.8170  177.7910  142.0510 C   0  0  0  0  0  2  0  0  0  0  0  0
  188.2840  178.2890  140.7190 C   0  0  0  0  0  3  0  0  0  0  0  0
  190.2110  176.8900  142.3400 C   0  0  0  0  0  2  0  0  0  0  0  0
  189.0160  177.6170  142.9930 C   0  0  2  0  0  3  0  0  0  0  0  0
  190.0300  176.5830  140.8450 C   0  0  0  0  0  2  0  0  0  0  0  0
  189.3400  177.7110  140.1370 C   0  0  0  0  0  0  0  0  0  0  0  0
  189.8130  178.1200  138.8870 O   0  0  0  0  0  0  0  0  0  0  0  0
  189.0180  178.8460  137.9580 C   0  0  0  0  0  1  0  0  0  0  0  0
  189.9570  177.8150  146.0310 C   0  0  0  0  0  2  0  0  0  0  0  0
  189.8850  177.0230  147.3270 C   0  0  0  0  0  2  0  0  0  0  0  0
  191.9580  176.2440  146.2320 C   0  0  0  0  0  1  0  0  0  0  0  0
  190.9510  175.9490  147.3230 C   0  0  0  0  0  2  0  0  0  0  0  0
  180.6220  179.4760  141.8950 C   0  0  0  0  0  2  0  0  0  0  0  0
  180.9040  177.8580  137.5590 C   0  0  1  0  0  3  0  0  0  0  0  0
  178.9310  177.6680  140.5250 O   0  0  0  0  0  0  0  0  0  0  0  0
  181.7540  180.4720  137.9280 O   0  0  0  0  0  0  0  0  0  0  0  0
  182.0210  179.5050  139.8430 C   0  0  0  0  0  2  0  0  0  0  0  0
  180.4480  180.3270  137.4230 C   0  0  2  0  0  0  0  0  0  0  0  0
  180.0450  177.9220  139.9940 C   0  0  0  0  0  0  0  0  0  0  0  0
  181.6170  180.6910  139.2220 O   0  0  0  0  0  0  0  0  0  0  0  0
  179.9170  178.9630  137.1660 C   0  0  1  0  0  3  0  0  0  0  0  0
  180.4590  177.0780  138.8090 C   0  0  2  0  0  3  0  0  0  0  0  0
  180.8950  178.9360  140.5680 N   0  0  0  0  0  0  0  0  0  0  0  0
  180.4740  179.7590  136.1410 O   0  0  0  0  0  0  0  0  0  0  0  0
  179.5050  181.5170  137.4690 C   0  0  0  0  0  1  0  0  0  0  0  0
  181.4080  175.9320  139.1930 C   0  0  1  0  0  3  0  0  0  0  0  0
  182.4440  176.3380  140.2280 C   0  0  0  0  0  1  0  0  0  0  0  0
  180.6860  174.8310  139.6520 O   0  0  0  0  0  1  0  0  0  0  0  0
  181.2320  176.9370  136.3730 C   0  0  0  0  0  2  0  0  0  0  0  0
  183.5030  175.2010  135.6500 N   0  0  0  0  0  1  0  0  0  0  0  0
  183.9000  177.4550  137.2650 O   0  0  0  0  0  1  0  0  0  0  0  0
  183.0130  176.8530  135.9570 P   0  0  2  0  0  0  0  0  0  0  0  0
  183.3000  177.6990  134.7380 O   0  0  0  0  0  0  0  0  0  0  0  0
  1  2  1  0  0  0  0
  3  2  2  0  0  0  0
  3  4  1  0  0  0  0
  4  6  1  0  0  0  0
  6  7  1  0  0  0  0
  6  5  2  0  0  0  0
  7  8  1  0  0  0  0
  9 19  1  1  0  0  0
  9  8  1  0  0  0  0
 10  9  1  0  0  0  0
 11 14  1  0  0  0  0
 12 11  1  0  0  0  0
 13 14  1  0  0  0  0
 14 10  1  1  0  0  0
 15 13  1  0  0  0  0
 16 12  2  0  0  0  0
 16 15  1  0  0  0  0
 17 16  1  0  0  0  0
 18 17  1  0  0  0  0
 19 20  1  0  0  0  0
 21 22  1  0  0  0  0
 22 20  1  0  0  0  0
 23  1  1  0  0  0  0
 24 39  1  6  0  0  0
 24 32  1  0  0  0  0
 26 30  1  0  0  0  0
 27 33  1  0  0  0  0
 28 35  1  1  0  0  0
 28 26  1  0  0  0  0
 29 25  2  0  0  0  0
 29 33  1  0  0  0  0
 30 27  1  0  0  0  0
 31 34  1  6  0  0  0
 31 28  1  0  0  0  0
 31 24  1  0  0  0  0
 32 36  1  1  0  0  0
 32 29  1  0  0  0  0
 33 23  1  0  0  0  0
 34 28  1  0  0  0  0
 36 38  1  0  0  0  0
 36 37  1  1  0  0  0
 40 42  1  0  0  0  0
 42 43  2  6  0  0  0
 42 39  1  0  0  0  0
 42 41  1  0  0  0  0
M  END
>  <MODEL>
1

>  <REMARK>
 VINA RESULT:      -6.6      0.000      0.000
  Name = 
  17 active torsions:
  status: ('A' for Active; 'I' for Inactive)
    1  A    between atoms: C_1  and  C_35
    2  A    between atoms: O_4  and  C_27
    3  A    between atoms: P_5  and  C_30
    4  A    between atoms: C_8  and  C_13
    5  A    between atoms: C_8  and  C_43
    6  A    between atoms: C_9  and  O_29
    7  A    between atoms: C_9  and  C_34
    8  A    between atoms: C_9  and  C_43
    9  A    between atoms: C_10  and  C_21
   10  A    between atoms: C_11  and  C_30
   11  A    between atoms: C_13  and  C_36
   12  A    between atoms: C_14  and  C_34
   13  A    between atoms: C_14  and  C_40
   14  A    between atoms: C_16  and  C_36
   15  A    between atoms: C_21  and  C_31
   16  A    between atoms: C_22  and  O_29
   17  A    between atoms: C_31  and  N_37
                            x       y       z     vdW  Elec       q    Type
                         _______ _______ _______ _____ _____    ______ ____

>  <TORSDO>
F 17

$$$$
=
 OpenBabel11062412203D

 43 45  0  0  1  0  0  0  0  0999 V2000
  181.4060  178.5300  143.7280 C   0  0  0  0  0  2  0  0  0  0  0  0
  182.7060  178.4990  144.4590 C   0  0  0  0  0  3  0  0  0  0  0  0
  183.7050  179.3160  144.1300 C   0  0  0  0  0  3  0  0  0  0  0  0
  185.0010  179.2840  144.8770 C   0  0  0  0  0  2  0  0  0  0  0  0
  186.3740  177.4320  145.3390 O   0  0  0  0  0  0  0  0  0  0  0  0
  185.8330  178.0990  144.4720 C   0  0  0  0  0  0  0  0  0  0  0  0
  186.0260  177.7030  143.0320 C   0  0  0  0  0  2  0  0  0  0  0  0
  186.7560  178.7440  142.1890 C   0  0  0  0  0  2  0  0  0  0  0  0
  188.0710  178.1850  141.6310 C   0  0  2  0  0  3  0  0  0  0  0  0
  189.2380  178.5660  142.3340 O   0  0  0  0  0  0  0  0  0  0  0  0
  189.8280  178.3220  144.6530 C   0  0  0  0  0  2  0  0  0  0  0  0
  190.3790  177.3400  145.6400 C   0  0  0  0  0  3  0  0  0  0  0  0
  190.6580  176.6840  142.8490 C   0  0  0  0  0  2  0  0  0  0  0  0
  189.5210  177.6130  143.3270 C   0  0  2  0  0  3  0  0  0  0  0  0
  191.8270  176.5470  143.8370 C   0  0  0  0  0  2  0  0  0  0  0  0
  191.3370  176.4920  145.2540 C   0  0  0  0  0  0  0  0  0  0  0  0
  191.9040  175.5650  146.1340 O   0  0  0  0  0  0  0  0  0  0  0  0
  192.2910  175.8930  147.4620 C   0  0  0  0  0  1  0  0  0  0  0  0
  188.2010  178.2570  140.1060 C   0  0  0  0  0  2  0  0  0  0  0  0
  189.0500  177.1320  139.5340 C   0  0  0  0  0  2  0  0  0  0  0  0
  187.8890  178.1410  137.6010 C   0  0  0  0  0  1  0  0  0  0  0  0
  188.7980  177.0150  138.0470 C   0  0  0  0  0  2  0  0  0  0  0  0
  181.4590  179.5460  142.5970 C   0  0  0  0  0  2  0  0  0  0  0  0
  180.4310  177.9050  138.3840 C   0  0  1  0  0  3  0  0  0  0  0  0
  178.9390  179.1680  141.3680 O   0  0  0  0  0  0  0  0  0  0  0  0
  182.7680  179.3880  138.5630 O   0  0  0  0  0  0  0  0  0  0  0  0
  182.4530  178.5710  140.5390 C   0  0  0  0  0  2  0  0  0  0  0  0
  181.6460  180.0850  138.0770 C   0  0  2  0  0  0  0  0  0  0  0  0
  179.9320  178.6250  140.8130 C   0  0  0  0  0  0  0  0  0  0  0  0
  182.8660  179.7080  139.8390 O   0  0  0  0  0  0  0  0  0  0  0  0
  180.3560  179.3630  137.9200 C   0  0  1  0  0  3  0  0  0  0  0  0
  179.6540  177.6530  139.6880 C   0  0  2  0  0  3  0  0  0  0  0  0
  181.2600  178.8910  141.3100 N   0  0  0  0  0  0  0  0  0  0  0  0
  181.2400  179.5670  136.8380 O   0  0  0  0  0  0  0  0  0  0  0  0
  181.6810  181.6030  138.0440 C   0  0  0  0  0  1  0  0  0  0  0  0
  179.6740  176.1870  140.1470 C   0  0  1  0  0  3  0  0  0  0  0  0
  181.0580  175.5620  140.0870 C   0  0  0  0  0  1  0  0  0  0  0  0
  179.1560  176.0690  141.4370 O   0  0  0  0  0  1  0  0  0  0  0  0
  180.0380  176.9280  137.2640 C   0  0  0  0  0  2  0  0  0  0  0  0
  181.5260  176.5060  134.7540 N   0  0  0  0  0  1  0  0  0  0  0  0
  181.2690  174.4290  136.6140 O   0  0  0  0  0  0  0  0  0  0  0  0
  181.4580  176.1010  136.4550 P   0  0  2  0  0  0  0  0  0  0  0  0
  182.7480  176.5160  137.1240 O   0  0  0  0  0  1  0  0  0  0  0  0
  1  2  1  0  0  0  0
  3  2  2  0  0  0  0
  3  4  1  0  0  0  0
  6  4  1  0  0  0  0
  6  5  2  0  0  0  0
  7  6  1  0  0  0  0
  8  7  1  0  0  0  0
  9 19  1  6  0  0  0
  9  8  1  0  0  0  0
  9 10  1  0  0  0  0
 11 12  1  0  0  0  0
 13 14  1  0  0  0  0
 13 15  1  0  0  0  0
 14 10  1  6  0  0  0
 14 11  1  0  0  0  0
 15 16  1  0  0  0  0
 16 12  2  0  0  0  0
 16 17  1  0  0  0  0
 17 18  1  0  0  0  0
 20 19  1  0  0  0  0
 21 22  1  0  0  0  0
 22 20  1  0  0  0  0
 23  1  1  0  0  0  0
 24 39  1  6  0  0  0
 24 32  1  0  0  0  0
 26 30  1  0  0  0  0
 27 33  1  0  0  0  0
 28 35  1  1  0  0  0
 28 26  1  0  0  0  0
 29 33  1  0  0  0  0
 29 25  2  0  0  0  0
 30 27  1  0  0  0  0
 31 34  1  6  0  0  0
 31 28  1  0  0  0  0
 31 24  1  0  0  0  0
 32 36  1  1  0  0  0
 32 29  1  0  0  0  0
 33 23  1  0  0  0  0
 34 28  1  0  0  0  0
 36 37  1  1  0  0  0
 36 38  1  0  0  0  0
 42 40  1  6  0  0  0
 42 41  2  0  0  0  0
 42 43  1  0  0  0  0
 42 39  1  0  0  0  0
M  END
>  <MODEL>
2

>  <REMARK>
 VINA RESULT:      -6.3      1.611      3.957
  Name = 
  17 active torsions:
  status: ('A' for Active; 'I' for Inactive)
    1  A    between atoms: C_1  and  C_35
    2  A    between atoms: O_4  and  C_27
    3  A    between atoms: P_5  and  C_30
    4  A    between atoms: C_8  and  C_13
    5  A    between atoms: C_8  and  C_43
    6  A    between atoms: C_9  and  O_29
    7  A    between atoms: C_9  and  C_34
    8  A    between atoms: C_9  and  C_43
    9  A    between atoms: C_10  and  C_21
   10  A    between atoms: C_11  and  C_30
   11  A    between atoms: C_13  and  C_36
   12  A    between atoms: C_14  and  C_34
   13  A    between atoms: C_14  and  C_40
   14  A    between atoms: C_16  and  C_36
   15  A    between atoms: C_21  and  C_31
   16  A    between atoms: C_22  and  O_29
   17  A    between atoms: C_31  and  N_37
                            x       y       z     vdW  Elec       q    Type
                         _______ _______ _______ _____ _____    ______ ____

>  <TORSDO>
F 17

$$$$
=
 OpenBabel11062412203D

 43 45  0  0  1  0  0  0  0  0999 V2000
  182.5000  178.4290  143.6640 C   0  0  0  0  0  2  0  0  0  0  0  0
  183.4270  178.7680  144.7820 C   0  0  0  0  0  3  0  0  0  0  0  0
  184.7470  178.8080  144.5990 C   0  0  0  0  0  3  0  0  0  0  0  0
  185.6680  179.1600  145.7250 C   0  0  0  0  0  2  0  0  0  0  0  0
  186.6490  177.4930  147.0610 O   0  0  0  0  0  0  0  0  0  0  0  0
  186.6590  178.0590  145.9800 C   0  0  0  0  0  0  0  0  0  0  0  0
  187.6680  177.6270  144.9490 C   0  0  0  0  0  2  0  0  0  0  0  0
  189.0590  178.2240  145.1460 C   0  0  0  0  0  2  0  0  0  0  0  0
  190.0520  177.6700  144.1180 C   0  0  2  0  0  3  0  0  0  0  0  0
  189.4780  176.9220  143.0630 O   0  0  0  0  0  0  0  0  0  0  0  0
  188.2770  177.8570  141.2010 C   0  0  0  0  0  2  0  0  0  0  0  0
  188.4590  178.3560  139.8020 C   0  0  0  0  0  3  0  0  0  0  0  0
  190.6290  176.8430  140.9430 C   0  0  0  0  0  2  0  0  0  0  0  0
  189.6450  177.6130  141.8510 C   0  0  2  0  0  3  0  0  0  0  0  0
  190.1050  176.5700  139.5240 C   0  0  0  0  0  2  0  0  0  0  0  0
  189.3310  177.7410  138.9960 C   0  0  0  0  0  0  0  0  0  0  0  0
  189.5320  178.1490  137.6740 O   0  0  0  0  0  0  0  0  0  0  0  0
  188.8680  179.2670  137.0980 C   0  0  0  0  0  1  0  0  0  0  0  0
  191.3150  177.0450  144.7200 C   0  0  0  0  0  2  0  0  0  0  0  0
  191.1220  176.6000  146.1610 C   0  0  0  0  0  2  0  0  0  0  0  0
  192.2800  175.5890  148.0950 C   0  0  0  0  0  1  0  0  0  0  0  0
  192.2980  175.7510  146.5900 C   0  0  0  0  0  2  0  0  0  0  0  0
  182.7340  179.3570  142.4820 C   0  0  0  0  0  2  0  0  0  0  0  0
  179.9530  178.4900  138.8740 C   0  0  1  0  0  3  0  0  0  0  0  0
  179.9220  179.5790  142.2720 O   0  0  0  0  0  0  0  0  0  0  0  0
  182.4510  179.5180  138.2500 O   0  0  0  0  0  0  0  0  0  0  0  0
  182.7020  178.5110  140.1460 C   0  0  0  0  0  2  0  0  0  0  0  0
  181.4010  180.4540  138.2660 C   0  0  2  0  0  0  0  0  0  0  0  0
  180.5150  178.9540  141.3520 C   0  0  0  0  0  0  0  0  0  0  0  0
  183.0640  179.6450  139.4130 O   0  0  0  0  0  0  0  0  0  0  0  0
  180.0200  179.9880  138.5630 C   0  0  1  0  0  3  0  0  0  0  0  0
  179.6600  178.2010  140.3580 C   0  0  2  0  0  3  0  0  0  0  0  0
  181.9570  178.9230  141.3270 N   0  0  0  0  0  0  0  0  0  0  0  0
  180.4810  180.1820  137.2420 O   0  0  0  0  0  0  0  0  0  0  0  0
  181.7340  181.9350  138.3150 C   0  0  0  0  0  1  0  0  0  0  0  0
  179.5390  176.7050  140.6850 C   0  0  1  0  0  3  0  0  0  0  0  0
  180.7490  175.8990  140.2470 C   0  0  0  0  0  1  0  0  0  0  0  0
  179.3130  176.5180  142.0490 O   0  0  0  0  0  1  0  0  0  0  0  0
  178.9930  177.7510  137.9280 C   0  0  0  0  0  2  0  0  0  0  0  0
  178.9880  175.3850  136.1690 N   0  0  0  0  0  1  0  0  0  0  0  0
  181.4060  176.5160  137.0170 O   0  0  0  0  0  1  0  0  0  0  0  0
  179.8220  176.8770  136.5490 P   0  0  2  0  0  0  0  0  0  0  0  0
  179.8600  177.7600  135.3240 O   0  0  0  0  0  0  0  0  0  0  0  0
  1  2  1  0  0  0  0
  3  2  2  0  0  0  0
  3  4  1  0  0  0  0
  4  6  1  0  0  0  0
  6  5  2  0  0  0  0
  7  8  1  0  0  0  0
  7  6  1  0  0  0  0
  9 19  1  1  0  0  0
  9  8  1  0  0  0  0
 10  9  1  0  0  0  0
 11 14  1  0  0  0  0
 12 11  1  0  0  0  0
 13 14  1  0  0  0  0
 14 10  1  1  0  0  0
 15 13  1  0  0  0  0
 16 15  1  0  0  0  0
 16 12  2  0  0  0  0
 17 16  1  0  0  0  0
 18 17  1  0  0  0  0
 19 20  1  0  0  0  0
 20 22  1  0  0  0  0
 22 21  1  0  0  0  0
 23  1  1  0  0  0  0
 24 39  1  6  0  0  0
 24 32  1  0  0  0  0
 26 28  1  0  0  0  0
 26 30  1  0  0  0  0
 27 33  1  0  0  0  0
 28 35  1  1  0  0  0
 28 31  1  0  0  0  0
 29 25  2  0  0  0  0
 30 27  1  0  0  0  0
 31 34  1  6  0  0  0
 31 24  1  0  0  0  0
 32 36  1  6  0  0  0
 32 29  1  0  0  0  0
 33 29  1  0  0  0  0
 33 23  1  0  0  0  0
 34 28  1  0  0  0  0
 36 37  1  1  0  0  0
 36 38  1  0  0  0  0
 40 42  1  0  0  0  0
 42 43  2  6  0  0  0
 42 41  1  0  0  0  0
 42 39  1  0  0  0  0
M  END
>  <MODEL>
3

>  <REMARK>
 VINA RESULT:      -6.2      1.751      2.052
  Name = 
  17 active torsions:
  status: ('A' for Active; 'I' for Inactive)
    1  A    between atoms: C_1  and  C_35
    2  A    between atoms: O_4  and  C_27
    3  A    between atoms: P_5  and  C_30
    4  A    between atoms: C_8  and  C_13
    5  A    between atoms: C_8  and  C_43
    6  A    between atoms: C_9  and  O_29
    7  A    between atoms: C_9  and  C_34
    8  A    between atoms: C_9  and  C_43
    9  A    between atoms: C_10  and  C_21
   10  A    between atoms: C_11  and  C_30
   11  A    between atoms: C_13  and  C_36
   12  A    between atoms: C_14  and  C_34
   13  A    between atoms: C_14  and  C_40
   14  A    between atoms: C_16  and  C_36
   15  A    between atoms: C_21  and  C_31
   16  A    between atoms: C_22  and  O_29
   17  A    between atoms: C_31  and  N_37
                            x       y       z     vdW  Elec       q    Type
                         _______ _______ _______ _____ _____    ______ ____

>  <TORSDO>
F 17

$$$$
=
 OpenBabel11062412203D

 43 45  0  0  1  0  0  0  0  0999 V2000
  187.5900  174.9730  135.6160 C   0  0  0  0  0  2  0  0  0  0  0  0
  188.3640  176.1960  135.9760 C   0  0  0  0  0  3  0  0  0  0  0  0
  189.1330  176.2340  137.0630 C   0  0  0  0  0  3  0  0  0  0  0  0
  189.9140  177.4620  137.4090 C   0  0  0  0  0  2  0  0  0  0  0  0
  189.0560  179.4490  138.3290 O   0  0  0  0  0  0  0  0  0  0  0  0
  189.2330  178.2520  138.4910 C   0  0  0  0  0  0  0  0  0  0  0  0
  188.7590  177.6210  139.7740 C   0  0  0  0  0  2  0  0  0  0  0  0
  188.3470  178.6220  140.8490 C   0  0  0  0  0  2  0  0  0  0  0  0
  187.8430  177.9090  142.1100 C   0  0  2  0  0  3  0  0  0  0  0  0
  188.2430  176.5580  142.2420 O   0  0  0  0  0  0  0  0  0  0  0  0
  189.0610  177.7370  144.1720 C   0  0  0  0  0  2  0  0  0  0  0  0
  189.9870  177.6010  145.3410 C   0  0  0  0  0  3  0  0  0  0  0  0
  190.2510  175.6570  143.2310 C   0  0  0  0  0  2  0  0  0  0  0  0
  188.9090  176.3830  143.4670 C   0  0  2  0  0  3  0  0  0  0  0  0
  191.4710  176.3600  143.8470 C   0  0  0  0  0  2  0  0  0  0  0  0
  191.1420  176.9460  145.1880 C   0  0  0  0  0  0  0  0  0  0  0  0
  192.0560  176.8020  146.2360 O   0  0  0  0  0  0  0  0  0  0  0  0
  191.7150  176.2170  147.4870 C   0  0  0  0  0  1  0  0  0  0  0  0
  186.3700  178.1660  142.4450 C   0  0  0  0  0  2  0  0  0  0  0  0
  185.8050  179.3790  141.7230 C   0  0  0  0  0  2  0  0  0  0  0  0
  183.5710  178.3430  141.9210 C   0  0  0  0  0  1  0  0  0  0  0  0
  184.5580  178.9820  140.9660 C   0  0  0  0  0  2  0  0  0  0  0  0
  186.8210  174.4590  136.8240 C   0  0  0  0  0  2  0  0  0  0  0  0
  182.2880  173.6360  136.3010 C   0  0  1  0  0  3  0  0  0  0  0  0
  185.1460  172.6270  138.1820 O   0  0  0  0  0  0  0  0  0  0  0  0
  183.0880  176.2640  135.9220 O   0  0  0  0  0  0  0  0  0  0  0  0
  184.8280  175.0630  135.4710 C   0  0  0  0  0  2  0  0  0  0  0  0
  182.5410  175.9760  137.1860 C   0  0  2  0  0  0  0  0  0  0  0  0
  184.6840  173.1550  137.1360 C   0  0  0  0  0  0  0  0  0  0  0  0
  184.3970  176.2440  136.0830 O   0  0  0  0  0  0  0  0  0  0  0  0
  182.0580  174.5990  137.4710 C   0  0  1  0  0  3  0  0  0  0  0  0
  183.3880  172.5990  136.5900 C   0  0  2  0  0  3  0  0  0  0  0  0
  185.4300  174.1970  136.4730 N   0  0  0  0  0  0  0  0  0  0  0  0
  181.1840  175.6350  137.0720 O   0  0  0  0  0  0  0  0  0  0  0  0
  182.7580  176.9590  138.3240 C   0  0  0  0  0  1  0  0  0  0  0  0
  183.6020  171.5910  135.4500 C   0  0  1  0  0  3  0  0  0  0  0  0
  185.0680  171.3670  135.1200 C   0  0  0  0  0  1  0  0  0  0  0  0
  182.9930  170.3730  135.7530 O   0  0  0  0  0  1  0  0  0  0  0  0
  180.9760  172.9900  135.8270 C   0  0  0  0  0  2  0  0  0  0  0  0
  179.0900  170.8180  136.4720 N   0  0  0  0  0  1  0  0  0  0  0  0
  179.0160  173.2300  137.8950 O   0  0  0  0  0  0  0  0  0  0  0  0
  180.0480  172.1210  137.1440 P   0  0  2  0  0  0  0  0  0  0  0  0
  181.0050  171.5650  138.1710 O   0  0  0  0  0  1  0  0  0  0  0  0
  1  2  1  0  0  0  0
  1 23  1  0  0  0  0
  2  3  2  0  0  0  0
  3  4  1  0  0  0  0
  4  6  1  0  0  0  0
  5  6  2  0  0  0  0
  6  7  1  0  0  0  0
  7  8  1  0  0  0  0
  9  8  1  6  0  0  0
  9 10  1  0  0  0  0
  9 19  1  0  0  0  0
 11 12  1  0  0  0  0
 13 14  1  0  0  0  0
 13 15  1  0  0  0  0
 14 10  1  6  0  0  0
 14 11  1  0  0  0  0
 15 16  1  0  0  0  0
 16 12  2  0  0  0  0
 16 17  1  0  0  0  0
 17 18  1  0  0  0  0
 20 19  1  0  0  0  0
 22 20  1  0  0  0  0
 22 21  1  0  0  0  0
 24 39  1  1  0  0  0
 24 32  1  0  0  0  0
 24 31  1  0  0  0  0
 26 30  1  0  0  0  0
 26 28  1  0  0  0  0
 27 30  1  0  0  0  0
 27 33  1  0  0  0  0
 28 31  1  0  0  0  0
 28 35  1  1  0  0  0
 29 25  2  0  0  0  0
 31 34  1  6  0  0  0
 32 36  1  6  0  0  0
 32 29  1  0  0  0  0
 33 23  1  0  0  0  0
 33 29  1  0  0  0  0
 34 28  1  0  0  0  0
 36 37  1  1  0  0  0
 36 38  1  0  0  0  0
 39 42  1  0  0  0  0
 42 40  1  6  0  0  0
 42 41  2  0  0  0  0
 42 43  1  0  0  0  0
M  END
>  <MODEL>
4

>  <REMARK>
 VINA RESULT:      -6.1      3.359      6.694
  Name = 
  17 active torsions:
  status: ('A' for Active; 'I' for Inactive)
    1  A    between atoms: C_1  and  C_35
    2  A    between atoms: O_4  and  C_27
    3  A    between atoms: P_5  and  C_30
    4  A    between atoms: C_8  and  C_13
    5  A    between atoms: C_8  and  C_43
    6  A    between atoms: C_9  and  O_29
    7  A    between atoms: C_9  and  C_34
    8  A    between atoms: C_9  and  C_43
    9  A    between atoms: C_10  and  C_21
   10  A    between atoms: C_11  and  C_30
   11  A    between atoms: C_13  and  C_36
   12  A    between atoms: C_14  and  C_34
   13  A    between atoms: C_14  and  C_40
   14  A    between atoms: C_16  and  C_36
   15  A    between atoms: C_21  and  C_31
   16  A    between atoms: C_22  and  O_29
   17  A    between atoms: C_31  and  N_37
                            x       y       z     vdW  Elec       q    Type
                         _______ _______ _______ _____ _____    ______ ____

>  <TORSDO>
F 17

$$$$
=
 OpenBabel11062412203D

 43 45  0  0  1  0  0  0  0  0999 V2000
  191.2230  176.7120  140.8340 C   0  0  0  0  0  2  0  0  0  0  0  0
  190.7270  177.4190  139.6180 C   0  0  0  0  0  3  0  0  0  0  0  0
  190.2280  176.7460  138.5810 C   0  0  0  0  0  3  0  0  0  0  0  0
  189.7240  177.4660  137.3700 C   0  0  0  0  0  2  0  0  0  0  0  0
  188.7010  179.5770  137.5290 O   0  0  0  0  0  0  0  0  0  0  0  0
  188.5800  178.3770  137.7170 C   0  0  0  0  0  0  0  0  0  0  0  0
  187.2850  177.8650  138.2910 C   0  0  0  0  0  2  0  0  0  0  0  0
  186.0440  178.5970  137.7880 C   0  0  0  0  0  2  0  0  0  0  0  0
  184.9670  177.6100  137.3230 C   0  0  2  0  0  3  0  0  0  0  0  0
  184.1930  177.0270  138.3540 O   0  0  0  0  0  0  0  0  0  0  0  0
  183.4160  177.5040  140.5790 C   0  0  0  0  0  2  0  0  0  0  0  0
  182.6000  178.4830  141.3660 C   0  0  0  0  0  3  0  0  0  0  0  0
  182.3650  178.5950  138.4980 C   0  0  0  0  0  2  0  0  0  0  0  0
  183.6440  178.0390  139.1590 C   0  0  2  0  0  3  0  0  0  0  0  0
  181.1330  178.6220  139.4160 C   0  0  0  0  0  2  0  0  0  0  0  0
  181.5060  179.0160  140.8140 C   0  0  0  0  0  0  0  0  0  0  0  0
  180.6940  179.9210  141.5050 O   0  0  0  0  0  0  0  0  0  0  0  0
  180.2790  179.7190  142.8500 C   0  0  0  0  0  1  0  0  0  0  0  0
  185.4260  176.6230  136.2440 C   0  0  0  0  0  2  0  0  0  0  0  0
  185.3270  175.1730  136.6920 C   0  0  0  0  0  2  0  0  0  0  0  0
  187.6580  174.3660  136.8200 C   0  0  0  0  0  1  0  0  0  0  0  0
  186.3890  174.3540  135.9930 C   0  0  0  0  0  2  0  0  0  0  0  0
  191.4000  177.6940  141.9820 C   0  0  0  0  0  2  0  0  0  0  0  0
  188.6830  176.9630  145.6680 C   0  0  1  0  0  3  0  0  0  0  0  0
  191.1270  179.2070  144.3570 O   0  0  0  0  0  0  0  0  0  0  0  0
  187.6220  176.2080  143.2200 O   0  0  0  0  0  0  0  0  0  0  0  0
  189.7670  176.1060  142.9720 C   0  0  0  0  0  2  0  0  0  0  0  0
  187.1900  177.4560  143.7060 C   0  0  2  0  0  0  0  0  0  0  0  0
  190.6220  178.0530  144.3540 C   0  0  0  0  0  0  0  0  0  0  0  0
  188.5730  176.4730  142.3440 O   0  0  0  0  0  0  0  0  0  0  0  0
  187.6840  177.9310  145.0250 C   0  0  1  0  0  3  0  0  0  0  0  0
  190.1230  177.5100  145.6740 C   0  0  2  0  0  3  0  0  0  0  0  0
  190.6060  177.2840  143.1340 N   0  0  0  0  0  0  0  0  0  0  0  0
  186.4320  177.2950  144.8760 O   0  0  0  0  0  0  0  0  0  0  0  0
  186.5130  178.4240  142.7510 C   0  0  0  0  0  1  0  0  0  0  0  0
  191.1350  176.5780  146.3590 C   0  0  1  0  0  3  0  0  0  0  0  0
  192.0540  175.8720  145.3770 C   0  0  0  0  0  1  0  0  0  0  0  0
  191.8920  177.2810  147.2960 O   0  0  0  0  0  1  0  0  0  0  0  0
  188.2200  176.5040  147.0600 C   0  0  0  0  0  2  0  0  0  0  0  0
  186.6460  178.9180  147.6800 N   0  0  0  0  0  1  0  0  0  0  0  0
  189.3530  178.7710  148.3850 O   0  0  0  0  0  0  0  0  0  0  0  0
  187.9290  177.8690  148.2440 P   0  0  2  0  0  0  0  0  0  0  0  0
  187.5650  177.3110  149.5990 O   0  0  0  0  0  1  0  0  0  0  0  0
  1 23  1  0  0  0  0
  2  1  1  0  0  0  0
  3  2  2  0  0  0  0
  4  6  1  0  0  0  0
  4  3  1  0  0  0  0
  5  6  2  0  0  0  0
  6  7  1  0  0  0  0
  8  7  1  0  0  0  0
  9 19  1  1  0  0  0
  9  8  1  0  0  0  0
  9 10  1  0  0  0  0
 11 12  1  0  0  0  0
 13 14  1  0  0  0  0
 13 15  1  0  0  0  0
 14 10  1  6  0  0  0
 14 11  1  0  0  0  0
 15 16  1  0  0  0  0
 16 12  2  0  0  0  0
 16 17  1  0  0  0  0
 17 18  1  0  0  0  0
 19 20  1  0  0  0  0
 22 20  1  0  0  0  0
 22 21  1  0  0  0  0
 23 33  1  0  0  0  0
 24 32  1  0  0  0  0
 24 39  1  1  0  0  0
 26 28  1  0  0  0  0
 27 33  1  0  0  0  0
 28 35  1  6  0  0  0
 28 34  1  0  0  0  0
 28 31  1  0  0  0  0
 29 25  2  0  0  0  0
 29 32  1  0  0  0  0
 30 27  1  0  0  0  0
 30 26  1  0  0  0  0
 31 34  1  1  0  0  0
 31 24  1  0  0  0  0
 32 36  1  6  0  0  0
 33 29  1  0  0  0  0
 36 37  1  6  0  0  0
 36 38  1  0  0  0  0
 39 42  1  0  0  0  0
 42 40  1  6  0  0  0
 42 41  2  0  0  0  0
 42 43  1  0  0  0  0
M  END
>  <MODEL>
5

>  <REMARK>
 VINA RESULT:      -6.0      3.843     10.319
  Name = 
  17 active torsions:
  status: ('A' for Active; 'I' for Inactive)
    1  A    between atoms: C_1  and  C_35
    2  A    between atoms: O_4  and  C_27
    3  A    between atoms: P_5  and  C_30
    4  A    between atoms: C_8  and  C_13
    5  A    between atoms: C_8  and  C_43
    6  A    between atoms: C_9  and  O_29
    7  A    between atoms: C_9  and  C_34
    8  A    between atoms: C_9  and  C_43
    9  A    between atoms: C_10  and  C_21
   10  A    between atoms: C_11  and  C_30
   11  A    between atoms: C_13  and  C_36
   12  A    between atoms: C_14  and  C_34
   13  A    between atoms: C_14  and  C_40
   14  A    between atoms: C_16  and  C_36
   15  A    between atoms: C_21  and  C_31
   16  A    between atoms: C_22  and  O_29
   17  A    between atoms: C_31  and  N_37
                            x       y       z     vdW  Elec       q    Type
                         _______ _______ _______ _____ _____    ______ ____

>  <TORSDO>
F 17

$$$$
=
 OpenBabel11062412203D

 43 45  0  0  1  0  0  0  0  0999 V2000
  181.0500  177.0000  139.8270 C   0  0  0  0  0  2  0  0  0  0  0  0
  181.8180  178.0120  140.6080 C   0  0  0  0  0  3  0  0  0  0  0  0
  183.0800  177.7910  140.9750 C   0  0  0  0  0  3  0  0  0  0  0  0
  183.8460  178.8180  141.7490 C   0  0  0  0  0  2  0  0  0  0  0  0
  185.3270  179.3510  140.0030 O   0  0  0  0  0  0  0  0  0  0  0  0
  185.2190  179.0210  141.1730 C   0  0  0  0  0  0  0  0  0  0  0  0
  186.4720  178.8290  141.9860 C   0  0  0  0  0  2  0  0  0  0  0  0
  186.4390  177.6170  142.9120 C   0  0  0  0  0  2  0  0  0  0  0  0
  187.2340  177.8760  144.1970 C   0  0  2  0  0  3  0  0  0  0  0  0
  187.9180  176.7550  144.7230 O   0  0  0  0  0  0  0  0  0  0  0  0
  189.7910  178.1750  144.2110 C   0  0  0  0  0  2  0  0  0  0  0  0
  191.0900  178.2020  143.4680 C   0  0  0  0  0  3  0  0  0  0  0  0
  189.2930  176.0310  142.8760 C   0  0  0  0  0  2  0  0  0  0  0  0
  189.2390  176.7430  144.2450 C   0  0  2  0  0  3  0  0  0  0  0  0
  189.9920  176.8340  141.7680 C   0  0  0  0  0  2  0  0  0  0  0  0
  191.1890  177.5650  142.2980 C   0  0  0  0  0  0  0  0  0  0  0  0
  192.3700  177.5690  141.5490 O   0  0  0  0  0  0  0  0  0  0  0  0
  192.3970  177.3500  140.1440 C   0  0  0  0  0  1  0  0  0  0  0  0
  186.4980  178.7150  145.2470 C   0  0  0  0  0  2  0  0  0  0  0  0
  186.1710  177.9280  146.5060 C   0  0  0  0  0  2  0  0  0  0  0  0
  183.9850  178.8290  145.7900 C   0  0  0  0  0  1  0  0  0  0  0  0
  184.7640  178.2550  146.9550 C   0  0  0  0  0  2  0  0  0  0  0  0
  181.1470  177.2950  138.3380 C   0  0  0  0  0  2  0  0  0  0  0  0
  183.1260  174.1070  135.6140 C   0  0  1  0  0  3  0  0  0  0  0  0
  180.4440  176.4580  135.7290 O   0  0  0  0  0  0  0  0  0  0  0  0
  184.8520  175.5390  137.2440 O   0  0  0  0  0  0  0  0  0  0  0  0
  182.9420  175.5800  138.2540 C   0  0  0  0  0  2  0  0  0  0  0  0
  184.7730  175.9840  135.9120 C   0  0  2  0  0  0  0  0  0  0  0  0
  181.2660  175.7380  136.3570 C   0  0  0  0  0  0  0  0  0  0  0  0
  184.0700  176.3430  137.9400 O   0  0  0  0  0  0  0  0  0  0  0  0
  183.8940  175.2590  134.9570 C   0  0  1  0  0  3  0  0  0  0  0  0
  181.6200  174.3980  135.7540 C   0  0  2  0  0  3  0  0  0  0  0  0
  181.7700  176.1800  137.6350 N   0  0  0  0  0  0  0  0  0  0  0  0
  185.2830  175.0140  135.0350 O   0  0  0  0  0  0  0  0  0  0  0  0
  185.3060  177.3630  135.5630 C   0  0  0  0  0  1  0  0  0  0  0  0
  180.8210  173.2370  136.3640 C   0  0  1  0  0  3  0  0  0  0  0  0
  180.0170  173.6450  137.5870 C   0  0  0  0  0  1  0  0  0  0  0  0
  179.9780  172.6670  135.4100 O   0  0  0  0  0  1  0  0  0  0  0  0
  183.4060  172.7650  134.9210 C   0  0  0  0  0  2  0  0  0  0  0  0
  185.4350  170.6290  135.0500 N   0  0  0  0  0  1  0  0  0  0  0  0
  183.1090  170.4710  136.6030 O   0  0  0  0  0  0  0  0  0  0  0  0
  184.2620  171.5380  135.9780 P   0  0  2  0  0  0  0  0  0  0  0  0
  184.9570  172.2370  137.1220 O   0  0  0  0  0  1  0  0  0  0  0  0
  1  2  1  0  0  0  0
  2  3  2  0  0  0  0
  3  4  1  0  0  0  0
  5  6  2  0  0  0  0
  6  4  1  0  0  0  0
  6  7  1  0  0  0  0
  7  8  1  0  0  0  0
  9  8  1  6  0  0  0
  9 10  1  0  0  0  0
  9 19  1  0  0  0  0
 11 14  1  0  0  0  0
 12 11  1  0  0  0  0
 13 14  1  0  0  0  0
 14 10  1  6  0  0  0
 15 16  1  0  0  0  0
 15 13  1  0  0  0  0
 16 12  2  0  0  0  0
 17 16  1  0  0  0  0
 18 17  1  0  0  0  0
 19 20  1  0  0  0  0
 20 22  1  0  0  0  0
 21 22  1  0  0  0  0
 23  1  1  0  0  0  0
 24 39  1  6  0  0  0
 24 32  1  0  0  0  0
 25 29  2  0  0  0  0
 26 30  1  0  0  0  0
 28 35  1  6  0  0  0
 28 26  1  0  0  0  0
 29 33  1  0  0  0  0
 30 27  1  0  0  0  0
 31 34  1  6  0  0  0
 31 24  1  0  0  0  0
 31 28  1  0  0  0  0
 32 29  1  0  0  0  0
 32 36  1  1  0  0  0
 33 27  1  0  0  0  0
 33 23  1  0  0  0  0
 34 28  1  0  0  0  0
 36 37  1  1  0  0  0
 38 36  1  0  0  0  0
 39 42  1  0  0  0  0
 42 40  1  6  0  0  0
 42 41  2  0  0  0  0
 42 43  1  0  0  0  0
M  END
>  <MODEL>
6

>  <REMARK>
 VINA RESULT:      -5.9      2.943      4.653
  Name = 
  17 active torsions:
  status: ('A' for Active; 'I' for Inactive)
    1  A    between atoms: C_1  and  C_35
    2  A    between atoms: O_4  and  C_27
    3  A    between atoms: P_5  and  C_30
    4  A    between atoms: C_8  and  C_13
    5  A    between atoms: C_8  and  C_43
    6  A    between atoms: C_9  and  O_29
    7  A    between atoms: C_9  and  C_34
    8  A    between atoms: C_9  and  C_43
    9  A    between atoms: C_10  and  C_21
   10  A    between atoms: C_11  and  C_30
   11  A    between atoms: C_13  and  C_36
   12  A    between atoms: C_14  and  C_34
   13  A    between atoms: C_14  and  C_40
   14  A    between atoms: C_16  and  C_36
   15  A    between atoms: C_21  and  C_31
   16  A    between atoms: C_22  and  O_29
   17  A    between atoms: C_31  and  N_37
                            x       y       z     vdW  Elec       q    Type
                         _______ _______ _______ _____ _____    ______ ____

>  <TORSDO>
F 17

$$$$
=
 OpenBabel11062412203D

 43 45  0  0  1  0  0  0  0  0999 V2000
  187.9750  175.0910  136.1190 C   0  0  0  0  0  2  0  0  0  0  0  0
  188.6710  176.2720  136.7060 C   0  0  0  0  0  3  0  0  0  0  0  0
  189.2560  176.2070  137.9020 C   0  0  0  0  0  3  0  0  0  0  0  0
  189.9600  177.3960  138.4770 C   0  0  0  0  0  2  0  0  0  0  0  0
  189.0620  179.5640  138.3360 O   0  0  0  0  0  0  0  0  0  0  0  0
  188.9830  178.4690  138.8690 C   0  0  0  0  0  0  0  0  0  0  0  0
  187.9090  178.2440  139.9000 C   0  0  0  0  0  2  0  0  0  0  0  0
  188.3070  178.6440  141.3170 C   0  0  0  0  0  2  0  0  0  0  0  0
  187.5220  177.8420  142.3620 C   0  0  2  0  0  3  0  0  0  0  0  0
  186.6920  178.6080  143.2160 O   0  0  0  0  0  0  0  0  0  0  0  0
  184.7860  178.7420  141.7560 C   0  0  0  0  0  2  0  0  0  0  0  0
  183.3050  178.5260  141.7160 C   0  0  0  0  0  3  0  0  0  0  0  0
  184.5450  178.6070  144.3150 C   0  0  0  0  0  2  0  0  0  0  0  0
  185.3580  178.1930  143.0700 C   0  0  2  0  0  3  0  0  0  0  0  0
  183.2560  179.3840  144.0040 C   0  0  0  0  0  2  0  0  0  0  0  0
  182.5690  178.8360  142.7890 C   0  0  0  0  0  0  0  0  0  0  0  0
  181.1810  178.6740  142.8060 O   0  0  0  0  0  0  0  0  0  0  0  0
  180.2740  179.7680  142.8580 C   0  0  0  0  0  1  0  0  0  0  0  0
  188.3340  176.7580  143.0790 C   0  0  0  0  0  2  0  0  0  0  0  0
  188.6140  177.0970  144.5340 C   0  0  0  0  0  2  0  0  0  0  0  0
  190.9710  176.8750  145.2390 C   0  0  0  0  0  1  0  0  0  0  0  0
  189.9430  177.8110  144.6400 C   0  0  0  0  0  2  0  0  0  0  0  0
  187.1290  174.3960  137.1750 C   0  0  0  0  0  2  0  0  0  0  0  0
  182.6370  173.7630  136.2120 C   0  0  1  0  0  3  0  0  0  0  0  0
  185.2600  172.6250  138.3470 O   0  0  0  0  0  0  0  0  0  0  0  0
  183.5740  176.3590  135.9410 O   0  0  0  0  0  0  0  0  0  0  0  0
  185.3000  175.0910  135.6440 C   0  0  0  0  0  2  0  0  0  0  0  0
  182.8980  176.0840  137.1430 C   0  0  2  0  0  0  0  0  0  0  0  0
  184.9220  173.1780  137.2670 C   0  0  0  0  0  0  0  0  0  0  0  0
  184.8610  176.2840  136.2260 O   0  0  0  0  0  0  0  0  0  0  0  0
  182.3350  174.7260  137.3650 C   0  0  1  0  0  3  0  0  0  0  0  0
  183.6630  172.6800  136.5940 C   0  0  2  0  0  3  0  0  0  0  0  0
  185.7690  174.1930  136.6900 N   0  0  0  0  0  0  0  0  0  0  0  0
  181.5460  175.8000  136.8970 O   0  0  0  0  0  0  0  0  0  0  0  0
  183.0450  177.0490  138.3070 C   0  0  0  0  0  1  0  0  0  0  0  0
  183.9440  171.6720  135.4690 C   0  0  1  0  0  3  0  0  0  0  0  0
  185.4270  171.4810  135.1970 C   0  0  0  0  0  1  0  0  0  0  0  0
  183.3520  170.4420  135.7530 O   0  0  0  0  0  1  0  0  0  0  0  0
  181.3530  173.1740  135.6080 C   0  0  0  0  0  2  0  0  0  0  0  0
  179.4000  171.0120  136.0570 N   0  0  0  0  0  1  0  0  0  0  0  0
  179.1640  173.4420  137.4290 O   0  0  0  0  0  0  0  0  0  0  0  0
  180.2740  172.3230  136.8180 P   0  0  2  0  0  0  0  0  0  0  0  0
  181.1030  171.7810  137.9590 O   0  0  0  0  0  1  0  0  0  0  0  0
  1  2  1  0  0  0  0
  1 23  1  0  0  0  0
  2  3  2  0  0  0  0
  3  4  1  0  0  0  0
  4  6  1  0  0  0  0
  5  6  2  0  0  0  0
  6  7  1  0  0  0  0
  7  8  1  0  0  0  0
  9  8  1  1  0  0  0
  9 19  1  0  0  0  0
  9 10  1  0  0  0  0
 11 14  1  0  0  0  0
 12 11  1  0  0  0  0
 12 16  2  0  0  0  0
 14 10  1  1  0  0  0
 14 13  1  0  0  0  0
 15 13  1  0  0  0  0
 16 17  1  0  0  0  0
 16 15  1  0  0  0  0
 17 18  1  0  0  0  0
 19 20  1  0  0  0  0
 20 22  1  0  0  0  0
 22 21  1  0  0  0  0
 24 39  1  1  0  0  0
 24 32  1  0  0  0  0
 24 31  1  0  0  0  0
 26 30  1  0  0  0  0
 26 28  1  0  0  0  0
 27 30  1  0  0  0  0
 27 33  1  0  0  0  0
 28 31  1  0  0  0  0
 28 35  1  1  0  0  0
 29 25  2  0  0  0  0
 31 34  1  6  0  0  0
 32 36  1  6  0  0  0
 32 29  1  0  0  0  0
 33 23  1  0  0  0  0
 33 29  1  0  0  0  0
 34 28  1  0  0  0  0
 36 37  1  1  0  0  0
 36 38  1  0  0  0  0
 39 42  1  0  0  0  0
 42 40  1  6  0  0  0
 42 41  2  0  0  0  0
 42 43  1  0  0  0  0
M  END
>  <MODEL>
7

>  <REMARK>
 VINA RESULT:      -5.9      3.307      6.482
  Name = 
  17 active torsions:
  status: ('A' for Active; 'I' for Inactive)
    1  A    between atoms: C_1  and  C_35
    2  A    between atoms: O_4  and  C_27
    3  A    between atoms: P_5  and  C_30
    4  A    between atoms: C_8  and  C_13
    5  A    between atoms: C_8  and  C_43
    6  A    between atoms: C_9  and  O_29
    7  A    between atoms: C_9  and  C_34
    8  A    between atoms: C_9  and  C_43
    9  A    between atoms: C_10  and  C_21
   10  A    between atoms: C_11  and  C_30
   11  A    between atoms: C_13  and  C_36
   12  A    between atoms: C_14  and  C_34
   13  A    between atoms: C_14  and  C_40
   14  A    between atoms: C_16  and  C_36
   15  A    between atoms: C_21  and  C_31
   16  A    between atoms: C_22  and  O_29
   17  A    between atoms: C_31  and  N_37
                            x       y       z     vdW  Elec       q    Type
                         _______ _______ _______ _____ _____    ______ ____

>  <TORSDO>
F 17

$$$$
=
 OpenBabel11062412203D

 43 45  0  0  1  0  0  0  0  0999 V2000
  190.8880  176.7530  140.7340 C   0  0  0  0  0  2  0  0  0  0  0  0
  190.2710  177.6970  139.7580 C   0  0  0  0  0  3  0  0  0  0  0  0
  189.1400  177.3940  139.1220 C   0  0  0  0  0  3  0  0  0  0  0  0
  188.5240  178.3540  138.1530 C   0  0  0  0  0  2  0  0  0  0  0  0
  186.2260  178.6270  138.5660 O   0  0  0  0  0  0  0  0  0  0  0  0
  187.0740  178.0340  137.9190 C   0  0  0  0  0  0  0  0  0  0  0  0
  186.6260  177.0050  136.9150 C   0  0  0  0  0  2  0  0  0  0  0  0
  187.7480  176.4490  136.0440 C   0  0  0  0  0  2  0  0  0  0  0  0
  188.3310  175.1630  136.6420 C   0  0  2  0  0  3  0  0  0  0  0  0
  189.4950  174.6720  136.0050 O   0  0  0  0  0  0  0  0  0  0  0  0
  191.2570  176.2450  136.4590 C   0  0  0  0  0  2  0  0  0  0  0  0
  192.5840  176.3760  137.1410 C   0  0  0  0  0  3  0  0  0  0  0  0
  191.5850  173.7060  136.7270 C   0  0  0  0  0  2  0  0  0  0  0  0
  190.6130  174.9010  136.8250 C   0  0  2  0  0  3  0  0  0  0  0  0
  193.0360  174.0900  136.4020 C   0  0  0  0  0  2  0  0  0  0  0  0
  193.4380  175.3480  137.1130 C   0  0  0  0  0  0  0  0  0  0  0  0
  194.6980  175.4160  137.7150 O   0  0  0  0  0  0  0  0  0  0  0  0
  195.1320  174.4980  138.7110 C   0  0  0  0  0  1  0  0  0  0  0  0
  187.2950  174.0860  136.9780 C   0  0  0  0  0  2  0  0  0  0  0  0
  187.6980  172.7060  136.4830 C   0  0  0  0  0  2  0  0  0  0  0  0
  185.4840  173.1160  135.4660 C   0  0  0  0  0  1  0  0  0  0  0  0
  186.5290  172.0630  135.7710 C   0  0  0  0  0  2  0  0  0  0  0  0
  191.3800  177.5050  141.9610 C   0  0  0  0  0  2  0  0  0  0  0  0
  188.7280  176.9130  145.7180 C   0  0  1  0  0  3  0  0  0  0  0  0
  191.2200  179.0520  144.3240 O   0  0  0  0  0  0  0  0  0  0  0  0
  187.5820  176.1710  143.3040 O   0  0  0  0  0  0  0  0  0  0  0  0
  189.7150  175.9880  143.0070 C   0  0  0  0  0  2  0  0  0  0  0  0
  187.2070  177.4390  143.7860 C   0  0  2  0  0  0  0  0  0  0  0  0
  190.6730  177.9170  144.3470 C   0  0  0  0  0  0  0  0  0  0  0  0
  188.5210  176.3920  142.4030 O   0  0  0  0  0  0  0  0  0  0  0  0
  187.7500  177.9090  145.0880 C   0  0  1  0  0  3  0  0  0  0  0  0
  190.1860  177.4060  145.6840 C   0  0  2  0  0  3  0  0  0  0  0  0
  190.6000  177.1370  143.1350 N   0  0  0  0  0  0  0  0  0  0  0  0
  186.4720  177.3180  144.9750 O   0  0  0  0  0  0  0  0  0  0  0  0
  186.5430  178.4210  142.8360 C   0  0  0  0  0  1  0  0  0  0  0  0
  191.1800  176.4450  146.3550 C   0  0  1  0  0  3  0  0  0  0  0  0
  192.0540  175.7020  145.3600 C   0  0  0  0  0  1  0  0  0  0  0  0
  191.9790  177.1290  147.2710 O   0  0  0  0  0  1  0  0  0  0  0  0
  188.2820  176.4850  147.1250 C   0  0  0  0  0  2  0  0  0  0  0  0
  186.7860  178.9700  147.6480 N   0  0  0  0  0  1  0  0  0  0  0  0
  189.4520  178.7210  148.4700 O   0  0  0  0  0  0  0  0  0  0  0  0
  187.9990  177.8780  148.2790 P   0  0  2  0  0  0  0  0  0  0  0  0
  187.5540  177.3540  149.6240 O   0  0  0  0  0  1  0  0  0  0  0  0
  1 23  1  0  0  0  0
  2  1  1  0  0  0  0
  3  2  2  0  0  0  0
  4  3  1  0  0  0  0
  6  4  1  0  0  0  0
  6  5  2  0  0  0  0
  7  6  1  0  0  0  0
  8  7  1  0  0  0  0
  9  8  1  6  0  0  0
  9 19  1  0  0  0  0
 10  9  1  0  0  0  0
 11 14  1  0  0  0  0
 11 12  1  0  0  0  0
 13 14  1  0  0  0  0
 14 10  1  6  0  0  0
 15 13  1  0  0  0  0
 15 16  1  0  0  0  0
 16 12  2  0  0  0  0
 16 17  1  0  0  0  0
 17 18  1  0  0  0  0
 20 19  1  0  0  0  0
 21 22  1  0  0  0  0
 22 20  1  0  0  0  0
 23 33  1  0  0  0  0
 24 39  1  1  0  0  0
 25 29  2  0  0  0  0
 26 28  1  0  0  0  0
 27 33  1  0  0  0  0
 28 35  1  6  0  0  0
 28 34  1  0  0  0  0
 28 31  1  0  0  0  0
 29 32  1  0  0  0  0
 30 27  1  0  0  0  0
 30 26  1  0  0  0  0
 31 34  1  1  0  0  0
 31 24  1  0  0  0  0
 32 24  1  0  0  0  0
 32 36  1  6  0  0  0
 33 29  1  0  0  0  0
 36 37  1  6  0  0  0
 36 38  1  0  0  0  0
 39 42  1  0  0  0  0
 42 40  1  6  0  0  0
 42 41  2  0  0  0  0
 42 43  1  0  0  0  0
M  END
>  <MODEL>
8

>  <REMARK>
 VINA RESULT:      -5.9      5.205     10.174
  Name = 
  17 active torsions:
  status: ('A' for Active; 'I' for Inactive)
    1  A    between atoms: C_1  and  C_35
    2  A    between atoms: O_4  and  C_27
    3  A    between atoms: P_5  and  C_30
    4  A    between atoms: C_8  and  C_13
    5  A    between atoms: C_8  and  C_43
    6  A    between atoms: C_9  and  O_29
    7  A    between atoms: C_9  and  C_34
    8  A    between atoms: C_9  and  C_43
    9  A    between atoms: C_10  and  C_21
   10  A    between atoms: C_11  and  C_30
   11  A    between atoms: C_13  and  C_36
   12  A    between atoms: C_14  and  C_34
   13  A    between atoms: C_14  and  C_40
   14  A    between atoms: C_16  and  C_36
   15  A    between atoms: C_21  and  C_31
   16  A    between atoms: C_22  and  O_29
   17  A    between atoms: C_31  and  N_37
                            x       y       z     vdW  Elec       q    Type
                         _______ _______ _______ _____ _____    ______ ____

>  <TORSDO>
F 17

$$$$
=
 OpenBabel11062412203D

 43 45  0  0  1  0  0  0  0  0999 V2000
  186.9630  178.5730  140.5680 C   0  0  0  0  0  2  0  0  0  0  0  0
  186.7830  178.4500  142.0430 C   0  0  0  0  0  3  0  0  0  0  0  0
  185.5710  178.4880  142.5980 C   0  0  0  0  0  3  0  0  0  0  0  0
  185.4010  178.3530  144.0790 C   0  0  0  0  0  2  0  0  0  0  0  0
  183.8490  178.9980  145.7230 O   0  0  0  0  0  0  0  0  0  0  0  0
  184.0830  178.9190  144.5270 C   0  0  0  0  0  0  0  0  0  0  0  0
  183.0350  179.3920  143.5550 C   0  0  0  0  0  2  0  0  0  0  0  0
  181.6460  178.8110  143.8000 C   0  0  0  0  0  2  0  0  0  0  0  0
  180.8820  178.6210  142.4840 C   0  0  2  0  0  3  0  0  0  0  0  0
  181.6580  178.7570  141.3080 O   0  0  0  0  0  0  0  0  0  0  0  0
  183.0570  177.2350  140.0800 C   0  0  0  0  0  2  0  0  0  0  0  0
  183.0050  176.0960  139.1090 C   0  0  0  0  0  3  0  0  0  0  0  0
  180.5840  177.6130  139.4750 C   0  0  0  0  0  2  0  0  0  0  0  0
  181.6460  177.5470  140.5940 C   0  0  2  0  0  3  0  0  0  0  0  0
  181.1060  177.2390  138.0790 C   0  0  0  0  0  2  0  0  0  0  0  0
  182.0750  176.0970  138.1490 C   0  0  0  0  0  0  0  0  0  0  0  0
  181.9870  175.0710  137.2020 O   0  0  0  0  0  0  0  0  0  0  0  0
  183.1150  174.3280  136.7580 C   0  0  0  0  0  1  0  0  0  0  0  0
  179.5220  179.3230  142.4260 C   0  0  0  0  0  2  0  0  0  0  0  0
  179.6090  180.7290  141.8530 C   0  0  0  0  0  2  0  0  0  0  0  0
  179.7140  181.7270  139.5960 C   0  0  0  0  0  1  0  0  0  0  0  0
  178.9630  180.7600  140.4860 C   0  0  0  0  0  2  0  0  0  0  0  0
  188.4330  178.7610  140.2270 C   0  0  0  0  0  2  0  0  0  0  0  0
  190.0950  176.3660  136.6210 C   0  0  1  0  0  3  0  0  0  0  0  0
  189.0640  179.6350  137.6120 O   0  0  0  0  0  0  0  0  0  0  0  0
  190.9940  175.5630  139.1180 O   0  0  0  0  0  0  0  0  0  0  0  0
  189.0690  176.4830  139.4690 C   0  0  0  0  0  2  0  0  0  0  0  0
  191.8710  176.3960  138.4000 C   0  0  2  0  0  0  0  0  0  0  0  0
  189.0050  178.3900  137.7990 C   0  0  0  0  0  0  0  0  0  0  0  0
  190.3670  176.3510  139.9710 O   0  0  0  0  0  0  0  0  0  0  0  0
  191.4860  176.8530  137.0390 C   0  0  1  0  0  3  0  0  0  0  0  0
  189.0540  177.5000  136.5770 C   0  0  2  0  0  3  0  0  0  0  0  0
  188.8240  177.8780  139.1350 N   0  0  0  0  0  0  0  0  0  0  0  0
  192.3380  175.7460  137.2470 O   0  0  0  0  0  0  0  0  0  0  0  0
  193.0130  177.0740  139.1380 C   0  0  0  0  0  1  0  0  0  0  0  0
  187.6620  177.0440  136.1130 C   0  0  1  0  0  3  0  0  0  0  0  0
  186.8220  176.4570  137.2340 C   0  0  0  0  0  1  0  0  0  0  0  0
  186.9770  178.0990  135.5100 O   0  0  0  0  0  1  0  0  0  0  0  0
  190.1410  175.5560  135.3160 C   0  0  0  0  0  2  0  0  0  0  0  0
  190.9010  172.7820  134.6690 N   0  0  0  0  0  1  0  0  0  0  0  0
  188.2020  173.4990  134.8810 O   0  0  0  0  0  0  0  0  0  0  0  0
  189.7420  173.7800  135.5190 P   0  0  2  0  0  0  0  0  0  0  0  0
  189.7400  173.4150  136.9850 O   0  0  0  0  0  1  0  0  0  0  0  0
  1  2  1  0  0  0  0
  2  3  2  0  0  0  0
  3  4  1  0  0  0  0
  4  6  1  0  0  0  0
  6  5  2  0  0  0  0
  7  8  1  0  0  0  0
  7  6  1  0  0  0  0
  9 19  1  6  0  0  0
  9  8  1  0  0  0  0
 10  9  1  0  0  0  0
 11 14  1  0  0  0  0
 12 11  1  0  0  0  0
 13 14  1  0  0  0  0
 14 10  1  6  0  0  0
 15 16  1  0  0  0  0
 15 13  1  0  0  0  0
 16 12  2  0  0  0  0
 17 16  1  0  0  0  0
 18 17  1  0  0  0  0
 20 19  1  0  0  0  0
 21 22  1  0  0  0  0
 22 20  1  0  0  0  0
 23  1  1  0  0  0  0
 24 39  1  6  0  0  0
 24 31  1  0  0  0  0
 25 29  2  0  0  0  0
 26 30  1  0  0  0  0
 27 30  1  0  0  0  0
 28 26  1  0  0  0  0
 28 35  1  1  0  0  0
 29 33  1  0  0  0  0
 31 34  1  6  0  0  0
 31 28  1  0  0  0  0
 32 36  1  1  0  0  0
 32 24  1  0  0  0  0
 32 29  1  0  0  0  0
 33 27  1  0  0  0  0
 33 23  1  0  0  0  0
 34 28  1  0  0  0  0
 36 37  1  1  0  0  0
 38 36  1  0  0  0  0
 39 42  1  0  0  0  0
 41 42  2  0  0  0  0
 42 40  1  6  0  0  0
 42 43  1  0  0  0  0
M  END
>  <MODEL>
9

>  <REMARK>
 VINA RESULT:      -5.8      3.473      8.792
  Name = 
  17 active torsions:
  status: ('A' for Active; 'I' for Inactive)
    1  A    between atoms: C_1  and  C_35
    2  A    between atoms: O_4  and  C_27
    3  A    between atoms: P_5  and  C_30
    4  A    between atoms: C_8  and  C_13
    5  A    between atoms: C_8  and  C_43
    6  A    between atoms: C_9  and  O_29
    7  A    between atoms: C_9  and  C_34
    8  A    between atoms: C_9  and  C_43
    9  A    between atoms: C_10  and  C_21
   10  A    between atoms: C_11  and  C_30
   11  A    between atoms: C_13  and  C_36
   12  A    between atoms: C_14  and  C_34
   13  A    between atoms: C_14  and  C_40
   14  A    between atoms: C_16  and  C_36
   15  A    between atoms: C_21  and  C_31
   16  A    between atoms: C_22  and  O_29
   17  A    between atoms: C_31  and  N_37
                            x       y       z     vdW  Elec       q    Type
                         _______ _______ _______ _____ _____    ______ ____

>  <TORSDO>
F 17

$$$$
