=
 OpenBabel11062415033D

 31 35  0  0  1  0  0  0  0  0999 V2000
  185.3980  178.1450  147.2240 C   0  0  0  0  0  3  0  0  0  0  0  0
  188.5590  177.5320  145.1960 C   0  0  0  0  0  0  0  0  0  0  0  0
  190.0110  176.5480  146.5830 C   0  0  1  0  0  3  0  0  0  0  0  0
  186.3000  178.3190  144.5910 C   0  0  0  0  0  3  0  0  0  0  0  0
  186.7130  177.7720  146.9230 C   0  0  0  0  0  0  0  0  0  0  0  0
  188.7470  178.0140  148.3830 C   0  0  0  0  0  2  0  0  0  0  0  0
  187.5290  177.1670  148.0270 C   0  0  0  0  0  2  0  0  0  0  0  0
  190.1500  176.5970  143.5340 C   0  0  2  0  0  3  0  0  0  0  0  0
  184.9920  178.6950  144.9040 C   0  0  0  0  0  0  0  0  0  0  0  0
  187.1760  177.8680  145.5860 C   0  0  0  0  0  0  0  0  0  0  0  0
  191.2200  176.1640  145.8940 N   0  0  0  0  0  2  0  0  0  0  0  0
  191.9460  175.0570  143.9870 O   0  0  0  0  0  0  0  0  0  0  0  0
  189.9620  177.7380  147.4960 C   0  0  1  0  0  0  0  0  0  0  0  0
  191.1940  178.2350  147.9180 O   0  0  0  0  0  1  0  0  0  0  0  0
  188.7970  176.8680  144.0940 N   0  0  0  0  0  0  0  0  0  0  0  0
  189.7230  177.9410  146.0170 C   0  0  2  0  0  3  0  0  0  0  0  0
  191.1240  175.8690  144.4860 C   0  0  0  0  0  0  0  0  0  0  0  0
  184.5420  178.6100  146.2240 C   0  0  0  0  0  3  0  0  0  0  0  0
  190.7560  177.8170  142.9650 N   0  0  0  0  0  0  0  0  0  0  0  0
  191.9190  178.1530  143.7800 C   0  0  0  0  0  1  0  0  0  0  0  0
  190.2690  177.9470  140.5650 C   0  0  0  0  0  2  0  0  0  0  0  0
  190.3950  176.4940  140.9470 C   0  0  0  0  0  2  0  0  0  0  0  0
  191.2760  177.5280  141.6260 C   0  0  0  0  0  3  0  0  0  0  0  0
  184.0770  179.1610  143.8240 C   0  0  0  0  0  2  0  0  0  0  0  0
  184.2370  178.2930  142.5910 C   0  0  0  0  0  2  0  0  0  0  0  0
  184.5430  179.1020  141.4950 O   0  0  0  0  0  0  0  0  0  0  0  0
  182.4440  178.6580  140.4620 C   0  0  0  0  0  1  0  0  0  0  0  0
  183.9510  178.4710  140.3990 C   0  0  1  0  0  3  0  0  0  0  0  0
  184.3080  180.4050  139.0120 O   0  0  0  0  0  1  0  0  0  0  0  0
  184.5310  179.0280  139.0980 C   0  0  0  0  0  3  0  0  0  0  0  0
  185.9010  178.7650  139.0160 O   0  0  0  0  0  1  0  0  0  0  0  0
  2 10  1  0  0  0  0
  3 11  1  6  0  0  0
  3 13  1  0  0  0  0
  4  9  2  0  0  0  0
  4 10  1  0  0  0  0
  5  1  1  0  0  0  0
  5  7  1  0  0  0  0
  7  6  1  0  0  0  0
  8 19  1  1  0  0  0
  8 15  1  0  0  0  0
  8 17  1  0  0  0  0
  9 18  1  0  0  0  0
 10  5  2  0  0  0  0
 12 17  2  0  0  0  0
 13 14  1  1  0  0  0
 13  6  1  0  0  0  0
 15  2  2  0  0  0  0
 16  2  1  1  0  0  0
 16  3  1  0  0  0  0
 16 13  1  0  0  0  0
 17 11  1  0  0  0  0
 18  1  2  0  0  0  0
 19 20  1  0  0  0  0
 21 22  1  0  0  0  0
 21 23  1  0  0  0  0
 22 23  1  0  0  0  0
 23 19  1  0  0  0  0
 24  9  1  0  0  0  0
 25 24  1  0  0  0  0
 26 25  1  0  0  0  0
 28 27  1  6  0  0  0
 28 26  1  0  0  0  0
 29 30  1  0  0  0  0
 30 28  1  0  0  0  0
 31 30  1  0  0  0  0
M  END
>  <MODEL>
1

>  <REMARK>
 VINA RESULT:      -8.2      0.000      0.000
  Name = 
  7 active torsions:
  status: ('A' for Active; 'I' for Inactive)
    1  A    between atoms: C_2  and  C_15
    2  A    between atoms: C_2  and  C_17
    3  A    between atoms: C_11  and  C_12
    4  A    between atoms: C_12  and  O_31
    5  A    between atoms: C_15  and  O_31
    6  A    between atoms: C_16  and  N_19
    7  A    between atoms: N_19  and  C_25
                            x       y       z     vdW  Elec       q    Type
                         _______ _______ _______ _____ _____    ______ ____

>  <TORSDO>
F 7

$$$$
=
 OpenBabel11062415033D

 31 35  0  0  1  0  0  0  0  0999 V2000
  184.7440  178.6440  145.2080 C   0  0  0  0  0  3  0  0  0  0  0  0
  183.7210  178.5240  141.5450 C   0  0  0  0  0  0  0  0  0  0  0  0
  181.7190  179.5130  141.4220 C   0  0  1  0  0  3  0  0  0  0  0  0
  185.8110  177.9520  142.7270 C   0  0  0  0  0  3  0  0  0  0  0  0
  183.9600  178.7930  144.0590 C   0  0  0  0  0  0  0  0  0  0  0  0
  181.4680  178.5170  143.8580 C   0  0  0  0  0  2  0  0  0  0  0  0
  182.6210  179.4490  144.2180 C   0  0  0  0  0  2  0  0  0  0  0  0
  183.6330  178.9790  139.1060 C   0  0  2  0  0  3  0  0  0  0  0  0
  186.5820  177.8020  143.8800 C   0  0  0  0  0  0  0  0  0  0  0  0
  184.4980  178.4340  142.7970 C   0  0  0  0  0  0  0  0  0  0  0  0
  181.2710  179.6260  140.0550 N   0  0  0  0  0  2  0  0  0  0  0  0
  181.9940  180.3240  137.9620 O   0  0  0  0  0  0  0  0  0  0  0  0
  181.1460  178.4940  142.3630 C   0  0  1  0  0  0  0  0  0  0  0  0
  179.9410  177.9120  141.9730 O   0  0  0  0  0  1  0  0  0  0  0  0
  184.2760  178.9740  140.4490 N   0  0  0  0  0  0  0  0  0  0  0  0
  182.3030  178.0990  141.4740 C   0  0  2  0  0  3  0  0  0  0  0  0
  182.2760  179.7110  139.0250 C   0  0  0  0  0  0  0  0  0  0  0  0
  186.0460  178.1450  145.1240 C   0  0  0  0  0  3  0  0  0  0  0  0
  183.5500  177.6170  138.5390 N   0  0  0  0  0  0  0  0  0  0  0  0
  182.1500  177.3580  138.2180 C   0  0  0  0  0  1  0  0  0  0  0  0
  185.2410  176.4010  137.2450 C   0  0  0  0  0  2  0  0  0  0  0  0
  185.7510  177.7960  137.5030 C   0  0  0  0  0  2  0  0  0  0  0  0
  184.2690  177.5720  137.2630 C   0  0  0  0  0  3  0  0  0  0  0  0
  187.9800  177.2980  143.7760 C   0  0  0  0  0  2  0  0  0  0  0  0
  188.8240  177.8550  144.9050 C   0  0  0  0  0  2  0  0  0  0  0  0
  189.7280  176.8780  145.3300 O   0  0  0  0  0  0  0  0  0  0  0  0
  188.8130  177.0260  147.5240 C   0  0  0  0  0  1  0  0  0  0  0  0
  190.0400  177.2190  146.6470 C   0  0  1  0  0  3  0  0  0  0  0  0
  192.0330  176.0000  146.0680 O   0  0  0  0  0  1  0  0  0  0  0  0
  191.2190  176.3770  147.1400 C   0  0  0  0  0  3  0  0  0  0  0  0
  191.9720  177.0850  148.0800 O   0  0  0  0  0  1  0  0  0  0  0  0
  2 10  1  0  0  0  0
  3 11  1  6  0  0  0
  3 16  1  0  0  0  0
  3 13  1  0  0  0  0
  4 10  2  0  0  0  0
  4  9  1  0  0  0  0
  5  7  1  0  0  0  0
  5  1  2  0  0  0  0
  6  7  1  0  0  0  0
  8 19  1  1  0  0  0
  8 15  1  0  0  0  0
  9 18  2  0  0  0  0
 10  5  1  0  0  0  0
 12 17  2  0  0  0  0
 13 14  1  6  0  0  0
 13  6  1  0  0  0  0
 15  2  2  0  0  0  0
 16  2  1  1  0  0  0
 16 13  1  0  0  0  0
 17  8  1  0  0  0  0
 17 11  1  0  0  0  0
 18  1  1  0  0  0  0
 20 19  1  0  0  0  0
 21 23  1  0  0  0  0
 21 22  1  0  0  0  0
 23 22  1  0  0  0  0
 23 19  1  0  0  0  0
 24  9  1  0  0  0  0
 24 25  1  0  0  0  0
 25 26  1  0  0  0  0
 26 28  1  0  0  0  0
 28 30  1  0  0  0  0
 28 27  1  1  0  0  0
 29 30  1  0  0  0  0
 30 31  1  0  0  0  0
M  END
>  <MODEL>
2

>  <REMARK>
 VINA RESULT:      -8.2      3.203      8.343
  Name = 
  7 active torsions:
  status: ('A' for Active; 'I' for Inactive)
    1  A    between atoms: C_2  and  C_15
    2  A    between atoms: C_2  and  C_17
    3  A    between atoms: C_11  and  C_12
    4  A    between atoms: C_12  and  O_31
    5  A    between atoms: C_15  and  O_31
    6  A    between atoms: C_16  and  N_19
    7  A    between atoms: N_19  and  C_25
                            x       y       z     vdW  Elec       q    Type
                         _______ _______ _______ _____ _____    ______ ____

>  <TORSDO>
F 7

$$$$
=
 OpenBabel11062415033D

 31 35  0  0  1  0  0  0  0  0999 V2000
  184.8870  178.2360  146.6780 C   0  0  0  0  0  3  0  0  0  0  0  0
  188.3360  177.6320  145.1900 C   0  0  0  0  0  0  0  0  0  0  0  0
  189.5900  176.7900  146.8390 C   0  0  1  0  0  3  0  0  0  0  0  0
  186.1720  178.2900  144.2040 C   0  0  0  0  0  3  0  0  0  0  0  0
  186.2430  177.8980  146.6020 C   0  0  0  0  0  0  0  0  0  0  0  0
  188.0220  178.3080  148.3320 C   0  0  0  0  0  2  0  0  0  0  0  0
  186.8990  177.3930  147.8520 C   0  0  0  0  0  2  0  0  0  0  0  0
  190.1890  176.6640  143.8490 C   0  0  2  0  0  3  0  0  0  0  0  0
  184.8210  178.6310  144.2930 C   0  0  0  0  0  0  0  0  0  0  0  0
  186.9000  177.9340  145.3460 C   0  0  0  0  0  0  0  0  0  0  0  0
  190.9010  176.4150  146.3660 N   0  0  0  0  0  2  0  0  0  0  0  0
  191.9420  175.2270  144.6640 O   0  0  0  0  0  0  0  0  0  0  0  0
  189.3660  178.0280  147.6560 C   0  0  1  0  0  0  0  0  0  0  0  0
  190.5040  178.5990  148.2250 O   0  0  0  0  0  1  0  0  0  0  0  0
  188.7590  176.9130  144.1810 N   0  0  0  0  0  0  0  0  0  0  0  0
  189.3490  178.1340  146.1490 C   0  0  2  0  0  3  0  0  0  0  0  0
  191.0290  176.0340  144.9810 C   0  0  0  0  0  0  0  0  0  0  0  0
  184.1780  178.6060  145.5340 C   0  0  0  0  0  3  0  0  0  0  0  0
  190.8370  177.8720  143.3000 N   0  0  0  0  0  0  0  0  0  0  0  0
  191.9230  178.2400  144.2030 C   0  0  0  0  0  1  0  0  0  0  0  0
  190.5570  177.9230  140.8630 C   0  0  0  0  0  2  0  0  0  0  0  0
  190.6630  176.4840  141.3010 C   0  0  0  0  0  2  0  0  0  0  0  0
  191.4730  177.5480  142.0200 C   0  0  0  0  0  3  0  0  0  0  0  0
  184.0670  178.9950  143.0600 C   0  0  0  0  0  2  0  0  0  0  0  0
  182.5750  178.8980  143.3110 C   0  0  0  0  0  2  0  0  0  0  0  0
  181.9120  178.7460  142.0910 O   0  0  0  0  0  0  0  0  0  0  0  0
  180.4070  178.6070  143.9310 C   0  0  0  0  0  1  0  0  0  0  0  0
  180.5580  178.6620  142.4200 C   0  0  1  0  0  3  0  0  0  0  0  0
  179.8450  180.9450  142.6950 O   0  0  0  0  0  1  0  0  0  0  0  0
  179.8010  179.8520  141.8250 C   0  0  0  0  0  3  0  0  0  0  0  0
  180.3420  180.2110  140.5870 O   0  0  0  0  0  1  0  0  0  0  0  0
  2 10  1  0  0  0  0
  3 11  1  1  0  0  0
  3 13  1  0  0  0  0
  4  9  2  0  0  0  0
  4 10  1  0  0  0  0
  5  1  1  0  0  0  0
  5  7  1  0  0  0  0
  7  6  1  0  0  0  0
  8 19  1  1  0  0  0
  8 15  1  0  0  0  0
  8 17  1  0  0  0  0
  9 18  1  0  0  0  0
 10  5  2  0  0  0  0
 12 17  2  0  0  0  0
 13 14  1  1  0  0  0
 13  6  1  0  0  0  0
 15  2  2  0  0  0  0
 16  2  1  6  0  0  0
 16  3  1  0  0  0  0
 16 13  1  0  0  0  0
 17 11  1  0  0  0  0
 18  1  2  0  0  0  0
 19 20  1  0  0  0  0
 21 22  1  0  0  0  0
 21 23  1  0  0  0  0
 22 23  1  0  0  0  0
 23 19  1  0  0  0  0
 24 25  1  0  0  0  0
 24  9  1  0  0  0  0
 26 28  1  0  0  0  0
 26 25  1  0  0  0  0
 28 27  1  1  0  0  0
 30 28  1  0  0  0  0
 30 29  1  0  0  0  0
 31 30  1  0  0  0  0
M  END
>  <MODEL>
3

>  <REMARK>
 VINA RESULT:      -7.9      1.744      2.202
  Name = 
  7 active torsions:
  status: ('A' for Active; 'I' for Inactive)
    1  A    between atoms: C_2  and  C_15
    2  A    between atoms: C_2  and  C_17
    3  A    between atoms: C_11  and  C_12
    4  A    between atoms: C_12  and  O_31
    5  A    between atoms: C_15  and  O_31
    6  A    between atoms: C_16  and  N_19
    7  A    between atoms: N_19  and  C_25
                            x       y       z     vdW  Elec       q    Type
                         _______ _______ _______ _____ _____    ______ ____

>  <TORSDO>
F 7

$$$$
=
 OpenBabel11062415033D

 31 35  0  0  1  0  0  0  0  0999 V2000
  184.9420  178.3870  146.5140 C   0  0  0  0  0  3  0  0  0  0  0  0
  187.7890  177.5290  144.1400 C   0  0  0  0  0  0  0  0  0  0  0  0
  189.4200  176.6670  145.4050 C   0  0  1  0  0  3  0  0  0  0  0  0
  185.4680  178.2850  143.7780 C   0  0  0  0  0  3  0  0  0  0  0  0
  186.2020  177.9660  146.0730 C   0  0  0  0  0  0  0  0  0  0  0  0
  188.4190  178.3230  147.2060 C   0  0  0  0  0  2  0  0  0  0  0  0
  187.1630  177.4630  147.1090 C   0  0  0  0  0  2  0  0  0  0  0  0
  189.1330  176.4100  142.3770 C   0  0  2  0  0  3  0  0  0  0  0  0
  184.2170  178.7090  144.2300 C   0  0  0  0  0  0  0  0  0  0  0  0
  186.4740  177.9220  144.6830 C   0  0  0  0  0  0  0  0  0  0  0  0
  190.5210  176.1990  144.5970 N   0  0  0  0  0  2  0  0  0  0  0  0
  190.9740  174.8970  142.7290 O   0  0  0  0  0  0  0  0  0  0  0  0
  189.4990  177.9420  146.1910 C   0  0  1  0  0  0  0  0  0  0  0  0
  190.7780  178.4610  146.3870 O   0  0  0  0  0  1  0  0  0  0  0  0
  187.8710  176.7550  143.0880 N   0  0  0  0  0  0  0  0  0  0  0  0
  189.0570  178.0000  144.7470 C   0  0  2  0  0  3  0  0  0  0  0  0
  190.2300  175.7670  143.2530 C   0  0  0  0  0  0  0  0  0  0  0  0
  183.9550  178.7620  145.6010 C   0  0  0  0  0  3  0  0  0  0  0  0
  189.6540  177.5590  141.6090 N   0  0  0  0  0  0  0  0  0  0  0  0
  191.1060  177.5690  141.7630 C   0  0  0  0  0  1  0  0  0  0  0  0
  189.2400  178.6840  139.4700 C   0  0  0  0  0  2  0  0  0  0  0  0
  188.0230  177.8660  139.8210 C   0  0  0  0  0  2  0  0  0  0  0  0
  189.4050  177.3480  140.1810 C   0  0  0  0  0  3  0  0  0  0  0  0
  183.1610  179.0780  143.2450 C   0  0  0  0  0  2  0  0  0  0  0  0
  183.5660  178.6390  141.8520 C   0  0  0  0  0  2  0  0  0  0  0  0
  182.4930  178.8290  140.9790 O   0  0  0  0  0  0  0  0  0  0  0  0
  181.9490  178.8120  138.6610 C   0  0  0  0  0  1  0  0  0  0  0  0
  182.9740  178.4530  139.7240 C   0  0  1  0  0  3  0  0  0  0  0  0
  185.0390  178.4200  138.4870 O   0  0  0  0  0  1  0  0  0  0  0  0
  184.3200  179.1290  139.4550 C   0  0  0  0  0  3  0  0  0  0  0  0
  184.1350  180.4480  139.0340 O   0  0  0  0  0  1  0  0  0  0  0  0
  2 10  1  0  0  0  0
  3 11  1  6  0  0  0
  3 13  1  0  0  0  0
  4  9  2  0  0  0  0
  4 10  1  0  0  0  0
  5  1  1  0  0  0  0
  5  7  1  0  0  0  0
  7  6  1  0  0  0  0
  8 19  1  1  0  0  0
  8 15  1  0  0  0  0
  8 17  1  0  0  0  0
  9 18  1  0  0  0  0
 10  5  2  0  0  0  0
 12 17  2  0  0  0  0
 13 14  1  1  0  0  0
 13  6  1  0  0  0  0
 15  2  2  0  0  0  0
 16  2  1  1  0  0  0
 16  3  1  0  0  0  0
 16 13  1  0  0  0  0
 17 11  1  0  0  0  0
 18  1  2  0  0  0  0
 19 20  1  0  0  0  0
 21 22  1  0  0  0  0
 21 23  1  0  0  0  0
 22 23  1  0  0  0  0
 23 19  1  0  0  0  0
 24  9  1  0  0  0  0
 25 24  1  0  0  0  0
 26 25  1  0  0  0  0
 28 27  1  6  0  0  0
 28 26  1  0  0  0  0
 29 30  1  0  0  0  0
 30 28  1  0  0  0  0
 31 30  1  0  0  0  0
M  END
>  <MODEL>
4

>  <REMARK>
 VINA RESULT:      -7.8      1.240      1.590
  Name = 
  7 active torsions:
  status: ('A' for Active; 'I' for Inactive)
    1  A    between atoms: C_2  and  C_15
    2  A    between atoms: C_2  and  C_17
    3  A    between atoms: C_11  and  C_12
    4  A    between atoms: C_12  and  O_31
    5  A    between atoms: C_15  and  O_31
    6  A    between atoms: C_16  and  N_19
    7  A    between atoms: N_19  and  C_25
                            x       y       z     vdW  Elec       q    Type
                         _______ _______ _______ _____ _____    ______ ____

>  <TORSDO>
F 7

$$$$
=
 OpenBabel11062415033D

 31 35  0  0  1  0  0  0  0  0999 V2000
  184.4320  178.7530  145.0670 C   0  0  0  0  0  3  0  0  0  0  0  0
  183.5020  178.4950  141.3860 C   0  0  0  0  0  0  0  0  0  0  0  0
  181.4870  179.4450  141.1820 C   0  0  1  0  0  3  0  0  0  0  0  0
  185.5710  177.9990  142.6360 C   0  0  0  0  0  3  0  0  0  0  0  0
  183.6730  178.8510  143.8940 C   0  0  0  0  0  0  0  0  0  0  0  0
  181.1920  178.5250  143.6420 C   0  0  0  0  0  2  0  0  0  0  0  0
  182.3200  179.4880  143.9980 C   0  0  0  0  0  2  0  0  0  0  0  0
  183.4670  178.8680  138.9310 C   0  0  2  0  0  3  0  0  0  0  0  0
  186.3150  177.9000  143.8120 C   0  0  0  0  0  0  0  0  0  0  0  0
  184.2480  178.4600  142.6580 C   0  0  0  0  0  0  0  0  0  0  0  0
  181.0710  179.5060  139.8010 N   0  0  0  0  0  2  0  0  0  0  0  0
  181.8340  180.1470  137.7040 O   0  0  0  0  0  0  0  0  0  0  0  0
  180.9080  178.4470  142.1410 C   0  0  1  0  0  0  0  0  0  0  0  0
  179.7230  177.8320  141.7420 O   0  0  0  0  0  1  0  0  0  0  0  0
  184.0760  178.9190  140.2890 N   0  0  0  0  0  0  0  0  0  0  0  0
  182.0930  178.0430  141.2940 C   0  0  2  0  0  3  0  0  0  0  0  0
  182.1000  179.5740  138.7930 C   0  0  0  0  0  0  0  0  0  0  0  0
  185.7430  178.2750  145.0300 C   0  0  0  0  0  3  0  0  0  0  0  0
  183.4200  177.4880  138.4090 N   0  0  0  0  0  0  0  0  0  0  0  0
  182.0260  177.1770  138.1060 C   0  0  0  0  0  1  0  0  0  0  0  0
  185.1330  176.2770  137.1370 C   0  0  0  0  0  2  0  0  0  0  0  0
  185.6090  177.6910  137.3510 C   0  0  0  0  0  2  0  0  0  0  0  0
  184.1310  177.4230  137.1290 C   0  0  0  0  0  3  0  0  0  0  0  0
  187.7240  177.4170  143.7580 C   0  0  0  0  0  2  0  0  0  0  0  0
  188.4510  177.7760  145.0390 C   0  0  0  0  0  2  0  0  0  0  0  0
  189.6920  177.1370  145.0600 O   0  0  0  0  0  0  0  0  0  0  0  0
  191.1590  178.7290  144.0680 C   0  0  0  0  0  1  0  0  0  0  0  0
  190.3040  177.4910  143.8560 C   0  0  1  0  0  3  0  0  0  0  0  0
  191.8480  175.7170  144.3690 O   0  0  0  0  0  1  0  0  0  0  0  0
  191.1360  176.3200  143.3280 C   0  0  0  0  0  3  0  0  0  0  0  0
  190.3170  175.3740  142.7060 O   0  0  0  0  0  1  0  0  0  0  0  0
  2 10  1  0  0  0  0
  3 11  1  6  0  0  0
  3 16  1  0  0  0  0
  3 13  1  0  0  0  0
  4 10  2  0  0  0  0
  4  9  1  0  0  0  0
  5  7  1  0  0  0  0
  5  1  2  0  0  0  0
  6  7  1  0  0  0  0
  8 19  1  1  0  0  0
  8 15  1  0  0  0  0
  9 18  2  0  0  0  0
 10  5  1  0  0  0  0
 12 17  2  0  0  0  0
 13 14  1  6  0  0  0
 13  6  1  0  0  0  0
 15  2  2  0  0  0  0
 16  2  1  1  0  0  0
 16 13  1  0  0  0  0
 17  8  1  0  0  0  0
 17 11  1  0  0  0  0
 18  1  1  0  0  0  0
 20 19  1  0  0  0  0
 21 22  1  0  0  0  0
 23 21  1  0  0  0  0
 23 22  1  0  0  0  0
 23 19  1  0  0  0  0
 24  9  1  0  0  0  0
 24 25  1  0  0  0  0
 25 26  1  0  0  0  0
 28 27  1  1  0  0  0
 28 26  1  0  0  0  0
 30 28  1  0  0  0  0
 30 29  1  0  0  0  0
 31 30  1  0  0  0  0
M  END
>  <MODEL>
5

>  <REMARK>
 VINA RESULT:      -7.8      3.257      8.143
  Name = 
  7 active torsions:
  status: ('A' for Active; 'I' for Inactive)
    1  A    between atoms: C_2  and  C_15
    2  A    between atoms: C_2  and  C_17
    3  A    between atoms: C_11  and  C_12
    4  A    between atoms: C_12  and  O_31
    5  A    between atoms: C_15  and  O_31
    6  A    between atoms: C_16  and  N_19
    7  A    between atoms: N_19  and  C_25
                            x       y       z     vdW  Elec       q    Type
                         _______ _______ _______ _____ _____    ______ ____

>  <TORSDO>
F 7

$$$$
=
 OpenBabel11062415033D

 31 35  0  0  1  0  0  0  0  0999 V2000
  185.5030  178.7730  140.8560 C   0  0  0  0  0  3  0  0  0  0  0  0
  188.3950  177.9560  143.1890 C   0  0  0  0  0  0  0  0  0  0  0  0
  190.2550  178.1000  141.9550 C   0  0  1  0  0  3  0  0  0  0  0  0
  185.9840  178.3230  143.5650 C   0  0  0  0  0  3  0  0  0  0  0  0
  186.8090  178.5140  141.2870 C   0  0  0  0  0  0  0  0  0  0  0  0
  188.6220  177.2990  140.0360 C   0  0  0  0  0  2  0  0  0  0  0  0
  187.9060  178.6260  140.2700 C   0  0  0  0  0  2  0  0  0  0  0  0
  190.0840  178.1300  145.0020 C   0  0  2  0  0  3  0  0  0  0  0  0
  184.6840  178.5770  143.1230 C   0  0  0  0  0  0  0  0  0  0  0  0
  187.0540  178.2770  142.6620 C   0  0  0  0  0  0  0  0  0  0  0  0
  191.4380  177.9160  142.7610 N   0  0  0  0  0  2  0  0  0  0  0  0
  192.4210  178.6510  144.7310 O   0  0  0  0  0  0  0  0  0  0  0  0
  189.7430  177.0260  141.0400 C   0  0  1  0  0  0  0  0  0  0  0  0
  190.6380  176.0000  140.7420 O   0  0  0  0  0  1  0  0  0  0  0  0
  188.8140  178.4860  144.3100 N   0  0  0  0  0  0  0  0  0  0  0  0
  189.3070  177.0220  142.4870 C   0  0  2  0  0  3  0  0  0  0  0  0
  191.3640  178.2850  144.1520 C   0  0  0  0  0  0  0  0  0  0  0  0
  184.4440  178.7990  141.7650 C   0  0  0  0  0  3  0  0  0  0  0  0
  190.0050  176.7950  145.6270 N   0  0  0  0  0  0  0  0  0  0  0  0
  191.2550  176.0980  145.3390 C   0  0  0  0  0  1  0  0  0  0  0  0
  188.5330  176.7270  147.5880 C   0  0  0  0  0  2  0  0  0  0  0  0
  189.0810  178.1250  147.4520 C   0  0  0  0  0  2  0  0  0  0  0  0
  189.9540  176.9380  147.0850 C   0  0  0  0  0  3  0  0  0  0  0  0
  183.5660  178.6320  144.1060 C   0  0  0  0  0  2  0  0  0  0  0  0
  182.2420  178.7940  143.3850 C   0  0  0  0  0  2  0  0  0  0  0  0
  181.1980  178.5790  144.2860 O   0  0  0  0  0  0  0  0  0  0  0  0
  178.9520  179.3600  144.4120 C   0  0  0  0  0  1  0  0  0  0  0  0
  180.0310  178.7420  143.5380 C   0  0  1  0  0  3  0  0  0  0  0  0
  179.7890  179.0060  141.1580 O   0  0  0  0  0  1  0  0  0  0  0  0
  180.3160  179.6040  142.3060 C   0  0  0  0  0  3  0  0  0  0  0  0
  179.7760  180.8830  142.4630 O   0  0  0  0  0  1  0  0  0  0  0  0
  1  5  2  0  0  0  0
  1 18  1  0  0  0  0
  2 15  2  0  0  0  0
  3 16  1  0  0  0  0
  3 11  1  1  0  0  0
  5 10  1  0  0  0  0
  6  7  1  0  0  0  0
  6 13  1  0  0  0  0
  7  5  1  0  0  0  0
  8 19  1  6  0  0  0
  9  4  1  0  0  0  0
  9 24  1  0  0  0  0
 10  2  1  0  0  0  0
 10  4  2  0  0  0  0
 11 17  1  0  0  0  0
 13 14  1  6  0  0  0
 13  3  1  0  0  0  0
 13 16  1  0  0  0  0
 15  8  1  0  0  0  0
 16  2  1  6  0  0  0
 17 12  2  0  0  0  0
 17  8  1  0  0  0  0
 18  9  2  0  0  0  0
 19 23  1  0  0  0  0
 20 19  1  0  0  0  0
 22 21  1  0  0  0  0
 23 22  1  0  0  0  0
 23 21  1  0  0  0  0
 25 24  1  0  0  0  0
 25 26  1  0  0  0  0
 28 26  1  0  0  0  0
 28 27  1  1  0  0  0
 29 30  1  0  0  0  0
 30 31  1  0  0  0  0
 30 28  1  0  0  0  0
M  END
>  <MODEL>
6

>  <REMARK>
 VINA RESULT:      -7.5      2.509      4.936
  Name = 
  7 active torsions:
  status: ('A' for Active; 'I' for Inactive)
    1  A    between atoms: C_2  and  C_15
    2  A    between atoms: C_2  and  C_17
    3  A    between atoms: C_11  and  C_12
    4  A    between atoms: C_12  and  O_31
    5  A    between atoms: C_15  and  O_31
    6  A    between atoms: C_16  and  N_19
    7  A    between atoms: N_19  and  C_25
                            x       y       z     vdW  Elec       q    Type
                         _______ _______ _______ _____ _____    ______ ____

>  <TORSDO>
F 7

$$$$
=
 OpenBabel11062415033D

 31 35  0  0  1  0  0  0  0  0999 V2000
  186.8190  178.5200  137.1740 C   0  0  0  0  0  3  0  0  0  0  0  0
  188.7020  177.6790  140.3710 C   0  0  0  0  0  0  0  0  0  0  0  0
  190.8670  177.5890  139.8160 C   0  0  1  0  0  3  0  0  0  0  0  0
  186.3470  178.2490  139.9080 C   0  0  0  0  0  3  0  0  0  0  0  0
  187.8830  178.2010  138.0250 C   0  0  0  0  0  0  0  0  0  0  0  0
  189.8800  176.7620  137.5070 C   0  0  0  0  0  2  0  0  0  0  0  0
  189.2560  178.1520  137.4250 C   0  0  0  0  0  2  0  0  0  0  0  0
  189.7170  177.8690  142.6290 C   0  0  2  0  0  3  0  0  0  0  0  0
  185.2920  178.5620  139.0490 C   0  0  0  0  0  0  0  0  0  0  0  0
  187.6430  178.0540  139.4150 C   0  0  0  0  0  0  0  0  0  0  0  0
  191.7000  177.3820  140.9770 N   0  0  0  0  0  2  0  0  0  0  0  0
  192.0530  178.1940  143.1230 O   0  0  0  0  0  0  0  0  0  0  0  0
  190.5820  176.4870  138.8380 C   0  0  1  0  0  0  0  0  0  0  0  0
  191.4240  175.3780  138.9050 O   0  0  0  0  0  1  0  0  0  0  0  0
  188.7820  178.2620  141.5400 N   0  0  0  0  0  0  0  0  0  0  0  0
  189.7010  176.6280  140.0580 C   0  0  2  0  0  3  0  0  0  0  0  0
  191.2130  177.8630  142.2450 C   0  0  0  0  0  0  0  0  0  0  0  0
  185.5290  178.6940  137.6780 C   0  0  0  0  0  3  0  0  0  0  0  0
  189.3130  176.5960  143.2590 N   0  0  0  0  0  0  0  0  0  0  0  0
  190.4150  175.6530  143.0950 C   0  0  0  0  0  1  0  0  0  0  0  0
  187.7150  177.1110  145.0470 C   0  0  0  0  0  2  0  0  0  0  0  0
  188.7360  178.2190  144.9870 C   0  0  0  0  0  2  0  0  0  0  0  0
  189.1620  176.7890  144.7040 C   0  0  0  0  0  3  0  0  0  0  0  0
  183.9250  178.7760  139.6020 C   0  0  0  0  0  2  0  0  0  0  0  0
  183.7940  178.0980  140.9510 C   0  0  0  0  0  2  0  0  0  0  0  0
  183.2910  179.0120  141.8790 O   0  0  0  0  0  0  0  0  0  0  0  0
  185.3040  179.1690  143.1420 C   0  0  0  0  0  1  0  0  0  0  0  0
  183.8740  178.6550  143.0960 C   0  0  1  0  0  3  0  0  0  0  0  0
  181.7740  178.6200  144.2720 O   0  0  0  0  0  1  0  0  0  0  0  0
  183.0430  179.2070  144.2560 C   0  0  0  0  0  3  0  0  0  0  0  0
  183.6850  178.9770  145.4760 O   0  0  0  0  0  1  0  0  0  0  0  0
  1 18  2  0  0  0  0
  1  5  1  0  0  0  0
  2 15  2  0  0  0  0
  3 16  1  0  0  0  0
  3 11  1  1  0  0  0
  5 10  2  0  0  0  0
  6 13  1  0  0  0  0
  7  6  1  0  0  0  0
  7  5  1  0  0  0  0
  8 19  1  6  0  0  0
  9 24  1  0  0  0  0
  9  4  2  0  0  0  0
 10  4  1  0  0  0  0
 10  2  1  0  0  0  0
 11 17  1  0  0  0  0
 13 14  1  1  0  0  0
 13  3  1  0  0  0  0
 13 16  1  0  0  0  0
 15  8  1  0  0  0  0
 16  2  1  6  0  0  0
 17  8  1  0  0  0  0
 17 12  2  0  0  0  0
 18  9  1  0  0  0  0
 19 23  1  0  0  0  0
 20 19  1  0  0  0  0
 22 21  1  0  0  0  0
 23 22  1  0  0  0  0
 23 21  1  0  0  0  0
 24 25  1  0  0  0  0
 25 26  1  0  0  0  0
 26 28  1  0  0  0  0
 28 27  1  6  0  0  0
 28 30  1  0  0  0  0
 30 29  1  0  0  0  0
 30 31  1  0  0  0  0
M  END
>  <MODEL>
7

>  <REMARK>
 VINA RESULT:      -7.3      2.301      6.107
  Name = 
  7 active torsions:
  status: ('A' for Active; 'I' for Inactive)
    1  A    between atoms: C_2  and  C_15
    2  A    between atoms: C_2  and  C_17
    3  A    between atoms: C_11  and  C_12
    4  A    between atoms: C_12  and  O_31
    5  A    between atoms: C_15  and  O_31
    6  A    between atoms: C_16  and  N_19
    7  A    between atoms: N_19  and  C_25
                            x       y       z     vdW  Elec       q    Type
                         _______ _______ _______ _____ _____    ______ ____

>  <TORSDO>
F 7

$$$$
=
 OpenBabel11062415033D

 31 35  0  0  1  0  0  0  0  0999 V2000
  182.8280  179.0030  141.9550 C   0  0  0  0  0  3  0  0  0  0  0  0
  186.1530  178.3260  140.2350 C   0  0  0  0  0  0  0  0  0  0  0  0
  185.8020  178.6430  138.0490 C   0  0  1  0  0  3  0  0  0  0  0  0
  185.4930  178.5050  142.6050 C   0  0  0  0  0  3  0  0  0  0  0  0
  183.7630  178.8260  140.9290 C   0  0  0  0  0  0  0  0  0  0  0  0
  183.3800  177.7850  138.6710 C   0  0  0  0  0  2  0  0  0  0  0  0
  183.2930  179.0480  139.5220 C   0  0  0  0  0  2  0  0  0  0  0  0
  188.5030  178.5660  139.4680 C   0  0  2  0  0  3  0  0  0  0  0  0
  184.5510  178.6770  143.6210 C   0  0  0  0  0  0  0  0  0  0  0  0
  185.1170  178.5640  141.2580 C   0  0  0  0  0  0  0  0  0  0  0  0
  187.0270  178.5200  137.2950 N   0  0  0  0  0  2  0  0  0  0  0  0
  189.2270  179.2630  137.2780 O   0  0  0  0  0  0  0  0  0  0  0  0
  184.7600  177.5640  138.0490 C   0  0  1  0  0  0  0  0  0  0  0  0
  184.8630  176.6150  137.0330 O   0  0  0  0  0  1  0  0  0  0  0  0
  187.3460  178.8500  140.3610 N   0  0  0  0  0  0  0  0  0  0  0  0
  185.8950  177.4830  139.0430 C   0  0  2  0  0  3  0  0  0  0  0  0
  188.2620  178.8400  137.9670 C   0  0  0  0  0  0  0  0  0  0  0  0
  183.2150  178.9230  143.2940 C   0  0  0  0  0  3  0  0  0  0  0  0
  189.0420  177.2100  139.6930 N   0  0  0  0  0  0  0  0  0  0  0  0
  189.4650  176.6830  138.3990 C   0  0  0  0  0  1  0  0  0  0  0  0
  190.1400  176.3930  141.7290 C   0  0  0  0  0  2  0  0  0  0  0  0
  189.9230  177.8790  141.8680 C   0  0  0  0  0  2  0  0  0  0  0  0
  190.2580  177.2930  140.5070 C   0  0  0  0  0  3  0  0  0  0  0  0
  184.9810  178.6200  145.0470 C   0  0  0  0  0  2  0  0  0  0  0  0
  186.3160  177.9130  145.1640 C   0  0  0  0  0  2  0  0  0  0  0  0
  186.9520  178.3200  146.3380 O   0  0  0  0  0  0  0  0  0  0  0  0
  188.6880  177.1300  145.2260 C   0  0  0  0  0  1  0  0  0  0  0  0
  187.9730  177.3910  146.5410 C   0  0  1  0  0  3  0  0  0  0  0  0
  188.3250  177.8980  148.8680 O   0  0  0  0  0  1  0  0  0  0  0  0
  188.9400  177.9020  147.6120 C   0  0  0  0  0  3  0  0  0  0  0  0
  190.0950  177.1160  147.6490 O   0  0  0  0  0  1  0  0  0  0  0  0
  1 18  1  0  0  0  0
  2 15  2  0  0  0  0
  2 10  1  0  0  0  0
  3 11  1  6  0  0  0
  3 13  1  0  0  0  0
  3 16  1  0  0  0  0
  4  9  1  0  0  0  0
  5 10  1  0  0  0  0
  5  1  2  0  0  0  0
  6  7  1  0  0  0  0
  7  5  1  0  0  0  0
  8 19  1  6  0  0  0
  8 15  1  0  0  0  0
  9 24  1  0  0  0  0
 10  4  2  0  0  0  0
 11 17  1  0  0  0  0
 12 17  2  0  0  0  0
 13 14  1  6  0  0  0
 13  6  1  0  0  0  0
 13 16  1  0  0  0  0
 16  2  1  1  0  0  0
 17  8  1  0  0  0  0
 18  9  2  0  0  0  0
 19 23  1  0  0  0  0
 20 19  1  0  0  0  0
 21 22  1  0  0  0  0
 23 21  1  0  0  0  0
 23 22  1  0  0  0  0
 24 25  1  0  0  0  0
 25 26  1  0  0  0  0
 26 28  1  0  0  0  0
 28 27  1  6  0  0  0
 28 30  1  0  0  0  0
 30 31  1  0  0  0  0
 30 29  1  0  0  0  0
M  END
>  <MODEL>
8

>  <REMARK>
 VINA RESULT:      -7.2      2.568      7.196
  Name = 
  7 active torsions:
  status: ('A' for Active; 'I' for Inactive)
    1  A    between atoms: C_2  and  C_15
    2  A    between atoms: C_2  and  C_17
    3  A    between atoms: C_11  and  C_12
    4  A    between atoms: C_12  and  O_31
    5  A    between atoms: C_15  and  O_31
    6  A    between atoms: C_16  and  N_19
    7  A    between atoms: N_19  and  C_25
                            x       y       z     vdW  Elec       q    Type
                         _______ _______ _______ _____ _____    ______ ____

>  <TORSDO>
F 7

$$$$
=
 OpenBabel11062415033D

 31 35  0  0  1  0  0  0  0  0999 V2000
  186.5570  177.9340  145.9970 C   0  0  0  0  0  3  0  0  0  0  0  0
  188.1420  177.8320  142.5390 C   0  0  0  0  0  0  0  0  0  0  0  0
  190.2270  177.0760  142.8290 C   0  0  1  0  0  3  0  0  0  0  0  0
  185.8420  178.2630  143.3220 C   0  0  0  0  0  3  0  0  0  0  0  0
  187.5280  177.7710  145.0020 C   0  0  0  0  0  0  0  0  0  0  0  0
  189.9790  178.3160  145.1500 C   0  0  0  0  0  2  0  0  0  0  0  0
  188.8830  177.2930  145.4320 C   0  0  0  0  0  2  0  0  0  0  0  0
  188.6690  177.1650  140.2060 C   0  0  2  0  0  3  0  0  0  0  0  0
  184.8830  178.4290  144.3220 C   0  0  0  0  0  0  0  0  0  0  0  0
  187.1680  177.9460  143.6420 C   0  0  0  0  0  0  0  0  0  0  0  0
  190.9000  176.8890  141.5660 N   0  0  0  0  0  2  0  0  0  0  0  0
  190.5990  175.9200  139.4780 O   0  0  0  0  0  0  0  0  0  0  0  0
  190.5350  178.2370  143.7270 C   0  0  1  0  0  0  0  0  0  0  0  0
  191.7220  178.9170  143.4610 O   0  0  0  0  0  1  0  0  0  0  0  0
  187.8210  177.2200  141.4280 N   0  0  0  0  0  0  0  0  0  0  0  0
  189.5040  178.4110  142.6360 C   0  0  2  0  0  3  0  0  0  0  0  0
  190.0880  176.5920  140.4120 C   0  0  0  0  0  0  0  0  0  0  0  0
  185.2430  178.2670  145.6630 C   0  0  0  0  0  3  0  0  0  0  0  0
  188.7060  178.4690  139.5120 N   0  0  0  0  0  0  0  0  0  0  0  0
  189.8390  178.4470  138.5920 C   0  0  0  0  0  1  0  0  0  0  0  0
  187.2780  177.3450  137.8650 C   0  0  0  0  0  2  0  0  0  0  0  0
  187.9050  178.5500  137.2090 C   0  0  0  0  0  2  0  0  0  0  0  0
  187.5120  178.6120  138.6750 C   0  0  0  0  0  3  0  0  0  0  0  0
  183.4770  178.7540  143.9530 C   0  0  0  0  0  2  0  0  0  0  0  0
  183.2900  178.6460  142.4530 C   0  0  0  0  0  2  0  0  0  0  0  0
  181.9630  178.9390  142.1310 O   0  0  0  0  0  0  0  0  0  0  0  0
  182.9940  177.6410  140.4220 C   0  0  0  0  0  1  0  0  0  0  0  0
  181.7990  178.4910  140.8190 C   0  0  1  0  0  3  0  0  0  0  0  0
  180.7280  176.4330  140.1770 O   0  0  0  0  0  1  0  0  0  0  0  0
  180.4890  177.7110  140.6930 C   0  0  0  0  0  3  0  0  0  0  0  0
  179.8540  177.6090  141.9330 O   0  0  0  0  0  1  0  0  0  0  0  0
  2 10  1  0  0  0  0
  3 11  1  6  0  0  0
  3 13  1  0  0  0  0
  4 10  2  0  0  0  0
  4  9  1  0  0  0  0
  5  7  1  0  0  0  0
  5  1  2  0  0  0  0
  6  7  1  0  0  0  0
  8 19  1  1  0  0  0
  8 17  1  0  0  0  0
  8 15  1  0  0  0  0
  9 18  2  0  0  0  0
 10  5  1  0  0  0  0
 12 17  2  0  0  0  0
 13 14  1  6  0  0  0
 13  6  1  0  0  0  0
 15  2  2  0  0  0  0
 16  2  1  1  0  0  0
 16  3  1  0  0  0  0
 16 13  1  0  0  0  0
 17 11  1  0  0  0  0
 18  1  1  0  0  0  0
 20 19  1  0  0  0  0
 21 23  1  0  0  0  0
 22 21  1  0  0  0  0
 22 23  1  0  0  0  0
 23 19  1  0  0  0  0
 24  9  1  0  0  0  0
 25 24  1  0  0  0  0
 26 25  1  0  0  0  0
 28 27  1  1  0  0  0
 28 26  1  0  0  0  0
 29 30  1  0  0  0  0
 30 28  1  0  0  0  0
 30 31  1  0  0  0  0
M  END
>  <MODEL>
9

>  <REMARK>
 VINA RESULT:      -7.2      2.502      3.640
  Name = 
  7 active torsions:
  status: ('A' for Active; 'I' for Inactive)
    1  A    between atoms: C_2  and  C_15
    2  A    between atoms: C_2  and  C_17
    3  A    between atoms: C_11  and  C_12
    4  A    between atoms: C_12  and  O_31
    5  A    between atoms: C_15  and  O_31
    6  A    between atoms: C_16  and  N_19
    7  A    between atoms: N_19  and  C_25
                            x       y       z     vdW  Elec       q    Type
                         _______ _______ _______ _____ _____    ______ ____

>  <TORSDO>
F 7

$$$$
