=
 OpenBabel11062412293D

 33 35  0  0  1  0  0  0  0  0999 V2000
  185.9820  178.5490  142.2480 C   0  0  0  0  0  0  0  0  0  0  0  0
  184.2180  179.2280  144.6500 C   0  0  0  0  0  3  0  0  0  0  0  0
  181.9020  178.6860  144.1210 O   0  0  0  0  0  1  0  0  0  0  0  0
  185.5100  178.9040  144.6500 C   0  0  0  0  0  3  0  0  0  0  0  0
  186.1030  177.9820  143.6380 C   0  0  2  0  0  3  0  0  0  0  0  0
  184.7790  178.7210  141.6940 C   0  0  0  0  0  3  0  0  0  0  0  0
  183.4670  178.5290  142.3560 C   0  0  0  0  0  0  0  0  0  0  0  0
  183.2120  178.7850  143.6600 C   0  0  0  0  0  0  0  0  0  0  0  0
  191.6310  176.1130  145.3000 Cl  0  0  0  0  0  0  0  0  0  0  0  0
  189.8020  177.9280  146.8150 F   0  0  0  0  0  0  0  0  0  0  0  0
  187.4850  177.5280  144.0140 C   0  0  0  0  0  0  0  0  0  0  0  0
  189.4940  176.2330  143.5780 C   0  0  0  0  0  0  0  0  0  0  0  0
  190.2070  175.3780  142.7450 O   0  0  0  0  0  1  0  0  0  0  0  0
  190.0360  176.6550  144.8010 C   0  0  0  0  0  0  0  0  0  0  0  0
  189.2960  177.5120  145.6280 C   0  0  0  0  0  0  0  0  0  0  0  0
  188.0260  177.9420  145.2350 C   0  0  0  0  0  3  0  0  0  0  0  0
  188.2240  176.6670  143.1890 C   0  0  0  0  0  3  0  0  0  0  0  0
  182.3320  178.1880  141.4450 C   0  0  0  0  0  2  0  0  0  0  0  0
  182.7220  178.4380  139.9990 C   0  0  0  0  0  2  0  0  0  0  0  0
  182.4890  180.4500  138.5970 C   0  0  2  0  0  3  0  0  0  0  0  0
  181.7290  179.3860  139.3610 C   0  0  1  0  0  3  0  0  0  0  0  0
  181.6530  181.6300  138.4680 N   0  0  0  0  0  1  0  0  0  0  0  0
  181.8470  179.2970  137.8550 C   0  0  0  0  0  2  0  0  0  0  0  0
  187.1950  178.8430  141.4160 C   0  0  0  0  0  2  0  0  0  0  0  0
  186.9150  178.6330  140.0010 N   0  0  0  0  0  2  0  0  0  0  0  0
  189.0260  179.3110  138.5540 O   0  0  0  0  0  0  0  0  0  0  0  0
  188.3740  178.1290  139.2160 S   0  0  0  0  0  0  0  0  0  0  0  0
  189.3180  177.5300  140.2230 O   0  0  0  0  0  0  0  0  0  0  0  0
  187.9720  176.9110  137.9780 C   0  0  2  0  0  3  0  0  0  0  0  0
  189.0730  176.6960  137.1470 O   0  0  0  0  0  1  0  0  0  0  0  0
  186.7930  177.3450  137.1700 C   0  0  0  0  0  0  0  0  0  0  0  0
  186.9090  178.2560  136.3070 O   0  0  0  0  0  0  0  0  0  0  0  0
  185.5540  176.7640  137.3980 O   0  0  0  0  0  1  0  0  0  0  0  0
  1  5  1  0  0  0  0
  4  2  2  0  0  0  0
  5 11  1  1  0  0  0
  5  4  1  0  0  0  0
  6  1  2  0  0  0  0
  6  7  1  0  0  0  0
  7  8  2  0  0  0  0
  8  3  1  0  0  0  0
  8  2  1  0  0  0  0
 11 16  1  0  0  0  0
 12 14  2  0  0  0  0
 13 12  1  0  0  0  0
 14  9  1  0  0  0  0
 14 15  1  0  0  0  0
 15 10  1  0  0  0  0
 16 15  2  0  0  0  0
 17 12  1  0  0  0  0
 17 11  2  0  0  0  0
 18  7  1  0  0  0  0
 19 18  1  0  0  0  0
 20 22  1  6  0  0  0
 20 21  1  0  0  0  0
 21 19  1  1  0  0  0
 23 20  1  0  0  0  0
 23 21  1  0  0  0  0
 24  1  1  0  0  0  0
 25 24  1  0  0  0  0
 26 27  2  0  0  0  0
 27 25  1  0  0  0  0
 27 28  2  0  0  0  0
 29 30  1  6  0  0  0
 29 27  1  0  0  0  0
 31 33  1  0  0  0  0
 31 29  1  0  0  0  0
 32 31  2  0  0  0  0
M  END
>  <MODEL>
1

>  <REMARK>
 VINA RESULT:      -8.6      0.000      0.000
  Name = 
  9 active torsions:
  status: ('A' for Active; 'I' for Inactive)
    1  A    between atoms: N_1  and  S_10
    2  A    between atoms: N_1  and  C_29
    3  A    between atoms: C_2  and  C_29
    4  A    between atoms: C_7  and  S_10
    5  A    between atoms: C_7  and  C_11
    6  A    between atoms: C_9  and  C_13
    7  A    between atoms: C_15  and  C_23
    8  A    between atoms: C_15  and  C_25
    9  A    between atoms: C_17  and  C_25
                            x       y       z     vdW  Elec       q    Type
                         _______ _______ _______ _____ _____    ______ ____

>  <TORSDO>
F 9

$$$$
=
 OpenBabel11062412293D

 33 35  0  0  1  0  0  0  0  0999 V2000
  186.0070  178.5670  142.2150 C   0  0  0  0  0  0  0  0  0  0  0  0
  184.2250  179.2280  144.6070 C   0  0  0  0  0  3  0  0  0  0  0  0
  181.9120  178.6970  144.0530 O   0  0  0  0  0  1  0  0  0  0  0  0
  185.5150  178.9000  144.6160 C   0  0  0  0  0  3  0  0  0  0  0  0
  186.1150  177.9860  143.6000 C   0  0  2  0  0  3  0  0  0  0  0  0
  184.8100  178.7470  141.6520 C   0  0  0  0  0  3  0  0  0  0  0  0
  183.4920  178.5520  142.3000 C   0  0  0  0  0  0  0  0  0  0  0  0
  183.2260  178.7970  143.6040 C   0  0  0  0  0  0  0  0  0  0  0  0
  191.6240  176.0890  145.2930 Cl  0  0  0  0  0  0  0  0  0  0  0  0
  189.7990  177.9200  146.7950 F   0  0  0  0  0  0  0  0  0  0  0  0
  187.4930  177.5260  143.9830 C   0  0  0  0  0  0  0  0  0  0  0  0
  189.4950  176.2170  143.5610 C   0  0  0  0  0  0  0  0  0  0  0  0
  190.2070  175.3560  142.7340 O   0  0  0  0  0  1  0  0  0  0  0  0
  190.0340  176.6390  144.7850 C   0  0  0  0  0  0  0  0  0  0  0  0
  189.2960  177.5030  145.6060 C   0  0  0  0  0  0  0  0  0  0  0  0
  188.0300  177.9390  145.2060 C   0  0  0  0  0  3  0  0  0  0  0  0
  188.2300  176.6580  143.1640 C   0  0  0  0  0  3  0  0  0  0  0  0
  182.3630  178.2240  141.3760 C   0  0  0  0  0  2  0  0  0  0  0  0
  182.7920  178.4150  139.9320 C   0  0  0  0  0  2  0  0  0  0  0  0
  183.1710  176.6700  138.2350 C   0  0  2  0  0  3  0  0  0  0  0  0
  182.1160  177.3770  139.0600 C   0  0  1  0  0  3  0  0  0  0  0  0
  182.5500  176.1170  137.0450 N   0  0  0  0  0  1  0  0  0  0  0  0
  182.5930  175.9980  139.4620 C   0  0  0  0  0  2  0  0  0  0  0  0
  187.2290  178.8660  141.3960 C   0  0  0  0  0  2  0  0  0  0  0  0
  186.9880  178.5830  139.9870 N   0  0  0  0  0  2  0  0  0  0  0  0
  188.9910  179.3330  138.4250 O   0  0  0  0  0  0  0  0  0  0  0  0
  188.4960  178.1700  139.2390 S   0  0  0  0  0  0  0  0  0  0  0  0
  189.5120  177.8210  140.2920 O   0  0  0  0  0  0  0  0  0  0  0  0
  188.2430  176.7680  138.1670 C   0  0  2  0  0  3  0  0  0  0  0  0
  189.4410  176.0690  138.0090 O   0  0  0  0  0  1  0  0  0  0  0  0
  187.7210  177.2040  136.8380 C   0  0  0  0  0  0  0  0  0  0  0  0
  188.4770  177.2320  135.8310 O   0  0  0  0  0  0  0  0  0  0  0  0
  186.4010  177.6150  136.7210 O   0  0  0  0  0  1  0  0  0  0  0  0
  1  5  1  0  0  0  0
  2  4  2  0  0  0  0
  5 11  1  1  0  0  0
  5  4  1  0  0  0  0
  6  1  2  0  0  0  0
  6  7  1  0  0  0  0
  7  8  2  0  0  0  0
  8  3  1  0  0  0  0
  8  2  1  0  0  0  0
 11 16  1  0  0  0  0
 12 14  2  0  0  0  0
 13 12  1  0  0  0  0
 14  9  1  0  0  0  0
 14 15  1  0  0  0  0
 15 10  1  0  0  0  0
 16 15  2  0  0  0  0
 17 12  1  0  0  0  0
 17 11  2  0  0  0  0
 18  7  1  0  0  0  0
 19 18  1  0  0  0  0
 20 22  1  6  0  0  0
 20 21  1  0  0  0  0
 20 23  1  0  0  0  0
 21 23  1  0  0  0  0
 21 19  1  1  0  0  0
 24  1  1  0  0  0  0
 25 24  1  0  0  0  0
 26 27  2  0  0  0  0
 27 25  1  0  0  0  0
 27 28  2  0  0  0  0
 29 30  1  6  0  0  0
 29 27  1  0  0  0  0
 31 29  1  0  0  0  0
 32 31  2  0  0  0  0
 33 31  1  0  0  0  0
M  END
>  <MODEL>
2

>  <REMARK>
 VINA RESULT:      -8.6      1.281      1.504
  Name = 
  9 active torsions:
  status: ('A' for Active; 'I' for Inactive)
    1  A    between atoms: N_1  and  S_10
    2  A    between atoms: N_1  and  C_29
    3  A    between atoms: C_2  and  C_29
    4  A    between atoms: C_7  and  S_10
    5  A    between atoms: C_7  and  C_11
    6  A    between atoms: C_9  and  C_13
    7  A    between atoms: C_15  and  C_23
    8  A    between atoms: C_15  and  C_25
    9  A    between atoms: C_17  and  C_25
                            x       y       z     vdW  Elec       q    Type
                         _______ _______ _______ _____ _____    ______ ____

>  <TORSDO>
F 9

$$$$
=
 OpenBabel11062412293D

 33 35  0  0  1  0  0  0  0  0999 V2000
  185.9780  178.5220  142.2370 C   0  0  0  0  0  0  0  0  0  0  0  0
  184.1420  179.2290  144.5750 C   0  0  0  0  0  3  0  0  0  0  0  0
  181.8360  178.7360  143.9590 O   0  0  0  0  0  1  0  0  0  0  0  0
  185.4250  178.8790  144.6210 C   0  0  0  0  0  3  0  0  0  0  0  0
  186.0370  177.9490  143.6280 C   0  0  2  0  0  3  0  0  0  0  0  0
  184.8000  178.7200  141.6400 C   0  0  0  0  0  3  0  0  0  0  0  0
  183.4610  178.5520  142.2520 C   0  0  0  0  0  0  0  0  0  0  0  0
  183.1630  178.8100  143.5470 C   0  0  0  0  0  0  0  0  0  0  0  0
  191.5790  176.0390  145.1950 Cl  0  0  0  0  0  0  0  0  0  0  0  0
  190.0710  175.3700  142.7020 F   0  0  0  0  0  0  0  0  0  0  0  0
  187.3950  177.4660  144.0520 C   0  0  0  0  0  0  0  0  0  0  0  0
  189.2530  177.4390  145.6180 C   0  0  0  0  0  0  0  0  0  0  0  0
  189.8070  177.8570  146.8220 O   0  0  0  0  0  1  0  0  0  0  0  0
  189.9680  176.5910  144.7590 C   0  0  0  0  0  0  0  0  0  0  0  0
  189.3930  176.1860  143.5460 C   0  0  0  0  0  0  0  0  0  0  0  0
  188.1140  176.6270  143.1960 C   0  0  0  0  0  3  0  0  0  0  0  0
  187.9740  177.8740  145.2630 C   0  0  0  0  0  3  0  0  0  0  0  0
  182.3530  178.2370  141.2990 C   0  0  0  0  0  2  0  0  0  0  0  0
  182.8260  178.4070  139.8660 C   0  0  0  0  0  2  0  0  0  0  0  0
  183.2930  176.5750  138.2870 C   0  0  2  0  0  3  0  0  0  0  0  0
  182.1950  177.3420  138.9930 C   0  0  1  0  0  3  0  0  0  0  0  0
  182.7520  175.9780  137.0800 N   0  0  0  0  0  1  0  0  0  0  0  0
  182.6060  175.9750  139.4950 C   0  0  0  0  0  2  0  0  0  0  0  0
  187.2270  178.7950  141.4500 C   0  0  0  0  0  2  0  0  0  0  0  0
  186.9980  178.5820  140.0270 N   0  0  0  0  0  2  0  0  0  0  0  0
  189.0040  179.3360  138.4710 O   0  0  0  0  0  0  0  0  0  0  0  0
  188.5050  178.1700  139.2790 S   0  0  0  0  0  0  0  0  0  0  0  0
  189.5200  177.8140  140.3310 O   0  0  0  0  0  0  0  0  0  0  0  0
  188.2510  176.7740  138.2000 C   0  0  2  0  0  3  0  0  0  0  0  0
  189.4530  176.0870  138.0200 O   0  0  0  0  0  1  0  0  0  0  0  0
  187.7070  177.2160  136.8800 C   0  0  0  0  0  0  0  0  0  0  0  0
  188.4020  177.1120  135.8340 O   0  0  0  0  0  0  0  0  0  0  0  0
  186.4410  177.7780  136.8140 O   0  0  0  0  0  1  0  0  0  0  0  0
  1  5  1  0  0  0  0
  2  4  2  0  0  0  0
  5 11  1  1  0  0  0
  5  4  1  0  0  0  0
  6  1  2  0  0  0  0
  6  7  1  0  0  0  0
  7  8  2  0  0  0  0
  8  3  1  0  0  0  0
  8  2  1  0  0  0  0
 10 15  1  0  0  0  0
 11 17  1  0  0  0  0
 12 13  1  0  0  0  0
 14  9  1  0  0  0  0
 14 12  1  0  0  0  0
 15 14  2  0  0  0  0
 16 15  1  0  0  0  0
 16 11  2  0  0  0  0
 17 12  2  0  0  0  0
 18  7  1  0  0  0  0
 19 18  1  0  0  0  0
 20 22  1  6  0  0  0
 20 21  1  0  0  0  0
 20 23  1  0  0  0  0
 21 23  1  0  0  0  0
 21 19  1  1  0  0  0
 24  1  1  0  0  0  0
 25 24  1  0  0  0  0
 26 27  2  0  0  0  0
 27 25  1  0  0  0  0
 27 28  2  0  0  0  0
 29 30  1  6  0  0  0
 29 27  1  0  0  0  0
 31 29  1  0  0  0  0
 32 31  2  0  0  0  0
 33 31  1  0  0  0  0
M  END
>  <MODEL>
3

>  <REMARK>
 VINA RESULT:      -8.5      1.747      2.120
  Name = 
  9 active torsions:
  status: ('A' for Active; 'I' for Inactive)
    1  A    between atoms: N_1  and  S_10
    2  A    between atoms: N_1  and  C_29
    3  A    between atoms: C_2  and  C_29
    4  A    between atoms: C_7  and  S_10
    5  A    between atoms: C_7  and  C_11
    6  A    between atoms: C_9  and  C_13
    7  A    between atoms: C_15  and  C_23
    8  A    between atoms: C_15  and  C_25
    9  A    between atoms: C_17  and  C_25
                            x       y       z     vdW  Elec       q    Type
                         _______ _______ _______ _____ _____    ______ ____

>  <TORSDO>
F 9

$$$$
=
 OpenBabel11062412293D

 33 35  0  0  1  0  0  0  0  0999 V2000
  189.4030  177.4810  140.5660 C   0  0  0  0  0  0  0  0  0  0  0  0
  191.6270  177.3970  142.6600 C   0  0  0  0  0  3  0  0  0  0  0  0
  190.7120  176.5840  144.7670 O   0  0  0  0  0  1  0  0  0  0  0  0
  191.7460  177.2980  141.3380 C   0  0  0  0  0  3  0  0  0  0  0  0
  190.6840  176.6930  140.4820 C   0  0  2  0  0  3  0  0  0  0  0  0
  188.7300  177.5500  141.7170 C   0  0  0  0  0  3  0  0  0  0  0  0
  189.1700  177.0220  143.0300 C   0  0  0  0  0  0  0  0  0  0  0  0
  190.4520  176.9840  143.4600 C   0  0  0  0  0  0  0  0  0  0  0  0
  192.4720  175.6350  134.7810 Cl  0  0  0  0  0  0  0  0  0  0  0  0
  189.8010  175.0340  135.9830 F   0  0  0  0  0  0  0  0  0  0  0  0
  191.1600  176.4150  139.0840 C   0  0  0  0  0  0  0  0  0  0  0  0
  192.8610  176.5220  137.3530 C   0  0  0  0  0  0  0  0  0  0  0  0
  194.1480  176.8730  136.9620 O   0  0  0  0  0  1  0  0  0  0  0  0
  191.9720  175.9380  136.4390 C   0  0  0  0  0  0  0  0  0  0  0  0
  190.6760  175.5970  136.8530 C   0  0  0  0  0  0  0  0  0  0  0  0
  190.2750  175.8390  138.1690 C   0  0  0  0  0  3  0  0  0  0  0  0
  192.4550  176.7600  138.6680 C   0  0  0  0  0  3  0  0  0  0  0  0
  188.0720  176.6720  143.9830 C   0  0  0  0  0  2  0  0  0  0  0  0
  187.5360  177.9250  144.6520 C   0  0  0  0  0  2  0  0  0  0  0  0
  185.5240  179.0070  145.5750 C   0  0  2  0  0  3  0  0  0  0  0  0
  186.1030  177.6960  145.0860 C   0  0  1  0  0  3  0  0  0  0  0  0
  184.4260  178.7310  146.4830 N   0  0  0  0  0  1  0  0  0  0  0  0
  185.1750  178.4920  144.1940 C   0  0  0  0  0  2  0  0  0  0  0  0
  188.8000  178.1240  139.3520 C   0  0  0  0  0  2  0  0  0  0  0  0
  187.3980  178.4500  139.5820 N   0  0  0  0  0  2  0  0  0  0  0  0
  186.7170  179.0830  137.1030 O   0  0  0  0  0  0  0  0  0  0  0  0
  186.4930  178.0410  138.1630 S   0  0  0  0  0  0  0  0  0  0  0  0
  186.9270  176.6950  137.6480 O   0  0  0  0  0  0  0  0  0  0  0  0
  184.7600  177.9890  138.5780 C   0  0  2  0  0  3  0  0  0  0  0  0
  183.9910  178.0260  137.4140 O   0  0  0  0  0  1  0  0  0  0  0  0
  184.3960  179.1280  139.4740 C   0  0  0  0  0  0  0  0  0  0  0  0
  184.4100  180.3120  139.0420 O   0  0  0  0  0  0  0  0  0  0  0  0
  184.0730  178.8820  140.8000 O   0  0  0  0  0  1  0  0  0  0  0  0
  1  6  2  0  0  0  0
  2  8  1  0  0  0  0
  4  2  2  0  0  0  0
  5 11  1  6  0  0  0
  5  1  1  0  0  0  0
  5  4  1  0  0  0  0
  6  7  1  0  0  0  0
  7  8  2  0  0  0  0
  7 18  1  0  0  0  0
  8  3  1  0  0  0  0
  9 14  1  0  0  0  0
 10 15  1  0  0  0  0
 12 17  2  0  0  0  0
 13 12  1  0  0  0  0
 14 15  2  0  0  0  0
 14 12  1  0  0  0  0
 15 16  1  0  0  0  0
 16 11  2  0  0  0  0
 17 11  1  0  0  0  0
 18 19  1  0  0  0  0
 20 22  1  1  0  0  0
 21 19  1  6  0  0  0
 21 20  1  0  0  0  0
 23 21  1  0  0  0  0
 23 20  1  0  0  0  0
 24 25  1  0  0  0  0
 24  1  1  0  0  0  0
 26 27  2  0  0  0  0
 27 29  1  0  0  0  0
 27 25  1  0  0  0  0
 28 27  2  0  0  0  0
 29 30  1  6  0  0  0
 29 31  1  0  0  0  0
 31 33  1  0  0  0  0
 32 31  2  0  0  0  0
M  END
>  <MODEL>
4

>  <REMARK>
 VINA RESULT:      -8.3      3.953      6.611
  Name = 
  9 active torsions:
  status: ('A' for Active; 'I' for Inactive)
    1  A    between atoms: N_1  and  S_10
    2  A    between atoms: N_1  and  C_29
    3  A    between atoms: C_2  and  C_29
    4  A    between atoms: C_7  and  S_10
    5  A    between atoms: C_7  and  C_11
    6  A    between atoms: C_9  and  C_13
    7  A    between atoms: C_15  and  C_23
    8  A    between atoms: C_15  and  C_25
    9  A    between atoms: C_17  and  C_25
                            x       y       z     vdW  Elec       q    Type
                         _______ _______ _______ _____ _____    ______ ____

>  <TORSDO>
F 9

$$$$
=
 OpenBabel11062412293D

 33 35  0  0  1  0  0  0  0  0999 V2000
  186.9020  177.4370  144.4610 C   0  0  0  0  0  0  0  0  0  0  0  0
  185.3920  178.2040  147.0040 C   0  0  0  0  0  3  0  0  0  0  0  0
  186.9760  179.0570  148.6490 O   0  0  0  0  0  1  0  0  0  0  0  0
  184.9280  178.1700  145.7570 C   0  0  0  0  0  3  0  0  0  0  0  0
  185.7920  178.4480  144.5740 C   0  0  2  0  0  3  0  0  0  0  0  0
  187.8490  177.3690  145.4000 C   0  0  0  0  0  3  0  0  0  0  0  0
  187.8830  178.1230  146.6750 C   0  0  0  0  0  0  0  0  0  0  0  0
  186.7940  178.4640  147.4020 C   0  0  0  0  0  0  0  0  0  0  0  0
  182.4870  179.3730  139.5700 Cl  0  0  0  0  0  0  0  0  0  0  0  0
  181.4790  178.8080  142.3270 F   0  0  0  0  0  0  0  0  0  0  0  0
  184.9970  178.6520  143.3150 C   0  0  0  0  0  0  0  0  0  0  0  0
  184.8580  179.1310  140.9380 C   0  0  0  0  0  0  0  0  0  0  0  0
  185.4990  179.3880  139.7310 O   0  0  0  0  0  1  0  0  0  0  0  0
  183.4580  179.0970  141.0090 C   0  0  0  0  0  0  0  0  0  0  0  0
  182.8320  178.8420  142.2380 C   0  0  0  0  0  0  0  0  0  0  0  0
  183.6010  178.6250  143.3840 C   0  0  0  0  0  3  0  0  0  0  0  0
  185.6220  178.9110  142.0860 C   0  0  0  0  0  3  0  0  0  0  0  0
  189.2440  178.3550  147.2490 C   0  0  0  0  0  2  0  0  0  0  0  0
  189.8520  177.0430  147.7110 C   0  0  0  0  0  2  0  0  0  0  0  0
  191.8710  175.6480  147.4930 C   0  0  2  0  0  3  0  0  0  0  0  0
  191.3490  177.0700  147.4860 C   0  0  1  0  0  3  0  0  0  0  0  0
  193.2800  175.6620  147.8430 N   0  0  0  0  0  1  0  0  0  0  0  0
  191.6730  176.3760  146.1800 C   0  0  0  0  0  2  0  0  0  0  0  0
  187.0320  176.5510  143.2570 C   0  0  0  0  0  2  0  0  0  0  0  0
  188.4250  176.1830  143.0340 N   0  0  0  0  0  2  0  0  0  0  0  0
  188.1620  177.4710  140.7340 O   0  0  0  0  0  0  0  0  0  0  0  0
  189.1110  177.2850  141.8850 S   0  0  0  0  0  0  0  0  0  0  0  0
  189.3750  178.6130  142.5420 O   0  0  0  0  0  0  0  0  0  0  0  0
  190.6430  176.6060  141.2790 C   0  0  2  0  0  3  0  0  0  0  0  0
  191.7220  177.2490  141.8870 O   0  0  0  0  0  1  0  0  0  0  0  0
  190.7330  176.7420  139.7940 C   0  0  0  0  0  0  0  0  0  0  0  0
  190.9450  177.8660  139.2660 O   0  0  0  0  0  1  0  0  0  0  0  0
  190.5450  175.6270  138.9900 O   0  0  0  0  0  0  0  0  0  0  0  0
  1  5  1  0  0  0  0
  1  6  2  0  0  0  0
  2  8  1  0  0  0  0
  4  2  2  0  0  0  0
  5 11  1  6  0  0  0
  5  4  1  0  0  0  0
  6  7  1  0  0  0  0
  7 18  1  0  0  0  0
  7  8  2  0  0  0  0
  8  3  1  0  0  0  0
  9 14  1  0  0  0  0
 11 16  1  0  0  0  0
 12 14  2  0  0  0  0
 12 17  1  0  0  0  0
 13 12  1  0  0  0  0
 14 15  1  0  0  0  0
 15 10  1  0  0  0  0
 15 16  2  0  0  0  0
 17 11  2  0  0  0  0
 18 19  1  0  0  0  0
 20 22  1  1  0  0  0
 21 20  1  0  0  0  0
 21 19  1  6  0  0  0
 23 21  1  0  0  0  0
 23 20  1  0  0  0  0
 24  1  1  0  0  0  0
 25 24  1  0  0  0  0
 26 27  2  0  0  0  0
 27 28  2  0  0  0  0
 27 25  1  0  0  0  0
 29 27  1  0  0  0  0
 29 30  1  1  0  0  0
 31 29  1  0  0  0  0
 32 31  1  0  0  0  0
 33 31  2  0  0  0  0
M  END
>  <MODEL>
5

>  <REMARK>
 VINA RESULT:      -8.1      3.942      7.334
  Name = 
  9 active torsions:
  status: ('A' for Active; 'I' for Inactive)
    1  A    between atoms: N_1  and  S_10
    2  A    between atoms: N_1  and  C_29
    3  A    between atoms: C_2  and  C_29
    4  A    between atoms: C_7  and  S_10
    5  A    between atoms: C_7  and  C_11
    6  A    between atoms: C_9  and  C_13
    7  A    between atoms: C_15  and  C_23
    8  A    between atoms: C_15  and  C_25
    9  A    between atoms: C_17  and  C_25
                            x       y       z     vdW  Elec       q    Type
                         _______ _______ _______ _____ _____    ______ ____

>  <TORSDO>
F 9

$$$$
=
 OpenBabel11062412293D

 33 35  0  0  1  0  0  0  0  0999 V2000
  186.1660  178.2270  142.7630 C   0  0  0  0  0  0  0  0  0  0  0  0
  184.0700  179.6040  144.5080 C   0  0  0  0  0  3  0  0  0  0  0  0
  181.8460  179.0000  143.7150 O   0  0  0  0  0  1  0  0  0  0  0  0
  185.3110  179.2570  144.8420 C   0  0  0  0  0  3  0  0  0  0  0  0
  185.9960  178.0720  144.2510 C   0  0  2  0  0  3  0  0  0  0  0  0
  185.0970  178.2690  141.9650 C   0  0  0  0  0  3  0  0  0  0  0  0
  183.6780  178.3080  142.3910 C   0  0  0  0  0  0  0  0  0  0  0  0
  183.2200  178.9280  143.5030 C   0  0  0  0  0  0  0  0  0  0  0  0
  190.9750  176.5030  147.3450 Cl  0  0  0  0  0  0  0  0  0  0  0  0
  188.4070  177.5530  148.4580 F   0  0  0  0  0  0  0  0  0  0  0  0
  187.2510  177.7040  144.9920 C   0  0  0  0  0  0  0  0  0  0  0  0
  189.5260  176.8540  145.0360 C   0  0  0  0  0  0  0  0  0  0  0  0
  190.6370  176.3760  144.3500 O   0  0  0  0  0  1  0  0  0  0  0  0
  189.5440  176.9640  146.4340 C   0  0  0  0  0  0  0  0  0  0  0  0
  188.4100  177.4430  147.1070 C   0  0  0  0  0  0  0  0  0  0  0  0
  187.2700  177.8070  146.3850 C   0  0  0  0  0  3  0  0  0  0  0  0
  188.3840  177.2210  144.3210 C   0  0  0  0  0  3  0  0  0  0  0  0
  182.6960  177.7560  141.4080 C   0  0  0  0  0  2  0  0  0  0  0  0
  183.1140  178.1060  139.9910 C   0  0  0  0  0  2  0  0  0  0  0  0
  182.6510  180.1630  138.7170 C   0  0  2  0  0  3  0  0  0  0  0  0
  182.0270  178.9260  139.3290 C   0  0  1  0  0  3  0  0  0  0  0  0
  181.6360  181.1940  138.5920 N   0  0  0  0  0  1  0  0  0  0  0  0
  182.2820  178.9870  137.8380 C   0  0  0  0  0  2  0  0  0  0  0  0
  187.5260  178.2410  142.1280 C   0  0  0  0  0  2  0  0  0  0  0  0
  187.5150  179.0240  140.9000 N   0  0  0  0  0  2  0  0  0  0  0  0
  187.4410  177.2770  138.9100 O   0  0  0  0  0  0  0  0  0  0  0  0
  188.3880  178.1560  139.6810 S   0  0  0  0  0  0  0  0  0  0  0  0
  189.0580  179.1220  138.7420 O   0  0  0  0  0  0  0  0  0  0  0  0
  189.6210  177.1390  140.4690 C   0  0  2  0  0  3  0  0  0  0  0  0
  190.3070  177.8830  141.4310 O   0  0  0  0  0  1  0  0  0  0  0  0
  190.5780  176.5890  139.4630 C   0  0  0  0  0  0  0  0  0  0  0  0
  190.2430  175.6310  138.7170 O   0  0  0  0  0  0  0  0  0  0  0  0
  191.8590  177.1160  139.3740 O   0  0  0  0  0  1  0  0  0  0  0  0
  1  5  1  0  0  0  0
  2  4  2  0  0  0  0
  5  4  1  0  0  0  0
  5 11  1  1  0  0  0
  6  7  1  0  0  0  0
  6  1  2  0  0  0  0
  7  8  2  0  0  0  0
  8  3  1  0  0  0  0
  8  2  1  0  0  0  0
 11 16  1  0  0  0  0
 12 14  2  0  0  0  0
 13 12  1  0  0  0  0
 14 15  1  0  0  0  0
 14  9  1  0  0  0  0
 15 10  1  0  0  0  0
 16 15  2  0  0  0  0
 17 11  2  0  0  0  0
 17 12  1  0  0  0  0
 18  7  1  0  0  0  0
 19 18  1  0  0  0  0
 20 22  1  6  0  0  0
 20 21  1  0  0  0  0
 21 19  1  1  0  0  0
 23 20  1  0  0  0  0
 23 21  1  0  0  0  0
 24  1  1  0  0  0  0
 25 24  1  0  0  0  0
 26 27  2  0  0  0  0
 27 29  1  0  0  0  0
 27 25  1  0  0  0  0
 28 27  2  0  0  0  0
 29 30  1  1  0  0  0
 31 29  1  0  0  0  0
 32 31  2  0  0  0  0
 33 31  1  0  0  0  0
M  END
>  <MODEL>
6

>  <REMARK>
 VINA RESULT:      -7.8      1.517      2.215
  Name = 
  9 active torsions:
  status: ('A' for Active; 'I' for Inactive)
    1  A    between atoms: N_1  and  S_10
    2  A    between atoms: N_1  and  C_29
    3  A    between atoms: C_2  and  C_29
    4  A    between atoms: C_7  and  S_10
    5  A    between atoms: C_7  and  C_11
    6  A    between atoms: C_9  and  C_13
    7  A    between atoms: C_15  and  C_23
    8  A    between atoms: C_15  and  C_25
    9  A    between atoms: C_17  and  C_25
                            x       y       z     vdW  Elec       q    Type
                         _______ _______ _______ _____ _____    ______ ____

>  <TORSDO>
F 9

$$$$
=
 OpenBabel11062412293D

 33 35  0  0  1  0  0  0  0  0999 V2000
  186.0540  178.3780  142.2020 C   0  0  0  0  0  0  0  0  0  0  0  0
  184.2540  179.2810  144.5010 C   0  0  0  0  0  3  0  0  0  0  0  0
  181.9330  178.7890  143.9420 O   0  0  0  0  0  1  0  0  0  0  0  0
  185.5310  178.9110  144.5610 C   0  0  0  0  0  3  0  0  0  0  0  0
  186.1160  177.9020  143.6300 C   0  0  2  0  0  3  0  0  0  0  0  0
  184.8740  178.5560  141.6030 C   0  0  0  0  0  3  0  0  0  0  0  0
  183.5380  178.4560  142.2370 C   0  0  0  0  0  0  0  0  0  0  0  0
  183.2580  178.8090  143.5130 C   0  0  0  0  0  0  0  0  0  0  0  0
  191.6390  176.0070  145.2790 Cl  0  0  0  0  0  0  0  0  0  0  0  0
  190.1270  175.2520  142.8140 F   0  0  0  0  0  0  0  0  0  0  0  0
  187.4700  177.4250  144.0750 C   0  0  0  0  0  0  0  0  0  0  0  0
  189.3250  177.4440  145.6420 C   0  0  0  0  0  0  0  0  0  0  0  0
  189.8820  177.9060  146.8300 O   0  0  0  0  0  1  0  0  0  0  0  0
  190.0340  176.5560  144.8200 C   0  0  0  0  0  0  0  0  0  0  0  0
  189.4560  176.1080  143.6230 C   0  0  0  0  0  0  0  0  0  0  0  0
  188.1810  176.5450  143.2540 C   0  0  0  0  0  3  0  0  0  0  0  0
  188.0500  177.8760  145.2690 C   0  0  0  0  0  3  0  0  0  0  0  0
  182.4150  178.0970  141.3180 C   0  0  0  0  0  2  0  0  0  0  0  0
  182.9310  177.2720  140.1530 C   0  0  0  0  0  2  0  0  0  0  0  0
  182.1080  175.6430  138.4990 C   0  0  2  0  0  3  0  0  0  0  0  0
  181.7850  176.9330  139.2230 C   0  0  1  0  0  3  0  0  0  0  0  0
  181.3560  175.5960  137.2570 N   0  0  0  0  0  1  0  0  0  0  0  0
  181.1460  175.6350  139.6680 C   0  0  0  0  0  2  0  0  0  0  0  0
  187.2990  178.5720  141.3880 C   0  0  0  0  0  2  0  0  0  0  0  0
  186.9830  178.6320  139.9670 N   0  0  0  0  0  2  0  0  0  0  0  0
  187.9880  177.2250  137.9600 O   0  0  0  0  0  0  0  0  0  0  0  0
  188.3870  178.1620  139.0670 S   0  0  0  0  0  0  0  0  0  0  0  0
  189.0540  179.3770  138.4840 O   0  0  0  0  0  0  0  0  0  0  0  0
  189.5210  177.3270  140.1610 C   0  0  2  0  0  3  0  0  0  0  0  0
  190.0710  178.2410  141.0620 O   0  0  0  0  0  1  0  0  0  0  0  0
  190.6040  176.6510  139.3860 C   0  0  0  0  0  0  0  0  0  0  0  0
  190.3640  175.5990  138.7350 O   0  0  0  0  0  0  0  0  0  0  0  0
  191.8920  177.1650  139.4150 O   0  0  0  0  0  1  0  0  0  0  0  0
  1  5  1  0  0  0  0
  2  4  2  0  0  0  0
  5 11  1  1  0  0  0
  5  4  1  0  0  0  0
  6  1  2  0  0  0  0
  6  7  1  0  0  0  0
  7  8  2  0  0  0  0
  8  3  1  0  0  0  0
  8  2  1  0  0  0  0
 10 15  1  0  0  0  0
 11 17  1  0  0  0  0
 12 13  1  0  0  0  0
 14  9  1  0  0  0  0
 14 12  1  0  0  0  0
 15 14  2  0  0  0  0
 16 15  1  0  0  0  0
 16 11  2  0  0  0  0
 17 12  2  0  0  0  0
 18  7  1  0  0  0  0
 19 18  1  0  0  0  0
 20 22  1  6  0  0  0
 20 21  1  0  0  0  0
 20 23  1  0  0  0  0
 21 23  1  0  0  0  0
 21 19  1  1  0  0  0
 24  1  1  0  0  0  0
 25 24  1  0  0  0  0
 26 27  2  0  0  0  0
 27 25  1  0  0  0  0
 27 29  1  0  0  0  0
 28 27  2  0  0  0  0
 29 30  1  1  0  0  0
 31 33  1  0  0  0  0
 31 29  1  0  0  0  0
 32 31  2  0  0  0  0
M  END
>  <MODEL>
7

>  <REMARK>
 VINA RESULT:      -7.8      2.089      2.932
  Name = 
  9 active torsions:
  status: ('A' for Active; 'I' for Inactive)
    1  A    between atoms: N_1  and  S_10
    2  A    between atoms: N_1  and  C_29
    3  A    between atoms: C_2  and  C_29
    4  A    between atoms: C_7  and  S_10
    5  A    between atoms: C_7  and  C_11
    6  A    between atoms: C_9  and  C_13
    7  A    between atoms: C_15  and  C_23
    8  A    between atoms: C_15  and  C_25
    9  A    between atoms: C_17  and  C_25
                            x       y       z     vdW  Elec       q    Type
                         _______ _______ _______ _____ _____    ______ ____

>  <TORSDO>
F 9

$$$$
=
 OpenBabel11062412293D

 33 35  0  0  1  0  0  0  0  0999 V2000
  186.7910  177.5790  143.2260 C   0  0  0  0  0  0  0  0  0  0  0  0
  183.8630  178.4450  143.1000 C   0  0  0  0  0  3  0  0  0  0  0  0
  183.3260  179.7420  145.0920 O   0  0  0  0  0  1  0  0  0  0  0  0
  184.6790  178.1720  142.0840 C   0  0  0  0  0  3  0  0  0  0  0  0
  186.1490  178.4160  142.1510 C   0  0  2  0  0  3  0  0  0  0  0  0
  186.4870  177.7830  144.5100 C   0  0  0  0  0  3  0  0  0  0  0  0
  185.4470  178.6990  145.0350 C   0  0  0  0  0  0  0  0  0  0  0  0
  184.2690  178.9660  144.4250 C   0  0  0  0  0  0  0  0  0  0  0  0
  188.7220  178.1650  136.6620 Cl  0  0  0  0  0  0  0  0  0  0  0  0
  185.8000  178.2350  137.2900 F   0  0  0  0  0  0  0  0  0  0  0  0
  186.8100  178.3250  140.8040 C   0  0  0  0  0  0  0  0  0  0  0  0
  188.7960  178.2510  139.4070 C   0  0  0  0  0  0  0  0  0  0  0  0
  190.1810  178.2300  139.3000 O   0  0  0  0  0  1  0  0  0  0  0  0
  187.9910  178.2270  138.2580 C   0  0  0  0  0  0  0  0  0  0  0  0
  186.5950  178.2540  138.3890 C   0  0  0  0  0  0  0  0  0  0  0  0
  186.0110  178.3070  139.6580 C   0  0  0  0  0  3  0  0  0  0  0  0
  188.2060  178.3010  140.6720 C   0  0  0  0  0  3  0  0  0  0  0  0
  185.6810  179.2100  146.4210 C   0  0  0  0  0  2  0  0  0  0  0  0
  186.3310  178.1370  147.2760 C   0  0  0  0  0  2  0  0  0  0  0  0
  188.3190  177.8390  148.7000 C   0  0  2  0  0  3  0  0  0  0  0  0
  187.8170  178.4100  147.3900 C   0  0  1  0  0  3  0  0  0  0  0  0
  189.5270  178.5430  149.0900 N   0  0  0  0  0  1  0  0  0  0  0  0
  188.5680  177.0960  147.4040 C   0  0  0  0  0  2  0  0  0  0  0  0
  187.8520  176.5680  142.9000 C   0  0  0  0  0  2  0  0  0  0  0  0
  188.9390  176.6290  143.8690 N   0  0  0  0  0  2  0  0  0  0  0  0
  191.3450  175.5220  143.9070 O   0  0  0  0  0  0  0  0  0  0  0  0
  190.4350  176.3490  143.0410 S   0  0  0  0  0  0  0  0  0  0  0  0
  190.1780  175.6280  141.7460 O   0  0  0  0  0  0  0  0  0  0  0  0
  191.2110  177.9180  142.7050 C   0  0  2  0  0  3  0  0  0  0  0  0
  192.4250  177.7170  142.0460 O   0  0  0  0  0  1  0  0  0  0  0  0
  191.4310  178.6830  143.9690 C   0  0  0  0  0  0  0  0  0  0  0  0
  191.9110  178.1150  144.9850 O   0  0  0  0  0  1  0  0  0  0  0  0
  191.0690  180.0210  144.0330 O   0  0  0  0  0  0  0  0  0  0  0  0
  1  6  2  0  0  0  0
  2  8  1  0  0  0  0
  4  5  1  0  0  0  0
  4  2  2  0  0  0  0
  5 11  1  6  0  0  0
  5  1  1  0  0  0  0
  6  7  1  0  0  0  0
  7 18  1  0  0  0  0
  8  7  2  0  0  0  0
  8  3  1  0  0  0  0
  9 14  1  0  0  0  0
 10 15  1  0  0  0  0
 12 17  2  0  0  0  0
 13 12  1  0  0  0  0
 14 15  2  0  0  0  0
 14 12  1  0  0  0  0
 15 16  1  0  0  0  0
 16 11  2  0  0  0  0
 17 11  1  0  0  0  0
 18 19  1  0  0  0  0
 20 22  1  6  0  0  0
 21 19  1  1  0  0  0
 21 23  1  0  0  0  0
 21 20  1  0  0  0  0
 23 20  1  0  0  0  0
 24  1  1  0  0  0  0
 24 25  1  0  0  0  0
 27 25  1  0  0  0  0
 27 26  2  0  0  0  0
 28 27  2  0  0  0  0
 29 30  1  1  0  0  0
 29 27  1  0  0  0  0
 29 31  1  0  0  0  0
 31 33  2  0  0  0  0
 31 32  1  0  0  0  0
M  END
>  <MODEL>
8

>  <REMARK>
 VINA RESULT:      -7.7      3.927      6.860
  Name = 
  9 active torsions:
  status: ('A' for Active; 'I' for Inactive)
    1  A    between atoms: N_1  and  S_10
    2  A    between atoms: N_1  and  C_29
    3  A    between atoms: C_2  and  C_29
    4  A    between atoms: C_7  and  S_10
    5  A    between atoms: C_7  and  C_11
    6  A    between atoms: C_9  and  C_13
    7  A    between atoms: C_15  and  C_23
    8  A    between atoms: C_15  and  C_25
    9  A    between atoms: C_17  and  C_25
                            x       y       z     vdW  Elec       q    Type
                         _______ _______ _______ _____ _____    ______ ____

>  <TORSDO>
F 9

$$$$
=
 OpenBabel11062412293D

 33 35  0  0  1  0  0  0  0  0999 V2000
  186.4510  178.3210  143.0440 C   0  0  0  0  0  0  0  0  0  0  0  0
  184.1020  179.3800  144.6860 C   0  0  0  0  0  3  0  0  0  0  0  0
  182.0150  178.6870  143.6360 O   0  0  0  0  0  1  0  0  0  0  0  0
  185.3320  179.0970  145.1090 C   0  0  0  0  0  3  0  0  0  0  0  0
  186.1620  178.0220  144.4920 C   0  0  2  0  0  3  0  0  0  0  0  0
  185.4580  178.3560  142.1530 C   0  0  0  0  0  3  0  0  0  0  0  0
  184.0080  178.2520  142.4420 C   0  0  0  0  0  0  0  0  0  0  0  0
  183.4030  178.7360  143.5520 C   0  0  0  0  0  0  0  0  0  0  0  0
  191.1360  176.7280  147.7170 Cl  0  0  0  0  0  0  0  0  0  0  0  0
  190.7380  176.3620  144.7770 F   0  0  0  0  0  0  0  0  0  0  0  0
  187.3710  177.6830  145.3170 C   0  0  0  0  0  0  0  0  0  0  0  0
  188.5540  177.6250  147.4380 C   0  0  0  0  0  0  0  0  0  0  0  0
  188.5640  177.8660  148.8070 O   0  0  0  0  0  1  0  0  0  0  0  0
  189.6840  177.0970  146.7980 C   0  0  0  0  0  0  0  0  0  0  0  0
  189.6540  176.8680  145.4140 C   0  0  0  0  0  0  0  0  0  0  0  0
  188.5020  177.1640  144.6810 C   0  0  0  0  0  3  0  0  0  0  0  0
  187.4040  177.9160  146.7000 C   0  0  0  0  0  3  0  0  0  0  0  0
  183.1660  177.7190  141.3270 C   0  0  0  0  0  2  0  0  0  0  0  0
  183.7300  178.1560  139.9870 C   0  0  0  0  0  2  0  0  0  0  0  0
  183.4780  177.1750  137.7410 C   0  0  2  0  0  3  0  0  0  0  0  0
  182.7380  177.8300  138.8890 C   0  0  1  0  0  3  0  0  0  0  0  0
  182.7190  177.3680  136.5180 N   0  0  0  0  0  1  0  0  0  0  0  0
  182.6710  176.3290  138.7040 C   0  0  0  0  0  2  0  0  0  0  0  0
  187.8570  178.4910  142.5470 C   0  0  0  0  0  2  0  0  0  0  0  0
  188.0970  177.6520  141.3800 N   0  0  0  0  0  2  0  0  0  0  0  0
  190.5430  178.3850  142.0850 O   0  0  0  0  0  0  0  0  0  0  0  0
  189.8040  177.4020  141.2200 S   0  0  0  0  0  0  0  0  0  0  0  0
  190.1580  175.9990  141.6330 O   0  0  0  0  0  0  0  0  0  0  0  0
  190.2670  177.6560  139.5170 C   0  0  2  0  0  3  0  0  0  0  0  0
  189.4450  178.6250  138.9400 O   0  0  0  0  0  1  0  0  0  0  0  0
  190.1790  176.3790  138.7470 C   0  0  0  0  0  0  0  0  0  0  0  0
  191.1660  175.5980  138.6860 O   0  0  0  0  0  1  0  0  0  0  0  0
  189.0120  176.0690  138.0640 O   0  0  0  0  0  0  0  0  0  0  0  0
  1  5  1  0  0  0  0
  2  4  2  0  0  0  0
  5  4  1  0  0  0  0
  5 11  1  1  0  0  0
  6  7  1  0  0  0  0
  6  1  2  0  0  0  0
  7  8  2  0  0  0  0
  8  3  1  0  0  0  0
  8  2  1  0  0  0  0
 10 15  1  0  0  0  0
 11 17  1  0  0  0  0
 12 13  1  0  0  0  0
 14 12  1  0  0  0  0
 14  9  1  0  0  0  0
 15 14  2  0  0  0  0
 16 11  2  0  0  0  0
 16 15  1  0  0  0  0
 17 12  2  0  0  0  0
 18  7  1  0  0  0  0
 19 18  1  0  0  0  0
 20 22  1  6  0  0  0
 20 23  1  0  0  0  0
 20 21  1  0  0  0  0
 21 19  1  1  0  0  0
 23 21  1  0  0  0  0
 24  1  1  0  0  0  0
 25 24  1  0  0  0  0
 27 25  1  0  0  0  0
 27 28  2  0  0  0  0
 27 26  2  0  0  0  0
 29 30  1  6  0  0  0
 29 27  1  0  0  0  0
 31 29  1  0  0  0  0
 32 31  1  0  0  0  0
 33 31  2  0  0  0  0
M  END
>  <MODEL>
9

>  <REMARK>
 VINA RESULT:      -7.7      2.177      2.816
  Name = 
  9 active torsions:
  status: ('A' for Active; 'I' for Inactive)
    1  A    between atoms: N_1  and  S_10
    2  A    between atoms: N_1  and  C_29
    3  A    between atoms: C_2  and  C_29
    4  A    between atoms: C_7  and  S_10
    5  A    between atoms: C_7  and  C_11
    6  A    between atoms: C_9  and  C_13
    7  A    between atoms: C_15  and  C_23
    8  A    between atoms: C_15  and  C_25
    9  A    between atoms: C_17  and  C_25
                            x       y       z     vdW  Elec       q    Type
                         _______ _______ _______ _____ _____    ______ ____

>  <TORSDO>
F 9

$$$$
