=
 OpenBabel11062412293D

 37 42  0  0  1  0  0  0  0  0999 V2000
  187.6040  177.0230  137.9760 O   0  0  0  0  0  0  0  0  0  0  0  0
  189.5930  176.5600  140.7610 C   0  0  0  0  0  3  0  0  0  0  0  0
  189.0180  178.9010  140.5480 C   0  0  0  0  0  3  0  0  0  0  0  0
  181.5760  178.9630  140.3940 N   0  0  0  0  0  0  0  0  0  0  0  0
  185.3950  176.6840  136.2200 O   0  0  0  0  0  0  0  0  0  0  0  0
  188.2100  177.6170  142.4430 C   0  0  0  0  0  0  0  0  0  0  0  0
  188.2800  176.5020  135.9210 C   0  0  0  0  0  2  0  0  0  0  0  0
  182.7280  179.1350  139.4950 C   0  0  1  0  0  3  0  0  0  0  0  0
  190.3350  177.8420  138.8240 O   0  0  0  0  0  0  0  0  0  0  0  0
  188.2860  178.8260  141.7380 C   0  0  0  0  0  3  0  0  0  0  0  0
  183.9840  178.6530  143.5570 C   0  0  2  0  0  3  0  0  0  0  0  0
  184.4290  176.5490  137.2230 C   0  0  1  0  0  3  0  0  0  0  0  0
  188.6740  177.3660  137.1100 C   0  0  2  0  0  3  0  0  0  0  0  0
  181.7800  178.7090  141.7950 C   0  0  0  0  0  0  0  0  0  0  0  0
  186.8340  176.0330  136.8380 P   0  0  1  0  0  0  0  0  0  0  0  0
  188.8790  176.4880  141.9580 C   0  0  0  0  0  3  0  0  0  0  0  0
  190.0430  177.0020  137.7040 C   0  0  2  0  0  3  0  0  0  0  0  0
  189.6550  177.7630  140.0440 C   0  0  0  0  0  0  0  0  0  0  0  0
  182.7690  178.0540  138.4770 C   0  0  2  0  0  3  0  0  0  0  0  0
  186.7810  174.5760  137.2430 O   0  0  0  0  0  0  0  0  0  0  0  0
  180.7950  178.4570  142.5400 O   0  0  0  0  0  0  0  0  0  0  0  0
  186.3640  178.3880  143.8880 N   0  0  0  0  0  2  0  0  0  0  0  0
  187.4260  177.5100  143.6310 N   0  0  0  0  0  2  0  0  0  0  0  0
  184.1410  177.9340  137.8230 C   0  0  0  0  0  2  0  0  0  0  0  0
  185.2040  177.8460  143.1990 C   0  0  2  0  0  3  0  0  0  0  0  0
  183.0850  178.7340  142.3670 N   0  0  0  0  0  0  0  0  0  0  0  0
  184.5690  178.9060  142.3310 C   0  0  1  0  0  3  0  0  0  0  0  0
  182.2820  179.3390  138.1750 O   0  0  0  0  0  0  0  0  0  0  0  0
  182.7420  176.3070  135.5370 O   0  0  0  0  0  0  0  0  0  0  0  0
  183.2170  175.8970  136.6270 C   0  0  0  0  0  0  0  0  0  0  0  0
  182.6310  174.8150  137.2720 O   0  0  0  0  0  1  0  0  0  0  0  0
  180.2080  179.0560  139.8800 C   0  0  0  0  0  2  0  0  0  0  0  0
  179.2970  181.5550  140.1050 C   0  0  0  0  0  3  0  0  0  0  0  0
  179.7080  180.4280  140.0020 C   0  0  0  0  0  0  0  0  0  0  0  0
  190.2190  175.5200  138.0330 C   0  0  0  0  0  2  0  0  0  0  0  0
  191.6240  175.0650  137.6860 C   0  0  0  0  0  2  0  0  0  0  0  0
  192.1790  175.9230  136.7380 O   0  0  0  0  0  1  0  0  0  0  0  0
  2 16  1  0  0  0  0
  3 10  2  0  0  0  0
  4 14  1  0  0  0  0
  5 15  1  0  0  0  0
  5 12  1  0  0  0  0
  6 23  1  0  0  0  0
  7 15  1  0  0  0  0
  8 28  1  6  0  0  0
  8  4  1  0  0  0  0
  9 18  1  0  0  0  0
 10  6  1  0  0  0  0
 11 26  1  6  0  0  0
 12 30  1  6  0  0  0
 12 24  1  0  0  0  0
 13  7  1  6  0  0  0
 13 17  1  0  0  0  0
 13  1  1  0  0  0  0
 14 26  1  0  0  0  0
 14 21  2  0  0  0  0
 15 20  2  1  0  0  0
 15  1  1  0  0  0  0
 16  6  2  0  0  0  0
 17 35  1  1  0  0  0
 17  9  1  0  0  0  0
 18  3  1  0  0  0  0
 18  2  2  0  0  0  0
 19 24  1  6  0  0  0
 19  8  1  0  0  0  0
 23 22  1  0  0  0  0
 25 11  1  0  0  0  0
 25 22  1  1  0  0  0
 27 26  1  6  0  0  0
 27 25  1  0  0  0  0
 27 11  1  0  0  0  0
 28 19  1  0  0  0  0
 29 30  2  0  0  0  0
 30 31  1  0  0  0  0
 32 34  1  0  0  0  0
 32  4  1  0  0  0  0
 34 33  3  0  0  0  0
 36 35  1  0  0  0  0
 37 36  1  0  0  0  0
M  END
>  <MODEL>
1

>  <REMARK>
 VINA RESULT:      -6.2      0.000      0.000
  Name = 
  5 active torsions:
  status: ('A' for Active; 'I' for Inactive)
    1  A    between atoms: N_4  and  C_14
    2  A    between atoms: C_11  and  C_16
    3  A    between atoms: C_14  and  C_19
    4  A    between atoms: C_22  and  C_32
    5  A    between atoms: C_23  and  C_32
                            x       y       z     vdW  Elec       q    Type
                         _______ _______ _______ _____ _____    ______ ____

>  <TORSDO>
F 5

$$$$
=
 OpenBabel11062412293D

 37 42  0  0  1  0  0  0  0  0999 V2000
  185.7450  178.1770  140.9150 O   0  0  0  0  0  0  0  0  0  0  0  0
  182.8670  176.6830  139.7260 C   0  0  0  0  0  3  0  0  0  0  0  0
  183.9140  177.9610  137.9570 C   0  0  0  0  0  3  0  0  0  0  0  0
  190.8170  175.2090  137.5370 N   0  0  0  0  0  0  0  0  0  0  0  0
  188.3170  178.3820  142.1060 O   0  0  0  0  0  0  0  0  0  0  0  0
  183.7570  175.5460  137.7840 C   0  0  0  0  0  0  0  0  0  0  0  0
  185.7340  179.6160  142.6110 C   0  0  0  0  0  2  0  0  0  0  0  0
  190.1020  176.4020  138.0150 C   0  0  1  0  0  3  0  0  0  0  0  0
  183.0980  179.1030  139.9220 O   0  0  0  0  0  0  0  0  0  0  0  0
  184.1620  176.7790  137.2530 C   0  0  0  0  0  3  0  0  0  0  0  0
  187.4530  173.6950  136.0240 C   0  0  2  0  0  3  0  0  0  0  0  0
  188.8320  177.2080  141.5480 C   0  0  1  0  0  3  0  0  0  0  0  0
  185.1270  179.4140  141.2310 C   0  0  2  0  0  3  0  0  0  0  0  0
  190.0970  174.1350  136.9060 C   0  0  0  0  0  0  0  0  0  0  0  0
  186.6570  178.1250  142.3400 P   0  0  1  0  0  0  0  0  0  0  0  0
  183.0960  175.5040  139.0160 C   0  0  0  0  0  3  0  0  0  0  0  0
  183.5940  179.3100  141.2480 C   0  0  2  0  0  3  0  0  0  0  0  0
  183.2860  177.9160  139.2060 C   0  0  0  0  0  0  0  0  0  0  0  0
  190.2100  176.5270  139.4910 C   0  0  2  0  0  3  0  0  0  0  0  0
  186.2890  176.9730  143.2510 O   0  0  0  0  0  0  0  0  0  0  0  0
  190.6960  173.0710  136.5950 O   0  0  0  0  0  0  0  0  0  0  0  0
  185.1010  174.2320  136.1840 N   0  0  0  0  0  2  0  0  0  0  0  0
  184.0470  174.3250  137.1030 N   0  0  0  0  0  2  0  0  0  0  0  0
  189.1530  177.4620  140.0670 C   0  0  0  0  0  2  0  0  0  0  0  0
  186.3010  173.9620  136.9580 C   0  0  2  0  0  3  0  0  0  0  0  0
  188.7050  174.2470  136.6230 N   0  0  0  0  0  0  0  0  0  0  0  0
  187.3870  174.9500  136.6000 C   0  0  1  0  0  3  0  0  0  0  0  0
  191.0070  177.2940  138.6210 O   0  0  0  0  0  0  0  0  0  0  0  0
  190.8960  177.6320  142.6920 O   0  0  0  0  0  0  0  0  0  0  0  0
  190.0280  176.7880  142.3490 C   0  0  0  0  0  0  0  0  0  0  0  0
  190.1630  175.4620  142.7400 O   0  0  0  0  0  1  0  0  0  0  0  0
  192.2700  175.0990  137.6880 C   0  0  0  0  0  2  0  0  0  0  0  0
  193.5080  176.0340  135.5160 C   0  0  0  0  0  3  0  0  0  0  0  0
  192.9480  175.6120  136.4950 C   0  0  0  0  0  0  0  0  0  0  0  0
  183.0360  178.2890  142.2390 C   0  0  0  0  0  2  0  0  0  0  0  0
  182.1970  178.9810  143.2960 C   0  0  0  0  0  2  0  0  0  0  0  0
  182.8330  178.8970  144.5330 O   0  0  0  0  0  1  0  0  0  0  0  0
  1 13  1  0  0  0  0
  1 15  1  0  0  0  0
  3 18  2  0  0  0  0
  4 32  1  0  0  0  0
  4  8  1  0  0  0  0
  5 15  1  0  0  0  0
  6 16  1  0  0  0  0
  8 28  1  6  0  0  0
  8 19  1  0  0  0  0
  9 17  1  0  0  0  0
 10  6  2  0  0  0  0
 10  3  1  0  0  0  0
 11 27  1  0  0  0  0
 11 26  1  1  0  0  0
 11 25  1  0  0  0  0
 12  5  1  0  0  0  0
 12 30  1  1  0  0  0
 13 17  1  0  0  0  0
 13  7  1  1  0  0  0
 14  4  1  0  0  0  0
 15  7  1  0  0  0  0
 15 20  2  1  0  0  0
 16  2  2  0  0  0  0
 17 35  1  1  0  0  0
 18  2  1  0  0  0  0
 18  9  1  0  0  0  0
 19 24  1  6  0  0  0
 21 14  2  0  0  0  0
 22 23  1  0  0  0  0
 23  6  1  0  0  0  0
 24 12  1  0  0  0  0
 25 22  1  6  0  0  0
 26 14  1  0  0  0  0
 27 26  1  1  0  0  0
 27 25  1  0  0  0  0
 28 19  1  0  0  0  0
 30 29  2  0  0  0  0
 30 31  1  0  0  0  0
 33 34  3  0  0  0  0
 34 32  1  0  0  0  0
 35 36  1  0  0  0  0
 36 37  1  0  0  0  0
M  END
>  <MODEL>
2

>  <REMARK>
 VINA RESULT:      -6.0      3.515      8.962
  Name = 
  5 active torsions:
  status: ('A' for Active; 'I' for Inactive)
    1  A    between atoms: N_4  and  C_14
    2  A    between atoms: C_11  and  C_16
    3  A    between atoms: C_14  and  C_19
    4  A    between atoms: C_22  and  C_32
    5  A    between atoms: C_23  and  C_32
                            x       y       z     vdW  Elec       q    Type
                         _______ _______ _______ _____ _____    ______ ____

>  <TORSDO>
F 5

$$$$
=
 OpenBabel11062412293D

 37 42  0  0  1  0  0  0  0  0999 V2000
  186.0790  177.9560  142.9740 O   0  0  0  0  0  0  0  0  0  0  0  0
  189.2580  178.1740  144.3070 C   0  0  0  0  0  3  0  0  0  0  0  0
  188.9000  175.9560  143.4070 C   0  0  0  0  0  3  0  0  0  0  0  0
  186.9960  177.1350  136.3080 N   0  0  0  0  0  0  0  0  0  0  0  0
  183.8550  178.6000  141.3270 O   0  0  0  0  0  0  0  0  0  0  0  0
  190.5590  177.4200  142.4110 C   0  0  0  0  0  0  0  0  0  0  0  0
  184.2450  178.2870  144.1900 C   0  0  0  0  0  2  0  0  0  0  0  0
  186.3930  176.7430  137.5910 C   0  0  1  0  0  3  0  0  0  0  0  0
  187.5420  176.7210  145.2510 O   0  0  0  0  0  0  0  0  0  0  0  0
  189.8840  176.1920  142.4410 C   0  0  0  0  0  3  0  0  0  0  0  0
  190.6400  177.1440  137.9280 C   0  0  2  0  0  3  0  0  0  0  0  0
  184.6030  178.9290  140.1910 C   0  0  1  0  0  3  0  0  0  0  0  0
  185.4870  177.4100  144.1420 C   0  0  2  0  0  3  0  0  0  0  0  0
  188.4080  177.3990  136.2200 C   0  0  0  0  0  0  0  0  0  0  0  0
  184.7980  179.0210  142.6710 P   0  0  1  0  0  0  0  0  0  0  0  0
  190.2530  178.4040  143.3560 C   0  0  0  0  0  3  0  0  0  0  0  0
  186.3900  177.5600  145.3760 C   0  0  2  0  0  3  0  0  0  0  0  0
  188.5680  176.9540  144.3280 C   0  0  0  0  0  0  0  0  0  0  0  0
  185.4210  177.7660  138.0530 C   0  0  2  0  0  3  0  0  0  0  0  0
  185.1890  180.4800  142.7740 O   0  0  0  0  0  0  0  0  0  0  0  0
  188.9010  177.8370  135.1460 O   0  0  0  0  0  0  0  0  0  0  0  0
  191.5240  177.0190  140.1740 N   0  0  0  0  0  2  0  0  0  0  0  0
  191.5300  177.6970  141.4010 N   0  0  0  0  0  2  0  0  0  0  0  0
  185.1090  177.6330  139.5390 C   0  0  0  0  0  2  0  0  0  0  0  0
  190.5850  177.7240  139.3170 C   0  0  2  0  0  3  0  0  0  0  0  0
  189.2710  177.1750  137.3320 N   0  0  0  0  0  0  0  0  0  0  0  0
  189.5840  176.7560  138.7310 C   0  0  1  0  0  3  0  0  0  0  0  0
  185.0040  176.5710  137.4370 O   0  0  0  0  0  0  0  0  0  0  0  0
  184.1800  180.8230  138.7830 O   0  0  0  0  0  0  0  0  0  0  0  0
  183.7430  179.7530  139.2810 C   0  0  0  0  0  0  0  0  0  0  0  0
  182.4620  179.3180  138.9630 O   0  0  0  0  0  1  0  0  0  0  0  0
  186.1730  177.2550  135.1020 C   0  0  0  0  0  2  0  0  0  0  0  0
  184.9260  174.9500  134.5940 C   0  0  0  0  0  3  0  0  0  0  0  0
  185.4880  175.9900  134.8230 C   0  0  0  0  0  0  0  0  0  0  0  0
  186.7610  179.0020  145.7210 C   0  0  0  0  0  2  0  0  0  0  0  0
  186.2000  179.3820  147.0780 C   0  0  0  0  0  2  0  0  0  0  0  0
  185.0580  178.6280  147.3460 O   0  0  0  0  0  1  0  0  0  0  0  0
  1 13  1  0  0  0  0
  2 18  1  0  0  0  0
  3 18  2  0  0  0  0
  4  8  1  0  0  0  0
  5 15  1  0  0  0  0
  6 10  2  0  0  0  0
  6 16  1  0  0  0  0
  8 28  1  6  0  0  0
  8 19  1  0  0  0  0
  9 17  1  0  0  0  0
 10  3  1  0  0  0  0
 11 26  1  6  0  0  0
 11 27  1  0  0  0  0
 11 25  1  0  0  0  0
 12 30  1  6  0  0  0
 12  5  1  0  0  0  0
 13  7  1  1  0  0  0
 13 17  1  0  0  0  0
 14  4  1  0  0  0  0
 14 26  1  0  0  0  0
 15 20  2  1  0  0  0
 15  1  1  0  0  0  0
 15  7  1  0  0  0  0
 16  2  2  0  0  0  0
 17 35  1  6  0  0  0
 18  9  1  0  0  0  0
 19 24  1  1  0  0  0
 21 14  2  0  0  0  0
 22 23  1  0  0  0  0
 23  6  1  0  0  0  0
 24 12  1  0  0  0  0
 25 22  1  1  0  0  0
 27 26  1  6  0  0  0
 27 25  1  0  0  0  0
 28 19  1  0  0  0  0
 29 30  2  0  0  0  0
 31 30  1  0  0  0  0
 32  4  1  0  0  0  0
 33 34  3  0  0  0  0
 34 32  1  0  0  0  0
 35 36  1  0  0  0  0
 36 37  1  0  0  0  0
M  END
>  <MODEL>
3

>  <REMARK>
 VINA RESULT:      -5.4      3.533      7.058
  Name = 
  5 active torsions:
  status: ('A' for Active; 'I' for Inactive)
    1  A    between atoms: N_4  and  C_14
    2  A    between atoms: C_11  and  C_16
    3  A    between atoms: C_14  and  C_19
    4  A    between atoms: C_22  and  C_32
    5  A    between atoms: C_23  and  C_32
                            x       y       z     vdW  Elec       q    Type
                         _______ _______ _______ _____ _____    ______ ____

>  <TORSDO>
F 5

$$$$
=
 OpenBabel11062412293D

 37 42  0  0  1  0  0  0  0  0999 V2000
  183.8010  178.0260  138.6200 O   0  0  0  0  0  0  0  0  0  0  0  0
  181.8650  175.4690  137.3380 C   0  0  0  0  0  3  0  0  0  0  0  0
  183.1250  176.5120  135.5540 C   0  0  0  0  0  3  0  0  0  0  0  0
  190.2140  176.0040  137.7660 N   0  0  0  0  0  0  0  0  0  0  0  0
  185.7350  179.3090  140.2590 O   0  0  0  0  0  0  0  0  0  0  0  0
  183.5640  174.2050  136.1660 C   0  0  0  0  0  0  0  0  0  0  0  0
  182.9260  179.7750  139.6800 C   0  0  0  0  0  2  0  0  0  0  0  0
  189.1410  177.0000  137.6280 C   0  0  1  0  0  3  0  0  0  0  0  0
  181.4860  177.8080  136.7640 O   0  0  0  0  0  0  0  0  0  0  0  0
  183.8400  175.3240  135.3690 C   0  0  0  0  0  3  0  0  0  0  0  0
  187.9410  173.1960  136.0780 C   0  0  2  0  0  3  0  0  0  0  0  0
  186.6470  178.2480  140.2680 C   0  0  1  0  0  3  0  0  0  0  0  0
  182.8590  179.0510  138.3440 C   0  0  2  0  0  3  0  0  0  0  0  0
  189.9910  174.6370  137.3760 C   0  0  0  0  0  0  0  0  0  0  0  0
  184.1880  178.6220  140.1560 P   0  0  1  0  0  0  0  0  0  0  0  0
  182.5640  174.2770  137.1410 C   0  0  0  0  0  3  0  0  0  0  0  0
  181.4660  178.4890  138.0220 C   0  0  2  0  0  3  0  0  0  0  0  0
  182.1510  176.5950  136.5540 C   0  0  0  0  0  0  0  0  0  0  0  0
  188.7330  177.5240  138.9570 C   0  0  2  0  0  3  0  0  0  0  0  0
  183.8050  177.6850  141.2810 O   0  0  0  0  0  0  0  0  0  0  0  0
  190.8760  173.7670  137.5940 O   0  0  0  0  0  0  0  0  0  0  0  0
  185.6080  173.0060  135.4740 N   0  0  0  0  0  2  0  0  0  0  0  0
  184.3190  173.0010  136.0250 N   0  0  0  0  0  2  0  0  0  0  0  0
  187.3690  178.2030  138.9120 C   0  0  0  0  0  2  0  0  0  0  0  0
  186.5190  173.3250  136.5610 C   0  0  2  0  0  3  0  0  0  0  0  0
  188.7780  174.2390  136.7430 N   0  0  0  0  0  0  0  0  0  0  0  0
  187.4190  174.4730  136.1670 C   0  0  1  0  0  3  0  0  0  0  0  0
  189.5810  178.2510  138.1020 O   0  0  0  0  0  0  0  0  0  0  0  0
  188.4100  179.3800  141.4360 O   0  0  0  0  0  0  0  0  0  0  0  0
  187.5790  178.4350  141.4290 C   0  0  0  0  0  0  0  0  0  0  0  0
  187.5030  177.5750  142.5170 O   0  0  0  0  0  1  0  0  0  0  0  0
  191.5260  176.3880  138.2920 C   0  0  0  0  0  2  0  0  0  0  0  0
  193.3580  176.3530  136.3510 C   0  0  0  0  0  3  0  0  0  0  0  0
  192.5310  176.3680  137.2260 C   0  0  0  0  0  0  0  0  0  0  0  0
  180.8540  177.6330  139.1310 C   0  0  0  0  0  2  0  0  0  0  0  0
  179.5000  178.1830  139.5360 C   0  0  0  0  0  2  0  0  0  0  0  0
  179.3840  179.5090  139.1220 O   0  0  0  0  0  1  0  0  0  0  0  0
  1 15  1  0  0  0  0
  3 18  1  0  0  0  0
  4 32  1  0  0  0  0
  5 12  1  0  0  0  0
  6 16  2  0  0  0  0
  7 15  1  0  0  0  0
  8  4  1  0  0  0  0
  8 28  1  6  0  0  0
  8 19  1  0  0  0  0
  9 17  1  0  0  0  0
 10  3  2  0  0  0  0
 10  6  1  0  0  0  0
 11 27  1  0  0  0  0
 11 25  1  0  0  0  0
 11 26  1  1  0  0  0
 12 30  1  1  0  0  0
 13  1  1  0  0  0  0
 13  7  1  1  0  0  0
 14 21  2  0  0  0  0
 14  4  1  0  0  0  0
 15  5  1  0  0  0  0
 15 20  2  1  0  0  0
 16  2  1  0  0  0  0
 17 13  1  0  0  0  0
 17 35  1  1  0  0  0
 18  9  1  0  0  0  0
 18  2  2  0  0  0  0
 19 24  1  6  0  0  0
 22 23  1  0  0  0  0
 23  6  1  0  0  0  0
 24 12  1  0  0  0  0
 25 22  1  6  0  0  0
 26 14  1  0  0  0  0
 27 25  1  0  0  0  0
 27 26  1  1  0  0  0
 28 19  1  0  0  0  0
 30 29  2  0  0  0  0
 30 31  1  0  0  0  0
 33 34  3  0  0  0  0
 34 32  1  0  0  0  0
 35 36  1  0  0  0  0
 37 36  1  0  0  0  0
M  END
>  <MODEL>
4

>  <REMARK>
 VINA RESULT:      -5.2      3.431      8.961
  Name = 
  5 active torsions:
  status: ('A' for Active; 'I' for Inactive)
    1  A    between atoms: N_4  and  C_14
    2  A    between atoms: C_11  and  C_16
    3  A    between atoms: C_14  and  C_19
    4  A    between atoms: C_22  and  C_32
    5  A    between atoms: C_23  and  C_32
                            x       y       z     vdW  Elec       q    Type
                         _______ _______ _______ _____ _____    ______ ____

>  <TORSDO>
F 5

$$$$
=
 OpenBabel11062412293D

 37 42  0  0  1  0  0  0  0  0999 V2000
  183.1030  178.0720  138.2420 O   0  0  0  0  0  0  0  0  0  0  0  0
  180.4770  175.9050  138.8220 C   0  0  0  0  0  3  0  0  0  0  0  0
  180.7510  176.2370  136.4400 C   0  0  0  0  0  3  0  0  0  0  0  0
  187.8290  174.3490  135.1200 N   0  0  0  0  0  0  0  0  0  0  0  0
  185.7510  179.0990  138.3330 O   0  0  0  0  0  0  0  0  0  0  0  0
  181.1470  174.0520  137.4180 C   0  0  0  0  0  0  0  0  0  0  0  0
  183.1340  180.1540  139.0270 C   0  0  0  0  0  2  0  0  0  0  0  0
  186.9760  175.5430  135.2170 C   0  0  1  0  0  3  0  0  0  0  0  0
  180.1550  178.1130  137.8390 O   0  0  0  0  0  0  0  0  0  0  0  0
  181.1090  174.8930  136.2970 C   0  0  0  0  0  3  0  0  0  0  0  0
  184.6750  171.9550  135.5920 C   0  0  2  0  0  3  0  0  0  0  0  0
  186.3930  177.8610  138.2230 C   0  0  1  0  0  3  0  0  0  0  0  0
  182.2940  179.2340  138.1540 C   0  0  2  0  0  3  0  0  0  0  0  0
  187.2650  173.0370  135.2970 C   0  0  0  0  0  0  0  0  0  0  0  0
  184.3020  178.8250  139.1700 P   0  0  1  0  0  0  0  0  0  0  0  0
  180.8150  174.5590  138.6780 C   0  0  0  0  0  3  0  0  0  0  0  0
  180.8770  178.9990  138.7000 C   0  0  2  0  0  3  0  0  0  0  0  0
  180.4560  176.7530  137.7060 C   0  0  0  0  0  0  0  0  0  0  0  0
  187.3860  176.3930  136.3640 C   0  0  2  0  0  3  0  0  0  0  0  0
  184.4420  178.2460  140.5610 O   0  0  0  0  0  0  0  0  0  0  0  0
  188.0160  172.0250  135.3180 O   0  0  0  0  0  0  0  0  0  0  0  0
  182.3650  172.2610  136.2340 N   0  0  0  0  0  2  0  0  0  0  0  0
  181.5590  172.6900  137.2970 N   0  0  0  0  0  2  0  0  0  0  0  0
  186.2950  177.3790  136.7670 C   0  0  0  0  0  2  0  0  0  0  0  0
  183.7390  172.5320  136.6220 C   0  0  2  0  0  3  0  0  0  0  0  0
  185.8600  172.8530  135.4510 N   0  0  0  0  0  0  0  0  0  0  0  0
  184.4420  173.3160  135.5380 C   0  0  1  0  0  3  0  0  0  0  0  0
  187.7520  176.7050  135.0420 O   0  0  0  0  0  0  0  0  0  0  0  0
  188.2730  177.2410  139.5760 O   0  0  0  0  0  1  0  0  0  0  0  0
  187.8060  178.0160  138.7020 C   0  0  0  0  0  0  0  0  0  0  0  0
  188.6130  179.0070  138.1550 O   0  0  0  0  0  0  0  0  0  0  0  0
  189.2600  174.4750  134.8340 C   0  0  0  0  0  2  0  0  0  0  0  0
  190.6900  174.0940  137.0550 C   0  0  0  0  0  3  0  0  0  0  0  0
  190.0460  174.2650  136.0520 C   0  0  0  0  0  0  0  0  0  0  0  0
  180.8250  178.5520  140.1610 C   0  0  0  0  0  2  0  0  0  0  0  0
  179.7780  179.3450  140.9190 C   0  0  0  0  0  2  0  0  0  0  0  0
  180.0380  180.7090  140.7980 O   0  0  0  0  0  1  0  0  0  0  0  0
  1 15  1  0  0  0  0
  3 18  1  0  0  0  0
  4  8  1  0  0  0  0
  4 14  1  0  0  0  0
  5 15  1  0  0  0  0
  6 16  2  0  0  0  0
  7 15  1  0  0  0  0
  8 28  1  6  0  0  0
  8 19  1  0  0  0  0
  9 17  1  0  0  0  0
 10  3  2  0  0  0  0
 10  6  1  0  0  0  0
 11 26  1  1  0  0  0
 11 25  1  0  0  0  0
 12  5  1  0  0  0  0
 12 30  1  6  0  0  0
 13  1  1  0  0  0  0
 13 17  1  0  0  0  0
 13  7  1  1  0  0  0
 14 21  2  0  0  0  0
 14 26  1  0  0  0  0
 15 20  2  1  0  0  0
 16  2  1  0  0  0  0
 17 35  1  1  0  0  0
 18  9  1  0  0  0  0
 18  2  2  0  0  0  0
 19 24  1  6  0  0  0
 22 23  1  0  0  0  0
 23  6  1  0  0  0  0
 24 12  1  0  0  0  0
 25 22  1  6  0  0  0
 27 26  1  1  0  0  0
 27 11  1  0  0  0  0
 27 25  1  0  0  0  0
 28 19  1  0  0  0  0
 30 29  1  0  0  0  0
 31 30  2  0  0  0  0
 32  4  1  0  0  0  0
 32 34  1  0  0  0  0
 34 33  3  0  0  0  0
 35 36  1  0  0  0  0
 37 36  1  0  0  0  0
M  END
>  <MODEL>
5

>  <REMARK>
 VINA RESULT:      -5.2      3.893      9.024
  Name = 
  5 active torsions:
  status: ('A' for Active; 'I' for Inactive)
    1  A    between atoms: N_4  and  C_14
    2  A    between atoms: C_11  and  C_16
    3  A    between atoms: C_14  and  C_19
    4  A    between atoms: C_22  and  C_32
    5  A    between atoms: C_23  and  C_32
                            x       y       z     vdW  Elec       q    Type
                         _______ _______ _______ _____ _____    ______ ____

>  <TORSDO>
F 5

$$$$
=
 OpenBabel11062412293D

 37 42  0  0  1  0  0  0  0  0999 V2000
  185.6420  178.3530  140.8270 O   0  0  0  0  0  0  0  0  0  0  0  0
  182.6030  176.8040  140.2870 C   0  0  0  0  0  3  0  0  0  0  0  0
  183.1330  178.2390  138.4120 C   0  0  0  0  0  3  0  0  0  0  0  0
  189.7850  175.8470  136.0830 N   0  0  0  0  0  0  0  0  0  0  0  0
  188.4240  178.6030  141.3510 O   0  0  0  0  0  0  0  0  0  0  0  0
  183.0090  175.8350  138.1070 C   0  0  0  0  0  0  0  0  0  0  0  0
  186.0170  179.6800  142.5730 C   0  0  0  0  0  2  0  0  0  0  0  0
  189.1790  176.9730  136.8100 C   0  0  1  0  0  3  0  0  0  0  0  0
  182.8040  179.2140  140.5960 O   0  0  0  0  0  0  0  0  0  0  0  0
  183.2300  177.1170  137.5840 C   0  0  0  0  0  3  0  0  0  0  0  0
  186.1950  174.2760  135.3500 C   0  0  2  0  0  3  0  0  0  0  0  0
  188.8170  177.4920  140.5970 C   0  0  1  0  0  3  0  0  0  0  0  0
  185.0870  179.5360  141.3780 C   0  0  2  0  0  3  0  0  0  0  0  0
  188.9620  174.7830  135.5750 C   0  0  0  0  0  0  0  0  0  0  0  0
  186.8860  178.2530  141.9720 P   0  0  1  0  0  0  0  0  0  0  0  0
  182.6810  175.6840  139.4580 C   0  0  0  0  0  3  0  0  0  0  0  0
  183.6120  179.3600  141.7680 C   0  0  2  0  0  3  0  0  0  0  0  0
  182.8410  178.0850  139.7710 C   0  0  0  0  0  0  0  0  0  0  0  0
  189.6520  177.0090  138.2180 C   0  0  2  0  0  3  0  0  0  0  0  0
  186.7930  177.0300  142.8590 O   0  0  0  0  0  0  0  0  0  0  0  0
  189.4950  173.7700  135.0470 O   0  0  0  0  0  0  0  0  0  0  0  0
  183.9440  174.6910  136.1300 N   0  0  0  0  0  2  0  0  0  0  0  0
  183.1540  174.6750  137.2880 N   0  0  0  0  0  2  0  0  0  0  0  0
  188.7470  177.8550  139.1060 C   0  0  0  0  0  2  0  0  0  0  0  0
  185.3090  174.4290  136.5590 C   0  0  2  0  0  3  0  0  0  0  0  0
  187.5400  174.8470  135.6570 N   0  0  0  0  0  0  0  0  0  0  0  0
  186.2390  175.4880  136.0150 C   0  0  1  0  0  3  0  0  0  0  0  0
  190.1800  177.8670  137.2360 O   0  0  0  0  0  0  0  0  0  0  0  0
  190.3590  176.0030  141.6730 O   0  0  0  0  0  1  0  0  0  0  0  0
  190.1880  177.0790  141.0430 C   0  0  0  0  0  0  0  0  0  0  0  0
  191.2820  177.8780  140.7330 O   0  0  0  0  0  0  0  0  0  0  0  0
  191.2320  175.7970  135.8580 C   0  0  0  0  0  2  0  0  0  0  0  0
  192.3900  174.1300  137.5920 C   0  0  0  0  0  3  0  0  0  0  0  0
  191.8660  174.8810  136.8100 C   0  0  0  0  0  0  0  0  0  0  0  0
  183.3530  178.2530  142.7890 C   0  0  0  0  0  2  0  0  0  0  0  0
  182.5950  178.8010  143.9830 C   0  0  0  0  0  2  0  0  0  0  0  0
  183.4740  179.0090  145.0450 O   0  0  0  0  0  1  0  0  0  0  0  0
  1 13  1  0  0  0  0
  1 15  1  0  0  0  0
  3 18  2  0  0  0  0
  4  8  1  0  0  0  0
  5 15  1  0  0  0  0
  6 16  1  0  0  0  0
  8 28  1  6  0  0  0
  8 19  1  0  0  0  0
  9 17  1  0  0  0  0
 10  6  2  0  0  0  0
 10  3  1  0  0  0  0
 11 26  1  1  0  0  0
 11 27  1  0  0  0  0
 11 25  1  0  0  0  0
 12 30  1  1  0  0  0
 12  5  1  0  0  0  0
 13 17  1  0  0  0  0
 13  7  1  1  0  0  0
 14 26  1  0  0  0  0
 14  4  1  0  0  0  0
 15  7  1  0  0  0  0
 15 20  2  1  0  0  0
 16  2  2  0  0  0  0
 17 35  1  1  0  0  0
 18  2  1  0  0  0  0
 18  9  1  0  0  0  0
 19 24  1  1  0  0  0
 21 14  2  0  0  0  0
 22 23  1  0  0  0  0
 23  6  1  0  0  0  0
 24 12  1  0  0  0  0
 25 22  1  6  0  0  0
 27 26  1  1  0  0  0
 27 25  1  0  0  0  0
 28 19  1  0  0  0  0
 30 29  1  0  0  0  0
 31 30  2  0  0  0  0
 32  4  1  0  0  0  0
 32 34  1  0  0  0  0
 34 33  3  0  0  0  0
 35 36  1  0  0  0  0
 36 37  1  0  0  0  0
M  END
>  <MODEL>
6

>  <REMARK>
 VINA RESULT:      -5.0      3.512      8.731
  Name = 
  5 active torsions:
  status: ('A' for Active; 'I' for Inactive)
    1  A    between atoms: N_4  and  C_14
    2  A    between atoms: C_11  and  C_16
    3  A    between atoms: C_14  and  C_19
    4  A    between atoms: C_22  and  C_32
    5  A    between atoms: C_23  and  C_32
                            x       y       z     vdW  Elec       q    Type
                         _______ _______ _______ _____ _____    ______ ____

>  <TORSDO>
F 5

$$$$
=
 OpenBabel11062412293D

 37 42  0  0  1  0  0  0  0  0999 V2000
  183.1680  177.8940  138.3220 O   0  0  0  0  0  0  0  0  0  0  0  0
  180.7370  175.4490  138.5200 C   0  0  0  0  0  3  0  0  0  0  0  0
  181.1720  175.9810  136.1990 C   0  0  0  0  0  3  0  0  0  0  0  0
  188.4900  174.8800  135.3990 N   0  0  0  0  0  0  0  0  0  0  0  0
  185.6820  179.1580  138.7170 O   0  0  0  0  0  0  0  0  0  0  0  0
  181.7050  173.7770  137.0620 C   0  0  0  0  0  0  0  0  0  0  0  0
  182.9220  179.9040  139.2420 C   0  0  0  0  0  2  0  0  0  0  0  0
  187.5150  175.9770  135.4970 C   0  0  1  0  0  3  0  0  0  0  0  0
  180.2750  177.6830  137.6590 O   0  0  0  0  0  0  0  0  0  0  0  0
  181.6750  174.6920  136.0000 C   0  0  0  0  0  3  0  0  0  0  0  0
  185.5670  172.1680  135.4270 C   0  0  2  0  0  3  0  0  0  0  0  0
  186.4530  177.9990  138.5840 C   0  0  1  0  0  3  0  0  0  0  0  0
  182.2550  178.9760  138.2380 C   0  0  2  0  0  3  0  0  0  0  0  0
  188.0490  173.5120  135.4370 C   0  0  0  0  0  0  0  0  0  0  0  0
  184.2040  178.6870  139.4010 P   0  0  1  0  0  0  0  0  0  0  0  0
  181.2200  174.1560  138.3180 C   0  0  0  0  0  3  0  0  0  0  0  0
  180.8300  178.5670  138.6380 C   0  0  2  0  0  3  0  0  0  0  0  0
  180.7220  176.3720  137.4640 C   0  0  0  0  0  0  0  0  0  0  0  0
  187.7400  176.7750  136.7300 C   0  0  2  0  0  3  0  0  0  0  0  0
  184.2860  178.0210  140.7580 O   0  0  0  0  0  0  0  0  0  0  0  0
  188.8940  172.5770  135.4600 O   0  0  0  0  0  0  0  0  0  0  0  0
  183.1920  172.2040  135.8770 N   0  0  0  0  0  2  0  0  0  0  0  0
  182.2620  172.4740  136.8900 N   0  0  0  0  0  2  0  0  0  0  0  0
  186.5250  177.6190  137.0970 C   0  0  0  0  0  2  0  0  0  0  0  0
  184.4950  172.5750  136.4040 C   0  0  2  0  0  3  0  0  0  0  0  0
  186.6620  173.1830  135.4530 N   0  0  0  0  0  0  0  0  0  0  0  0
  185.2020  173.5010  135.4420 C   0  0  1  0  0  3  0  0  0  0  0  0
  188.1820  177.2170  135.4700 O   0  0  0  0  0  0  0  0  0  0  0  0
  188.6330  178.9970  138.6220 O   0  0  0  0  0  0  0  0  0  0  0  0
  187.7980  178.2520  139.1970 C   0  0  0  0  0  0  0  0  0  0  0  0
  188.1130  177.6810  140.4240 O   0  0  0  0  0  1  0  0  0  0  0  0
  189.9190  175.1630  135.2520 C   0  0  0  0  0  2  0  0  0  0  0  0
  191.1660  174.9300  137.6000 C   0  0  0  0  0  3  0  0  0  0  0  0
  190.6020  175.0340  136.5410 C   0  0  0  0  0  0  0  0  0  0  0  0
  180.7020  178.0100  140.0560 C   0  0  0  0  0  2  0  0  0  0  0  0
  179.3690  178.4060  140.6620 C   0  0  0  0  0  2  0  0  0  0  0  0
  179.2720  177.9060  141.9590 O   0  0  0  0  0  1  0  0  0  0  0  0
  1 15  1  0  0  0  0
  3 18  1  0  0  0  0
  4 14  1  0  0  0  0
  4  8  1  0  0  0  0
  5 15  1  0  0  0  0
  6 16  2  0  0  0  0
  7 15  1  0  0  0  0
  8 28  1  6  0  0  0
  8 19  1  0  0  0  0
  9 17  1  0  0  0  0
 10  3  2  0  0  0  0
 10  6  1  0  0  0  0
 11 27  1  0  0  0  0
 11 26  1  1  0  0  0
 11 25  1  0  0  0  0
 12  5  1  0  0  0  0
 12 30  1  6  0  0  0
 13  1  1  0  0  0  0
 13 17  1  0  0  0  0
 13  7  1  1  0  0  0
 14 26  1  0  0  0  0
 14 21  2  0  0  0  0
 15 20  2  1  0  0  0
 16  2  1  0  0  0  0
 17 35  1  1  0  0  0
 18  9  1  0  0  0  0
 18  2  2  0  0  0  0
 19 24  1  6  0  0  0
 22 23  1  0  0  0  0
 23  6  1  0  0  0  0
 24 12  1  0  0  0  0
 25 22  1  6  0  0  0
 27 26  1  1  0  0  0
 27 25  1  0  0  0  0
 28 19  1  0  0  0  0
 29 30  2  0  0  0  0
 30 31  1  0  0  0  0
 32  4  1  0  0  0  0
 32 34  1  0  0  0  0
 34 33  3  0  0  0  0
 35 36  1  0  0  0  0
 36 37  1  0  0  0  0
M  END
>  <MODEL>
7

>  <REMARK>
 VINA RESULT:      -4.9      3.811      9.039
  Name = 
  5 active torsions:
  status: ('A' for Active; 'I' for Inactive)
    1  A    between atoms: N_4  and  C_14
    2  A    between atoms: C_11  and  C_16
    3  A    between atoms: C_14  and  C_19
    4  A    between atoms: C_22  and  C_32
    5  A    between atoms: C_23  and  C_32
                            x       y       z     vdW  Elec       q    Type
                         _______ _______ _______ _____ _____    ______ ____

>  <TORSDO>
F 5

$$$$
=
 OpenBabel11062412293D

 37 42  0  0  1  0  0  0  0  0999 V2000
  187.1950  177.2120  138.9780 O   0  0  0  0  0  0  0  0  0  0  0  0
  184.1780  178.6370  138.0840 C   0  0  0  0  0  3  0  0  0  0  0  0
  183.7820  176.6290  139.3750 C   0  0  0  0  0  3  0  0  0  0  0  0
  187.4920  177.7600  145.7270 N   0  0  0  0  0  0  0  0  0  0  0  0
  189.7860  177.0150  140.1260 O   0  0  0  0  0  0  0  0  0  0  0  0
  183.1280  178.7920  140.2580 C   0  0  0  0  0  0  0  0  0  0  0  0
  188.6910  176.5350  137.4770 C   0  0  0  0  0  2  0  0  0  0  0  0
  187.5870  176.9780  144.4860 C   0  0  1  0  0  3  0  0  0  0  0  0
  184.8980  176.4660  137.2400 O   0  0  0  0  0  0  0  0  0  0  0  0
  183.2160  177.4000  140.3950 C   0  0  0  0  0  3  0  0  0  0  0  0
  183.9160  179.1690  144.6650 C   0  0  2  0  0  3  0  0  0  0  0  0
  189.5050  177.7850  141.2590 C   0  0  1  0  0  3  0  0  0  0  0  0
  187.2420  176.3120  137.8820 C   0  0  2  0  0  3  0  0  0  0  0  0
  186.3680  178.6300  145.9530 C   0  0  0  0  0  0  0  0  0  0  0  0
  188.8320  177.6300  138.8670 P   0  0  1  0  0  0  0  0  0  0  0  0
  183.5970  179.4060  139.0930 C   0  0  0  0  0  3  0  0  0  0  0  0
  186.2360  176.6830  136.7820 C   0  0  2  0  0  3  0  0  0  0  0  0
  184.2850  177.2460  138.2260 C   0  0  0  0  0  0  0  0  0  0  0  0
  188.7680  177.3950  143.6880 C   0  0  2  0  0  3  0  0  0  0  0  0
  189.0610  179.0830  138.5130 O   0  0  0  0  0  0  0  0  0  0  0  0
  186.3430  179.3770  146.9680 O   0  0  0  0  0  0  0  0  0  0  0  0
  182.5940  179.1540  142.6410 N   0  0  0  0  0  2  0  0  0  0  0  0
  182.6000  179.5990  141.3120 N   0  0  0  0  0  2  0  0  0  0  0  0
  188.6670  176.9450  142.2350 C   0  0  0  0  0  2  0  0  0  0  0  0
  183.9010  179.4770  143.1900 C   0  0  2  0  0  3  0  0  0  0  0  0
  185.2710  178.6680  145.0450 N   0  0  0  0  0  0  0  0  0  0  0  0
  184.5180  178.2520  143.8230 C   0  0  1  0  0  3  0  0  0  0  0  0
  188.7810  176.2310  144.4780 O   0  0  0  0  0  0  0  0  0  0  0  0
  190.8130  179.0010  142.8590 O   0  0  0  0  0  1  0  0  0  0  0  0
  190.8030  178.2550  141.8460 C   0  0  0  0  0  0  0  0  0  0  0  0
  192.0030  177.8410  141.2820 O   0  0  0  0  0  0  0  0  0  0  0  0
  188.5310  177.6600  146.7550 C   0  0  0  0  0  2  0  0  0  0  0  0
  187.4420  177.1220  149.1320 C   0  0  0  0  0  3  0  0  0  0  0  0
  187.9340  177.3640  148.0590 C   0  0  0  0  0  0  0  0  0  0  0  0
  186.4230  178.0820  136.1940 C   0  0  0  0  0  2  0  0  0  0  0  0
  186.7930  177.9930  134.7260 C   0  0  0  0  0  2  0  0  0  0  0  0
  188.1740  177.8520  134.5940 O   0  0  0  0  0  1  0  0  0  0  0  0
  2 18  2  0  0  0  0
  2 16  1  0  0  0  0
  3 10  2  0  0  0  0
  4 14  1  0  0  0  0
  4 32  1  0  0  0  0
  5 12  1  0  0  0  0
  6 10  1  0  0  0  0
  6 23  1  0  0  0  0
  7 15  1  0  0  0  0
  8 28  1  1  0  0  0
  8  4  1  0  0  0  0
  9 18  1  0  0  0  0
 11 26  1  1  0  0  0
 12 30  1  1  0  0  0
 12 24  1  0  0  0  0
 13  7  1  6  0  0  0
 13  1  1  0  0  0  0
 14 21  2  0  0  0  0
 15 20  2  6  0  0  0
 15  1  1  0  0  0  0
 15  5  1  0  0  0  0
 16  6  2  0  0  0  0
 17 35  1  1  0  0  0
 17  9  1  0  0  0  0
 17 13  1  0  0  0  0
 18  3  1  0  0  0  0
 19 24  1  6  0  0  0
 19 28  1  0  0  0  0
 19  8  1  0  0  0  0
 23 22  1  0  0  0  0
 25 22  1  6  0  0  0
 25 27  1  0  0  0  0
 25 11  1  0  0  0  0
 26 14  1  0  0  0  0
 27 11  1  0  0  0  0
 27 26  1  1  0  0  0
 30 29  1  0  0  0  0
 31 30  2  0  0  0  0
 32 34  1  0  0  0  0
 34 33  3  0  0  0  0
 36 35  1  0  0  0  0
 37 36  1  0  0  0  0
M  END
>  <MODEL>
8

>  <REMARK>
 VINA RESULT:      -4.7      2.862      6.792
  Name = 
  5 active torsions:
  status: ('A' for Active; 'I' for Inactive)
    1  A    between atoms: N_4  and  C_14
    2  A    between atoms: C_11  and  C_16
    3  A    between atoms: C_14  and  C_19
    4  A    between atoms: C_22  and  C_32
    5  A    between atoms: C_23  and  C_32
                            x       y       z     vdW  Elec       q    Type
                         _______ _______ _______ _____ _____    ______ ____

>  <TORSDO>
F 5

$$$$
=
 OpenBabel11062412293D

 37 42  0  0  1  0  0  0  0  0999 V2000
  189.3210  175.9300  138.3710 O   0  0  0  0  0  0  0  0  0  0  0  0
  187.2620  176.9380  135.7880 C   0  0  0  0  0  3  0  0  0  0  0  0
  186.1230  175.2860  137.1420 C   0  0  0  0  0  3  0  0  0  0  0  0
  186.2880  178.1190  144.0230 N   0  0  0  0  0  0  0  0  0  0  0  0
  190.9830  176.1510  140.6650 O   0  0  0  0  0  0  0  0  0  0  0  0
  185.2900  177.5630  137.0440 C   0  0  0  0  0  0  0  0  0  0  0  0
  191.3050  174.9850  138.0220 C   0  0  0  0  0  2  0  0  0  0  0  0
  186.9220  177.0630  143.2190 C   0  0  1  0  0  3  0  0  0  0  0  0
  188.1320  174.6660  135.9540 O   0  0  0  0  0  0  0  0  0  0  0  0
  185.1900  176.2520  137.5310 C   0  0  0  0  0  3  0  0  0  0  0  0
  183.8260  179.0410  141.0260 C   0  0  2  0  0  3  0  0  0  0  0  0
  190.2400  177.1580  141.2890 C   0  0  1  0  0  3  0  0  0  0  0  0
  189.8320  174.7940  137.6920 C   0  0  2  0  0  3  0  0  0  0  0  0
  185.2710  178.9580  143.4480 C   0  0  0  0  0  0  0  0  0  0  0  0
  190.8260  176.3910  138.9940 P   0  0  1  0  0  0  0  0  0  0  0  0
  186.3200  177.8980  136.1600 C   0  0  0  0  0  3  0  0  0  0  0  0
  189.5340  174.8340  136.1850 C   0  0  2  0  0  3  0  0  0  0  0  0
  187.1750  175.6310  136.2870 C   0  0  0  0  0  0  0  0  0  0  0  0
  188.3710  177.3340  143.0420 C   0  0  2  0  0  3  0  0  0  0  0  0
  191.3130  177.7250  138.4690 O   0  0  0  0  0  0  0  0  0  0  0  0
  184.8070  179.9280  144.1060 O   0  0  0  0  0  0  0  0  0  0  0  0
  183.6790  178.4660  138.6820 N   0  0  0  0  0  2  0  0  0  0  0  0
  184.3760  178.5740  137.4700 N   0  0  0  0  0  2  0  0  0  0  0  0
  188.9660  176.5390  141.8850 C   0  0  0  0  0  2  0  0  0  0  0  0
  184.5650  178.9800  139.7140 C   0  0  2  0  0  3  0  0  0  0  0  0
  184.7720  178.7180  142.1340 N   0  0  0  0  0  0  0  0  0  0  0  0
  184.6910  177.9790  140.8390 C   0  0  1  0  0  3  0  0  0  0  0  0
  187.9010  176.4000  143.9830 O   0  0  0  0  0  0  0  0  0  0  0  0
  192.2160  177.3180  142.6370 O   0  0  0  0  0  0  0  0  0  0  0  0
  191.1110  177.8230  142.3130 C   0  0  0  0  0  0  0  0  0  0  0  0
  190.7050  179.0220  142.8870 O   0  0  0  0  0  1  0  0  0  0  0  0
  186.6730  178.3250  145.4220 C   0  0  0  0  0  2  0  0  0  0  0  0
  184.5510  178.0770  147.0220 C   0  0  0  0  0  3  0  0  0  0  0  0
  185.5070  178.1880  146.2990 C   0  0  0  0  0  0  0  0  0  0  0  0
  190.0960  176.0550  135.4580 C   0  0  0  0  0  2  0  0  0  0  0  0
  191.2820  175.6600  134.6000 C   0  0  0  0  0  2  0  0  0  0  0  0
  192.4530  176.1920  135.1380 O   0  0  0  0  0  1  0  0  0  0  0  0
  1 15  1  0  0  0  0
  2 16  2  0  0  0  0
  2 18  1  0  0  0  0
  3 10  1  0  0  0  0
  4 32  1  0  0  0  0
  5 12  1  0  0  0  0
  6 23  1  0  0  0  0
  6 10  2  0  0  0  0
  7 15  1  0  0  0  0
  8 28  1  1  0  0  0
  8  4  1  0  0  0  0
  9 17  1  0  0  0  0
  9 18  1  0  0  0  0
 11 26  1  1  0  0  0
 12 24  1  0  0  0  0
 12 30  1  1  0  0  0
 13  7  1  6  0  0  0
 13  1  1  0  0  0  0
 14  4  1  0  0  0  0
 14 21  2  0  0  0  0
 15 20  2  6  0  0  0
 15  5  1  0  0  0  0
 16  6  1  0  0  0  0
 17 35  1  1  0  0  0
 17 13  1  0  0  0  0
 18  3  2  0  0  0  0
 19 24  1  6  0  0  0
 19  8  1  0  0  0  0
 19 28  1  0  0  0  0
 23 22  1  0  0  0  0
 25 22  1  6  0  0  0
 25 27  1  0  0  0  0
 25 11  1  0  0  0  0
 26 14  1  0  0  0  0
 27 11  1  0  0  0  0
 27 26  1  1  0  0  0
 30 29  2  0  0  0  0
 30 31  1  0  0  0  0
 32 34  1  0  0  0  0
 34 33  3  0  0  0  0
 36 37  1  0  0  0  0
 36 35  1  0  0  0  0
M  END
>  <MODEL>
9

>  <REMARK>
 VINA RESULT:      -4.7      2.825      6.180
  Name = 
  5 active torsions:
  status: ('A' for Active; 'I' for Inactive)
    1  A    between atoms: N_4  and  C_14
    2  A    between atoms: C_11  and  C_16
    3  A    between atoms: C_14  and  C_19
    4  A    between atoms: C_22  and  C_32
    5  A    between atoms: C_23  and  C_32
                            x       y       z     vdW  Elec       q    Type
                         _______ _______ _______ _____ _____    ______ ____

>  <TORSDO>
F 5

$$$$
