=
 OpenBabel11062414593D

 31 35  0  0  1  0  0  0  0  0999 V2000
  184.2350  178.7480  141.7810 C   0  0  0  0  0  0  0  0  0  0  0  0
  182.8550  178.8920  141.9900 C   0  0  0  0  0  3  0  0  0  0  0  0
  183.2060  178.8590  144.3850 C   0  0  0  0  0  3  0  0  0  0  0  0
  184.5850  178.7240  144.1830 C   0  0  0  0  0  0  0  0  0  0  0  0
  185.0960  178.6660  142.8820 C   0  0  0  0  0  3  0  0  0  0  0  0
  182.3430  178.9450  143.2900 C   0  0  0  0  0  3  0  0  0  0  0  0
  184.4080  179.8160  139.6680 O   0  0  0  0  0  1  0  0  0  0  0  0
  184.8070  178.6970  140.4020 C   0  0  1  0  0  3  0  0  0  0  0  0
  186.2990  178.6210  140.4540 C   0  0  0  0  0  3  0  0  0  0  0  0
  186.9830  178.6090  139.3710 N   0  0  0  0  0  0  0  0  0  0  0  0
  188.4180  178.5360  139.4290 C   0  0  0  0  0  2  0  0  0  0  0  0
  190.8340  176.8000  140.9080 C   0  0  0  0  0  0  0  0  0  0  0  0
  189.4720  178.1210  142.2210 C   0  0  0  0  0  2  0  0  0  0  0  0
  189.4910  177.1320  141.1530 N   0  0  0  0  0  0  0  0  0  0  0  0
  190.9080  178.1280  142.6550 C   0  0  0  0  0  0  0  0  0  0  0  0
  189.9090  176.6680  138.9500 N   0  0  0  0  0  2  0  0  0  0  0  0
  191.3350  178.7880  143.6370 O   0  0  0  0  0  0  0  0  0  0  0  0
  191.1050  176.5710  139.6730 N   0  0  0  0  0  0  0  0  0  0  0  0
  188.8470  177.1340  139.8420 C   0  0  2  0  0  3  0  0  0  0  0  0
  191.7640  177.3370  141.8320 N   0  0  0  0  0  2  0  0  0  0  0  0
  185.5040  178.6170  145.3490 C   0  0  0  0  0  2  0  0  0  0  0  0
  188.1140  177.7200  148.3290 C   0  0  1  0  0  3  0  0  0  0  0  0
  191.3790  176.7450  146.4640 C   0  0  0  0  0  1  0  0  0  0  0  0
  189.0740  177.1790  145.7740 C   0  0  0  0  0  3  0  0  0  0  0  0
  187.6840  177.6450  146.0940 C   0  0  1  0  0  0  0  0  0  0  0  0
  186.7190  176.6360  145.9320 O   0  0  0  0  0  0  0  0  0  0  0  0
  187.8170  178.3430  149.5250 F   0  0  0  0  0  0  0  0  0  0  0  0
  187.4770  178.4020  147.2700 O   0  0  0  0  0  0  0  0  0  0  0  0
  189.6350  177.6940  148.1280 C   0  0  0  0  0  2  0  0  0  0  0  0
  189.9830  177.1680  146.7580 C   0  0  0  0  0  0  0  0  0  0  0  0
  186.6760  177.7070  145.0090 C   0  0  1  0  0  3  0  0  0  0  0  0
  1  2  2  0  0  0  0
  1  5  1  0  0  0  0
  2  6  1  0  0  0  0
  4  3  1  0  0  0  0
  4 21  1  0  0  0  0
  5  4  2  0  0  0  0
  6  3  2  0  0  0  0
  8  7  1  6  0  0  0
  8  9  1  0  0  0  0
  8  1  1  0  0  0  0
 10 11  1  0  0  0  0
 10  9  2  0  0  0  0
 12 14  1  0  0  0  0
 12 20  1  0  0  0  0
 13 15  1  0  0  0  0
 14 13  1  0  0  0  0
 15 17  2  0  0  0  0
 16 18  1  0  0  0  0
 16 19  1  0  0  0  0
 18 12  2  0  0  0  0
 19 11  1  6  0  0  0
 19 14  1  0  0  0  0
 20 15  1  0  0  0  0
 22 27  1  1  0  0  0
 23 30  1  0  0  0  0
 24 30  2  0  0  0  0
 25 24  1  6  0  0  0
 25 28  1  0  0  0  0
 26 25  1  0  0  0  0
 28 22  1  0  0  0  0
 29 22  1  0  0  0  0
 30 29  1  0  0  0  0
 31 21  1  1  0  0  0
 31 26  1  0  0  0  0
 31 25  1  0  0  0  0
M  END
>  <MODEL>
1

>  <REMARK>
 VINA RESULT:      -9.9      0.000      0.000
  Name = 
  6 active torsions:
  status: ('A' for Active; 'I' for Inactive)
    1  A    between atoms: C_10  and  C_26
    2  A    between atoms: C_11  and  C_26
    3  A    between atoms: C_12  and  C_20
    4  A    between atoms: C_12  and  C_31
    5  A    between atoms: C_15  and  C_24
    6  A    between atoms: C_15  and  N_27
                            x       y       z     vdW  Elec       q    Type
                         _______ _______ _______ _____ _____    ______ ____

>  <TORSDO>
F 6

$$$$
=
 OpenBabel11062414593D

 31 35  0  0  1  0  0  0  0  0999 V2000
  184.9310  178.8360  144.8640 C   0  0  0  0  0  0  0  0  0  0  0  0
  183.5300  178.8960  144.8280 C   0  0  0  0  0  3  0  0  0  0  0  0
  183.5790  178.7850  142.4100 C   0  0  0  0  0  3  0  0  0  0  0  0
  184.9770  178.7160  142.4410 C   0  0  0  0  0  0  0  0  0  0  0  0
  185.6510  178.7450  143.6670 C   0  0  0  0  0  3  0  0  0  0  0  0
  182.8570  178.8730  143.6030 C   0  0  0  0  0  3  0  0  0  0  0  0
  184.8090  178.5590  147.2190 O   0  0  0  0  0  1  0  0  0  0  0  0
  185.6730  178.8520  146.1610 C   0  0  1  0  0  3  0  0  0  0  0  0
  186.8030  177.8740  146.1330 C   0  0  0  0  0  3  0  0  0  0  0  0
  187.6230  177.8060  147.1150 N   0  0  0  0  0  0  0  0  0  0  0  0
  188.7080  176.8630  147.0810 C   0  0  0  0  0  2  0  0  0  0  0  0
  191.6040  176.6150  145.4730 C   0  0  0  0  0  0  0  0  0  0  0  0
  189.6870  176.9490  144.2320 C   0  0  0  0  0  2  0  0  0  0  0  0
  190.4360  177.3930  145.3990 N   0  0  0  0  0  0  0  0  0  0  0  0
  190.6620  176.0100  143.5840 C   0  0  0  0  0  0  0  0  0  0  0  0
  191.0970  176.9740  147.5510 N   0  0  0  0  0  2  0  0  0  0  0  0
  190.4610  175.4550  142.4730 O   0  0  0  0  0  0  0  0  0  0  0  0
  191.9770  176.3340  146.6700 N   0  0  0  0  0  0  0  0  0  0  0  0
  190.0140  177.5880  146.7840 C   0  0  2  0  0  3  0  0  0  0  0  0
  191.8390  175.7760  144.3570 N   0  0  0  0  0  2  0  0  0  0  0  0
  185.7490  178.6380  141.1700 C   0  0  0  0  0  2  0  0  0  0  0  0
  188.3590  178.8170  138.0630 C   0  0  1  0  0  3  0  0  0  0  0  0
  191.3570  176.6360  139.2210 C   0  0  0  0  0  1  0  0  0  0  0  0
  189.3540  177.5140  140.3110 C   0  0  0  0  0  3  0  0  0  0  0  0
  188.0280  178.2140  140.2340 C   0  0  1  0  0  0  0  0  0  0  0  0
  188.0040  179.4180  140.9570 O   0  0  0  0  0  0  0  0  0  0  0  0
  187.7530  179.0870  136.8520 F   0  0  0  0  0  0  0  0  0  0  0  0
  187.3970  178.3320  138.9750 O   0  0  0  0  0  0  0  0  0  0  0  0
  189.4850  177.7940  137.8570 C   0  0  0  0  0  2  0  0  0  0  0  0
  190.0560  177.3560  139.1830 C   0  0  0  0  0  0  0  0  0  0  0  0
  187.2160  178.3600  141.4650 C   0  0  1  0  0  3  0  0  0  0  0  0
  1  8  1  0  0  0  0
  2  1  1  0  0  0  0
  3  4  2  0  0  0  0
  3  6  1  0  0  0  0
  4  5  1  0  0  0  0
  5  1  2  0  0  0  0
  6  2  2  0  0  0  0
  8  7  1  1  0  0  0
  9  8  1  0  0  0  0
  9 10  2  0  0  0  0
 11 10  1  0  0  0  0
 12 18  2  0  0  0  0
 13 14  1  0  0  0  0
 14 12  1  0  0  0  0
 14 19  1  0  0  0  0
 15 13  1  0  0  0  0
 15 20  1  0  0  0  0
 17 15  2  0  0  0  0
 18 16  1  0  0  0  0
 19 11  1  6  0  0  0
 19 16  1  0  0  0  0
 20 12  1  0  0  0  0
 21  4  1  0  0  0  0
 22 27  1  6  0  0  0
 22 28  1  0  0  0  0
 25 24  1  1  0  0  0
 25 26  1  0  0  0  0
 25 31  1  0  0  0  0
 26 31  1  0  0  0  0
 28 25  1  0  0  0  0
 29 22  1  0  0  0  0
 29 30  1  0  0  0  0
 30 23  1  0  0  0  0
 30 24  2  0  0  0  0
 31 21  1  6  0  0  0
M  END
>  <MODEL>
2

>  <REMARK>
 VINA RESULT:      -9.8      3.432      6.236
  Name = 
  6 active torsions:
  status: ('A' for Active; 'I' for Inactive)
    1  A    between atoms: C_10  and  C_26
    2  A    between atoms: C_11  and  C_26
    3  A    between atoms: C_12  and  C_20
    4  A    between atoms: C_12  and  C_31
    5  A    between atoms: C_15  and  C_24
    6  A    between atoms: C_15  and  N_27
                            x       y       z     vdW  Elec       q    Type
                         _______ _______ _______ _____ _____    ______ ____

>  <TORSDO>
F 6

$$$$
=
 OpenBabel11062414593D

 31 35  0  0  1  0  0  0  0  0999 V2000
  189.1030  177.7420  146.1370 C   0  0  0  0  0  0  0  0  0  0  0  0
  189.2250  177.8310  147.5320 C   0  0  0  0  0  3  0  0  0  0  0  0
  186.8400  178.1990  147.7250 C   0  0  0  0  0  3  0  0  0  0  0  0
  186.7110  178.1020  146.3340 C   0  0  0  0  0  0  0  0  0  0  0  0
  187.8430  177.8770  145.5420 C   0  0  0  0  0  3  0  0  0  0  0  0
  188.0960  178.0610  148.3220 C   0  0  0  0  0  3  0  0  0  0  0  0
  191.2630  176.7700  145.9750 O   0  0  0  0  0  1  0  0  0  0  0  0
  190.2950  177.4890  145.2710 C   0  0  1  0  0  3  0  0  0  0  0  0
  189.8980  176.7460  144.0350 C   0  0  0  0  0  3  0  0  0  0  0  0
  190.3030  177.1420  142.8860 N   0  0  0  0  0  0  0  0  0  0  0  0
  189.9180  176.4240  141.7020 C   0  0  0  0  0  2  0  0  0  0  0  0
  189.4390  177.2080  138.5100 C   0  0  0  0  0  0  0  0  0  0  0  0
  188.3550  178.4570  140.1200 C   0  0  0  0  0  2  0  0  0  0  0  0
  189.6330  177.8800  139.7290 N   0  0  0  0  0  0  0  0  0  0  0  0
  187.5210  178.2040  138.8990 C   0  0  0  0  0  0  0  0  0  0  0  0
  190.9300  176.0040  139.5250 N   0  0  0  0  0  2  0  0  0  0  0  0
  186.3440  178.6270  138.7600 O   0  0  0  0  0  0  0  0  0  0  0  0
  190.1270  176.1310  138.3840 N   0  0  0  0  0  0  0  0  0  0  0  0
  190.5740  177.0520  140.4800 C   0  0  2  0  0  3  0  0  0  0  0  0
  188.1720  177.4080  137.9100 N   0  0  0  0  0  2  0  0  0  0  0  0
  185.3770  178.2640  145.6940 C   0  0  0  0  0  2  0  0  0  0  0  0
  182.0160  179.1280  143.5830 C   0  0  1  0  0  3  0  0  0  0  0  0
  183.0220  178.4630  139.8910 C   0  0  0  0  0  1  0  0  0  0  0  0
  184.2420  178.5840  142.0060 C   0  0  0  0  0  3  0  0  0  0  0  0
  184.2480  178.6840  143.5030 C   0  0  1  0  0  0  0  0  0  0  0  0
  184.8780  179.8500  143.9700 O   0  0  0  0  0  0  0  0  0  0  0  0
  180.8550  179.0000  144.3210 F   0  0  0  0  0  0  0  0  0  0  0  0
  183.0540  178.4020  144.2060 O   0  0  0  0  0  0  0  0  0  0  0  0
  181.7740  178.6230  142.1540 C   0  0  0  0  0  2  0  0  0  0  0  0
  183.0630  178.5960  141.3730 C   0  0  0  0  0  0  0  0  0  0  0  0
  185.5410  178.6280  144.2260 C   0  0  1  0  0  3  0  0  0  0  0  0
  1  2  1  0  0  0  0
  2  6  2  0  0  0  0
  3  6  1  0  0  0  0
  4  3  2  0  0  0  0
  5  1  2  0  0  0  0
  5  4  1  0  0  0  0
  8  7  1  1  0  0  0
  8  1  1  0  0  0  0
  9  8  1  0  0  0  0
 10  9  2  0  0  0  0
 11 10  1  0  0  0  0
 12 14  1  0  0  0  0
 14 13  1  0  0  0  0
 14 19  1  0  0  0  0
 15 13  1  0  0  0  0
 16 19  1  0  0  0  0
 17 15  2  0  0  0  0
 18 12  2  0  0  0  0
 18 16  1  0  0  0  0
 19 11  1  1  0  0  0
 20 12  1  0  0  0  0
 20 15  1  0  0  0  0
 21  4  1  0  0  0  0
 22 28  1  0  0  0  0
 22 27  1  1  0  0  0
 23 30  1  0  0  0  0
 25 24  1  6  0  0  0
 25 26  1  0  0  0  0
 25 28  1  0  0  0  0
 25 31  1  0  0  0  0
 26 31  1  0  0  0  0
 29 22  1  0  0  0  0
 30 24  2  0  0  0  0
 30 29  1  0  0  0  0
 31 21  1  1  0  0  0
M  END
>  <MODEL>
3

>  <REMARK>
 VINA RESULT:      -9.5      2.343      5.982
  Name = 
  6 active torsions:
  status: ('A' for Active; 'I' for Inactive)
    1  A    between atoms: C_10  and  C_26
    2  A    between atoms: C_11  and  C_26
    3  A    between atoms: C_12  and  C_20
    4  A    between atoms: C_12  and  C_31
    5  A    between atoms: C_15  and  C_24
    6  A    between atoms: C_15  and  N_27
                            x       y       z     vdW  Elec       q    Type
                         _______ _______ _______ _____ _____    ______ ____

>  <TORSDO>
F 6

$$$$
=
 OpenBabel11062414593D

 31 35  0  0  1  0  0  0  0  0999 V2000
  187.9470  177.6050  146.3630 C   0  0  0  0  0  0  0  0  0  0  0  0
  188.8550  177.1150  147.3130 C   0  0  0  0  0  3  0  0  0  0  0  0
  190.6170  177.1400  145.6530 C   0  0  0  0  0  3  0  0  0  0  0  0
  189.7170  177.6390  144.7030 C   0  0  0  0  0  0  0  0  0  0  0  0
  188.3830  177.8670  145.0590 C   0  0  0  0  0  3  0  0  0  0  0  0
  190.1860  176.8810  146.9560 C   0  0  0  0  0  3  0  0  0  0  0  0
  186.4390  178.8840  147.6790 O   0  0  0  0  0  1  0  0  0  0  0  0
  186.5200  177.8700  146.7220 C   0  0  1  0  0  3  0  0  0  0  0  0
  185.7330  178.2450  145.5070 C   0  0  0  0  0  3  0  0  0  0  0  0
  185.2820  179.4360  145.3730 N   0  0  0  0  0  0  0  0  0  0  0  0
  184.5260  179.7910  144.2020 C   0  0  0  0  0  2  0  0  0  0  0  0
  182.8740  178.5990  141.5780 C   0  0  0  0  0  0  0  0  0  0  0  0
  185.1520  178.9180  141.3870 C   0  0  0  0  0  2  0  0  0  0  0  0
  184.0980  178.3700  142.2290 N   0  0  0  0  0  0  0  0  0  0  0  0
  184.3920  179.2720  140.1420 C   0  0  0  0  0  0  0  0  0  0  0  0
  182.3740  178.7710  143.6820 N   0  0  0  0  0  2  0  0  0  0  0  0
  184.9380  179.7010  139.0930 O   0  0  0  0  0  0  0  0  0  0  0  0
  181.8960  178.8640  142.3680 N   0  0  0  0  0  0  0  0  0  0  0  0
  183.8210  178.5590  143.6510 C   0  0  2  0  0  3  0  0  0  0  0  0
  182.9800  179.1050  140.2590 N   0  0  0  0  0  2  0  0  0  0  0  0
  190.1700  177.9010  143.3100 C   0  0  0  0  0  2  0  0  0  0  0  0
  190.7090  176.6960  139.4680 C   0  0  1  0  0  3  0  0  0  0  0  0
  187.8870  178.5060  137.5060 C   0  0  0  0  0  1  0  0  0  0  0  0
  188.4080  178.2060  139.8750 C   0  0  0  0  0  3  0  0  0  0  0  0
  189.3390  177.7430  140.9570 C   0  0  1  0  0  0  0  0  0  0  0  0
  188.7930  176.7180  141.7470 O   0  0  0  0  0  0  0  0  0  0  0  0
  192.0060  176.3130  139.1900 F   0  0  0  0  0  0  0  0  0  0  0  0
  190.6930  177.5020  140.6270 O   0  0  0  0  0  0  0  0  0  0  0  0
  190.1280  177.4530  138.2660 C   0  0  0  0  0  2  0  0  0  0  0  0
  188.7740  178.0260  138.6010 C   0  0  0  0  0  0  0  0  0  0  0  0
  188.9720  177.9720  142.3740 C   0  0  1  0  0  3  0  0  0  0  0  0
  1  8  1  0  0  0  0
  1  2  1  0  0  0  0
  3  6  1  0  0  0  0
  4  5  1  0  0  0  0
  4  3  2  0  0  0  0
  5  1  2  0  0  0  0
  6  2  2  0  0  0  0
  8  7  1  1  0  0  0
  9  8  1  0  0  0  0
 10  9  2  0  0  0  0
 11 10  1  0  0  0  0
 12 14  1  0  0  0  0
 12 18  2  0  0  0  0
 13 14  1  0  0  0  0
 14 19  1  0  0  0  0
 15 20  1  0  0  0  0
 15 13  1  0  0  0  0
 17 15  2  0  0  0  0
 18 16  1  0  0  0  0
 19 16  1  0  0  0  0
 19 11  1  6  0  0  0
 20 12  1  0  0  0  0
 21  4  1  0  0  0  0
 22 27  1  6  0  0  0
 22 28  1  0  0  0  0
 23 30  1  0  0  0  0
 25 24  1  6  0  0  0
 25 26  1  0  0  0  0
 25 31  1  0  0  0  0
 26 31  1  0  0  0  0
 28 25  1  0  0  0  0
 29 30  1  0  0  0  0
 29 22  1  0  0  0  0
 30 24  2  0  0  0  0
 31 21  1  1  0  0  0
M  END
>  <MODEL>
4

>  <REMARK>
 VINA RESULT:      -9.4      3.536      7.403
  Name = 
  6 active torsions:
  status: ('A' for Active; 'I' for Inactive)
    1  A    between atoms: C_10  and  C_26
    2  A    between atoms: C_11  and  C_26
    3  A    between atoms: C_12  and  C_20
    4  A    between atoms: C_12  and  C_31
    5  A    between atoms: C_15  and  C_24
    6  A    between atoms: C_15  and  N_27
                            x       y       z     vdW  Elec       q    Type
                         _______ _______ _______ _____ _____    ______ ____

>  <TORSDO>
F 6

$$$$
=
 OpenBabel11062414593D

 31 35  0  0  1  0  0  0  0  0999 V2000
  189.9550  177.3840  146.3790 C   0  0  0  0  0  0  0  0  0  0  0  0
  190.0040  177.6630  147.7530 C   0  0  0  0  0  3  0  0  0  0  0  0
  187.5900  177.8470  147.8090 C   0  0  0  0  0  3  0  0  0  0  0  0
  187.5360  177.5600  146.4390 C   0  0  0  0  0  0  0  0  0  0  0  0
  188.7180  177.3330  145.7260 C   0  0  0  0  0  3  0  0  0  0  0  0
  188.8240  177.8960  148.4640 C   0  0  0  0  0  3  0  0  0  0  0  0
  191.8720  176.0090  146.1070 O   0  0  0  0  0  1  0  0  0  0  0  0
  191.2030  177.1240  145.5970 C   0  0  1  0  0  3  0  0  0  0  0  0
  190.8840  176.9180  144.1520 C   0  0  0  0  0  3  0  0  0  0  0  0
  191.3790  177.6970  143.2640 N   0  0  0  0  0  0  0  0  0  0  0  0
  191.0680  177.4930  141.8750 C   0  0  0  0  0  2  0  0  0  0  0  0
  188.4200  178.2070  139.9990 C   0  0  0  0  0  0  0  0  0  0  0  0
  190.0220  176.7850  139.1390 C   0  0  0  0  0  2  0  0  0  0  0  0
  189.2050  177.0830  140.3070 N   0  0  0  0  0  0  0  0  0  0  0  0
  189.4490  177.7260  138.1200 C   0  0  0  0  0  0  0  0  0  0  0  0
  188.8330  178.4350  142.1170 N   0  0  0  0  0  2  0  0  0  0  0  0
  189.8020  177.7450  136.9130 O   0  0  0  0  0  0  0  0  0  0  0  0
  188.2260  179.0030  140.9890 N   0  0  0  0  0  0  0  0  0  0  0  0
  189.5740  177.2410  141.7120 C   0  0  2  0  0  3  0  0  0  0  0  0
  188.4780  178.6280  138.6490 N   0  0  0  0  0  2  0  0  0  0  0  0
  186.2240  177.5230  145.7360 C   0  0  0  0  0  2  0  0  0  0  0  0
  182.9640  179.0100  143.8230 C   0  0  1  0  0  3  0  0  0  0  0  0
  183.7440  178.4560  140.0580 C   0  0  0  0  0  1  0  0  0  0  0  0
  185.0340  178.2540  142.1250 C   0  0  0  0  0  3  0  0  0  0  0  0
  185.1020  178.2510  143.6240 C   0  0  1  0  0  0  0  0  0  0  0  0
  185.9130  179.2780  144.1360 O   0  0  0  0  0  0  0  0  0  0  0  0
  181.8210  179.0030  144.5990 F   0  0  0  0  0  0  0  0  0  0  0  0
  183.9020  178.0990  144.3560 O   0  0  0  0  0  0  0  0  0  0  0  0
  182.6050  178.6430  142.3760 C   0  0  0  0  0  2  0  0  0  0  0  0
  183.8510  178.4810  141.5420 C   0  0  0  0  0  0  0  0  0  0  0  0
  186.3940  177.9570  144.2880 C   0  0  1  0  0  3  0  0  0  0  0  0
  1  2  1  0  0  0  0
  2  6  2  0  0  0  0
  3  6  1  0  0  0  0
  4  3  2  0  0  0  0
  5  1  2  0  0  0  0
  5  4  1  0  0  0  0
  8  7  1  1  0  0  0
  8  1  1  0  0  0  0
  9  8  1  0  0  0  0
 10  9  2  0  0  0  0
 11 10  1  0  0  0  0
 12 14  1  0  0  0  0
 12 18  2  0  0  0  0
 13 14  1  0  0  0  0
 14 19  1  0  0  0  0
 15 20  1  0  0  0  0
 15 13  1  0  0  0  0
 17 15  2  0  0  0  0
 18 16  1  0  0  0  0
 19 11  1  6  0  0  0
 19 16  1  0  0  0  0
 20 12  1  0  0  0  0
 21  4  1  0  0  0  0
 22 28  1  0  0  0  0
 22 27  1  1  0  0  0
 23 30  1  0  0  0  0
 25 24  1  6  0  0  0
 25 26  1  0  0  0  0
 25 31  1  0  0  0  0
 25 28  1  0  0  0  0
 26 31  1  0  0  0  0
 29 22  1  0  0  0  0
 30 24  2  0  0  0  0
 30 29  1  0  0  0  0
 31 21  1  1  0  0  0
M  END
>  <MODEL>
5

>  <REMARK>
 VINA RESULT:      -9.3      2.356      6.064
  Name = 
  6 active torsions:
  status: ('A' for Active; 'I' for Inactive)
    1  A    between atoms: C_10  and  C_26
    2  A    between atoms: C_11  and  C_26
    3  A    between atoms: C_12  and  C_20
    4  A    between atoms: C_12  and  C_31
    5  A    between atoms: C_15  and  C_24
    6  A    between atoms: C_15  and  N_27
                            x       y       z     vdW  Elec       q    Type
                         _______ _______ _______ _____ _____    ______ ____

>  <TORSDO>
F 6

$$$$
=
 OpenBabel11062414593D

 31 35  0  0  1  0  0  0  0  0999 V2000
  183.6290  178.9000  140.8070 C   0  0  0  0  0  0  0  0  0  0  0  0
  182.2810  178.7590  141.1680 C   0  0  0  0  0  3  0  0  0  0  0  0
  182.9110  178.6310  143.5020 C   0  0  0  0  0  3  0  0  0  0  0  0
  184.2570  178.7810  143.1490 C   0  0  0  0  0  0  0  0  0  0  0  0
  184.6140  178.9110  141.8020 C   0  0  0  0  0  3  0  0  0  0  0  0
  181.9240  178.6230  142.5120 C   0  0  0  0  0  3  0  0  0  0  0  0
  184.3160  180.3930  139.0940 O   0  0  0  0  0  1  0  0  0  0  0  0
  184.0350  179.0540  139.3770 C   0  0  1  0  0  3  0  0  0  0  0  0
  185.2260  178.2030  139.0740 C   0  0  0  0  0  3  0  0  0  0  0  0
  186.1700  178.6530  138.3340 N   0  0  0  0  0  0  0  0  0  0  0  0
  187.3120  177.8290  138.0460 C   0  0  0  0  0  2  0  0  0  0  0  0
  190.1920  177.3050  139.6160 C   0  0  0  0  0  0  0  0  0  0  0  0
  189.9670  176.5330  137.4530 C   0  0  0  0  0  2  0  0  0  0  0  0
  189.7590  177.6750  138.3320 N   0  0  0  0  0  0  0  0  0  0  0  0
  190.7360  175.6010  138.3420 C   0  0  0  0  0  0  0  0  0  0  0  0
  188.5220  178.6340  140.0030 N   0  0  0  0  0  2  0  0  0  0  0  0
  191.2130  174.5040  137.9540 O   0  0  0  0  0  0  0  0  0  0  0  0
  189.4920  177.7990  140.5730 N   0  0  0  0  0  0  0  0  0  0  0  0
  188.5790  178.5090  138.5470 C   0  0  2  0  0  3  0  0  0  0  0  0
  190.8560  176.0560  139.6890 N   0  0  0  0  0  2  0  0  0  0  0  0
  185.3110  178.7750  144.2000 C   0  0  0  0  0  2  0  0  0  0  0  0
  187.9030  177.4850  147.0490 C   0  0  1  0  0  3  0  0  0  0  0  0
  191.2010  176.8380  145.1010 C   0  0  0  0  0  1  0  0  0  0  0  0
  188.8970  177.3380  144.4540 C   0  0  0  0  0  3  0  0  0  0  0  0
  187.4970  177.7340  144.8210 C   0  0  1  0  0  0  0  0  0  0  0  0
  186.5490  176.7470  144.5020 O   0  0  0  0  0  0  0  0  0  0  0  0
  187.5850  177.9220  148.3200 F   0  0  0  0  0  0  0  0  0  0  0  0
  187.2660  178.3060  146.0930 O   0  0  0  0  0  0  0  0  0  0  0  0
  189.4270  177.5100  146.8640 C   0  0  0  0  0  2  0  0  0  0  0  0
  189.7960  177.1950  145.4360 C   0  0  0  0  0  0  0  0  0  0  0  0
  186.4990  177.9400  143.7460 C   0  0  1  0  0  3  0  0  0  0  0  0
  1  2  2  0  0  0  0
  1  5  1  0  0  0  0
  2  6  1  0  0  0  0
  4  3  1  0  0  0  0
  4 21  1  0  0  0  0
  5  4  2  0  0  0  0
  6  3  2  0  0  0  0
  8  7  1  1  0  0  0
  8  1  1  0  0  0  0
  9  8  1  0  0  0  0
 10  9  2  0  0  0  0
 11 10  1  0  0  0  0
 12 20  1  0  0  0  0
 12 18  2  0  0  0  0
 13 14  1  0  0  0  0
 13 15  1  0  0  0  0
 14 19  1  0  0  0  0
 14 12  1  0  0  0  0
 15 20  1  0  0  0  0
 16 18  1  0  0  0  0
 17 15  2  0  0  0  0
 19 11  1  1  0  0  0
 19 16  1  0  0  0  0
 22 27  1  1  0  0  0
 23 30  1  0  0  0  0
 24 30  2  0  0  0  0
 25 24  1  6  0  0  0
 25 28  1  0  0  0  0
 26 25  1  0  0  0  0
 28 22  1  0  0  0  0
 29 22  1  0  0  0  0
 30 29  1  0  0  0  0
 31 21  1  1  0  0  0
 31 26  1  0  0  0  0
 31 25  1  0  0  0  0
M  END
>  <MODEL>
6

>  <REMARK>
 VINA RESULT:      -9.3      1.819      2.349
  Name = 
  6 active torsions:
  status: ('A' for Active; 'I' for Inactive)
    1  A    between atoms: C_10  and  C_26
    2  A    between atoms: C_11  and  C_26
    3  A    between atoms: C_12  and  C_20
    4  A    between atoms: C_12  and  C_31
    5  A    between atoms: C_15  and  C_24
    6  A    between atoms: C_15  and  N_27
                            x       y       z     vdW  Elec       q    Type
                         _______ _______ _______ _____ _____    ______ ____

>  <TORSDO>
F 6

$$$$
=
 OpenBabel11062414593D

 31 35  0  0  1  0  0  0  0  0999 V2000
  189.5770  177.2500  144.2650 C   0  0  0  0  0  0  0  0  0  0  0  0
  189.9860  177.1430  145.6020 C   0  0  0  0  0  3  0  0  0  0  0  0
  187.7180  177.5590  146.3380 C   0  0  0  0  0  3  0  0  0  0  0  0
  187.3020  177.6580  145.0050 C   0  0  0  0  0  0  0  0  0  0  0  0
  188.2330  177.5070  143.9710 C   0  0  0  0  0  3  0  0  0  0  0  0
  189.0580  177.3000  146.6350 C   0  0  0  0  0  3  0  0  0  0  0  0
  191.4760  176.0810  143.4500 O   0  0  0  0  0  1  0  0  0  0  0  0
  190.5490  177.0800  143.1420 C   0  0  1  0  0  3  0  0  0  0  0  0
  189.8330  176.7450  141.8730 C   0  0  0  0  0  3  0  0  0  0  0  0
  190.2940  177.1440  140.7470 N   0  0  0  0  0  0  0  0  0  0  0  0
  189.6010  176.8190  139.5300 C   0  0  0  0  0  2  0  0  0  0  0  0
  187.8960  178.4160  137.1680 C   0  0  0  0  0  0  0  0  0  0  0  0
  187.5000  176.1620  137.4720 C   0  0  0  0  0  2  0  0  0  0  0  0
  187.6500  177.4420  138.1510 N   0  0  0  0  0  0  0  0  0  0  0  0
  187.4850  176.5830  136.0320 C   0  0  0  0  0  0  0  0  0  0  0  0
  189.0560  179.1010  138.8680 N   0  0  0  0  0  2  0  0  0  0  0  0
  187.2780  175.7900  135.0770 O   0  0  0  0  0  0  0  0  0  0  0  0
  188.7110  179.3400  137.5320 N   0  0  0  0  0  0  0  0  0  0  0  0
  188.4810  177.8240  139.2900 C   0  0  2  0  0  3  0  0  0  0  0  0
  187.7570  177.9690  135.8320 N   0  0  0  0  0  2  0  0  0  0  0  0
  185.8770  177.9500  144.6860 C   0  0  0  0  0  2  0  0  0  0  0  0
  182.1910  179.0480  143.3820 C   0  0  1  0  0  3  0  0  0  0  0  0
  182.3630  178.5520  139.5340 C   0  0  0  0  0  1  0  0  0  0  0  0
  184.0060  178.5120  141.3430 C   0  0  0  0  0  3  0  0  0  0  0  0
  184.3330  178.5300  142.8080 C   0  0  1  0  0  0  0  0  0  0  0  0
  185.1010  179.6460  143.1830 O   0  0  0  0  0  0  0  0  0  0  0  0
  181.2070  178.9210  144.3440 F   0  0  0  0  0  0  0  0  0  0  0  0
  183.3020  178.2530  143.7350 O   0  0  0  0  0  0  0  0  0  0  0  0
  181.6290  178.6310  142.0160 C   0  0  0  0  0  2  0  0  0  0  0  0
  182.7220  178.6020  140.9770 C   0  0  0  0  0  0  0  0  0  0  0  0
  185.7450  178.3880  143.2350 C   0  0  1  0  0  3  0  0  0  0  0  0
  1  2  1  0  0  0  0
  2  6  2  0  0  0  0
  3  6  1  0  0  0  0
  4  3  2  0  0  0  0
  5  1  2  0  0  0  0
  5  4  1  0  0  0  0
  8  7  1  1  0  0  0
  8  1  1  0  0  0  0
  9  8  1  0  0  0  0
 10  9  2  0  0  0  0
 11 10  1  0  0  0  0
 12 18  2  0  0  0  0
 12 14  1  0  0  0  0
 13 14  1  0  0  0  0
 14 19  1  0  0  0  0
 15 13  1  0  0  0  0
 16 19  1  0  0  0  0
 17 15  2  0  0  0  0
 18 16  1  0  0  0  0
 19 11  1  6  0  0  0
 20 15  1  0  0  0  0
 20 12  1  0  0  0  0
 21  4  1  0  0  0  0
 22 28  1  0  0  0  0
 22 27  1  1  0  0  0
 23 30  1  0  0  0  0
 25 24  1  6  0  0  0
 25 26  1  0  0  0  0
 25 31  1  0  0  0  0
 25 28  1  0  0  0  0
 26 31  1  0  0  0  0
 29 22  1  0  0  0  0
 30 24  2  0  0  0  0
 30 29  1  0  0  0  0
 31 21  1  1  0  0  0
M  END
>  <MODEL>
7

>  <REMARK>
 VINA RESULT:      -9.0      2.779      6.354
  Name = 
  6 active torsions:
  status: ('A' for Active; 'I' for Inactive)
    1  A    between atoms: C_10  and  C_26
    2  A    between atoms: C_11  and  C_26
    3  A    between atoms: C_12  and  C_20
    4  A    between atoms: C_12  and  C_31
    5  A    between atoms: C_15  and  C_24
    6  A    between atoms: C_15  and  N_27
                            x       y       z     vdW  Elec       q    Type
                         _______ _______ _______ _____ _____    ______ ____

>  <TORSDO>
F 6

$$$$
=
 OpenBabel11062414593D

 31 35  0  0  1  0  0  0  0  0999 V2000
  189.2990  177.7250  145.3330 C   0  0  0  0  0  0  0  0  0  0  0  0
  189.5120  177.3990  146.6810 C   0  0  0  0  0  3  0  0  0  0  0  0
  187.1330  177.5540  147.1020 C   0  0  0  0  0  3  0  0  0  0  0  0
  186.9140  177.8700  145.7560 C   0  0  0  0  0  0  0  0  0  0  0  0
  187.9970  177.9590  144.8750 C   0  0  0  0  0  3  0  0  0  0  0  0
  188.4310  177.3160  147.5620 C   0  0  0  0  0  3  0  0  0  0  0  0
  191.4810  176.9730  144.7700 O   0  0  0  0  0  1  0  0  0  0  0  0
  190.4380  177.8130  144.3690 C   0  0  1  0  0  3  0  0  0  0  0  0
  189.9890  177.4520  142.9900 C   0  0  0  0  0  3  0  0  0  0  0  0
  190.8320  177.0200  142.1280 N   0  0  0  0  0  0  0  0  0  0  0  0
  190.3930  176.6750  140.8030 C   0  0  0  0  0  2  0  0  0  0  0  0
  192.6220  176.3580  138.3600 C   0  0  0  0  0  0  0  0  0  0  0  0
  190.4590  175.6560  137.9680 C   0  0  0  0  0  2  0  0  0  0  0  0
  191.2760  176.7380  138.4980 N   0  0  0  0  0  0  0  0  0  0  0  0
  191.4970  174.7640  137.3530 C   0  0  0  0  0  0  0  0  0  0  0  0
  192.6020  177.5100  140.1980 N   0  0  0  0  0  2  0  0  0  0  0  0
  191.2230  173.7320  136.6880 O   0  0  0  0  0  0  0  0  0  0  0  0
  193.3820  176.7470  139.3200 N   0  0  0  0  0  0  0  0  0  0  0  0
  191.2040  177.4490  139.7720 C   0  0  2  0  0  3  0  0  0  0  0  0
  192.8390  175.1740  137.6140 N   0  0  0  0  0  2  0  0  0  0  0  0
  185.5340  178.1380  145.2670 C   0  0  0  0  0  2  0  0  0  0  0  0
  182.0030  179.0870  143.4970 C   0  0  1  0  0  3  0  0  0  0  0  0
  182.6740  178.5560  139.7080 C   0  0  0  0  0  1  0  0  0  0  0  0
  184.0770  178.5960  141.7090 C   0  0  0  0  0  3  0  0  0  0  0  0
  184.2180  178.6410  143.2020 C   0  0  1  0  0  0  0  0  0  0  0  0
  184.8930  179.7880  143.6530 O   0  0  0  0  0  0  0  0  0  0  0  0
  180.9120  178.9340  144.3300 F   0  0  0  0  0  0  0  0  0  0  0  0
  183.0890  178.3360  143.9980 O   0  0  0  0  0  0  0  0  0  0  0  0
  181.6320  178.6350  142.0780 C   0  0  0  0  0  2  0  0  0  0  0  0
  182.8470  178.6340  141.1840 C   0  0  0  0  0  0  0  0  0  0  0  0
  185.5690  178.5560  143.8040 C   0  0  1  0  0  3  0  0  0  0  0  0
  1  2  1  0  0  0  0
  2  6  2  0  0  0  0
  3  6  1  0  0  0  0
  4  3  2  0  0  0  0
  5  1  2  0  0  0  0
  5  4  1  0  0  0  0
  8  7  1  1  0  0  0
  8  1  1  0  0  0  0
  9  8  1  0  0  0  0
 10  9  2  0  0  0  0
 11 10  1  0  0  0  0
 12 14  1  0  0  0  0
 12 18  2  0  0  0  0
 13 14  1  0  0  0  0
 14 19  1  0  0  0  0
 15 20  1  0  0  0  0
 15 13  1  0  0  0  0
 17 15  2  0  0  0  0
 18 16  1  0  0  0  0
 19 16  1  0  0  0  0
 19 11  1  1  0  0  0
 20 12  1  0  0  0  0
 21  4  1  0  0  0  0
 22 28  1  0  0  0  0
 22 27  1  1  0  0  0
 23 30  1  0  0  0  0
 25 24  1  6  0  0  0
 25 26  1  0  0  0  0
 25 31  1  0  0  0  0
 25 28  1  0  0  0  0
 26 31  1  0  0  0  0
 29 22  1  0  0  0  0
 30 24  2  0  0  0  0
 30 29  1  0  0  0  0
 31 21  1  1  0  0  0
M  END
>  <MODEL>
8

>  <REMARK>
 VINA RESULT:      -8.6      2.935      6.138
  Name = 
  6 active torsions:
  status: ('A' for Active; 'I' for Inactive)
    1  A    between atoms: C_10  and  C_26
    2  A    between atoms: C_11  and  C_26
    3  A    between atoms: C_12  and  C_20
    4  A    between atoms: C_12  and  C_31
    5  A    between atoms: C_15  and  C_24
    6  A    between atoms: C_15  and  N_27
                            x       y       z     vdW  Elec       q    Type
                         _______ _______ _______ _____ _____    ______ ____

>  <TORSDO>
F 6

$$$$
=
 OpenBabel11062414593D

 31 35  0  0  1  0  0  0  0  0999 V2000
  183.7300  178.8850  144.1860 C   0  0  0  0  0  0  0  0  0  0  0  0
  182.3760  179.0210  144.5270 C   0  0  0  0  0  3  0  0  0  0  0  0
  181.7530  178.7130  142.2080 C   0  0  0  0  0  3  0  0  0  0  0  0
  183.1020  178.5670  141.8630 C   0  0  0  0  0  0  0  0  0  0  0  0
  184.0880  178.6570  142.8520 C   0  0  0  0  0  3  0  0  0  0  0  0
  181.3910  178.9380  143.5390 C   0  0  0  0  0  3  0  0  0  0  0  0
  184.2860  178.6290  146.4810 O   0  0  0  0  0  1  0  0  0  0  0  0
  184.8010  178.9630  145.2260 C   0  0  1  0  0  3  0  0  0  0  0  0
  185.9380  178.0570  144.8780 C   0  0  0  0  0  3  0  0  0  0  0  0
  187.0520  178.1500  145.5030 N   0  0  0  0  0  0  0  0  0  0  0  0
  188.1420  177.2750  145.1630 C   0  0  0  0  0  2  0  0  0  0  0  0
  191.3060  177.4200  144.1610 C   0  0  0  0  0  0  0  0  0  0  0  0
  189.6700  178.2280  142.7480 C   0  0  0  0  0  2  0  0  0  0  0  0
  190.1620  178.2350  144.1180 N   0  0  0  0  0  0  0  0  0  0  0  0
  190.7730  177.5040  142.0330 C   0  0  0  0  0  0  0  0  0  0  0  0
  190.3860  177.1130  146.1010 N   0  0  0  0  0  2  0  0  0  0  0  0
  190.8080  177.3470  140.7850 O   0  0  0  0  0  0  0  0  0  0  0  0
  191.4370  176.7500  145.2500 N   0  0  0  0  0  0  0  0  0  0  0  0
  189.4670  177.9940  145.3800 C   0  0  2  0  0  3  0  0  0  0  0  0
  191.7740  176.9750  142.9010 N   0  0  0  0  0  2  0  0  0  0  0  0
  183.4910  178.3430  140.4440 C   0  0  0  0  0  2  0  0  0  0  0  0
  185.1930  177.5000  136.8530 C   0  0  1  0  0  3  0  0  0  0  0  0
  189.0100  177.6500  137.5590 C   0  0  0  0  0  1  0  0  0  0  0  0
  187.0070  178.2520  138.8240 C   0  0  0  0  0  3  0  0  0  0  0  0
  185.5140  178.2570  138.9780 C   0  0  1  0  0  0  0  0  0  0  0  0
  184.9710  179.5520  138.9990 O   0  0  0  0  0  0  0  0  0  0  0  0
  184.3780  176.7590  136.0200 F   0  0  0  0  0  0  0  0  0  0  0  0
  184.7500  177.3680  138.1870 O   0  0  0  0  0  0  0  0  0  0  0  0
  186.6450  177.0240  136.7090 C   0  0  0  0  0  2  0  0  0  0  0  0
  187.5310  177.7010  137.7230 C   0  0  0  0  0  0  0  0  0  0  0  0
  184.9160  178.8230  140.2090 C   0  0  1  0  0  3  0  0  0  0  0  0
  1  2  1  0  0  0  0
  1  8  1  0  0  0  0
  3  6  1  0  0  0  0
  4  3  2  0  0  0  0
  4  5  1  0  0  0  0
  5  1  2  0  0  0  0
  6  2  2  0  0  0  0
  8  7  1  1  0  0  0
  9  8  1  0  0  0  0
  9 10  2  0  0  0  0
 11 10  1  0  0  0  0
 12 18  2  0  0  0  0
 13 14  1  0  0  0  0
 14 12  1  0  0  0  0
 14 19  1  0  0  0  0
 15 13  1  0  0  0  0
 15 20  1  0  0  0  0
 17 15  2  0  0  0  0
 18 16  1  0  0  0  0
 19 11  1  6  0  0  0
 19 16  1  0  0  0  0
 20 12  1  0  0  0  0
 21  4  1  0  0  0  0
 22 27  1  6  0  0  0
 22 28  1  0  0  0  0
 23 30  1  0  0  0  0
 25 24  1  6  0  0  0
 25 26  1  0  0  0  0
 25 31  1  0  0  0  0
 26 31  1  0  0  0  0
 28 25  1  0  0  0  0
 29 22  1  0  0  0  0
 29 30  1  0  0  0  0
 30 24  2  0  0  0  0
 31 21  1  6  0  0  0
M  END
>  <MODEL>
9

>  <REMARK>
 VINA RESULT:      -8.5      3.359      6.496
  Name = 
  6 active torsions:
  status: ('A' for Active; 'I' for Inactive)
    1  A    between atoms: C_10  and  C_26
    2  A    between atoms: C_11  and  C_26
    3  A    between atoms: C_12  and  C_20
    4  A    between atoms: C_12  and  C_31
    5  A    between atoms: C_15  and  C_24
    6  A    between atoms: C_15  and  N_27
                            x       y       z     vdW  Elec       q    Type
                         _______ _______ _______ _____ _____    ______ ____

>  <TORSDO>
F 6

$$$$
