=
 OpenBabel11062414463D

 33 36  0  0  1  0  0  0  0  0999 V2000
  190.2690  176.3700  139.4740 C   0  0  0  0  0  2  0  0  0  0  0  0
  188.3350  177.8470  140.1660 N   0  0  0  0  0  0  0  0  0  0  0  0
  188.2490  177.5030  142.2950 C   0  0  0  0  0  0  0  0  0  0  0  0
  190.9790  177.4260  138.6450 C   0  0  0  0  0  2  0  0  0  0  0  0
  187.6620  178.1470  141.2660 N   0  0  0  0  0  0  0  0  0  0  0  0
  189.0650  178.9370  138.0230 C   0  0  0  0  0  2  0  0  0  0  0  0
  189.3430  176.9980  140.4680 C   0  0  0  0  0  0  0  0  0  0  0  0
  187.9240  178.3300  138.8490 C   0  0  1  0  0  3  0  0  0  0  0  0
  189.3120  176.7500  141.8320 C   0  0  0  0  0  0  0  0  0  0  0  0
  190.0800  177.9160  137.5220 C   0  0  0  0  0  2  0  0  0  0  0  0
  186.7560  175.2620  136.9410 C   0  0  0  0  0  3  0  0  0  0  0  0
  185.6480  177.6100  138.0060 C   0  0  0  0  0  0  0  0  0  0  0  0
  187.5710  176.1850  137.5870 C   0  0  0  0  0  3  0  0  0  0  0  0
  184.8210  176.6800  137.3230 C   0  0  0  0  0  0  0  0  0  0  0  0
  185.3850  175.5000  136.8110 C   0  0  0  0  0  0  0  0  0  0  0  0
  184.9740  179.0290  138.8160 Cl  0  0  0  0  0  0  0  0  0  0  0  0
  187.0320  177.3600  138.1200 C   0  0  0  0  0  0  0  0  0  0  0  0
  183.9920  173.5630  136.8330 O   0  0  0  0  0  1  0  0  0  0  0  0
  184.5680  174.5720  136.1630 O   0  0  0  0  0  0  0  0  0  0  0  0
  182.4580  176.5380  138.1110 C   0  0  0  0  0  1  0  0  0  0  0  0
  183.4420  176.8620  137.1410 O   0  0  0  0  0  0  0  0  0  0  0  0
  188.5170  178.3300  144.5070 O   0  0  0  0  0  1  0  0  0  0  0  0
  187.7240  177.5140  143.6960 C   0  0  1  0  0  3  0  0  0  0  0  0
  184.0590  178.4460  142.6030 C   0  0  0  0  0  0  0  0  0  0  0  0
  183.5470  178.7830  143.7880 C   0  0  0  0  0  3  0  0  0  0  0  0
  183.2480  178.4990  141.4790 O   0  0  0  0  0  1  0  0  0  0  0  0
  186.3010  177.9710  143.7270 C   0  0  0  0  0  0  0  0  0  0  0  0
  185.4960  178.0060  142.4440 C   0  0  0  0  0  2  0  0  0  0  0  0
  183.8810  179.0580  146.1110 O   0  0  0  0  0  0  0  0  0  0  0  0
  184.3720  178.7370  144.9980 C   0  0  0  0  0  0  0  0  0  0  0  0
  185.7690  178.3070  144.9050 C   0  0  0  0  0  3  0  0  0  0  0  0
  191.2060  176.3010  143.3360 C   0  0  0  0  0  2  0  0  0  0  0  0
  190.1610  175.8640  142.6470 C   0  0  0  0  0  3  0  0  0  0  0  0
  1  7  1  0  0  0  0
  2  7  1  0  0  0  0
  2  5  1  0  0  0  0
  3 23  1  0  0  0  0
  4  1  1  0  0  0  0
  5  3  2  0  0  0  0
  6  8  1  0  0  0  0
  7  9  2  0  0  0  0
  8 17  1  6  0  0  0
  8  2  1  0  0  0  0
  9  3  1  0  0  0  0
  9 33  1  0  0  0  0
 10  6  1  0  0  0  0
 10  4  1  0  0  0  0
 11 13  1  0  0  0  0
 12 17  1  0  0  0  0
 12 16  1  0  0  0  0
 13 17  2  0  0  0  0
 14 12  2  0  0  0  0
 15 11  2  0  0  0  0
 15 14  1  0  0  0  0
 19 15  1  0  0  0  0
 19 18  1  0  0  0  0
 21 14  1  0  0  0  0
 21 20  1  0  0  0  0
 23 27  1  0  0  0  0
 23 22  1  1  0  0  0
 24 25  2  0  0  0  0
 25 30  1  0  0  0  0
 26 24  1  0  0  0  0
 27 31  2  0  0  0  0
 28 24  1  0  0  0  0
 28 27  1  0  0  0  0
 30 29  2  0  0  0  0
 31 30  1  0  0  0  0
 33 32  2  0  0  0  0
M  END
>  <MODEL>
1

>  <REMARK>
 VINA RESULT:      -7.7      0.000      0.000
  Name = 
  6 active torsions:
  status: ('A' for Active; 'I' for Inactive)
    1  A    between atoms: C_9  and  C_23
    2  A    between atoms: C_15  and  C_23
    3  A    between atoms: C_16  and  O_22
    4  A    between atoms: C_19  and  C_33
    5  A    between atoms: C_20  and  O_21
    6  A    between atoms: C_25  and  C_26
                            x       y       z     vdW  Elec       q    Type
                         _______ _______ _______ _____ _____    ______ ____

>  <TORSDO>
F 6

$$$$
=
 OpenBabel11062414463D

 33 36  0  0  1  0  0  0  0  0999 V2000
  183.3670  175.8200  138.2450 C   0  0  0  0  0  2  0  0  0  0  0  0
  184.2060  178.2060  138.2890 N   0  0  0  0  0  0  0  0  0  0  0  0
  186.2110  177.9890  137.5210 C   0  0  0  0  0  0  0  0  0  0  0  0
  182.0480  176.1340  137.5620 C   0  0  0  0  0  2  0  0  0  0  0  0
  185.3190  178.8700  138.0150 N   0  0  0  0  0  0  0  0  0  0  0  0
  181.7180  178.5440  138.2060 C   0  0  0  0  0  2  0  0  0  0  0  0
  184.3740  176.8980  137.9930 C   0  0  0  0  0  0  0  0  0  0  0  0
  183.0480  178.8520  138.9030 C   0  0  1  0  0  3  0  0  0  0  0  0
  185.6600  176.7220  137.5020 C   0  0  0  0  0  0  0  0  0  0  0  0
  181.2350  177.1110  138.3950 C   0  0  0  0  0  2  0  0  0  0  0  0
  184.1930  178.1670  142.4590 C   0  0  0  0  0  3  0  0  0  0  0  0
  181.9190  179.1630  141.1490 C   0  0  0  0  0  0  0  0  0  0  0  0
  184.1690  178.2460  141.0710 C   0  0  0  0  0  3  0  0  0  0  0  0
  181.9350  179.0570  142.5650 C   0  0  0  0  0  0  0  0  0  0  0  0
  183.0850  178.5740  143.2080 C   0  0  0  0  0  0  0  0  0  0  0  0
  180.5700  179.9150  140.2900 Cl  0  0  0  0  0  0  0  0  0  0  0  0
  183.0410  178.7390  140.4050 C   0  0  0  0  0  0  0  0  0  0  0  0
  183.8390  179.3490  145.3350 O   0  0  0  0  0  1  0  0  0  0  0  0
  183.1110  178.4950  144.6020 O   0  0  0  0  0  0  0  0  0  0  0  0
  179.7320  178.6030  143.6450 C   0  0  0  0  0  1  0  0  0  0  0  0
  180.8540  179.4300  143.3780 O   0  0  0  0  0  0  0  0  0  0  0  0
  187.7410  179.7020  136.9100 O   0  0  0  0  0  1  0  0  0  0  0  0
  187.6260  178.3360  137.1780 C   0  0  1  0  0  3  0  0  0  0  0  0
  189.1800  177.7770  140.7520 C   0  0  0  0  0  0  0  0  0  0  0  0
  190.2940  177.1260  140.4150 C   0  0  0  0  0  3  0  0  0  0  0  0
  188.9180  178.0190  142.0930 O   0  0  0  0  0  1  0  0  0  0  0  0
  188.5520  177.9410  138.2820 C   0  0  0  0  0  0  0  0  0  0  0  0
  188.1880  178.2590  139.7190 C   0  0  0  0  0  2  0  0  0  0  0  0
  191.6570  176.2360  138.7020 O   0  0  0  0  0  0  0  0  0  0  0  0
  190.6020  176.8490  139.0110 C   0  0  0  0  0  0  0  0  0  0  0  0
  189.6710  177.2830  137.9670 C   0  0  0  0  0  3  0  0  0  0  0  0
  186.2840  175.0110  135.8480 C   0  0  0  0  0  2  0  0  0  0  0  0
  186.3460  175.4880  137.0840 C   0  0  0  0  0  3  0  0  0  0  0  0
  2  8  1  0  0  0  0
  3  5  2  0  0  0  0
  4  1  1  0  0  0  0
  4 10  1  0  0  0  0
  5  2  1  0  0  0  0
  6 10  1  0  0  0  0
  6  8  1  0  0  0  0
  7  1  1  0  0  0  0
  7  2  1  0  0  0  0
  8 17  1  1  0  0  0
  9  3  1  0  0  0  0
  9  7  2  0  0  0  0
 11 15  1  0  0  0  0
 12 14  1  0  0  0  0
 13 11  2  0  0  0  0
 14 15  2  0  0  0  0
 14 21  1  0  0  0  0
 15 19  1  0  0  0  0
 16 12  1  0  0  0  0
 17 13  1  0  0  0  0
 17 12  2  0  0  0  0
 19 18  1  0  0  0  0
 21 20  1  0  0  0  0
 23 22  1  1  0  0  0
 23  3  1  0  0  0  0
 23 27  1  0  0  0  0
 24 26  1  0  0  0  0
 25 24  2  0  0  0  0
 27 28  1  0  0  0  0
 28 24  1  0  0  0  0
 29 30  2  0  0  0  0
 30 25  1  0  0  0  0
 31 27  2  0  0  0  0
 31 30  1  0  0  0  0
 32 33  2  0  0  0  0
 33  9  1  0  0  0  0
M  END
>  <MODEL>
2

>  <REMARK>
 VINA RESULT:      -7.3      2.765      7.001
  Name = 
  6 active torsions:
  status: ('A' for Active; 'I' for Inactive)
    1  A    between atoms: C_9  and  C_23
    2  A    between atoms: C_15  and  C_23
    3  A    between atoms: C_16  and  O_22
    4  A    between atoms: C_19  and  C_33
    5  A    between atoms: C_20  and  O_21
    6  A    between atoms: C_25  and  C_26
                            x       y       z     vdW  Elec       q    Type
                         _______ _______ _______ _____ _____    ______ ____

>  <TORSDO>
F 6

$$$$
=
 OpenBabel11062414463D

 33 36  0  0  1  0  0  0  0  0999 V2000
  186.4230  174.7310  136.0600 C   0  0  0  0  0  2  0  0  0  0  0  0
  186.1930  177.1040  136.9090 N   0  0  0  0  0  0  0  0  0  0  0  0
  188.0790  177.4040  137.9130 C   0  0  0  0  0  0  0  0  0  0  0  0
  185.9700  175.0310  134.6420 C   0  0  0  0  0  2  0  0  0  0  0  0
  186.8910  177.9710  137.6260 N   0  0  0  0  0  0  0  0  0  0  0  0
  184.5630  177.0880  134.9970 C   0  0  0  0  0  2  0  0  0  0  0  0
  186.9110  175.9700  136.7430 C   0  0  0  0  0  0  0  0  0  0  0  0
  184.8220  177.3750  136.4800 C   0  0  1  0  0  3  0  0  0  0  0  0
  188.1310  176.1270  137.3850 C   0  0  0  0  0  0  0  0  0  0  0  0
  184.5630  175.6050  134.6420 C   0  0  0  0  0  2  0  0  0  0  0  0
  182.3840  175.0180  138.1890 C   0  0  0  0  0  3  0  0  0  0  0  0
  183.3360  177.6380  138.5130 C   0  0  0  0  0  0  0  0  0  0  0  0
  183.3100  175.5380  137.2910 C   0  0  0  0  0  3  0  0  0  0  0  0
  182.3700  177.1160  139.4140 C   0  0  0  0  0  0  0  0  0  0  0  0
  181.9160  175.7980  139.2500 C   0  0  0  0  0  0  0  0  0  0  0  0
  184.0700  179.2270  138.7600 Cl  0  0  0  0  0  0  0  0  0  0  0  0
  183.7910  176.8430  137.4400 C   0  0  0  0  0  0  0  0  0  0  0  0
  179.7090  175.0750  139.7990 O   0  0  0  0  0  1  0  0  0  0  0  0
  180.9870  175.2740  140.1520 O   0  0  0  0  0  0  0  0  0  0  0  0
  180.8150  178.8160  140.3710 C   0  0  0  0  0  1  0  0  0  0  0  0
  181.8450  177.8470  140.4900 O   0  0  0  0  0  0  0  0  0  0  0  0
  189.0970  179.4240  138.6440 O   0  0  0  0  0  1  0  0  0  0  0  0
  189.1160  178.0340  138.7890 C   0  0  1  0  0  3  0  0  0  0  0  0
  187.5950  177.7490  142.4080 C   0  0  0  0  0  0  0  0  0  0  0  0
  188.4520  176.8810  142.9470 C   0  0  0  0  0  3  0  0  0  0  0  0
  186.5420  178.2240  143.1780 O   0  0  0  0  0  1  0  0  0  0  0  0
  188.9050  177.6560  140.2190 C   0  0  0  0  0  0  0  0  0  0  0  0
  187.7310  178.2350  140.9840 C   0  0  0  0  0  2  0  0  0  0  0  0
  190.3780  175.5380  142.6820 O   0  0  0  0  0  0  0  0  0  0  0  0
  189.5730  176.3560  142.1650 C   0  0  0  0  0  0  0  0  0  0  0  0
  189.7480  176.7830  140.7750 C   0  0  0  0  0  3  0  0  0  0  0  0
  190.2270  175.0660  136.6550 C   0  0  0  0  0  2  0  0  0  0  0  0
  189.2430  175.1750  137.5380 C   0  0  0  0  0  3  0  0  0  0  0  0
  1  7  1  0  0  0  0
  2  5  1  0  0  0  0
  3 23  1  0  0  0  0
  4 10  1  0  0  0  0
  4  1  1  0  0  0  0
  5  3  2  0  0  0  0
  6  8  1  0  0  0  0
  7  2  1  0  0  0  0
  7  9  2  0  0  0  0
  8  2  1  0  0  0  0
  8 17  1  1  0  0  0
  9 33  1  0  0  0  0
  9  3  1  0  0  0  0
 10  6  1  0  0  0  0
 11 15  1  0  0  0  0
 12 16  1  0  0  0  0
 12 14  1  0  0  0  0
 13 17  1  0  0  0  0
 13 11  2  0  0  0  0
 14 21  1  0  0  0  0
 15 14  2  0  0  0  0
 15 19  1  0  0  0  0
 17 12  2  0  0  0  0
 18 19  1  0  0  0  0
 20 21  1  0  0  0  0
 23 22  1  1  0  0  0
 23 27  1  0  0  0  0
 24 25  2  0  0  0  0
 24 26  1  0  0  0  0
 27 31  2  0  0  0  0
 27 28  1  0  0  0  0
 28 24  1  0  0  0  0
 30 29  2  0  0  0  0
 30 25  1  0  0  0  0
 31 30  1  0  0  0  0
 32 33  2  0  0  0  0
M  END
>  <MODEL>
3

>  <REMARK>
 VINA RESULT:      -7.0      2.541      4.902
  Name = 
  6 active torsions:
  status: ('A' for Active; 'I' for Inactive)
    1  A    between atoms: C_9  and  C_23
    2  A    between atoms: C_15  and  C_23
    3  A    between atoms: C_16  and  O_22
    4  A    between atoms: C_19  and  C_33
    5  A    between atoms: C_20  and  O_21
    6  A    between atoms: C_25  and  C_26
                            x       y       z     vdW  Elec       q    Type
                         _______ _______ _______ _____ _____    ______ ____

>  <TORSDO>
F 6

$$$$
=
 OpenBabel11062414463D

 33 36  0  0  1  0  0  0  0  0999 V2000
  181.3110  179.2700  137.2680 C   0  0  0  0  0  2  0  0  0  0  0  0
  181.9370  177.6020  139.0650 N   0  0  0  0  0  0  0  0  0  0  0  0
  181.4370  178.6790  140.8670 C   0  0  0  0  0  0  0  0  0  0  0  0
  180.5200  178.2900  136.4190 C   0  0  0  0  0  2  0  0  0  0  0  0
  181.9600  177.5340  140.3870 N   0  0  0  0  0  0  0  0  0  0  0  0
  181.5670  176.1000  137.0860 C   0  0  0  0  0  2  0  0  0  0  0  0
  181.4200  178.7920  138.6820 C   0  0  0  0  0  0  0  0  0  0  0  0
  182.4940  176.5460  138.2230 C   0  0  1  0  0  3  0  0  0  0  0  0
  181.0930  179.5140  139.8200 C   0  0  0  0  0  0  0  0  0  0  0  0
  181.4020  177.1340  135.9780 C   0  0  0  0  0  2  0  0  0  0  0  0
  185.8630  178.2540  137.8370 C   0  0  0  0  0  3  0  0  0  0  0  0
  184.6820  175.7910  137.1960 C   0  0  0  0  0  0  0  0  0  0  0  0
  184.5290  178.0190  138.1530 C   0  0  0  0  0  3  0  0  0  0  0  0
  186.0360  176.0420  136.8500 C   0  0  0  0  0  0  0  0  0  0  0  0
  186.6190  177.2720  137.1920 C   0  0  0  0  0  0  0  0  0  0  0  0
  183.9390  174.2070  136.9440 Cl  0  0  0  0  0  0  0  0  0  0  0  0
  183.9280  176.7960  137.8380 C   0  0  0  0  0  0  0  0  0  0  0  0
  188.5470  178.6780  137.1660 O   0  0  0  0  0  1  0  0  0  0  0  0
  187.9580  177.5090  136.8750 O   0  0  0  0  0  0  0  0  0  0  0  0
  187.6090  174.1050  136.8420 C   0  0  0  0  0  1  0  0  0  0  0  0
  186.8480  175.1090  136.1880 O   0  0  0  0  0  0  0  0  0  0  0  0
  180.4300  178.2240  142.9720 O   0  0  0  0  0  1  0  0  0  0  0  0
  181.3730  179.0240  142.3220 C   0  0  1  0  0  3  0  0  0  0  0  0
  185.2420  178.5280  142.8520 C   0  0  0  0  0  0  0  0  0  0  0  0
  185.3080  178.6510  144.1780 C   0  0  0  0  0  3  0  0  0  0  0  0
  186.4110  178.3060  142.1370 O   0  0  0  0  0  1  0  0  0  0  0  0
  182.7150  178.8740  142.9630 C   0  0  0  0  0  0  0  0  0  0  0  0
  183.9350  178.6220  142.0990 C   0  0  0  0  0  2  0  0  0  0  0  0
  184.1670  179.0020  146.2180 O   0  0  0  0  0  0  0  0  0  0  0  0
  184.0960  178.8880  144.9670 C   0  0  0  0  0  0  0  0  0  0  0  0
  182.8030  179.0000  144.2890 C   0  0  0  0  0  3  0  0  0  0  0  0
  179.2850  181.1180  140.2790 C   0  0  0  0  0  2  0  0  0  0  0  0
  180.5460  180.8750  139.9460 C   0  0  0  0  0  3  0  0  0  0  0  0
  1  7  1  0  0  0  0
  2  5  1  0  0  0  0
  3 23  1  0  0  0  0
  4  1  1  0  0  0  0
  5  3  2  0  0  0  0
  6  8  1  0  0  0  0
  7  2  1  0  0  0  0
  7  9  2  0  0  0  0
  8 17  1  6  0  0  0
  8  2  1  0  0  0  0
  9 33  1  0  0  0  0
  9  3  1  0  0  0  0
 10  4  1  0  0  0  0
 10  6  1  0  0  0  0
 11 13  1  0  0  0  0
 12 17  1  0  0  0  0
 14 15  1  0  0  0  0
 14 12  2  0  0  0  0
 15 11  2  0  0  0  0
 16 12  1  0  0  0  0
 17 13  2  0  0  0  0
 19 18  1  0  0  0  0
 19 15  1  0  0  0  0
 21 20  1  0  0  0  0
 21 14  1  0  0  0  0
 23 27  1  0  0  0  0
 23 22  1  1  0  0  0
 24 25  2  0  0  0  0
 25 30  1  0  0  0  0
 26 24  1  0  0  0  0
 27 31  2  0  0  0  0
 28 24  1  0  0  0  0
 28 27  1  0  0  0  0
 30 29  2  0  0  0  0
 31 30  1  0  0  0  0
 33 32  2  0  0  0  0
M  END
>  <MODEL>
4

>  <REMARK>
 VINA RESULT:      -7.0      3.311      6.285
  Name = 
  6 active torsions:
  status: ('A' for Active; 'I' for Inactive)
    1  A    between atoms: C_9  and  C_23
    2  A    between atoms: C_15  and  C_23
    3  A    between atoms: C_16  and  O_22
    4  A    between atoms: C_19  and  C_33
    5  A    between atoms: C_20  and  O_21
    6  A    between atoms: C_25  and  C_26
                            x       y       z     vdW  Elec       q    Type
                         _______ _______ _______ _____ _____    ______ ____

>  <TORSDO>
F 6

$$$$
=
 OpenBabel11062414463D

 33 36  0  0  1  0  0  0  0  0999 V2000
  189.4440  176.7830  137.2980 C   0  0  0  0  0  2  0  0  0  0  0  0
  187.7310  177.9310  138.7640 N   0  0  0  0  0  0  0  0  0  0  0  0
  188.6760  177.8510  140.7020 C   0  0  0  0  0  0  0  0  0  0  0  0
  189.4490  177.8420  136.2100 C   0  0  0  0  0  2  0  0  0  0  0  0
  187.5640  178.2320  140.0420 N   0  0  0  0  0  0  0  0  0  0  0  0
  187.1650  178.8590  136.4990 C   0  0  0  0  0  2  0  0  0  0  0  0
  188.9340  177.3400  138.5900 C   0  0  0  0  0  0  0  0  0  0  0  0
  186.6820  178.1530  137.7710 C   0  0  1  0  0  3  0  0  0  0  0  0
  189.5670  177.2670  139.8220 C   0  0  0  0  0  0  0  0  0  0  0  0
  188.0600  178.0000  135.6130 C   0  0  0  0  0  2  0  0  0  0  0  0
  185.5900  174.6220  136.8960 C   0  0  0  0  0  3  0  0  0  0  0  0
  184.4390  176.9820  137.8860 C   0  0  0  0  0  0  0  0  0  0  0  0
  186.3720  175.7600  137.0660 C   0  0  0  0  0  3  0  0  0  0  0  0
  183.6350  175.8290  137.6860 C   0  0  0  0  0  0  0  0  0  0  0  0
  184.2280  174.6500  137.2070 C   0  0  0  0  0  0  0  0  0  0  0  0
  183.7920  178.4440  138.6410 Cl  0  0  0  0  0  0  0  0  0  0  0  0
  185.8110  176.9430  137.5570 C   0  0  0  0  0  0  0  0  0  0  0  0
  183.9520  172.2790  137.2190 O   0  0  0  0  0  1  0  0  0  0  0  0
  183.4440  173.5070  137.0370 O   0  0  0  0  0  0  0  0  0  0  0  0
  181.7100  175.6640  139.2640 C   0  0  0  0  0  1  0  0  0  0  0  0
  182.2600  175.7900  137.9620 O   0  0  0  0  0  0  0  0  0  0  0  0
  189.6620  179.0150  142.5260 O   0  0  0  0  0  1  0  0  0  0  0  0
  188.8380  177.9390  142.1870 C   0  0  1  0  0  3  0  0  0  0  0  0
  185.0090  178.5870  142.8370 C   0  0  0  0  0  0  0  0  0  0  0  0
  184.9380  178.2540  144.1260 C   0  0  0  0  0  3  0  0  0  0  0  0
  183.8570  178.9950  142.1810 O   0  0  0  0  0  1  0  0  0  0  0  0
  187.5090  178.0680  142.8600 C   0  0  0  0  0  0  0  0  0  0  0  0
  186.3060  178.5330  142.0630 C   0  0  0  0  0  2  0  0  0  0  0  0
  186.0570  177.5050  146.0680 O   0  0  0  0  0  0  0  0  0  0  0  0
  186.1330  177.8150  144.8510 C   0  0  0  0  0  0  0  0  0  0  0  0
  187.4150  177.7330  144.1490 C   0  0  0  0  0  3  0  0  0  0  0  0
  191.9880  177.3820  140.2450 C   0  0  0  0  0  2  0  0  0  0  0  0
  190.8680  176.6750  140.1780 C   0  0  0  0  0  3  0  0  0  0  0  0
  1  7  1  0  0  0  0
  2  5  1  0  0  0  0
  3 23  1  0  0  0  0
  4  1  1  0  0  0  0
  5  3  2  0  0  0  0
  6  8  1  0  0  0  0
  7  2  1  0  0  0  0
  7  9  2  0  0  0  0
  8 17  1  6  0  0  0
  8  2  1  0  0  0  0
  9 33  1  0  0  0  0
  9  3  1  0  0  0  0
 10  4  1  0  0  0  0
 10  6  1  0  0  0  0
 11 13  2  0  0  0  0
 11 15  1  0  0  0  0
 12 16  1  0  0  0  0
 13 17  1  0  0  0  0
 14 12  1  0  0  0  0
 14 21  1  0  0  0  0
 15 14  2  0  0  0  0
 17 12  2  0  0  0  0
 19 15  1  0  0  0  0
 19 18  1  0  0  0  0
 21 20  1  0  0  0  0
 23 22  1  6  0  0  0
 23 27  1  0  0  0  0
 24 25  2  0  0  0  0
 25 30  1  0  0  0  0
 26 24  1  0  0  0  0
 27 31  2  0  0  0  0
 28 24  1  0  0  0  0
 28 27  1  0  0  0  0
 30 29  2  0  0  0  0
 31 30  1  0  0  0  0
 33 32  2  0  0  0  0
M  END
>  <MODEL>
5

>  <REMARK>
 VINA RESULT:      -6.8      1.443      1.910
  Name = 
  6 active torsions:
  status: ('A' for Active; 'I' for Inactive)
    1  A    between atoms: C_9  and  C_23
    2  A    between atoms: C_15  and  C_23
    3  A    between atoms: C_16  and  O_22
    4  A    between atoms: C_19  and  C_33
    5  A    between atoms: C_20  and  O_21
    6  A    between atoms: C_25  and  C_26
                            x       y       z     vdW  Elec       q    Type
                         _______ _______ _______ _____ _____    ______ ____

>  <TORSDO>
F 6

$$$$
=
 OpenBabel11062414463D

 33 36  0  0  1  0  0  0  0  0999 V2000
  181.7690  178.7240  136.7990 C   0  0  0  0  0  2  0  0  0  0  0  0
  182.4230  177.3090  138.7920 N   0  0  0  0  0  0  0  0  0  0  0  0
  181.7100  178.5040  140.4410 C   0  0  0  0  0  0  0  0  0  0  0  0
  181.1280  177.5940  136.0130 C   0  0  0  0  0  2  0  0  0  0  0  0
  182.3650  177.3730  140.1130 N   0  0  0  0  0  0  0  0  0  0  0  0
  182.3220  175.5920  136.9610 C   0  0  0  0  0  2  0  0  0  0  0  0
  181.8270  178.4000  138.2580 C   0  0  0  0  0  0  0  0  0  0  0  0
  183.1270  176.2340  138.0970 C   0  0  1  0  0  3  0  0  0  0  0  0
  181.3620  179.1950  139.2950 C   0  0  0  0  0  0  0  0  0  0  0  0
  182.1380  176.4900  135.7440 C   0  0  0  0  0  2  0  0  0  0  0  0
  186.3190  178.2390  137.6320 C   0  0  0  0  0  3  0  0  0  0  0  0
  185.4640  175.5780  137.3740 C   0  0  0  0  0  0  0  0  0  0  0  0
  184.9950  177.9050  137.8960 C   0  0  0  0  0  3  0  0  0  0  0  0
  186.8090  175.9250  137.0780 C   0  0  0  0  0  0  0  0  0  0  0  0
  187.2280  177.2560  137.2290 C   0  0  0  0  0  0  0  0  0  0  0  0
  184.9160  173.8980  137.3650 Cl  0  0  0  0  0  0  0  0  0  0  0  0
  184.5550  176.5830  137.7700 C   0  0  0  0  0  0  0  0  0  0  0  0
  189.1260  178.6730  137.5190 O   0  0  0  0  0  1  0  0  0  0  0  0
  188.5570  177.5920  136.9650 O   0  0  0  0  0  0  0  0  0  0  0  0
  188.0090  174.6570  135.2960 C   0  0  0  0  0  1  0  0  0  0  0  0
  187.7690  174.9940  136.6540 O   0  0  0  0  0  0  0  0  0  0  0  0
  180.5040  178.2580  142.4750 O   0  0  0  0  0  1  0  0  0  0  0  0
  181.5200  178.9830  141.8460 C   0  0  1  0  0  3  0  0  0  0  0  0
  184.1070  178.8370  144.8100 C   0  0  0  0  0  0  0  0  0  0  0  0
  185.2260  178.6030  144.1230 C   0  0  0  0  0  3  0  0  0  0  0  0
  184.1710  178.9310  146.1930 O   0  0  0  0  0  1  0  0  0  0  0  0
  182.7930  178.8750  142.6210 C   0  0  0  0  0  0  0  0  0  0  0  0
  182.7670  179.0030  144.1310 C   0  0  0  0  0  2  0  0  0  0  0  0
  186.2580  178.2750  142.0230 O   0  0  0  0  0  0  0  0  0  0  0  0
  185.1970  178.4950  142.6630 C   0  0  0  0  0  0  0  0  0  0  0  0
  183.9240  178.6350  141.9520 C   0  0  0  0  0  3  0  0  0  0  0  0
  181.2410  181.5830  138.7150 C   0  0  0  0  0  2  0  0  0  0  0  0
  180.6860  180.5030  139.2470 C   0  0  0  0  0  3  0  0  0  0  0  0
  1  7  1  0  0  0  0
  2  5  1  0  0  0  0
  3 23  1  0  0  0  0
  4  1  1  0  0  0  0
  5  3  2  0  0  0  0
  6  8  1  0  0  0  0
  7  2  1  0  0  0  0
  7  9  2  0  0  0  0
  8 17  1  6  0  0  0
  8  2  1  0  0  0  0
  9  3  1  0  0  0  0
 10  4  1  0  0  0  0
 10  6  1  0  0  0  0
 11 13  1  0  0  0  0
 12 17  1  0  0  0  0
 14 15  1  0  0  0  0
 14 12  2  0  0  0  0
 15 11  2  0  0  0  0
 16 12  1  0  0  0  0
 17 13  2  0  0  0  0
 19 15  1  0  0  0  0
 19 18  1  0  0  0  0
 20 21  1  0  0  0  0
 21 14  1  0  0  0  0
 23 22  1  1  0  0  0
 23 27  1  0  0  0  0
 24 26  1  0  0  0  0
 25 24  2  0  0  0  0
 27 28  1  0  0  0  0
 28 24  1  0  0  0  0
 29 30  2  0  0  0  0
 30 25  1  0  0  0  0
 31 27  2  0  0  0  0
 31 30  1  0  0  0  0
 32 33  2  0  0  0  0
 33  9  1  0  0  0  0
M  END
>  <MODEL>
6

>  <REMARK>
 VINA RESULT:      -6.8      3.254      6.257
  Name = 
  6 active torsions:
  status: ('A' for Active; 'I' for Inactive)
    1  A    between atoms: C_9  and  C_23
    2  A    between atoms: C_15  and  C_23
    3  A    between atoms: C_16  and  O_22
    4  A    between atoms: C_19  and  C_33
    5  A    between atoms: C_20  and  O_21
    6  A    between atoms: C_25  and  C_26
                            x       y       z     vdW  Elec       q    Type
                         _______ _______ _______ _____ _____    ______ ____

>  <TORSDO>
F 6

$$$$
=
 OpenBabel11062414463D

 33 36  0  0  1  0  0  0  0  0999 V2000
  187.3310  176.1040  137.2030 C   0  0  0  0  0  2  0  0  0  0  0  0
  189.8280  176.4130  137.4650 N   0  0  0  0  0  0  0  0  0  0  0  0
  190.5850  174.4920  136.8350 C   0  0  0  0  0  0  0  0  0  0  0  0
  187.0950  177.3990  136.4460 C   0  0  0  0  0  2  0  0  0  0  0  0
  190.9350  175.7000  137.3190 N   0  0  0  0  0  0  0  0  0  0  0  0
  189.0460  178.7880  137.2210 C   0  0  0  0  0  2  0  0  0  0  0  0
  188.7590  175.6710  137.0980 C   0  0  0  0  0  0  0  0  0  0  0  0
  189.8410  177.7590  138.0340 C   0  0  1  0  0  3  0  0  0  0  0  0
  189.2110  174.4230  136.6930 C   0  0  0  0  0  0  0  0  0  0  0  0
  187.5350  178.5920  137.2790 C   0  0  0  0  0  2  0  0  0  0  0  0
  188.0600  177.9680  141.3810 C   0  0  0  0  0  3  0  0  0  0  0  0
  190.6590  177.5240  140.4180 C   0  0  0  0  0  0  0  0  0  0  0  0
  188.3080  177.9890  140.0130 C   0  0  0  0  0  3  0  0  0  0  0  0
  190.4100  177.5290  141.8170 C   0  0  0  0  0  0  0  0  0  0  0  0
  189.1020  177.7350  142.2840 C   0  0  0  0  0  0  0  0  0  0  0  0
  192.2460  177.1080  139.7610 Cl  0  0  0  0  0  0  0  0  0  0  0  0
  189.5990  177.7710  139.5200 C   0  0  0  0  0  0  0  0  0  0  0  0
  188.1000  176.7530  144.2140 O   0  0  0  0  0  1  0  0  0  0  0  0
  188.8520  177.7130  143.6570 O   0  0  0  0  0  0  0  0  0  0  0  0
  191.6050  176.0980  143.4740 C   0  0  0  0  0  1  0  0  0  0  0  0
  191.4090  177.3200  142.7790 O   0  0  0  0  0  0  0  0  0  0  0  0
  191.3360  172.7750  135.3730 O   0  0  0  0  0  1  0  0  0  0  0  0
  191.5470  173.3660  136.6220 C   0  0  1  0  0  3  0  0  0  0  0  0
  194.9540  175.2120  135.9280 C   0  0  0  0  0  0  0  0  0  0  0  0
  195.6470  174.8210  136.9980 C   0  0  0  0  0  3  0  0  0  0  0  0
  195.5550  176.0620  135.0090 O   0  0  0  0  0  1  0  0  0  0  0  0
  192.9580  173.8440  136.7410 C   0  0  0  0  0  0  0  0  0  0  0  0
  193.5330  174.7620  135.6810 C   0  0  0  0  0  2  0  0  0  0  0  0
  195.7060  173.5630  138.9970 O   0  0  0  0  0  0  0  0  0  0  0  0
  195.0450  173.9280  137.9910 C   0  0  0  0  0  0  0  0  0  0  0  0
  193.6660  173.4690  137.8090 C   0  0  0  0  0  3  0  0  0  0  0  0
  187.9000  172.3790  137.0870 C   0  0  0  0  0  2  0  0  0  0  0  0
  188.4480  173.2460  136.2460 C   0  0  0  0  0  3  0  0  0  0  0  0
  2  8  1  0  0  0  0
  3  5  2  0  0  0  0
  4  1  1  0  0  0  0
  4 10  1  0  0  0  0
  5  2  1  0  0  0  0
  6 10  1  0  0  0  0
  6  8  1  0  0  0  0
  7  1  1  0  0  0  0
  7  2  1  0  0  0  0
  8 17  1  1  0  0  0
  9  3  1  0  0  0  0
  9  7  2  0  0  0  0
 11 15  1  0  0  0  0
 12 14  1  0  0  0  0
 13 11  2  0  0  0  0
 14 15  2  0  0  0  0
 14 21  1  0  0  0  0
 15 19  1  0  0  0  0
 16 12  1  0  0  0  0
 17 13  1  0  0  0  0
 17 12  2  0  0  0  0
 19 18  1  0  0  0  0
 21 20  1  0  0  0  0
 23 22  1  6  0  0  0
 23 27  1  0  0  0  0
 23  3  1  0  0  0  0
 24 25  2  0  0  0  0
 25 30  1  0  0  0  0
 26 24  1  0  0  0  0
 27 31  2  0  0  0  0
 28 24  1  0  0  0  0
 28 27  1  0  0  0  0
 30 29  2  0  0  0  0
 31 30  1  0  0  0  0
 33  9  1  0  0  0  0
 33 32  2  0  0  0  0
M  END
>  <MODEL>
7

>  <REMARK>
 VINA RESULT:      -6.8      4.293      8.643
  Name = 
  6 active torsions:
  status: ('A' for Active; 'I' for Inactive)
    1  A    between atoms: C_9  and  C_23
    2  A    between atoms: C_15  and  C_23
    3  A    between atoms: C_16  and  O_22
    4  A    between atoms: C_19  and  C_33
    5  A    between atoms: C_20  and  O_21
    6  A    between atoms: C_25  and  C_26
                            x       y       z     vdW  Elec       q    Type
                         _______ _______ _______ _____ _____    ______ ____

>  <TORSDO>
F 6

$$$$
=
 OpenBabel11062414463D

 33 36  0  0  1  0  0  0  0  0999 V2000
  189.3310  176.7100  141.2200 C   0  0  0  0  0  2  0  0  0  0  0  0
  187.4410  178.2770  140.6080 N   0  0  0  0  0  0  0  0  0  0  0  0
  186.2910  178.3250  142.4330 C   0  0  0  0  0  0  0  0  0  0  0  0
  190.4440  177.6020  140.6990 C   0  0  0  0  0  2  0  0  0  0  0  0
  186.3430  178.7680  141.1610 N   0  0  0  0  0  0  0  0  0  0  0  0
  189.2200  178.9620  138.9710 C   0  0  0  0  0  2  0  0  0  0  0  0
  188.0940  177.5030  141.5040 C   0  0  0  0  0  0  0  0  0  0  0  0
  187.7740  178.5100  139.2040 C   0  0  1  0  0  3  0  0  0  0  0  0
  187.3750  177.5070  142.6900 C   0  0  0  0  0  0  0  0  0  0  0  0
  190.2590  177.8740  139.2150 C   0  0  0  0  0  2  0  0  0  0  0  0
  187.6280  175.2760  137.2180 C   0  0  0  0  0  3  0  0  0  0  0  0
  185.9800  177.4870  137.7380 C   0  0  0  0  0  0  0  0  0  0  0  0
  188.0860  176.3100  138.0280 C   0  0  0  0  0  3  0  0  0  0  0  0
  185.5240  176.4440  136.8900 C   0  0  0  0  0  0  0  0  0  0  0  0
  186.3520  175.3350  136.6520 C   0  0  0  0  0  0  0  0  0  0  0  0
  184.9270  178.8260  138.2090 Cl  0  0  0  0  0  0  0  0  0  0  0  0
  187.2760  177.4180  138.2940 C   0  0  0  0  0  0  0  0  0  0  0  0
  186.1340  173.0130  136.1470 O   0  0  0  0  0  1  0  0  0  0  0  0
  185.8930  174.2960  135.8410 O   0  0  0  0  0  0  0  0  0  0  0  0
  183.9590  177.1380  135.0750 C   0  0  0  0  0  1  0  0  0  0  0  0
  184.2620  176.4450  136.2760 O   0  0  0  0  0  0  0  0  0  0  0  0
  185.3060  179.8260  143.9910 O   0  0  0  0  0  1  0  0  0  0  0  0
  185.1490  178.5880  143.3630 C   0  0  1  0  0  3  0  0  0  0  0  0
  182.3990  177.8400  140.6480 C   0  0  0  0  0  0  0  0  0  0  0  0
  181.3330  178.3670  141.2520 C   0  0  0  0  0  3  0  0  0  0  0  0
  182.2430  177.2430  139.4040 O   0  0  0  0  0  1  0  0  0  0  0  0
  183.8460  178.5340  142.6330 C   0  0  0  0  0  0  0  0  0  0  0  0
  183.7750  177.8710  141.2720 C   0  0  0  0  0  2  0  0  0  0  0  0
  180.4480  179.4970  143.1290 O   0  0  0  0  0  0  0  0  0  0  0  0
  181.4580  179.0020  142.5660 C   0  0  0  0  0  0  0  0  0  0  0  0
  182.7660  179.0500  143.2250 C   0  0  0  0  0  3  0  0  0  0  0  0
  188.5540  177.1760  144.8240 C   0  0  0  0  0  2  0  0  0  0  0  0
  187.6350  176.7890  143.9500 C   0  0  0  0  0  3  0  0  0  0  0  0
  1  7  1  0  0  0  0
  2  5  1  0  0  0  0
  2  7  1  0  0  0  0
  3  9  1  0  0  0  0
  3 23  1  0  0  0  0
  4  1  1  0  0  0  0
  5  3  2  0  0  0  0
  6  8  1  0  0  0  0
  6 10  1  0  0  0  0
  7  9  2  0  0  0  0
  8 17  1  6  0  0  0
  8  2  1  0  0  0  0
  9 33  1  0  0  0  0
 10  4  1  0  0  0  0
 11 13  1  0  0  0  0
 12 16  1  0  0  0  0
 12 17  1  0  0  0  0
 13 17  2  0  0  0  0
 14 12  2  0  0  0  0
 15 14  1  0  0  0  0
 15 11  2  0  0  0  0
 19 18  1  0  0  0  0
 19 15  1  0  0  0  0
 20 21  1  0  0  0  0
 21 14  1  0  0  0  0
 23 22  1  6  0  0  0
 24 25  2  0  0  0  0
 24 28  1  0  0  0  0
 25 30  1  0  0  0  0
 26 24  1  0  0  0  0
 27 31  2  0  0  0  0
 27 23  1  0  0  0  0
 28 27  1  0  0  0  0
 30 29  2  0  0  0  0
 30 31  1  0  0  0  0
 33 32  2  0  0  0  0
M  END
>  <MODEL>
8

>  <REMARK>
 VINA RESULT:      -6.8      1.569      2.319
  Name = 
  6 active torsions:
  status: ('A' for Active; 'I' for Inactive)
    1  A    between atoms: C_9  and  C_23
    2  A    between atoms: C_15  and  C_23
    3  A    between atoms: C_16  and  O_22
    4  A    between atoms: C_19  and  C_33
    5  A    between atoms: C_20  and  O_21
    6  A    between atoms: C_25  and  C_26
                            x       y       z     vdW  Elec       q    Type
                         _______ _______ _______ _____ _____    ______ ____

>  <TORSDO>
F 6

$$$$
=
 OpenBabel11062414463D

 33 36  0  0  1  0  0  0  0  0999 V2000
  181.9950  176.1270  139.7190 C   0  0  0  0  0  2  0  0  0  0  0  0
  183.6730  177.8610  138.9580 N   0  0  0  0  0  0  0  0  0  0  0  0
  184.7290  176.8060  137.3990 C   0  0  0  0  0  0  0  0  0  0  0  0
  180.7920  177.0520  139.6830 C   0  0  0  0  0  2  0  0  0  0  0  0
  184.6690  177.9610  138.0900 N   0  0  0  0  0  0  0  0  0  0  0  0
  181.8860  179.2990  139.9810 C   0  0  0  0  0  2  0  0  0  0  0  0
  183.0980  176.6420  138.8480 C   0  0  0  0  0  0  0  0  0  0  0  0
  183.3700  178.9200  139.9180 C   0  0  1  0  0  3  0  0  0  0  0  0
  183.7590  175.9330  137.8570 C   0  0  0  0  0  0  0  0  0  0  0  0
  180.9990  178.2340  140.6150 C   0  0  0  0  0  2  0  0  0  0  0  0
  183.8970  178.3780  143.6390 C   0  0  0  0  0  3  0  0  0  0  0  0
  185.4570  178.6220  141.3190 C   0  0  0  0  0  0  0  0  0  0  0  0
  183.2860  178.5970  142.4090 C   0  0  0  0  0  3  0  0  0  0  0  0
  186.0820  178.4260  142.5790 C   0  0  0  0  0  0  0  0  0  0  0  0
  185.2890  178.2880  143.7290 C   0  0  0  0  0  0  0  0  0  0  0  0
  186.3870  178.6370  139.8160 Cl  0  0  0  0  0  0  0  0  0  0  0  0
  184.0520  178.7220  141.2460 C   0  0  0  0  0  0  0  0  0  0  0  0
  185.4270  178.6250  146.0870 O   0  0  0  0  0  1  0  0  0  0  0  0
  185.9020  178.0670  144.9640 O   0  0  0  0  0  0  0  0  0  0  0  0
  188.2320  177.1610  142.5370 C   0  0  0  0  0  1  0  0  0  0  0  0
  187.4730  178.3410  142.7450 O   0  0  0  0  0  0  0  0  0  0  0  0
  185.5170  177.1520  135.1830 O   0  0  0  0  0  1  0  0  0  0  0  0
  185.7850  176.4930  136.3860 C   0  0  1  0  0  3  0  0  0  0  0  0
  189.4180  176.2820  137.8870 C   0  0  0  0  0  0  0  0  0  0  0  0
  189.7680  177.5670  137.8160 C   0  0  0  0  0  3  0  0  0  0  0  0
  190.3280  175.3620  138.3880 O   0  0  0  0  0  1  0  0  0  0  0  0
  187.1390  176.8670  136.8960 C   0  0  0  0  0  0  0  0  0  0  0  0
  188.0610  175.7930  137.4370 C   0  0  0  0  0  2  0  0  0  0  0  0
  189.1740  179.7770  137.2270 O   0  0  0  0  0  0  0  0  0  0  0  0
  188.8360  178.5670  137.2890 C   0  0  0  0  0  0  0  0  0  0  0  0
  187.5100  178.1470  136.8280 C   0  0  0  0  0  3  0  0  0  0  0  0
  184.3780  173.5590  137.6770 C   0  0  0  0  0  2  0  0  0  0  0  0
  183.5500  174.5530  137.3870 C   0  0  0  0  0  3  0  0  0  0  0  0
  2  8  1  0  0  0  0
  3  9  1  0  0  0  0
  3  5  2  0  0  0  0
  4  1  1  0  0  0  0
  4 10  1  0  0  0  0
  5  2  1  0  0  0  0
  6 10  1  0  0  0  0
  7  2  1  0  0  0  0
  7  1  1  0  0  0  0
  8  6  1  0  0  0  0
  8 17  1  1  0  0  0
  9  7  2  0  0  0  0
 11 15  1  0  0  0  0
 12 14  1  0  0  0  0
 13 11  2  0  0  0  0
 14 21  1  0  0  0  0
 14 15  2  0  0  0  0
 15 19  1  0  0  0  0
 16 12  1  0  0  0  0
 17 12  2  0  0  0  0
 17 13  1  0  0  0  0
 19 18  1  0  0  0  0
 20 21  1  0  0  0  0
 23 22  1  6  0  0  0
 23 27  1  0  0  0  0
 23  3  1  0  0  0  0
 24 26  1  0  0  0  0
 25 24  2  0  0  0  0
 27 28  1  0  0  0  0
 28 24  1  0  0  0  0
 29 30  2  0  0  0  0
 30 25  1  0  0  0  0
 31 27  2  0  0  0  0
 31 30  1  0  0  0  0
 33 32  2  0  0  0  0
 33  9  1  0  0  0  0
M  END
>  <MODEL>
9

>  <REMARK>
 VINA RESULT:      -6.7      2.534      7.607
  Name = 
  6 active torsions:
  status: ('A' for Active; 'I' for Inactive)
    1  A    between atoms: C_9  and  C_23
    2  A    between atoms: C_15  and  C_23
    3  A    between atoms: C_16  and  O_22
    4  A    between atoms: C_19  and  C_33
    5  A    between atoms: C_20  and  O_21
    6  A    between atoms: C_25  and  C_26
                            x       y       z     vdW  Elec       q    Type
                         _______ _______ _______ _____ _____    ______ ____

>  <TORSDO>
F 6

$$$$
