=
 OpenBabel11062415283D

 37 39  0  0  1  0  0  0  0  0999 V2000
  183.5220  178.9800  141.3920 C   0  0  0  0  0  2  0  0  0  0  0  0
  182.9210  178.4900  140.0650 C   0  0  2  0  0  3  0  0  0  0  0  0
  183.5950  179.0970  138.8210 C   0  0  1  0  0  3  0  0  0  0  0  0
  184.2200  180.3140  139.1130 O   0  0  0  0  0  1  0  0  0  0  0  0
  184.9340  176.1550  136.8390 C   0  0  0  0  0  3  0  0  0  0  0  0
  186.7720  177.3380  137.8030 N   0  0  0  0  0  0  0  0  0  0  0  0
  186.3050  176.2990  137.0570 C   0  0  0  0  0  0  0  0  0  0  0  0
  184.5480  178.1410  138.1670 C   0  0  0  0  0  0  0  0  0  0  0  0
  184.0520  177.0810  137.4020 C   0  0  0  0  0  3  0  0  0  0  0  0
  187.2570  175.3250  136.4630 C   0  0  0  0  0  1  0  0  0  0  0  0
  185.9310  178.2480  138.3620 C   0  0  0  0  0  3  0  0  0  0  0  0
  181.3880  178.6090  140.0310 C   0  0  2  0  0  3  0  0  0  0  0  0
  179.3770  175.6750  140.6840 O   0  0  0  0  0  0  0  0  0  0  0  0
  179.5580  176.9740  140.7400 C   0  0  0  0  0  3  0  0  0  0  0  0
  180.7500  177.2530  140.1150 C   0  0  0  0  0  0  0  0  0  0  0  0
  180.3860  175.0990  140.0690 C   0  0  0  0  0  3  0  0  0  0  0  0
  181.3030  176.0620  139.6870 C   0  0  0  0  0  3  0  0  0  0  0  0
  180.9750  179.2470  138.8570 O   0  0  0  0  0  0  0  0  0  0  0  0
  180.2540  180.3640  139.2840 C   0  0  0  0  0  1  0  0  0  0  0  0
  184.5870  178.0420  141.9290 C   0  0  0  0  0  2  0  0  0  0  0  0
  185.8620  178.8220  142.1800 C   0  0  0  0  0  2  0  0  0  0  0  0
  188.1940  177.9300  141.8610 C   0  0  0  0  0  0  0  0  0  0  0  0
  188.4020  178.7610  140.9380 O   0  0  0  0  0  0  0  0  0  0  0  0
  189.2170  177.0000  142.2060 N   0  0  0  0  0  1  0  0  0  0  0  0
  186.9360  177.9130  142.5540 N   0  0  0  0  0  0  0  0  0  0  0  0
  186.6850  176.9500  143.6190 C   0  0  0  0  0  2  0  0  0  0  0  0
  187.0570  178.2330  147.7370 C   0  0  0  0  0  2  0  0  0  0  0  0
  188.3470  178.2470  146.9270 C   0  0  2  0  0  3  0  0  0  0  0  0
  185.9490  178.8550  146.8990 C   0  0  0  0  0  2  0  0  0  0  0  0
  188.1880  177.3540  145.6890 C   0  0  0  0  0  2  0  0  0  0  0  0
  185.8420  178.1960  145.5500 C   0  0  0  0  0  3  0  0  0  0  0  0
  186.8840  177.5860  144.9590 C   0  0  0  0  0  0  0  0  0  0  0  0
  189.4960  177.7650  147.7970 C   0  0  0  0  0  2  0  0  0  0  0  0
  190.0070  176.4180  147.3160 C   0  0  0  0  0  2  0  0  0  0  0  0
  192.4460  175.7480  147.8160 C   0  0  0  0  0  1  0  0  0  0  0  0
  191.4620  176.5020  146.9910 C   0  0  0  0  0  0  0  0  0  0  0  0
  191.8490  177.1960  146.0650 O   0  0  0  0  0  0  0  0  0  0  0  0
  1 20  1  0  0  0  0
  2  1  1  1  0  0  0
  3  4  1  1  0  0  0
  3  2  1  0  0  0  0
  5  7  2  0  0  0  0
  5  9  1  0  0  0  0
  6 11  2  0  0  0  0
  7  6  1  0  0  0  0
  8 11  1  0  0  0  0
  8  3  1  0  0  0  0
  9  8  2  0  0  0  0
 10  7  1  0  0  0  0
 12 18  1  6  0  0  0
 12  2  1  0  0  0  0
 12 15  1  0  0  0  0
 13 14  1  0  0  0  0
 15 14  2  0  0  0  0
 16 13  1  0  0  0  0
 17 16  2  0  0  0  0
 17 15  1  0  0  0  0
 18 19  1  0  0  0  0
 20 21  1  0  0  0  0
 21 25  1  0  0  0  0
 22 24  1  0  0  0  0
 22 25  1  0  0  0  0
 23 22  2  0  0  0  0
 25 26  1  0  0  0  0
 26 32  1  0  0  0  0
 28 27  1  0  0  0  0
 28 33  1  1  0  0  0
 29 27  1  0  0  0  0
 30 28  1  0  0  0  0
 31 29  1  0  0  0  0
 32 31  2  0  0  0  0
 32 30  1  0  0  0  0
 34 33  1  0  0  0  0
 36 34  1  0  0  0  0
 36 35  1  0  0  0  0
 37 36  2  0  0  0  0
M  END
>  <MODEL>
1

>  <REMARK>
 VINA RESULT:      -7.6      0.000      0.000
  Name = 
  14 active torsions:
  status: ('A' for Active; 'I' for Inactive)
    1  A    between atoms: C_1  and  C_2
    2  A    between atoms: C_1  and  C_17
    3  A    between atoms: C_2  and  C_36
    4  A    between atoms: C_2  and  C_37
    5  A    between atoms: C_7  and  C_23
    6  A    between atoms: C_12  and  C_13
    7  A    between atoms: C_12  and  C_23
    8  A    between atoms: C_19  and  C_36
    9  A    between atoms: N_25  and  C_28
   10  A    between atoms: N_25  and  C_32
   11  A    between atoms: O_27  and  C_36
   12  A    between atoms: C_28  and  C_35
   13  A    between atoms: C_32  and  C_34
   14  A    between atoms: C_35  and  C_37
                            x       y       z     vdW  Elec       q    Type
                         _______ _______ _______ _____ _____    ______ ____

>  <TORSDO>
F 14

$$$$
=
 OpenBabel11062415283D

 37 39  0  0  1  0  0  0  0  0999 V2000
  183.5140  178.8680  141.3040 C   0  0  0  0  0  2  0  0  0  0  0  0
  183.1870  178.2010  139.9600 C   0  0  2  0  0  3  0  0  0  0  0  0
  183.8740  178.8710  138.7550 C   0  0  1  0  0  3  0  0  0  0  0  0
  184.4430  180.1010  139.1020 O   0  0  0  0  0  1  0  0  0  0  0  0
  187.1910  177.3900  137.6690 C   0  0  0  0  0  3  0  0  0  0  0  0
  185.4230  176.1870  136.6050 N   0  0  0  0  0  0  0  0  0  0  0  0
  186.7550  176.3860  136.8030 C   0  0  0  0  0  0  0  0  0  0  0  0
  184.8830  177.9720  138.1030 C   0  0  0  0  0  0  0  0  0  0  0  0
  186.2470  178.1890  138.3190 C   0  0  0  0  0  3  0  0  0  0  0  0
  187.7460  175.5260  136.1050 C   0  0  0  0  0  1  0  0  0  0  0  0
  184.4870  176.9550  137.2250 C   0  0  0  0  0  3  0  0  0  0  0  0
  181.6770  178.0010  139.7500 C   0  0  2  0  0  3  0  0  0  0  0  0
  179.9800  180.7420  141.3880 O   0  0  0  0  0  0  0  0  0  0  0  0
  180.5930  180.2370  140.3430 C   0  0  0  0  0  3  0  0  0  0  0  0
  180.8930  178.9260  140.6330 C   0  0  0  0  0  0  0  0  0  0  0  0
  179.8750  179.8390  142.3370 C   0  0  0  0  0  3  0  0  0  0  0  0
  180.4500  178.6550  141.9120 C   0  0  0  0  0  3  0  0  0  0  0  0
  181.3180  176.6770  140.0240 O   0  0  0  0  0  0  0  0  0  0  0  0
  180.9280  176.1430  138.7940 C   0  0  0  0  0  1  0  0  0  0  0  0
  184.5250  178.0790  142.1150 C   0  0  0  0  0  2  0  0  0  0  0  0
  185.8440  178.8260  142.1360 C   0  0  0  0  0  2  0  0  0  0  0  0
  188.2010  177.9710  141.9150 C   0  0  0  0  0  0  0  0  0  0  0  0
  188.4360  178.8080  141.0040 O   0  0  0  0  0  0  0  0  0  0  0  0
  189.2230  177.0560  142.3010 N   0  0  0  0  0  1  0  0  0  0  0  0
  186.9160  177.9320  142.5540 N   0  0  0  0  0  0  0  0  0  0  0  0
  186.6330  176.9620  143.6040 C   0  0  0  0  0  2  0  0  0  0  0  0
  186.8970  178.2120  147.7410 C   0  0  0  0  0  2  0  0  0  0  0  0
  188.1910  178.3090  146.9430 C   0  0  2  0  0  3  0  0  0  0  0  0
  185.7630  178.7800  146.9000 C   0  0  0  0  0  2  0  0  0  0  0  0
  188.0940  177.4250  145.6930 C   0  0  0  0  0  2  0  0  0  0  0  0
  185.7050  178.1330  145.5430 C   0  0  0  0  0  3  0  0  0  0  0  0
  186.7850  177.5910  144.9530 C   0  0  0  0  0  0  0  0  0  0  0  0
  189.3580  177.8830  147.8180 C   0  0  0  0  0  2  0  0  0  0  0  0
  189.8700  176.5150  147.4020 C   0  0  0  0  0  2  0  0  0  0  0  0
  191.7790  176.4460  145.6700 C   0  0  0  0  0  1  0  0  0  0  0  0
  191.3270  176.5820  147.0820 C   0  0  0  0  0  0  0  0  0  0  0  0
  192.1490  176.7330  147.9720 O   0  0  0  0  0  0  0  0  0  0  0  0
  1 20  1  0  0  0  0
  2  1  1  1  0  0  0
  3  4  1  1  0  0  0
  3  2  1  0  0  0  0
  5  9  1  0  0  0  0
  6  7  1  0  0  0  0
  6 11  2  0  0  0  0
  7  5  2  0  0  0  0
  8  9  2  0  0  0  0
  8  3  1  0  0  0  0
 10  7  1  0  0  0  0
 11  8  1  0  0  0  0
 12  2  1  0  0  0  0
 12 18  1  1  0  0  0
 12 15  1  0  0  0  0
 13 16  1  0  0  0  0
 14 15  2  0  0  0  0
 14 13  1  0  0  0  0
 15 17  1  0  0  0  0
 17 16  2  0  0  0  0
 19 18  1  0  0  0  0
 20 21  1  0  0  0  0
 21 25  1  0  0  0  0
 22 24  1  0  0  0  0
 22 25  1  0  0  0  0
 23 22  2  0  0  0  0
 25 26  1  0  0  0  0
 26 32  1  0  0  0  0
 28 27  1  0  0  0  0
 28 33  1  1  0  0  0
 29 27  1  0  0  0  0
 30 28  1  0  0  0  0
 31 29  1  0  0  0  0
 32 31  2  0  0  0  0
 32 30  1  0  0  0  0
 34 33  1  0  0  0  0
 35 36  1  0  0  0  0
 36 34  1  0  0  0  0
 36 37  2  0  0  0  0
M  END
>  <MODEL>
2

>  <REMARK>
 VINA RESULT:      -7.4      1.120      1.971
  Name = 
  14 active torsions:
  status: ('A' for Active; 'I' for Inactive)
    1  A    between atoms: C_1  and  C_2
    2  A    between atoms: C_1  and  C_17
    3  A    between atoms: C_2  and  C_36
    4  A    between atoms: C_2  and  C_37
    5  A    between atoms: C_7  and  C_23
    6  A    between atoms: C_12  and  C_13
    7  A    between atoms: C_12  and  C_23
    8  A    between atoms: C_19  and  C_36
    9  A    between atoms: N_25  and  C_28
   10  A    between atoms: N_25  and  C_32
   11  A    between atoms: O_27  and  C_36
   12  A    between atoms: C_28  and  C_35
   13  A    between atoms: C_32  and  C_34
   14  A    between atoms: C_35  and  C_37
                            x       y       z     vdW  Elec       q    Type
                         _______ _______ _______ _____ _____    ______ ____

>  <TORSDO>
F 14

$$$$
=
 OpenBabel11062415283D

 37 39  0  0  1  0  0  0  0  0999 V2000
  186.4090  178.5080  137.4480 C   0  0  0  0  0  2  0  0  0  0  0  0
  187.5770  177.5110  137.4370 C   0  0  2  0  0  3  0  0  0  0  0  0
  188.8930  178.0950  137.9860 C   0  0  1  0  0  3  0  0  0  0  0  0
  188.8930  179.4930  137.9480 O   0  0  0  0  0  1  0  0  0  0  0  0
  188.7850  177.6120  141.7440 C   0  0  0  0  0  3  0  0  0  0  0  0
  190.5860  176.3210  140.8510 N   0  0  0  0  0  0  0  0  0  0  0  0
  189.8670  176.7490  141.9250 C   0  0  0  0  0  0  0  0  0  0  0  0
  189.2090  177.5890  139.3620 C   0  0  0  0  0  0  0  0  0  0  0  0
  188.4590  178.0360  140.4540 C   0  0  0  0  0  3  0  0  0  0  0  0
  190.2270  176.2860  143.2910 C   0  0  0  0  0  1  0  0  0  0  0  0
  190.2870  176.7240  139.5880 C   0  0  0  0  0  3  0  0  0  0  0  0
  187.7540  176.8210  136.0740 C   0  0  2  0  0  3  0  0  0  0  0  0
  186.6530  173.4270  136.6610 O   0  0  0  0  0  0  0  0  0  0  0  0
  187.2980  174.5030  137.0460 C   0  0  0  0  0  3  0  0  0  0  0  0
  187.1140  175.4640  136.0800 C   0  0  0  0  0  0  0  0  0  0  0  0
  186.0730  173.6330  135.5000 C   0  0  0  0  0  3  0  0  0  0  0  0
  186.3390  174.9220  135.0740 C   0  0  0  0  0  3  0  0  0  0  0  0
  189.1120  176.6950  135.7640 O   0  0  0  0  0  0  0  0  0  0  0  0
  189.2890  177.4380  134.5950 C   0  0  0  0  0  1  0  0  0  0  0  0
  185.2260  178.0090  138.2570 C   0  0  0  0  0  2  0  0  0  0  0  0
  184.9410  178.9840  139.3820 C   0  0  0  0  0  2  0  0  0  0  0  0
  182.4940  179.5700  139.4610 C   0  0  0  0  0  0  0  0  0  0  0  0
  182.6640  180.4590  138.5850 O   0  0  0  0  0  0  0  0  0  0  0  0
  181.1970  179.3780  140.0170 N   0  0  0  0  0  1  0  0  0  0  0  0
  183.5980  178.7650  139.9020 N   0  0  0  0  0  0  0  0  0  0  0  0
  183.4130  177.7390  140.9210 C   0  0  0  0  0  2  0  0  0  0  0  0
  184.4980  178.6340  145.0160 C   0  0  0  0  0  2  0  0  0  0  0  0
  185.6560  178.5760  144.0290 C   0  0  2  0  0  3  0  0  0  0  0  0
  183.3660  179.4370  144.3910 C   0  0  0  0  0  2  0  0  0  0  0  0
  185.2240  177.8090  142.7720 C   0  0  0  0  0  2  0  0  0  0  0  0
  182.9970  178.9060  143.0320 C   0  0  0  0  0  3  0  0  0  0  0  0
  183.8690  178.2380  142.2560 C   0  0  0  0  0  0  0  0  0  0  0  0
  186.8490  177.9040  144.6880 C   0  0  0  0  0  2  0  0  0  0  0  0
  186.6150  177.7330  146.1790 C   0  0  0  0  0  2  0  0  0  0  0  0
  187.9280  177.7210  148.3970 C   0  0  0  0  0  1  0  0  0  0  0  0
  187.9170  177.7090  146.9090 C   0  0  0  0  0  0  0  0  0  0  0  0
  188.9700  177.6950  146.2930 O   0  0  0  0  0  0  0  0  0  0  0  0
  1 20  1  0  0  0  0
  2  1  1  6  0  0  0
  2  3  1  0  0  0  0
  3  4  1  1  0  0  0
  3  8  1  0  0  0  0
  5  7  1  0  0  0  0
  6  7  2  0  0  0  0
  7 10  1  0  0  0  0
  8 11  2  0  0  0  0
  8  9  1  0  0  0  0
  9  5  2  0  0  0  0
 11  6  1  0  0  0  0
 12 18  1  1  0  0  0
 12 15  1  0  0  0  0
 12  2  1  0  0  0  0
 13 14  1  0  0  0  0
 15 14  2  0  0  0  0
 16 13  1  0  0  0  0
 17 16  2  0  0  0  0
 17 15  1  0  0  0  0
 19 18  1  0  0  0  0
 20 21  1  0  0  0  0
 21 25  1  0  0  0  0
 22 25  1  0  0  0  0
 22 24  1  0  0  0  0
 23 22  2  0  0  0  0
 25 26  1  0  0  0  0
 26 32  1  0  0  0  0
 28 33  1  1  0  0  0
 28 27  1  0  0  0  0
 29 27  1  0  0  0  0
 30 28  1  0  0  0  0
 31 29  1  0  0  0  0
 32 30  1  0  0  0  0
 32 31  2  0  0  0  0
 33 34  1  0  0  0  0
 34 36  1  0  0  0  0
 36 35  1  0  0  0  0
 37 36  2  0  0  0  0
M  END
>  <MODEL>
3

>  <REMARK>
 VINA RESULT:      -7.4      2.663      5.930
  Name = 
  14 active torsions:
  status: ('A' for Active; 'I' for Inactive)
    1  A    between atoms: C_1  and  C_2
    2  A    between atoms: C_1  and  C_17
    3  A    between atoms: C_2  and  C_36
    4  A    between atoms: C_2  and  C_37
    5  A    between atoms: C_7  and  C_23
    6  A    between atoms: C_12  and  C_13
    7  A    between atoms: C_12  and  C_23
    8  A    between atoms: C_19  and  C_36
    9  A    between atoms: N_25  and  C_28
   10  A    between atoms: N_25  and  C_32
   11  A    between atoms: O_27  and  C_36
   12  A    between atoms: C_28  and  C_35
   13  A    between atoms: C_32  and  C_34
   14  A    between atoms: C_35  and  C_37
                            x       y       z     vdW  Elec       q    Type
                         _______ _______ _______ _____ _____    ______ ____

>  <TORSDO>
F 14

$$$$
=
 OpenBabel11062415283D

 37 39  0  0  1  0  0  0  0  0999 V2000
  188.7450  176.8100  144.2990 C   0  0  0  0  0  2  0  0  0  0  0  0
  189.9630  177.3980  143.5720 C   0  0  2  0  0  3  0  0  0  0  0  0
  190.5180  176.4860  142.4610 C   0  0  1  0  0  3  0  0  0  0  0  0
  190.0870  175.1640  142.6130 O   0  0  0  0  0  1  0  0  0  0  0  0
  188.7610  178.2720  139.6160 C   0  0  0  0  0  3  0  0  0  0  0  0
  190.6250  177.0650  138.7360 N   0  0  0  0  0  0  0  0  0  0  0  0
  189.5460  177.8700  138.5340 C   0  0  0  0  0  0  0  0  0  0  0  0
  190.2030  177.0050  141.0900 C   0  0  0  0  0  0  0  0  0  0  0  0
  189.0920  177.8330  140.9000 C   0  0  0  0  0  3  0  0  0  0  0  0
  189.2090  178.3300  137.1620 C   0  0  0  0  0  1  0  0  0  0  0  0
  190.9630  176.6240  139.9770 C   0  0  0  0  0  3  0  0  0  0  0  0
  191.0520  177.8860  144.5420 C   0  0  2  0  0  3  0  0  0  0  0  0
  190.7310  176.2870  147.7690 O   0  0  0  0  0  0  0  0  0  0  0  0
  190.3390  177.1800  146.8910 C   0  0  0  0  0  3  0  0  0  0  0  0
  191.1050  177.0140  145.7610 C   0  0  0  0  0  0  0  0  0  0  0  0
  191.7120  175.5620  147.2770 C   0  0  0  0  0  3  0  0  0  0  0  0
  192.0000  175.9880  145.9930 C   0  0  0  0  0  3  0  0  0  0  0  0
  190.8060  179.2090  144.9250 O   0  0  0  0  0  0  0  0  0  0  0  0
  191.2660  179.9870  143.8600 C   0  0  0  0  0  1  0  0  0  0  0  0
  187.4340  177.3900  143.8010 C   0  0  0  0  0  2  0  0  0  0  0  0
  186.3600  177.1780  144.8490 C   0  0  0  0  0  2  0  0  0  0  0  0
  186.2840  178.5650  146.9490 C   0  0  0  0  0  0  0  0  0  0  0  0
  186.7480  177.6040  147.6180 O   0  0  0  0  0  0  0  0  0  0  0  0
  185.9550  179.7820  147.6120 N   0  0  0  0  0  1  0  0  0  0  0  0
  186.0790  178.4320  145.5340 N   0  0  0  0  0  0  0  0  0  0  0  0
  185.5350  179.5360  144.7530 C   0  0  0  0  0  2  0  0  0  0  0  0
  181.7030  178.9830  142.8140 C   0  0  0  0  0  2  0  0  0  0  0  0
  182.9100  178.4750  142.0380 C   0  0  2  0  0  3  0  0  0  0  0  0
  181.8350  178.5370  144.2640 C   0  0  0  0  0  2  0  0  0  0  0  0
  184.1860  179.1340  142.5780 C   0  0  0  0  0  2  0  0  0  0  0  0
  183.1630  178.9400  144.8460 C   0  0  0  0  0  3  0  0  0  0  0  0
  184.2570  179.1290  144.0890 C   0  0  0  0  0  0  0  0  0  0  0  0
  182.7270  178.7830  140.5610 C   0  0  0  0  0  2  0  0  0  0  0  0
  183.6320  177.9080  139.7120 C   0  0  0  0  0  2  0  0  0  0  0  0
  185.5310  178.1060  137.9790 C   0  0  0  0  0  1  0  0  0  0  0  0
  184.5840  178.7510  138.9290 C   0  0  0  0  0  0  0  0  0  0  0  0
  184.5990  179.9630  139.0740 O   0  0  0  0  0  0  0  0  0  0  0  0
  2  1  1  1  0  0  0
  2 12  1  0  0  0  0
  3  4  1  6  0  0  0
  3  2  1  0  0  0  0
  5  9  1  0  0  0  0
  6 11  2  0  0  0  0
  7  6  1  0  0  0  0
  7  5  2  0  0  0  0
  8  3  1  0  0  0  0
  9  8  2  0  0  0  0
 10  7  1  0  0  0  0
 11  8  1  0  0  0  0
 12 18  1  1  0  0  0
 12 15  1  0  0  0  0
 14 13  1  0  0  0  0
 15 17  1  0  0  0  0
 15 14  2  0  0  0  0
 16 13  1  0  0  0  0
 17 16  2  0  0  0  0
 19 18  1  0  0  0  0
 20  1  1  0  0  0  0
 20 21  1  0  0  0  0
 21 25  1  0  0  0  0
 22 24  1  0  0  0  0
 22 23  2  0  0  0  0
 25 22  1  0  0  0  0
 26 25  1  0  0  0  0
 27 29  1  0  0  0  0
 28 33  1  6  0  0  0
 28 30  1  0  0  0  0
 28 27  1  0  0  0  0
 29 31  1  0  0  0  0
 30 32  1  0  0  0  0
 32 26  1  0  0  0  0
 32 31  2  0  0  0  0
 34 33  1  0  0  0  0
 35 36  1  0  0  0  0
 36 37  2  0  0  0  0
 36 34  1  0  0  0  0
M  END
>  <MODEL>
4

>  <REMARK>
 VINA RESULT:      -7.3      2.604      8.295
  Name = 
  14 active torsions:
  status: ('A' for Active; 'I' for Inactive)
    1  A    between atoms: C_1  and  C_2
    2  A    between atoms: C_1  and  C_17
    3  A    between atoms: C_2  and  C_36
    4  A    between atoms: C_2  and  C_37
    5  A    between atoms: C_7  and  C_23
    6  A    between atoms: C_12  and  C_13
    7  A    between atoms: C_12  and  C_23
    8  A    between atoms: C_19  and  C_36
    9  A    between atoms: N_25  and  C_28
   10  A    between atoms: N_25  and  C_32
   11  A    between atoms: O_27  and  C_36
   12  A    between atoms: C_28  and  C_35
   13  A    between atoms: C_32  and  C_34
   14  A    between atoms: C_35  and  C_37
                            x       y       z     vdW  Elec       q    Type
                         _______ _______ _______ _____ _____    ______ ____

>  <TORSDO>
F 14

$$$$
=
 OpenBabel11062415283D

 37 39  0  0  1  0  0  0  0  0999 V2000
  190.6850  177.4030  139.8280 C   0  0  0  0  0  2  0  0  0  0  0  0
  191.3050  176.4040  138.8400 C   0  0  2  0  0  3  0  0  0  0  0  0
  192.7050  176.8130  138.3430 C   0  0  1  0  0  3  0  0  0  0  0  0
  193.5720  177.0830  139.4070 O   0  0  0  0  0  1  0  0  0  0  0  0
  194.3110  173.6360  137.0410 C   0  0  0  0  0  3  0  0  0  0  0  0
  194.0860  175.1840  135.2350 N   0  0  0  0  0  0  0  0  0  0  0  0
  194.4970  173.9720  135.6990 C   0  0  0  0  0  0  0  0  0  0  0  0
  193.2940  175.8010  137.4060 C   0  0  0  0  0  0  0  0  0  0  0  0
  193.7090  174.5600  137.8990 C   0  0  0  0  0  3  0  0  0  0  0  0
  195.1340  173.0000  134.7720 C   0  0  0  0  0  1  0  0  0  0  0  0
  193.5010  176.0990  136.0540 C   0  0  0  0  0  3  0  0  0  0  0  0
  190.3500  176.0360  137.6920 C   0  0  2  0  0  3  0  0  0  0  0  0
  188.1710  178.9110  137.4400 O   0  0  0  0  0  0  0  0  0  0  0  0
  189.3610  178.3650  137.3430 C   0  0  0  0  0  3  0  0  0  0  0  0
  189.2230  177.0230  137.6050 C   0  0  0  0  0  0  0  0  0  0  0  0
  187.2760  178.0020  137.7580 C   0  0  0  0  0  3  0  0  0  0  0  0
  187.8940  176.7710  137.8850 C   0  0  0  0  0  3  0  0  0  0  0  0
  189.8320  174.7510  137.8820 O   0  0  0  0  0  0  0  0  0  0  0  0
  190.1940  174.0390  136.7360 C   0  0  0  0  0  1  0  0  0  0  0  0
  190.3890  176.7770  141.1790 C   0  0  0  0  0  2  0  0  0  0  0  0
  189.8080  177.8300  142.1020 C   0  0  0  0  0  2  0  0  0  0  0  0
  190.8820  177.7790  144.3790 C   0  0  0  0  0  0  0  0  0  0  0  0
  191.7610  178.5980  143.9990 O   0  0  0  0  0  0  0  0  0  0  0  0
  190.9320  177.2690  145.7080 N   0  0  0  0  0  1  0  0  0  0  0  0
  189.8440  177.3570  143.4790 N   0  0  0  0  0  0  0  0  0  0  0  0
  188.8280  176.4050  143.9080 C   0  0  0  0  0  2  0  0  0  0  0  0
  185.6180  179.0150  145.1850 C   0  0  0  0  0  2  0  0  0  0  0  0
  185.3350  178.1900  143.9370 C   0  0  2  0  0  3  0  0  0  0  0  0
  186.2550  178.1110  146.2320 C   0  0  0  0  0  2  0  0  0  0  0  0
  186.6570  177.6960  143.3340 C   0  0  0  0  0  2  0  0  0  0  0  0
  187.4550  177.3890  145.6790 C   0  0  0  0  0  3  0  0  0  0  0  0
  187.5980  177.1230  144.3690 C   0  0  0  0  0  0  0  0  0  0  0  0
  184.5670  179.0360  142.9350 C   0  0  0  0  0  2  0  0  0  0  0  0
  185.3760  179.2330  141.6650 C   0  0  0  0  0  2  0  0  0  0  0  0
  183.4870  177.9750  140.4420 C   0  0  0  0  0  1  0  0  0  0  0  0
  184.5050  179.0600  140.4640 C   0  0  0  0  0  0  0  0  0  0  0  0
  184.6350  179.7930  139.4970 O   0  0  0  0  0  0  0  0  0  0  0  0
  1 20  1  0  0  0  0
  2  1  1  6  0  0  0
  3  2  1  0  0  0  0
  3  4  1  1  0  0  0
  5  9  1  0  0  0  0
  6  7  1  0  0  0  0
  6 11  2  0  0  0  0
  7  5  2  0  0  0  0
  8  9  2  0  0  0  0
  8  3  1  0  0  0  0
 10  7  1  0  0  0  0
 11  8  1  0  0  0  0
 12 18  1  1  0  0  0
 12  2  1  0  0  0  0
 13 16  1  0  0  0  0
 14 13  1  0  0  0  0
 14 15  2  0  0  0  0
 15 12  1  0  0  0  0
 15 17  1  0  0  0  0
 16 17  2  0  0  0  0
 19 18  1  0  0  0  0
 20 21  1  0  0  0  0
 21 25  1  0  0  0  0
 22 24  1  0  0  0  0
 23 22  2  0  0  0  0
 25 26  1  0  0  0  0
 25 22  1  0  0  0  0
 26 32  1  0  0  0  0
 27 29  1  0  0  0  0
 28 33  1  6  0  0  0
 28 27  1  0  0  0  0
 30 28  1  0  0  0  0
 30 32  1  0  0  0  0
 31 29  1  0  0  0  0
 32 31  2  0  0  0  0
 34 33  1  0  0  0  0
 35 36  1  0  0  0  0
 36 34  1  0  0  0  0
 37 36  2  0  0  0  0
M  END
>  <MODEL>
5

>  <REMARK>
 VINA RESULT:      -7.2      4.057      7.730
  Name = 
  14 active torsions:
  status: ('A' for Active; 'I' for Inactive)
    1  A    between atoms: C_1  and  C_2
    2  A    between atoms: C_1  and  C_17
    3  A    between atoms: C_2  and  C_36
    4  A    between atoms: C_2  and  C_37
    5  A    between atoms: C_7  and  C_23
    6  A    between atoms: C_12  and  C_13
    7  A    between atoms: C_12  and  C_23
    8  A    between atoms: C_19  and  C_36
    9  A    between atoms: N_25  and  C_28
   10  A    between atoms: N_25  and  C_32
   11  A    between atoms: O_27  and  C_36
   12  A    between atoms: C_28  and  C_35
   13  A    between atoms: C_32  and  C_34
   14  A    between atoms: C_35  and  C_37
                            x       y       z     vdW  Elec       q    Type
                         _______ _______ _______ _____ _____    ______ ____

>  <TORSDO>
F 14

$$$$
=
 OpenBabel11062415283D

 37 39  0  0  1  0  0  0  0  0999 V2000
  184.9620  178.8960  141.4250 C   0  0  0  0  0  2  0  0  0  0  0  0
  183.9500  178.2130  140.4930 C   0  0  2  0  0  3  0  0  0  0  0  0
  183.8510  178.8690  139.1030 C   0  0  1  0  0  3  0  0  0  0  0  0
  184.2320  180.2150  139.1380 O   0  0  0  0  0  1  0  0  0  0  0  0
  184.6900  176.4410  136.3160 C   0  0  0  0  0  3  0  0  0  0  0  0
  186.6940  177.5380  137.0130 N   0  0  0  0  0  0  0  0  0  0  0  0
  186.0690  176.6290  136.2150 C   0  0  0  0  0  0  0  0  0  0  0  0
  184.6230  178.1150  138.0610 C   0  0  0  0  0  0  0  0  0  0  0  0
  183.9650  177.1870  137.2480 C   0  0  0  0  0  3  0  0  0  0  0  0
  186.8550  175.8450  135.2270 C   0  0  0  0  0  1  0  0  0  0  0  0
  186.0080  178.2720  137.9290 C   0  0  0  0  0  3  0  0  0  0  0  0
  182.5780  178.0100  141.1560 C   0  0  2  0  0  3  0  0  0  0  0  0
  180.8320  175.7950  138.8930 O   0  0  0  0  0  0  0  0  0  0  0  0
  181.7990  176.0250  139.7500 C   0  0  0  0  0  3  0  0  0  0  0  0
  181.6380  177.3060  140.2230 C   0  0  0  0  0  0  0  0  0  0  0  0
  180.0630  176.8550  138.7780 C   0  0  0  0  0  3  0  0  0  0  0  0
  180.5350  177.8590  139.6020 C   0  0  0  0  0  3  0  0  0  0  0  0
  182.0300  179.2420  141.5290 O   0  0  0  0  0  0  0  0  0  0  0  0
  181.5650  179.0550  142.8320 C   0  0  0  0  0  1  0  0  0  0  0  0
  186.0880  177.9670  141.8420 C   0  0  0  0  0  2  0  0  0  0  0  0
  187.4110  178.6960  141.7180 C   0  0  0  0  0  2  0  0  0  0  0  0
  189.1460  178.0180  140.0250 C   0  0  0  0  0  0  0  0  0  0  0  0
  188.9060  179.0510  139.3440 O   0  0  0  0  0  0  0  0  0  0  0  0
  190.1170  177.0850  139.5580 N   0  0  0  0  0  1  0  0  0  0  0  0
  188.4430  177.7790  141.2540 N   0  0  0  0  0  0  0  0  0  0  0  0
  188.7090  176.5830  142.0440 C   0  0  0  0  0  2  0  0  0  0  0  0
  189.9850  178.2610  145.8260 C   0  0  0  0  0  2  0  0  0  0  0  0
  188.8410  177.2580  145.9060 C   0  0  2  0  0  3  0  0  0  0  0  0
  191.0570  177.7030  144.9000 C   0  0  0  0  0  2  0  0  0  0  0  0
  188.1870  177.1100  144.5260 C   0  0  0  0  0  2  0  0  0  0  0  0
  190.4830  177.3090  143.5660 C   0  0  0  0  0  3  0  0  0  0  0  0
  189.1950  176.9550  143.4100 C   0  0  0  0  0  0  0  0  0  0  0  0
  187.8280  177.7270  146.9370 C   0  0  0  0  0  2  0  0  0  0  0  0
  186.4110  177.4850  146.4480 C   0  0  0  0  0  2  0  0  0  0  0  0
  184.8870  179.1090  145.1490 C   0  0  0  0  0  1  0  0  0  0  0  0
  185.6610  178.7740  146.3760 C   0  0  0  0  0  0  0  0  0  0  0  0
  185.6910  179.5590  147.3100 O   0  0  0  0  0  0  0  0  0  0  0  0
  1 20  1  0  0  0  0
  2 12  1  0  0  0  0
  2  1  1  1  0  0  0
  3  4  1  1  0  0  0
  3  2  1  0  0  0  0
  5  9  1  0  0  0  0
  6 11  2  0  0  0  0
  7  5  2  0  0  0  0
  7  6  1  0  0  0  0
  8  3  1  0  0  0  0
  9  8  2  0  0  0  0
 10  7  1  0  0  0  0
 11  8  1  0  0  0  0
 12 18  1  6  0  0  0
 13 14  1  0  0  0  0
 14 15  2  0  0  0  0
 15 12  1  0  0  0  0
 16 13  1  0  0  0  0
 16 17  2  0  0  0  0
 17 15  1  0  0  0  0
 18 19  1  0  0  0  0
 21 20  1  0  0  0  0
 22 25  1  0  0  0  0
 23 22  2  0  0  0  0
 24 22  1  0  0  0  0
 25 21  1  0  0  0  0
 25 26  1  0  0  0  0
 26 32  1  0  0  0  0
 27 28  1  0  0  0  0
 28 33  1  1  0  0  0
 29 27  1  0  0  0  0
 30 28  1  0  0  0  0
 31 29  1  0  0  0  0
 32 31  2  0  0  0  0
 32 30  1  0  0  0  0
 34 33  1  0  0  0  0
 35 36  1  0  0  0  0
 36 34  1  0  0  0  0
 36 37  2  0  0  0  0
M  END
>  <MODEL>
6

>  <REMARK>
 VINA RESULT:      -7.0      1.874      3.063
  Name = 
  14 active torsions:
  status: ('A' for Active; 'I' for Inactive)
    1  A    between atoms: C_1  and  C_2
    2  A    between atoms: C_1  and  C_17
    3  A    between atoms: C_2  and  C_36
    4  A    between atoms: C_2  and  C_37
    5  A    between atoms: C_7  and  C_23
    6  A    between atoms: C_12  and  C_13
    7  A    between atoms: C_12  and  C_23
    8  A    between atoms: C_19  and  C_36
    9  A    between atoms: N_25  and  C_28
   10  A    between atoms: N_25  and  C_32
   11  A    between atoms: O_27  and  C_36
   12  A    between atoms: C_28  and  C_35
   13  A    between atoms: C_32  and  C_34
   14  A    between atoms: C_35  and  C_37
                            x       y       z     vdW  Elec       q    Type
                         _______ _______ _______ _____ _____    ______ ____

>  <TORSDO>
F 14

$$$$
=
 OpenBabel11062415283D

 37 39  0  0  1  0  0  0  0  0999 V2000
  188.0220  178.3930  139.8440 C   0  0  0  0  0  2  0  0  0  0  0  0
  187.8220  177.6420  138.5180 C   0  0  2  0  0  3  0  0  0  0  0  0
  188.6360  178.2270  137.3490 C   0  0  1  0  0  3  0  0  0  0  0  0
  189.0550  179.5350  137.6140 O   0  0  0  0  0  1  0  0  0  0  0  0
  190.8810  175.9090  135.3600 C   0  0  0  0  0  3  0  0  0  0  0  0
  191.8210  176.2170  137.5340 N   0  0  0  0  0  0  0  0  0  0  0  0
  191.8740  175.6380  136.3030 C   0  0  0  0  0  0  0  0  0  0  0  0
  189.7940  177.3530  136.9680 C   0  0  0  0  0  0  0  0  0  0  0  0
  189.8340  176.7690  135.6990 C   0  0  0  0  0  3  0  0  0  0  0  0
  192.9960  174.7270  135.9580 C   0  0  0  0  0  1  0  0  0  0  0  0
  190.8090  177.0540  137.8850 C   0  0  0  0  0  3  0  0  0  0  0  0
  186.3380  177.4410  138.1700 C   0  0  2  0  0  3  0  0  0  0  0  0
  186.4240  174.9350  135.5650 O   0  0  0  0  0  0  0  0  0  0  0  0
  186.6540  175.3070  136.8020 C   0  0  0  0  0  3  0  0  0  0  0  0
  186.1930  176.5950  136.9400 C   0  0  0  0  0  0  0  0  0  0  0  0
  185.8520  175.9100  134.8930 C   0  0  0  0  0  3  0  0  0  0  0  0
  185.6850  177.0040  135.7230 C   0  0  0  0  0  3  0  0  0  0  0  0
  185.7140  178.6760  137.9640 O   0  0  0  0  0  0  0  0  0  0  0  0
  184.6270  178.6840  138.8410 C   0  0  0  0  0  1  0  0  0  0  0  0
  188.6770  177.5310  140.9070 C   0  0  0  0  0  2  0  0  0  0  0  0
  188.9270  178.3670  142.1470 C   0  0  0  0  0  2  0  0  0  0  0  0
  190.4440  177.4840  143.9510 C   0  0  0  0  0  0  0  0  0  0  0  0
  191.3680  178.2510  143.5700 O   0  0  0  0  0  0  0  0  0  0  0  0
  190.6810  176.5930  145.0370 N   0  0  0  0  0  1  0  0  0  0  0  0
  189.1680  177.5000  143.2920 N   0  0  0  0  0  0  0  0  0  0  0  0
  188.0960  176.6110  143.7210 C   0  0  0  0  0  2  0  0  0  0  0  0
  185.4810  179.3150  145.8650 C   0  0  0  0  0  2  0  0  0  0  0  0
  184.8290  178.5300  144.7350 C   0  0  2  0  0  3  0  0  0  0  0  0
  186.3420  178.3640  146.6840 C   0  0  0  0  0  2  0  0  0  0  0  0
  185.9090  177.9980  143.7850 C   0  0  0  0  0  2  0  0  0  0  0  0
  187.3100  177.6080  145.8140 C   0  0  0  0  0  3  0  0  0  0  0  0
  187.0740  177.3650  144.5120 C   0  0  0  0  0  0  0  0  0  0  0  0
  183.8510  179.4280  143.9940 C   0  0  0  0  0  2  0  0  0  0  0  0
  182.9330  178.6060  143.1070 C   0  0  0  0  0  2  0  0  0  0  0  0
  180.5370  178.1770  143.9580 C   0  0  0  0  0  1  0  0  0  0  0  0
  181.5180  179.0580  143.2670 C   0  0  0  0  0  0  0  0  0  0  0  0
  181.1600  180.1360  142.8220 O   0  0  0  0  0  0  0  0  0  0  0  0
  1 20  1  0  0  0  0
  2  1  1  1  0  0  0
  3  4  1  1  0  0  0
  3  2  1  0  0  0  0
  5  9  2  0  0  0  0
  5  7  1  0  0  0  0
  6 11  1  0  0  0  0
  7  6  2  0  0  0  0
  8  3  1  0  0  0  0
  8 11  2  0  0  0  0
  9  8  1  0  0  0  0
 10  7  1  0  0  0  0
 12 18  1  6  0  0  0
 12  2  1  0  0  0  0
 13 14  1  0  0  0  0
 14 15  2  0  0  0  0
 15 12  1  0  0  0  0
 16 13  1  0  0  0  0
 16 17  2  0  0  0  0
 17 15  1  0  0  0  0
 18 19  1  0  0  0  0
 20 21  1  0  0  0  0
 21 25  1  0  0  0  0
 22 24  1  0  0  0  0
 23 22  2  0  0  0  0
 25 26  1  0  0  0  0
 25 22  1  0  0  0  0
 26 32  1  0  0  0  0
 27 29  1  0  0  0  0
 28 33  1  6  0  0  0
 28 27  1  0  0  0  0
 30 32  1  0  0  0  0
 30 28  1  0  0  0  0
 31 29  1  0  0  0  0
 32 31  2  0  0  0  0
 34 36  1  0  0  0  0
 34 33  1  0  0  0  0
 36 35  1  0  0  0  0
 37 36  2  0  0  0  0
M  END
>  <MODEL>
7

>  <REMARK>
 VINA RESULT:      -7.0      2.896      5.984
  Name = 
  14 active torsions:
  status: ('A' for Active; 'I' for Inactive)
    1  A    between atoms: C_1  and  C_2
    2  A    between atoms: C_1  and  C_17
    3  A    between atoms: C_2  and  C_36
    4  A    between atoms: C_2  and  C_37
    5  A    between atoms: C_7  and  C_23
    6  A    between atoms: C_12  and  C_13
    7  A    between atoms: C_12  and  C_23
    8  A    between atoms: C_19  and  C_36
    9  A    between atoms: N_25  and  C_28
   10  A    between atoms: N_25  and  C_32
   11  A    between atoms: O_27  and  C_36
   12  A    between atoms: C_28  and  C_35
   13  A    between atoms: C_32  and  C_34
   14  A    between atoms: C_35  and  C_37
                            x       y       z     vdW  Elec       q    Type
                         _______ _______ _______ _____ _____    ______ ____

>  <TORSDO>
F 14

$$$$
=
 OpenBabel11062415283D

 37 39  0  0  1  0  0  0  0  0999 V2000
  183.7950  178.9990  141.4650 C   0  0  0  0  0  2  0  0  0  0  0  0
  183.1530  178.4750  140.1710 C   0  0  2  0  0  3  0  0  0  0  0  0
  183.8420  178.9840  138.8910 C   0  0  1  0  0  3  0  0  0  0  0  0
  184.5590  180.1620  139.1230 O   0  0  0  0  0  1  0  0  0  0  0  0
  186.8720  177.2370  137.4280 C   0  0  0  0  0  3  0  0  0  0  0  0
  184.9660  175.8200  137.1740 N   0  0  0  0  0  0  0  0  0  0  0  0
  186.2940  176.0490  136.9790 C   0  0  0  0  0  0  0  0  0  0  0  0
  184.7090  177.9360  138.2580 C   0  0  0  0  0  0  0  0  0  0  0  0
  186.0710  178.1870  138.0680 C   0  0  0  0  0  3  0  0  0  0  0  0
  187.1310  175.0270  136.2980 C   0  0  0  0  0  1  0  0  0  0  0  0
  184.1690  176.7320  137.7910 C   0  0  0  0  0  3  0  0  0  0  0  0
  181.6280  178.6720  140.1460 C   0  0  2  0  0  3  0  0  0  0  0  0
  180.4330  175.2710  139.8540 O   0  0  0  0  0  0  0  0  0  0  0  0
  181.3540  176.1830  139.6420 C   0  0  0  0  0  3  0  0  0  0  0  0
  180.9230  177.3510  140.2270 C   0  0  0  0  0  0  0  0  0  0  0  0
  179.4300  175.7840  140.5310 C   0  0  0  0  0  3  0  0  0  0  0  0
  179.6850  177.1190  140.7930 C   0  0  0  0  0  3  0  0  0  0  0  0
  181.2420  179.3370  138.9780 O   0  0  0  0  0  0  0  0  0  0  0  0
  180.4850  180.4270  139.4130 C   0  0  0  0  0  1  0  0  0  0  0  0
  184.6300  177.9440  142.1680 C   0  0  0  0  0  2  0  0  0  0  0  0
  185.6690  178.6240  143.0360 C   0  0  0  0  0  2  0  0  0  0  0  0
  184.7970  178.7780  145.3930 C   0  0  0  0  0  0  0  0  0  0  0  0
  184.1210  179.7980  145.0920 O   0  0  0  0  0  0  0  0  0  0  0  0
  184.7710  178.2960  146.7330 N   0  0  0  0  0  1  0  0  0  0  0  0
  185.5920  178.1130  144.3980 N   0  0  0  0  0  0  0  0  0  0  0  0
  186.3820  176.9380  144.7390 C   0  0  0  0  0  2  0  0  0  0  0  0
  190.5470  177.4460  145.8070 C   0  0  0  0  0  2  0  0  0  0  0  0
  190.1520  177.9780  144.4360 C   0  0  2  0  0  3  0  0  0  0  0  0
  189.4970  177.8840  146.8190 C   0  0  0  0  0  2  0  0  0  0  0  0
  188.8310  177.3350  143.9940 C   0  0  0  0  0  2  0  0  0  0  0  0
  188.1110  177.4970  146.3780 C   0  0  0  0  0  3  0  0  0  0  0  0
  187.7840  177.3300  145.0850 C   0  0  0  0  0  0  0  0  0  0  0  0
  191.2590  177.6770  143.4390 C   0  0  0  0  0  2  0  0  0  0  0  0
  190.8190  176.6100  142.4520 C   0  0  0  0  0  2  0  0  0  0  0  0
  189.6370  177.1940  140.2360 C   0  0  0  0  0  1  0  0  0  0  0  0
  190.8780  177.1390  141.0560 C   0  0  0  0  0  0  0  0  0  0  0  0
  191.9390  177.5120  140.5810 O   0  0  0  0  0  0  0  0  0  0  0  0
  1 20  1  0  0  0  0
  2  1  1  1  0  0  0
  3  4  1  1  0  0  0
  3  2  1  0  0  0  0
  5  9  1  0  0  0  0
  6 11  2  0  0  0  0
  7  6  1  0  0  0  0
  7  5  2  0  0  0  0
  8  3  1  0  0  0  0
  9  8  2  0  0  0  0
 10  7  1  0  0  0  0
 11  8  1  0  0  0  0
 12 18  1  6  0  0  0
 12  2  1  0  0  0  0
 12 15  1  0  0  0  0
 13 16  1  0  0  0  0
 14 13  1  0  0  0  0
 14 15  2  0  0  0  0
 15 17  1  0  0  0  0
 16 17  2  0  0  0  0
 18 19  1  0  0  0  0
 20 21  1  0  0  0  0
 21 25  1  0  0  0  0
 22 24  1  0  0  0  0
 23 22  2  0  0  0  0
 25 26  1  0  0  0  0
 25 22  1  0  0  0  0
 26 32  1  0  0  0  0
 27 29  1  0  0  0  0
 28 33  1  6  0  0  0
 28 27  1  0  0  0  0
 30 28  1  0  0  0  0
 30 32  1  0  0  0  0
 31 29  1  0  0  0  0
 32 31  2  0  0  0  0
 34 33  1  0  0  0  0
 35 36  1  0  0  0  0
 36 34  1  0  0  0  0
 37 36  2  0  0  0  0
M  END
>  <MODEL>
8

>  <REMARK>
 VINA RESULT:      -7.0      1.958      3.197
  Name = 
  14 active torsions:
  status: ('A' for Active; 'I' for Inactive)
    1  A    between atoms: C_1  and  C_2
    2  A    between atoms: C_1  and  C_17
    3  A    between atoms: C_2  and  C_36
    4  A    between atoms: C_2  and  C_37
    5  A    between atoms: C_7  and  C_23
    6  A    between atoms: C_12  and  C_13
    7  A    between atoms: C_12  and  C_23
    8  A    between atoms: C_19  and  C_36
    9  A    between atoms: N_25  and  C_28
   10  A    between atoms: N_25  and  C_32
   11  A    between atoms: O_27  and  C_36
   12  A    between atoms: C_28  and  C_35
   13  A    between atoms: C_32  and  C_34
   14  A    between atoms: C_35  and  C_37
                            x       y       z     vdW  Elec       q    Type
                         _______ _______ _______ _____ _____    ______ ____

>  <TORSDO>
F 14

$$$$
=
 OpenBabel11062415283D

 37 39  0  0  1  0  0  0  0  0999 V2000
  190.4540  176.6850  140.5040 C   0  0  0  0  0  2  0  0  0  0  0  0
  190.5580  176.5070  138.9820 C   0  0  2  0  0  3  0  0  0  0  0  0
  191.9460  176.8560  138.4120 C   0  0  1  0  0  3  0  0  0  0  0  0
  192.8670  177.1330  139.4280 O   0  0  0  0  0  1  0  0  0  0  0  0
  192.4990  173.4860  136.7660 C   0  0  0  0  0  3  0  0  0  0  0  0
  193.9640  175.0850  135.7640 N   0  0  0  0  0  0  0  0  0  0  0  0
  193.5050  173.8060  135.8530 C   0  0  0  0  0  0  0  0  0  0  0  0
  192.4630  175.7960  137.4850 C   0  0  0  0  0  0  0  0  0  0  0  0
  191.9790  174.4890  137.5890 C   0  0  0  0  0  3  0  0  0  0  0  0
  194.0680  172.7520  134.9690 C   0  0  0  0  0  1  0  0  0  0  0  0
  193.4740  176.0750  136.5570 C   0  0  0  0  0  3  0  0  0  0  0  0
  189.4120  177.1990  138.2260 C   0  0  2  0  0  3  0  0  0  0  0  0
  188.1820  175.0790  135.5670 O   0  0  0  0  0  0  0  0  0  0  0  0
  189.0980  175.8800  136.0610 C   0  0  0  0  0  3  0  0  0  0  0  0
  188.7030  176.2250  137.3320 C   0  0  0  0  0  0  0  0  0  0  0  0
  187.2160  174.8960  136.4390 C   0  0  0  0  0  3  0  0  0  0  0  0
  187.4920  175.6130  137.5890 C   0  0  0  0  0  3  0  0  0  0  0  0
  189.9040  178.2620  137.4610 O   0  0  0  0  0  0  0  0  0  0  0  0
  188.9580  179.2800  137.6000 C   0  0  0  0  0  1  0  0  0  0  0  0
  189.1060  177.2320  140.9350 C   0  0  0  0  0  2  0  0  0  0  0  0
  189.3110  178.2750  142.0160 C   0  0  0  0  0  2  0  0  0  0  0  0
  190.8230  177.9420  144.0000 C   0  0  0  0  0  0  0  0  0  0  0  0
  191.6160  178.8180  143.5620 O   0  0  0  0  0  0  0  0  0  0  0  0
  191.1380  177.2610  145.2120 N   0  0  0  0  0  1  0  0  0  0  0  0
  189.6200  177.6260  143.2820 N   0  0  0  0  0  0  0  0  0  0  0  0
  188.7020  176.6090  143.7780 C   0  0  0  0  0  2  0  0  0  0  0  0
  185.6330  179.0080  145.6690 C   0  0  0  0  0  2  0  0  0  0  0  0
  185.1670  178.1460  144.5030 C   0  0  2  0  0  3  0  0  0  0  0  0
  186.5290  178.1670  146.5670 C   0  0  0  0  0  2  0  0  0  0  0  0
  186.3730  177.7360  143.6490 C   0  0  0  0  0  2  0  0  0  0  0  0
  187.6430  177.5220  145.7870 C   0  0  0  0  0  3  0  0  0  0  0  0
  187.5410  177.2460  144.4750 C   0  0  0  0  0  0  0  0  0  0  0  0
  184.1560  178.9210  143.6740 C   0  0  0  0  0  2  0  0  0  0  0  0
  182.8310  179.0340  144.4090 C   0  0  0  0  0  2  0  0  0  0  0  0
  180.3310  178.5940  143.9610 C   0  0  0  0  0  1  0  0  0  0  0  0
  181.6940  178.9050  143.4500 C   0  0  0  0  0  0  0  0  0  0  0  0
  181.8790  179.0390  142.2510 O   0  0  0  0  0  0  0  0  0  0  0  0
  1 20  1  0  0  0  0
  2  1  1  1  0  0  0
  3  2  1  0  0  0  0
  3  4  1  1  0  0  0
  5  9  1  0  0  0  0
  6  7  1  0  0  0  0
  6 11  2  0  0  0  0
  7  5  2  0  0  0  0
  8  9  2  0  0  0  0
  8  3  1  0  0  0  0
 10  7  1  0  0  0  0
 11  8  1  0  0  0  0
 12 18  1  6  0  0  0
 12  2  1  0  0  0  0
 13 14  1  0  0  0  0
 13 16  1  0  0  0  0
 14 15  2  0  0  0  0
 15 17  1  0  0  0  0
 15 12  1  0  0  0  0
 16 17  2  0  0  0  0
 18 19  1  0  0  0  0
 20 21  1  0  0  0  0
 21 25  1  0  0  0  0
 22 24  1  0  0  0  0
 23 22  2  0  0  0  0
 25 26  1  0  0  0  0
 25 22  1  0  0  0  0
 26 32  1  0  0  0  0
 27 29  1  0  0  0  0
 28 33  1  6  0  0  0
 28 27  1  0  0  0  0
 30 32  1  0  0  0  0
 30 28  1  0  0  0  0
 31 29  1  0  0  0  0
 32 31  2  0  0  0  0
 33 34  1  0  0  0  0
 36 35  1  0  0  0  0
 36 34  1  0  0  0  0
 37 36  2  0  0  0  0
M  END
>  <MODEL>
9

>  <REMARK>
 VINA RESULT:      -6.9      3.816      7.322
  Name = 
  14 active torsions:
  status: ('A' for Active; 'I' for Inactive)
    1  A    between atoms: C_1  and  C_2
    2  A    between atoms: C_1  and  C_17
    3  A    between atoms: C_2  and  C_36
    4  A    between atoms: C_2  and  C_37
    5  A    between atoms: C_7  and  C_23
    6  A    between atoms: C_12  and  C_13
    7  A    between atoms: C_12  and  C_23
    8  A    between atoms: C_19  and  C_36
    9  A    between atoms: N_25  and  C_28
   10  A    between atoms: N_25  and  C_32
   11  A    between atoms: O_27  and  C_36
   12  A    between atoms: C_28  and  C_35
   13  A    between atoms: C_32  and  C_34
   14  A    between atoms: C_35  and  C_37
                            x       y       z     vdW  Elec       q    Type
                         _______ _______ _______ _____ _____    ______ ____

>  <TORSDO>
F 14

$$$$
