=
 OpenBabel11062416553D

 56 62  0  0  1  0  0  0  0  0999 V2000
  187.5370  175.8080  136.6350 C   0  0  0  0  0  3  0  0  0  0  0  0
  188.2280  177.2930  134.7860 C   0  0  0  0  0  3  0  0  0  0  0  0
  186.2520  176.1550  136.4870 C   0  0  0  0  0  0  0  0  0  0  0  0
  190.0220  175.9380  135.9360 C   0  0  1  0  0  3  0  0  0  0  0  0
  189.3750  173.7830  135.0500 C   0  0  2  0  0  3  0  0  0  0  0  0
  190.5840  174.6330  135.3940 C   0  0  0  0  0  2  0  0  0  0  0  0
  188.3350  174.7950  134.5940 C   0  0  0  0  0  2  0  0  0  0  0  0
  188.5290  176.0030  135.5130 C   0  0  1  0  0  0  0  0  0  0  0  0
  186.9580  177.7320  134.6740 C   0  0  0  0  0  3  0  0  0  0  0  0
  185.8270  176.9080  135.2370 C   0  0  0  0  0  2  0  0  0  0  0  0
  190.3890  176.0780  137.7280 P   0  0  2  0  0  0  0  0  0  0  0  0
  191.3640  177.2070  137.9630 O   0  0  0  0  0  0  0  0  0  0  0  0
  191.0720  174.6360  138.2820 O   0  0  0  0  0  1  0  0  0  0  0  0
  188.8880  176.4050  138.5930 N   0  0  0  0  0  2  0  0  0  0  0  0
  189.1190  177.7390  139.6960 S   0  0  0  0  0  0  0  0  0  0  0  0
  189.0690  179.0440  138.9290 O   0  0  0  0  0  0  0  0  0  0  0  0
  190.4510  177.6760  140.3960 O   0  0  0  0  0  0  0  0  0  0  0  0
  187.8670  177.7190  140.8900 N   0  0  0  0  0  0  0  0  0  0  0  0
  188.2660  177.0710  145.0980 C   0  0  2  0  0  3  0  0  0  0  0  0
  186.6930  178.5930  140.8360 C   0  0  0  0  0  3  0  0  0  0  0  0
  186.2100  178.6770  142.2130 N   0  0  0  0  0  0  0  0  0  0  0  0
  189.2840  176.7170  142.8120 C   0  0  0  0  0  2  0  0  0  0  0  0
  187.1290  177.9390  143.0070 C   0  0  0  0  0  0  0  0  0  0  0  0
  188.0930  177.4400  142.2570 C   0  0  0  0  0  0  0  0  0  0  0  0
  189.5530  177.1620  144.2500 C   0  0  0  0  0  2  0  0  0  0  0  0
  187.1770  177.9810  144.5070 C   0  0  0  0  0  2  0  0  0  0  0  0
  187.5470  178.0360  147.3510 N   0  0  0  0  0  1  0  0  0  0  0  0
  188.5480  177.4240  146.5410 C   0  0  0  0  0  0  0  0  0  0  0  0
  189.9100  176.8860  147.2620 S   0  0  0  0  0  0  0  0  0  0  0  0
  188.9030  172.9870  136.2510 C   0  0  0  0  0  3  0  0  0  0  0  0
  187.9040  172.1210  136.1190 C   0  0  0  0  0  2  0  0  0  0  0  0
  185.3150  175.6100  137.3790 O   0  0  0  0  0  0  0  0  0  0  0  0
  180.6750  174.6440  138.4320 C   0  0  2  0  0  3  0  0  0  0  0  0
  181.1190  176.5420  136.6970 C   0  0  0  0  0  2  0  0  0  0  0  0
  184.2730  174.7120  136.9800 C   0  0  2  0  0  3  0  0  0  0  0  0
  182.6290  176.3670  136.6230 C   0  0  0  0  0  2  0  0  0  0  0  0
  181.7540  172.8710  136.9420 C   0  0  0  0  0  2  0  0  0  0  0  0
  182.9650  175.2080  137.4510 N   0  0  1  0  0  0  0  0  0  0  0  0
  184.0740  172.1630  136.5340 C   0  0  0  0  0  2  0  0  0  0  0  0
  182.7600  172.5450  135.8570 C   0  0  0  0  0  2  0  0  0  0  0  0
  181.7680  174.3340  137.4010 C   0  0  2  0  0  0  0  0  0  0  0  0
  180.5670  175.1460  136.9670 C   0  0  1  0  0  3  0  0  0  0  0  0
  185.2930  173.0690  138.3580 O   0  0  0  0  0  0  0  0  0  0  0  0
  184.5860  173.2930  137.3820 C   0  0  0  0  0  0  0  0  0  0  0  0
  181.0610  175.7020  139.4690 C   0  0  0  0  0  2  0  0  0  0  0  0
  179.9890  175.8140  140.5430 C   0  0  0  0  0  2  0  0  0  0  0  0
  179.0510  176.8410  140.2130 O   0  0  0  0  0  0  0  0  0  0  0  0
  179.4000  178.1930  140.1220 C   0  0  0  0  0  0  0  0  0  0  0  0
  180.1650  178.6070  139.2030 O   0  0  0  0  0  0  0  0  0  0  0  0
  178.9310  179.1060  141.0650 O   0  0  0  0  0  0  0  0  0  0  0  0
  179.8290  179.7330  141.9620 C   0  0  0  0  0  2  0  0  0  0  0  0
  179.9150  178.9490  143.2260 C   0  0  0  0  0  3  0  0  0  0  0  0
  181.0620  178.6240  143.8400 C   0  0  0  0  0  3  0  0  0  0  0  0
  182.3740  179.0290  143.4180 N   0  0  0  0  0  0  0  0  0  0  0  0
  182.7990  178.6530  142.0740 C   0  0  0  0  0  1  0  0  0  0  0  0
  183.4050  179.4620  144.3470 C   0  0  0  0  0  1  0  0  0  0  0  0
  2  8  1  0  0  0  0
  3  1  2  0  0  0  0
  3 32  1  0  0  0  0
  4 11  1  1  0  0  0
  5  6  1  0  0  0  0
  5 30  1  1  0  0  0
  6  4  1  0  0  0  0
  7  5  1  0  0  0  0
  8  7  1  6  0  0  0
  8  4  1  0  0  0  0
  8  1  1  0  0  0  0
  9  2  2  0  0  0  0
  9 10  1  0  0  0  0
 10  3  1  0  0  0  0
 11 12  2  1  0  0  0
 11 13  1  0  0  0  0
 11 14  1  0  0  0  0
 14 15  1  0  0  0  0
 15 17  2  0  0  0  0
 15 18  1  0  0  0  0
 16 15  2  0  0  0  0
 18 24  1  0  0  0  0
 19 28  1  1  0  0  0
 20 18  1  0  0  0  0
 20 21  2  0  0  0  0
 21 23  1  0  0  0  0
 22 25  1  0  0  0  0
 23 26  1  0  0  0  0
 24 22  1  0  0  0  0
 24 23  2  0  0  0  0
 25 19  1  0  0  0  0
 26 19  1  0  0  0  0
 28 29  2  0  0  0  0
 28 27  1  0  0  0  0
 31 30  2  0  0  0  0
 33 45  1  1  0  0  0
 35 32  1  1  0  0  0
 35 44  1  0  0  0  0
 35 38  1  0  0  0  0
 36 34  1  0  0  0  0
 38 36  1  6  0  0  0
 39 44  1  0  0  0  0
 40 39  1  0  0  0  0
 40 37  1  0  0  0  0
 41 37  1  6  0  0  0
 41 38  1  0  0  0  0
 41 33  1  0  0  0  0
 42 34  1  1  0  0  0
 42 41  1  0  0  0  0
 42 33  1  0  0  0  0
 44 43  2  0  0  0  0
 45 46  1  0  0  0  0
 47 46  1  0  0  0  0
 48 47  1  0  0  0  0
 48 50  1  0  0  0  0
 49 48  2  0  0  0  0
 50 51  1  0  0  0  0
 51 52  1  0  0  0  0
 52 53  2  0  0  0  0
 54 53  1  0  0  0  0
 54 56  1  0  0  0  0
 55 54  1  0  0  0  0
M  END
>  <MODEL>
1

>  <REMARK>
 VINA RESULT:      -7.5      0.000      0.000
  Name = 
  16 active torsions:
  status: ('A' for Active; 'I' for Inactive)
    1  A    between atoms: C_1  and  C_25
    2  A    between atoms: S_2  and  N_3
    3  A    between atoms: S_2  and  N_6
    4  A    between atoms: C_4  and  C_41
    5  A    between atoms: N_6  and  P_10
    6  A    between atoms: C_7  and  O_56
    7  A    between atoms: C_9  and  C_25
    8  A    between atoms: C_9  and  O_31
    9  A    between atoms: P_10  and  C_18
   10  A    between atoms: N_12  and  C_16
   11  A    between atoms: C_15  and  C_54
   12  A    between atoms: C_17  and  O_56
   13  A    between atoms: C_21  and  C_23
   14  A    between atoms: C_29  and  O_31
   15  A    between atoms: C_29  and  O_37
   16  A    between atoms: O_37  and  C_54
                            x       y       z     vdW  Elec       q    Type
                         _______ _______ _______ _____ _____    ______ ____

>  <TORSDO>
F 16

$$$$
=
 OpenBabel11062416553D

 56 62  0  0  1  0  0  0  0  0999 V2000
  182.5700  175.6900  137.1070 C   0  0  0  0  0  3  0  0  0  0  0  0
  182.1920  176.7540  134.9100 C   0  0  0  0  0  3  0  0  0  0  0  0
  183.0910  176.8170  137.6080 C   0  0  0  0  0  0  0  0  0  0  0  0
  181.4760  174.3480  135.1880 C   0  0  1  0  0  3  0  0  0  0  0  0
  179.5840  174.7710  136.6320 C   0  0  2  0  0  3  0  0  0  0  0  0
  180.0470  173.9120  135.4700 C   0  0  0  0  0  2  0  0  0  0  0  0
  180.2940  176.0980  136.4110 C   0  0  0  0  0  2  0  0  0  0  0  0
  181.6810  175.7200  135.8860 C   0  0  1  0  0  0  0  0  0  0  0  0
  182.7960  177.8740  135.3570 C   0  0  0  0  0  3  0  0  0  0  0  0
  182.9220  178.1180  136.8400 C   0  0  0  0  0  2  0  0  0  0  0  0
  182.6400  173.0010  135.6330 P   0  0  2  0  0  0  0  0  0  0  0  0
  182.4420  171.8280  134.7040 O   0  0  0  0  0  0  0  0  0  0  0  0
  182.3510  172.5030  137.2200 O   0  0  0  0  0  1  0  0  0  0  0  0
  184.2900  173.6020  135.4810 N   0  0  0  0  0  2  0  0  0  0  0  0
  185.3580  172.6630  136.4940 S   0  0  0  0  0  0  0  0  0  0  0  0
  185.3250  171.2130  136.0580 O   0  0  0  0  0  0  0  0  0  0  0  0
  184.9540  172.7090  137.9450 O   0  0  0  0  0  0  0  0  0  0  0  0
  186.9700  173.2760  136.3530 N   0  0  0  0  0  0  0  0  0  0  0  0
  188.3530  177.2360  137.1820 C   0  0  2  0  0  3  0  0  0  0  0  0
  188.1610  172.4780  136.6540 C   0  0  0  0  0  3  0  0  0  0  0  0
  189.2110  173.4490  136.9510 N   0  0  0  0  0  0  0  0  0  0  0  0
  186.3720  175.7850  136.5840 C   0  0  0  0  0  2  0  0  0  0  0  0
  188.6020  174.7320  136.8900 C   0  0  0  0  0  0  0  0  0  0  0  0
  187.3200  174.6230  136.5980 C   0  0  0  0  0  0  0  0  0  0  0  0
  186.8820  176.8970  137.5010 C   0  0  0  0  0  2  0  0  0  0  0  0
  189.2390  175.9970  137.3890 C   0  0  0  0  0  2  0  0  0  0  0  0
  188.9930  179.6940  137.4570 N   0  0  0  0  0  1  0  0  0  0  0  0
  188.8330  178.3960  138.0250 C   0  0  0  0  0  0  0  0  0  0  0  0
  188.9350  178.2400  139.6470 S   0  0  0  0  0  0  0  0  0  0  0  0
  179.9540  174.1430  137.9620 C   0  0  0  0  0  3  0  0  0  0  0  0
  179.2630  173.1020  138.4160 C   0  0  0  0  0  2  0  0  0  0  0  0
  183.5700  176.7930  138.9280 O   0  0  0  0  0  0  0  0  0  0  0  0
  184.7340  178.2420  143.4120 C   0  0  2  0  0  3  0  0  0  0  0  0
  185.7490  179.6060  141.4320 C   0  0  0  0  0  2  0  0  0  0  0  0
  183.0470  177.6190  139.9730 C   0  0  2  0  0  3  0  0  0  0  0  0
  185.0150  178.8760  140.3180 C   0  0  0  0  0  2  0  0  0  0  0  0
  182.3410  178.8470  142.7540 C   0  0  0  0  0  2  0  0  0  0  0  0
  184.1040  177.9260  140.9580 N   0  0  1  0  0  0  0  0  0  0  0  0
  180.7400  177.9500  141.1160 C   0  0  0  0  0  2  0  0  0  0  0  0
  181.3690  179.2320  141.6570 C   0  0  0  0  0  2  0  0  0  0  0  0
  183.7600  178.5370  142.2640 C   0  0  2  0  0  0  0  0  0  0  0  0
  184.7970  179.5780  142.6230 C   0  0  1  0  0  3  0  0  0  0  0  0
  181.6130  175.8170  140.5510 O   0  0  0  0  0  0  0  0  0  0  0  0
  181.7930  177.0290  140.5670 C   0  0  0  0  0  0  0  0  0  0  0  0
  185.8240  177.2210  143.0760 C   0  0  0  0  0  2  0  0  0  0  0  0
  186.8410  177.1320  144.2050 C   0  0  0  0  0  2  0  0  0  0  0  0
  186.2410  177.4910  145.4520 O   0  0  0  0  0  0  0  0  0  0  0  0
  186.9630  178.0460  146.5130 C   0  0  0  0  0  0  0  0  0  0  0  0
  186.3720  178.6360  147.4650 O   0  0  0  0  0  0  0  0  0  0  0  0
  188.3560  177.9840  146.5270 O   0  0  0  0  0  0  0  0  0  0  0  0
  189.0150  176.7510  146.7430 C   0  0  0  0  0  2  0  0  0  0  0  0
  190.4700  176.9850  146.9610 C   0  0  0  0  0  3  0  0  0  0  0  0
  191.3800  177.0660  145.9790 C   0  0  0  0  0  3  0  0  0  0  0  0
  191.0930  177.0060  144.5730 N   0  0  0  0  0  0  0  0  0  0  0  0
  191.6160  175.8680  143.8230 C   0  0  0  0  0  1  0  0  0  0  0  0
  190.6370  178.1560  143.8090 C   0  0  0  0  0  1  0  0  0  0  0  0
  1  3  2  0  0  0  0
  2  9  2  0  0  0  0
  3 32  1  0  0  0  0
  4  6  1  0  0  0  0
  4 11  1  1  0  0  0
  4  8  1  0  0  0  0
  5 30  1  1  0  0  0
  6  5  1  0  0  0  0
  7  5  1  0  0  0  0
  8  2  1  6  0  0  0
  8  7  1  0  0  0  0
  8  1  1  0  0  0  0
  9 10  1  0  0  0  0
 10  3  1  0  0  0  0
 11 12  2  6  0  0  0
 11 13  1  0  0  0  0
 14 11  1  0  0  0  0
 14 15  1  0  0  0  0
 15 17  2  0  0  0  0
 16 15  2  0  0  0  0
 18 15  1  0  0  0  0
 18 24  1  0  0  0  0
 18 20  1  0  0  0  0
 19 26  1  0  0  0  0
 19 25  1  0  0  0  0
 19 28  1  1  0  0  0
 20 21  2  0  0  0  0
 22 24  1  0  0  0  0
 22 25  1  0  0  0  0
 23 21  1  0  0  0  0
 23 26  1  0  0  0  0
 24 23  2  0  0  0  0
 27 28  1  0  0  0  0
 28 29  2  0  0  0  0
 30 31  2  0  0  0  0
 33 45  1  6  0  0  0
 35 32  1  6  0  0  0
 35 44  1  0  0  0  0
 35 38  1  0  0  0  0
 36 34  1  0  0  0  0
 38 36  1  6  0  0  0
 38 41  1  0  0  0  0
 39 40  1  0  0  0  0
 40 37  1  0  0  0  0
 41 42  1  0  0  0  0
 41 37  1  1  0  0  0
 41 33  1  0  0  0  0
 42 34  1  6  0  0  0
 42 33  1  0  0  0  0
 43 44  2  0  0  0  0
 44 39  1  0  0  0  0
 45 46  1  0  0  0  0
 46 47  1  0  0  0  0
 47 48  1  0  0  0  0
 48 50  1  0  0  0  0
 48 49  2  0  0  0  0
 50 51  1  0  0  0  0
 51 52  1  0  0  0  0
 53 52  2  0  0  0  0
 54 53  1  0  0  0  0
 55 54  1  0  0  0  0
 56 54  1  0  0  0  0
M  END
>  <MODEL>
2

>  <REMARK>
 VINA RESULT:      -7.3      3.180      7.960
  Name = 
  16 active torsions:
  status: ('A' for Active; 'I' for Inactive)
    1  A    between atoms: C_1  and  C_25
    2  A    between atoms: S_2  and  N_3
    3  A    between atoms: S_2  and  N_6
    4  A    between atoms: C_4  and  C_41
    5  A    between atoms: N_6  and  P_10
    6  A    between atoms: C_7  and  O_56
    7  A    between atoms: C_9  and  C_25
    8  A    between atoms: C_9  and  O_31
    9  A    between atoms: P_10  and  C_18
   10  A    between atoms: N_12  and  C_16
   11  A    between atoms: C_15  and  C_54
   12  A    between atoms: C_17  and  O_56
   13  A    between atoms: C_21  and  C_23
   14  A    between atoms: C_29  and  O_31
   15  A    between atoms: C_29  and  O_37
   16  A    between atoms: O_37  and  C_54
                            x       y       z     vdW  Elec       q    Type
                         _______ _______ _______ _____ _____    ______ ____

>  <TORSDO>
F 16

$$$$
=
 OpenBabel11062416553D

 56 62  0  0  1  0  0  0  0  0999 V2000
  181.2060  176.9560  138.9760 C   0  0  0  0  0  3  0  0  0  0  0  0
  179.4700  176.4350  140.6530 C   0  0  0  0  0  3  0  0  0  0  0  0
  180.9100  175.8580  138.2690 C   0  0  0  0  0  0  0  0  0  0  0  0
  180.8120  178.5510  140.9710 C   0  0  1  0  0  3  0  0  0  0  0  0
  179.8310  179.7960  139.1450 C   0  0  2  0  0  3  0  0  0  0  0  0
  180.3260  179.9350  140.5730 C   0  0  0  0  0  2  0  0  0  0  0  0
  179.2640  178.3850  139.0910 C   0  0  0  0  0  2  0  0  0  0  0  0
  180.2130  177.5450  139.9490 C   0  0  1  0  0  0  0  0  0  0  0  0
  179.2110  175.2750  140.0140 C   0  0  0  0  0  3  0  0  0  0  0  0
  179.6270  175.1040  138.5750 C   0  0  0  0  0  2  0  0  0  0  0  0
  182.6360  178.5610  141.1630 P   0  0  2  0  0  0  0  0  0  0  0  0
  183.2250  179.7110  140.3820 O   0  0  0  0  0  0  0  0  0  0  0  0
  183.2770  177.1120  140.5790 O   0  0  0  0  0  1  0  0  0  0  0  0
  183.0270  178.7480  142.8720 N   0  0  0  0  0  2  0  0  0  0  0  0
  184.7600  178.7740  143.0840 S   0  0  0  0  0  0  0  0  0  0  0  0
  185.2780  180.1770  142.8500 O   0  0  0  0  0  0  0  0  0  0  0  0
  185.4670  177.8630  142.1130 O   0  0  0  0  0  0  0  0  0  0  0  0
  185.1490  178.2710  144.6930 N   0  0  0  0  0  0  0  0  0  0  0  0
  188.9400  176.9860  146.1960 C   0  0  2  0  0  3  0  0  0  0  0  0
  184.5440  178.8660  145.8870 C   0  0  0  0  0  3  0  0  0  0  0  0
  185.4860  178.5980  146.9720 N   0  0  0  0  0  0  0  0  0  0  0  0
  187.4780  177.2730  144.1560 C   0  0  0  0  0  2  0  0  0  0  0  0
  186.6030  177.9460  146.3820 C   0  0  0  0  0  0  0  0  0  0  0  0
  186.4260  177.8080  145.0820 C   0  0  0  0  0  0  0  0  0  0  0  0
  188.8700  177.5020  144.7440 C   0  0  0  0  0  2  0  0  0  0  0  0
  187.9190  177.7290  147.0730 C   0  0  0  0  0  2  0  0  0  0  0  0
  190.5530  177.5090  148.1070 N   0  0  0  0  0  1  0  0  0  0  0  0
  190.3400  177.1280  146.7510 C   0  0  0  0  0  0  0  0  0  0  0  0
  191.6190  176.6090  145.8790 S   0  0  0  0  0  0  0  0  0  0  0  0
  180.9580  179.9930  138.1510 C   0  0  0  0  0  3  0  0  0  0  0  0
  181.5470  181.1800  138.0480 C   0  0  0  0  0  2  0  0  0  0  0  0
  181.6780  175.5820  137.1260 O   0  0  0  0  0  0  0  0  0  0  0  0
  185.2990  172.9270  135.2820 C   0  0  2  0  0  3  0  0  0  0  0  0
  185.1290  173.0430  137.8840 C   0  0  0  0  0  2  0  0  0  0  0  0
  181.9140  174.2590  136.6330 C   0  0  2  0  0  3  0  0  0  0  0  0
  183.8320  173.8360  137.9420 C   0  0  0  0  0  2  0  0  0  0  0  0
  183.0190  171.7960  135.0680 C   0  0  0  0  0  2  0  0  0  0  0  0
  183.3650  173.9920  136.5650 N   0  0  1  0  0  0  0  0  0  0  0  0
  180.7000  172.6170  135.0310 C   0  0  0  0  0  2  0  0  0  0  0  0
  181.6340  171.5770  135.6440 C   0  0  0  0  0  2  0  0  0  0  0  0
  183.8770  172.8020  135.8430 C   0  0  2  0  0  0  0  0  0  0  0  0
  185.0220  172.1930  136.6220 C   0  0  1  0  0  3  0  0  0  0  0  0
  180.9080  174.9390  134.5940 O   0  0  0  0  0  0  0  0  0  0  0  0
  181.1710  174.0080  135.3460 C   0  0  0  0  0  0  0  0  0  0  0  0
  185.9120  174.3240  135.4060 C   0  0  0  0  0  2  0  0  0  0  0  0
  187.4230  174.2630  135.2380 C   0  0  0  0  0  2  0  0  0  0  0  0
  188.0550  173.9440  136.4800 O   0  0  0  0  0  0  0  0  0  0  0  0
  189.4340  173.7450  136.6060 C   0  0  0  0  0  0  0  0  0  0  0  0
  190.0420  172.9190  135.8650 O   0  0  0  0  0  0  0  0  0  0  0  0
  190.1600  174.4360  137.5750 O   0  0  0  0  0  0  0  0  0  0  0  0
  190.4290  175.8160  137.4180 C   0  0  0  0  0  2  0  0  0  0  0  0
  191.5040  176.2340  138.3610 C   0  0  0  0  0  3  0  0  0  0  0  0
  192.8140  176.0330  138.1530 C   0  0  0  0  0  3  0  0  0  0  0  0
  193.3890  175.4470  136.9750 N   0  0  0  0  0  0  0  0  0  0  0  0
  194.2150  174.2560  137.1450 C   0  0  0  0  0  1  0  0  0  0  0  0
  193.4900  176.1540  135.7080 C   0  0  0  0  0  1  0  0  0  0  0  0
  3 10  1  0  0  0  0
  3  1  2  0  0  0  0
  4 11  1  6  0  0  0
  5 30  1  6  0  0  0
  5  6  1  0  0  0  0
  6  4  1  0  0  0  0
  7  5  1  0  0  0  0
  7  8  1  0  0  0  0
  8  1  1  6  0  0  0
  8  2  1  0  0  0  0
  8  4  1  0  0  0  0
  9  2  2  0  0  0  0
 10  9  1  0  0  0  0
 11 12  2  6  0  0  0
 11 14  1  0  0  0  0
 13 11  1  0  0  0  0
 14 15  1  0  0  0  0
 15 18  1  0  0  0  0
 16 15  2  0  0  0  0
 17 15  2  0  0  0  0
 18 24  1  0  0  0  0
 18 20  1  0  0  0  0
 19 28  1  1  0  0  0
 19 26  1  0  0  0  0
 20 21  2  0  0  0  0
 22 25  1  0  0  0  0
 22 24  1  0  0  0  0
 23 21  1  0  0  0  0
 23 26  1  0  0  0  0
 24 23  2  0  0  0  0
 25 19  1  0  0  0  0
 28 27  1  0  0  0  0
 29 28  2  0  0  0  0
 31 30  2  0  0  0  0
 32  3  1  0  0  0  0
 33 45  1  1  0  0  0
 33 41  1  0  0  0  0
 33 42  1  0  0  0  0
 34 36  1  0  0  0  0
 35 32  1  6  0  0  0
 37 40  1  0  0  0  0
 38 35  1  0  0  0  0
 38 36  1  1  0  0  0
 39 44  1  0  0  0  0
 39 40  1  0  0  0  0
 41 37  1  6  0  0  0
 41 38  1  0  0  0  0
 41 42  1  0  0  0  0
 42 34  1  1  0  0  0
 43 44  2  0  0  0  0
 44 35  1  0  0  0  0
 46 45  1  0  0  0  0
 46 47  1  0  0  0  0
 47 48  1  0  0  0  0
 48 50  1  0  0  0  0
 49 48  2  0  0  0  0
 51 50  1  0  0  0  0
 51 52  1  0  0  0  0
 53 52  2  0  0  0  0
 54 55  1  0  0  0  0
 54 53  1  0  0  0  0
 56 54  1  0  0  0  0
M  END
>  <MODEL>
3

>  <REMARK>
 VINA RESULT:      -7.1      2.822      8.038
  Name = 
  16 active torsions:
  status: ('A' for Active; 'I' for Inactive)
    1  A    between atoms: C_1  and  C_25
    2  A    between atoms: S_2  and  N_3
    3  A    between atoms: S_2  and  N_6
    4  A    between atoms: C_4  and  C_41
    5  A    between atoms: N_6  and  P_10
    6  A    between atoms: C_7  and  O_56
    7  A    between atoms: C_9  and  C_25
    8  A    between atoms: C_9  and  O_31
    9  A    between atoms: P_10  and  C_18
   10  A    between atoms: N_12  and  C_16
   11  A    between atoms: C_15  and  C_54
   12  A    between atoms: C_17  and  O_56
   13  A    between atoms: C_21  and  C_23
   14  A    between atoms: C_29  and  O_31
   15  A    between atoms: C_29  and  O_37
   16  A    between atoms: O_37  and  C_54
                            x       y       z     vdW  Elec       q    Type
                         _______ _______ _______ _____ _____    ______ ____

>  <TORSDO>
F 16

$$$$
=
 OpenBabel11062416553D

 56 62  0  0  1  0  0  0  0  0999 V2000
  187.3130  175.9060  136.7960 C   0  0  0  0  0  3  0  0  0  0  0  0
  187.9510  177.9410  135.5500 C   0  0  0  0  0  3  0  0  0  0  0  0
  186.0100  176.1690  136.6380 C   0  0  0  0  0  0  0  0  0  0  0  0
  189.8080  176.4590  136.4060 C   0  0  1  0  0  3  0  0  0  0  0  0
  189.4610  174.6330  134.8590 C   0  0  2  0  0  3  0  0  0  0  0  0
  190.5440  175.4380  135.5530 C   0  0  0  0  0  2  0  0  0  0  0  0
  188.3460  175.6420  134.6300 C   0  0  0  0  0  2  0  0  0  0  0  0
  188.3470  176.5220  135.8830 C   0  0  1  0  0  0  0  0  0  0  0  0
  186.6490  178.2820  135.4550 C   0  0  0  0  0  3  0  0  0  0  0  0
  185.5840  177.2300  135.6370 C   0  0  0  0  0  2  0  0  0  0  0  0
  190.0430  176.0720  138.1840 P   0  0  2  0  0  0  0  0  0  0  0  0
  191.2900  175.2400  138.3650 O   0  0  0  0  0  0  0  0  0  0  0  0
  188.7130  175.2030  138.7570 O   0  0  0  0  0  1  0  0  0  0  0  0
  190.2070  177.5830  139.0770 N   0  0  0  0  0  2  0  0  0  0  0  0
  190.0480  177.2790  140.7900 S   0  0  0  0  0  0  0  0  0  0  0  0
  190.9200  178.2490  141.5590 O   0  0  0  0  0  0  0  0  0  0  0  0
  190.4820  175.8850  141.1630 O   0  0  0  0  0  0  0  0  0  0  0  0
  188.3960  177.4850  141.2580 N   0  0  0  0  0  0  0  0  0  0  0  0
  186.7790  177.5480  145.2160 C   0  0  2  0  0  3  0  0  0  0  0  0
  187.4630  178.3600  140.5440 C   0  0  0  0  0  3  0  0  0  0  0  0
  186.4190  178.6840  141.5140 N   0  0  0  0  0  0  0  0  0  0  0  0
  188.6840  176.7940  143.7380 C   0  0  0  0  0  2  0  0  0  0  0  0
  186.8030  178.0730  142.7380 C   0  0  0  0  0  0  0  0  0  0  0  0
  187.9490  177.4360  142.5980 C   0  0  0  0  0  0  0  0  0  0  0  0
  188.3130  177.4700  145.0570 C   0  0  0  0  0  2  0  0  0  0  0  0
  186.1690  178.3660  144.0670 C   0  0  0  0  0  2  0  0  0  0  0  0
  185.0910  178.6230  146.8040 N   0  0  0  0  0  1  0  0  0  0  0  0
  186.4080  178.1340  146.5600 C   0  0  0  0  0  0  0  0  0  0  0  0
  187.4300  177.9890  147.8250 S   0  0  0  0  0  0  0  0  0  0  0  0
  189.0060  173.4690  135.7160 C   0  0  0  0  0  3  0  0  0  0  0  0
  187.8810  172.8280  135.4160 C   0  0  0  0  0  2  0  0  0  0  0  0
  185.0840  175.2970  137.2340 O   0  0  0  0  0  0  0  0  0  0  0  0
  180.3440  174.8920  138.1980 C   0  0  2  0  0  3  0  0  0  0  0  0
  181.1810  177.2190  137.3650 C   0  0  0  0  0  2  0  0  0  0  0  0
  183.8770  174.8690  136.5930 C   0  0  2  0  0  3  0  0  0  0  0  0
  182.6200  176.8030  137.0940 C   0  0  0  0  0  2  0  0  0  0  0  0
  181.0250  173.7380  136.0230 C   0  0  0  0  0  2  0  0  0  0  0  0
  182.7020  175.3630  137.3390 N   0  0  1  0  0  0  0  0  0  0  0  0
  183.1440  172.8350  135.1580 C   0  0  0  0  0  2  0  0  0  0  0  0
  181.9410  173.7110  134.8160 C   0  0  0  0  0  2  0  0  0  0  0  0
  181.3470  174.8390  137.0390 C   0  0  2  0  0  0  0  0  0  0  0  0
  180.3460  175.9740  137.0840 C   0  0  1  0  0  3  0  0  0  0  0  0
  184.5230  172.6370  137.0790 O   0  0  0  0  0  0  0  0  0  0  0  0
  183.8810  173.3820  136.3470 C   0  0  0  0  0  0  0  0  0  0  0  0
  180.9420  175.3200  139.5400 C   0  0  0  0  0  2  0  0  0  0  0  0
  179.8540  175.4500  140.5950 C   0  0  0  0  0  2  0  0  0  0  0  0
  179.2850  176.7610  140.5730 O   0  0  0  0  0  0  0  0  0  0  0  0
  179.7050  177.7880  141.4250 C   0  0  0  0  0  0  0  0  0  0  0  0
  179.3240  177.8290  142.6320 O   0  0  0  0  0  0  0  0  0  0  0  0
  180.5300  178.8060  140.9490 O   0  0  0  0  0  0  0  0  0  0  0  0
  180.0370  180.1260  140.8240 C   0  0  0  0  0  2  0  0  0  0  0  0
  179.0080  180.1840  139.7480 C   0  0  0  0  0  3  0  0  0  0  0  0
  179.0300  181.0510  138.7240 C   0  0  0  0  0  3  0  0  0  0  0  0
  180.0700  182.0070  138.4670 N   0  0  0  0  0  0  0  0  0  0  0  0
  179.6690  183.3660  138.1170 C   0  0  0  0  0  1  0  0  0  0  0  0
  181.4460  181.6250  138.1900 C   0  0  0  0  0  1  0  0  0  0  0  0
  2  8  1  0  0  0  0
  3  1  2  0  0  0  0
  3 32  1  0  0  0  0
  4 11  1  1  0  0  0
  5  6  1  0  0  0  0
  5 30  1  1  0  0  0
  6  4  1  0  0  0  0
  7  5  1  0  0  0  0
  8  7  1  6  0  0  0
  8  4  1  0  0  0  0
  8  1  1  0  0  0  0
  9  2  2  0  0  0  0
  9 10  1  0  0  0  0
 10  3  1  0  0  0  0
 11 12  2  1  0  0  0
 11 13  1  0  0  0  0
 11 14  1  0  0  0  0
 14 15  1  0  0  0  0
 15 17  2  0  0  0  0
 15 18  1  0  0  0  0
 15 16  2  0  0  0  0
 18 24  1  0  0  0  0
 19 28  1  1  0  0  0
 20 18  1  0  0  0  0
 20 21  2  0  0  0  0
 21 23  1  0  0  0  0
 22 25  1  0  0  0  0
 23 26  1  0  0  0  0
 24 23  2  0  0  0  0
 24 22  1  0  0  0  0
 25 19  1  0  0  0  0
 26 19  1  0  0  0  0
 28 27  1  0  0  0  0
 28 29  2  0  0  0  0
 31 30  2  0  0  0  0
 33 45  1  1  0  0  0
 35 32  1  1  0  0  0
 35 38  1  0  0  0  0
 36 34  1  0  0  0  0
 38 36  1  6  0  0  0
 39 44  1  0  0  0  0
 40 39  1  0  0  0  0
 40 37  1  0  0  0  0
 41 37  1  6  0  0  0
 41 42  1  0  0  0  0
 41 38  1  0  0  0  0
 41 33  1  0  0  0  0
 42 34  1  1  0  0  0
 42 33  1  0  0  0  0
 44 35  1  0  0  0  0
 44 43  2  0  0  0  0
 45 46  1  0  0  0  0
 47 46  1  0  0  0  0
 47 48  1  0  0  0  0
 48 49  2  0  0  0  0
 50 48  1  0  0  0  0
 51 50  1  0  0  0  0
 52 51  1  0  0  0  0
 53 52  2  0  0  0  0
 54 53  1  0  0  0  0
 55 54  1  0  0  0  0
 56 54  1  0  0  0  0
M  END
>  <MODEL>
4

>  <REMARK>
 VINA RESULT:      -6.9      1.770      2.260
  Name = 
  16 active torsions:
  status: ('A' for Active; 'I' for Inactive)
    1  A    between atoms: C_1  and  C_25
    2  A    between atoms: S_2  and  N_3
    3  A    between atoms: S_2  and  N_6
    4  A    between atoms: C_4  and  C_41
    5  A    between atoms: N_6  and  P_10
    6  A    between atoms: C_7  and  O_56
    7  A    between atoms: C_9  and  C_25
    8  A    between atoms: C_9  and  O_31
    9  A    between atoms: P_10  and  C_18
   10  A    between atoms: N_12  and  C_16
   11  A    between atoms: C_15  and  C_54
   12  A    between atoms: C_17  and  O_56
   13  A    between atoms: C_21  and  C_23
   14  A    between atoms: C_29  and  O_31
   15  A    between atoms: C_29  and  O_37
   16  A    between atoms: O_37  and  C_54
                            x       y       z     vdW  Elec       q    Type
                         _______ _______ _______ _____ _____    ______ ____

>  <TORSDO>
F 16

$$$$
=
 OpenBabel11062416553D

 56 62  0  0  1  0  0  0  0  0999 V2000
  181.6560  176.7260  138.3850 C   0  0  0  0  0  3  0  0  0  0  0  0
  179.9410  176.0970  140.0470 C   0  0  0  0  0  3  0  0  0  0  0  0
  181.7980  175.4550  137.9910 C   0  0  0  0  0  0  0  0  0  0  0  0
  180.5380  178.5430  139.8440 C   0  0  1  0  0  3  0  0  0  0  0  0
  179.4900  178.9220  137.6980 C   0  0  2  0  0  3  0  0  0  0  0  0
  179.7210  179.5560  139.0570 C   0  0  0  0  0  2  0  0  0  0  0  0
  179.3810  177.4360  138.0020 C   0  0  0  0  0  2  0  0  0  0  0  0
  180.4100  177.1820  139.1060 C   0  0  1  0  0  0  0  0  0  0  0  0
  180.1280  174.7980  139.7370 C   0  0  0  0  0  3  0  0  0  0  0  0
  180.7680  174.4250  138.4230 C   0  0  0  0  0  2  0  0  0  0  0  0
  182.2330  179.1880  140.1210 P   0  0  2  0  0  0  0  0  0  0  0  0
  182.3410  180.5910  139.5760 O   0  0  0  0  0  1  0  0  0  0  0  0
  183.3520  178.2020  139.3300 O   0  0  0  0  0  0  0  0  0  0  0  0
  182.5590  179.2010  141.8540 N   0  0  0  0  0  2  0  0  0  0  0  0
  184.1830  178.6330  142.1550 S   0  0  0  0  0  0  0  0  0  0  0  0
  185.1790  179.6770  141.6950 O   0  0  0  0  0  0  0  0  0  0  0  0
  184.4870  177.3580  141.4110 O   0  0  0  0  0  0  0  0  0  0  0  0
  184.3840  178.3430  143.8480 N   0  0  0  0  0  0  0  0  0  0  0  0
  187.9890  177.3760  145.9340 C   0  0  2  0  0  3  0  0  0  0  0  0
  183.6290  179.0580  144.8800 C   0  0  0  0  0  3  0  0  0  0  0  0
  184.4380  178.9540  146.0920 N   0  0  0  0  0  0  0  0  0  0  0  0
  186.7790  177.3650  143.7170 C   0  0  0  0  0  2  0  0  0  0  0  0
  185.6300  178.2730  145.7240 C   0  0  0  0  0  0  0  0  0  0  0  0
  185.6140  177.9730  144.4390 C   0  0  0  0  0  0  0  0  0  0  0  0
  188.0850  177.7090  144.4300 C   0  0  0  0  0  2  0  0  0  0  0  0
  186.8570  178.1860  146.5850 C   0  0  0  0  0  2  0  0  0  0  0  0
  189.3660  177.8420  148.0350 N   0  0  0  0  0  1  0  0  0  0  0  0
  189.3100  177.6310  146.6270 C   0  0  0  0  0  0  0  0  0  0  0  0
  190.7110  177.4230  145.8150 S   0  0  0  0  0  0  0  0  0  0  0  0
  180.6320  179.2250  136.7480 C   0  0  0  0  0  3  0  0  0  0  0  0
  180.5950  180.3210  135.9980 C   0  0  0  0  0  2  0  0  0  0  0  0
  182.7620  175.1720  137.0080 O   0  0  0  0  0  0  0  0  0  0  0  0
  186.3750  172.7170  134.8920 C   0  0  2  0  0  3  0  0  0  0  0  0
  186.4640  172.9350  137.4910 C   0  0  0  0  0  2  0  0  0  0  0  0
  183.0510  173.8490  136.5430 C   0  0  2  0  0  3  0  0  0  0  0  0
  185.1200  173.6310  137.6570 C   0  0  0  0  0  2  0  0  0  0  0  0
  184.1820  171.4090  134.9600 C   0  0  0  0  0  2  0  0  0  0  0  0
  184.5040  173.6900  136.3310 N   0  0  1  0  0  0  0  0  0  0  0  0
  181.8140  172.0510  135.1390 C   0  0  0  0  0  2  0  0  0  0  0  0
  182.8850  171.1130  135.6880 C   0  0  0  0  0  2  0  0  0  0  0  0
  185.0320  172.5110  135.6030 C   0  0  2  0  0  0  0  0  0  0  0  0
  186.2950  172.0240  136.2790 C   0  0  1  0  0  3  0  0  0  0  0  0
  181.7910  174.3610  134.5970 O   0  0  0  0  0  0  0  0  0  0  0  0
  182.2020  173.4870  135.3510 C   0  0  0  0  0  0  0  0  0  0  0  0
  186.8850  174.1600  134.8990 C   0  0  0  0  0  2  0  0  0  0  0  0
  188.4050  174.1910  134.9530 C   0  0  0  0  0  2  0  0  0  0  0  0
  188.8530  175.0090  136.0360 O   0  0  0  0  0  0  0  0  0  0  0  0
  188.3170  176.2720  136.3110 C   0  0  0  0  0  0  0  0  0  0  0  0
  188.1540  177.1240  135.3890 O   0  0  0  0  0  0  0  0  0  0  0  0
  187.9800  176.6250  137.6170 O   0  0  0  0  0  0  0  0  0  0  0  0
  188.9790  177.0510  138.5240 C   0  0  0  0  0  2  0  0  0  0  0  0
  188.3640  177.3690  139.8430 C   0  0  0  0  0  3  0  0  0  0  0  0
  189.0150  177.3140  141.0150 C   0  0  0  0  0  3  0  0  0  0  0  0
  190.4090  177.0070  141.1770 N   0  0  0  0  0  0  0  0  0  0  0  0
  190.8760  176.6720  142.5190 C   0  0  0  0  0  1  0  0  0  0  0  0
  191.4160  177.3510  140.1870 C   0  0  0  0  0  1  0  0  0  0  0  0
  1  8  1  0  0  0  0
  3  1  2  0  0  0  0
  3 10  1  0  0  0  0
  4 11  1  6  0  0  0
  5 30  1  6  0  0  0
  5  7  1  0  0  0  0
  5  6  1  0  0  0  0
  6  4  1  0  0  0  0
  8  7  1  6  0  0  0
  8  4  1  0  0  0  0
  8  2  1  0  0  0  0
  9  2  2  0  0  0  0
 10  9  1  0  0  0  0
 11 13  2  6  0  0  0
 11 14  1  0  0  0  0
 12 11  1  0  0  0  0
 14 15  1  0  0  0  0
 15 18  1  0  0  0  0
 16 15  2  0  0  0  0
 17 15  2  0  0  0  0
 18 24  1  0  0  0  0
 18 20  1  0  0  0  0
 19 26  1  0  0  0  0
 19 28  1  1  0  0  0
 20 21  2  0  0  0  0
 22 25  1  0  0  0  0
 22 24  1  0  0  0  0
 23 21  1  0  0  0  0
 23 26  1  0  0  0  0
 24 23  2  0  0  0  0
 25 19  1  0  0  0  0
 28 27  1  0  0  0  0
 29 28  2  0  0  0  0
 31 30  2  0  0  0  0
 32  3  1  0  0  0  0
 33 45  1  1  0  0  0
 33 41  1  0  0  0  0
 33 42  1  0  0  0  0
 34 36  1  0  0  0  0
 35 32  1  6  0  0  0
 37 40  1  0  0  0  0
 38 35  1  0  0  0  0
 38 36  1  1  0  0  0
 39 44  1  0  0  0  0
 39 40  1  0  0  0  0
 41 37  1  6  0  0  0
 41 42  1  0  0  0  0
 41 38  1  0  0  0  0
 42 34  1  1  0  0  0
 43 44  2  0  0  0  0
 44 35  1  0  0  0  0
 45 46  1  0  0  0  0
 46 47  1  0  0  0  0
 47 48  1  0  0  0  0
 48 50  1  0  0  0  0
 49 48  2  0  0  0  0
 50 51  1  0  0  0  0
 51 52  1  0  0  0  0
 52 53  2  0  0  0  0
 53 54  1  0  0  0  0
 54 55  1  0  0  0  0
 56 54  1  0  0  0  0
M  END
>  <MODEL>
5

>  <REMARK>
 VINA RESULT:      -6.7      2.648      7.177
  Name = 
  16 active torsions:
  status: ('A' for Active; 'I' for Inactive)
    1  A    between atoms: C_1  and  C_25
    2  A    between atoms: S_2  and  N_3
    3  A    between atoms: S_2  and  N_6
    4  A    between atoms: C_4  and  C_41
    5  A    between atoms: N_6  and  P_10
    6  A    between atoms: C_7  and  O_56
    7  A    between atoms: C_9  and  C_25
    8  A    between atoms: C_9  and  O_31
    9  A    between atoms: P_10  and  C_18
   10  A    between atoms: N_12  and  C_16
   11  A    between atoms: C_15  and  C_54
   12  A    between atoms: C_17  and  O_56
   13  A    between atoms: C_21  and  C_23
   14  A    between atoms: C_29  and  O_31
   15  A    between atoms: C_29  and  O_37
   16  A    between atoms: O_37  and  C_54
                            x       y       z     vdW  Elec       q    Type
                         _______ _______ _______ _____ _____    ______ ____

>  <TORSDO>
F 16

$$$$
=
 OpenBabel11062416553D

 56 62  0  0  1  0  0  0  0  0999 V2000
  187.8640  176.0770  136.7480 C   0  0  0  0  0  3  0  0  0  0  0  0
  188.2750  177.8290  135.0560 C   0  0  0  0  0  3  0  0  0  0  0  0
  186.5390  176.2520  136.6660 C   0  0  0  0  0  0  0  0  0  0  0  0
  190.2800  176.6300  136.0160 C   0  0  1  0  0  3  0  0  0  0  0  0
  189.9070  174.5090  134.9170 C   0  0  2  0  0  3  0  0  0  0  0  0
  190.9980  175.4810  135.3240 C   0  0  0  0  0  2  0  0  0  0  0  0
  188.7210  175.4050  134.5940 C   0  0  0  0  0  2  0  0  0  0  0  0
  188.7790  176.5260  135.6340 C   0  0  1  0  0  0  0  0  0  0  0  0
  186.9530  178.0930  135.0190 C   0  0  0  0  0  3  0  0  0  0  0  0
  185.9690  177.0630  135.5140 C   0  0  0  0  0  2  0  0  0  0  0  0
  190.6890  176.6330  137.8050 P   0  0  2  0  0  0  0  0  0  0  0  0
  192.1790  176.7920  137.9880 O   0  0  0  0  0  0  0  0  0  0  0  0
  190.2000  175.1750  138.5020 O   0  0  0  0  0  1  0  0  0  0  0  0
  189.8530  177.9810  138.5760 N   0  0  0  0  0  2  0  0  0  0  0  0
  189.2710  177.4940  140.1490 S   0  0  0  0  0  0  0  0  0  0  0  0
  188.9840  176.0070  140.1450 O   0  0  0  0  0  0  0  0  0  0  0  0
  187.9950  178.2000  140.5280 O   0  0  0  0  0  0  0  0  0  0  0  0
  190.4720  177.8510  141.3410 N   0  0  0  0  0  0  0  0  0  0  0  0
  190.0480  177.7840  145.5960 C   0  0  2  0  0  3  0  0  0  0  0  0
  191.8880  177.5110  141.1800 C   0  0  0  0  0  3  0  0  0  0  0  0
  192.4280  177.4550  142.5370 N   0  0  0  0  0  0  0  0  0  0  0  0
  188.8690  177.9900  143.3710 C   0  0  0  0  0  2  0  0  0  0  0  0
  191.3340  177.6800  143.4160 C   0  0  0  0  0  0  0  0  0  0  0  0
  190.2200  177.8550  142.7320 C   0  0  0  0  0  0  0  0  0  0  0  0
  188.8570  177.3070  144.7380 C   0  0  0  0  0  2  0  0  0  0  0  0
  191.3740  177.4430  144.8980 C   0  0  0  0  0  2  0  0  0  0  0  0
  188.8620  177.3960  147.8240 N   0  0  0  0  0  1  0  0  0  0  0  0
  189.9900  177.1790  146.9810 C   0  0  0  0  0  0  0  0  0  0  0  0
  191.0990  176.0700  147.4350 S   0  0  0  0  0  0  0  0  0  0  0  0
  189.5940  173.5340  136.0350 C   0  0  0  0  0  3  0  0  0  0  0  0
  188.3760  173.0110  136.1320 C   0  0  0  0  0  2  0  0  0  0  0  0
  185.7190  175.4900  137.5140 O   0  0  0  0  0  0  0  0  0  0  0  0
  181.0340  175.3550  138.7770 C   0  0  2  0  0  3  0  0  0  0  0  0
  181.7840  177.3300  137.2440 C   0  0  0  0  0  2  0  0  0  0  0  0
  184.4950  174.8790  137.0890 C   0  0  2  0  0  3  0  0  0  0  0  0
  183.2190  176.8630  137.0440 C   0  0  0  0  0  2  0  0  0  0  0  0
  181.6470  173.6050  137.0200 C   0  0  0  0  0  2  0  0  0  0  0  0
  183.3420  175.5650  137.7060 N   0  0  1  0  0  0  0  0  0  0  0  0
  183.7470  172.5000  136.3680 C   0  0  0  0  0  2  0  0  0  0  0  0
  182.5120  173.2230  135.8350 C   0  0  0  0  0  2  0  0  0  0  0  0
  181.9880  174.9640  137.6420 C   0  0  2  0  0  0  0  0  0  0  0  0
  180.9660  176.0510  137.3910 C   0  0  1  0  0  3  0  0  0  0  0  0
  185.2110  172.9020  138.1920 O   0  0  0  0  0  0  0  0  0  0  0  0
  184.5220  173.3860  137.3020 C   0  0  0  0  0  0  0  0  0  0  0  0
  181.6790  176.1720  139.8990 C   0  0  0  0  0  2  0  0  0  0  0  0
  180.7350  177.2650  140.3780 C   0  0  0  0  0  2  0  0  0  0  0  0
  181.4690  178.3560  140.9370 O   0  0  0  0  0  0  0  0  0  0  0  0
  182.6470  178.8530  140.3710 C   0  0  0  0  0  0  0  0  0  0  0  0
  182.6140  179.7720  139.5010 O   0  0  0  0  0  0  0  0  0  0  0  0
  183.8830  178.3210  140.7350 O   0  0  0  0  0  0  0  0  0  0  0  0
  184.6510  178.9280  141.7560 C   0  0  0  0  0  2  0  0  0  0  0  0
  185.3930  177.8870  142.5220 C   0  0  0  0  0  3  0  0  0  0  0  0
  185.4740  177.8450  143.8600 C   0  0  0  0  0  3  0  0  0  0  0  0
  184.8150  178.7480  144.7620 N   0  0  0  0  0  0  0  0  0  0  0  0
  185.6000  179.2990  145.8610 C   0  0  0  0  0  1  0  0  0  0  0  0
  183.3680  178.8580  144.8540 C   0  0  0  0  0  1  0  0  0  0  0  0
  2  8  1  0  0  0  0
  3  1  2  0  0  0  0
  3 32  1  0  0  0  0
  4 11  1  1  0  0  0
  5  6  1  0  0  0  0
  5 30  1  1  0  0  0
  6  4  1  0  0  0  0
  7  5  1  0  0  0  0
  8  7  1  6  0  0  0
  8  4  1  0  0  0  0
  8  1  1  0  0  0  0
  9  2  2  0  0  0  0
  9 10  1  0  0  0  0
 10  3  1  0  0  0  0
 11 12  2  1  0  0  0
 11 13  1  0  0  0  0
 11 14  1  0  0  0  0
 14 15  1  0  0  0  0
 15 17  2  0  0  0  0
 15 18  1  0  0  0  0
 16 15  2  0  0  0  0
 18 24  1  0  0  0  0
 19 28  1  1  0  0  0
 20 18  1  0  0  0  0
 20 21  2  0  0  0  0
 21 23  1  0  0  0  0
 22 25  1  0  0  0  0
 23 26  1  0  0  0  0
 24 22  1  0  0  0  0
 24 23  2  0  0  0  0
 25 19  1  0  0  0  0
 26 19  1  0  0  0  0
 28 29  2  0  0  0  0
 28 27  1  0  0  0  0
 30 31  2  0  0  0  0
 33 45  1  1  0  0  0
 35 44  1  0  0  0  0
 35 32  1  1  0  0  0
 35 38  1  0  0  0  0
 36 34  1  0  0  0  0
 38 36  1  6  0  0  0
 39 44  1  0  0  0  0
 40 39  1  0  0  0  0
 40 37  1  0  0  0  0
 41 37  1  6  0  0  0
 41 38  1  0  0  0  0
 41 33  1  0  0  0  0
 42 34  1  1  0  0  0
 42 41  1  0  0  0  0
 42 33  1  0  0  0  0
 44 43  2  0  0  0  0
 45 46  1  0  0  0  0
 46 47  1  0  0  0  0
 48 50  1  0  0  0  0
 48 47  1  0  0  0  0
 49 48  2  0  0  0  0
 50 51  1  0  0  0  0
 51 52  1  0  0  0  0
 52 53  2  0  0  0  0
 53 54  1  0  0  0  0
 54 56  1  0  0  0  0
 54 55  1  0  0  0  0
M  END
>  <MODEL>
6

>  <REMARK>
 VINA RESULT:      -6.5      1.630      2.421
  Name = 
  16 active torsions:
  status: ('A' for Active; 'I' for Inactive)
    1  A    between atoms: C_1  and  C_25
    2  A    between atoms: S_2  and  N_3
    3  A    between atoms: S_2  and  N_6
    4  A    between atoms: C_4  and  C_41
    5  A    between atoms: N_6  and  P_10
    6  A    between atoms: C_7  and  O_56
    7  A    between atoms: C_9  and  C_25
    8  A    between atoms: C_9  and  O_31
    9  A    between atoms: P_10  and  C_18
   10  A    between atoms: N_12  and  C_16
   11  A    between atoms: C_15  and  C_54
   12  A    between atoms: C_17  and  O_56
   13  A    between atoms: C_21  and  C_23
   14  A    between atoms: C_29  and  O_31
   15  A    between atoms: C_29  and  O_37
   16  A    between atoms: O_37  and  C_54
                            x       y       z     vdW  Elec       q    Type
                         _______ _______ _______ _____ _____    ______ ____

>  <TORSDO>
F 16

$$$$
=
 OpenBabel11062416553D

 56 62  0  0  1  0  0  0  0  0999 V2000
  187.7700  176.0630  136.6340 C   0  0  0  0  0  3  0  0  0  0  0  0
  188.2770  177.6450  134.8060 C   0  0  0  0  0  3  0  0  0  0  0  0
  186.4520  176.2310  136.4680 C   0  0  0  0  0  0  0  0  0  0  0  0
  190.2240  176.5400  135.9760 C   0  0  1  0  0  3  0  0  0  0  0  0
  189.8930  174.3250  135.0660 C   0  0  2  0  0  3  0  0  0  0  0  0
  190.9680  175.3300  135.4340 C   0  0  0  0  0  2  0  0  0  0  0  0
  188.7300  175.1880  134.5990 C   0  0  0  0  0  2  0  0  0  0  0  0
  188.7420  176.4030  135.5300 C   0  0  1  0  0  0  0  0  0  0  0  0
  186.9600  177.9060  134.6770 C   0  0  0  0  0  3  0  0  0  0  0  0
  185.9460  176.9290  135.2170 C   0  0  0  0  0  2  0  0  0  0  0  0
  190.5420  176.7140  137.7750 P   0  0  2  0  0  0  0  0  0  0  0  0
  192.0250  176.8510  138.0200 O   0  0  0  0  0  0  0  0  0  0  0  0
  189.9730  175.3470  138.5860 O   0  0  0  0  0  1  0  0  0  0  0  0
  189.7110  178.1530  138.3630 N   0  0  0  0  0  2  0  0  0  0  0  0
  188.9790  177.8230  139.9140 S   0  0  0  0  0  0  0  0  0  0  0  0
  188.4310  176.4110  139.9240 O   0  0  0  0  0  0  0  0  0  0  0  0
  187.8350  178.7550  140.2140 O   0  0  0  0  0  0  0  0  0  0  0  0
  190.1690  177.9930  141.1570 N   0  0  0  0  0  0  0  0  0  0  0  0
  189.5840  177.8280  145.3900 C   0  0  2  0  0  3  0  0  0  0  0  0
  191.5410  177.4940  141.0290 C   0  0  0  0  0  3  0  0  0  0  0  0
  192.0200  177.3270  142.4000 N   0  0  0  0  0  0  0  0  0  0  0  0
  188.5200  178.2500  143.1370 C   0  0  0  0  0  2  0  0  0  0  0  0
  190.9280  177.6490  143.2500 C   0  0  0  0  0  0  0  0  0  0  0  0
  189.8680  177.9790  142.5380 C   0  0  0  0  0  0  0  0  0  0  0  0
  188.3780  177.5250  144.4760 C   0  0  0  0  0  2  0  0  0  0  0  0
  190.8860  177.3570  144.7230 C   0  0  0  0  0  2  0  0  0  0  0  0
  188.1180  177.1180  147.3580 N   0  0  0  0  0  1  0  0  0  0  0  0
  189.4040  177.1860  146.7480 C   0  0  0  0  0  0  0  0  0  0  0  0
  190.6300  176.3440  147.4220 S   0  0  0  0  0  0  0  0  0  0  0  0
  189.5180  173.4610  136.2540 C   0  0  0  0  0  3  0  0  0  0  0  0
  188.5120  172.5980  136.1510 C   0  0  0  0  0  2  0  0  0  0  0  0
  185.5860  175.5540  137.3420 O   0  0  0  0  0  0  0  0  0  0  0  0
  180.9840  174.2830  138.2190 C   0  0  2  0  0  3  0  0  0  0  0  0
  181.3670  176.2010  136.4910 C   0  0  0  0  0  2  0  0  0  0  0  0
  184.6230  174.5870  136.9080 C   0  0  2  0  0  3  0  0  0  0  0  0
  182.8870  176.1260  136.4780 C   0  0  0  0  0  2  0  0  0  0  0  0
  182.2360  172.5810  136.7830 C   0  0  0  0  0  2  0  0  0  0  0  0
  183.2670  174.9950  137.3250 N   0  0  1  0  0  0  0  0  0  0  0  0
  184.6130  172.0280  136.4700 C   0  0  0  0  0  2  0  0  0  0  0  0
  183.3040  172.3190  135.7400 C   0  0  0  0  0  2  0  0  0  0  0  0
  182.1340  174.0430  137.2330 C   0  0  2  0  0  0  0  0  0  0  0  0
  180.9000  174.7710  136.7480 C   0  0  1  0  0  3  0  0  0  0  0  0
  185.6950  173.0200  138.3340 O   0  0  0  0  0  0  0  0  0  0  0  0
  185.0140  173.1930  137.3300 C   0  0  0  0  0  0  0  0  0  0  0  0
  181.2560  175.3670  139.2640 C   0  0  0  0  0  2  0  0  0  0  0  0
  180.1540  175.3900  140.3130 C   0  0  0  0  0  2  0  0  0  0  0  0
  179.9030  176.7280  140.7500 O   0  0  0  0  0  0  0  0  0  0  0  0
  180.1850  177.8520  139.9670 C   0  0  0  0  0  0  0  0  0  0  0  0
  179.3950  178.2210  139.0490 O   0  0  0  0  0  0  0  0  0  0  0  0
  181.3630  178.5710  140.1650 O   0  0  0  0  0  0  0  0  0  0  0  0
  182.2240  178.8480  139.0770 C   0  0  0  0  0  2  0  0  0  0  0  0
  182.5660  180.2980  139.0560 C   0  0  0  0  0  3  0  0  0  0  0  0
  181.8690  181.2310  138.3900 C   0  0  0  0  0  3  0  0  0  0  0  0
  180.6600  180.9960  137.6520 N   0  0  0  0  0  0  0  0  0  0  0  0
  180.7820  180.3990  136.3260 C   0  0  0  0  0  1  0  0  0  0  0  0
  179.3940  181.6280  137.9850 C   0  0  0  0  0  1  0  0  0  0  0  0
  2  8  1  0  0  0  0
  3  1  2  0  0  0  0
  3 32  1  0  0  0  0
  4 11  1  1  0  0  0
  5  6  1  0  0  0  0
  5 30  1  1  0  0  0
  6  4  1  0  0  0  0
  7  5  1  0  0  0  0
  8  7  1  6  0  0  0
  8  4  1  0  0  0  0
  8  1  1  0  0  0  0
  9  2  2  0  0  0  0
  9 10  1  0  0  0  0
 10  3  1  0  0  0  0
 11 12  2  1  0  0  0
 11 14  1  0  0  0  0
 11 13  1  0  0  0  0
 14 15  1  0  0  0  0
 15 16  2  0  0  0  0
 15 17  2  0  0  0  0
 15 18  1  0  0  0  0
 18 24  1  0  0  0  0
 19 28  1  1  0  0  0
 20 18  1  0  0  0  0
 20 21  2  0  0  0  0
 21 23  1  0  0  0  0
 22 25  1  0  0  0  0
 23 26  1  0  0  0  0
 24 22  1  0  0  0  0
 24 23  2  0  0  0  0
 25 19  1  0  0  0  0
 26 19  1  0  0  0  0
 28 27  1  0  0  0  0
 28 29  2  0  0  0  0
 31 30  2  0  0  0  0
 33 45  1  1  0  0  0
 35 38  1  0  0  0  0
 35 44  1  0  0  0  0
 35 32  1  1  0  0  0
 36 34  1  0  0  0  0
 38 36  1  6  0  0  0
 39 44  1  0  0  0  0
 40 39  1  0  0  0  0
 40 37  1  0  0  0  0
 41 37  1  6  0  0  0
 41 38  1  0  0  0  0
 41 33  1  0  0  0  0
 42 34  1  1  0  0  0
 42 41  1  0  0  0  0
 42 33  1  0  0  0  0
 44 43  2  0  0  0  0
 45 46  1  0  0  0  0
 46 47  1  0  0  0  0
 48 50  1  0  0  0  0
 48 47  1  0  0  0  0
 49 48  2  0  0  0  0
 51 50  1  0  0  0  0
 52 51  1  0  0  0  0
 53 52  2  0  0  0  0
 54 56  1  0  0  0  0
 54 53  1  0  0  0  0
 55 54  1  0  0  0  0
M  END
>  <MODEL>
7

>  <REMARK>
 VINA RESULT:      -6.5      1.831      2.561
  Name = 
  16 active torsions:
  status: ('A' for Active; 'I' for Inactive)
    1  A    between atoms: C_1  and  C_25
    2  A    between atoms: S_2  and  N_3
    3  A    between atoms: S_2  and  N_6
    4  A    between atoms: C_4  and  C_41
    5  A    between atoms: N_6  and  P_10
    6  A    between atoms: C_7  and  O_56
    7  A    between atoms: C_9  and  C_25
    8  A    between atoms: C_9  and  O_31
    9  A    between atoms: P_10  and  C_18
   10  A    between atoms: N_12  and  C_16
   11  A    between atoms: C_15  and  C_54
   12  A    between atoms: C_17  and  O_56
   13  A    between atoms: C_21  and  C_23
   14  A    between atoms: C_29  and  O_31
   15  A    between atoms: C_29  and  O_37
   16  A    between atoms: O_37  and  C_54
                            x       y       z     vdW  Elec       q    Type
                         _______ _______ _______ _____ _____    ______ ____

>  <TORSDO>
F 16

$$$$
=
 OpenBabel11062416553D

 56 62  0  0  1  0  0  0  0  0999 V2000
  185.7860  176.5430  136.6650 C   0  0  0  0  0  3  0  0  0  0  0  0
  185.9420  178.2430  134.8800 C   0  0  0  0  0  3  0  0  0  0  0  0
  184.5140  176.2690  136.3490 C   0  0  0  0  0  0  0  0  0  0  0  0
  188.0000  177.8180  136.2810 C   0  0  1  0  0  3  0  0  0  0  0  0
  188.5260  175.6380  135.3760 C   0  0  2  0  0  3  0  0  0  0  0  0
  189.1590  176.9350  135.8460 C   0  0  0  0  0  2  0  0  0  0  0  0
  187.2030  176.0790  134.7670 C   0  0  0  0  0  2  0  0  0  0  0  0
  186.7080  177.2090  135.6720 C   0  0  1  0  0  0  0  0  0  0  0  0
  184.6360  178.0560  134.5990 C   0  0  0  0  0  3  0  0  0  0  0  0
  183.9480  176.7870  135.0370 C   0  0  0  0  0  2  0  0  0  0  0  0
  188.0400  178.0480  138.1000 P   0  0  2  0  0  0  0  0  0  0  0  0
  186.6480  178.3390  138.6090 O   0  0  0  0  0  1  0  0  0  0  0  0
  189.0500  179.3440  138.4880 O   0  0  0  0  0  0  0  0  0  0  0  0
  188.6430  176.5690  138.8470 N   0  0  0  0  0  2  0  0  0  0  0  0
  190.3820  176.6430  138.9880 S   0  0  0  0  0  0  0  0  0  0  0  0
  190.9540  177.4020  137.8090 O   0  0  0  0  0  0  0  0  0  0  0  0
  191.0120  175.2750  138.9950 O   0  0  0  0  0  0  0  0  0  0  0  0
  190.8040  177.4510  140.4580 N   0  0  0  0  0  0  0  0  0  0  0  0
  188.5040  177.7320  144.0520 C   0  0  2  0  0  3  0  0  0  0  0  0
  192.1730  177.5060  140.9790 C   0  0  0  0  0  3  0  0  0  0  0  0
  192.0310  177.7520  142.4120 N   0  0  0  0  0  0  0  0  0  0  0  0
  188.4600  177.3550  141.5540 C   0  0  0  0  0  2  0  0  0  0  0  0
  190.6360  177.7560  142.6840 C   0  0  0  0  0  0  0  0  0  0  0  0
  189.9480  177.5360  141.5800 C   0  0  0  0  0  0  0  0  0  0  0  0
  187.9620  176.8490  142.9080 C   0  0  0  0  0  2  0  0  0  0  0  0
  190.0410  177.7030  144.0620 C   0  0  0  0  0  2  0  0  0  0  0  0
  188.8030  176.8330  146.4250 N   0  0  0  0  0  1  0  0  0  0  0  0
  187.9420  177.2900  145.3850 C   0  0  0  0  0  0  0  0  0  0  0  0
  186.3710  177.5620  145.7390 S   0  0  0  0  0  0  0  0  0  0  0  0
  188.3270  174.6740  136.5280 C   0  0  0  0  0  3  0  0  0  0  0  0
  189.0340  173.5500  136.5770 C   0  0  0  0  0  2  0  0  0  0  0  0
  183.8280  175.3250  137.1310 O   0  0  0  0  0  0  0  0  0  0  0  0
  179.8290  172.5780  137.2850 C   0  0  2  0  0  3  0  0  0  0  0  0
  179.8890  174.4720  135.4890 C   0  0  0  0  0  2  0  0  0  0  0  0
  183.3460  174.0780  136.6190 C   0  0  2  0  0  3  0  0  0  0  0  0
  181.3190  174.9210  135.7530 C   0  0  0  0  0  2  0  0  0  0  0  0
  181.8300  171.3740  136.2500 C   0  0  0  0  0  2  0  0  0  0  0  0
  181.8760  174.0070  136.7500 N   0  0  1  0  0  0  0  0  0  0  0  0
  184.2690  171.6600  136.4140 C   0  0  0  0  0  2  0  0  0  0  0  0
  183.1080  171.4690  135.4400 C   0  0  0  0  0  2  0  0  0  0  0  0
  181.1640  172.7230  136.5440 C   0  0  2  0  0  0  0  0  0  0  0  0
  179.8800  172.9750  135.7840 C   0  0  1  0  0  3  0  0  0  0  0  0
  184.5720  173.0040  138.3460 O   0  0  0  0  0  0  0  0  0  0  0  0
  184.0840  172.9110  137.2260 C   0  0  0  0  0  0  0  0  0  0  0  0
  179.5150  173.7140  138.2610 C   0  0  0  0  0  2  0  0  0  0  0  0
  179.9470  173.3420  139.6720 C   0  0  0  0  0  2  0  0  0  0  0  0
  180.0650  174.5110  140.4870 O   0  0  0  0  0  0  0  0  0  0  0  0
  180.7280  175.6690  140.0690 C   0  0  0  0  0  0  0  0  0  0  0  0
  181.9740  175.6600  139.8470 O   0  0  0  0  0  0  0  0  0  0  0  0
  180.0300  176.8660  139.9190 O   0  0  0  0  0  0  0  0  0  0  0  0
  180.7190  178.0610  139.6060 C   0  0  0  0  0  2  0  0  0  0  0  0
  180.7300  178.2700  138.1310 C   0  0  0  0  0  3  0  0  0  0  0  0
  181.2600  179.3400  137.5210 C   0  0  0  0  0  3  0  0  0  0  0  0
  181.9520  180.4140  138.1790 N   0  0  0  0  0  0  0  0  0  0  0  0
  183.1130  180.0720  138.9930 C   0  0  0  0  0  1  0  0  0  0  0  0
  181.3680  181.7320  138.3680 C   0  0  0  0  0  1  0  0  0  0  0  0
  2  8  1  0  0  0  0
  3  1  2  0  0  0  0
  3 32  1  0  0  0  0
  4 11  1  1  0  0  0
  5  6  1  0  0  0  0
  5 30  1  1  0  0  0
  6  4  1  0  0  0  0
  7  5  1  0  0  0  0
  8  7  1  6  0  0  0
  8  4  1  0  0  0  0
  8  1  1  0  0  0  0
  9  2  2  0  0  0  0
  9 10  1  0  0  0  0
 10  3  1  0  0  0  0
 11 13  2  1  0  0  0
 11 12  1  0  0  0  0
 11 14  1  0  0  0  0
 14 15  1  0  0  0  0
 15 17  2  0  0  0  0
 15 18  1  0  0  0  0
 16 15  2  0  0  0  0
 18 20  1  0  0  0  0
 18 24  1  0  0  0  0
 19 26  1  0  0  0  0
 19 28  1  1  0  0  0
 20 21  2  0  0  0  0
 21 23  1  0  0  0  0
 22 24  1  0  0  0  0
 22 25  1  0  0  0  0
 23 26  1  0  0  0  0
 24 23  2  0  0  0  0
 25 19  1  0  0  0  0
 28 29  2  0  0  0  0
 28 27  1  0  0  0  0
 30 31  2  0  0  0  0
 33 45  1  1  0  0  0
 34 36  1  0  0  0  0
 35 38  1  0  0  0  0
 35 32  1  1  0  0  0
 35 44  1  0  0  0  0
 38 36  1  6  0  0  0
 39 44  1  0  0  0  0
 40 37  1  0  0  0  0
 40 39  1  0  0  0  0
 41 37  1  6  0  0  0
 41 38  1  0  0  0  0
 41 33  1  0  0  0  0
 42 34  1  1  0  0  0
 42 41  1  0  0  0  0
 42 33  1  0  0  0  0
 44 43  2  0  0  0  0
 45 46  1  0  0  0  0
 46 47  1  0  0  0  0
 48 47  1  0  0  0  0
 49 48  2  0  0  0  0
 50 48  1  0  0  0  0
 51 50  1  0  0  0  0
 52 51  1  0  0  0  0
 53 52  2  0  0  0  0
 53 54  1  0  0  0  0
 54 56  1  0  0  0  0
 54 55  1  0  0  0  0
M  END
>  <MODEL>
8

>  <REMARK>
 VINA RESULT:      -5.9      2.124      3.038
  Name = 
  16 active torsions:
  status: ('A' for Active; 'I' for Inactive)
    1  A    between atoms: C_1  and  C_25
    2  A    between atoms: S_2  and  N_3
    3  A    between atoms: S_2  and  N_6
    4  A    between atoms: C_4  and  C_41
    5  A    between atoms: N_6  and  P_10
    6  A    between atoms: C_7  and  O_56
    7  A    between atoms: C_9  and  C_25
    8  A    between atoms: C_9  and  O_31
    9  A    between atoms: P_10  and  C_18
   10  A    between atoms: N_12  and  C_16
   11  A    between atoms: C_15  and  C_54
   12  A    between atoms: C_17  and  O_56
   13  A    between atoms: C_21  and  C_23
   14  A    between atoms: C_29  and  O_31
   15  A    between atoms: C_29  and  O_37
   16  A    between atoms: O_37  and  C_54
                            x       y       z     vdW  Elec       q    Type
                         _______ _______ _______ _____ _____    ______ ____

>  <TORSDO>
F 16

$$$$
=
 OpenBabel11062416553D

 56 62  0  0  1  0  0  0  0  0999 V2000
  188.0670  176.1520  136.6830 C   0  0  0  0  0  3  0  0  0  0  0  0
  188.4630  178.2630  135.4630 C   0  0  0  0  0  3  0  0  0  0  0  0
  186.7530  176.2080  136.4330 C   0  0  0  0  0  0  0  0  0  0  0  0
  190.4650  177.0900  136.4590 C   0  0  1  0  0  3  0  0  0  0  0  0
  190.5180  175.2340  134.9110 C   0  0  2  0  0  3  0  0  0  0  0  0
  191.4100  176.1990  135.6690 C   0  0  0  0  0  2  0  0  0  0  0  0
  189.2770  176.0560  134.5960 C   0  0  0  0  0  2  0  0  0  0  0  0
  189.0520  176.9230  135.8360 C   0  0  1  0  0  0  0  0  0  0  0  0
  187.1340  178.3950  135.2760 C   0  0  0  0  0  3  0  0  0  0  0  0
  186.2360  177.1890  135.3950 C   0  0  0  0  0  2  0  0  0  0  0  0
  190.6340  176.7440  138.2530 P   0  0  2  0  0  0  0  0  0  0  0  0
  192.0920  176.5620  138.6030 O   0  0  0  0  0  0  0  0  0  0  0  0
  189.7940  175.3320  138.6410 O   0  0  0  0  0  1  0  0  0  0  0  0
  189.9760  178.1060  139.1590 N   0  0  0  0  0  2  0  0  0  0  0  0
  189.2350  177.5330  140.6330 S   0  0  0  0  0  0  0  0  0  0  0  0
  189.0280  176.0360  140.5480 O   0  0  0  0  0  0  0  0  0  0  0  0
  187.8880  178.1630  140.8760 O   0  0  0  0  0  0  0  0  0  0  0  0
  190.2650  177.9020  141.9730 N   0  0  0  0  0  0  0  0  0  0  0  0
  189.2690  177.8800  146.1320 C   0  0  2  0  0  3  0  0  0  0  0  0
  191.6890  177.5600  142.0090 C   0  0  0  0  0  3  0  0  0  0  0  0
  192.0400  177.5170  143.4270 N   0  0  0  0  0  0  0  0  0  0  0  0
  188.4020  178.0640  143.7650 C   0  0  0  0  0  2  0  0  0  0  0  0
  190.8370  177.7530  144.1470 C   0  0  0  0  0  0  0  0  0  0  0  0
  189.8260  177.9220  143.3170 C   0  0  0  0  0  0  0  0  0  0  0  0
  188.2040  177.3950  145.1250 C   0  0  0  0  0  2  0  0  0  0  0  0
  190.6760  177.5310  145.6230 C   0  0  0  0  0  2  0  0  0  0  0  0
  189.8740  176.2750  148.0240 N   0  0  0  0  0  1  0  0  0  0  0  0
  189.0220  177.2910  147.5020 C   0  0  0  0  0  0  0  0  0  0  0  0
  187.9300  177.9790  148.5020 S   0  0  0  0  0  0  0  0  0  0  0  0
  190.1920  174.0120  135.7470 C   0  0  0  0  0  3  0  0  0  0  0  0
  191.0960  173.0480  135.8870 C   0  0  0  0  0  2  0  0  0  0  0  0
  185.9360  175.2000  136.9730 O   0  0  0  0  0  0  0  0  0  0  0  0
  181.8180  172.7810  136.1050 C   0  0  2  0  0  3  0  0  0  0  0  0
  182.2890  174.8770  134.6220 C   0  0  0  0  0  2  0  0  0  0  0  0
  185.4770  174.0700  136.2240 C   0  0  2  0  0  3  0  0  0  0  0  0
  183.6770  175.1740  135.1700 C   0  0  0  0  0  2  0  0  0  0  0  0
  183.8940  171.5640  135.2470 C   0  0  0  0  0  2  0  0  0  0  0  0
  184.0050  174.1000  136.1080 N   0  0  1  0  0  0  0  0  0  0  0  0
  186.2820  171.6330  135.8370 C   0  0  0  0  0  2  0  0  0  0  0  0
  185.2940  171.6600  134.6730 C   0  0  0  0  0  2  0  0  0  0  0  0
  183.2660  172.9130  135.6150 C   0  0  2  0  0  0  0  0  0  0  0  0
  182.1440  173.3600  134.7020 C   0  0  1  0  0  3  0  0  0  0  0  0
  186.3300  172.6920  137.9590 O   0  0  0  0  0  0  0  0  0  0  0  0
  186.0340  172.7810  136.7740 C   0  0  0  0  0  0  0  0  0  0  0  0
  181.4100  173.8050  137.1670 C   0  0  0  0  0  2  0  0  0  0  0  0
  179.9320  173.6690  137.5020 C   0  0  0  0  0  2  0  0  0  0  0  0
  179.7580  173.2750  138.8650 O   0  0  0  0  0  0  0  0  0  0  0  0
  179.6740  174.1900  139.9190 C   0  0  0  0  0  0  0  0  0  0  0  0
  179.6540  173.7970  141.1220 O   0  0  0  0  0  0  0  0  0  0  0  0
  179.5790  175.5570  139.6600 O   0  0  0  0  0  0  0  0  0  0  0  0
  180.5070  176.4590  140.2320 C   0  0  0  0  0  2  0  0  0  0  0  0
  181.8710  176.1910  139.6970 C   0  0  0  0  0  3  0  0  0  0  0  0
  182.8460  177.1080  139.6140 C   0  0  0  0  0  3  0  0  0  0  0  0
  182.7540  178.4640  140.0800 N   0  0  0  0  0  0  0  0  0  0  0  0
  182.9420  178.7020  141.5070 C   0  0  0  0  0  1  0  0  0  0  0  0
  182.1460  179.5290  139.2990 C   0  0  0  0  0  1  0  0  0  0  0  0
  2  8  1  0  0  0  0
  3  1  2  0  0  0  0
  3 32  1  0  0  0  0
  4 11  1  1  0  0  0
  5  6  1  0  0  0  0
  5 30  1  1  0  0  0
  6  4  1  0  0  0  0
  7  5  1  0  0  0  0
  8  7  1  6  0  0  0
  8  4  1  0  0  0  0
  8  1  1  0  0  0  0
  9 10  1  0  0  0  0
  9  2  2  0  0  0  0
 10  3  1  0  0  0  0
 11 12  2  1  0  0  0
 11 13  1  0  0  0  0
 11 14  1  0  0  0  0
 14 15  1  0  0  0  0
 15 17  2  0  0  0  0
 15 18  1  0  0  0  0
 16 15  2  0  0  0  0
 18 20  1  0  0  0  0
 18 24  1  0  0  0  0
 19 28  1  1  0  0  0
 20 21  2  0  0  0  0
 21 23  1  0  0  0  0
 22 25  1  0  0  0  0
 23 26  1  0  0  0  0
 24 22  1  0  0  0  0
 24 23  2  0  0  0  0
 25 19  1  0  0  0  0
 26 19  1  0  0  0  0
 28 27  1  0  0  0  0
 28 29  2  0  0  0  0
 30 31  2  0  0  0  0
 33 45  1  1  0  0  0
 34 36  1  0  0  0  0
 35 44  1  0  0  0  0
 35 32  1  1  0  0  0
 38 36  1  6  0  0  0
 38 35  1  0  0  0  0
 39 44  1  0  0  0  0
 40 37  1  0  0  0  0
 40 39  1  0  0  0  0
 41 37  1  6  0  0  0
 41 33  1  0  0  0  0
 41 38  1  0  0  0  0
 42 34  1  1  0  0  0
 42 41  1  0  0  0  0
 42 33  1  0  0  0  0
 44 43  2  0  0  0  0
 45 46  1  0  0  0  0
 46 47  1  0  0  0  0
 47 48  1  0  0  0  0
 48 49  2  0  0  0  0
 50 48  1  0  0  0  0
 50 51  1  0  0  0  0
 52 51  1  0  0  0  0
 53 52  2  0  0  0  0
 53 54  1  0  0  0  0
 54 55  1  0  0  0  0
 56 54  1  0  0  0  0
M  END
>  <MODEL>
9

>  <REMARK>
 VINA RESULT:      -5.8      1.970      2.868
  Name = 
  16 active torsions:
  status: ('A' for Active; 'I' for Inactive)
    1  A    between atoms: C_1  and  C_25
    2  A    between atoms: S_2  and  N_3
    3  A    between atoms: S_2  and  N_6
    4  A    between atoms: C_4  and  C_41
    5  A    between atoms: N_6  and  P_10
    6  A    between atoms: C_7  and  O_56
    7  A    between atoms: C_9  and  C_25
    8  A    between atoms: C_9  and  O_31
    9  A    between atoms: P_10  and  C_18
   10  A    between atoms: N_12  and  C_16
   11  A    between atoms: C_15  and  C_54
   12  A    between atoms: C_17  and  O_56
   13  A    between atoms: C_21  and  C_23
   14  A    between atoms: C_29  and  O_31
   15  A    between atoms: C_29  and  O_37
   16  A    between atoms: O_37  and  C_54
                            x       y       z     vdW  Elec       q    Type
                         _______ _______ _______ _____ _____    ______ ____

>  <TORSDO>
F 16

$$$$
