=
 OpenBabel11062415113D

 55 62  0  0  1  0  0  0  0  0999 V2000
  185.7470  178.4610  143.6450 C   0  0  0  0  0  0  0  0  0  0  0  0
  185.5650  178.5190  146.4090 N   0  0  0  0  0  0  0  0  0  0  0  0
  186.9020  178.2860  144.4330 C   0  0  0  0  0  0  0  0  0  0  0  0
  184.4440  178.7150  145.6640 C   0  0  0  0  0  3  0  0  0  0  0  0
  186.7750  178.3030  145.8300 C   0  0  0  0  0  3  0  0  0  0  0  0
  184.5150  178.6830  144.2700 C   0  0  0  0  0  3  0  0  0  0  0  0
  185.8220  178.3490  142.2240 N   0  0  0  0  0  2  0  0  0  0  0  0
  185.8210  179.4940  141.4100 N   0  0  0  0  0  2  0  0  0  0  0  0
  184.6110  179.4710  140.5940 C   0  0  0  0  0  2  0  0  0  0  0  0
  182.0510  181.0450  138.6460 C   0  0  0  0  0  2  0  0  0  0  0  0
  179.7680  178.4540  136.1540 O   0  0  0  0  0  0  0  0  0  0  0  0
  180.4890  178.2640  137.1660 C   0  0  0  0  0  0  0  0  0  0  0  0
  181.0680  177.5680  139.2540 C   0  0  2  0  0  3  0  0  0  0  0  0
  184.0970  178.0350  140.3740 C   0  0  1  0  0  3  0  0  0  0  0  0
  179.9610  177.1460  141.3060 F   0  0  0  0  0  0  0  0  0  0  0  0
  183.0540  177.5850  141.4130 C   0  0  0  0  0  2  0  0  0  0  0  0
  180.6680  178.1240  140.6300 C   0  0  0  0  0  0  0  0  0  0  0  0
  182.1070  179.7670  138.2800 C   0  0  0  0  0  0  0  0  0  0  0  0
  182.2610  178.2790  138.5950 C   0  0  1  0  0  0  0  0  0  0  0  0
  183.6750  177.7520  138.9140 C   0  0  1  0  0  3  0  0  0  0  0  0
  181.8660  178.5470  141.4900 C   0  0  0  0  0  2  0  0  0  0  0  0
  179.8450  179.2260  140.4710 F   0  0  0  0  0  0  0  0  0  0  0  0
  180.0170  177.6760  138.3180 O   0  0  0  0  0  0  0  0  0  0  0  0
  181.9210  178.6400  137.2450 C   0  0  1  0  0  3  0  0  0  0  0  0
  184.7510  178.1340  137.8710 C   0  0  1  0  0  3  0  0  0  0  0  0
  186.1720  177.9390  138.3800 C   0  0  0  0  0  2  0  0  0  0  0  0
  185.0170  177.0900  136.7760 C   0  0  1  0  0  3  0  0  0  0  0  0
  186.4500  176.9500  137.2600 C   0  0  0  0  0  2  0  0  0  0  0  0
  183.8900  175.2540  135.6250 O   0  0  0  0  0  1  0  0  0  0  0  0
  184.2560  175.7570  136.8820 C   0  0  0  0  0  2  0  0  0  0  0  0
  188.2390  178.0360  143.7840 C   0  0  1  0  0  3  0  0  0  0  0  0
  190.3360  179.2660  143.5990 O   0  0  0  0  0  1  0  0  0  0  0  0
  189.4230  178.7100  144.5050 C   0  0  2  0  0  3  0  0  0  0  0  0
  190.2500  176.7790  147.5940 C   0  0  0  0  0  3  0  0  0  0  0  0
  189.6150  177.5950  146.7110 N   0  0  0  0  0  0  0  0  0  0  0  0
  191.4230  176.1160  147.2200 C   0  0  0  0  0  3  0  0  0  0  0  0
  191.2500  177.1400  145.0790 N   0  0  0  0  0  0  0  0  0  0  0  0
  191.9130  176.3160  145.9350 C   0  0  0  0  0  3  0  0  0  0  0  0
  190.1040  177.7720  145.4580 C   0  0  0  0  0  0  0  0  0  0  0  0
  188.4500  176.5420  143.5330 C   0  0  0  0  0  2  0  0  0  0  0  0
  188.5120  177.2310  141.0680 C   0  0  0  0  0  2  0  0  0  0  0  0
  190.4070  175.8070  142.0860 C   0  0  0  0  0  2  0  0  0  0  0  0
  190.7940  177.0890  139.9310 C   0  0  2  0  0  3  0  0  0  0  0  0
  191.2600  176.8550  141.3770 C   0  0  0  0  0  2  0  0  0  0  0  0
  189.2680  176.9840  139.7640 C   0  0  0  0  0  2  0  0  0  0  0  0
  188.9200  176.1910  142.1200 C   0  0  1  0  0  3  0  0  0  0  0  0
  191.1160  176.0050  136.5930 C   0  0  2  0  0  3  0  0  0  0  0  0
  191.4940  176.1360  138.9550 C   0  0  2  0  0  3  0  0  0  0  0  0
  190.1430  175.1940  137.4210 C   0  0  0  0  0  2  0  0  0  0  0  0
  193.3200  176.7510  137.4130 C   0  0  0  0  0  1  0  0  0  0  0  0
  191.8280  176.8180  137.6430 C   0  0  1  0  0  3  0  0  0  0  0  0
  190.6930  175.0090  138.6950 O   0  0  0  0  0  0  0  0  0  0  0  0
  189.3500  176.0870  134.9990 C   0  0  0  0  0  1  0  0  0  0  0  0
  190.3990  176.8680  135.6410 N   0  0  0  0  0  0  0  0  0  0  0  0
  189.6990  177.8970  136.3990 C   0  0  0  0  0  1  0  0  0  0  0  0
  1  6  2  0  0  0  0
  1  3  1  0  0  0  0
  3  5  2  0  0  0  0
  4  2  2  0  0  0  0
  5  2  1  0  0  0  0
  6  4  1  0  0  0  0
  7  1  1  0  0  0  0
  8  7  1  0  0  0  0
  9  8  1  0  0  0  0
 11 12  2  0  0  0  0
 12 23  1  0  0  0  0
 13 23  1  6  0  0  0
 13 17  1  0  0  0  0
 14  9  1  6  0  0  0
 14 16  1  0  0  0  0
 16 21  1  0  0  0  0
 17 15  1  0  0  0  0
 17 21  1  0  0  0  0
 18 10  2  0  0  0  0
 19 18  1  1  0  0  0
 19 20  1  0  0  0  0
 19 13  1  0  0  0  0
 20 25  1  6  0  0  0
 20 14  1  0  0  0  0
 22 17  1  0  0  0  0
 24 12  1  1  0  0  0
 24 18  1  0  0  0  0
 24 19  1  0  0  0  0
 25 26  1  1  0  0  0
 27 30  1  1  0  0  0
 27 28  1  0  0  0  0
 27 25  1  0  0  0  0
 28 26  1  0  0  0  0
 29 30  1  0  0  0  0
 31 40  1  1  0  0  0
 31  3  1  0  0  0  0
 31 33  1  0  0  0  0
 33 32  1  6  0  0  0
 33 39  1  0  0  0  0
 35 34  1  0  0  0  0
 36 34  2  0  0  0  0
 37 39  1  0  0  0  0
 37 38  2  0  0  0  0
 38 36  1  0  0  0  0
 39 35  2  0  0  0  0
 41 46  1  0  0  0  0
 42 46  1  0  0  0  0
 43 45  1  1  0  0  0
 43 44  1  0  0  0  0
 44 42  1  0  0  0  0
 45 41  1  0  0  0  0
 46 40  1  1  0  0  0
 47 54  1  6  0  0  0
 47 49  1  0  0  0  0
 47 51  1  0  0  0  0
 48 52  1  6  0  0  0
 48 43  1  0  0  0  0
 49 52  1  0  0  0  0
 51 50  1  6  0  0  0
 51 48  1  0  0  0  0
 53 54  1  0  0  0  0
 54 55  1  0  0  0  0
M  END
>  <MODEL>
1

>  <REMARK>
 VINA RESULT:      -7.6      0.000      0.000
  Name = 
  13 active torsions:
  status: ('A' for Active; 'I' for Inactive)
    1  A    between atoms: C_3  and  N_27
    2  A    between atoms: C_4  and  N_17
    3  A    between atoms: C_9  and  C_53
    4  A    between atoms: C_13  and  C_32
    5  A    between atoms: N_17  and  N_45
    6  A    between atoms: C_21  and  C_33
    7  A    between atoms: C_23  and  C_35
    8  A    between atoms: C_32  and  N_45
    9  A    between atoms: C_37  and  C_38
   10  A    between atoms: C_37  and  C_53
   11  A    between atoms: C_41  and  C_55
   12  A    between atoms: C_49  and  C_53
   13  A    between atoms: C_49  and  C_54
                            x       y       z     vdW  Elec       q    Type
                         _______ _______ _______ _____ _____    ______ ____

>  <TORSDO>
F 13

$$$$
=
 OpenBabel11062415113D

 55 62  0  0  1  0  0  0  0  0999 V2000
  184.3820  178.2370  141.9550 C   0  0  0  0  0  0  0  0  0  0  0  0
  181.7610  179.1100  142.1580 N   0  0  0  0  0  0  0  0  0  0  0  0
  183.4940  178.0620  140.8760 C   0  0  0  0  0  0  0  0  0  0  0  0
  182.5980  179.2650  143.2190 C   0  0  0  0  0  3  0  0  0  0  0  0
  182.1780  178.5300  141.0030 C   0  0  0  0  0  3  0  0  0  0  0  0
  183.9240  178.8380  143.1330 C   0  0  0  0  0  3  0  0  0  0  0  0
  185.7540  177.8660  141.8260 N   0  0  0  0  0  2  0  0  0  0  0  0
  186.7440  178.8350  141.5920 N   0  0  0  0  0  2  0  0  0  0  0  0
  187.8140  178.6360  142.5650 C   0  0  0  0  0  2  0  0  0  0  0  0
  190.9100  179.5450  144.1200 C   0  0  0  0  0  2  0  0  0  0  0  0
  191.9800  177.2840  147.5670 O   0  0  0  0  0  0  0  0  0  0  0  0
  191.1920  177.0770  146.6090 C   0  0  0  0  0  0  0  0  0  0  0  0
  190.2510  176.0120  144.8320 C   0  0  2  0  0  3  0  0  0  0  0  0
  187.6660  177.2960  143.3110 C   0  0  1  0  0  3  0  0  0  0  0  0
  190.9470  174.4710  143.1720 F   0  0  0  0  0  0  0  0  0  0  0  0
  188.3490  176.1130  142.6010 C   0  0  0  0  0  2  0  0  0  0  0  0
  190.7730  175.8240  143.3990 C   0  0  0  0  0  0  0  0  0  0  0  0
  190.3260  178.6290  144.8890 C   0  0  0  0  0  0  0  0  0  0  0  0
  189.5240  177.3420  145.0830 C   0  0  1  0  0  0  0  0  0  0  0  0
  188.0060  177.3910  144.8160 C   0  0  1  0  0  3  0  0  0  0  0  0
  189.8310  176.3850  142.3270 C   0  0  0  0  0  2  0  0  0  0  0  0
  192.0010  176.4500  143.2600 F   0  0  0  0  0  0  0  0  0  0  0  0
  191.2960  175.9820  145.7800 O   0  0  0  0  0  0  0  0  0  0  0  0
  190.0630  177.9710  146.2590 C   0  0  1  0  0  3  0  0  0  0  0  0
  187.2630  178.5320  145.5490 C   0  0  1  0  0  3  0  0  0  0  0  0
  185.7610  178.5190  145.3080 C   0  0  0  0  0  2  0  0  0  0  0  0
  187.0070  178.3050  147.0470 C   0  0  1  0  0  3  0  0  0  0  0  0
  185.5100  178.3540  146.7970 C   0  0  0  0  0  2  0  0  0  0  0  0
  188.1670  177.0890  148.8190 O   0  0  0  0  0  1  0  0  0  0  0  0
  187.4360  176.9480  147.6310 C   0  0  0  0  0  2  0  0  0  0  0  0
  183.9660  177.4280  139.5930 C   0  0  1  0  0  3  0  0  0  0  0  0
  183.2820  175.3710  138.4750 O   0  0  0  0  0  1  0  0  0  0  0  0
  182.8670  176.6620  138.8300 C   0  0  2  0  0  3  0  0  0  0  0  0
  181.1410  179.2080  136.7100 C   0  0  0  0  0  3  0  0  0  0  0  0
  181.6180  178.5350  137.7910 N   0  0  0  0  0  0  0  0  0  0  0  0
  181.4300  178.7590  135.4180 C   0  0  0  0  0  3  0  0  0  0  0  0
  182.6690  176.9700  136.3810 N   0  0  0  0  0  0  0  0  0  0  0  0
  182.2100  177.6170  135.2760 C   0  0  0  0  0  3  0  0  0  0  0  0
  182.3830  177.4260  137.6320 C   0  0  0  0  0  0  0  0  0  0  0  0
  184.7140  178.4430  138.7270 C   0  0  0  0  0  2  0  0  0  0  0  0
  186.4050  178.8710  136.8530 C   0  0  0  0  0  2  0  0  0  0  0  0
  186.4520  176.6670  138.1930 C   0  0  0  0  0  2  0  0  0  0  0  0
  188.4990  177.4110  136.8900 C   0  0  2  0  0  3  0  0  0  0  0  0
  187.9360  177.0150  138.2660 C   0  0  0  0  0  2  0  0  0  0  0  0
  187.4890  178.1840  136.0250 C   0  0  0  0  0  2  0  0  0  0  0  0
  185.6080  177.8280  137.6480 C   0  0  1  0  0  3  0  0  0  0  0  0
  190.9130  174.8490  136.7210 C   0  0  2  0  0  3  0  0  0  0  0  0
  189.0180  176.1880  136.1240 C   0  0  2  0  0  3  0  0  0  0  0  0
  191.2570  176.0850  135.9180 C   0  0  0  0  0  2  0  0  0  0  0  0
  188.6650  173.8340  136.7730 C   0  0  0  0  0  1  0  0  0  0  0  0
  189.4640  175.0840  137.0620 C   0  0  1  0  0  3  0  0  0  0  0  0
  190.0930  176.5430  135.2890 O   0  0  0  0  0  0  0  0  0  0  0  0
  193.1060  174.4260  137.5460 C   0  0  0  0  0  1  0  0  0  0  0  0
  191.7430  174.7660  137.9330 N   0  0  0  0  0  0  0  0  0  0  0  0
  191.8330  176.0990  138.5150 C   0  0  0  0  0  1  0  0  0  0  0  0
  1  6  1  0  0  0  0
  2  4  1  0  0  0  0
  3  5  1  0  0  0  0
  3  1  2  0  0  0  0
  5  2  2  0  0  0  0
  6  4  2  0  0  0  0
  7  1  1  0  0  0  0
  8  7  1  0  0  0  0
  8  9  1  0  0  0  0
 10 18  2  0  0  0  0
 12 11  2  0  0  0  0
 13 19  1  0  0  0  0
 13 23  1  1  0  0  0
 14  9  1  6  0  0  0
 14 20  1  0  0  0  0
 15 17  1  0  0  0  0
 16 14  1  0  0  0  0
 17 13  1  0  0  0  0
 19 18  1  6  0  0  0
 19 24  1  0  0  0  0
 20 19  1  0  0  0  0
 20 25  1  6  0  0  0
 21 16  1  0  0  0  0
 21 17  1  0  0  0  0
 22 17  1  0  0  0  0
 23 12  1  0  0  0  0
 24 18  1  6  0  0  0
 24 12  1  0  0  0  0
 25 26  1  6  0  0  0
 25 27  1  0  0  0  0
 26 28  1  0  0  0  0
 27 30  1  6  0  0  0
 28 27  1  0  0  0  0
 30 29  1  0  0  0  0
 31 40  1  6  0  0  0
 31  3  1  0  0  0  0
 33 32  1  6  0  0  0
 33 31  1  0  0  0  0
 34 35  1  0  0  0  0
 36 34  2  0  0  0  0
 37 39  1  0  0  0  0
 38 36  1  0  0  0  0
 38 37  2  0  0  0  0
 39 35  2  0  0  0  0
 39 33  1  0  0  0  0
 41 46  1  0  0  0  0
 42 44  1  0  0  0  0
 43 45  1  6  0  0  0
 43 44  1  0  0  0  0
 45 41  1  0  0  0  0
 46 42  1  0  0  0  0
 46 40  1  1  0  0  0
 47 51  1  0  0  0  0
 47 54  1  1  0  0  0
 48 52  1  1  0  0  0
 48 43  1  0  0  0  0
 48 51  1  0  0  0  0
 49 47  1  0  0  0  0
 51 50  1  6  0  0  0
 52 49  1  0  0  0  0
 53 54  1  0  0  0  0
 54 55  1  0  0  0  0
M  END
>  <MODEL>
2

>  <REMARK>
 VINA RESULT:      -7.4      3.202      8.747
  Name = 
  13 active torsions:
  status: ('A' for Active; 'I' for Inactive)
    1  A    between atoms: C_3  and  N_27
    2  A    between atoms: C_4  and  N_17
    3  A    between atoms: C_9  and  C_53
    4  A    between atoms: C_13  and  C_32
    5  A    between atoms: N_17  and  N_45
    6  A    between atoms: C_21  and  C_33
    7  A    between atoms: C_23  and  C_35
    8  A    between atoms: C_32  and  N_45
    9  A    between atoms: C_37  and  C_38
   10  A    between atoms: C_37  and  C_53
   11  A    between atoms: C_41  and  C_55
   12  A    between atoms: C_49  and  C_53
   13  A    between atoms: C_49  and  C_54
                            x       y       z     vdW  Elec       q    Type
                         _______ _______ _______ _____ _____    ______ ____

>  <TORSDO>
F 13

$$$$
=
 OpenBabel11062415113D

 55 62  0  0  1  0  0  0  0  0999 V2000
  186.2950  178.5820  139.9770 C   0  0  0  0  0  0  0  0  0  0  0  0
  183.5480  178.6030  139.6260 N   0  0  0  0  0  0  0  0  0  0  0  0
  185.7330  178.1030  138.7780 C   0  0  0  0  0  0  0  0  0  0  0  0
  184.0710  179.0450  140.8010 C   0  0  0  0  0  3  0  0  0  0  0  0
  184.3390  178.1420  138.6230 C   0  0  0  0  0  3  0  0  0  0  0  0
  185.4540  179.0500  140.9930 C   0  0  0  0  0  3  0  0  0  0  0  0
  187.7120  178.6520  140.1300 N   0  0  0  0  0  2  0  0  0  0  0  0
  188.4030  177.6990  140.8970 N   0  0  0  0  0  2  0  0  0  0  0  0
  188.2570  178.0560  142.3050 C   0  0  0  0  0  2  0  0  0  0  0  0
  191.0780  179.3670  144.0800 C   0  0  0  0  0  2  0  0  0  0  0  0
  191.8350  177.6260  147.8920 O   0  0  0  0  0  0  0  0  0  0  0  0
  191.1860  177.2480  146.8840 C   0  0  0  0  0  0  0  0  0  0  0  0
  190.5360  175.9090  145.1620 C   0  0  2  0  0  3  0  0  0  0  0  0
  188.0930  176.8090  143.1960 C   0  0  1  0  0  3  0  0  0  0  0  0
  191.5210  174.2320  143.8090 F   0  0  0  0  0  0  0  0  0  0  0  0
  188.9260  175.6010  142.7290 C   0  0  0  0  0  2  0  0  0  0  0  0
  191.2440  175.5860  143.8360 C   0  0  0  0  0  0  0  0  0  0  0  0
  190.4550  178.5130  144.8880 C   0  0  0  0  0  0  0  0  0  0  0  0
  189.7090  177.2040  145.1520 C   0  0  1  0  0  0  0  0  0  0  0  0
  188.2370  177.1110  144.7050 C   0  0  1  0  0  3  0  0  0  0  0  0
  190.4130  175.9430  142.5980 C   0  0  0  0  0  2  0  0  0  0  0  0
  192.4410  176.2780  143.7620 F   0  0  0  0  0  0  0  0  0  0  0  0
  191.4550  176.0700  146.2220 O   0  0  0  0  0  0  0  0  0  0  0  0
  190.0610  178.0090  146.2910 C   0  0  1  0  0  3  0  0  0  0  0  0
  187.3440  178.2760  145.1920 C   0  0  1  0  0  3  0  0  0  0  0  0
  185.8820  178.1120  144.8030 C   0  0  0  0  0  2  0  0  0  0  0  0
  186.9380  178.2300  146.6730 C   0  0  1  0  0  3  0  0  0  0  0  0
  185.4780  178.1260  146.2680 C   0  0  0  0  0  2  0  0  0  0  0  0
  187.8160  177.3410  148.7720 O   0  0  0  0  0  1  0  0  0  0  0  0
  187.3850  176.9990  147.4820 C   0  0  0  0  0  2  0  0  0  0  0  0
  186.6170  177.6040  137.6640 C   0  0  1  0  0  3  0  0  0  0  0  0
  187.5280  179.5790  136.5600 O   0  0  0  0  0  1  0  0  0  0  0  0
  187.8450  178.4960  137.3900 C   0  0  2  0  0  3  0  0  0  0  0  0
  190.0330  176.5960  135.0320 C   0  0  0  0  0  3  0  0  0  0  0  0
  189.0150  177.3460  135.5300 N   0  0  0  0  0  0  0  0  0  0  0  0
  191.0740  176.1800  135.8680 C   0  0  0  0  0  3  0  0  0  0  0  0
  189.9980  177.3040  137.6680 N   0  0  0  0  0  0  0  0  0  0  0  0
  191.0340  176.5540  137.2060 C   0  0  0  0  0  3  0  0  0  0  0  0
  188.9960  177.7060  136.8380 C   0  0  0  0  0  0  0  0  0  0  0  0
  186.9690  176.1300  137.8680 C   0  0  0  0  0  2  0  0  0  0  0  0
  187.0300  173.7950  136.8180 C   0  0  0  0  0  2  0  0  0  0  0  0
  184.8310  175.1420  136.9110 C   0  0  0  0  0  2  0  0  0  0  0  0
  184.7730  172.6280  136.5710 C   0  0  2  0  0  3  0  0  0  0  0  0
  184.3100  173.8090  137.4400 C   0  0  0  0  0  2  0  0  0  0  0  0
  186.1890  172.8180  136.0000 C   0  0  0  0  0  2  0  0  0  0  0  0
  186.3650  175.1790  136.8330 C   0  0  1  0  0  3  0  0  0  0  0  0
  181.5290  171.5750  135.6870 C   0  0  2  0  0  3  0  0  0  0  0  0
  183.7830  172.3470  135.4350 C   0  0  2  0  0  3  0  0  0  0  0  0
  182.5640  170.4720  135.6890 C   0  0  0  0  0  2  0  0  0  0  0  0
  181.9270  173.8230  134.7510 C   0  0  0  0  0  1  0  0  0  0  0  0
  182.3820  172.8130  135.7800 C   0  0  1  0  0  3  0  0  0  0  0  0
  183.7470  170.9730  135.1330 O   0  0  0  0  0  0  0  0  0  0  0  0
  180.7160  172.6740  137.6360 C   0  0  0  0  0  1  0  0  0  0  0  0
  180.6320  171.4530  136.8470 N   0  0  0  0  0  0  0  0  0  0  0  0
  179.2600  171.4080  136.3570 C   0  0  0  0  0  1  0  0  0  0  0  0
  1  7  1  0  0  0  0
  1  6  1  0  0  0  0
  2  4  1  0  0  0  0
  3  1  2  0  0  0  0
  4  6  2  0  0  0  0
  5  3  1  0  0  0  0
  5  2  2  0  0  0  0
  7  8  1  0  0  0  0
  8  9  1  0  0  0  0
 10 18  2  0  0  0  0
 12 11  2  0  0  0  0
 13 23  1  1  0  0  0
 14  9  1  6  0  0  0
 14 20  1  0  0  0  0
 15 17  1  0  0  0  0
 16 14  1  0  0  0  0
 17 13  1  0  0  0  0
 19 18  1  6  0  0  0
 19 13  1  0  0  0  0
 19 24  1  0  0  0  0
 20 19  1  0  0  0  0
 20 25  1  6  0  0  0
 21 16  1  0  0  0  0
 21 17  1  0  0  0  0
 22 17  1  0  0  0  0
 23 12  1  0  0  0  0
 24 18  1  6  0  0  0
 24 12  1  0  0  0  0
 25 26  1  6  0  0  0
 25 27  1  0  0  0  0
 26 28  1  0  0  0  0
 27 30  1  6  0  0  0
 28 27  1  0  0  0  0
 30 29  1  0  0  0  0
 31 40  1  1  0  0  0
 31  3  1  0  0  0  0
 33 32  1  6  0  0  0
 33 31  1  0  0  0  0
 34 35  1  0  0  0  0
 34 36  2  0  0  0  0
 35 39  2  0  0  0  0
 36 38  1  0  0  0  0
 38 37  2  0  0  0  0
 39 33  1  0  0  0  0
 39 37  1  0  0  0  0
 41 46  1  0  0  0  0
 42 44  1  0  0  0  0
 43 45  1  6  0  0  0
 43 44  1  0  0  0  0
 45 41  1  0  0  0  0
 46 42  1  0  0  0  0
 46 40  1  1  0  0  0
 47 49  1  0  0  0  0
 47 51  1  0  0  0  0
 47 54  1  1  0  0  0
 48 52  1  1  0  0  0
 48 51  1  0  0  0  0
 48 43  1  0  0  0  0
 51 50  1  6  0  0  0
 52 49  1  0  0  0  0
 54 53  1  0  0  0  0
 55 54  1  0  0  0  0
M  END
>  <MODEL>
3

>  <REMARK>
 VINA RESULT:      -7.3      3.874      9.419
  Name = 
  13 active torsions:
  status: ('A' for Active; 'I' for Inactive)
    1  A    between atoms: C_3  and  N_27
    2  A    between atoms: C_4  and  N_17
    3  A    between atoms: C_9  and  C_53
    4  A    between atoms: C_13  and  C_32
    5  A    between atoms: N_17  and  N_45
    6  A    between atoms: C_21  and  C_33
    7  A    between atoms: C_23  and  C_35
    8  A    between atoms: C_32  and  N_45
    9  A    between atoms: C_37  and  C_38
   10  A    between atoms: C_37  and  C_53
   11  A    between atoms: C_41  and  C_55
   12  A    between atoms: C_49  and  C_53
   13  A    between atoms: C_49  and  C_54
                            x       y       z     vdW  Elec       q    Type
                         _______ _______ _______ _____ _____    ______ ____

>  <TORSDO>
F 13

$$$$
=
 OpenBabel11062415113D

 55 62  0  0  1  0  0  0  0  0999 V2000
  187.3580  178.2530  139.3130 C   0  0  0  0  0  0  0  0  0  0  0  0
  188.4980  178.8050  136.8500 N   0  0  0  0  0  0  0  0  0  0  0  0
  186.5750  178.1940  138.1430 C   0  0  0  0  0  0  0  0  0  0  0  0
  189.2630  178.8910  137.9710 C   0  0  0  0  0  3  0  0  0  0  0  0
  187.1840  178.4630  136.9090 C   0  0  0  0  0  3  0  0  0  0  0  0
  188.7080  178.6090  139.2200 C   0  0  0  0  0  3  0  0  0  0  0  0
  186.7960  177.8880  140.5730 N   0  0  0  0  0  2  0  0  0  0  0  0
  186.7300  178.8130  141.6280 N   0  0  0  0  0  2  0  0  0  0  0  0
  187.8600  178.5690  142.5200 C   0  0  0  0  0  2  0  0  0  0  0  0
  190.9280  179.5180  144.1050 C   0  0  0  0  0  2  0  0  0  0  0  0
  191.9470  177.3330  147.6160 O   0  0  0  0  0  0  0  0  0  0  0  0
  191.1750  177.1040  146.6500 C   0  0  0  0  0  0  0  0  0  0  0  0
  190.2640  175.9990  144.8820 C   0  0  2  0  0  3  0  0  0  0  0  0
  187.7020  177.2450  143.2920 C   0  0  1  0  0  3  0  0  0  0  0  0
  190.9910  174.4250  143.2670 F   0  0  0  0  0  0  0  0  0  0  0  0
  188.4000  176.0490  142.6180 C   0  0  0  0  0  2  0  0  0  0  0  0
  190.8110  175.7820  143.4610 C   0  0  0  0  0  0  0  0  0  0  0  0
  190.3340  178.6180  144.8840 C   0  0  0  0  0  0  0  0  0  0  0  0
  189.5310  177.3330  145.0920 C   0  0  1  0  0  0  0  0  0  0  0  0
  188.0180  177.3730  144.8000 C   0  0  1  0  0  3  0  0  0  0  0  0
  189.8850  176.3180  142.3630 C   0  0  0  0  0  2  0  0  0  0  0  0
  192.0390  176.4080  143.3290 F   0  0  0  0  0  0  0  0  0  0  0  0
  191.2940  175.9920  145.8470 O   0  0  0  0  0  0  0  0  0  0  0  0
  190.0500  177.9880  146.2630 C   0  0  1  0  0  3  0  0  0  0  0  0
  187.2610  178.5280  145.4960 C   0  0  1  0  0  3  0  0  0  0  0  0
  185.7700  178.5350  145.1900 C   0  0  0  0  0  2  0  0  0  0  0  0
  186.9380  178.3110  146.9820 C   0  0  1  0  0  3  0  0  0  0  0  0
  185.4540  178.3800  146.6680 C   0  0  0  0  0  2  0  0  0  0  0  0
  188.1450  177.0860  148.7160 O   0  0  0  0  0  1  0  0  0  0  0  0
  187.3210  176.9500  147.5890 C   0  0  0  0  0  2  0  0  0  0  0  0
  185.1210  177.8030  138.2150 C   0  0  1  0  0  3  0  0  0  0  0  0
  184.8260  180.1740  138.7040 O   0  0  0  0  0  1  0  0  0  0  0  0
  184.1550  178.9970  138.3480 C   0  0  2  0  0  3  0  0  0  0  0  0
  182.0550  177.3210  140.9440 C   0  0  0  0  0  3  0  0  0  0  0  0
  183.0870  177.6170  140.1100 N   0  0  0  0  0  0  0  0  0  0  0  0
  180.9170  178.1330  140.9700 C   0  0  0  0  0  3  0  0  0  0  0  0
  181.9270  179.5010  139.3050 N   0  0  0  0  0  0  0  0  0  0  0  0
  180.8750  179.2370  140.1260 C   0  0  0  0  0  3  0  0  0  0  0  0
  183.0310  178.7030  139.2990 C   0  0  0  0  0  0  0  0  0  0  0  0
  184.7580  176.8490  137.0760 C   0  0  0  0  0  2  0  0  0  0  0  0
  182.7250  176.8530  135.5190 C   0  0  0  0  0  2  0  0  0  0  0  0
  182.8760  175.1910  137.4860 C   0  0  0  0  0  2  0  0  0  0  0  0
  181.2940  174.7390  135.5540 C   0  0  2  0  0  3  0  0  0  0  0  0
  182.4760  174.2120  136.3860 C   0  0  0  0  0  2  0  0  0  0  0  0
  181.3250  176.2650  135.3610 C   0  0  0  0  0  2  0  0  0  0  0  0
  183.2610  176.5690  136.9290 C   0  0  1  0  0  3  0  0  0  0  0  0
  179.1950  172.0610  136.4720 C   0  0  2  0  0  3  0  0  0  0  0  0
  179.9510  174.3130  136.1570 C   0  0  2  0  0  3  0  0  0  0  0  0
  178.9320  172.6140  135.0880 C   0  0  0  0  0  2  0  0  0  0  0  0
  179.6110  173.4730  138.4530 C   0  0  0  0  0  1  0  0  0  0  0  0
  180.0980  173.1100  137.0680 C   0  0  1  0  0  3  0  0  0  0  0  0
  179.0220  174.0100  135.1440 O   0  0  0  0  0  0  0  0  0  0  0  0
  178.9540  169.7920  135.7950 C   0  0  0  0  0  1  0  0  0  0  0  0
  179.8680  170.7550  136.3940 N   0  0  0  0  0  0  0  0  0  0  0  0
  180.9730  170.8700  135.4510 C   0  0  0  0  0  1  0  0  0  0  0  0
  1  7  1  0  0  0  0
  2  5  2  0  0  0  0
  2  4  1  0  0  0  0
  3 31  1  0  0  0  0
  3  1  2  0  0  0  0
  4  6  2  0  0  0  0
  5  3  1  0  0  0  0
  6  1  1  0  0  0  0
  7  8  1  0  0  0  0
  8  9  1  0  0  0  0
 10 18  2  0  0  0  0
 12 11  2  0  0  0  0
 13 19  1  0  0  0  0
 13 23  1  1  0  0  0
 14  9  1  6  0  0  0
 14 20  1  0  0  0  0
 15 17  1  0  0  0  0
 16 14  1  0  0  0  0
 17 13  1  0  0  0  0
 19 18  1  6  0  0  0
 19 24  1  0  0  0  0
 20 19  1  0  0  0  0
 20 25  1  6  0  0  0
 21 16  1  0  0  0  0
 21 17  1  0  0  0  0
 22 17  1  0  0  0  0
 23 12  1  0  0  0  0
 24 18  1  6  0  0  0
 24 12  1  0  0  0  0
 25 26  1  6  0  0  0
 25 27  1  0  0  0  0
 26 28  1  0  0  0  0
 27 30  1  6  0  0  0
 28 27  1  0  0  0  0
 30 29  1  0  0  0  0
 31 40  1  6  0  0  0
 31 33  1  0  0  0  0
 33 32  1  1  0  0  0
 33 39  1  0  0  0  0
 34 36  2  0  0  0  0
 35 34  1  0  0  0  0
 37 38  2  0  0  0  0
 38 36  1  0  0  0  0
 39 37  1  0  0  0  0
 39 35  2  0  0  0  0
 41 46  1  0  0  0  0
 43 45  1  1  0  0  0
 43 48  1  0  0  0  0
 43 44  1  0  0  0  0
 44 42  1  0  0  0  0
 45 41  1  0  0  0  0
 46 40  1  6  0  0  0
 46 42  1  0  0  0  0
 47 54  1  6  0  0  0
 47 51  1  0  0  0  0
 48 52  1  6  0  0  0
 48 51  1  0  0  0  0
 49 52  1  0  0  0  0
 49 47  1  0  0  0  0
 51 50  1  1  0  0  0
 53 54  1  0  0  0  0
 55 54  1  0  0  0  0
M  END
>  <MODEL>
4

>  <REMARK>
 VINA RESULT:      -7.1      4.057     10.171
  Name = 
  13 active torsions:
  status: ('A' for Active; 'I' for Inactive)
    1  A    between atoms: C_3  and  N_27
    2  A    between atoms: C_4  and  N_17
    3  A    between atoms: C_9  and  C_53
    4  A    between atoms: C_13  and  C_32
    5  A    between atoms: N_17  and  N_45
    6  A    between atoms: C_21  and  C_33
    7  A    between atoms: C_23  and  C_35
    8  A    between atoms: C_32  and  N_45
    9  A    between atoms: C_37  and  C_38
   10  A    between atoms: C_37  and  C_53
   11  A    between atoms: C_41  and  C_55
   12  A    between atoms: C_49  and  C_53
   13  A    between atoms: C_49  and  C_54
                            x       y       z     vdW  Elec       q    Type
                         _______ _______ _______ _____ _____    ______ ____

>  <TORSDO>
F 13

$$$$
=
 OpenBabel11062415113D

 55 62  0  0  1  0  0  0  0  0999 V2000
  186.0600  178.2340  139.9230 C   0  0  0  0  0  0  0  0  0  0  0  0
  183.8130  179.3200  138.7200 N   0  0  0  0  0  0  0  0  0  0  0  0
  185.9000  178.1570  138.5260 C   0  0  0  0  0  0  0  0  0  0  0  0
  183.9390  179.3820  140.0720 C   0  0  0  0  0  3  0  0  0  0  0  0
  184.7600  178.7300  137.9440 C   0  0  0  0  0  3  0  0  0  0  0  0
  185.0670  178.8470  140.6960 C   0  0  0  0  0  3  0  0  0  0  0  0
  187.2540  177.7520  140.5390 N   0  0  0  0  0  2  0  0  0  0  0  0
  188.3030  178.6280  140.8620 N   0  0  0  0  0  2  0  0  0  0  0  0
  188.3910  178.7160  142.3160 C   0  0  0  0  0  2  0  0  0  0  0  0
  191.2220  179.5610  144.3410 C   0  0  0  0  0  2  0  0  0  0  0  0
  191.7730  177.1820  147.8310 O   0  0  0  0  0  0  0  0  0  0  0  0
  191.1360  177.0110  146.7610 C   0  0  0  0  0  0  0  0  0  0  0  0
  190.4680  176.0080  144.8300 C   0  0  2  0  0  3  0  0  0  0  0  0
  188.1350  177.3530  142.9870 C   0  0  1  0  0  3  0  0  0  0  0  0
  191.4040  174.5210  143.2410 F   0  0  0  0  0  0  0  0  0  0  0  0
  188.9170  176.1910  142.3470 C   0  0  0  0  0  2  0  0  0  0  0  0
  191.1970  175.8660  143.4840 C   0  0  0  0  0  0  0  0  0  0  0  0
  190.5320  178.6220  144.9840 C   0  0  0  0  0  0  0  0  0  0  0  0
  189.7110  177.3330  145.0150 C   0  0  1  0  0  0  0  0  0  0  0  0
  188.2490  177.3970  144.5290 C   0  0  1  0  0  3  0  0  0  0  0  0
  190.4230  176.4660  142.3040 C   0  0  0  0  0  2  0  0  0  0  0  0
  192.4310  176.4920  143.5490 F   0  0  0  0  0  0  0  0  0  0  0  0
  191.3620  175.9430  145.9210 O   0  0  0  0  0  0  0  0  0  0  0  0
  190.0700  177.9200  146.2770 C   0  0  1  0  0  3  0  0  0  0  0  0
  187.4050  178.5160  145.1810 C   0  0  1  0  0  3  0  0  0  0  0  0
  185.9560  178.5190  144.7170 C   0  0  0  0  0  2  0  0  0  0  0  0
  186.9280  178.2390  146.6150 C   0  0  1  0  0  3  0  0  0  0  0  0
  185.4850  178.3040  146.1460 C   0  0  0  0  0  2  0  0  0  0  0  0
  187.9320  176.9610  148.4380 O   0  0  0  0  0  1  0  0  0  0  0  0
  187.2640  176.8600  147.2090 C   0  0  0  0  0  2  0  0  0  0  0  0
  186.9600  177.5120  137.6700 C   0  0  1  0  0  3  0  0  0  0  0  0
  185.4940  177.4370  135.7220 O   0  0  0  0  0  1  0  0  0  0  0  0
  186.4010  176.6930  136.4890 C   0  0  2  0  0  3  0  0  0  0  0  0
  186.0410  173.1420  137.5910 C   0  0  0  0  0  3  0  0  0  0  0  0
  186.5860  174.3310  137.2180 N   0  0  0  0  0  0  0  0  0  0  0  0
  184.6530  173.0050  137.6900 C   0  0  0  0  0  3  0  0  0  0  0  0
  184.4400  175.2800  137.0280 N   0  0  0  0  0  0  0  0  0  0  0  0
  183.8590  174.1080  137.3980 C   0  0  0  0  0  3  0  0  0  0  0  0
  185.7950  175.3980  136.9440 C   0  0  0  0  0  0  0  0  0  0  0  0
  188.0200  178.5330  137.2550 C   0  0  0  0  0  2  0  0  0  0  0  0
  189.9810  177.3430  138.3940 C   0  0  0  0  0  2  0  0  0  0  0  0
  189.5570  177.0610  135.8640 C   0  0  0  0  0  2  0  0  0  0  0  0
  190.9790  175.3720  137.1140 C   0  0  2  0  0  3  0  0  0  0  0  0
  189.7370  175.5920  136.2350 C   0  0  0  0  0  2  0  0  0  0  0  0
  191.2380  176.5300  138.0920 C   0  0  0  0  0  2  0  0  0  0  0  0
  189.4320  177.9630  137.1010 C   0  0  1  0  0  3  0  0  0  0  0  0
  194.2890  174.1660  137.0370 C   0  0  2  0  0  3  0  0  0  0  0  0
  192.2290  175.1130  136.2650 C   0  0  2  0  0  3  0  0  0  0  0  0
  194.1740  175.6590  137.2560 C   0  0  0  0  0  2  0  0  0  0  0  0
  192.9400  172.9170  135.3930 C   0  0  0  0  0  1  0  0  0  0  0  0
  192.8900  173.7960  136.6210 C   0  0  1  0  0  3  0  0  0  0  0  0
  193.1630  176.1530  136.4220 O   0  0  0  0  0  0  0  0  0  0  0  0
  195.6060  172.4090  137.9570 C   0  0  0  0  0  1  0  0  0  0  0  0
  194.6780  173.4840  138.2820 N   0  0  0  0  0  0  0  0  0  0  0  0
  195.4460  174.4210  139.0920 C   0  0  0  0  0  1  0  0  0  0  0  0
  1  7  1  0  0  0  0
  1  6  1  0  0  0  0
  2  4  1  0  0  0  0
  3  1  2  0  0  0  0
  4  6  2  0  0  0  0
  5  3  1  0  0  0  0
  5  2  2  0  0  0  0
  7  8  1  0  0  0  0
  8  9  1  0  0  0  0
 10 18  2  0  0  0  0
 12 11  2  0  0  0  0
 13 19  1  0  0  0  0
 13 23  1  1  0  0  0
 14  9  1  6  0  0  0
 14 20  1  0  0  0  0
 15 17  1  0  0  0  0
 16 14  1  0  0  0  0
 17 22  1  0  0  0  0
 17 13  1  0  0  0  0
 19 18  1  6  0  0  0
 19 24  1  0  0  0  0
 20 19  1  0  0  0  0
 20 25  1  6  0  0  0
 21 16  1  0  0  0  0
 21 17  1  0  0  0  0
 23 12  1  0  0  0  0
 24 18  1  6  0  0  0
 24 12  1  0  0  0  0
 25 26  1  6  0  0  0
 25 27  1  0  0  0  0
 26 28  1  0  0  0  0
 27 30  1  6  0  0  0
 28 27  1  0  0  0  0
 30 29  1  0  0  0  0
 31 40  1  6  0  0  0
 31  3  1  0  0  0  0
 33 32  1  1  0  0  0
 33 39  1  0  0  0  0
 33 31  1  0  0  0  0
 34 36  2  0  0  0  0
 35 34  1  0  0  0  0
 37 38  2  0  0  0  0
 38 36  1  0  0  0  0
 39 37  1  0  0  0  0
 39 35  2  0  0  0  0
 42 44  1  0  0  0  0
 42 46  1  0  0  0  0
 43 44  1  6  0  0  0
 43 45  1  0  0  0  0
 45 41  1  0  0  0  0
 46 40  1  1  0  0  0
 46 41  1  0  0  0  0
 47 49  1  0  0  0  0
 47 54  1  1  0  0  0
 48 52  1  1  0  0  0
 48 51  1  0  0  0  0
 48 43  1  0  0  0  0
 51 50  1  6  0  0  0
 51 47  1  0  0  0  0
 52 49  1  0  0  0  0
 53 54  1  0  0  0  0
 54 55  1  0  0  0  0
M  END
>  <MODEL>
5

>  <REMARK>
 VINA RESULT:      -7.0      3.522      8.639
  Name = 
  13 active torsions:
  status: ('A' for Active; 'I' for Inactive)
    1  A    between atoms: C_3  and  N_27
    2  A    between atoms: C_4  and  N_17
    3  A    between atoms: C_9  and  C_53
    4  A    between atoms: C_13  and  C_32
    5  A    between atoms: N_17  and  N_45
    6  A    between atoms: C_21  and  C_33
    7  A    between atoms: C_23  and  C_35
    8  A    between atoms: C_32  and  N_45
    9  A    between atoms: C_37  and  C_38
   10  A    between atoms: C_37  and  C_53
   11  A    between atoms: C_41  and  C_55
   12  A    between atoms: C_49  and  C_53
   13  A    between atoms: C_49  and  C_54
                            x       y       z     vdW  Elec       q    Type
                         _______ _______ _______ _____ _____    ______ ____

>  <TORSDO>
F 13

$$$$
=
 OpenBabel11062415113D

 55 62  0  0  1  0  0  0  0  0999 V2000
  187.5580  178.2180  139.2370 C   0  0  0  0  0  0  0  0  0  0  0  0
  189.3210  178.0530  137.1070 N   0  0  0  0  0  0  0  0  0  0  0  0
  187.0700  178.0320  137.9290 C   0  0  0  0  0  0  0  0  0  0  0  0
  189.8090  178.2580  138.3600 C   0  0  0  0  0  3  0  0  0  0  0  0
  187.9880  177.9350  136.8730 C   0  0  0  0  0  3  0  0  0  0  0  0
  188.9360  178.3360  139.4460 C   0  0  0  0  0  3  0  0  0  0  0  0
  186.6600  178.2200  140.3460 N   0  0  0  0  0  2  0  0  0  0  0  0
  186.8860  179.0520  141.4550 N   0  0  0  0  0  2  0  0  0  0  0  0
  188.0930  178.5900  142.1340 C   0  0  0  0  0  2  0  0  0  0  0  0
  191.0170  179.5220  143.9790 C   0  0  0  0  0  2  0  0  0  0  0  0
  191.6810  177.3770  147.5980 O   0  0  0  0  0  0  0  0  0  0  0  0
  190.9970  177.1430  146.5690 C   0  0  0  0  0  0  0  0  0  0  0  0
  190.2360  176.0240  144.7400 C   0  0  2  0  0  3  0  0  0  0  0  0
  187.8470  177.2790  142.9060 C   0  0  1  0  0  3  0  0  0  0  0  0
  191.0840  174.4170  143.2190 F   0  0  0  0  0  0  0  0  0  0  0  0
  188.5860  176.0640  142.3150 C   0  0  0  0  0  2  0  0  0  0  0  0
  190.9060  175.7790  143.3780 C   0  0  0  0  0  0  0  0  0  0  0  0
  190.3420  178.6410  144.7130 C   0  0  0  0  0  0  0  0  0  0  0  0
  189.5060  177.3700  144.8640 C   0  0  1  0  0  0  0  0  0  0  0  0
  188.0260  177.4250  144.4350 C   0  0  1  0  0  3  0  0  0  0  0  0
  190.0920  176.3110  142.1920 C   0  0  0  0  0  2  0  0  0  0  0  0
  192.1500  176.3870  143.3500 F   0  0  0  0  0  0  0  0  0  0  0  0
  191.1740  176.0180  145.7950 O   0  0  0  0  0  0  0  0  0  0  0  0
  189.9250  178.0360  146.0680 C   0  0  1  0  0  3  0  0  0  0  0  0
  187.2250  178.6000  145.0430 C   0  0  1  0  0  3  0  0  0  0  0  0
  185.7540  178.5850  144.6550 C   0  0  0  0  0  2  0  0  0  0  0  0
  186.8210  178.4370  146.5170 C   0  0  1  0  0  3  0  0  0  0  0  0
  185.3560  178.4830  146.1180 C   0  0  0  0  0  2  0  0  0  0  0  0
  187.8200  177.2910  148.4270 O   0  0  0  0  0  1  0  0  0  0  0  0
  187.1770  177.1030  147.1960 C   0  0  0  0  0  2  0  0  0  0  0  0
  185.5910  177.8910  137.6780 C   0  0  1  0  0  3  0  0  0  0  0  0
  184.1410  177.4830  135.7590 O   0  0  0  0  0  1  0  0  0  0  0  0
  185.2400  176.9910  136.4760 C   0  0  2  0  0  3  0  0  0  0  0  0
  185.8980  173.4750  137.5510 C   0  0  0  0  0  3  0  0  0  0  0  0
  186.0820  174.7790  137.2150 N   0  0  0  0  0  0  0  0  0  0  0  0
  184.6130  172.9240  137.5590 C   0  0  0  0  0  3  0  0  0  0  0  0
  183.7660  175.0440  136.8860 N   0  0  0  0  0  0  0  0  0  0  0  0
  183.5430  173.7430  137.2170 C   0  0  0  0  0  3  0  0  0  0  0  0
  185.0250  175.5640  136.8900 C   0  0  0  0  0  0  0  0  0  0  0  0
  184.8550  177.5040  138.9620 C   0  0  0  0  0  2  0  0  0  0  0  0
  183.7220  179.7890  138.7330 C   0  0  0  0  0  2  0  0  0  0  0  0
  182.3170  177.6320  138.9160 C   0  0  0  0  0  2  0  0  0  0  0  0
  181.2850  179.7490  137.9700 C   0  0  2  0  0  3  0  0  0  0  0  0
  181.6130  178.2680  137.7200 C   0  0  0  0  0  2  0  0  0  0  0  0
  182.3570  180.4710  138.8040 C   0  0  0  0  0  2  0  0  0  0  0  0
  183.6230  178.3560  139.2750 C   0  0  1  0  0  3  0  0  0  0  0  0
  179.4720  180.0170  140.9800 C   0  0  2  0  0  3  0  0  0  0  0  0
  179.9100  179.9160  138.6260 C   0  0  2  0  0  3  0  0  0  0  0  0
  179.5580  178.6110  140.4260 C   0  0  0  0  0  2  0  0  0  0  0  0
  179.0270  182.0080  139.5930 C   0  0  0  0  0  1  0  0  0  0  0  0
  179.9650  180.8460  139.8230 C   0  0  1  0  0  3  0  0  0  0  0  0
  179.3980  178.6720  139.0370 O   0  0  0  0  0  0  0  0  0  0  0  0
  179.5160  180.1160  143.3580 C   0  0  0  0  0  1  0  0  0  0  0  0
  180.3400  180.1690  142.1580 N   0  0  0  0  0  0  0  0  0  0  0  0
  181.2060  179.0000  142.2380 C   0  0  0  0  0  1  0  0  0  0  0  0
  1  6  1  0  0  0  0
  1  7  1  0  0  0  0
  2  4  1  0  0  0  0
  3  1  2  0  0  0  0
  4  6  2  0  0  0  0
  5  2  2  0  0  0  0
  5  3  1  0  0  0  0
  7  8  1  0  0  0  0
  8  9  1  0  0  0  0
 10 18  2  0  0  0  0
 12 11  2  0  0  0  0
 13 19  1  0  0  0  0
 13 23  1  1  0  0  0
 14  9  1  6  0  0  0
 14 20  1  0  0  0  0
 15 17  1  0  0  0  0
 16 14  1  0  0  0  0
 17 13  1  0  0  0  0
 19 18  1  6  0  0  0
 19 24  1  0  0  0  0
 20 19  1  0  0  0  0
 20 25  1  6  0  0  0
 21 16  1  0  0  0  0
 21 17  1  0  0  0  0
 22 17  1  0  0  0  0
 23 12  1  0  0  0  0
 24 18  1  6  0  0  0
 24 12  1  0  0  0  0
 25 26  1  6  0  0  0
 25 27  1  0  0  0  0
 26 28  1  0  0  0  0
 27 30  1  6  0  0  0
 28 27  1  0  0  0  0
 30 29  1  0  0  0  0
 31  3  1  0  0  0  0
 31 40  1  1  0  0  0
 33 32  1  1  0  0  0
 33 39  1  0  0  0  0
 33 31  1  0  0  0  0
 34 36  2  0  0  0  0
 35 34  1  0  0  0  0
 37 39  1  0  0  0  0
 37 38  2  0  0  0  0
 38 36  1  0  0  0  0
 39 35  2  0  0  0  0
 41 45  1  0  0  0  0
 41 46  1  0  0  0  0
 42 46  1  0  0  0  0
 43 44  1  1  0  0  0
 43 48  1  0  0  0  0
 43 45  1  0  0  0  0
 44 42  1  0  0  0  0
 46 40  1  6  0  0  0
 47 54  1  1  0  0  0
 48 52  1  1  0  0  0
 48 51  1  0  0  0  0
 49 47  1  0  0  0  0
 51 50  1  6  0  0  0
 51 47  1  0  0  0  0
 52 49  1  0  0  0  0
 54 55  1  0  0  0  0
 54 53  1  0  0  0  0
M  END
>  <MODEL>
6

>  <REMARK>
 VINA RESULT:      -6.9      3.289     10.186
  Name = 
  13 active torsions:
  status: ('A' for Active; 'I' for Inactive)
    1  A    between atoms: C_3  and  N_27
    2  A    between atoms: C_4  and  N_17
    3  A    between atoms: C_9  and  C_53
    4  A    between atoms: C_13  and  C_32
    5  A    between atoms: N_17  and  N_45
    6  A    between atoms: C_21  and  C_33
    7  A    between atoms: C_23  and  C_35
    8  A    between atoms: C_32  and  N_45
    9  A    between atoms: C_37  and  C_38
   10  A    between atoms: C_37  and  C_53
   11  A    between atoms: C_41  and  C_55
   12  A    between atoms: C_49  and  C_53
   13  A    between atoms: C_49  and  C_54
                            x       y       z     vdW  Elec       q    Type
                         _______ _______ _______ _____ _____    ______ ____

>  <TORSDO>
F 13

$$$$
=
 OpenBabel11062415113D

 55 62  0  0  1  0  0  0  0  0999 V2000
  189.5880  177.2560  138.5530 C   0  0  0  0  0  0  0  0  0  0  0  0
  188.9320  178.9360  136.4510 N   0  0  0  0  0  0  0  0  0  0  0  0
  189.4370  176.7350  137.2530 C   0  0  0  0  0  0  0  0  0  0  0  0
  189.0490  179.4530  137.7040 C   0  0  0  0  0  3  0  0  0  0  0  0
  189.1210  177.6130  136.2060 C   0  0  0  0  0  3  0  0  0  0  0  0
  189.3860  178.6220  138.7740 C   0  0  0  0  0  3  0  0  0  0  0  0
  190.0090  176.4090  139.6230 N   0  0  0  0  0  2  0  0  0  0  0  0
  190.8100  176.9070  140.6630 N   0  0  0  0  0  2  0  0  0  0  0  0
  189.9350  177.5040  141.6670 C   0  0  0  0  0  2  0  0  0  0  0  0
  191.1430  179.5110  144.3770 C   0  0  0  0  0  2  0  0  0  0  0  0
  189.4920  178.6340  148.2040 O   0  0  0  0  0  0  0  0  0  0  0  0
  189.5720  177.9870  147.1290 C   0  0  0  0  0  0  0  0  0  0  0  0
  190.0770  176.2730  145.7200 C   0  0  2  0  0  3  0  0  0  0  0  0
  189.2780  176.4350  142.5610 C   0  0  1  0  0  3  0  0  0  0  0  0
  191.6800  174.5300  145.6220 F   0  0  0  0  0  0  0  0  0  0  0  0
  190.2300  175.2920  142.9600 C   0  0  0  0  0  2  0  0  0  0  0  0
  191.4360  175.8130  145.1670 C   0  0  0  0  0  0  0  0  0  0  0  0
  190.1650  178.7410  144.8490 C   0  0  0  0  0  0  0  0  0  0  0  0
  189.4140  177.4130  144.9310 C   0  0  1  0  0  0  0  0  0  0  0  0
  188.4950  177.0300  143.7540 C   0  0  1  0  0  3  0  0  0  0  0  0
  191.5020  175.8120  143.6340 C   0  0  0  0  0  2  0  0  0  0  0  0
  192.4400  176.6420  145.6380 F   0  0  0  0  0  0  0  0  0  0  0  0
  190.1850  176.7570  147.0420 O   0  0  0  0  0  0  0  0  0  0  0  0
  189.0160  178.4570  145.8370 C   0  0  1  0  0  3  0  0  0  0  0  0
  187.4830  178.1260  143.3470 C   0  0  1  0  0  3  0  0  0  0  0  0
  186.5910  177.7150  142.1860 C   0  0  0  0  0  2  0  0  0  0  0  0
  186.2390  178.2480  144.2400 C   0  0  1  0  0  3  0  0  0  0  0  0
  185.3570  177.8930  143.0550 C   0  0  0  0  0  2  0  0  0  0  0  0
  185.6800  177.8170  146.5780 O   0  0  0  0  0  1  0  0  0  0  0  0
  186.0920  177.2220  145.3770 C   0  0  0  0  0  2  0  0  0  0  0  0
  189.6600  175.2680  136.9860 C   0  0  1  0  0  3  0  0  0  0  0  0
  188.7630  173.0100  137.1980 O   0  0  0  0  0  1  0  0  0  0  0  0
  188.4810  174.3670  137.4050 C   0  0  2  0  0  3  0  0  0  0  0  0
  185.7300  174.6100  134.8890 C   0  0  0  0  0  3  0  0  0  0  0  0
  186.8640  174.2220  135.5300 N   0  0  0  0  0  0  0  0  0  0  0  0
  184.9010  175.5840  135.4530 C   0  0  0  0  0  3  0  0  0  0  0  0
  186.4120  175.7230  137.2860 N   0  0  0  0  0  0  0  0  0  0  0  0
  185.2690  176.1360  136.6740 C   0  0  0  0  0  3  0  0  0  0  0  0
  187.2040  174.7680  136.7250 C   0  0  0  0  0  0  0  0  0  0  0  0
  190.1180  175.0410  135.5450 C   0  0  0  0  0  2  0  0  0  0  0  0
  192.4800  175.7370  134.8410 C   0  0  0  0  0  2  0  0  0  0  0  0
  192.1210  173.9530  136.6700 C   0  0  0  0  0  2  0  0  0  0  0  0
  194.3450  175.1600  136.4870 C   0  0  2  0  0  3  0  0  0  0  0  0
  193.1480  174.8210  137.3910 C   0  0  0  0  0  2  0  0  0  0  0  0
  193.9500  175.3610  135.0140 C   0  0  0  0  0  2  0  0  0  0  0  0
  191.5830  174.6220  135.3970 C   0  0  1  0  0  3  0  0  0  0  0  0
  196.9760  173.8350  138.4200 C   0  0  2  0  0  3  0  0  0  0  0  0
  195.4470  174.1000  136.5950 C   0  0  2  0  0  3  0  0  0  0  0  0
  197.4100  174.8580  137.3930 C   0  0  0  0  0  2  0  0  0  0  0  0
  195.3360  172.0500  137.9630 C   0  0  0  0  0  1  0  0  0  0  0  0
  195.5590  173.5440  138.0010 C   0  0  1  0  0  3  0  0  0  0  0  0
  196.6920  174.6340  136.2130 O   0  0  0  0  0  0  0  0  0  0  0  0
  198.1650  175.3100  139.8620 C   0  0  0  0  0  1  0  0  0  0  0  0
  197.0300  174.4010  139.7770 N   0  0  0  0  0  0  0  0  0  0  0  0
  195.8540  175.2410  139.9650 C   0  0  0  0  0  1  0  0  0  0  0  0
  1  6  1  0  0  0  0
  1  7  1  0  0  0  0
  2  4  1  0  0  0  0
  3  1  2  0  0  0  0
  4  6  2  0  0  0  0
  5  2  2  0  0  0  0
  5  3  1  0  0  0  0
  7  8  1  0  0  0  0
  8  9  1  0  0  0  0
 10 18  2  0  0  0  0
 12 11  2  0  0  0  0
 13 23  1  1  0  0  0
 14  9  1  1  0  0  0
 14 16  1  0  0  0  0
 14 20  1  0  0  0  0
 16 21  1  0  0  0  0
 17 15  1  0  0  0  0
 17 22  1  0  0  0  0
 17 13  1  0  0  0  0
 19 18  1  6  0  0  0
 19 13  1  0  0  0  0
 19 24  1  0  0  0  0
 20 25  1  6  0  0  0
 20 19  1  0  0  0  0
 21 17  1  0  0  0  0
 23 12  1  0  0  0  0
 24 18  1  6  0  0  0
 24 12  1  0  0  0  0
 25 26  1  6  0  0  0
 25 27  1  0  0  0  0
 26 28  1  0  0  0  0
 27 30  1  1  0  0  0
 28 27  1  0  0  0  0
 30 29  1  0  0  0  0
 31 40  1  6  0  0  0
 31  3  1  0  0  0  0
 31 33  1  0  0  0  0
 33 32  1  6  0  0  0
 34 36  2  0  0  0  0
 34 35  1  0  0  0  0
 35 39  2  0  0  0  0
 36 38  1  0  0  0  0
 38 37  2  0  0  0  0
 39 37  1  0  0  0  0
 39 33  1  0  0  0  0
 41 45  1  0  0  0  0
 41 46  1  0  0  0  0
 42 44  1  0  0  0  0
 43 45  1  6  0  0  0
 43 48  1  0  0  0  0
 43 44  1  0  0  0  0
 46 40  1  1  0  0  0
 46 42  1  0  0  0  0
 47 54  1  1  0  0  0
 48 52  1  1  0  0  0
 48 51  1  0  0  0  0
 49 47  1  0  0  0  0
 51 50  1  6  0  0  0
 51 47  1  0  0  0  0
 52 49  1  0  0  0  0
 54 53  1  0  0  0  0
 54 55  1  0  0  0  0
M  END
>  <MODEL>
7

>  <REMARK>
 VINA RESULT:      -6.9      4.494      9.142
  Name = 
  13 active torsions:
  status: ('A' for Active; 'I' for Inactive)
    1  A    between atoms: C_3  and  N_27
    2  A    between atoms: C_4  and  N_17
    3  A    between atoms: C_9  and  C_53
    4  A    between atoms: C_13  and  C_32
    5  A    between atoms: N_17  and  N_45
    6  A    between atoms: C_21  and  C_33
    7  A    between atoms: C_23  and  C_35
    8  A    between atoms: C_32  and  N_45
    9  A    between atoms: C_37  and  C_38
   10  A    between atoms: C_37  and  C_53
   11  A    between atoms: C_41  and  C_55
   12  A    between atoms: C_49  and  C_53
   13  A    between atoms: C_49  and  C_54
                            x       y       z     vdW  Elec       q    Type
                         _______ _______ _______ _____ _____    ______ ____

>  <TORSDO>
F 13

$$$$
=
 OpenBabel11062415113D

 55 62  0  0  1  0  0  0  0  0999 V2000
  189.4840  177.0230  138.7240 C   0  0  0  0  0  0  0  0  0  0  0  0
  188.7070  178.4040  136.4520 N   0  0  0  0  0  0  0  0  0  0  0  0
  190.0210  176.6760  137.4690 C   0  0  0  0  0  0  0  0  0  0  0  0
  188.1600  178.7360  137.6520 C   0  0  0  0  0  3  0  0  0  0  0  0
  189.6210  177.4040  136.3390 C   0  0  0  0  0  3  0  0  0  0  0  0
  188.5450  178.0570  138.8090 C   0  0  0  0  0  3  0  0  0  0  0  0
  189.9440  176.3710  139.9080 N   0  0  0  0  0  2  0  0  0  0  0  0
  190.9670  176.9330  140.6890 N   0  0  0  0  0  2  0  0  0  0  0  0
  190.3650  177.4950  141.8940 C   0  0  0  0  0  2  0  0  0  0  0  0
  191.2720  179.5080  144.7140 C   0  0  0  0  0  2  0  0  0  0  0  0
  189.2320  178.6270  148.3470 O   0  0  0  0  0  0  0  0  0  0  0  0
  189.4270  177.9790  147.2870 C   0  0  0  0  0  0  0  0  0  0  0  0
  190.0850  176.2660  145.9410 C   0  0  2  0  0  3  0  0  0  0  0  0
  189.6220  176.4240  142.7150 C   0  0  1  0  0  3  0  0  0  0  0  0
  191.6960  174.5310  146.0140 F   0  0  0  0  0  0  0  0  0  0  0  0
  190.5310  175.2850  143.2130 C   0  0  0  0  0  2  0  0  0  0  0  0
  191.4960  175.8120  145.5340 C   0  0  0  0  0  0  0  0  0  0  0  0
  190.2540  178.7350  145.0810 C   0  0  0  0  0  0  0  0  0  0  0  0
  189.5030  177.4030  145.0850 C   0  0  1  0  0  0  0  0  0  0  0  0
  188.7150  177.0160  143.8180 C   0  0  1  0  0  3  0  0  0  0  0  0
  191.7230  175.8100  144.0170 C   0  0  0  0  0  2  0  0  0  0  0  0
  192.4420  176.6450  146.1070 F   0  0  0  0  0  0  0  0  0  0  0  0
  190.0510  176.7520  147.2660 O   0  0  0  0  0  0  0  0  0  0  0  0
  189.0080  178.4460  145.9430 C   0  0  1  0  0  3  0  0  0  0  0  0
  187.7480  178.1080  143.3060 C   0  0  1  0  0  3  0  0  0  0  0  0
  186.9390  177.6690  142.0940 C   0  0  0  0  0  2  0  0  0  0  0  0
  186.4420  178.2650  144.0990 C   0  0  1  0  0  3  0  0  0  0  0  0
  185.6470  177.8820  142.8630 C   0  0  0  0  0  2  0  0  0  0  0  0
  185.5850  177.8830  146.3540 O   0  0  0  0  0  1  0  0  0  0  0  0
  186.2000  177.2740  145.2520 C   0  0  0  0  0  2  0  0  0  0  0  0
  191.0420  175.5740  137.3530 C   0  0  1  0  0  3  0  0  0  0  0  0
  191.0370  175.3070  134.9290 O   0  0  0  0  0  1  0  0  0  0  0  0
  190.8250  174.6420  136.1440 C   0  0  2  0  0  3  0  0  0  0  0  0
  187.9320  172.5400  137.2230 C   0  0  0  0  0  3  0  0  0  0  0  0
  189.1360  173.1690  137.2070 N   0  0  0  0  0  0  0  0  0  0  0  0
  187.0270  172.7250  136.1740 C   0  0  0  0  0  3  0  0  0  0  0  0
  188.6090  174.1730  135.1430 N   0  0  0  0  0  0  0  0  0  0  0  0
  187.3940  173.5610  135.1260 C   0  0  0  0  0  3  0  0  0  0  0  0
  189.4750  173.9870  136.1780 C   0  0  0  0  0  0  0  0  0  0  0  0
  192.4620  176.1360  137.4410 C   0  0  0  0  0  2  0  0  0  0  0  0
  194.6750  175.9610  136.1650 C   0  0  0  0  0  2  0  0  0  0  0  0
  194.0410  174.2110  137.9520 C   0  0  0  0  0  2  0  0  0  0  0  0
  196.4600  174.4810  137.2340 C   0  0  2  0  0  3  0  0  0  0  0  0
  195.4680  174.5030  138.4080 C   0  0  0  0  0  2  0  0  0  0  0  0
  195.8600  175.0280  135.9270 C   0  0  0  0  0  2  0  0  0  0  0  0
  193.5510  175.2110  136.8950 C   0  0  1  0  0  3  0  0  0  0  0  0
  195.8780  171.2460  135.9630 C   0  0  2  0  0  3  0  0  0  0  0  0
  197.0250  173.0750  137.0030 C   0  0  2  0  0  3  0  0  0  0  0  0
  195.5900  171.3970  137.4410 C   0  0  0  0  0  2  0  0  0  0  0  0
  197.8630  172.2010  134.8530 C   0  0  0  0  0  1  0  0  0  0  0  0
  196.6210  172.5190  135.6520 C   0  0  1  0  0  3  0  0  0  0  0  0
  196.5920  172.1920  138.0100 O   0  0  0  0  0  0  0  0  0  0  0  0
  193.5580  170.7260  136.0870 C   0  0  0  0  0  1  0  0  0  0  0  0
  194.6280  171.1510  135.1940 N   0  0  0  0  0  0  0  0  0  0  0  0
  194.2560  172.4930  134.7640 C   0  0  0  0  0  1  0  0  0  0  0  0
  1  6  1  0  0  0  0
  1  7  1  0  0  0  0
  2  4  1  0  0  0  0
  3  1  2  0  0  0  0
  4  6  2  0  0  0  0
  5  2  2  0  0  0  0
  5  3  1  0  0  0  0
  7  8  1  0  0  0  0
  8  9  1  0  0  0  0
 10 18  2  0  0  0  0
 12 11  2  0  0  0  0
 13 23  1  1  0  0  0
 14  9  1  1  0  0  0
 14 16  1  0  0  0  0
 14 20  1  0  0  0  0
 16 21  1  0  0  0  0
 17 13  1  0  0  0  0
 17 15  1  0  0  0  0
 17 22  1  0  0  0  0
 19 18  1  6  0  0  0
 19 13  1  0  0  0  0
 19 24  1  0  0  0  0
 20 25  1  6  0  0  0
 20 19  1  0  0  0  0
 21 17  1  0  0  0  0
 23 12  1  0  0  0  0
 24 18  1  6  0  0  0
 24 12  1  0  0  0  0
 25 26  1  6  0  0  0
 25 27  1  0  0  0  0
 26 28  1  0  0  0  0
 27 30  1  1  0  0  0
 28 27  1  0  0  0  0
 30 29  1  0  0  0  0
 31 40  1  6  0  0  0
 31  3  1  0  0  0  0
 33 32  1  6  0  0  0
 33 39  1  0  0  0  0
 33 31  1  0  0  0  0
 35 34  1  0  0  0  0
 36 34  2  0  0  0  0
 37 39  1  0  0  0  0
 38 37  2  0  0  0  0
 38 36  1  0  0  0  0
 39 35  2  0  0  0  0
 41 46  1  0  0  0  0
 42 44  1  0  0  0  0
 43 45  1  6  0  0  0
 43 44  1  0  0  0  0
 45 41  1  0  0  0  0
 46 40  1  1  0  0  0
 46 42  1  0  0  0  0
 47 54  1  6  0  0  0
 47 49  1  0  0  0  0
 48 43  1  0  0  0  0
 48 52  1  1  0  0  0
 49 52  1  0  0  0  0
 51 50  1  6  0  0  0
 51 47  1  0  0  0  0
 51 48  1  0  0  0  0
 54 53  1  0  0  0  0
 55 54  1  0  0  0  0
M  END
>  <MODEL>
8

>  <REMARK>
 VINA RESULT:      -6.5      4.847      9.135
  Name = 
  13 active torsions:
  status: ('A' for Active; 'I' for Inactive)
    1  A    between atoms: C_3  and  N_27
    2  A    between atoms: C_4  and  N_17
    3  A    between atoms: C_9  and  C_53
    4  A    between atoms: C_13  and  C_32
    5  A    between atoms: N_17  and  N_45
    6  A    between atoms: C_21  and  C_33
    7  A    between atoms: C_23  and  C_35
    8  A    between atoms: C_32  and  N_45
    9  A    between atoms: C_37  and  C_38
   10  A    between atoms: C_37  and  C_53
   11  A    between atoms: C_41  and  C_55
   12  A    between atoms: C_49  and  C_53
   13  A    between atoms: C_49  and  C_54
                            x       y       z     vdW  Elec       q    Type
                         _______ _______ _______ _____ _____    ______ ____

>  <TORSDO>
F 13

$$$$
=
 OpenBabel11062415113D

 55 62  0  0  1  0  0  0  0  0999 V2000
  185.4310  178.6180  142.5660 C   0  0  0  0  0  0  0  0  0  0  0  0
  185.0260  178.9150  145.2900 N   0  0  0  0  0  0  0  0  0  0  0  0
  186.5110  178.4830  143.4590 C   0  0  0  0  0  0  0  0  0  0  0  0
  183.9760  179.0740  144.4400 C   0  0  0  0  0  3  0  0  0  0  0  0
  186.2720  178.6220  144.8340 C   0  0  0  0  0  3  0  0  0  0  0  0
  184.1590  178.9210  143.0650 C   0  0  0  0  0  3  0  0  0  0  0  0
  185.6170  178.3840  141.1700 N   0  0  0  0  0  2  0  0  0  0  0  0
  185.3690  179.3970  140.2290 N   0  0  0  0  0  2  0  0  0  0  0  0
  184.0370  179.1840  139.6720 C   0  0  0  0  0  2  0  0  0  0  0  0
  181.2050  180.3480  137.8130 C   0  0  0  0  0  2  0  0  0  0  0  0
  179.2490  177.4310  135.4050 O   0  0  0  0  0  0  0  0  0  0  0  0
  180.0240  177.3570  136.3920 C   0  0  0  0  0  0  0  0  0  0  0  0
  180.7730  176.7670  138.4580 C   0  0  2  0  0  3  0  0  0  0  0  0
  183.7350  177.6860  139.4710 C   0  0  1  0  0  3  0  0  0  0  0  0
  179.8120  176.1980  140.5480 F   0  0  0  0  0  0  0  0  0  0  0  0
  182.8070  177.0920  140.5460 C   0  0  0  0  0  2  0  0  0  0  0  0
  180.3420  177.2660  139.8470 C   0  0  0  0  0  0  0  0  0  0  0  0
  181.4380  179.0900  137.4470 C   0  0  0  0  0  0  0  0  0  0  0  0
  181.8230  177.6440  137.7570 C   0  0  1  0  0  0  0  0  0  0  0  0
  183.3090  177.3350  138.0270 C   0  0  1  0  0  3  0  0  0  0  0  0
  181.4920  177.8670  140.6640 C   0  0  0  0  0  2  0  0  0  0  0  0
  179.3590  178.2320  139.7160 F   0  0  0  0  0  0  0  0  0  0  0  0
  179.6850  176.7120  137.5600 O   0  0  0  0  0  0  0  0  0  0  0  0
  181.3860  177.9420  136.4200 C   0  0  1  0  0  3  0  0  0  0  0  0
  184.2800  177.8660  136.9470 C   0  0  1  0  0  3  0  0  0  0  0  0
  185.7390  177.8130  137.3760 C   0  0  0  0  0  2  0  0  0  0  0  0
  184.5990  176.8930  135.8020 C   0  0  1  0  0  3  0  0  0  0  0  0
  186.0620  176.8980  136.2080 C   0  0  0  0  0  2  0  0  0  0  0  0
  183.0250  175.2540  134.9080 O   0  0  0  0  0  1  0  0  0  0  0  0
  183.9940  175.4810  135.8950 C   0  0  0  0  0  2  0  0  0  0  0  0
  187.8880  178.1480  142.9480 C   0  0  1  0  0  3  0  0  0  0  0  0
  187.2740  175.8780  143.5950 O   0  0  0  0  0  1  0  0  0  0  0  0
  188.3530  176.7170  143.2880 C   0  0  2  0  0  3  0  0  0  0  0  0
  189.9670  177.1070  146.6340 C   0  0  0  0  0  3  0  0  0  0  0  0
  189.0350  177.0720  145.6450 N   0  0  0  0  0  0  0  0  0  0  0  0
  191.2970  176.7740  146.3600 C   0  0  0  0  0  3  0  0  0  0  0  0
  190.6710  176.3880  144.0970 N   0  0  0  0  0  0  0  0  0  0  0  0
  191.6310  176.4120  145.0600 C   0  0  0  0  0  3  0  0  0  0  0  0
  189.3790  176.7090  144.3840 C   0  0  0  0  0  0  0  0  0  0  0  0
  188.0160  178.4920  141.4630 C   0  0  0  0  0  2  0  0  0  0  0  0
  188.3120  177.5430  139.1030 C   0  0  0  0  0  2  0  0  0  0  0  0
  190.1050  177.1500  140.9170 C   0  0  0  0  0  2  0  0  0  0  0  0
  190.6930  176.8770  138.4630 C   0  0  2  0  0  3  0  0  0  0  0  0
  191.0190  177.6010  139.7810 C   0  0  0  0  0  2  0  0  0  0  0  0
  189.1900  176.6000  138.2830 C   0  0  0  0  0  2  0  0  0  0  0  0
  188.6210  177.3840  140.5990 C   0  0  1  0  0  3  0  0  0  0  0  0
  192.2960  174.6170  136.2860 C   0  0  2  0  0  3  0  0  0  0  0  0
  191.4870  175.5730  138.3290 C   0  0  2  0  0  3  0  0  0  0  0  0
  190.8610  174.2610  136.6110 C   0  0  0  0  0  2  0  0  0  0  0  0
  193.9220  175.4070  137.9650 C   0  0  0  0  0  1  0  0  0  0  0  0
  192.5940  175.6900  137.3010 C   0  0  1  0  0  3  0  0  0  0  0  0
  190.6400  174.5080  137.9710 O   0  0  0  0  0  0  0  0  0  0  0  0
  191.2670  175.9940  134.6380 C   0  0  0  0  0  1  0  0  0  0  0  0
  192.4080  175.1310  134.9120 N   0  0  0  0  0  0  0  0  0  0  0  0
  193.5720  176.0050  134.8480 C   0  0  0  0  0  1  0  0  0  0  0  0
  1  6  2  0  0  0  0
  1  3  1  0  0  0  0
  3  5  2  0  0  0  0
  4  2  2  0  0  0  0
  5  2  1  0  0  0  0
  6  4  1  0  0  0  0
  7  1  1  0  0  0  0
  8  7  1  0  0  0  0
  9  8  1  0  0  0  0
 11 12  2  0  0  0  0
 12 23  1  0  0  0  0
 13 23  1  6  0  0  0
 13 17  1  0  0  0  0
 14  9  1  6  0  0  0
 14 16  1  0  0  0  0
 16 21  1  0  0  0  0
 17 15  1  0  0  0  0
 17 21  1  0  0  0  0
 18 10  2  0  0  0  0
 19 18  1  1  0  0  0
 19 20  1  0  0  0  0
 19 13  1  0  0  0  0
 20 25  1  6  0  0  0
 20 14  1  0  0  0  0
 22 17  1  0  0  0  0
 24 12  1  1  0  0  0
 24 18  1  0  0  0  0
 24 19  1  0  0  0  0
 25 26  1  1  0  0  0
 27 30  1  1  0  0  0
 27 28  1  0  0  0  0
 27 25  1  0  0  0  0
 28 26  1  0  0  0  0
 29 30  1  0  0  0  0
 31 40  1  6  0  0  0
 31 33  1  0  0  0  0
 31  3  1  0  0  0  0
 33 32  1  1  0  0  0
 33 39  1  0  0  0  0
 35 34  1  0  0  0  0
 36 34  2  0  0  0  0
 37 39  1  0  0  0  0
 37 38  2  0  0  0  0
 38 36  1  0  0  0  0
 39 35  2  0  0  0  0
 41 46  1  0  0  0  0
 43 45  1  1  0  0  0
 43 44  1  0  0  0  0
 44 42  1  0  0  0  0
 45 41  1  0  0  0  0
 46 42  1  0  0  0  0
 46 40  1  1  0  0  0
 47 54  1  6  0  0  0
 47 49  1  0  0  0  0
 47 51  1  0  0  0  0
 48 52  1  6  0  0  0
 48 43  1  0  0  0  0
 49 52  1  0  0  0  0
 51 50  1  1  0  0  0
 51 48  1  0  0  0  0
 53 54  1  0  0  0  0
 55 54  1  0  0  0  0
M  END
>  <MODEL>
9

>  <REMARK>
 VINA RESULT:      -6.5      1.390      1.656
  Name = 
  13 active torsions:
  status: ('A' for Active; 'I' for Inactive)
    1  A    between atoms: C_3  and  N_27
    2  A    between atoms: C_4  and  N_17
    3  A    between atoms: C_9  and  C_53
    4  A    between atoms: C_13  and  C_32
    5  A    between atoms: N_17  and  N_45
    6  A    between atoms: C_21  and  C_33
    7  A    between atoms: C_23  and  C_35
    8  A    between atoms: C_32  and  N_45
    9  A    between atoms: C_37  and  C_38
   10  A    between atoms: C_37  and  C_53
   11  A    between atoms: C_41  and  C_55
   12  A    between atoms: C_49  and  C_53
   13  A    between atoms: C_49  and  C_54
                            x       y       z     vdW  Elec       q    Type
                         _______ _______ _______ _____ _____    ______ ____

>  <TORSDO>
F 13

$$$$
