=
 OpenBabel11062414073D

 53 60  0  0  1  0  0  0  0  0999 V2000
  182.5990  177.0850  140.6350 C   0  0  0  0  0  2  0  0  0  0  0  0
  183.9980  177.9090  138.2910 C   0  0  0  0  0  0  0  0  0  0  0  0
  183.4640  176.6960  138.3590 C   0  0  0  0  0  0  0  0  0  0  0  0
  184.2760  175.4390  137.3940 S   0  0  0  0  0  0  0  0  0  0  0  0
  185.6540  176.6070  137.0940 C   0  0  2  0  0  3  0  0  0  0  0  0
  182.3300  176.4060  139.2930 C   0  0  0  0  0  2  0  0  0  0  0  0
  183.4190  179.0620  139.0800 C   0  0  2  0  0  0  0  0  0  0  0  0
  184.3750  180.0800  139.1960 O   0  0  0  0  0  1  0  0  0  0  0  0
  185.1830  178.0240  137.3980 C   0  0  0  0  0  2  0  0  0  0  0  0
  182.9290  178.5900  140.4870 C   0  0  2  0  0  3  0  0  0  0  0  0
  181.0590  179.5460  139.0750 O   0  0  0  0  0  1  0  0  0  0  0  0
  182.2240  179.6110  138.3060 C   0  0  0  0  0  2  0  0  0  0  0  0
  186.1250  176.5350  135.6490 C   0  0  0  0  0  2  0  0  0  0  0  0
  187.5870  176.1240  135.5360 C   0  0  0  0  0  2  0  0  0  0  0  0
  187.7290  174.7950  134.8120 C   0  0  0  0  0  2  0  0  0  0  0  0
  188.1860  173.6950  135.7730 C   0  0  2  0  0  3  0  0  0  0  0  0
  191.2570  175.0600  136.7920 C   0  0  2  0  0  3  0  0  0  0  0  0
  189.7080  173.5440  135.8070 C   0  0  1  0  0  3  0  0  0  0  0  0
  190.3200  174.2710  134.7670 O   0  0  0  0  0  0  0  0  0  0  0  0
  191.4840  174.8310  135.3190 C   0  0  0  0  0  2  0  0  0  0  0  0
  190.2450  174.0130  137.1400 C   0  0  0  0  0  2  0  0  0  0  0  0
  190.2160  176.8280  138.2750 C   0  0  0  0  0  0  0  0  0  0  0  0
  190.4010  176.1120  139.2960 O   0  0  0  0  0  0  0  0  0  0  0  0
  190.6740  176.3780  136.9950 N   0  0  0  0  0  2  0  0  0  0  0  0
  189.1060  178.8760  137.1890 C   0  0  0  0  0  1  0  0  0  0  0  0
  189.2710  178.6410  139.5970 C   0  0  0  0  0  2  0  0  0  0  0  0
  189.5200  178.1200  138.4030 C   0  0  0  0  0  0  0  0  0  0  0  0
  187.4840  172.3560  135.5150 C   0  0  2  0  0  0  0  0  0  0  0  0
  186.1030  172.3580  135.6570 C   0  0  0  0  0  0  0  0  0  0  0  0
  187.0540  171.7770  136.7090 N   0  0  0  0  0  2  0  0  0  0  0  0
  184.9450  172.6290  135.2470 O   0  0  0  0  0  0  0  0  0  0  0  0
  188.1240  171.3030  134.5940 C   0  0  1  0  0  3  0  0  0  0  0  0
  188.6390  170.2260  135.3450 O   0  0  0  0  0  0  0  0  0  0  0  0
  187.4240  169.9990  134.6760 C   0  0  0  0  0  2  0  0  0  0  0  0
  183.7350  179.1280  141.6790 C   0  0  0  0  0  2  0  0  0  0  0  0
  185.0070  178.3440  143.6830 C   0  0  0  0  0  0  0  0  0  0  0  0
  186.1260  178.3440  141.4460 C   0  0  0  0  0  2  0  0  0  0  0  0
  184.7820  178.3320  145.9650 N   0  0  0  0  0  0  0  0  0  0  0  0
  183.9640  178.3800  144.7550 C   0  0  1  0  0  3  0  0  0  0  0  0
  186.0180  178.2370  145.6900 N   0  0  0  0  0  0  0  0  0  0  0  0
  183.2450  179.6400  144.7090 N   0  0  0  0  0  1  0  0  0  0  0  0
  187.2420  177.5580  142.1310 C   0  0  0  0  0  2  0  0  0  0  0  0
  186.1790  178.2080  144.2820 C   0  0  0  0  0  0  0  0  0  0  0  0
  184.8020  178.1650  142.2000 C   0  0  2  0  0  3  0  0  0  0  0  0
  187.4950  178.1060  143.5460 C   0  0  1  0  0  3  0  0  0  0  0  0
  189.7560  177.3410  143.6220 C   0  0  1  0  0  3  0  0  0  0  0  0
  188.4440  177.2530  144.2720 N   0  0  1  0  0  0  0  0  0  0  0  0
  188.9920  178.0280  145.3860 C   0  0  1  0  0  3  0  0  0  0  0  0
  189.0410  177.1700  146.6400 C   0  0  0  0  0  1  0  0  0  0  0  0
  190.3680  178.1130  144.7680 C   0  0  0  0  0  2  0  0  0  0  0  0
  190.3910  175.9620  143.5280 C   0  0  0  0  0  2  0  0  0  0  0  0
  192.0620  174.7780  144.3480 C   0  0  0  0  0  1  0  0  0  0  0  0
  191.7460  176.0410  143.8500 O   0  0  0  0  0  0  0  0  0  0  0  0
  2  3  2  0  0  0  0
  2  7  1  0  0  0  0
  3  6  1  0  0  0  0
  4  3  1  0  0  0  0
  5 13  1  6  0  0  0
  5  4  1  0  0  0  0
  5  9  1  0  0  0  0
  6  1  1  0  0  0  0
  7  8  1  1  0  0  0
  7 10  1  0  0  0  0
  9  2  1  0  0  0  0
 10  1  1  0  0  0  0
 10 35  1  1  0  0  0
 12 11  1  0  0  0  0
 12  7  1  0  0  0  0
 14 13  1  0  0  0  0
 15 14  1  0  0  0  0
 16 15  1  6  0  0  0
 17 24  1  6  0  0  0
 17 21  1  0  0  0  0
 18 16  1  1  0  0  0
 18 21  1  0  0  0  0
 19 20  1  0  0  0  0
 19 18  1  0  0  0  0
 20 17  1  0  0  0  0
 22 27  1  0  0  0  0
 22 23  2  0  0  0  0
 24 22  1  0  0  0  0
 25 27  1  0  0  0  0
 27 26  2  0  0  0  0
 28 29  1  0  0  0  0
 28 16  1  1  0  0  0
 28 30  1  0  0  0  0
 29 30  1  0  0  0  0
 31 29  2  0  0  0  0
 32 34  1  6  0  0  0
 32 33  1  0  0  0  0
 32 28  1  0  0  0  0
 34 33  1  0  0  0  0
 36 43  2  0  0  0  0
 36 39  1  0  0  0  0
 37 42  1  0  0  0  0
 37 44  1  0  0  0  0
 39 41  1  1  0  0  0
 39 38  1  0  0  0  0
 40 38  2  0  0  0  0
 43 40  1  0  0  0  0
 44 35  1  6  0  0  0
 44 36  1  0  0  0  0
 45 42  1  6  0  0  0
 45 43  1  0  0  0  0
 46 51  1  1  0  0  0
 46 47  1  0  0  0  0
 46 50  1  0  0  0  0
 47 45  1  6  0  0  0
 47 48  1  0  0  0  0
 48 49  1  1  0  0  0
 50 48  1  0  0  0  0
 51 53  1  0  0  0  0
 53 52  1  0  0  0  0
M  END
>  <MODEL>
1

>  <REMARK>
 VINA RESULT:      -7.1      0.000      0.000
  Name = 
  15 active torsions:
  status: ('A' for Active; 'I' for Inactive)
    1  A    between atoms: C_1  and  C_3
    2  A    between atoms: C_1  and  C_37
    3  A    between atoms: C_2  and  C_25
    4  A    between atoms: C_2  and  C_37
    5  A    between atoms: C_4  and  C_23
    6  A    between atoms: C_4  and  C_25
    7  A    between atoms: C_16  and  C_26
    8  A    between atoms: O_18  and  C_43
    9  A    between atoms: C_24  and  C_49
   10  A    between atoms: C_24  and  C_50
   11  A    between atoms: C_27  and  C_43
   12  A    between atoms: C_31  and  N_53
   13  A    between atoms: C_32  and  C_33
   14  A    between atoms: C_34  and  C_37
   15  A    between atoms: N_35  and  C_52
                            x       y       z     vdW  Elec       q    Type
                         _______ _______ _______ _____ _____    ______ ____

>  <TORSDO>
F 15

$$$$
=
 OpenBabel11062414073D

 53 60  0  0  1  0  0  0  0  0999 V2000
  189.3060  175.6400  136.9070 C   0  0  0  0  0  2  0  0  0  0  0  0
  188.5260  177.7260  138.6880 C   0  0  0  0  0  0  0  0  0  0  0  0
  189.5250  176.9130  139.0080 C   0  0  0  0  0  0  0  0  0  0  0  0
  189.7830  176.6560  140.7500 S   0  0  0  0  0  0  0  0  0  0  0  0
  188.1940  177.5040  141.0770 C   0  0  2  0  0  3  0  0  0  0  0  0
  190.2860  176.1770  137.9490 C   0  0  0  0  0  2  0  0  0  0  0  0
  188.1840  178.0120  137.2420 C   0  0  2  0  0  0  0  0  0  0  0  0
  186.8780  178.5090  137.1570 O   0  0  0  0  0  1  0  0  0  0  0  0
  187.7930  178.3070  139.8460 C   0  0  0  0  0  2  0  0  0  0  0  0
  188.3580  176.7340  136.3600 C   0  0  2  0  0  3  0  0  0  0  0  0
  189.1360  180.1990  137.5820 O   0  0  0  0  0  1  0  0  0  0  0  0
  189.1420  179.0880  136.7350 C   0  0  0  0  0  2  0  0  0  0  0  0
  188.3120  178.4410  142.2700 C   0  0  0  0  0  2  0  0  0  0  0  0
  188.2520  177.6980  143.5990 C   0  0  0  0  0  2  0  0  0  0  0  0
  189.4380  178.0540  144.4800 C   0  0  0  0  0  2  0  0  0  0  0  0
  189.7290  176.9330  145.4810 C   0  0  2  0  0  3  0  0  0  0  0  0
  186.9940  177.9940  147.4120 C   0  0  2  0  0  3  0  0  0  0  0  0
  189.1890  177.2440  146.8790 C   0  0  1  0  0  3  0  0  0  0  0  0
  189.2620  178.6220  147.1630 O   0  0  0  0  0  0  0  0  0  0  0  0
  188.0820  178.9360  147.8580 C   0  0  0  0  0  2  0  0  0  0  0  0
  187.7580  176.7740  146.9970 C   0  0  0  0  0  2  0  0  0  0  0  0
  184.8860  178.5660  146.1310 C   0  0  0  0  0  0  0  0  0  0  0  0
  184.1700  178.1740  147.0920 O   0  0  0  0  0  0  0  0  0  0  0  0
  186.3130  178.5510  146.2520 N   0  0  0  0  0  2  0  0  0  0  0  0
  185.0740  179.6190  143.7940 C   0  0  0  0  0  1  0  0  0  0  0  0
  182.9370  178.9440  144.7220 C   0  0  0  0  0  2  0  0  0  0  0  0
  184.2510  179.0260  144.8850 C   0  0  0  0  0  0  0  0  0  0  0  0
  191.2110  176.5410  145.5150 C   0  0  2  0  0  0  0  0  0  0  0  0
  191.6990  176.1230  146.7470 C   0  0  0  0  0  0  0  0  0  0  0  0
  191.9730  177.5130  146.1610 N   0  0  0  0  0  2  0  0  0  0  0  0
  191.8250  175.2650  147.6580 O   0  0  0  0  0  0  0  0  0  0  0  0
  191.9180  176.0460  144.2410 C   0  0  1  0  0  3  0  0  0  0  0  0
  192.2860  174.6890  144.3670 O   0  0  0  0  0  0  0  0  0  0  0  0
  191.1580  174.9620  143.5740 C   0  0  0  0  0  2  0  0  0  0  0  0
  187.0580  176.1440  135.7930 C   0  0  0  0  0  2  0  0  0  0  0  0
  185.4490  174.6180  136.9470 C   0  0  0  0  0  0  0  0  0  0  0  0
  184.7510  176.9630  136.4260 C   0  0  0  0  0  2  0  0  0  0  0  0
  185.2590  172.3910  137.4600 N   0  0  0  0  0  0  0  0  0  0  0  0
  186.2810  173.3970  137.1800 C   0  0  1  0  0  3  0  0  0  0  0  0
  184.0940  172.8950  137.4510 N   0  0  0  0  0  0  0  0  0  0  0  0
  186.9900  173.0390  135.9640 N   0  0  0  0  0  1  0  0  0  0  0  0
  183.5350  176.6750  137.3040 C   0  0  0  0  0  2  0  0  0  0  0  0
  184.1890  174.2810  137.1700 C   0  0  0  0  0  0  0  0  0  0  0  0
  185.9190  176.0440  136.8090 C   0  0  2  0  0  3  0  0  0  0  0  0
  183.0290  175.2420  137.0660 C   0  0  1  0  0  3  0  0  0  0  0  0
  181.1870  176.1050  138.3180 C   0  0  1  0  0  3  0  0  0  0  0  0
  181.9690  174.9000  138.0230 N   0  0  1  0  0  0  0  0  0  0  0  0
  180.8210  174.3930  137.2690 C   0  0  1  0  0  3  0  0  0  0  0  0
  180.2480  173.1660  137.9600 C   0  0  0  0  0  1  0  0  0  0  0  0
  179.9700  175.6020  137.5780 C   0  0  0  0  0  2  0  0  0  0  0  0
  180.8910  176.1900  139.8080 C   0  0  0  0  0  2  0  0  0  0  0  0
  180.2910  177.9420  141.0070 C   0  0  0  0  0  1  0  0  0  0  0  0
  181.3730  177.3940  140.3200 O   0  0  0  0  0  0  0  0  0  0  0  0
  1  6  1  0  0  0  0
  2  3  2  0  0  0  0
  2  9  1  0  0  0  0
  3  4  1  0  0  0  0
  4  5  1  0  0  0  0
  5 13  1  1  0  0  0
  6  3  1  0  0  0  0
  7  8  1  6  0  0  0
  7  2  1  0  0  0  0
  9  5  1  0  0  0  0
 10 35  1  1  0  0  0
 10  1  1  0  0  0  0
 10  7  1  0  0  0  0
 12  7  1  0  0  0  0
 12 11  1  0  0  0  0
 13 14  1  0  0  0  0
 14 15  1  0  0  0  0
 16 15  1  6  0  0  0
 17 24  1  6  0  0  0
 17 20  1  0  0  0  0
 18 16  1  6  0  0  0
 18 21  1  0  0  0  0
 18 19  1  0  0  0  0
 19 20  1  0  0  0  0
 21 17  1  0  0  0  0
 22 24  1  0  0  0  0
 22 23  2  0  0  0  0
 25 27  1  0  0  0  0
 26 27  2  0  0  0  0
 27 22  1  0  0  0  0
 28 16  1  6  0  0  0
 28 30  1  0  0  0  0
 28 29  1  0  0  0  0
 29 31  2  0  0  0  0
 30 29  1  0  0  0  0
 32 34  1  6  0  0  0
 32 33  1  0  0  0  0
 32 28  1  0  0  0  0
 34 33  1  0  0  0  0
 36 43  2  0  0  0  0
 36 39  1  0  0  0  0
 37 44  1  0  0  0  0
 37 42  1  0  0  0  0
 39 41  1  6  0  0  0
 39 38  1  0  0  0  0
 40 38  2  0  0  0  0
 43 40  1  0  0  0  0
 44 35  1  6  0  0  0
 44 36  1  0  0  0  0
 45 43  1  0  0  0  0
 45 42  1  1  0  0  0
 46 51  1  1  0  0  0
 47 45  1  6  0  0  0
 47 46  1  0  0  0  0
 48 50  1  0  0  0  0
 48 49  1  1  0  0  0
 48 47  1  0  0  0  0
 50 46  1  0  0  0  0
 51 53  1  0  0  0  0
 53 52  1  0  0  0  0
M  END
>  <MODEL>
2

>  <REMARK>
 VINA RESULT:      -6.9      2.889      9.630
  Name = 
  15 active torsions:
  status: ('A' for Active; 'I' for Inactive)
    1  A    between atoms: C_1  and  C_3
    2  A    between atoms: C_1  and  C_37
    3  A    between atoms: C_2  and  C_25
    4  A    between atoms: C_2  and  C_37
    5  A    between atoms: C_4  and  C_23
    6  A    between atoms: C_4  and  C_25
    7  A    between atoms: C_16  and  C_26
    8  A    between atoms: O_18  and  C_43
    9  A    between atoms: C_24  and  C_49
   10  A    between atoms: C_24  and  C_50
   11  A    between atoms: C_27  and  C_43
   12  A    between atoms: C_31  and  N_53
   13  A    between atoms: C_32  and  C_33
   14  A    between atoms: C_34  and  C_37
   15  A    between atoms: N_35  and  C_52
                            x       y       z     vdW  Elec       q    Type
                         _______ _______ _______ _____ _____    ______ ____

>  <TORSDO>
F 15

$$$$
=
 OpenBabel11062414073D

 53 60  0  0  1  0  0  0  0  0999 V2000
  189.4590  178.8330  138.3710 C   0  0  0  0  0  2  0  0  0  0  0  0
  188.2190  176.5510  137.1940 C   0  0  0  0  0  0  0  0  0  0  0  0
  187.7940  177.7720  136.8930 C   0  0  0  0  0  0  0  0  0  0  0  0
  186.0780  177.9030  136.4400 S   0  0  0  0  0  0  0  0  0  0  0  0
  185.8340  176.1750  136.9940 C   0  0  2  0  0  3  0  0  0  0  0  0
  188.6910  178.9590  137.0560 C   0  0  0  0  0  2  0  0  0  0  0  0
  189.6500  176.3040  137.6180 C   0  0  2  0  0  0  0  0  0  0  0  0
  189.7370  175.0770  138.2870 O   0  0  0  0  0  1  0  0  0  0  0  0
  187.1880  175.4830  137.0830 C   0  0  0  0  0  2  0  0  0  0  0  0
  190.1800  177.4710  138.5130 C   0  0  2  0  0  3  0  0  0  0  0  0
  191.4640  175.2140  136.4670 O   0  0  0  0  0  1  0  0  0  0  0  0
  190.5080  176.2270  136.3570 C   0  0  0  0  0  2  0  0  0  0  0  0
  184.9440  175.4120  136.0240 C   0  0  0  0  0  2  0  0  0  0  0  0
  183.5320  175.2180  136.5630 C   0  0  0  0  0  2  0  0  0  0  0  0
  182.8210  176.5510  136.7290 C   0  0  0  0  0  2  0  0  0  0  0  0
  181.9640  176.5580  137.9960 C   0  0  2  0  0  3  0  0  0  0  0  0
  179.6650  174.1180  136.9500 C   0  0  2  0  0  3  0  0  0  0  0  0
  180.5000  176.2120  137.7130 C   0  0  1  0  0  3  0  0  0  0  0  0
  180.1960  176.3430  136.3450 O   0  0  0  0  0  0  0  0  0  0  0  0
  179.3440  175.2710  136.0330 C   0  0  0  0  0  2  0  0  0  0  0  0
  180.2050  174.8010  138.1680 C   0  0  0  0  0  2  0  0  0  0  0  0
  180.9960  171.9700  136.8030 C   0  0  0  0  0  0  0  0  0  0  0  0
  180.2650  171.4310  137.6780 O   0  0  0  0  0  0  0  0  0  0  0  0
  180.7110  173.3000  136.3550 N   0  0  0  0  0  2  0  0  0  0  0  0
  183.5120  171.4460  136.8040 C   0  0  0  0  0  1  0  0  0  0  0  0
  181.9880  170.3820  135.2460 C   0  0  0  0  0  2  0  0  0  0  0  0
  182.1460  171.2310  136.2530 C   0  0  0  0  0  0  0  0  0  0  0  0
  182.0980  177.8610  138.7950 C   0  0  2  0  0  0  0  0  0  0  0  0
  181.6900  179.0170  138.1420 C   0  0  0  0  0  0  0  0  0  0  0  0
  183.1620  178.6300  138.3240 N   0  0  0  0  0  2  0  0  0  0  0  0
  180.7990  179.7960  137.7160 O   0  0  0  0  0  0  0  0  0  0  0  0
  182.0740  177.8410  140.3330 C   0  0  1  0  0  3  0  0  0  0  0  0
  181.2710  178.8880  140.8350 O   0  0  0  0  0  0  0  0  0  0  0  0
  180.7090  177.6000  140.8600 C   0  0  0  0  0  2  0  0  0  0  0  0
  190.4470  177.1050  139.9800 C   0  0  0  0  0  2  0  0  0  0  0  0
  190.1830  177.7870  142.3700 C   0  0  0  0  0  0  0  0  0  0  0  0
  188.1420  177.3800  140.9810 C   0  0  0  0  0  2  0  0  0  0  0  0
  191.4850  178.0350  144.2420 N   0  0  0  0  0  0  0  0  0  0  0  0
  191.5960  178.0470  142.7840 C   0  0  1  0  0  3  0  0  0  0  0  0
  190.2840  177.8610  144.6160 N   0  0  0  0  0  0  0  0  0  0  0  0
  192.4490  176.9530  142.3560 N   0  0  0  0  0  1  0  0  0  0  0  0
  187.3660  177.9860  142.1480 C   0  0  0  0  0  2  0  0  0  0  0  0
  189.4540  177.7400  143.4740 C   0  0  0  0  0  0  0  0  0  0  0  0
  189.5930  177.8780  140.9860 C   0  0  2  0  0  3  0  0  0  0  0  0
  187.9600  177.5190  143.4890 C   0  0  1  0  0  3  0  0  0  0  0  0
  185.8800  178.0090  144.5570 C   0  0  1  0  0  3  0  0  0  0  0  0
  187.3300  178.2270  144.6110 N   0  0  1  0  0  0  0  0  0  0  0  0
  187.3740  177.3510  145.7830 C   0  0  1  0  0  3  0  0  0  0  0  0
  187.7790  178.1500  147.0110 C   0  0  0  0  0  1  0  0  0  0  0  0
  185.8800  177.1280  145.7840 C   0  0  0  0  0  2  0  0  0  0  0  0
  185.1410  179.3060  144.8490 C   0  0  0  0  0  2  0  0  0  0  0  0
  183.1090  179.4250  143.9980 C   0  0  0  0  0  1  0  0  0  0  0  0
  184.4420  179.7190  143.7140 O   0  0  0  0  0  0  0  0  0  0  0  0
  1 10  1  0  0  0  0
  2  7  1  0  0  0  0
  3  6  1  0  0  0  0
  3  2  2  0  0  0  0
  4  3  1  0  0  0  0
  4  5  1  0  0  0  0
  5 13  1  6  0  0  0
  5  9  1  0  0  0  0
  6  1  1  0  0  0  0
  7  8  1  1  0  0  0
  7 10  1  0  0  0  0
  9  2  1  0  0  0  0
 10 35  1  1  0  0  0
 12 11  1  0  0  0  0
 12  7  1  0  0  0  0
 13 14  1  0  0  0  0
 14 15  1  0  0  0  0
 16 15  1  6  0  0  0
 17 24  1  6  0  0  0
 17 21  1  0  0  0  0
 18 16  1  6  0  0  0
 18 21  1  0  0  0  0
 19 18  1  0  0  0  0
 20 19  1  0  0  0  0
 20 17  1  0  0  0  0
 22 23  2  0  0  0  0
 24 22  1  0  0  0  0
 26 27  2  0  0  0  0
 27 22  1  0  0  0  0
 27 25  1  0  0  0  0
 28 16  1  6  0  0  0
 28 32  1  0  0  0  0
 29 30  1  0  0  0  0
 29 28  1  0  0  0  0
 30 28  1  0  0  0  0
 31 29  2  0  0  0  0
 32 33  1  0  0  0  0
 32 34  1  6  0  0  0
 33 34  1  0  0  0  0
 36 39  1  0  0  0  0
 36 43  2  0  0  0  0
 37 44  1  0  0  0  0
 37 42  1  0  0  0  0
 38 40  2  0  0  0  0
 39 41  1  1  0  0  0
 39 38  1  0  0  0  0
 43 45  1  0  0  0  0
 43 40  1  0  0  0  0
 44 35  1  6  0  0  0
 44 36  1  0  0  0  0
 45 42  1  6  0  0  0
 46 47  1  0  0  0  0
 46 51  1  1  0  0  0
 46 50  1  0  0  0  0
 47 45  1  6  0  0  0
 47 48  1  0  0  0  0
 48 50  1  0  0  0  0
 48 49  1  1  0  0  0
 53 52  1  0  0  0  0
 53 51  1  0  0  0  0
M  END
>  <MODEL>
3

>  <REMARK>
 VINA RESULT:      -6.7      2.783      7.798
  Name = 
  15 active torsions:
  status: ('A' for Active; 'I' for Inactive)
    1  A    between atoms: C_1  and  C_3
    2  A    between atoms: C_1  and  C_37
    3  A    between atoms: C_2  and  C_25
    4  A    between atoms: C_2  and  C_37
    5  A    between atoms: C_4  and  C_23
    6  A    between atoms: C_4  and  C_25
    7  A    between atoms: C_16  and  C_26
    8  A    between atoms: O_18  and  C_43
    9  A    between atoms: C_24  and  C_49
   10  A    between atoms: C_24  and  C_50
   11  A    between atoms: C_27  and  C_43
   12  A    between atoms: C_31  and  N_53
   13  A    between atoms: C_32  and  C_33
   14  A    between atoms: C_34  and  C_37
   15  A    between atoms: N_35  and  C_52
                            x       y       z     vdW  Elec       q    Type
                         _______ _______ _______ _____ _____    ______ ____

>  <TORSDO>
F 15

$$$$
=
 OpenBabel11062414073D

 53 60  0  0  1  0  0  0  0  0999 V2000
  182.9060  177.2030  140.9340 C   0  0  0  0  0  2  0  0  0  0  0  0
  183.9590  178.0900  138.4370 C   0  0  0  0  0  0  0  0  0  0  0  0
  183.4870  176.8560  138.5630 C   0  0  0  0  0  0  0  0  0  0  0  0
  184.2160  175.6360  137.4910 S   0  0  0  0  0  0  0  0  0  0  0  0
  185.4980  176.8590  137.0280 C   0  0  2  0  0  3  0  0  0  0  0  0
  182.4940  176.5190  139.6310 C   0  0  0  0  0  2  0  0  0  0  0  0
  183.4420  179.2160  139.3040 C   0  0  2  0  0  0  0  0  0  0  0  0
  184.3640  180.2710  139.3050 O   0  0  0  0  0  1  0  0  0  0  0  0
  185.0150  178.2550  137.4010 C   0  0  0  0  0  2  0  0  0  0  0  0
  183.1550  178.7200  140.7580 C   0  0  2  0  0  3  0  0  0  0  0  0
  181.9630  181.0830  138.9440 O   0  0  0  0  0  1  0  0  0  0  0  0
  182.1370  179.7200  138.6940 C   0  0  0  0  0  2  0  0  0  0  0  0
  185.7820  176.8110  135.5330 C   0  0  0  0  0  2  0  0  0  0  0  0
  186.7720  175.7120  135.1670 C   0  0  0  0  0  2  0  0  0  0  0  0
  187.8540  175.5750  136.2250 C   0  0  0  0  0  2  0  0  0  0  0  0
  189.0150  174.7220  135.7110 C   0  0  2  0  0  3  0  0  0  0  0  0
  187.3660  171.6210  135.6680 C   0  0  2  0  0  3  0  0  0  0  0  0
  188.9660  173.2870  136.2420 C   0  0  1  0  0  3  0  0  0  0  0  0
  188.0650  173.1670  137.3170 O   0  0  0  0  0  0  0  0  0  0  0  0
  187.4140  171.9350  137.1410 C   0  0  0  0  0  2  0  0  0  0  0  0
  188.5680  172.3390  135.1340 C   0  0  0  0  0  2  0  0  0  0  0  0
  184.8610  171.9810  135.6380 C   0  0  0  0  0  0  0  0  0  0  0  0
  184.7340  171.3470  136.7210 O   0  0  0  0  0  0  0  0  0  0  0  0
  186.1640  172.2000  135.0860 N   0  0  0  0  0  2  0  0  0  0  0  0
  183.5450  173.9280  134.5960 C   0  0  0  0  0  1  0  0  0  0  0  0
  182.6660  171.6680  134.6310 C   0  0  0  0  0  2  0  0  0  0  0  0
  183.6640  172.4840  134.9410 C   0  0  0  0  0  0  0  0  0  0  0  0
  190.3820  175.3740  135.9530 C   0  0  2  0  0  0  0  0  0  0  0  0
  190.6980  175.6430  137.2790 C   0  0  0  0  0  0  0  0  0  0  0  0
  190.2430  176.7210  136.2880 N   0  0  0  0  0  2  0  0  0  0  0  0
  191.0720  175.2860  138.4260 O   0  0  0  0  0  0  0  0  0  0  0  0
  191.5320  175.1740  134.9520 C   0  0  1  0  0  3  0  0  0  0  0  0
  192.6770  175.8960  135.3520 O   0  0  0  0  0  0  0  0  0  0  0  0
  192.7000  174.5090  135.5790 C   0  0  0  0  0  2  0  0  0  0  0  0
  184.0860  179.2850  141.8420 C   0  0  0  0  0  2  0  0  0  0  0  0
  185.3400  178.3810  143.8060 C   0  0  0  0  0  0  0  0  0  0  0  0
  186.5010  178.5810  141.5990 C   0  0  0  0  0  2  0  0  0  0  0  0
  185.0720  178.1880  146.0750 N   0  0  0  0  0  0  0  0  0  0  0  0
  184.2760  178.3090  144.8550 C   0  0  1  0  0  3  0  0  0  0  0  0
  186.3150  178.1450  145.8190 N   0  0  0  0  0  0  0  0  0  0  0  0
  183.5260  179.5510  144.8900 N   0  0  0  0  0  1  0  0  0  0  0  0
  187.6230  177.7710  142.2460 C   0  0  0  0  0  2  0  0  0  0  0  0
  186.5030  178.2280  144.4170 C   0  0  0  0  0  0  0  0  0  0  0  0
  185.1680  178.3120  142.3100 C   0  0  2  0  0  3  0  0  0  0  0  0
  187.8350  178.2150  143.7030 C   0  0  1  0  0  3  0  0  0  0  0  0
  190.0600  177.3490  143.6440 C   0  0  1  0  0  3  0  0  0  0  0  0
  188.7920  177.3320  144.3820 N   0  0  1  0  0  0  0  0  0  0  0  0
  189.4480  178.1000  145.4410 C   0  0  1  0  0  3  0  0  0  0  0  0
  189.5420  177.2620  146.7060 C   0  0  0  0  0  1  0  0  0  0  0  0
  190.7810  178.1120  144.7310 C   0  0  0  0  0  2  0  0  0  0  0  0
  190.6250  175.9410  143.5350 C   0  0  0  0  0  2  0  0  0  0  0  0
  192.0920  174.5080  144.3500 C   0  0  0  0  0  1  0  0  0  0  0  0
  191.8560  175.8730  144.1890 O   0  0  0  0  0  0  0  0  0  0  0  0
  2  3  2  0  0  0  0
  2  7  1  0  0  0  0
  3  6  1  0  0  0  0
  4  3  1  0  0  0  0
  5 13  1  6  0  0  0
  5  9  1  0  0  0  0
  5  4  1  0  0  0  0
  6  1  1  0  0  0  0
  7  8  1  1  0  0  0
  7 10  1  0  0  0  0
  9  2  1  0  0  0  0
 10  1  1  0  0  0  0
 10 35  1  1  0  0  0
 12 11  1  0  0  0  0
 12  7  1  0  0  0  0
 14 13  1  0  0  0  0
 14 15  1  0  0  0  0
 16 15  1  1  0  0  0
 17 24  1  6  0  0  0
 17 20  1  0  0  0  0
 18 16  1  6  0  0  0
 18 19  1  0  0  0  0
 20 19  1  0  0  0  0
 21 17  1  0  0  0  0
 21 18  1  0  0  0  0
 22 23  2  0  0  0  0
 24 22  1  0  0  0  0
 25 27  1  0  0  0  0
 26 27  2  0  0  0  0
 27 22  1  0  0  0  0
 28 16  1  6  0  0  0
 28 30  1  0  0  0  0
 28 29  1  0  0  0  0
 29 31  2  0  0  0  0
 30 29  1  0  0  0  0
 32 33  1  0  0  0  0
 32 34  1  1  0  0  0
 32 28  1  0  0  0  0
 33 34  1  0  0  0  0
 36 43  2  0  0  0  0
 36 39  1  0  0  0  0
 37 42  1  0  0  0  0
 37 44  1  0  0  0  0
 39 41  1  1  0  0  0
 39 38  1  0  0  0  0
 40 38  2  0  0  0  0
 43 40  1  0  0  0  0
 44 35  1  6  0  0  0
 44 36  1  0  0  0  0
 45 42  1  6  0  0  0
 45 43  1  0  0  0  0
 46 51  1  1  0  0  0
 46 47  1  0  0  0  0
 46 50  1  0  0  0  0
 47 45  1  6  0  0  0
 47 48  1  0  0  0  0
 48 49  1  1  0  0  0
 50 48  1  0  0  0  0
 51 53  1  0  0  0  0
 53 52  1  0  0  0  0
M  END
>  <MODEL>
4

>  <REMARK>
 VINA RESULT:      -6.6      1.302      3.830
  Name = 
  15 active torsions:
  status: ('A' for Active; 'I' for Inactive)
    1  A    between atoms: C_1  and  C_3
    2  A    between atoms: C_1  and  C_37
    3  A    between atoms: C_2  and  C_25
    4  A    between atoms: C_2  and  C_37
    5  A    between atoms: C_4  and  C_23
    6  A    between atoms: C_4  and  C_25
    7  A    between atoms: C_16  and  C_26
    8  A    between atoms: O_18  and  C_43
    9  A    between atoms: C_24  and  C_49
   10  A    between atoms: C_24  and  C_50
   11  A    between atoms: C_27  and  C_43
   12  A    between atoms: C_31  and  N_53
   13  A    between atoms: C_32  and  C_33
   14  A    between atoms: C_34  and  C_37
   15  A    between atoms: N_35  and  C_52
                            x       y       z     vdW  Elec       q    Type
                         _______ _______ _______ _____ _____    ______ ____

>  <TORSDO>
F 15

$$$$
=
 OpenBabel11062414073D

 53 60  0  0  1  0  0  0  0  0999 V2000
  190.3290  178.7710  144.2710 C   0  0  0  0  0  2  0  0  0  0  0  0
  190.6180  176.6850  142.3480 C   0  0  0  0  0  0  0  0  0  0  0  0
  191.2770  177.8280  142.1990 C   0  0  0  0  0  0  0  0  0  0  0  0
  191.6460  178.2930  140.5200 S   0  0  0  0  0  0  0  0  0  0  0  0
  190.5420  176.9520  139.9410 C   0  0  2  0  0  3  0  0  0  0  0  0
  191.5660  178.7080  143.3750 C   0  0  0  0  0  2  0  0  0  0  0  0
  190.2220  176.1860  143.7200 C   0  0  2  0  0  0  0  0  0  0  0  0
  189.1930  175.2430  143.5980 O   0  0  0  0  0  1  0  0  0  0  0  0
  190.3110  175.9670  141.0810 C   0  0  0  0  0  2  0  0  0  0  0  0
  189.7920  177.3690  144.6460 C   0  0  2  0  0  3  0  0  0  0  0  0
  191.7700  176.0830  145.5630 O   0  0  0  0  0  1  0  0  0  0  0  0
  191.4350  175.4970  144.3390 C   0  0  0  0  0  2  0  0  0  0  0  0
  191.1540  176.2150  138.7590 C   0  0  0  0  0  2  0  0  0  0  0  0
  192.6310  176.5410  138.5750 C   0  0  0  0  0  2  0  0  0  0  0  0
  193.3220  175.4890  137.7240 C   0  0  0  0  0  2  0  0  0  0  0  0
  193.2700  175.8660  136.2410 C   0  0  2  0  0  3  0  0  0  0  0  0
  190.0180  175.4130  134.9950 C   0  0  2  0  0  3  0  0  0  0  0  0
  192.3140  174.9740  135.4460 C   0  0  1  0  0  3  0  0  0  0  0  0
  191.5440  174.1580  136.2970 O   0  0  0  0  0  0  0  0  0  0  0  0
  190.2560  174.1240  135.7390 C   0  0  0  0  0  2  0  0  0  0  0  0
  191.4010  175.8260  134.5940 C   0  0  0  0  0  2  0  0  0  0  0  0
  188.0560  176.5740  136.0950 C   0  0  0  0  0  0  0  0  0  0  0  0
  187.2470  175.7830  135.5380 O   0  0  0  0  0  0  0  0  0  0  0  0
  189.4660  176.4050  135.9050 N   0  0  0  0  0  2  0  0  0  0  0  0
  188.2850  178.9650  137.0110 C   0  0  0  0  0  1  0  0  0  0  0  0
  186.4350  177.5280  137.6420 C   0  0  0  0  0  2  0  0  0  0  0  0
  187.5460  177.6740  136.9300 C   0  0  0  0  0  0  0  0  0  0  0  0
  194.6610  175.9290  135.5970 C   0  0  2  0  0  0  0  0  0  0  0  0
  195.2720  174.7060  135.3520 C   0  0  0  0  0  0  0  0  0  0  0  0
  195.6570  175.6190  136.5220 N   0  0  0  0  0  2  0  0  0  0  0  0
  195.4110  173.6480  134.6860 O   0  0  0  0  0  0  0  0  0  0  0  0
  195.0690  177.1370  134.7360 C   0  0  1  0  0  3  0  0  0  0  0  0
  195.4310  178.2330  135.5490 O   0  0  0  0  0  0  0  0  0  0  0  0
  196.4850  177.5180  134.9550 C   0  0  0  0  0  2  0  0  0  0  0  0
  188.3040  177.4000  145.0250 C   0  0  0  0  0  2  0  0  0  0  0  0
  186.0400  178.3840  144.6290 C   0  0  0  0  0  0  0  0  0  0  0  0
  187.3730  177.5550  142.6810 C   0  0  0  0  0  2  0  0  0  0  0  0
  184.2140  179.0420  145.8500 N   0  0  0  0  0  0  0  0  0  0  0  0
  185.6570  178.8580  145.9950 C   0  0  1  0  0  3  0  0  0  0  0  0
  183.8280  178.7900  144.6670 N   0  0  0  0  0  0  0  0  0  0  0  0
  185.9140  177.8170  146.9740 N   0  0  0  0  0  1  0  0  0  0  0  0
  186.3120  178.2320  141.8140 C   0  0  0  0  0  2  0  0  0  0  0  0
  184.9480  178.4150  143.8830 C   0  0  0  0  0  0  0  0  0  0  0  0
  187.4280  178.2090  144.0680 C   0  0  2  0  0  3  0  0  0  0  0  0
  184.9130  178.0310  142.4230 C   0  0  1  0  0  3  0  0  0  0  0  0
  184.0020  178.4930  140.2640 C   0  0  1  0  0  3  0  0  0  0  0  0
  183.9110  178.8170  141.6910 N   0  0  1  0  0  0  0  0  0  0  0  0
  182.6430  178.0870  141.7320 C   0  0  1  0  0  3  0  0  0  0  0  0
  181.5020  179.0480  142.0200 C   0  0  0  0  0  1  0  0  0  0  0  0
  182.6800  177.7610  140.2570 C   0  0  0  0  0  2  0  0  0  0  0  0
  183.8980  179.7600  139.4280 C   0  0  0  0  0  2  0  0  0  0  0  0
  182.5290  181.2370  138.5270 C   0  0  0  0  0  1  0  0  0  0  0  0
  182.5920  179.9130  138.9610 O   0  0  0  0  0  0  0  0  0  0  0  0
  1 10  1  0  0  0  0
  2  7  1  0  0  0  0
  3  2  2  0  0  0  0
  3  6  1  0  0  0  0
  4  3  1  0  0  0  0
  5 13  1  6  0  0  0
  5  4  1  0  0  0  0
  5  9  1  0  0  0  0
  6  1  1  0  0  0  0
  7  8  1  6  0  0  0
  7 12  1  0  0  0  0
  7 10  1  0  0  0  0
  9  2  1  0  0  0  0
 10 35  1  6  0  0  0
 12 11  1  0  0  0  0
 14 13  1  0  0  0  0
 15 14  1  0  0  0  0
 16 15  1  1  0  0  0
 17 20  1  0  0  0  0
 17 24  1  1  0  0  0
 18 16  1  1  0  0  0
 18 19  1  0  0  0  0
 20 19  1  0  0  0  0
 21 17  1  0  0  0  0
 21 18  1  0  0  0  0
 22 27  1  0  0  0  0
 23 22  2  0  0  0  0
 24 22  1  0  0  0  0
 27 25  1  0  0  0  0
 27 26  2  0  0  0  0
 28 16  1  1  0  0  0
 28 30  1  0  0  0  0
 29 28  1  0  0  0  0
 29 30  1  0  0  0  0
 31 29  2  0  0  0  0
 32 34  1  1  0  0  0
 32 33  1  0  0  0  0
 32 28  1  0  0  0  0
 34 33  1  0  0  0  0
 36 39  1  0  0  0  0
 37 44  1  0  0  0  0
 38 39  1  0  0  0  0
 39 41  1  1  0  0  0
 40 38  2  0  0  0  0
 42 37  1  0  0  0  0
 43 36  2  0  0  0  0
 43 40  1  0  0  0  0
 44 36  1  0  0  0  0
 44 35  1  1  0  0  0
 45 42  1  6  0  0  0
 45 43  1  0  0  0  0
 46 51  1  6  0  0  0
 46 47  1  0  0  0  0
 47 48  1  0  0  0  0
 47 45  1  1  0  0  0
 48 49  1  6  0  0  0
 50 46  1  0  0  0  0
 50 48  1  0  0  0  0
 52 53  1  0  0  0  0
 53 51  1  0  0  0  0
M  END
>  <MODEL>
5

>  <REMARK>
 VINA RESULT:      -6.2      2.601      7.059
  Name = 
  15 active torsions:
  status: ('A' for Active; 'I' for Inactive)
    1  A    between atoms: C_1  and  C_3
    2  A    between atoms: C_1  and  C_37
    3  A    between atoms: C_2  and  C_25
    4  A    between atoms: C_2  and  C_37
    5  A    between atoms: C_4  and  C_23
    6  A    between atoms: C_4  and  C_25
    7  A    between atoms: C_16  and  C_26
    8  A    between atoms: O_18  and  C_43
    9  A    between atoms: C_24  and  C_49
   10  A    between atoms: C_24  and  C_50
   11  A    between atoms: C_27  and  C_43
   12  A    between atoms: C_31  and  N_53
   13  A    between atoms: C_32  and  C_33
   14  A    between atoms: C_34  and  C_37
   15  A    between atoms: N_35  and  C_52
                            x       y       z     vdW  Elec       q    Type
                         _______ _______ _______ _____ _____    ______ ____

>  <TORSDO>
F 15

$$$$
=
 OpenBabel11062414073D

 53 60  0  0  1  0  0  0  0  0999 V2000
  189.4120  178.9190  138.4320 C   0  0  0  0  0  2  0  0  0  0  0  0
  187.9800  176.7140  137.3290 C   0  0  0  0  0  0  0  0  0  0  0  0
  187.6050  177.9570  137.0550 C   0  0  0  0  0  0  0  0  0  0  0  0
  185.8750  178.1840  136.7060 S   0  0  0  0  0  0  0  0  0  0  0  0
  185.5700  176.4700  137.2730 C   0  0  2  0  0  3  0  0  0  0  0  0
  188.5750  179.0930  137.1650 C   0  0  0  0  0  2  0  0  0  0  0  0
  189.4180  176.3870  137.6660 C   0  0  2  0  0  0  0  0  0  0  0  0
  189.4770  175.1540  138.3280 O   0  0  0  0  0  1  0  0  0  0  0  0
  186.8870  175.7040  137.2790 C   0  0  0  0  0  2  0  0  0  0  0  0
  190.0640  177.5190  138.5280 C   0  0  2  0  0  3  0  0  0  0  0  0
  191.0160  175.1390  136.3660 O   0  0  0  0  0  1  0  0  0  0  0  0
  190.1940  176.2680  136.3560 C   0  0  0  0  0  2  0  0  0  0  0  0
  184.5830  175.7610  136.3570 C   0  0  0  0  0  2  0  0  0  0  0  0
  183.1810  175.7020  136.9510 C   0  0  0  0  0  2  0  0  0  0  0  0
  182.7560  174.2670  137.2120 C   0  0  0  0  0  2  0  0  0  0  0  0
  181.7090  173.8140  136.1920 C   0  0  2  0  0  3  0  0  0  0  0  0
  179.3010  175.3270  138.2520 C   0  0  2  0  0  3  0  0  0  0  0  0
  180.3030  173.7370  136.7930 C   0  0  1  0  0  3  0  0  0  0  0  0
  180.3300  173.2020  138.0960 O   0  0  0  0  0  0  0  0  0  0  0  0
  179.3920  173.9410  138.8360 C   0  0  0  0  0  2  0  0  0  0  0  0
  179.6750  175.1110  136.8190 C   0  0  0  0  0  2  0  0  0  0  0  0
  180.3040  177.6070  138.7040 C   0  0  0  0  0  0  0  0  0  0  0  0
  179.3770  178.1680  138.0580 O   0  0  0  0  0  0  0  0  0  0  0  0
  180.2920  176.1870  138.8830 N   0  0  0  0  0  2  0  0  0  0  0  0
  181.6340  178.4600  140.7310 C   0  0  0  0  0  1  0  0  0  0  0  0
  182.1820  179.1400  138.4690 C   0  0  0  0  0  2  0  0  0  0  0  0
  181.4010  178.4180  139.2610 C   0  0  0  0  0  0  0  0  0  0  0  0
  182.0990  172.5120  135.4820 C   0  0  2  0  0  0  0  0  0  0  0  0
  183.2880  171.9270  135.8980 C   0  0  0  0  0  0  0  0  0  0  0  0
  183.1530  172.7210  134.5940 N   0  0  0  0  0  2  0  0  0  0  0  0
  183.9690  171.2580  136.7170 O   0  0  0  0  0  0  0  0  0  0  0  0
  181.0210  171.6120  134.8520 C   0  0  1  0  0  3  0  0  0  0  0  0
  181.5320  170.3220  134.5970 O   0  0  0  0  0  0  0  0  0  0  0  0
  180.6950  170.4540  135.7180 C   0  0  0  0  0  2  0  0  0  0  0  0
  190.3980  177.1330  139.9770 C   0  0  0  0  0  2  0  0  0  0  0  0
  190.2230  177.7420  142.3950 C   0  0  0  0  0  0  0  0  0  0  0  0
  188.1330  177.4610  141.0500 C   0  0  0  0  0  2  0  0  0  0  0  0
  191.5830  177.8740  144.2370 N   0  0  0  0  0  0  0  0  0  0  0  0
  191.6560  177.9340  142.7780 C   0  0  1  0  0  3  0  0  0  0  0  0
  190.3870  177.7330  144.6390 N   0  0  0  0  0  0  0  0  0  0  0  0
  192.4550  176.8240  142.2900 N   0  0  0  0  0  1  0  0  0  0  0  0
  187.4120  178.0550  142.2590 C   0  0  0  0  0  2  0  0  0  0  0  0
  189.5230  177.6840  143.5160 C   0  0  0  0  0  0  0  0  0  0  0  0
  189.6020  177.9030  141.0310 C   0  0  2  0  0  3  0  0  0  0  0  0
  188.0220  177.5190  143.5650 C   0  0  1  0  0  3  0  0  0  0  0  0
  185.9900  178.0690  144.6940 C   0  0  1  0  0  3  0  0  0  0  0  0
  187.4500  178.2100  144.7280 N   0  0  1  0  0  0  0  0  0  0  0  0
  187.4700  177.2860  145.8620 C   0  0  1  0  0  3  0  0  0  0  0  0
  187.9380  178.0110  147.1130 C   0  0  0  0  0  1  0  0  0  0  0  0
  185.9660  177.1390  145.8840 C   0  0  0  0  0  2  0  0  0  0  0  0
  185.3240  179.3890  145.0530 C   0  0  0  0  0  2  0  0  0  0  0  0
  184.0770  178.7150  143.3630 C   0  0  0  0  0  1  0  0  0  0  0  0
  184.0150  179.4050  144.5720 O   0  0  0  0  0  0  0  0  0  0  0  0
  1 10  1  0  0  0  0
  2  7  1  0  0  0  0
  3  6  1  0  0  0  0
  3  2  2  0  0  0  0
  4  3  1  0  0  0  0
  4  5  1  0  0  0  0
  5 13  1  6  0  0  0
  5  9  1  0  0  0  0
  6  1  1  0  0  0  0
  7  8  1  1  0  0  0
  7 10  1  0  0  0  0
  9  2  1  0  0  0  0
 10 35  1  1  0  0  0
 12 11  1  0  0  0  0
 12  7  1  0  0  0  0
 13 14  1  0  0  0  0
 14 15  1  0  0  0  0
 16 15  1  1  0  0  0
 17 20  1  0  0  0  0
 17 24  1  1  0  0  0
 18 16  1  1  0  0  0
 18 21  1  0  0  0  0
 18 19  1  0  0  0  0
 19 20  1  0  0  0  0
 21 17  1  0  0  0  0
 22 24  1  0  0  0  0
 22 27  1  0  0  0  0
 23 22  2  0  0  0  0
 26 27  2  0  0  0  0
 27 25  1  0  0  0  0
 28 29  1  0  0  0  0
 28 16  1  1  0  0  0
 29 31  2  0  0  0  0
 30 28  1  0  0  0  0
 30 29  1  0  0  0  0
 32 28  1  0  0  0  0
 32 34  1  1  0  0  0
 33 32  1  0  0  0  0
 33 34  1  0  0  0  0
 36 39  1  0  0  0  0
 36 43  2  0  0  0  0
 37 42  1  0  0  0  0
 38 40  2  0  0  0  0
 39 41  1  6  0  0  0
 39 38  1  0  0  0  0
 43 45  1  0  0  0  0
 43 40  1  0  0  0  0
 44 35  1  6  0  0  0
 44 37  1  0  0  0  0
 44 36  1  0  0  0  0
 45 42  1  6  0  0  0
 46 47  1  0  0  0  0
 46 51  1  1  0  0  0
 46 50  1  0  0  0  0
 47 45  1  6  0  0  0
 47 48  1  0  0  0  0
 48 50  1  0  0  0  0
 48 49  1  1  0  0  0
 52 53  1  0  0  0  0
 53 51  1  0  0  0  0
M  END
>  <MODEL>
6

>  <REMARK>
 VINA RESULT:      -6.2      2.889      6.954
  Name = 
  15 active torsions:
  status: ('A' for Active; 'I' for Inactive)
    1  A    between atoms: C_1  and  C_3
    2  A    between atoms: C_1  and  C_37
    3  A    between atoms: C_2  and  C_25
    4  A    between atoms: C_2  and  C_37
    5  A    between atoms: C_4  and  C_23
    6  A    between atoms: C_4  and  C_25
    7  A    between atoms: C_16  and  C_26
    8  A    between atoms: O_18  and  C_43
    9  A    between atoms: C_24  and  C_49
   10  A    between atoms: C_24  and  C_50
   11  A    between atoms: C_27  and  C_43
   12  A    between atoms: C_31  and  N_53
   13  A    between atoms: C_32  and  C_33
   14  A    between atoms: C_34  and  C_37
   15  A    between atoms: N_35  and  C_52
                            x       y       z     vdW  Elec       q    Type
                         _______ _______ _______ _____ _____    ______ ____

>  <TORSDO>
F 15

$$$$
=
 OpenBabel11062414073D

 53 60  0  0  1  0  0  0  0  0999 V2000
  190.2440  175.6870  136.4490 C   0  0  0  0  0  2  0  0  0  0  0  0
  189.0520  177.4380  138.3570 C   0  0  0  0  0  0  0  0  0  0  0  0
  190.2680  176.9500  138.5670 C   0  0  0  0  0  0  0  0  0  0  0  0
  190.7430  176.7650  140.2720 S   0  0  0  0  0  0  0  0  0  0  0  0
  189.0110  177.1080  140.7570 C   0  0  2  0  0  3  0  0  0  0  0  0
  191.1140  176.4790  137.4250 C   0  0  0  0  0  2  0  0  0  0  0  0
  188.5160  177.6240  136.9550 C   0  0  2  0  0  0  0  0  0  0  0  0
  187.1190  177.7170  136.9940 O   0  0  0  0  0  1  0  0  0  0  0  0
  188.2870  177.7700  139.5900 C   0  0  0  0  0  2  0  0  0  0  0  0
  188.9750  176.4600  136.0190 C   0  0  2  0  0  3  0  0  0  0  0  0
  188.8100  179.9920  137.2860 O   0  0  0  0  0  1  0  0  0  0  0  0
  189.0700  178.9370  136.4080 C   0  0  0  0  0  2  0  0  0  0  0  0
  188.9560  178.0300  141.9670 C   0  0  0  0  0  2  0  0  0  0  0  0
  188.3370  177.3520  143.1830 C   0  0  0  0  0  2  0  0  0  0  0  0
  188.5220  178.1940  144.4340 C   0  0  0  0  0  2  0  0  0  0  0  0
  188.3800  177.3380  145.6940 C   0  0  2  0  0  3  0  0  0  0  0  0
  185.0210  178.3380  145.9060 C   0  0  2  0  0  3  0  0  0  0  0  0
  187.2370  177.8090  146.5950 C   0  0  1  0  0  3  0  0  0  0  0  0
  187.1140  179.2120  146.5780 O   0  0  0  0  0  0  0  0  0  0  0  0
  185.7350  179.4800  146.5810 C   0  0  0  0  0  2  0  0  0  0  0  0
  185.9360  177.1790  146.1530 C   0  0  0  0  0  2  0  0  0  0  0  0
  183.7010  178.5870  143.7600 C   0  0  0  0  0  0  0  0  0  0  0  0
  182.6150  178.4560  144.3870 O   0  0  0  0  0  0  0  0  0  0  0  0
  184.9420  178.5910  144.4750 N   0  0  0  0  0  2  0  0  0  0  0  0
  184.9640  178.8660  141.5390 C   0  0  0  0  0  1  0  0  0  0  0  0
  182.5430  178.7480  141.6240 C   0  0  0  0  0  2  0  0  0  0  0  0
  183.6880  178.7240  142.2940 C   0  0  0  0  0  0  0  0  0  0  0  0
  189.6980  177.2000  146.4680 C   0  0  2  0  0  0  0  0  0  0  0  0
  189.6920  176.2890  147.5160 C   0  0  0  0  0  0  0  0  0  0  0  0
  189.6090  177.8060  147.7210 N   0  0  0  0  0  2  0  0  0  0  0  0
  189.7260  175.1150  147.9670 O   0  0  0  0  0  0  0  0  0  0  0  0
  191.0390  177.5310  145.7920 C   0  0  1  0  0  3  0  0  0  0  0  0
  192.0940  176.8130  146.3940 O   0  0  0  0  0  0  0  0  0  0  0  0
  191.6430  176.3380  145.1500 C   0  0  0  0  0  2  0  0  0  0  0  0
  187.8570  175.5200  135.5410 C   0  0  0  0  0  2  0  0  0  0  0  0
  185.7790  174.6350  136.6100 C   0  0  0  0  0  0  0  0  0  0  0  0
  185.6120  176.5560  135.0170 C   0  0  0  0  0  2  0  0  0  0  0  0
  185.1250  172.8280  137.8620 N   0  0  0  0  0  0  0  0  0  0  0  0
  186.3200  173.6130  137.5580 C   0  0  1  0  0  3  0  0  0  0  0  0
  184.0990  173.2960  137.2780 N   0  0  0  0  0  0  0  0  0  0  0  0
  187.2910  172.7710  136.8820 N   0  0  0  0  0  1  0  0  0  0  0  0
  184.1650  176.6750  135.4900 C   0  0  0  0  0  2  0  0  0  0  0  0
  184.4730  174.4370  136.5250 C   0  0  0  0  0  0  0  0  0  0  0  0
  186.4710  175.8670  136.0850 C   0  0  2  0  0  3  0  0  0  0  0  0
  183.5460  175.2800  135.6820 C   0  0  1  0  0  3  0  0  0  0  0  0
  181.5100  176.5280  135.7140 C   0  0  1  0  0  3  0  0  0  0  0  0
  182.2150  175.3820  136.2960 N   0  0  1  0  0  0  0  0  0  0  0  0
  181.3060  174.5020  135.5590 C   0  0  1  0  0  3  0  0  0  0  0  0
  180.4270  173.7340  136.5320 C   0  0  0  0  0  1  0  0  0  0  0  0
  180.5300  175.6550  134.9650 C   0  0  0  0  0  2  0  0  0  0  0  0
  180.7840  177.3070  136.8000 C   0  0  0  0  0  2  0  0  0  0  0  0
  181.9770  178.7980  137.9050 C   0  0  0  0  0  1  0  0  0  0  0  0
  181.6130  177.4530  137.9130 O   0  0  0  0  0  0  0  0  0  0  0  0
  1  6  1  0  0  0  0
  2  3  2  0  0  0  0
  2  9  1  0  0  0  0
  3  4  1  0  0  0  0
  4  5  1  0  0  0  0
  5 13  1  1  0  0  0
  6  3  1  0  0  0  0
  7  8  1  1  0  0  0
  7  2  1  0  0  0  0
  9  5  1  0  0  0  0
 10 35  1  1  0  0  0
 10  1  1  0  0  0  0
 10  7  1  0  0  0  0
 12  7  1  0  0  0  0
 12 11  1  0  0  0  0
 13 14  1  0  0  0  0
 14 15  1  0  0  0  0
 16 15  1  6  0  0  0
 17 24  1  6  0  0  0
 17 21  1  0  0  0  0
 17 20  1  0  0  0  0
 18 16  1  6  0  0  0
 19 20  1  0  0  0  0
 19 18  1  0  0  0  0
 21 18  1  0  0  0  0
 22 23  2  0  0  0  0
 22 24  1  0  0  0  0
 25 27  1  0  0  0  0
 26 27  2  0  0  0  0
 27 22  1  0  0  0  0
 28 16  1  6  0  0  0
 28 29  1  0  0  0  0
 28 30  1  0  0  0  0
 29 30  1  0  0  0  0
 29 31  2  0  0  0  0
 32 34  1  6  0  0  0
 32 33  1  0  0  0  0
 32 28  1  0  0  0  0
 34 33  1  0  0  0  0
 36 39  1  0  0  0  0
 37 42  1  0  0  0  0
 37 44  1  0  0  0  0
 39 41  1  6  0  0  0
 39 38  1  0  0  0  0
 40 38  2  0  0  0  0
 43 36  2  0  0  0  0
 43 40  1  0  0  0  0
 44 35  1  6  0  0  0
 44 36  1  0  0  0  0
 45 42  1  1  0  0  0
 45 43  1  0  0  0  0
 46 47  1  0  0  0  0
 46 51  1  1  0  0  0
 47 45  1  6  0  0  0
 48 47  1  0  0  0  0
 48 49  1  1  0  0  0
 50 48  1  0  0  0  0
 50 46  1  0  0  0  0
 51 53  1  0  0  0  0
 52 53  1  0  0  0  0
M  END
>  <MODEL>
7

>  <REMARK>
 VINA RESULT:      -5.7      2.837      9.972
  Name = 
  15 active torsions:
  status: ('A' for Active; 'I' for Inactive)
    1  A    between atoms: C_1  and  C_3
    2  A    between atoms: C_1  and  C_37
    3  A    between atoms: C_2  and  C_25
    4  A    between atoms: C_2  and  C_37
    5  A    between atoms: C_4  and  C_23
    6  A    between atoms: C_4  and  C_25
    7  A    between atoms: C_16  and  C_26
    8  A    between atoms: O_18  and  C_43
    9  A    between atoms: C_24  and  C_49
   10  A    between atoms: C_24  and  C_50
   11  A    between atoms: C_27  and  C_43
   12  A    between atoms: C_31  and  N_53
   13  A    between atoms: C_32  and  C_33
   14  A    between atoms: C_34  and  C_37
   15  A    between atoms: N_35  and  C_52
                            x       y       z     vdW  Elec       q    Type
                         _______ _______ _______ _____ _____    ______ ____

>  <TORSDO>
F 15

$$$$
=
 OpenBabel11062414073D

 53 60  0  0  1  0  0  0  0  0999 V2000
  189.4640  177.5180  135.4090 C   0  0  0  0  0  2  0  0  0  0  0  0
  187.8240  175.5390  136.6440 C   0  0  0  0  0  0  0  0  0  0  0  0
  187.4280  176.1320  135.5250 C   0  0  0  0  0  0  0  0  0  0  0  0
  185.6670  176.2560  135.2980 S   0  0  0  0  0  0  0  0  0  0  0  0
  185.4390  175.7110  137.0310 C   0  0  2  0  0  3  0  0  0  0  0  0
  188.4200  176.7570  134.5940 C   0  0  0  0  0  2  0  0  0  0  0  0
  189.2940  175.3890  136.9700 C   0  0  2  0  0  0  0  0  0  0  0  0
  189.4490  175.1540  138.3420 O   0  0  0  0  0  1  0  0  0  0  0  0
  186.7240  175.0550  137.5220 C   0  0  0  0  0  2  0  0  0  0  0  0
  190.1000  176.6510  136.5210 C   0  0  2  0  0  3  0  0  0  0  0  0
  190.7140  173.4430  137.0010 O   0  0  0  0  0  1  0  0  0  0  0  0
  189.8240  174.1750  136.2110 C   0  0  0  0  0  2  0  0  0  0  0  0
  184.2940  174.7150  137.1430 C   0  0  0  0  0  2  0  0  0  0  0  0
  183.4230  174.9690  138.3670 C   0  0  0  0  0  2  0  0  0  0  0  0
  182.8310  176.3680  138.3360 C   0  0  0  0  0  2  0  0  0  0  0  0
  182.3020  176.7670  139.7160 C   0  0  2  0  0  3  0  0  0  0  0  0
  179.3640  175.1870  138.6210 C   0  0  2  0  0  3  0  0  0  0  0  0
  180.7760  176.6970  139.7990 C   0  0  1  0  0  3  0  0  0  0  0  0
  180.1700  177.4080  138.7440 O   0  0  0  0  0  0  0  0  0  0  0  0
  179.0660  176.6380  138.3430 C   0  0  0  0  0  2  0  0  0  0  0  0
  180.3210  175.2560  139.7700 C   0  0  0  0  0  2  0  0  0  0  0  0
  180.3920  173.2130  137.4140 C   0  0  0  0  0  0  0  0  0  0  0  0
  180.0380  172.4340  138.3390 O   0  0  0  0  0  0  0  0  0  0  0  0
  180.0350  174.5990  137.4710 N   0  0  0  0  0  2  0  0  0  0  0  0
  181.3290  173.4980  135.0370 C   0  0  0  0  0  1  0  0  0  0  0  0
  181.7530  171.5000  136.3450 C   0  0  0  0  0  2  0  0  0  0  0  0
  181.1820  172.6960  136.2830 C   0  0  0  0  0  0  0  0  0  0  0  0
  182.8390  178.1250  140.1860 C   0  0  2  0  0  0  0  0  0  0  0  0
  183.5080  178.1240  141.4030 C   0  0  0  0  0  0  0  0  0  0  0  0
  182.0720  178.6320  141.2340 N   0  0  0  0  0  2  0  0  0  0  0  0
  184.5180  177.8880  142.1140 O   0  0  0  0  0  0  0  0  0  0  0  0
  183.1730  179.2280  139.1660 C   0  0  1  0  0  3  0  0  0  0  0  0
  184.3620  179.8980  139.5250 O   0  0  0  0  0  0  0  0  0  0  0  0
  184.4580  178.9680  138.4740 C   0  0  0  0  0  2  0  0  0  0  0  0
  190.6790  177.5010  137.6620 C   0  0  0  0  0  2  0  0  0  0  0  0
  189.3690  177.6210  139.7880 C   0  0  0  0  0  0  0  0  0  0  0  0
  191.7750  176.9400  139.8700 C   0  0  0  0  0  2  0  0  0  0  0  0
  187.3380  178.4000  140.5140 N   0  0  0  0  0  0  0  0  0  0  0  0
  187.9910  177.9280  139.2940 C   0  0  1  0  0  3  0  0  0  0  0  0
  188.1190  178.3430  141.5130 N   0  0  0  0  0  0  0  0  0  0  0  0
  188.0380  179.0060  138.3230 N   0  0  0  0  0  1  0  0  0  0  0  0
  191.5030  176.5710  141.3270 C   0  0  0  0  0  2  0  0  0  0  0  0
  189.3720  177.8300  141.0940 C   0  0  0  0  0  0  0  0  0  0  0  0
  190.4750  176.9050  139.0550 C   0  0  2  0  0  3  0  0  0  0  0  0
  190.5760  177.6110  141.9800 C   0  0  1  0  0  3  0  0  0  0  0  0
  191.2560  177.4830  144.2660 C   0  0  1  0  0  3  0  0  0  0  0  0
  190.1740  177.1770  143.3240 N   0  0  1  0  0  0  0  0  0  0  0  0
  189.3960  178.2550  143.9360 C   0  0  1  0  0  3  0  0  0  0  0  0
  188.1800  177.6790  144.6420 C   0  0  0  0  0  1  0  0  0  0  0  0
  190.4710  178.5800  144.9470 C   0  0  0  0  0  2  0  0  0  0  0  0
  191.4640  176.3210  145.2260 C   0  0  0  0  0  2  0  0  0  0  0  0
  191.6190  175.8960  147.3850 C   0  0  0  0  0  1  0  0  0  0  0  0
  192.0630  176.7770  146.4000 O   0  0  0  0  0  0  0  0  0  0  0  0
  1 10  1  0  0  0  0
  2  7  1  0  0  0  0
  2  9  1  0  0  0  0
  3  2  2  0  0  0  0
  4  3  1  0  0  0  0
  4  5  1  0  0  0  0
  5 13  1  6  0  0  0
  5  9  1  0  0  0  0
  6  1  1  0  0  0  0
  6  3  1  0  0  0  0
  7  8  1  1  0  0  0
 10  7  1  0  0  0  0
 10 35  1  1  0  0  0
 12  7  1  0  0  0  0
 12 11  1  0  0  0  0
 13 14  1  0  0  0  0
 15 14  1  0  0  0  0
 16 15  1  6  0  0  0
 17 24  1  6  0  0  0
 17 21  1  0  0  0  0
 18 16  1  6  0  0  0
 19 18  1  0  0  0  0
 20 17  1  0  0  0  0
 20 19  1  0  0  0  0
 21 18  1  0  0  0  0
 22 24  1  0  0  0  0
 22 23  2  0  0  0  0
 25 27  1  0  0  0  0
 27 26  2  0  0  0  0
 27 22  1  0  0  0  0
 28 16  1  6  0  0  0
 28 30  1  0  0  0  0
 28 29  1  0  0  0  0
 29 31  2  0  0  0  0
 30 29  1  0  0  0  0
 32 34  1  6  0  0  0
 32 33  1  0  0  0  0
 32 28  1  0  0  0  0
 34 33  1  0  0  0  0
 36 43  2  0  0  0  0
 37 42  1  0  0  0  0
 38 40  2  0  0  0  0
 39 41  1  6  0  0  0
 39 36  1  0  0  0  0
 39 38  1  0  0  0  0
 43 40  1  0  0  0  0
 43 45  1  0  0  0  0
 44 35  1  6  0  0  0
 44 36  1  0  0  0  0
 44 37  1  0  0  0  0
 45 42  1  6  0  0  0
 46 50  1  0  0  0  0
 46 51  1  1  0  0  0
 47 45  1  6  0  0  0
 47 48  1  0  0  0  0
 47 46  1  0  0  0  0
 48 49  1  1  0  0  0
 48 50  1  0  0  0  0
 51 53  1  0  0  0  0
 53 52  1  0  0  0  0
M  END
>  <MODEL>
8

>  <REMARK>
 VINA RESULT:      -5.6      2.681      7.708
  Name = 
  15 active torsions:
  status: ('A' for Active; 'I' for Inactive)
    1  A    between atoms: C_1  and  C_3
    2  A    between atoms: C_1  and  C_37
    3  A    between atoms: C_2  and  C_25
    4  A    between atoms: C_2  and  C_37
    5  A    between atoms: C_4  and  C_23
    6  A    between atoms: C_4  and  C_25
    7  A    between atoms: C_16  and  C_26
    8  A    between atoms: O_18  and  C_43
    9  A    between atoms: C_24  and  C_49
   10  A    between atoms: C_24  and  C_50
   11  A    between atoms: C_27  and  C_43
   12  A    between atoms: C_31  and  N_53
   13  A    between atoms: C_32  and  C_33
   14  A    between atoms: C_34  and  C_37
   15  A    between atoms: N_35  and  C_52
                            x       y       z     vdW  Elec       q    Type
                         _______ _______ _______ _____ _____    ______ ____

>  <TORSDO>
F 15

$$$$
=
 OpenBabel11062414073D

 53 60  0  0  1  0  0  0  0  0999 V2000
  180.6490  179.4720  138.0630 C   0  0  0  0  0  2  0  0  0  0  0  0
  182.3170  178.9450  140.3150 C   0  0  0  0  0  0  0  0  0  0  0  0
  182.7320  179.7580  139.3510 C   0  0  0  0  0  0  0  0  0  0  0  0
  184.4940  179.8390  139.1140 S   0  0  0  0  0  0  0  0  0  0  0  0
  184.6780  178.4060  140.2370 C   0  0  2  0  0  3  0  0  0  0  0  0
  181.7520  180.4530  138.4580 C   0  0  0  0  0  2  0  0  0  0  0  0
  180.8430  178.7650  140.6050 C   0  0  2  0  0  0  0  0  0  0  0  0
  180.6460  177.5760  141.3190 O   0  0  0  0  0  1  0  0  0  0  0  0
  183.4020  178.2440  141.0550 C   0  0  0  0  0  2  0  0  0  0  0  0
  180.0060  178.7740  139.2850 C   0  0  2  0  0  3  0  0  0  0  0  0
  179.0980  180.3390  141.1350 O   0  0  0  0  0  1  0  0  0  0  0  0
  180.3890  179.9320  141.4790 C   0  0  0  0  0  2  0  0  0  0  0  0
  185.8550  178.6000  141.1820 C   0  0  0  0  0  2  0  0  0  0  0  0
  185.5080  178.2430  142.6210 C   0  0  0  0  0  2  0  0  0  0  0  0
  186.5310  177.2860  143.2110 C   0  0  0  0  0  2  0  0  0  0  0  0
  187.4630  178.0140  144.1820 C   0  0  2  0  0  3  0  0  0  0  0  0
  190.2950  177.5710  142.1550 C   0  0  2  0  0  3  0  0  0  0  0  0
  188.9080  177.5190  144.0880 C   0  0  1  0  0  3  0  0  0  0  0  0
  188.9700  176.2110  143.5670 O   0  0  0  0  0  0  0  0  0  0  0  0
  190.0860  176.1870  142.7150 C   0  0  0  0  0  2  0  0  0  0  0  0
  189.7190  178.4530  143.2190 C   0  0  0  0  0  2  0  0  0  0  0  0
  189.8600  177.0470  139.7160 C   0  0  0  0  0  0  0  0  0  0  0  0
  190.8050  176.2120  139.7040 O   0  0  0  0  0  0  0  0  0  0  0  0
  189.5200  177.7220  140.9320 N   0  0  0  0  0  2  0  0  0  0  0  0
  189.5420  176.7160  137.1870 C   0  0  0  0  0  1  0  0  0  0  0  0
  188.0810  178.1570  138.4790 C   0  0  0  0  0  2  0  0  0  0  0  0
  189.1190  177.3320  138.4760 C   0  0  0  0  0  0  0  0  0  0  0  0
  186.9450  177.9930  145.6260 C   0  0  2  0  0  0  0  0  0  0  0  0
  187.7280  177.2990  146.5400 C   0  0  0  0  0  0  0  0  0  0  0  0
  186.4250  176.7420  145.9550 N   0  0  0  0  0  2  0  0  0  0  0  0
  188.7370  177.1950  147.2850 O   0  0  0  0  0  0  0  0  0  0  0  0
  186.0360  179.1200  146.1470 C   0  0  1  0  0  3  0  0  0  0  0  0
  185.0510  179.4500  145.1920 O   0  0  0  0  0  0  0  0  0  0  0  0
  184.6290  178.6730  146.2850 C   0  0  0  0  0  2  0  0  0  0  0  0
  179.3520  177.4350  138.9120 C   0  0  0  0  0  2  0  0  0  0  0  0
  180.1910  176.2730  136.8640 C   0  0  1  0  0  3  0  0  0  0  0  0
  180.1200  175.0300  139.0340 C   0  0  0  0  0  2  0  0  0  0  0  0
  180.2720  176.6260  134.6000 N   0  0  0  0  0  2  0  0  0  0  0  0
  180.1910  177.3750  135.8520 C   0  0  1  0  0  3  0  0  0  0  0  0
  180.3540  175.3760  134.8080 N   0  0  0  0  0  0  0  0  0  0  0  0
  178.9320  178.0960  135.9020 N   0  0  0  0  0  1  0  0  0  0  0  0
  180.9230  173.9510  138.3100 C   0  0  0  0  0  2  0  0  0  0  0  0
  180.3410  175.1360  136.2050 C   0  0  0  0  0  0  0  0  0  0  0  0
  180.3260  176.3930  138.3610 C   0  0  2  0  0  3  0  0  0  0  0  0
  180.4160  173.7810  136.8680 C   0  0  1  0  0  3  0  0  0  0  0  0
  182.6330  172.9090  136.6970 C   0  0  1  0  0  3  0  0  0  0  0  0
  181.2880  172.8690  136.1150 N   0  0  1  0  0  0  0  0  0  0  0  0
  181.1320  171.5260  136.6740 C   0  0  1  0  0  3  0  0  0  0  0  0
  181.0330  170.5060  135.5520 C   0  0  0  0  0  1  0  0  0  0  0  0
  182.5240  171.5110  137.2610 C   0  0  0  0  0  2  0  0  0  0  0  0
  183.6830  172.9440  135.5970 C   0  0  0  0  0  2  0  0  0  0  0  0
  184.1210  174.6760  136.8910 C   0  0  0  0  0  1  0  0  0  0  0  0
  184.3430  174.1730  135.6090 O   0  0  0  0  0  0  0  0  0  0  0  0
  1  6  1  0  0  0  0
  1 10  1  0  0  0  0
  2  7  1  0  0  0  0
  2  9  1  0  0  0  0
  3  2  2  0  0  0  0
  4  3  1  0  0  0  0
  4  5  1  0  0  0  0
  5  9  1  0  0  0  0
  5 13  1  1  0  0  0
  6  3  1  0  0  0  0
  7  8  1  1  0  0  0
  7 12  1  0  0  0  0
 10 35  1  6  0  0  0
 10  7  1  0  0  0  0
 11 12  1  0  0  0  0
 13 14  1  0  0  0  0
 14 15  1  0  0  0  0
 16 15  1  6  0  0  0
 17 24  1  6  0  0  0
 17 20  1  0  0  0  0
 17 21  1  0  0  0  0
 18 16  1  6  0  0  0
 19 18  1  0  0  0  0
 20 19  1  0  0  0  0
 21 18  1  0  0  0  0
 22 24  1  0  0  0  0
 23 22  2  0  0  0  0
 25 27  1  0  0  0  0
 27 26  2  0  0  0  0
 27 22  1  0  0  0  0
 28 16  1  6  0  0  0
 28 30  1  0  0  0  0
 28 32  1  0  0  0  0
 28 29  1  0  0  0  0
 29 31  2  0  0  0  0
 30 29  1  0  0  0  0
 32 34  1  1  0  0  0
 33 32  1  0  0  0  0
 33 34  1  0  0  0  0
 36 43  1  6  0  0  0
 36 44  1  0  0  0  0
 38 40  1  0  0  0  0
 38 39  1  0  0  0  0
 39 41  1  6  0  0  0
 39 36  1  0  0  0  0
 40 43  2  0  0  0  0
 42 37  1  0  0  0  0
 43 45  1  0  0  0  0
 44 35  1  1  0  0  0
 44 37  1  0  0  0  0
 45 42  1  1  0  0  0
 46 51  1  6  0  0  0
 46 50  1  0  0  0  0
 47 48  1  0  0  0  0
 47 46  1  0  0  0  0
 47 45  1  1  0  0  0
 48 49  1  6  0  0  0
 48 50  1  0  0  0  0
 51 53  1  0  0  0  0
 53 52  1  0  0  0  0
M  END
>  <MODEL>
9

>  <REMARK>
 VINA RESULT:      -5.5      3.462      8.842
  Name = 
  15 active torsions:
  status: ('A' for Active; 'I' for Inactive)
    1  A    between atoms: C_1  and  C_3
    2  A    between atoms: C_1  and  C_37
    3  A    between atoms: C_2  and  C_25
    4  A    between atoms: C_2  and  C_37
    5  A    between atoms: C_4  and  C_23
    6  A    between atoms: C_4  and  C_25
    7  A    between atoms: C_16  and  C_26
    8  A    between atoms: O_18  and  C_43
    9  A    between atoms: C_24  and  C_49
   10  A    between atoms: C_24  and  C_50
   11  A    between atoms: C_27  and  C_43
   12  A    between atoms: C_31  and  N_53
   13  A    between atoms: C_32  and  C_33
   14  A    between atoms: C_34  and  C_37
   15  A    between atoms: N_35  and  C_52
                            x       y       z     vdW  Elec       q    Type
                         _______ _______ _______ _____ _____    ______ ____

>  <TORSDO>
F 15

$$$$
