=
 OpenBabel11062415203D

 41 46  0  0  1  0  0  0  0  0999 V2000
  188.5370  178.3450  139.7640 C   0  0  0  0  0  2  0  0  0  0  0  0
  182.5650  177.5330  139.4330 N   0  0  0  0  0  0  0  0  0  0  0  0
  181.3900  176.9640  138.8180 C   0  0  0  0  0  0  0  0  0  0  0  0
  190.2310  174.3580  137.9690 O   0  0  0  0  0  1  0  0  0  0  0  0
  183.8530  179.7560  139.2280 C   0  0  0  0  0  2  0  0  0  0  0  0
  187.9330  176.5650  142.1270 O   0  0  0  0  0  0  0  0  0  0  0  0
  187.2010  177.4780  141.6630 C   0  0  0  0  0  0  0  0  0  0  0  0
  185.5060  179.0690  141.6120 C   0  0  0  0  0  3  0  0  0  0  0  0
  190.7460  177.4600  139.3070 O   0  0  0  0  0  0  0  0  0  0  0  0
  187.5550  179.5870  136.4690 O   0  0  0  0  0  1  0  0  0  0  0  0
  188.7020  176.8460  135.6200 O   0  0  0  0  0  0  0  0  0  0  0  0
  186.1070  177.6890  136.4490 C   0  0  0  0  0  2  0  0  0  0  0  0
  181.4580  179.6900  140.3020 C   0  0  0  0  0  2  0  0  0  0  0  0
  189.6400  177.8600  135.8930 C   0  0  0  0  0  2  0  0  0  0  0  0
  187.1710  177.8680  140.2370 C   0  0  1  0  0  3  0  0  0  0  0  0
  182.4620  179.1570  141.3100 C   0  0  0  0  0  2  0  0  0  0  0  0
  189.0160  176.4580  138.0310 C   0  0  2  0  0  0  0  0  0  0  0  0
  185.2720  176.9650  137.4730 C   0  0  0  0  0  3  0  0  0  0  0  0
  185.1340  178.9120  139.0450 C   0  0  2  0  0  3  0  0  0  0  0  0
  187.9720  175.5550  138.2480 O   0  0  0  0  0  1  0  0  0  0  0  0
  190.3200  175.7310  137.7180 C   0  0  1  0  0  3  0  0  0  0  0  0
  182.6930  178.9460  139.8280 C   0  0  0  0  0  0  0  0  0  0  0  0
  184.8120  177.5000  138.6140 C   0  0  0  0  0  0  0  0  0  0  0  0
  187.3640  178.3230  137.0320 C   0  0  1  0  0  3  0  0  0  0  0  0
  183.8000  176.7530  139.4200 C   0  0  0  0  0  2  0  0  0  0  0  0
  189.3850  177.1430  139.3470 C   0  0  2  0  0  3  0  0  0  0  0  0
  191.3320  176.3510  138.6710 C   0  0  1  0  0  3  0  0  0  0  0  0
  186.1480  179.0140  140.2140 C   0  0  1  0  0  3  0  0  0  0  0  0
  188.6220  177.4450  136.8930 C   0  0  2  0  0  0  0  0  0  0  0  0
  186.2660  178.1710  142.4590 N   0  0  0  0  0  0  0  0  0  0  0  0
  181.3600  175.7290  138.5640 O   0  0  0  0  0  0  0  0  0  0  0  0
  192.5710  176.7530  137.9400 C   0  0  0  0  0  0  0  0  0  0  0  0
  192.7630  176.3810  136.5780 N   0  0  0  0  0  1  0  0  0  0  0  0
  193.4700  177.3920  138.5450 O   0  0  0  0  0  0  0  0  0  0  0  0
  179.0240  177.3740  139.0410 O   0  0  0  0  0  1  0  0  0  0  0  0
  180.2060  177.8130  138.4300 C   0  0  2  0  0  3  0  0  0  0  0  0
  180.0680  177.9680  137.0330 O   0  0  0  0  0  0  0  0  0  0  0  0
  181.3110  178.7130  135.2630 O   0  0  0  0  0  1  0  0  0  0  0  0
  180.9560  178.9640  136.5880 C   0  0  1  0  0  3  0  0  0  0  0  0
  180.2880  180.3230  136.6750 C   0  0  0  0  0  2  0  0  0  0  0  0
  181.1810  181.2570  137.1980 O   0  0  0  0  0  1  0  0  0  0  0  0
  2 22  1  0  0  0  0
  3  2  1  0  0  0  0
  5 22  1  0  0  0  0
  7  6  2  0  0  0  0
  7 30  1  0  0  0  0
  8 30  2  0  0  0  0
  9 26  1  0  0  0  0
 11 14  1  0  0  0  0
 11 29  1  0  0  0  0
 12 24  1  0  0  0  0
 12 18  1  0  0  0  0
 13 16  1  0  0  0  0
 15  1  1  1  0  0  0
 15  7  1  0  0  0  0
 17 20  1  1  0  0  0
 17 26  1  0  0  0  0
 18 23  2  0  0  0  0
 19  5  1  1  0  0  0
 19 28  1  0  0  0  0
 21  4  1  1  0  0  0
 21 17  1  0  0  0  0
 21 27  1  0  0  0  0
 22 13  1  0  0  0  0
 22 16  1  0  0  0  0
 23 19  1  0  0  0  0
 23 25  1  0  0  0  0
 24 10  1  6  0  0  0
 25  2  1  0  0  0  0
 26  1  1  6  0  0  0
 27 32  1  6  0  0  0
 27  9  1  0  0  0  0
 28 15  1  0  0  0  0
 28  8  1  1  0  0  0
 29 14  1  6  0  0  0
 29 24  1  0  0  0  0
 29 17  1  0  0  0  0
 31  3  2  0  0  0  0
 32 34  2  0  0  0  0
 33 32  1  0  0  0  0
 36  3  1  0  0  0  0
 36 35  1  6  0  0  0
 37 36  1  0  0  0  0
 39 38  1  6  0  0  0
 39 40  1  0  0  0  0
 39 37  1  0  0  0  0
 40 41  1  0  0  0  0
M  END
>  <MODEL>
1

>  <REMARK>
 VINA RESULT:      -4.2      0.000      0.000
  Name = 
  5 active torsions:
  status: ('A' for Active; 'I' for Inactive)
    1  A    between atoms: C_3  and  C_35
    2  A    between atoms: C_4  and  C_39
    3  A    between atoms: O_5  and  C_39
    4  A    between atoms: O_5  and  C_41
    5  A    between atoms: C_19  and  C_41
                            x       y       z     vdW  Elec       q    Type
                         _______ _______ _______ _____ _____    ______ ____

>  <TORSDO>
F 5

$$$$
=
 OpenBabel11062415203D

 41 46  0  0  1  0  0  0  0  0999 V2000
  191.0340  177.2800  138.1510 C   0  0  0  0  0  2  0  0  0  0  0  0
  185.1320  176.0780  137.7490 N   0  0  0  0  0  0  0  0  0  0  0  0
  184.0240  175.2990  137.2550 C   0  0  0  0  0  0  0  0  0  0  0  0
  192.9960  173.0540  137.6190 O   0  0  0  0  0  1  0  0  0  0  0  0
  186.3430  178.2280  137.0030 C   0  0  0  0  0  2  0  0  0  0  0  0
  190.3480  176.1860  140.8790 O   0  0  0  0  0  0  0  0  0  0  0  0
  189.6120  176.8940  140.1440 C   0  0  0  0  0  0  0  0  0  0  0  0
  187.8640  178.3140  139.5660 C   0  0  0  0  0  3  0  0  0  0  0  0
  193.3010  176.4280  138.0710 O   0  0  0  0  0  0  0  0  0  0  0  0
  190.2210  177.5150  134.5940 O   0  0  0  0  0  1  0  0  0  0  0  0
  191.5270  174.7140  134.5980 O   0  0  0  0  0  0  0  0  0  0  0  0
  188.8520  175.6070  135.0260 C   0  0  0  0  0  2  0  0  0  0  0  0
  183.8880  178.3260  137.9290 C   0  0  0  0  0  2  0  0  0  0  0  0
  192.4040  175.8150  134.6280 C   0  0  0  0  0  2  0  0  0  0  0  0
  189.6610  176.8760  138.6650 C   0  0  1  0  0  3  0  0  0  0  0  0
  184.8450  178.1460  139.0940 C   0  0  0  0  0  2  0  0  0  0  0  0
  191.6990  175.0200  137.0350 C   0  0  2  0  0  0  0  0  0  0  0  0
  187.9820  175.1460  136.1660 C   0  0  0  0  0  3  0  0  0  0  0  0
  187.6650  177.4390  137.1270 C   0  0  2  0  0  3  0  0  0  0  0  0
  190.6780  174.1540  137.4390 O   0  0  0  0  0  1  0  0  0  0  0  0
  193.0480  174.3090  137.0030 C   0  0  1  0  0  3  0  0  0  0  0  0
  185.1790  177.5500  137.7430 C   0  0  0  0  0  0  0  0  0  0  0  0
  187.4280  175.9460  137.0890 C   0  0  0  0  0  0  0  0  0  0  0  0
  190.0430  176.4460  135.4750 C   0  0  1  0  0  3  0  0  0  0  0  0
  186.3960  175.3940  138.0160 C   0  0  0  0  0  2  0  0  0  0  0  0
  191.9540  176.0590  138.1270 C   0  0  2  0  0  3  0  0  0  0  0  0
  193.9700  175.2220  137.7980 C   0  0  1  0  0  3  0  0  0  0  0  0
  188.5970  177.9130  138.2730 C   0  0  1  0  0  3  0  0  0  0  0  0
  191.3410  175.6340  135.6490 C   0  0  2  0  0  0  0  0  0  0  0  0
  188.6010  177.7260  140.6670 N   0  0  0  0  0  0  0  0  0  0  0  0
  184.0580  174.0410  137.3530 O   0  0  0  0  0  0  0  0  0  0  0  0
  195.2380  175.4760  137.0500 C   0  0  0  0  0  0  0  0  0  0  0  0
  196.4520  174.8430  137.4440 N   0  0  0  0  0  1  0  0  0  0  0  0
  195.2390  176.2850  136.0870 O   0  0  0  0  0  0  0  0  0  0  0  0
  181.7090  175.9550  137.4210 O   0  0  0  0  0  1  0  0  0  0  0  0
  182.8350  175.9420  136.5870 C   0  0  2  0  0  3  0  0  0  0  0  0
  182.5560  175.4030  135.3110 O   0  0  0  0  0  0  0  0  0  0  0  0
  180.3870  175.2730  134.5970 O   0  0  0  0  0  1  0  0  0  0  0  0
  181.3660  174.6560  135.3750 C   0  0  1  0  0  3  0  0  0  0  0  0
  181.6120  173.2550  134.8460 C   0  0  0  0  0  2  0  0  0  0  0  0
  181.5480  172.3360  135.8920 O   0  0  0  0  0  1  0  0  0  0  0  0
  2 25  1  0  0  0  0
  3 31  2  0  0  0  0
  3  2  1  0  0  0  0
  5 22  1  0  0  0  0
  7 30  1  0  0  0  0
  7  6  2  0  0  0  0
  8 30  2  0  0  0  0
  9 26  1  0  0  0  0
 11 14  1  0  0  0  0
 11 29  1  0  0  0  0
 12 24  1  0  0  0  0
 12 18  1  0  0  0  0
 13 16  1  0  0  0  0
 15  1  1  1  0  0  0
 15  7  1  0  0  0  0
 17 20  1  1  0  0  0
 17 26  1  0  0  0  0
 18 23  2  0  0  0  0
 19  5  1  1  0  0  0
 19 28  1  0  0  0  0
 21 17  1  0  0  0  0
 21  4  1  1  0  0  0
 21 27  1  0  0  0  0
 22  2  1  0  0  0  0
 22 13  1  0  0  0  0
 22 16  1  0  0  0  0
 23 19  1  0  0  0  0
 23 25  1  0  0  0  0
 24 10  1  6  0  0  0
 24 29  1  0  0  0  0
 26  1  1  6  0  0  0
 27 32  1  6  0  0  0
 27  9  1  0  0  0  0
 28 15  1  0  0  0  0
 28  8  1  1  0  0  0
 29 14  1  6  0  0  0
 29 17  1  0  0  0  0
 32 33  1  0  0  0  0
 34 32  2  0  0  0  0
 36  3  1  0  0  0  0
 36 35  1  1  0  0  0
 37 39  1  0  0  0  0
 37 36  1  0  0  0  0
 39 38  1  6  0  0  0
 40 39  1  0  0  0  0
 40 41  1  0  0  0  0
M  END
>  <MODEL>
2

>  <REMARK>
 VINA RESULT:      -4.2      2.567      3.809
  Name = 
  5 active torsions:
  status: ('A' for Active; 'I' for Inactive)
    1  A    between atoms: C_3  and  C_35
    2  A    between atoms: C_4  and  C_39
    3  A    between atoms: O_5  and  C_39
    4  A    between atoms: O_5  and  C_41
    5  A    between atoms: C_19  and  C_41
                            x       y       z     vdW  Elec       q    Type
                         _______ _______ _______ _____ _____    ______ ____

>  <TORSDO>
F 5

$$$$
=
 OpenBabel11062415203D

 41 46  0  0  1  0  0  0  0  0999 V2000
  188.8870  176.6860  135.3340 C   0  0  0  0  0  2  0  0  0  0  0  0
  183.1460  175.6250  136.8670 N   0  0  0  0  0  0  0  0  0  0  0  0
  182.1450  174.9700  137.6730 C   0  0  0  0  0  0  0  0  0  0  0  0
  191.1790  176.0440  139.3740 O   0  0  0  0  0  1  0  0  0  0  0  0
  184.2680  175.1580  134.5940 C   0  0  0  0  0  2  0  0  0  0  0  0
  188.0290  179.2490  136.6810 O   0  0  0  0  0  0  0  0  0  0  0  0
  187.3170  178.4980  135.9640 C   0  0  0  0  0  0  0  0  0  0  0  0
  185.5350  177.8570  134.6150 C   0  0  0  0  0  3  0  0  0  0  0  0
  191.2050  176.7660  136.0340 O   0  0  0  0  0  0  0  0  0  0  0  0
  188.3920  173.0930  134.8710 O   0  0  0  0  0  1  0  0  0  0  0  0
  189.8830  173.0220  137.5770 O   0  0  0  0  0  0  0  0  0  0  0  0
  187.1250  173.2500  136.8890 C   0  0  0  0  0  2  0  0  0  0  0  0
  181.7370  175.8450  134.7220 C   0  0  0  0  0  2  0  0  0  0  0  0
  190.6760  173.2170  136.4290 C   0  0  0  0  0  2  0  0  0  0  0  0
  187.5030  177.0340  135.8620 C   0  0  1  0  0  3  0  0  0  0  0  0
  182.5920  177.0820  134.9330 C   0  0  0  0  0  2  0  0  0  0  0  0
  189.8080  175.4800  137.4530 C   0  0  2  0  0  0  0  0  0  0  0  0
  186.1880  174.2640  137.4920 C   0  0  0  0  0  3  0  0  0  0  0  0
  185.6240  175.3530  135.3060 C   0  0  2  0  0  3  0  0  0  0  0  0
  188.8170  175.7190  138.4100 O   0  0  0  0  0  1  0  0  0  0  0  0
  191.2000  175.5280  138.0740 C   0  0  1  0  0  3  0  0  0  0  0  0
  183.0900  175.7300  135.3990 C   0  0  0  0  0  0  0  0  0  0  0  0
  185.4960  175.1840  136.8020 C   0  0  0  0  0  0  0  0  0  0  0  0
  188.2080  173.8730  136.0150 C   0  0  1  0  0  3  0  0  0  0  0  0
  184.4240  175.9640  137.4890 C   0  0  0  0  0  2  0  0  0  0  0  0
  189.8880  176.6640  136.4890 C   0  0  2  0  0  3  0  0  0  0  0  0
  191.9790  176.4730  137.1710 C   0  0  1  0  0  3  0  0  0  0  0  0
  186.4110  176.6160  134.8660 C   0  0  1  0  0  3  0  0  0  0  0  0
  189.5380  174.1140  136.7560 C   0  0  2  0  0  0  0  0  0  0  0  0
  186.2070  178.9790  135.2410 N   0  0  0  0  0  0  0  0  0  0  0  0
  182.2570  174.9790  138.9290 O   0  0  0  0  0  0  0  0  0  0  0  0
  193.2900  175.8730  136.7800 C   0  0  0  0  0  0  0  0  0  0  0  0
  193.4700  175.3040  135.4860 N   0  0  0  0  0  1  0  0  0  0  0  0
  194.2300  175.8350  137.6150 O   0  0  0  0  0  0  0  0  0  0  0  0
  179.7500  174.7610  137.4720 O   0  0  0  0  0  1  0  0  0  0  0  0
  180.9810  174.2380  137.0540 C   0  0  2  0  0  3  0  0  0  0  0  0
  181.0560  172.8360  137.2190 O   0  0  0  0  0  0  0  0  0  0  0  0
  182.8900  171.4690  137.2030 O   0  0  0  0  0  1  0  0  0  0  0  0
  182.1100  172.3340  136.4350 C   0  0  1  0  0  3  0  0  0  0  0  0
  181.5490  171.5770  135.2460 C   0  0  0  0  0  2  0  0  0  0  0  0
  180.9800  170.3790  135.6740 O   0  0  0  0  0  1  0  0  0  0  0  0
  2 25  1  0  0  0  0
  2  3  1  0  0  0  0
  3 31  2  0  0  0  0
  5 22  1  0  0  0  0
  7  6  2  0  0  0  0
  8 30  2  0  0  0  0
  9 26  1  0  0  0  0
  9 27  1  0  0  0  0
 12 18  1  0  0  0  0
 13 16  1  0  0  0  0
 13 22  1  0  0  0  0
 14 11  1  0  0  0  0
 15  1  1  6  0  0  0
 15  7  1  0  0  0  0
 16 22  1  0  0  0  0
 17 21  1  0  0  0  0
 17 20  1  1  0  0  0
 19  5  1  6  0  0  0
 19 23  1  0  0  0  0
 21  4  1  1  0  0  0
 22  2  1  0  0  0  0
 23 25  1  0  0  0  0
 23 18  2  0  0  0  0
 24 10  1  6  0  0  0
 24 29  1  0  0  0  0
 24 12  1  0  0  0  0
 26  1  1  6  0  0  0
 26 17  1  0  0  0  0
 27 32  1  6  0  0  0
 27 21  1  0  0  0  0
 28  8  1  1  0  0  0
 28 19  1  0  0  0  0
 28 15  1  0  0  0  0
 29 14  1  6  0  0  0
 29 17  1  0  0  0  0
 29 11  1  0  0  0  0
 30  7  1  0  0  0  0
 32 34  2  0  0  0  0
 33 32  1  0  0  0  0
 36 37  1  0  0  0  0
 36 35  1  1  0  0  0
 36  3  1  0  0  0  0
 39 38  1  1  0  0  0
 39 37  1  0  0  0  0
 40 41  1  0  0  0  0
 40 39  1  0  0  0  0
M  END
>  <MODEL>
3

>  <REMARK>
 VINA RESULT:      -3.8      3.382      4.994
  Name = 
  5 active torsions:
  status: ('A' for Active; 'I' for Inactive)
    1  A    between atoms: C_3  and  C_35
    2  A    between atoms: C_4  and  C_39
    3  A    between atoms: O_5  and  C_39
    4  A    between atoms: O_5  and  C_41
    5  A    between atoms: C_19  and  C_41
                            x       y       z     vdW  Elec       q    Type
                         _______ _______ _______ _____ _____    ______ ____

>  <TORSDO>
F 5

$$$$
=
 OpenBabel11062415203D

 41 46  0  0  1  0  0  0  0  0999 V2000
  188.3190  178.1230  138.3100 C   0  0  0  0  0  2  0  0  0  0  0  0
  182.4320  176.9600  138.9600 N   0  0  0  0  0  0  0  0  0  0  0  0
  181.2530  176.1740  138.6900 C   0  0  0  0  0  0  0  0  0  0  0  0
  190.1500  173.8640  137.6020 O   0  0  0  0  0  1  0  0  0  0  0  0
  183.5040  179.0720  137.9440 C   0  0  0  0  0  2  0  0  0  0  0  0
  188.1040  177.1290  141.1520 O   0  0  0  0  0  0  0  0  0  0  0  0
  187.2560  177.8180  140.5280 C   0  0  0  0  0  0  0  0  0  0  0  0
  185.4390  179.2320  140.2060 C   0  0  0  0  0  3  0  0  0  0  0  0
  190.5370  177.2490  137.8750 O   0  0  0  0  0  0  0  0  0  0  0  0
  186.9130  178.2430  134.9370 O   0  0  0  0  0  1  0  0  0  0  0  0
  188.1920  175.4330  134.8180 O   0  0  0  0  0  0  0  0  0  0  0  0
  185.6320  176.3630  135.6620 C   0  0  0  0  0  2  0  0  0  0  0  0
  181.2430  179.2230  139.2690 C   0  0  0  0  0  2  0  0  0  0  0  0
  189.0650  176.5260  134.6590 C   0  0  0  0  0  2  0  0  0  0  0  0
  187.0520  177.7490  139.0640 C   0  0  1  0  0  3  0  0  0  0  0  0
  182.3830  179.0750  140.2610 C   0  0  0  0  0  2  0  0  0  0  0  0
  188.7770  175.8210  137.1770 C   0  0  2  0  0  0  0  0  0  0  0  0
  184.9670  175.9490  136.9500 C   0  0  0  0  0  3  0  0  0  0  0  0
  184.8250  178.2760  137.8690 C   0  0  2  0  0  3  0  0  0  0  0  0
  187.8380  174.9780  137.7800 O   0  0  0  0  0  1  0  0  0  0  0  0
  190.0990  175.0970  136.9420 C   0  0  1  0  0  3  0  0  0  0  0  0
  182.4810  178.4300  138.8950 C   0  0  0  0  0  0  0  0  0  0  0  0
  184.5810  176.7860  137.9240 C   0  0  0  0  0  0  0  0  0  0  0  0
  186.8850  177.2060  135.8720 C   0  0  1  0  0  3  0  0  0  0  0  0
  183.7200  176.2740  139.0320 C   0  0  0  0  0  2  0  0  0  0  0  0
  189.2170  176.8940  138.1730 C   0  0  2  0  0  3  0  0  0  0  0  0
  191.1460  176.0280  137.5360 C   0  0  1  0  0  3  0  0  0  0  0  0
  185.9400  178.7810  138.8230 C   0  0  1  0  0  3  0  0  0  0  0  0
  188.1910  176.3900  135.8520 C   0  0  2  0  0  0  0  0  0  0  0  0
  186.3510  178.6760  141.1860 N   0  0  0  0  0  0  0  0  0  0  0  0
  181.3000  174.9200  138.8240 O   0  0  0  0  0  0  0  0  0  0  0  0
  192.2680  176.2450  136.5740 C   0  0  0  0  0  0  0  0  0  0  0  0
  193.5280  176.7320  137.0280 N   0  0  0  0  0  1  0  0  0  0  0  0
  192.0870  176.0330  135.3480 O   0  0  0  0  0  0  0  0  0  0  0  0
  178.9590  176.7350  139.1800 O   0  0  0  0  0  1  0  0  0  0  0  0
  179.9700  176.8040  138.2110 C   0  0  2  0  0  3  0  0  0  0  0  0
  179.5470  176.3180  136.9540 O   0  0  0  0  0  0  0  0  0  0  0  0
  179.4230  178.5570  136.5020 O   0  0  0  0  0  1  0  0  0  0  0  0
  179.7610  177.3090  135.9790 C   0  0  1  0  0  3  0  0  0  0  0  0
  181.2230  177.3200  135.5720 C   0  0  0  0  0  2  0  0  0  0  0  0
  181.4640  176.3040  134.6480 O   0  0  0  0  0  1  0  0  0  0  0  0
  2 25  1  0  0  0  0
  3 31  2  0  0  0  0
  3  2  1  0  0  0  0
  5 22  1  0  0  0  0
  7  6  2  0  0  0  0
  7 30  1  0  0  0  0
  8 30  2  0  0  0  0
  9 26  1  0  0  0  0
 11 29  1  0  0  0  0
 12 24  1  0  0  0  0
 12 18  1  0  0  0  0
 13 16  1  0  0  0  0
 14 11  1  0  0  0  0
 15  1  1  6  0  0  0
 15  7  1  0  0  0  0
 17 20  1  1  0  0  0
 17 26  1  0  0  0  0
 18 23  2  0  0  0  0
 19 23  1  0  0  0  0
 19  5  1  1  0  0  0
 19 28  1  0  0  0  0
 21 17  1  0  0  0  0
 21 27  1  0  0  0  0
 21  4  1  1  0  0  0
 22  2  1  0  0  0  0
 22 13  1  0  0  0  0
 22 16  1  0  0  0  0
 23 25  1  0  0  0  0
 24 10  1  6  0  0  0
 26  1  1  6  0  0  0
 27 32  1  6  0  0  0
 27  9  1  0  0  0  0
 28 15  1  0  0  0  0
 28  8  1  1  0  0  0
 29 14  1  6  0  0  0
 29 24  1  0  0  0  0
 29 17  1  0  0  0  0
 32 33  1  0  0  0  0
 34 32  2  0  0  0  0
 36  3  1  0  0  0  0
 36 35  1  1  0  0  0
 37 36  1  0  0  0  0
 39 38  1  1  0  0  0
 39 37  1  0  0  0  0
 40 39  1  0  0  0  0
 41 40  1  0  0  0  0
M  END
>  <MODEL>
4

>  <REMARK>
 VINA RESULT:      -3.4      1.455      1.749
  Name = 
  5 active torsions:
  status: ('A' for Active; 'I' for Inactive)
    1  A    between atoms: C_3  and  C_35
    2  A    between atoms: C_4  and  C_39
    3  A    between atoms: O_5  and  C_39
    4  A    between atoms: O_5  and  C_41
    5  A    between atoms: C_19  and  C_41
                            x       y       z     vdW  Elec       q    Type
                         _______ _______ _______ _____ _____    ______ ____

>  <TORSDO>
F 5

$$$$
=
 OpenBabel11062415203D

 41 46  0  0  1  0  0  0  0  0999 V2000
  186.5990  175.2700  136.0330 C   0  0  0  0  0  2  0  0  0  0  0  0
  192.4580  174.0540  136.8260 N   0  0  0  0  0  0  0  0  0  0  0  0
  193.7620  174.3680  137.3560 C   0  0  0  0  0  0  0  0  0  0  0  0
  185.5030  177.6810  139.9030 O   0  0  0  0  0  1  0  0  0  0  0  0
  191.2350  174.4630  134.5940 C   0  0  0  0  0  2  0  0  0  0  0  0
  186.5840  172.9400  137.9520 O   0  0  0  0  0  0  0  0  0  0  0  0
  187.3990  173.1390  137.0140 C   0  0  0  0  0  0  0  0  0  0  0  0
  189.0210  172.6470  135.4230 C   0  0  0  0  0  3  0  0  0  0  0  0
  184.6040  176.3480  136.8870 O   0  0  0  0  0  0  0  0  0  0  0  0
  188.3980  178.1100  134.5940 O   0  0  0  0  0  1  0  0  0  0  0  0
  187.5600  179.3900  137.2780 O   0  0  0  0  0  0  0  0  0  0  0  0
  189.8300  177.8550  136.4870 C   0  0  0  0  0  2  0  0  0  0  0  0
  193.2610  172.7970  134.7250 C   0  0  0  0  0  2  0  0  0  0  0  0
  186.5680  179.3170  136.2820 C   0  0  0  0  0  2  0  0  0  0  0  0
  187.7980  174.4810  136.5380 C   0  0  1  0  0  3  0  0  0  0  0  0
  192.0350  172.1250  135.3180 C   0  0  0  0  0  2  0  0  0  0  0  0
  186.6250  177.1760  137.8110 C   0  0  2  0  0  0  0  0  0  0  0  0
  190.3750  176.6910  137.2730 C   0  0  0  0  0  3  0  0  0  0  0  0
  190.0620  175.0270  135.4240 C   0  0  2  0  0  3  0  0  0  0  0  0
  187.5890  176.7430  138.7260 O   0  0  0  0  0  1  0  0  0  0  0  0
  185.4620  177.8660  138.5170 C   0  0  1  0  0  3  0  0  0  0  0  0
  192.2080  173.6250  135.4390 C   0  0  0  0  0  0  0  0  0  0  0  0
  190.5080  175.4390  136.8080 C   0  0  0  0  0  0  0  0  0  0  0  0
  188.4530  177.5900  135.8890 C   0  0  1  0  0  3  0  0  0  0  0  0
  191.2820  174.4390  137.6030 C   0  0  0  0  0  2  0  0  0  0  0  0
  185.9110  175.9670  137.2060 C   0  0  2  0  0  3  0  0  0  0  0  0
  184.2250  177.1800  137.9550 C   0  0  1  0  0  3  0  0  0  0  0  0
  188.7730  174.1650  135.3930 C   0  0  1  0  0  3  0  0  0  0  0  0
  187.2910  178.1090  136.7570 C   0  0  2  0  0  0  0  0  0  0  0  0
  188.0780  172.0850  136.3710 N   0  0  0  0  0  0  0  0  0  0  0  0
  193.8780  174.6760  138.5740 O   0  0  0  0  0  0  0  0  0  0  0  0
  183.2170  178.1890  137.5100 C   0  0  0  0  0  0  0  0  0  0  0  0
  183.1400  179.4650  138.1390 N   0  0  0  0  0  1  0  0  0  0  0  0
  182.4040  177.8930  136.5960 O   0  0  0  0  0  0  0  0  0  0  0  0
  195.6010  173.1160  136.4240 O   0  0  0  0  0  1  0  0  0  0  0  0
  194.9930  174.3770  136.4860 C   0  0  2  0  0  3  0  0  0  0  0  0
  195.9060  175.4010  136.8260 O   0  0  0  0  0  0  0  0  0  0  0  0
  198.0650  175.8180  136.1960 O   0  0  0  0  0  1  0  0  0  0  0  0
  197.2140  174.8850  136.7870 C   0  0  1  0  0  3  0  0  0  0  0  0
  197.6930  174.5970  138.1980 C   0  0  0  0  0  2  0  0  0  0  0  0
  198.5010  175.6410  138.6460 O   0  0  0  0  0  1  0  0  0  0  0  0
  2  3  1  0  0  0  0
  2 25  1  0  0  0  0
  3 31  2  0  0  0  0
  5 22  1  0  0  0  0
  7  6  2  0  0  0  0
  8 30  2  0  0  0  0
  9 26  1  0  0  0  0
  9 27  1  0  0  0  0
 12 18  1  0  0  0  0
 13 16  1  0  0  0  0
 13 22  1  0  0  0  0
 14 11  1  0  0  0  0
 15  1  1  6  0  0  0
 15  7  1  0  0  0  0
 16 22  1  0  0  0  0
 17 21  1  0  0  0  0
 17 20  1  1  0  0  0
 19  5  1  1  0  0  0
 19 23  1  0  0  0  0
 21  4  1  1  0  0  0
 22  2  1  0  0  0  0
 23 18  2  0  0  0  0
 23 25  1  0  0  0  0
 24 10  1  6  0  0  0
 24 12  1  0  0  0  0
 24 29  1  0  0  0  0
 26  1  1  6  0  0  0
 26 17  1  0  0  0  0
 27 32  1  6  0  0  0
 27 21  1  0  0  0  0
 28  8  1  1  0  0  0
 28 19  1  0  0  0  0
 28 15  1  0  0  0  0
 29 14  1  6  0  0  0
 29 11  1  0  0  0  0
 29 17  1  0  0  0  0
 30  7  1  0  0  0  0
 32 33  1  0  0  0  0
 34 32  2  0  0  0  0
 36 35  1  1  0  0  0
 36 37  1  0  0  0  0
 36  3  1  0  0  0  0
 39 38  1  1  0  0  0
 39 37  1  0  0  0  0
 39 40  1  0  0  0  0
 40 41  1  0  0  0  0
M  END
>  <MODEL>
5

>  <REMARK>
 VINA RESULT:      -3.3      3.242     10.117
  Name = 
  5 active torsions:
  status: ('A' for Active; 'I' for Inactive)
    1  A    between atoms: C_3  and  C_35
    2  A    between atoms: C_4  and  C_39
    3  A    between atoms: O_5  and  C_39
    4  A    between atoms: O_5  and  C_41
    5  A    between atoms: C_19  and  C_41
                            x       y       z     vdW  Elec       q    Type
                         _______ _______ _______ _____ _____    ______ ____

>  <TORSDO>
F 5

$$$$
=
 OpenBabel11062415203D

 41 46  0  0  1  0  0  0  0  0999 V2000
  183.8740  174.0600  135.4490 C   0  0  0  0  0  2  0  0  0  0  0  0
  189.6900  174.7260  136.9240 N   0  0  0  0  0  0  0  0  0  0  0  0
  190.7490  175.3670  137.6640 C   0  0  0  0  0  0  0  0  0  0  0  0
  181.6510  175.3700  139.3650 O   0  0  0  0  0  1  0  0  0  0  0  0
  188.6210  175.0410  134.6000 C   0  0  0  0  0  2  0  0  0  0  0  0
  184.4760  171.5940  137.0840 O   0  0  0  0  0  0  0  0  0  0  0  0
  185.2590  172.1870  136.2970 C   0  0  0  0  0  0  0  0  0  0  0  0
  187.0970  172.4970  134.9060 C   0  0  0  0  0  3  0  0  0  0  0  0
  181.5580  174.2840  136.1260 O   0  0  0  0  0  0  0  0  0  0  0  0
  184.7180  177.5140  134.5950 O   0  0  0  0  0  1  0  0  0  0  0  0
  183.2370  178.0320  137.2570 O   0  0  0  0  0  0  0  0  0  0  0  0
  185.9610  177.4620  136.6330 C   0  0  0  0  0  2  0  0  0  0  0  0
  191.0730  174.1310  134.8350 C   0  0  0  0  0  2  0  0  0  0  0  0
  182.4310  177.7870  136.1290 C   0  0  0  0  0  2  0  0  0  0  0  0
  185.2170  173.6410  136.0300 C   0  0  1  0  0  3  0  0  0  0  0  0
  190.1010  173.0140  135.1720 C   0  0  0  0  0  2  0  0  0  0  0  0
  183.0730  175.5800  137.4100 C   0  0  2  0  0  0  0  0  0  0  0  0
  186.7940  176.4360  137.3560 C   0  0  0  0  0  3  0  0  0  0  0  0
  187.2510  175.0590  135.3120 C   0  0  2  0  0  3  0  0  0  0  0  0
  184.0340  175.3550  138.3990 O   0  0  0  0  0  1  0  0  0  0  0  0
  181.6820  175.7370  138.0150 C   0  0  1  0  0  3  0  0  0  0  0  0
  189.7360  174.4510  135.4780 C   0  0  0  0  0  0  0  0  0  0  0  0
  187.3940  175.3820  136.7820 C   0  0  0  0  0  0  0  0  0  0  0  0
  184.8230  176.8530  135.8210 C   0  0  1  0  0  3  0  0  0  0  0  0
  188.3840  174.5840  137.5650 C   0  0  0  0  0  2  0  0  0  0  0  0
  182.8790  174.3090  136.5830 C   0  0  2  0  0  3  0  0  0  0  0  0
  180.8150  174.7760  137.2140 C   0  0  1  0  0  3  0  0  0  0  0  0
  186.3460  173.8370  135.0070 C   0  0  1  0  0  3  0  0  0  0  0  0
  183.4760  176.8270  136.5670 C   0  0  2  0  0  0  0  0  0  0  0  0
  186.3180  171.5220  135.6450 N   0  0  0  0  0  0  0  0  0  0  0  0
  190.6350  175.5090  138.9130 O   0  0  0  0  0  0  0  0  0  0  0  0
  179.5700  175.4530  136.7420 C   0  0  0  0  0  0  0  0  0  0  0  0
  179.0960  175.2560  135.4130 N   0  0  0  0  0  1  0  0  0  0  0  0
  178.9570  176.2350  137.5140 O   0  0  0  0  0  0  0  0  0  0  0  0
  191.6600  176.6600  135.8430 O   0  0  0  0  0  1  0  0  0  0  0  0
  191.9790  175.9090  136.9820 C   0  0  2  0  0  3  0  0  0  0  0  0
  192.9520  174.9180  136.7200 O   0  0  0  0  0  0  0  0  0  0  0  0
  194.0470  176.5910  137.8320 O   0  0  0  0  0  1  0  0  0  0  0  0
  194.1940  175.3450  137.2210 C   0  0  1  0  0  3  0  0  0  0  0  0
  194.7060  174.3480  138.2440 C   0  0  0  0  0  2  0  0  0  0  0  0
  195.6900  174.9400  139.0330 O   0  0  0  0  0  1  0  0  0  0  0  0
  2 25  1  0  0  0  0
  2  3  1  0  0  0  0
  3 31  2  0  0  0  0
  5 22  1  0  0  0  0
  7  6  2  0  0  0  0
  8 30  2  0  0  0  0
  9 26  1  0  0  0  0
  9 27  1  0  0  0  0
 12 18  1  0  0  0  0
 13 16  1  0  0  0  0
 13 22  1  0  0  0  0
 14 11  1  0  0  0  0
 15  1  1  6  0  0  0
 15  7  1  0  0  0  0
 16 22  1  0  0  0  0
 17 21  1  0  0  0  0
 17 20  1  1  0  0  0
 19  5  1  1  0  0  0
 19 23  1  0  0  0  0
 21  4  1  1  0  0  0
 22  2  1  0  0  0  0
 23 18  2  0  0  0  0
 23 25  1  0  0  0  0
 24 10  1  6  0  0  0
 24 29  1  0  0  0  0
 24 12  1  0  0  0  0
 26  1  1  6  0  0  0
 26 17  1  0  0  0  0
 27 32  1  6  0  0  0
 27 21  1  0  0  0  0
 28  8  1  1  0  0  0
 28 19  1  0  0  0  0
 28 15  1  0  0  0  0
 29 14  1  6  0  0  0
 29 11  1  0  0  0  0
 29 17  1  0  0  0  0
 30  7  1  0  0  0  0
 32 34  2  0  0  0  0
 33 32  1  0  0  0  0
 36 35  1  6  0  0  0
 36  3  1  0  0  0  0
 37 36  1  0  0  0  0
 37 39  1  0  0  0  0
 39 38  1  1  0  0  0
 39 40  1  0  0  0  0
 40 41  1  0  0  0  0
M  END
>  <MODEL>
6

>  <REMARK>
 VINA RESULT:      -3.2      3.287      9.585
  Name = 
  5 active torsions:
  status: ('A' for Active; 'I' for Inactive)
    1  A    between atoms: C_3  and  C_35
    2  A    between atoms: C_4  and  C_39
    3  A    between atoms: O_5  and  C_39
    4  A    between atoms: O_5  and  C_41
    5  A    between atoms: C_19  and  C_41
                            x       y       z     vdW  Elec       q    Type
                         _______ _______ _______ _____ _____    ______ ____

>  <TORSDO>
F 5

$$$$
=
 OpenBabel11062415203D

 41 46  0  0  1  0  0  0  0  0999 V2000
  187.9900  176.4840  138.4650 C   0  0  0  0  0  2  0  0  0  0  0  0
  193.7360  176.0440  136.6700 N   0  0  0  0  0  0  0  0  0  0  0  0
  194.7400  175.8590  135.6500 C   0  0  0  0  0  0  0  0  0  0  0  0
  185.8510  178.2520  134.6840 O   0  0  0  0  0  1  0  0  0  0  0  0
  192.4940  174.5050  138.3230 C   0  0  0  0  0  2  0  0  0  0  0  0
  189.0280  179.3080  138.7140 O   0  0  0  0  0  0  0  0  0  0  0  0
  189.6710  178.2470  138.9240 C   0  0  0  0  0  0  0  0  0  0  0  0
  191.3590  176.8710  139.7390 C   0  0  0  0  0  3  0  0  0  0  0  0
  185.7110  177.0740  137.8890 O   0  0  0  0  0  0  0  0  0  0  0  0
  188.2920  173.1780  136.9320 O   0  0  0  0  0  1  0  0  0  0  0  0
  186.9210  174.6620  134.5940 O   0  0  0  0  0  0  0  0  0  0  0  0
  189.6530  174.3100  135.3290 C   0  0  0  0  0  2  0  0  0  0  0  0
  195.0580  174.9910  138.6140 C   0  0  0  0  0  2  0  0  0  0  0  0
  186.0880  174.2620  135.6570 C   0  0  0  0  0  2  0  0  0  0  0  0
  189.4110  176.9710  138.2220 C   0  0  1  0  0  3  0  0  0  0  0  0
  194.2730  176.2000  139.0900 C   0  0  0  0  0  2  0  0  0  0  0  0
  187.1080  176.6610  136.0180 C   0  0  2  0  0  0  0  0  0  0  0  0
  190.6640  175.4260  135.3760 C   0  0  0  0  0  3  0  0  0  0  0  0
  191.1810  175.1380  137.8110 C   0  0  2  0  0  3  0  0  0  0  0  0
  188.1500  177.3110  135.3510 O   0  0  0  0  0  1  0  0  0  0  0  0
  185.7480  177.1230  135.5040 C   0  0  1  0  0  3  0  0  0  0  0  0
  193.7320  175.3430  137.9650 C   0  0  0  0  0  0  0  0  0  0  0  0
  191.3680  175.7880  136.4590 C   0  0  0  0  0  0  0  0  0  0  0  0
  188.5640  174.4360  136.3870 C   0  0  1  0  0  3  0  0  0  0  0  0
  192.5050  176.7440  136.3110 C   0  0  0  0  0  2  0  0  0  0  0  0
  187.0420  177.1470  137.4660 C   0  0  2  0  0  3  0  0  0  0  0  0
  184.9760  177.4860  136.7640 C   0  0  1  0  0  3  0  0  0  0  0  0
  190.4370  176.0160  138.8510 C   0  0  1  0  0  3  0  0  0  0  0  0
  187.2810  175.1200  135.8760 C   0  0  2  0  0  0  0  0  0  0  0  0
  190.7700  178.1940  139.8060 N   0  0  0  0  0  0  0  0  0  0  0  0
  194.6840  176.5470  134.5940 O   0  0  0  0  0  0  0  0  0  0  0  0
  183.6220  176.8540  136.7550 C   0  0  0  0  0  0  0  0  0  0  0  0
  183.3730  175.6630  137.4970 N   0  0  0  0  0  1  0  0  0  0  0  0
  182.7050  177.3580  136.0570 O   0  0  0  0  0  0  0  0  0  0  0  0
  197.1100  175.4280  135.7810 O   0  0  0  0  0  1  0  0  0  0  0  0
  195.8390  174.8370  135.7920 C   0  0  2  0  0  3  0  0  0  0  0  0
  195.7300  173.7730  134.8700 O   0  0  0  0  0  0  0  0  0  0  0  0
  194.1040  172.1990  135.2110 O   0  0  0  0  0  1  0  0  0  0  0  0
  195.3950  172.5940  135.5610 C   0  0  1  0  0  3  0  0  0  0  0  0
  196.3700  171.4900  135.1950 C   0  0  0  0  0  2  0  0  0  0  0  0
  197.6740  171.9000  135.4690 O   0  0  0  0  0  1  0  0  0  0  0  0
  2 22  1  0  0  0  0
  3 36  1  0  0  0  0
  3  2  1  0  0  0  0
  6  7  2  0  0  0  0
  7 30  1  0  0  0  0
  8 30  2  0  0  0  0
 11 14  1  0  0  0  0
 11 29  1  0  0  0  0
 12 18  1  0  0  0  0
 12 24  1  0  0  0  0
 13 16  1  0  0  0  0
 15  1  1  1  0  0  0
 15 28  1  0  0  0  0
 15  7  1  0  0  0  0
 17 20  1  6  0  0  0
 17 26  1  0  0  0  0
 18 23  2  0  0  0  0
 19  5  1  1  0  0  0
 19 28  1  0  0  0  0
 21  4  1  6  0  0  0
 21 17  1  0  0  0  0
 21 27  1  0  0  0  0
 22  5  1  0  0  0  0
 22 13  1  0  0  0  0
 22 16  1  0  0  0  0
 23 19  1  0  0  0  0
 24 10  1  6  0  0  0
 25 23  1  0  0  0  0
 25  2  1  0  0  0  0
 26  9  1  0  0  0  0
 26  1  1  1  0  0  0
 27 32  1  6  0  0  0
 27  9  1  0  0  0  0
 28  8  1  6  0  0  0
 29 14  1  1  0  0  0
 29 17  1  0  0  0  0
 29 24  1  0  0  0  0
 31  3  2  0  0  0  0
 32 33  1  0  0  0  0
 34 32  2  0  0  0  0
 36 35  1  6  0  0  0
 37 39  1  0  0  0  0
 37 36  1  0  0  0  0
 39 38  1  6  0  0  0
 40 41  1  0  0  0  0
 40 39  1  0  0  0  0
M  END
>  <MODEL>
7

>  <REMARK>
 VINA RESULT:      -2.9      3.208     10.020
  Name = 
  5 active torsions:
  status: ('A' for Active; 'I' for Inactive)
    1  A    between atoms: C_3  and  C_35
    2  A    between atoms: C_4  and  C_39
    3  A    between atoms: O_5  and  C_39
    4  A    between atoms: O_5  and  C_41
    5  A    between atoms: C_19  and  C_41
                            x       y       z     vdW  Elec       q    Type
                         _______ _______ _______ _____ _____    ______ ____

>  <TORSDO>
F 5

$$$$
=
 OpenBabel11062415203D

 41 46  0  0  1  0  0  0  0  0999 V2000
  186.9170  179.1240  142.3760 C   0  0  0  0  0  2  0  0  0  0  0  0
  189.3440  176.1580  137.7120 N   0  0  0  0  0  0  0  0  0  0  0  0
  190.1630  175.1070  137.1600 C   0  0  0  0  0  0  0  0  0  0  0  0
  186.5090  175.7790  145.6380 O   0  0  0  0  0  1  0  0  0  0  0  0
  189.7100  178.6280  138.3550 C   0  0  0  0  0  2  0  0  0  0  0  0
  184.5650  177.6760  141.1580 O   0  0  0  0  0  0  0  0  0  0  0  0
  185.5480  178.1680  140.5440 C   0  0  0  0  0  0  0  0  0  0  0  0
  186.7800  179.0030  138.7580 C   0  0  0  0  0  3  0  0  0  0  0  0
  186.1410  179.0360  144.6700 O   0  0  0  0  0  0  0  0  0  0  0  0
  190.5370  179.3460  142.8440 O   0  0  0  0  0  1  0  0  0  0  0  0
  189.9320  177.1050  144.8830 O   0  0  0  0  0  0  0  0  0  0  0  0
  190.5320  177.0780  142.0960 C   0  0  0  0  0  2  0  0  0  0  0  0
  189.7290  177.8820  135.8370 C   0  0  0  0  0  2  0  0  0  0  0  0
  189.6440  178.4210  145.2940 C   0  0  0  0  0  2  0  0  0  0  0  0
  186.9090  178.2720  141.1150 C   0  0  1  0  0  3  0  0  0  0  0  0
  188.2910  177.9290  136.3240 C   0  0  0  0  0  2  0  0  0  0  0  0
  187.6130  177.2740  144.0760 C   0  0  2  0  0  0  0  0  0  0  0  0
  189.7570  176.2860  141.0750 C   0  0  0  0  0  3  0  0  0  0  0  0
  189.0840  178.2880  139.7250 C   0  0  2  0  0  3  0  0  0  0  0  0
  187.5580  176.1040  143.3120 O   0  0  0  0  0  1  0  0  0  0  0  0
  187.1260  177.0270  145.5000 C   0  0  1  0  0  3  0  0  0  0  0  0
  189.4030  177.5670  137.2850 C   0  0  0  0  0  0  0  0  0  0  0  0
  189.1330  176.8030  140.0060 C   0  0  0  0  0  0  0  0  0  0  0  0
  189.7280  178.2140  142.7170 C   0  0  1  0  0  3  0  0  0  0  0  0
  188.6100  175.8890  138.9470 C   0  0  0  0  0  2  0  0  0  0  0  0
  186.5530  178.2590  143.5830 C   0  0  2  0  0  3  0  0  0  0  0  0
  186.0990  178.1240  145.7390 C   0  0  1  0  0  3  0  0  0  0  0  0
  187.7050  178.9470  139.9870 C   0  0  1  0  0  3  0  0  0  0  0  0
  189.0620  177.8420  144.0550 C   0  0  2  0  0  0  0  0  0  0  0  0
  185.4610  178.5990  139.2050 N   0  0  0  0  0  0  0  0  0  0  0  0
  190.0000  173.9210  137.5570 O   0  0  0  0  0  0  0  0  0  0  0  0
  186.3550  178.8170  147.0370 C   0  0  0  0  0  0  0  0  0  0  0  0
  187.3270  178.3120  147.9500 N   0  0  0  0  0  1  0  0  0  0  0  0
  185.6810  179.8340  147.3430 O   0  0  0  0  0  0  0  0  0  0  0  0
  191.0060  174.7320  134.9320 O   0  0  0  0  0  1  0  0  0  0  0  0
  191.2420  175.3900  136.1460 C   0  0  2  0  0  3  0  0  0  0  0  0
  192.5450  175.1580  136.6410 O   0  0  0  0  0  0  0  0  0  0  0  0
  193.5580  176.6620  138.0370 O   0  0  0  0  0  1  0  0  0  0  0  0
  193.2380  176.3800  136.7090 C   0  0  1  0  0  3  0  0  0  0  0  0
  194.5170  176.2890  135.8980 C   0  0  0  0  0  2  0  0  0  0  0  0
  195.0570  177.5620  135.7190 O   0  0  0  0  0  1  0  0  0  0  0  0
  2 25  1  0  0  0  0
  3 31  2  0  0  0  0
  3  2  1  0  0  0  0
  7 15  1  0  0  0  0
  7  6  2  0  0  0  0
  8 30  2  0  0  0  0
  9 27  1  0  0  0  0
 11 14  1  0  0  0  0
 12 24  1  0  0  0  0
 13 16  1  0  0  0  0
 13 22  1  0  0  0  0
 15  1  1  1  0  0  0
 16 22  1  0  0  0  0
 17 20  1  6  0  0  0
 17 21  1  0  0  0  0
 18 12  1  0  0  0  0
 19  5  1  6  0  0  0
 19 28  1  0  0  0  0
 19 23  1  0  0  0  0
 21  4  1  6  0  0  0
 21 27  1  0  0  0  0
 22  2  1  0  0  0  0
 22  5  1  0  0  0  0
 23 18  2  0  0  0  0
 24 10  1  1  0  0  0
 24 29  1  0  0  0  0
 25 23  1  0  0  0  0
 26  1  1  6  0  0  0
 26 17  1  0  0  0  0
 26  9  1  0  0  0  0
 27 32  1  1  0  0  0
 28  8  1  6  0  0  0
 28 15  1  0  0  0  0
 29 17  1  0  0  0  0
 29 11  1  0  0  0  0
 29 14  1  1  0  0  0
 30  7  1  0  0  0  0
 32 34  2  0  0  0  0
 32 33  1  0  0  0  0
 36 35  1  6  0  0  0
 36 37  1  0  0  0  0
 36  3  1  0  0  0  0
 37 39  1  0  0  0  0
 39 38  1  1  0  0  0
 40 39  1  0  0  0  0
 41 40  1  0  0  0  0
M  END
>  <MODEL>
8

>  <REMARK>
 VINA RESULT:      -2.6      3.525      8.534
  Name = 
  5 active torsions:
  status: ('A' for Active; 'I' for Inactive)
    1  A    between atoms: C_3  and  C_35
    2  A    between atoms: C_4  and  C_39
    3  A    between atoms: O_5  and  C_39
    4  A    between atoms: O_5  and  C_41
    5  A    between atoms: C_19  and  C_41
                            x       y       z     vdW  Elec       q    Type
                         _______ _______ _______ _____ _____    ______ ____

>  <TORSDO>
F 5

$$$$
=
 OpenBabel11062415203D

 41 46  0  0  1  0  0  0  0  0999 V2000
  184.2160  177.5600  136.9060 C   0  0  0  0  0  2  0  0  0  0  0  0
  189.0900  177.0690  140.4340 N   0  0  0  0  0  0  0  0  0  0  0  0
  189.7300  177.0660  141.7270 C   0  0  0  0  0  0  0  0  0  0  0  0
  180.7650  176.0110  139.6780 O   0  0  0  0  0  1  0  0  0  0  0  0
  188.6580  178.8310  138.6030 C   0  0  0  0  0  2  0  0  0  0  0  0
  184.8960  174.6210  136.7700 O   0  0  0  0  0  0  0  0  0  0  0  0
  185.7070  175.5790  136.8560 C   0  0  0  0  0  0  0  0  0  0  0  0
  187.7340  176.7110  136.7210 C   0  0  0  0  0  3  0  0  0  0  0  0
  181.8170  177.3010  136.6930 O   0  0  0  0  0  0  0  0  0  0  0  0
  184.4470  180.7290  138.7140 O   0  0  0  0  0  1  0  0  0  0  0  0
  182.2150  179.3930  140.3820 O   0  0  0  0  0  0  0  0  0  0  0  0
  185.0610  179.3530  140.5670 C   0  0  0  0  0  2  0  0  0  0  0  0
  191.0920  177.9740  139.0900 C   0  0  0  0  0  2  0  0  0  0  0  0
  181.8280  179.9490  139.1470 C   0  0  0  0  0  2  0  0  0  0  0  0
  185.4070  176.8560  137.5410 C   0  0  1  0  0  3  0  0  0  0  0  0
  190.3480  176.9130  138.2980 C   0  0  0  0  0  2  0  0  0  0  0  0
  182.5820  177.4370  138.9340 C   0  0  2  0  0  0  0  0  0  0  0  0
  185.8760  178.0990  140.7490 C   0  0  0  0  0  3  0  0  0  0  0  0
  187.1790  178.3870  138.6280 C   0  0  2  0  0  3  0  0  0  0  0  0
  183.2600  176.6150  139.8390 O   0  0  0  0  0  1  0  0  0  0  0  0
  181.0810  177.1690  138.9590 C   0  0  1  0  0  3  0  0  0  0  0  0
  189.5940  177.8040  139.2620 C   0  0  0  0  0  0  0  0  0  0  0  0
  186.8350  177.6720  139.9140 C   0  0  0  0  0  0  0  0  0  0  0  0
  184.3610  179.4280  139.2150 C   0  0  1  0  0  3  0  0  0  0  0  0
  187.7270  176.5510  140.3340 C   0  0  0  0  0  2  0  0  0  0  0  0
  182.9190  177.0140  137.5040 C   0  0  2  0  0  3  0  0  0  0  0  0
  180.7120  176.9690  137.4970 C   0  0  1  0  0  3  0  0  0  0  0  0
  186.6980  177.6650  137.3420 C   0  0  1  0  0  3  0  0  0  0  0  0
  182.9030  178.9290  139.2440 C   0  0  2  0  0  0  0  0  0  0  0  0
  187.0270  175.4950  136.3690 N   0  0  0  0  0  0  0  0  0  0  0  0
  189.2470  176.3600  142.6560 O   0  0  0  0  0  0  0  0  0  0  0  0
  179.5230  177.7960  137.1320 C   0  0  0  0  0  0  0  0  0  0  0  0
  179.0810  177.8750  135.7800 N   0  0  0  0  0  1  0  0  0  0  0  0
  178.9310  178.4590  138.0220 O   0  0  0  0  0  0  0  0  0  0  0  0
  192.1130  177.1490  142.0870 O   0  0  0  0  0  1  0  0  0  0  0  0
  190.9410  177.9140  142.0170 C   0  0  2  0  0  3  0  0  0  0  0  0
  190.7760  178.7540  143.1420 O   0  0  0  0  0  0  0  0  0  0  0  0
  192.3850  179.5030  144.5850 O   0  0  0  0  0  1  0  0  0  0  0  0
  191.6940  178.3770  144.1390 C   0  0  1  0  0  3  0  0  0  0  0  0
  190.9540  177.7520  145.3070 C   0  0  0  0  0  2  0  0  0  0  0  0
  191.8500  177.0550  146.1160 O   0  0  0  0  0  1  0  0  0  0  0  0
  2  3  1  0  0  0  0
  3 36  1  0  0  0  0
  3 31  2  0  0  0  0
  5 22  1  0  0  0  0
  6  7  2  0  0  0  0
  7 15  1  0  0  0  0
  9 27  1  0  0  0  0
  9 26  1  0  0  0  0
 12 18  1  0  0  0  0
 13 22  1  0  0  0  0
 14 11  1  0  0  0  0
 15  1  1  6  0  0  0
 16 13  1  0  0  0  0
 16 22  1  0  0  0  0
 17 21  1  0  0  0  0
 17 29  1  0  0  0  0
 17 20  1  1  0  0  0
 19  5  1  6  0  0  0
 19 23  1  0  0  0  0
 21  4  1  1  0  0  0
 22  2  1  0  0  0  0
 23 25  1  0  0  0  0
 23 18  2  0  0  0  0
 24 10  1  1  0  0  0
 24 29  1  0  0  0  0
 24 12  1  0  0  0  0
 25  2  1  0  0  0  0
 26  1  1  6  0  0  0
 26 17  1  0  0  0  0
 27 32  1  6  0  0  0
 27 21  1  0  0  0  0
 28  8  1  1  0  0  0
 28 15  1  0  0  0  0
 28 19  1  0  0  0  0
 29 14  1  6  0  0  0
 29 11  1  0  0  0  0
 30  8  2  0  0  0  0
 30  7  1  0  0  0  0
 32 34  2  0  0  0  0
 33 32  1  0  0  0  0
 36 35  1  1  0  0  0
 36 37  1  0  0  0  0
 37 39  1  0  0  0  0
 39 38  1  1  0  0  0
 39 40  1  0  0  0  0
 40 41  1  0  0  0  0
M  END
>  <MODEL>
9

>  <REMARK>
 VINA RESULT:      -2.2      2.799      8.904
  Name = 
  5 active torsions:
  status: ('A' for Active; 'I' for Inactive)
    1  A    between atoms: C_3  and  C_35
    2  A    between atoms: C_4  and  C_39
    3  A    between atoms: O_5  and  C_39
    4  A    between atoms: O_5  and  C_41
    5  A    between atoms: C_19  and  C_41
                            x       y       z     vdW  Elec       q    Type
                         _______ _______ _______ _____ _____    ______ ____

>  <TORSDO>
F 5

$$$$
