=
 OpenBabel11062414433D

 27 29  0  0  1  0  0  0  0  0999 V2000
  189.2270  177.2740  142.3560 C   0  0  2  0  0  3  0  0  0  0  0  0
  188.6660  177.9830  141.1640 C   0  0  0  0  0  0  0  0  0  0  0  0
  187.9080  178.9760  141.3350 O   0  0  0  0  0  0  0  0  0  0  0  0
  188.9910  177.5380  139.8440 N   0  0  0  0  0  2  0  0  0  0  0  0
  189.0130  179.2850  138.3200 O   0  0  0  0  0  1  0  0  0  0  0  0
  188.3620  178.0960  138.6570 C   0  0  1  0  0  3  0  0  0  0  0  0
  188.4450  177.0990  137.4930 C   0  0  2  0  0  3  0  0  0  0  0  0
  185.9940  177.4220  137.2100 C   0  0  0  0  0  2  0  0  0  0  0  0
  187.1090  176.3950  137.2660 C   0  0  0  0  0  3  0  0  0  0  0  0
  186.5250  176.8180  135.9300 C   0  0  0  0  0  2  0  0  0  0  0  0
  190.7160  176.4370  137.0200 O   0  0  0  0  0  1  0  0  0  0  0  0
  189.5570  176.0710  137.7100 C   0  0  0  0  0  2  0  0  0  0  0  0
  190.3960  176.3910  141.9510 C   0  0  0  0  0  2  0  0  0  0  0  0
  191.5900  177.1040  142.0510 O   0  0  0  0  0  1  0  0  0  0  0  0
  188.2000  176.4570  142.9880 N   0  0  0  0  0  2  0  0  0  0  0  0
  186.8850  177.4880  144.8000 C   0  0  0  0  0  0  0  0  0  0  0  0
  189.6410  178.0880  145.9850 C   0  0  0  0  0  3  0  0  0  0  0  0
  186.5860  177.6380  146.1670 C   0  0  0  0  0  0  0  0  0  0  0  0
  185.4190  178.3000  146.5600 C   0  0  0  0  0  3  0  0  0  0  0  0
  184.5470  178.8160  145.5980 C   0  0  0  0  0  3  0  0  0  0  0  0
  189.2200  178.3940  148.2810 O   0  0  0  0  0  0  0  0  0  0  0  0
  189.3660  177.6280  144.7580 C   0  0  0  0  0  3  0  0  0  0  0  0
  188.1680  176.7980  144.4060 C   0  0  2  0  0  3  0  0  0  0  0  0
  187.5310  177.1230  147.2060 C   0  0  0  0  0  2  0  0  0  0  0  0
  188.8170  177.8960  147.1990 C   0  0  0  0  0  0  0  0  0  0  0  0
  186.0100  178.0210  143.8410 C   0  0  0  0  0  3  0  0  0  0  0  0
  184.8430  178.6780  144.2400 C   0  0  0  0  0  3  0  0  0  0  0  0
  1 13  1  6  0  0  0
  1 15  1  0  0  0  0
  2  3  2  0  0  0  0
  2  1  1  0  0  0  0
  4  2  1  0  0  0  0
  6  5  1  6  0  0  0
  6  4  1  0  0  0  0
  7 12  1  1  0  0  0
  7  6  1  0  0  0  0
  8  9  1  0  0  0  0
  9  7  1  0  0  0  0
 10  8  1  0  0  0  0
 10  9  1  0  0  0  0
 11 12  1  0  0  0  0
 13 14  1  0  0  0  0
 16 18  1  0  0  0  0
 17 25  1  0  0  0  0
 18 19  2  0  0  0  0
 18 24  1  0  0  0  0
 20 19  1  0  0  0  0
 22 17  2  0  0  0  0
 23 15  1  6  0  0  0
 23 22  1  0  0  0  0
 23 16  1  0  0  0  0
 25 24  1  0  0  0  0
 25 21  2  0  0  0  0
 26 27  1  0  0  0  0
 26 16  2  0  0  0  0
 27 20  2  0  0  0  0
M  END
>  <MODEL>
1

>  <REMARK>
 VINA RESULT:      -8.2      0.000      0.000
  Name = 
  8 active torsions:
  status: ('A' for Active; 'I' for Inactive)
    1  A    between atoms: C_3  and  CA_13
    2  A    between atoms: N_4  and  CA_13
    3  A    between atoms: N_4  and  C_17
    4  A    between atoms: C_8  and  CA_13
    5  A    between atoms: C_9  and  C_12
    6  A    between atoms: C_10  and  C_12
    7  A    between atoms: C_10  and  N_24
    8  A    between atoms: C_12  and  C_25
                            x       y       z     vdW  Elec       q    Type
                         _______ _______ _______ _____ _____    ______ ____

>  <TORSDO>
F 8

$$$$
=
 OpenBabel11062414433D

 27 29  0  0  1  0  0  0  0  0999 V2000
  188.7200  177.5400  142.3470 C   0  0  2  0  0  3  0  0  0  0  0  0
  187.7380  178.4600  141.6910 C   0  0  0  0  0  0  0  0  0  0  0  0
  188.1580  179.3640  140.9200 O   0  0  0  0  0  0  0  0  0  0  0  0
  186.3370  178.3080  141.9360 N   0  0  0  0  0  2  0  0  0  0  0  0
  185.4620  179.3400  140.0530 O   0  0  0  0  0  1  0  0  0  0  0  0
  185.3530  179.2600  141.4420 C   0  0  1  0  0  3  0  0  0  0  0  0
  183.9380  178.8140  141.8370 C   0  0  2  0  0  3  0  0  0  0  0  0
  183.8490  179.6890  144.1650 C   0  0  0  0  0  2  0  0  0  0  0  0
  183.8660  178.4330  143.3140 C   0  0  0  0  0  3  0  0  0  0  0  0
  182.5640  178.9340  143.9120 C   0  0  0  0  0  2  0  0  0  0  0  0
  182.1160  177.8460  140.5880 O   0  0  0  0  0  1  0  0  0  0  0  0
  183.4480  177.6560  140.9650 C   0  0  0  0  0  2  0  0  0  0  0  0
  189.4410  176.7000  141.3060 C   0  0  0  0  0  2  0  0  0  0  0  0
  190.6150  177.3370  140.9070 O   0  0  0  0  0  1  0  0  0  0  0  0
  188.0390  176.6640  143.2900 N   0  0  0  0  0  2  0  0  0  0  0  0
  188.0670  177.2890  145.6730 C   0  0  0  0  0  0  0  0  0  0  0  0
  191.0910  177.4450  145.2370 C   0  0  0  0  0  3  0  0  0  0  0  0
  188.5570  177.1180  146.9810 C   0  0  0  0  0  0  0  0  0  0  0  0
  187.9030  177.7230  148.0590 C   0  0  0  0  0  3  0  0  0  0  0  0
  186.7630  178.5000  147.8410 C   0  0  0  0  0  3  0  0  0  0  0  0
  191.9920  177.2060  147.3990 O   0  0  0  0  0  0  0  0  0  0  0  0
  190.1400  177.3100  144.3040 C   0  0  0  0  0  3  0  0  0  0  0  0
  188.8120  176.6510  144.5260 C   0  0  2  0  0  3  0  0  0  0  0  0
  189.7990  176.3200  147.2220 C   0  0  0  0  0  2  0  0  0  0  0  0
  191.0030  177.0060  146.6480 C   0  0  0  0  0  0  0  0  0  0  0  0
  186.9270  178.0820  145.4630 C   0  0  0  0  0  3  0  0  0  0  0  0
  186.2760  178.6800  146.5440 C   0  0  0  0  0  3  0  0  0  0  0  0
  1 13  1  6  0  0  0
  1 15  1  0  0  0  0
  2  4  1  0  0  0  0
  2  1  1  0  0  0  0
  3  2  2  0  0  0  0
  6  5  1  6  0  0  0
  6  7  1  0  0  0  0
  6  4  1  0  0  0  0
  7 12  1  6  0  0  0
  7  9  1  0  0  0  0
  9 10  1  0  0  0  0
  9  8  1  0  0  0  0
 10  8  1  0  0  0  0
 11 12  1  0  0  0  0
 14 13  1  0  0  0  0
 16 18  1  0  0  0  0
 17 25  1  0  0  0  0
 18 24  1  0  0  0  0
 18 19  2  0  0  0  0
 20 19  1  0  0  0  0
 22 23  1  0  0  0  0
 22 17  2  0  0  0  0
 23 15  1  6  0  0  0
 23 16  1  0  0  0  0
 25 24  1  0  0  0  0
 25 21  2  0  0  0  0
 26 16  2  0  0  0  0
 26 27  1  0  0  0  0
 27 20  2  0  0  0  0
M  END
>  <MODEL>
2

>  <REMARK>
 VINA RESULT:      -8.2      2.621      4.255
  Name = 
  8 active torsions:
  status: ('A' for Active; 'I' for Inactive)
    1  A    between atoms: C_3  and  CA_13
    2  A    between atoms: N_4  and  CA_13
    3  A    between atoms: N_4  and  C_17
    4  A    between atoms: C_8  and  CA_13
    5  A    between atoms: C_9  and  C_12
    6  A    between atoms: C_10  and  C_12
    7  A    between atoms: C_10  and  N_24
    8  A    between atoms: C_12  and  C_25
                            x       y       z     vdW  Elec       q    Type
                         _______ _______ _______ _____ _____    ______ ____

>  <TORSDO>
F 8

$$$$
=
 OpenBabel11062414433D

 27 29  0  0  1  0  0  0  0  0999 V2000
  187.5210  178.6320  141.6230 C   0  0  2  0  0  3  0  0  0  0  0  0
  186.1200  179.0480  141.3010 C   0  0  0  0  0  0  0  0  0  0  0  0
  185.3630  179.4420  142.2280 O   0  0  0  0  0  0  0  0  0  0  0  0
  185.6490  179.0010  139.9510 N   0  0  0  0  0  2  0  0  0  0  0  0
  184.1720  180.4980  138.9730 O   0  0  0  0  0  1  0  0  0  0  0  0
  184.2590  179.2540  139.6020 C   0  0  1  0  0  3  0  0  0  0  0  0
  183.7370  178.1520  138.6700 C   0  0  2  0  0  3  0  0  0  0  0  0
  182.0620  177.6640  140.4440 C   0  0  0  0  0  2  0  0  0  0  0  0
  183.0310  177.0470  139.4540 C   0  0  0  0  0  3  0  0  0  0  0  0
  181.5440  177.0720  139.1530 C   0  0  0  0  0  2  0  0  0  0  0  0
  184.6020  176.2210  137.5110 O   0  0  0  0  0  1  0  0  0  0  0  0
  184.8570  177.5620  137.8110 C   0  0  0  0  0  2  0  0  0  0  0  0
  188.3470  178.5130  140.3530 C   0  0  0  0  0  2  0  0  0  0  0  0
  188.7800  177.1980  140.1860 O   0  0  0  0  0  1  0  0  0  0  0  0
  187.5210  177.3550  142.3220 N   0  0  0  0  0  2  0  0  0  0  0  0
  189.2410  177.0610  144.0610 C   0  0  0  0  0  0  0  0  0  0  0  0
  186.8400  177.1340  145.9560 C   0  0  0  0  0  3  0  0  0  0  0  0
  189.8400  177.4510  145.2730 C   0  0  0  0  0  0  0  0  0  0  0  0
  191.0890  176.9370  145.6350 C   0  0  0  0  0  3  0  0  0  0  0  0
  191.7460  176.0340  144.7950 C   0  0  0  0  0  3  0  0  0  0  0  0
  187.7690  177.7450  148.0310 O   0  0  0  0  0  0  0  0  0  0  0  0
  186.8190  177.0520  144.6190 C   0  0  0  0  0  3  0  0  0  0  0  0
  187.8780  177.6060  143.7130 C   0  0  2  0  0  3  0  0  0  0  0  0
  189.1300  178.3880  146.1980 C   0  0  0  0  0  2  0  0  0  0  0  0
  187.9040  177.7480  146.7800 C   0  0  0  0  0  0  0  0  0  0  0  0
  189.9030  176.1430  143.2310 C   0  0  0  0  0  3  0  0  0  0  0  0
  191.1530  175.6360  143.5950 C   0  0  0  0  0  3  0  0  0  0  0  0
  1 13  1  6  0  0  0
  1 15  1  0  0  0  0
  2  1  1  0  0  0  0
  2  3  2  0  0  0  0
  4  2  1  0  0  0  0
  6  5  1  6  0  0  0
  6  4  1  0  0  0  0
  7 12  1  1  0  0  0
  7  9  1  0  0  0  0
  7  6  1  0  0  0  0
  9  8  1  0  0  0  0
 10  9  1  0  0  0  0
 10  8  1  0  0  0  0
 11 12  1  0  0  0  0
 14 13  1  0  0  0  0
 16 18  1  0  0  0  0
 17 25  1  0  0  0  0
 18 19  2  0  0  0  0
 18 24  1  0  0  0  0
 20 19  1  0  0  0  0
 22 17  2  0  0  0  0
 23 15  1  6  0  0  0
 23 16  1  0  0  0  0
 23 22  1  0  0  0  0
 24 25  1  0  0  0  0
 25 21  2  0  0  0  0
 26 27  1  0  0  0  0
 26 16  2  0  0  0  0
 27 20  2  0  0  0  0
M  END
>  <MODEL>
3

>  <REMARK>
 VINA RESULT:      -7.6      2.697      4.213
  Name = 
  8 active torsions:
  status: ('A' for Active; 'I' for Inactive)
    1  A    between atoms: C_3  and  CA_13
    2  A    between atoms: N_4  and  CA_13
    3  A    between atoms: N_4  and  C_17
    4  A    between atoms: C_8  and  CA_13
    5  A    between atoms: C_9  and  C_12
    6  A    between atoms: C_10  and  C_12
    7  A    between atoms: C_10  and  N_24
    8  A    between atoms: C_12  and  C_25
                            x       y       z     vdW  Elec       q    Type
                         _______ _______ _______ _____ _____    ______ ____

>  <TORSDO>
F 8

$$$$
=
 OpenBabel11062414433D

 27 29  0  0  1  0  0  0  0  0999 V2000
  187.4520  178.3860  141.4320 C   0  0  2  0  0  3  0  0  0  0  0  0
  186.1370  179.0630  141.2080 C   0  0  0  0  0  0  0  0  0  0  0  0
  185.6580  179.7990  142.1120 O   0  0  0  0  0  0  0  0  0  0  0  0
  185.4340  178.8780  139.9760 N   0  0  0  0  0  2  0  0  0  0  0  0
  184.1600  180.4800  138.8870 O   0  0  0  0  0  1  0  0  0  0  0  0
  184.0900  179.3930  139.7600 C   0  0  1  0  0  3  0  0  0  0  0  0
  183.1900  178.2980  139.1720 C   0  0  2  0  0  3  0  0  0  0  0  0
  181.7570  178.4590  141.2000 C   0  0  0  0  0  2  0  0  0  0  0  0
  182.4850  177.5060  140.2710 C   0  0  0  0  0  3  0  0  0  0  0  0
  180.9830  177.6890  140.1540 C   0  0  0  0  0  2  0  0  0  0  0  0
  183.7040  177.6250  136.9130 O   0  0  0  0  0  1  0  0  0  0  0  0
  183.9740  177.3550  138.2570 C   0  0  0  0  0  2  0  0  0  0  0  0
  188.0200  177.8750  140.1180 C   0  0  0  0  0  2  0  0  0  0  0  0
  188.7110  178.8970  139.4670 O   0  0  0  0  0  1  0  0  0  0  0  0
  187.2950  177.2720  142.3570 N   0  0  0  0  0  2  0  0  0  0  0  0
  187.9820  177.5140  144.7110 C   0  0  0  0  0  0  0  0  0  0  0  0
  190.5640  178.6000  143.4820 C   0  0  0  0  0  3  0  0  0  0  0  0
  188.9090  177.2990  145.7470 C   0  0  0  0  0  0  0  0  0  0  0  0
  188.5380  177.5210  147.0770 C   0  0  0  0  0  3  0  0  0  0  0  0
  187.2470  177.9590  147.3810 C   0  0  0  0  0  3  0  0  0  0  0  0
  192.1700  178.3110  145.1790 O   0  0  0  0  0  0  0  0  0  0  0  0
  189.4120  178.3380  142.8530 C   0  0  0  0  0  3  0  0  0  0  0  0
  188.4210  177.2980  143.2840 C   0  0  2  0  0  3  0  0  0  0  0  0
  190.3060  176.8670  145.4320 C   0  0  0  0  0  2  0  0  0  0  0  0
  191.0580  177.9490  144.7150 C   0  0  0  0  0  0  0  0  0  0  0  0
  186.6910  177.9670  145.0260 C   0  0  0  0  0  3  0  0  0  0  0  0
  186.3240  178.1830  146.3560 C   0  0  0  0  0  3  0  0  0  0  0  0
  1 13  1  6  0  0  0
  1 15  1  0  0  0  0
  2  1  1  0  0  0  0
  2  3  2  0  0  0  0
  4  2  1  0  0  0  0
  6  5  1  6  0  0  0
  6  4  1  0  0  0  0
  7 12  1  1  0  0  0
  7  6  1  0  0  0  0
  7  9  1  0  0  0  0
  9  8  1  0  0  0  0
 10  9  1  0  0  0  0
 10  8  1  0  0  0  0
 11 12  1  0  0  0  0
 14 13  1  0  0  0  0
 16 26  2  0  0  0  0
 16 18  1  0  0  0  0
 17 25  1  0  0  0  0
 18 19  2  0  0  0  0
 19 20  1  0  0  0  0
 22 23  1  0  0  0  0
 22 17  2  0  0  0  0
 23 15  1  6  0  0  0
 23 16  1  0  0  0  0
 24 18  1  0  0  0  0
 25 21  2  0  0  0  0
 25 24  1  0  0  0  0
 26 27  1  0  0  0  0
 27 20  2  0  0  0  0
M  END
>  <MODEL>
4

>  <REMARK>
 VINA RESULT:      -7.6      2.868      4.009
  Name = 
  8 active torsions:
  status: ('A' for Active; 'I' for Inactive)
    1  A    between atoms: C_3  and  CA_13
    2  A    between atoms: N_4  and  CA_13
    3  A    between atoms: N_4  and  C_17
    4  A    between atoms: C_8  and  CA_13
    5  A    between atoms: C_9  and  C_12
    6  A    between atoms: C_10  and  C_12
    7  A    between atoms: C_10  and  N_24
    8  A    between atoms: C_12  and  C_25
                            x       y       z     vdW  Elec       q    Type
                         _______ _______ _______ _____ _____    ______ ____

>  <TORSDO>
F 8

$$$$
=
 OpenBabel11062414433D

 27 29  0  0  1  0  0  0  0  0999 V2000
  186.4710  178.4640  146.1240 C   0  0  2  0  0  3  0  0  0  0  0  0
  187.5960  178.0030  146.9960 C   0  0  0  0  0  0  0  0  0  0  0  0
  187.5120  178.1540  148.2440 O   0  0  0  0  0  0  0  0  0  0  0  0
  188.7520  177.3940  146.4150 N   0  0  0  0  0  2  0  0  0  0  0  0
  189.7720  175.7820  147.7340 O   0  0  0  0  0  1  0  0  0  0  0  0
  189.9340  177.0610  147.1970 C   0  0  1  0  0  3  0  0  0  0  0  0
  191.1870  177.1100  146.3130 C   0  0  2  0  0  3  0  0  0  0  0  0
  190.5590  178.7010  144.5070 C   0  0  0  0  0  2  0  0  0  0  0  0
  190.8230  177.2440  144.8360 C   0  0  0  0  0  3  0  0  0  0  0  0
  191.8770  178.0690  144.1200 C   0  0  0  0  0  2  0  0  0  0  0  0
  192.8060  176.0030  147.7180 O   0  0  0  0  0  1  0  0  0  0  0  0
  192.0790  175.8850  146.5320 C   0  0  0  0  0  2  0  0  0  0  0  0
  185.2530  178.8120  146.9650 C   0  0  0  0  0  2  0  0  0  0  0  0
  184.1430  179.0030  146.1420 O   0  0  0  0  0  1  0  0  0  0  0  0
  186.1160  177.4260  145.1660 N   0  0  0  0  0  2  0  0  0  0  0  0
  185.9710  178.0990  142.8000 C   0  0  0  0  0  0  0  0  0  0  0  0
  188.4840  176.3780  142.5180 C   0  0  0  0  0  3  0  0  0  0  0  0
  186.5580  178.6310  141.6370 C   0  0  0  0  0  0  0  0  0  0  0  0
  185.7550  179.0030  140.5540 C   0  0  0  0  0  3  0  0  0  0  0  0
  184.3680  178.8450  140.6220 C   0  0  0  0  0  3  0  0  0  0  0  0
  189.5110  177.1840  140.5590 O   0  0  0  0  0  0  0  0  0  0  0  0
  187.6730  176.4660  143.5800 C   0  0  0  0  0  3  0  0  0  0  0  0
  186.8650  177.6760  143.9390 C   0  0  2  0  0  3  0  0  0  0  0  0
  188.0430  178.7690  141.5380 C   0  0  0  0  0  2  0  0  0  0  0  0
  188.7100  177.4260  141.4990 C   0  0  0  0  0  0  0  0  0  0  0  0
  184.5780  177.9320  142.8530 C   0  0  0  0  0  3  0  0  0  0  0  0
  183.7800  178.3090  141.7700 C   0  0  0  0  0  3  0  0  0  0  0  0
  1 13  1  1  0  0  0
  1  2  1  0  0  0  0
  2  3  2  0  0  0  0
  4  2  1  0  0  0  0
  4  6  1  0  0  0  0
  6  5  1  6  0  0  0
  7 12  1  6  0  0  0
  7  6  1  0  0  0  0
  8  9  1  0  0  0  0
  9  7  1  0  0  0  0
 10  8  1  0  0  0  0
 10  9  1  0  0  0  0
 12 11  1  0  0  0  0
 14 13  1  0  0  0  0
 15  1  1  0  0  0  0
 16 26  1  0  0  0  0
 16 23  1  0  0  0  0
 17 22  2  0  0  0  0
 18 16  2  0  0  0  0
 19 20  2  0  0  0  0
 19 18  1  0  0  0  0
 20 27  1  0  0  0  0
 21 25  2  0  0  0  0
 22 23  1  0  0  0  0
 23 15  1  1  0  0  0
 24 18  1  0  0  0  0
 25 24  1  0  0  0  0
 25 17  1  0  0  0  0
 27 26  2  0  0  0  0
M  END
>  <MODEL>
5

>  <REMARK>
 VINA RESULT:      -7.5      2.788      6.823
  Name = 
  8 active torsions:
  status: ('A' for Active; 'I' for Inactive)
    1  A    between atoms: C_3  and  CA_13
    2  A    between atoms: N_4  and  CA_13
    3  A    between atoms: N_4  and  C_17
    4  A    between atoms: C_8  and  CA_13
    5  A    between atoms: C_9  and  C_12
    6  A    between atoms: C_10  and  C_12
    7  A    between atoms: C_10  and  N_24
    8  A    between atoms: C_12  and  C_25
                            x       y       z     vdW  Elec       q    Type
                         _______ _______ _______ _____ _____    ______ ____

>  <TORSDO>
F 8

$$$$
=
 OpenBabel11062414433D

 27 29  0  0  1  0  0  0  0  0999 V2000
  187.7760  178.5260  141.5320 C   0  0  2  0  0  3  0  0  0  0  0  0
  186.3220  178.6570  141.2040 C   0  0  0  0  0  0  0  0  0  0  0  0
  185.9800  179.0230  140.0480 O   0  0  0  0  0  0  0  0  0  0  0  0
  185.3330  178.3640  142.1950 N   0  0  0  0  0  2  0  0  0  0  0  0
  183.3890  177.5720  141.2110 O   0  0  0  0  0  1  0  0  0  0  0  0
  183.9150  178.6130  141.9770 C   0  0  1  0  0  3  0  0  0  0  0  0
  183.1800  178.7050  143.3210 C   0  0  2  0  0  3  0  0  0  0  0  0
  180.9330  178.7050  142.2520 C   0  0  0  0  0  2  0  0  0  0  0  0
  181.8600  179.4610  143.1840 C   0  0  0  0  0  3  0  0  0  0  0  0
  180.7270  178.6240  143.7480 C   0  0  0  0  0  2  0  0  0  0  0  0
  183.6300  178.9750  145.6760 O   0  0  0  0  0  1  0  0  0  0  0  0
  184.0540  179.3510  144.3990 C   0  0  0  0  0  2  0  0  0  0  0  0
  188.6170  178.6010  140.2680 C   0  0  0  0  0  2  0  0  0  0  0  0
  189.3360  177.4180  140.1020 O   0  0  0  0  0  1  0  0  0  0  0  0
  188.0300  177.2610  142.2080 N   0  0  0  0  0  2  0  0  0  0  0  0
  189.5310  177.0170  144.1470 C   0  0  0  0  0  0  0  0  0  0  0  0
  186.9190  177.1020  145.7380 C   0  0  0  0  0  3  0  0  0  0  0  0
  189.9770  177.4360  145.4140 C   0  0  0  0  0  0  0  0  0  0  0  0
  191.1780  176.9420  145.9330 C   0  0  0  0  0  3  0  0  0  0  0  0
  191.9370  176.0290  145.1970 C   0  0  0  0  0  3  0  0  0  0  0  0
  187.5870  177.7610  147.8970 O   0  0  0  0  0  0  0  0  0  0  0  0
  187.0600  176.9950  144.4100 C   0  0  0  0  0  3  0  0  0  0  0  0
  188.2160  177.5430  143.6270 C   0  0  2  0  0  3  0  0  0  0  0  0
  189.1540  178.3830  146.2280 C   0  0  0  0  0  2  0  0  0  0  0  0
  187.8720  177.7420  146.6710 C   0  0  0  0  0  0  0  0  0  0  0  0
  190.2950  176.0900  143.4200 C   0  0  0  0  0  3  0  0  0  0  0  0
  191.4960  175.6030  143.9420 C   0  0  0  0  0  3  0  0  0  0  0  0
  1 13  1  6  0  0  0
  1 15  1  0  0  0  0
  2  1  1  0  0  0  0
  2  4  1  0  0  0  0
  3  2  2  0  0  0  0
  6  5  1  6  0  0  0
  6  4  1  0  0  0  0
  6  7  1  0  0  0  0
  7 12  1  1  0  0  0
  8  9  1  0  0  0  0
  8 10  1  0  0  0  0
  9  7  1  0  0  0  0
  9 10  1  0  0  0  0
 12 11  1  0  0  0  0
 14 13  1  0  0  0  0
 16 18  1  0  0  0  0
 17 25  1  0  0  0  0
 18 19  2  0  0  0  0
 18 24  1  0  0  0  0
 20 19  1  0  0  0  0
 22 17  2  0  0  0  0
 23 15  1  6  0  0  0
 23 16  1  0  0  0  0
 23 22  1  0  0  0  0
 24 25  1  0  0  0  0
 25 21  2  0  0  0  0
 26 27  1  0  0  0  0
 26 16  2  0  0  0  0
 27 20  2  0  0  0  0
M  END
>  <MODEL>
6

>  <REMARK>
 VINA RESULT:      -7.5      2.582      5.622
  Name = 
  8 active torsions:
  status: ('A' for Active; 'I' for Inactive)
    1  A    between atoms: C_3  and  CA_13
    2  A    between atoms: N_4  and  CA_13
    3  A    between atoms: N_4  and  C_17
    4  A    between atoms: C_8  and  CA_13
    5  A    between atoms: C_9  and  C_12
    6  A    between atoms: C_10  and  C_12
    7  A    between atoms: C_10  and  N_24
    8  A    between atoms: C_12  and  C_25
                            x       y       z     vdW  Elec       q    Type
                         _______ _______ _______ _____ _____    ______ ____

>  <TORSDO>
F 8

$$$$
=
 OpenBabel11062414433D

 27 29  0  0  1  0  0  0  0  0999 V2000
  190.2450  176.5740  142.7090 C   0  0  2  0  0  3  0  0  0  0  0  0
  190.8920  176.9530  141.4130 C   0  0  0  0  0  0  0  0  0  0  0  0
  191.8400  177.7820  141.4160 O   0  0  0  0  0  0  0  0  0  0  0  0
  190.4360  176.3750  140.1870 N   0  0  0  0  0  2  0  0  0  0  0  0
  192.0060  176.0060  138.5210 O   0  0  0  0  0  1  0  0  0  0  0  0
  190.9280  176.8140  138.8890 C   0  0  1  0  0  3  0  0  0  0  0  0
  189.8130  176.7200  137.8390 C   0  0  2  0  0  3  0  0  0  0  0  0
  189.0500  178.9960  138.4950 C   0  0  0  0  0  2  0  0  0  0  0  0
  188.6060  177.5700  138.2310 C   0  0  0  0  0  3  0  0  0  0  0  0
  188.3750  178.6480  137.1880 C   0  0  0  0  0  2  0  0  0  0  0  0
  188.3360  175.2070  136.6790 O   0  0  0  0  0  1  0  0  0  0  0  0
  189.3860  175.2710  137.5970 C   0  0  0  0  0  2  0  0  0  0  0  0
  190.8020  175.2540  143.2170 C   0  0  0  0  0  2  0  0  0  0  0  0
  191.9250  175.4840  144.0120 O   0  0  0  0  0  1  0  0  0  0  0  0
  188.8030  176.4570  142.5390 N   0  0  0  0  0  2  0  0  0  0  0  0
  186.9270  177.6430  143.6090 C   0  0  0  0  0  0  0  0  0  0  0  0
  188.9040  177.9620  145.9220 C   0  0  0  0  0  3  0  0  0  0  0  0
  186.0640  177.8410  144.7030 C   0  0  0  0  0  0  0  0  0  0  0  0
  184.9170  178.6280  144.5570 C   0  0  0  0  0  3  0  0  0  0  0  0
  184.6260  179.2220  143.3270 C   0  0  0  0  0  3  0  0  0  0  0  0
  187.5320  178.3400  147.7970 O   0  0  0  0  0  0  0  0  0  0  0  0
  189.1640  177.5190  144.6850 C   0  0  0  0  0  3  0  0  0  0  0  0
  188.1740  176.8160  143.8050 C   0  0  2  0  0  3  0  0  0  0  0  0
  186.3860  177.2420  146.0350 C   0  0  0  0  0  2  0  0  0  0  0  0
  187.6090  177.8740  146.6310 C   0  0  0  0  0  0  0  0  0  0  0  0
  186.6320  178.2550  142.3800 C   0  0  0  0  0  3  0  0  0  0  0  0
  185.4830  179.0360  142.2390 C   0  0  0  0  0  3  0  0  0  0  0  0
  1 13  1  6  0  0  0
  2  3  2  0  0  0  0
  2  1  1  0  0  0  0
  4  2  1  0  0  0  0
  6  5  1  6  0  0  0
  6  4  1  0  0  0  0
  7 12  1  1  0  0  0
  7  9  1  0  0  0  0
  7  6  1  0  0  0  0
  9  8  1  0  0  0  0
 10  9  1  0  0  0  0
 10  8  1  0  0  0  0
 11 12  1  0  0  0  0
 13 14  1  0  0  0  0
 15  1  1  0  0  0  0
 16 23  1  0  0  0  0
 16 18  1  0  0  0  0
 17 25  1  0  0  0  0
 18 24  1  0  0  0  0
 19 18  2  0  0  0  0
 20 19  1  0  0  0  0
 22 17  2  0  0  0  0
 23 15  1  6  0  0  0
 23 22  1  0  0  0  0
 24 25  1  0  0  0  0
 25 21  2  0  0  0  0
 26 16  2  0  0  0  0
 27 26  1  0  0  0  0
 27 20  2  0  0  0  0
M  END
>  <MODEL>
7

>  <REMARK>
 VINA RESULT:      -7.5      1.803      2.212
  Name = 
  8 active torsions:
  status: ('A' for Active; 'I' for Inactive)
    1  A    between atoms: C_3  and  CA_13
    2  A    between atoms: N_4  and  CA_13
    3  A    between atoms: N_4  and  C_17
    4  A    between atoms: C_8  and  CA_13
    5  A    between atoms: C_9  and  C_12
    6  A    between atoms: C_10  and  C_12
    7  A    between atoms: C_10  and  N_24
    8  A    between atoms: C_12  and  C_25
                            x       y       z     vdW  Elec       q    Type
                         _______ _______ _______ _____ _____    ______ ____

>  <TORSDO>
F 8

$$$$
=
 OpenBabel11062414433D

 27 29  0  0  1  0  0  0  0  0999 V2000
  187.2260  178.3210  141.7770 C   0  0  2  0  0  3  0  0  0  0  0  0
  185.8400  178.7930  141.4710 C   0  0  0  0  0  0  0  0  0  0  0  0
  185.6760  179.7420  140.6580 O   0  0  0  0  0  0  0  0  0  0  0  0
  184.7140  178.1690  142.0930 N   0  0  0  0  0  2  0  0  0  0  0  0
  182.6460  177.8250  141.1030 O   0  0  0  0  0  1  0  0  0  0  0  0
  183.3590  178.6800  141.9450 C   0  0  1  0  0  3  0  0  0  0  0  0
  182.6720  178.7690  143.3140 C   0  0  2  0  0  3  0  0  0  0  0  0
  180.3210  178.3520  142.6150 C   0  0  0  0  0  2  0  0  0  0  0  0
  181.2760  179.3760  143.1990 C   0  0  0  0  0  3  0  0  0  0  0  0
  180.3130  178.6270  144.1020 C   0  0  0  0  0  2  0  0  0  0  0  0
  183.4370  178.9910  145.5920 O   0  0  0  0  0  1  0  0  0  0  0  0
  183.5150  179.5600  144.3180 C   0  0  0  0  0  2  0  0  0  0  0  0
  187.9140  177.8300  140.5140 C   0  0  0  0  0  2  0  0  0  0  0  0
  188.3720  178.9150  139.7670 O   0  0  0  0  0  1  0  0  0  0  0  0
  187.1880  177.2440  142.7570 N   0  0  0  0  0  2  0  0  0  0  0  0
  188.1970  177.4710  144.9930 C   0  0  0  0  0  0  0  0  0  0  0  0
  190.5540  178.6350  143.4290 C   0  0  0  0  0  3  0  0  0  0  0  0
  189.2670  177.2640  145.8840 C   0  0  0  0  0  0  0  0  0  0  0  0
  189.0830  177.4590  147.2560 C   0  0  0  0  0  3  0  0  0  0  0  0
  187.8390  177.8610  147.7480 C   0  0  0  0  0  3  0  0  0  0  0  0
  192.3900  178.3620  144.8760 O   0  0  0  0  0  0  0  0  0  0  0  0
  189.3300  178.3540  142.9650 C   0  0  0  0  0  3  0  0  0  0  0  0
  188.4340  177.2840  143.5150 C   0  0  2  0  0  3  0  0  0  0  0  0
  190.6130  176.8700  145.3660 C   0  0  0  0  0  2  0  0  0  0  0  0
  191.2320  177.9790  144.5680 C   0  0  0  0  0  0  0  0  0  0  0  0
  186.9540  177.8880  145.4950 C   0  0  0  0  0  3  0  0  0  0  0  0
  186.7750  178.0770  146.8680 C   0  0  0  0  0  3  0  0  0  0  0  0
  1 13  1  6  0  0  0
  1 15  1  0  0  0  0
  2  1  1  0  0  0  0
  2  4  1  0  0  0  0
  3  2  2  0  0  0  0
  6  5  1  6  0  0  0
  6  4  1  0  0  0  0
  6  7  1  0  0  0  0
  7 12  1  1  0  0  0
  8  9  1  0  0  0  0
  8 10  1  0  0  0  0
  9  7  1  0  0  0  0
  9 10  1  0  0  0  0
 12 11  1  0  0  0  0
 14 13  1  0  0  0  0
 16 26  2  0  0  0  0
 16 18  1  0  0  0  0
 17 25  1  0  0  0  0
 18 19  2  0  0  0  0
 19 20  1  0  0  0  0
 22 17  2  0  0  0  0
 22 23  1  0  0  0  0
 23 15  1  6  0  0  0
 23 16  1  0  0  0  0
 24 18  1  0  0  0  0
 25 21  2  0  0  0  0
 25 24  1  0  0  0  0
 26 27  1  0  0  0  0
 27 20  2  0  0  0  0
M  END
>  <MODEL>
8

>  <REMARK>
 VINA RESULT:      -7.4      2.748      5.512
  Name = 
  8 active torsions:
  status: ('A' for Active; 'I' for Inactive)
    1  A    between atoms: C_3  and  CA_13
    2  A    between atoms: N_4  and  CA_13
    3  A    between atoms: N_4  and  C_17
    4  A    between atoms: C_8  and  CA_13
    5  A    between atoms: C_9  and  C_12
    6  A    between atoms: C_10  and  C_12
    7  A    between atoms: C_10  and  N_24
    8  A    between atoms: C_12  and  C_25
                            x       y       z     vdW  Elec       q    Type
                         _______ _______ _______ _____ _____    ______ ____

>  <TORSDO>
F 8

$$$$
=
 OpenBabel11062414433D

 27 29  0  0  1  0  0  0  0  0999 V2000
  185.1780  178.3760  143.0280 C   0  0  2  0  0  3  0  0  0  0  0  0
  184.4290  178.4860  141.7360 C   0  0  0  0  0  0  0  0  0  0  0  0
  183.2800  177.9770  141.6430 O   0  0  0  0  0  0  0  0  0  0  0  0
  185.0140  179.1660  140.6220 N   0  0  0  0  0  2  0  0  0  0  0  0
  184.1810  180.5020  138.9200 O   0  0  0  0  0  1  0  0  0  0  0  0
  184.3960  179.1770  139.3050 C   0  0  1  0  0  3  0  0  0  0  0  0
  185.3010  178.4710  138.2870 C   0  0  2  0  0  3  0  0  0  0  0  0
  183.3560  177.3930  137.1710 C   0  0  0  0  0  2  0  0  0  0  0  0
  184.6990  177.1440  137.8310 C   0  0  0  0  0  3  0  0  0  0  0  0
  184.5760  177.1270  136.3190 C   0  0  0  0  0  2  0  0  0  0  0  0
  187.6760  178.7450  137.9620 O   0  0  0  0  0  1  0  0  0  0  0  0
  186.7100  178.2520  138.8430 C   0  0  0  0  0  2  0  0  0  0  0  0
  185.0630  179.6670  143.8220 C   0  0  0  0  0  2  0  0  0  0  0  0
  183.8240  179.7280  144.4590 O   0  0  0  0  0  1  0  0  0  0  0  0
  186.5820  178.0870  142.7740 N   0  0  0  0  0  2  0  0  0  0  0  0
  188.6190  177.3670  143.9590 C   0  0  0  0  0  0  0  0  0  0  0  0
  186.7240  177.1280  146.3490 C   0  0  0  0  0  3  0  0  0  0  0  0
  189.5080  177.4690  145.0460 C   0  0  0  0  0  0  0  0  0  0  0  0
  190.7580  176.8440  144.9900 C   0  0  0  0  0  3  0  0  0  0  0  0
  191.1270  176.1150  143.8570 C   0  0  0  0  0  3  0  0  0  0  0  0
  188.1470  177.2510  148.2200 O   0  0  0  0  0  0  0  0  0  0  0  0
  186.3950  177.3310  145.0670 C   0  0  0  0  0  3  0  0  0  0  0  0
  187.2650  178.0250  144.0620 C   0  0  2  0  0  3  0  0  0  0  0  0
  189.1090  178.2150  146.2790 C   0  0  0  0  0  2  0  0  0  0  0  0
  187.9960  177.5130  146.9990 C   0  0  0  0  0  0  0  0  0  0  0  0
  188.9950  176.6210  142.8310 C   0  0  0  0  0  3  0  0  0  0  0  0
  190.2460  176.0020  142.7790 C   0  0  0  0  0  3  0  0  0  0  0  0
  1 13  1  6  0  0  0
  2  1  1  0  0  0  0
  3  2  2  0  0  0  0
  4  2  1  0  0  0  0
  6  5  1  6  0  0  0
  6  4  1  0  0  0  0
  7 12  1  1  0  0  0
  7  6  1  0  0  0  0
  8  9  1  0  0  0  0
  9  7  1  0  0  0  0
 10  8  1  0  0  0  0
 10  9  1  0  0  0  0
 11 12  1  0  0  0  0
 13 14  1  0  0  0  0
 15  1  1  0  0  0  0
 16 23  1  0  0  0  0
 16 18  1  0  0  0  0
 17 25  1  0  0  0  0
 18 24  1  0  0  0  0
 19 18  2  0  0  0  0
 20 19  1  0  0  0  0
 22 17  2  0  0  0  0
 23 15  1  6  0  0  0
 23 22  1  0  0  0  0
 24 25  1  0  0  0  0
 25 21  2  0  0  0  0
 26 16  2  0  0  0  0
 27 26  1  0  0  0  0
 27 20  2  0  0  0  0
M  END
>  <MODEL>
9

>  <REMARK>
 VINA RESULT:      -7.3      2.349      4.220
  Name = 
  8 active torsions:
  status: ('A' for Active; 'I' for Inactive)
    1  A    between atoms: C_3  and  CA_13
    2  A    between atoms: N_4  and  CA_13
    3  A    between atoms: N_4  and  C_17
    4  A    between atoms: C_8  and  CA_13
    5  A    between atoms: C_9  and  C_12
    6  A    between atoms: C_10  and  C_12
    7  A    between atoms: C_10  and  N_24
    8  A    between atoms: C_12  and  C_25
                            x       y       z     vdW  Elec       q    Type
                         _______ _______ _______ _____ _____    ______ ____

>  <TORSDO>
F 8

$$$$
