=
 OpenBabel11062412413D

 32 37  0  0  1  0  0  0  0  0999 V2000
  185.9550  176.9020  137.2200 C   0  0  0  0  0  0  0  0  0  0  0  0
  181.6260  175.7520  137.1300 C   0  0  2  0  0  3  0  0  0  0  0  0
  188.5380  177.6530  136.4740 N   0  0  0  0  0  0  0  0  0  0  0  0
  181.8730  178.7610  138.5380 O   0  0  0  0  0  1  0  0  0  0  0  0
  187.6600  178.1710  139.6490 C   0  0  0  0  0  3  0  0  0  0  0  0
  185.4520  179.0220  141.0810 C   0  0  0  0  0  3  0  0  0  0  0  0
  187.7040  178.6090  136.7760 C   0  0  0  0  0  3  0  0  0  0  0  0
  184.6730  176.5040  137.3220 C   0  0  1  0  0  3  0  0  0  0  0  0
  188.9420  177.9130  141.7720 C   0  0  0  0  0  1  0  0  0  0  0  0
  187.0060  175.8820  137.0320 C   0  0  0  0  0  0  0  0  0  0  0  0
  188.2340  176.2630  136.6760 C   0  0  0  0  0  2  0  0  0  0  0  0
  186.6060  178.6960  141.7220 N   0  0  0  0  0  0  0  0  0  0  0  0
  184.9960  172.7010  137.4070 C   0  0  0  0  0  1  0  0  0  0  0  0
  183.5220  177.4970  137.3310 C   0  0  1  0  0  3  0  0  0  0  0  0
  185.3800  174.1320  137.3010 C   0  0  0  0  0  0  0  0  0  0  0  0
  182.3280  175.8200  139.5230 C   0  0  0  0  0  2  0  0  0  0  0  0
  181.1490  175.9530  138.5670 C   0  0  0  0  0  2  0  0  0  0  0  0
  186.6590  174.4630  137.1310 C   0  0  0  0  0  3  0  0  0  0  0  0
  184.0820  179.3110  139.0200 C   0  0  0  0  0  2  0  0  0  0  0  0
  186.4920  178.5250  138.9540 C   0  0  0  0  0  0  0  0  0  0  0  0
  187.7020  178.2750  141.0390 C   0  0  0  0  0  0  0  0  0  0  0  0
  182.3100  176.9880  136.5290 C   0  0  0  0  0  2  0  0  0  0  0  0
  183.1250  178.1570  138.6840 C   0  0  1  0  0  0  0  0  0  0  0  0
  186.3870  178.3230  137.4610 C   0  0  2  0  0  3  0  0  0  0  0  0
  185.3670  178.9330  139.6890 C   0  0  0  0  0  0  0  0  0  0  0  0
  184.3890  175.1250  137.3680 O   0  0  0  0  0  0  0  0  0  0  0  0
  183.0180  177.1510  139.8460 C   0  0  0  0  0  2  0  0  0  0  0  0
  178.9310  172.9620  136.1270 C   0  0  0  0  0  2  0  0  0  0  0  0
  180.0590  176.0710  135.3490 O   0  0  0  0  0  0  0  0  0  0  0  0
  180.4960  175.3170  136.2600 C   0  0  0  0  0  0  0  0  0  0  0  0
  179.9110  174.0350  136.4580 N   0  0  0  0  0  0  0  0  0  0  0  0
  179.8100  172.7240  137.1620 C   0  0  0  0  0  2  0  0  0  0  0  0
  1 24  1  0  0  0  0
  2 30  1  6  0  0  0
  2 17  1  0  0  0  0
  3 11  1  0  0  0  0
  3  7  2  0  0  0  0
  5 21  1  0  0  0  0
  6 12  1  0  0  0  0
  8  1  1  6  0  0  0
  8 14  1  0  0  0  0
  8 26  1  0  0  0  0
 10 18  1  0  0  0  0
 10  1  2  0  0  0  0
 11 10  1  0  0  0  0
 14 22  1  1  0  0  0
 14 23  1  0  0  0  0
 15 26  1  0  0  0  0
 15 13  1  0  0  0  0
 16 27  1  0  0  0  0
 17 16  1  0  0  0  0
 18 15  2  0  0  0  0
 19 25  1  0  0  0  0
 20  5  2  0  0  0  0
 20 25  1  0  0  0  0
 21 12  2  0  0  0  0
 21  9  1  0  0  0  0
 22  2  1  0  0  0  0
 23  4  1  6  0  0  0
 23 19  1  0  0  0  0
 23 27  1  0  0  0  0
 24  7  1  6  0  0  0
 24 20  1  0  0  0  0
 25  6  2  0  0  0  0
 28 31  1  0  0  0  0
 28 32  1  0  0  0  0
 29 30  2  0  0  0  0
 30 31  1  0  0  0  0
 31 32  1  0  0  0  0
M  END
>  <MODEL>
1

>  <REMARK>
 VINA RESULT:      -6.9      0.000      0.000
  Name = 
  1 active torsions:
  status: ('A' for Active; 'I' for Inactive)
    1  A    between atoms: C_2  and  C_29
                            x       y       z     vdW  Elec       q    Type
                         _______ _______ _______ _____ _____    ______ ____

>  <TORSDO>
F 1

$$$$
=
 OpenBabel11062412413D

 32 37  0  0  1  0  0  0  0  0999 V2000
  186.4730  176.8800  137.2890 C   0  0  0  0  0  0  0  0  0  0  0  0
  182.1720  175.7330  136.7810 C   0  0  2  0  0  3  0  0  0  0  0  0
  189.1110  177.6490  136.7980 N   0  0  0  0  0  0  0  0  0  0  0  0
  182.2850  178.7080  138.2780 O   0  0  0  0  0  1  0  0  0  0  0  0
  187.9490  178.0890  139.8920 C   0  0  0  0  0  3  0  0  0  0  0  0
  185.6190  178.9060  141.1400 C   0  0  0  0  0  3  0  0  0  0  0  0
  188.2520  178.5960  137.0460 C   0  0  0  0  0  3  0  0  0  0  0  0
  185.1880  176.4800  137.2660 C   0  0  1  0  0  3  0  0  0  0  0  0
  189.0340  177.7790  142.1160 C   0  0  0  0  0  1  0  0  0  0  0  0
  187.5390  175.8650  137.1720 C   0  0  0  0  0  0  0  0  0  0  0  0
  188.7930  176.2540  136.9380 C   0  0  0  0  0  2  0  0  0  0  0  0
  186.7110  178.5640  141.8740 N   0  0  0  0  0  0  0  0  0  0  0  0
  185.5090  172.6760  137.2870 C   0  0  0  0  0  1  0  0  0  0  0  0
  184.0390  177.4720  137.1940 C   0  0  1  0  0  3  0  0  0  0  0  0
  185.8980  174.1090  137.2510 C   0  0  0  0  0  0  0  0  0  0  0  0
  182.6540  175.7430  139.2280 C   0  0  0  0  0  2  0  0  0  0  0  0
  181.5670  175.9000  138.1730 C   0  0  0  0  0  2  0  0  0  0  0  0
  187.1870  174.4430  137.2060 C   0  0  0  0  0  3  0  0  0  0  0  0
  184.4400  179.2450  138.9700 C   0  0  0  0  0  2  0  0  0  0  0  0
  186.8480  178.4600  139.1030 C   0  0  0  0  0  0  0  0  0  0  0  0
  187.8650  178.1590  141.2820 C   0  0  0  0  0  0  0  0  0  0  0  0
  182.9050  176.9830  136.2740 C   0  0  0  0  0  2  0  0  0  0  0  0
  183.5200  178.0990  138.5210 C   0  0  1  0  0  0  0  0  0  0  0  0
  186.8790  178.2950  137.6030 C   0  0  2  0  0  3  0  0  0  0  0  0
  185.6600  178.8510  139.7430 C   0  0  0  0  0  0  0  0  0  0  0  0
  184.9030  175.1000  137.2520 O   0  0  0  0  0  0  0  0  0  0  0  0
  183.3110  177.0660  139.6450 C   0  0  0  0  0  2  0  0  0  0  0  0
  178.9450  176.6630  134.5950 C   0  0  0  0  0  2  0  0  0  0  0  0
  181.1010  174.1460  135.3450 O   0  0  0  0  0  0  0  0  0  0  0  0
  181.1260  175.3200  135.8010 C   0  0  0  0  0  0  0  0  0  0  0  0
  180.1450  176.2630  135.3850 N   0  0  0  0  0  0  0  0  0  0  0  0
  179.5220  177.6180  135.4060 C   0  0  0  0  0  2  0  0  0  0  0  0
  1 24  1  0  0  0  0
  2 30  1  6  0  0  0
  2 17  1  0  0  0  0
  3 11  1  0  0  0  0
  3  7  2  0  0  0  0
  5 21  1  0  0  0  0
  6 12  1  0  0  0  0
  8 26  1  6  0  0  0
  8  1  1  0  0  0  0
 10 18  1  0  0  0  0
 10  1  2  0  0  0  0
 11 10  1  0  0  0  0
 14 22  1  1  0  0  0
 14  8  1  0  0  0  0
 14 23  1  0  0  0  0
 15 26  1  0  0  0  0
 15 13  1  0  0  0  0
 16 27  1  0  0  0  0
 17 16  1  0  0  0  0
 18 15  2  0  0  0  0
 19 25  1  0  0  0  0
 20 25  1  0  0  0  0
 20  5  2  0  0  0  0
 21 12  2  0  0  0  0
 21  9  1  0  0  0  0
 22  2  1  0  0  0  0
 23  4  1  6  0  0  0
 23 19  1  0  0  0  0
 23 27  1  0  0  0  0
 24  7  1  1  0  0  0
 24 20  1  0  0  0  0
 25  6  2  0  0  0  0
 28 31  1  0  0  0  0
 28 32  1  0  0  0  0
 29 30  2  0  0  0  0
 31 32  1  0  0  0  0
 31 30  1  0  0  0  0
M  END
>  <MODEL>
2

>  <REMARK>
 VINA RESULT:      -6.4      1.102      1.383
  Name = 
  1 active torsions:
  status: ('A' for Active; 'I' for Inactive)
    1  A    between atoms: C_2  and  C_29
                            x       y       z     vdW  Elec       q    Type
                         _______ _______ _______ _____ _____    ______ ____

>  <TORSDO>
F 1

$$$$
=
 OpenBabel11062412413D

 32 37  0  0  1  0  0  0  0  0999 V2000
  182.0970  176.6250  137.1610 C   0  0  0  0  0  0  0  0  0  0  0  0
  181.3790  178.9810  140.9030 C   0  0  2  0  0  3  0  0  0  0  0  0
  181.8750  175.5500  134.5940 N   0  0  0  0  0  0  0  0  0  0  0  0
  184.1440  180.1470  139.4560 O   0  0  0  0  0  1  0  0  0  0  0  0
  184.8500  175.3290  136.0830 C   0  0  0  0  0  3  0  0  0  0  0  0
  186.4920  176.8770  137.6820 C   0  0  0  0  0  3  0  0  0  0  0  0
  182.6180  176.6110  134.7320 C   0  0  0  0  0  3  0  0  0  0  0  0
  181.9650  177.2410  138.3510 C   0  0  1  0  0  3  0  0  0  0  0  0
  186.5460  173.5020  136.1050 C   0  0  0  0  0  1  0  0  0  0  0  0
  181.4190  175.3310  136.9470 C   0  0  0  0  0  0  0  0  0  0  0  0
  181.3250  174.8340  135.7130 C   0  0  0  0  0  2  0  0  0  0  0  0
  186.8840  175.6370  137.2880 N   0  0  0  0  0  0  0  0  0  0  0  0
  180.0720  174.6450  140.4140 C   0  0  0  0  0  1  0  0  0  0  0  0
  182.4730  178.6530  138.5850 C   0  0  1  0  0  3  0  0  0  0  0  0
  180.7260  175.2950  139.2500 C   0  0  0  0  0  0  0  0  0  0  0  0
  183.4680  177.6620  141.2440 C   0  0  0  0  0  2  0  0  0  0  0  0
  182.7070  178.9160  141.6540 C   0  0  0  0  0  2  0  0  0  0  0  0
  180.7660  174.6650  138.0770 C   0  0  0  0  0  3  0  0  0  0  0  0
  184.8630  178.7630  137.7290 C   0  0  0  0  0  2  0  0  0  0  0  0
  184.4260  176.6170  136.4510 C   0  0  0  0  0  0  0  0  0  0  0  0
  186.0930  174.8590  136.5050 C   0  0  0  0  0  0  0  0  0  0  0  0
  181.5110  179.4800  139.4580 C   0  0  0  0  0  2  0  0  0  0  0  0
  183.9680  178.8460  138.9750 C   0  0  1  0  0  0  0  0  0  0  0  0
  183.0430  177.1090  136.0950 C   0  0  2  0  0  3  0  0  0  0  0  0
  185.2540  177.3890  137.2820 C   0  0  0  0  0  0  0  0  0  0  0  0
  181.2870  176.5750  139.3910 O   0  0  0  0  0  0  0  0  0  0  0  0
  184.4410  177.8800  140.0780 C   0  0  0  0  0  2  0  0  0  0  0  0
  179.0570  179.5220  144.1240 C   0  0  0  0  0  2  0  0  0  0  0  0
  179.9990  180.9180  141.1720 O   0  0  0  0  0  0  0  0  0  0  0  0
  180.3970  179.8210  141.6480 C   0  0  0  0  0  0  0  0  0  0  0  0
  179.9020  179.3730  142.9040 N   0  0  0  0  0  0  0  0  0  0  0  0
  179.8320  178.3860  144.0210 C   0  0  0  0  0  2  0  0  0  0  0  0
  2 30  1  1  0  0  0
  2 17  1  0  0  0  0
  3  7  2  0  0  0  0
  3 11  1  0  0  0  0
  5 20  2  0  0  0  0
  5 21  1  0  0  0  0
  8  1  1  6  0  0  0
  8 14  1  0  0  0  0
  8 26  1  0  0  0  0
  9 21  1  0  0  0  0
 10  1  2  0  0  0  0
 10 18  1  0  0  0  0
 11 10  1  0  0  0  0
 12  6  1  0  0  0  0
 14 23  1  0  0  0  0
 14 22  1  1  0  0  0
 15 26  1  0  0  0  0
 15 13  1  0  0  0  0
 16 17  1  0  0  0  0
 18 15  2  0  0  0  0
 19 23  1  0  0  0  0
 20 25  1  0  0  0  0
 21 12  2  0  0  0  0
 22  2  1  0  0  0  0
 23  4  1  1  0  0  0
 23 27  1  0  0  0  0
 24  7  1  6  0  0  0
 24 20  1  0  0  0  0
 24  1  1  0  0  0  0
 25  6  2  0  0  0  0
 25 19  1  0  0  0  0
 27 16  1  0  0  0  0
 29 30  2  0  0  0  0
 30 31  1  0  0  0  0
 31 32  1  0  0  0  0
 31 28  1  0  0  0  0
 32 28  1  0  0  0  0
M  END
>  <MODEL>
3

>  <REMARK>
 VINA RESULT:      -5.7      2.688      5.482
  Name = 
  1 active torsions:
  status: ('A' for Active; 'I' for Inactive)
    1  A    between atoms: C_2  and  C_29
                            x       y       z     vdW  Elec       q    Type
                         _______ _______ _______ _____ _____    ______ ____

>  <TORSDO>
F 1

$$$$
=
 OpenBabel11062412413D

 32 37  0  0  1  0  0  0  0  0999 V2000
  188.6400  177.2170  137.5390 C   0  0  0  0  0  0  0  0  0  0  0  0
  192.7440  175.4480  137.2200 C   0  0  2  0  0  3  0  0  0  0  0  0
  186.4950  179.0020  137.5940 N   0  0  0  0  0  0  0  0  0  0  0  0
  190.9660  174.4280  134.5940 O   0  0  0  0  0  1  0  0  0  0  0  0
  185.7800  175.7810  137.1160 C   0  0  0  0  0  3  0  0  0  0  0  0
  186.7970  173.6100  135.7350 C   0  0  0  0  0  3  0  0  0  0  0  0
  186.7670  178.4340  136.4530 C   0  0  0  0  0  3  0  0  0  0  0  0
  189.8220  176.5730  137.5100 C   0  0  1  0  0  3  0  0  0  0  0  0
  183.9120  174.3670  137.9680 C   0  0  0  0  0  1  0  0  0  0  0  0
  188.1590  177.7690  138.8200 C   0  0  0  0  0  0  0  0  0  0  0  0
  187.1320  178.6200  138.8250 C   0  0  0  0  0  2  0  0  0  0  0  0
  185.6620  173.4880  136.4730 N   0  0  0  0  0  0  0  0  0  0  0  0
  190.7710  176.4300  141.2060 C   0  0  0  0  0  1  0  0  0  0  0  0
  190.4700  176.1410  136.2050 C   0  0  1  0  0  3  0  0  0  0  0  0
  190.0140  176.7600  139.9710 C   0  0  0  0  0  0  0  0  0  0  0  0
  191.1510  173.5660  137.6030 C   0  0  0  0  0  2  0  0  0  0  0  0
  192.4990  173.9560  137.0090 C   0  0  0  0  0  2  0  0  0  0  0  0
  188.8840  177.4610  140.0560 C   0  0  0  0  0  3  0  0  0  0  0  0
  188.7070  174.9330  134.8320 C   0  0  0  0  0  2  0  0  0  0  0  0
  186.9410  175.9480  136.3420 C   0  0  0  0  0  0  0  0  0  0  0  0
  185.1460  174.5400  137.1590 C   0  0  0  0  0  0  0  0  0  0  0  0
  191.9970  176.3420  136.2200 C   0  0  0  0  0  2  0  0  0  0  0  0
  190.0400  174.7820  135.5800 C   0  0  1  0  0  0  0  0  0  0  0  0
  187.7040  177.2510  136.3610 C   0  0  2  0  0  3  0  0  0  0  0  0
  187.4660  174.8360  135.6630 C   0  0  0  0  0  0  0  0  0  0  0  0
  190.5020  176.3420  138.7220 O   0  0  0  0  0  0  0  0  0  0  0  0
  189.9910  173.6280  136.6000 C   0  0  0  0  0  2  0  0  0  0  0  0
  196.4800  174.5010  138.3170 C   0  0  0  0  0  2  0  0  0  0  0  0
  194.6390  176.7490  136.5540 O   0  0  0  0  0  0  0  0  0  0  0  0
  194.2040  175.7490  137.1850 C   0  0  0  0  0  0  0  0  0  0  0  0
  195.1110  174.8990  137.8780 N   0  0  0  0  0  0  0  0  0  0  0  0
  195.4240  173.7150  138.7300 C   0  0  0  0  0  2  0  0  0  0  0  0
  1 10  2  0  0  0  0
  2 30  1  6  0  0  0
  3 11  1  0  0  0  0
  5 21  1  0  0  0  0
  6 12  1  0  0  0  0
  7  3  2  0  0  0  0
  8  1  1  6  0  0  0
  8 26  1  0  0  0  0
 10 11  1  0  0  0  0
 10 18  1  0  0  0  0
 12 21  2  0  0  0  0
 14 22  1  1  0  0  0
 14  8  1  0  0  0  0
 15 18  2  0  0  0  0
 15 13  1  0  0  0  0
 17  2  1  0  0  0  0
 17 16  1  0  0  0  0
 19 23  1  0  0  0  0
 19 25  1  0  0  0  0
 20 24  1  0  0  0  0
 20  5  2  0  0  0  0
 21  9  1  0  0  0  0
 22  2  1  0  0  0  0
 23  4  1  6  0  0  0
 23 14  1  0  0  0  0
 23 27  1  0  0  0  0
 24  7  1  1  0  0  0
 24  1  1  0  0  0  0
 25  6  2  0  0  0  0
 25 20  1  0  0  0  0
 26 15  1  0  0  0  0
 27 16  1  0  0  0  0
 28 32  1  0  0  0  0
 29 30  2  0  0  0  0
 30 31  1  0  0  0  0
 31 28  1  0  0  0  0
 31 32  1  0  0  0  0
M  END
>  <MODEL>
4

>  <REMARK>
 VINA RESULT:      -5.0      4.312      8.843
  Name = 
  1 active torsions:
  status: ('A' for Active; 'I' for Inactive)
    1  A    between atoms: C_2  and  C_29
                            x       y       z     vdW  Elec       q    Type
                         _______ _______ _______ _____ _____    ______ ____

>  <TORSDO>
F 1

$$$$
=
 OpenBabel11062412413D

 32 37  0  0  1  0  0  0  0  0999 V2000
  183.7450  178.2420  137.6200 C   0  0  0  0  0  0  0  0  0  0  0  0
  187.6500  176.5400  136.2340 C   0  0  2  0  0  3  0  0  0  0  0  0
  181.5910  179.9540  138.0900 N   0  0  0  0  0  0  0  0  0  0  0  0
  185.2010  174.9860  134.5960 O   0  0  0  0  0  1  0  0  0  0  0  0
  181.0440  176.6850  138.4580 C   0  0  0  0  0  3  0  0  0  0  0  0
  181.7340  174.3110  137.2170 C   0  0  0  0  0  3  0  0  0  0  0  0
  181.5180  179.1800  137.0440 C   0  0  0  0  0  3  0  0  0  0  0  0
  184.9030  177.6320  137.3030 C   0  0  1  0  0  3  0  0  0  0  0  0
  179.6950  175.4220  140.1310 C   0  0  0  0  0  1  0  0  0  0  0  0
  183.6680  179.0220  138.8700 C   0  0  0  0  0  0  0  0  0  0  0  0
  182.6300  179.8330  139.0760 C   0  0  0  0  0  2  0  0  0  0  0  0
  180.9220  174.3090  138.3080 N   0  0  0  0  0  0  0  0  0  0  0  0
  187.0290  178.2340  140.4160 C   0  0  0  0  0  1  0  0  0  0  0  0
  185.1180  176.9690  135.9520 C   0  0  1  0  0  3  0  0  0  0  0  0
  185.8800  178.3000  139.4770 C   0  0  0  0  0  0  0  0  0  0  0  0
  186.4460  174.7330  137.4620 C   0  0  0  0  0  2  0  0  0  0  0  0
  187.4820  175.0300  136.3850 C   0  0  0  0  0  2  0  0  0  0  0  0
  184.7850  178.9770  139.8170 C   0  0  0  0  0  3  0  0  0  0  0  0
  183.1130  175.4760  135.4990 C   0  0  0  0  0  2  0  0  0  0  0  0
  181.8640  176.7250  137.3180 C   0  0  0  0  0  0  0  0  0  0  0  0
  180.5720  175.4620  138.9330 C   0  0  0  0  0  0  0  0  0  0  0  0
  186.5400  177.2050  135.4090 C   0  0  0  0  0  2  0  0  0  0  0  0
  184.6260  175.5050  135.7600 C   0  0  1  0  0  0  0  0  0  0  0  0
  182.4720  178.0240  136.8460 C   0  0  2  0  0  3  0  0  0  0  0  0
  182.2300  175.5140  136.7070 C   0  0  0  0  0  0  0  0  0  0  0  0
  185.9630  177.6570  138.2300 O   0  0  0  0  0  0  0  0  0  0  0  0
  185.0190  174.5710  136.9220 C   0  0  0  0  0  2  0  0  0  0  0  0
  191.6440  176.2680  136.4180 C   0  0  0  0  0  2  0  0  0  0  0  0
  189.0760  177.5430  134.5940 O   0  0  0  0  0  0  0  0  0  0  0  0
  188.9850  176.8620  135.6500 C   0  0  0  0  0  0  0  0  0  0  0  0
  190.1640  176.4000  136.2990 N   0  0  0  0  0  0  0  0  0  0  0  0
  190.8710  175.6700  137.3910 C   0  0  0  0  0  2  0  0  0  0  0  0
  1 10  2  0  0  0  0
  2 30  1  6  0  0  0
  2 17  1  0  0  0  0
  3 11  1  0  0  0  0
  5 21  1  0  0  0  0
  6 12  1  0  0  0  0
  7  3  2  0  0  0  0
  8  1  1  6  0  0  0
  8 26  1  0  0  0  0
 10 11  1  0  0  0  0
 10 18  1  0  0  0  0
 12 21  2  0  0  0  0
 14 22  1  1  0  0  0
 14  8  1  0  0  0  0
 15 18  2  0  0  0  0
 15 13  1  0  0  0  0
 17 16  1  0  0  0  0
 19 23  1  0  0  0  0
 19 25  1  0  0  0  0
 20  5  2  0  0  0  0
 21  9  1  0  0  0  0
 22  2  1  0  0  0  0
 23  4  1  6  0  0  0
 23 14  1  0  0  0  0
 23 27  1  0  0  0  0
 24  7  1  1  0  0  0
 24 20  1  0  0  0  0
 24  1  1  0  0  0  0
 25  6  2  0  0  0  0
 25 20  1  0  0  0  0
 26 15  1  0  0  0  0
 27 16  1  0  0  0  0
 28 32  1  0  0  0  0
 29 30  2  0  0  0  0
 30 31  1  0  0  0  0
 31 28  1  0  0  0  0
 31 32  1  0  0  0  0
M  END
>  <MODEL>
5

>  <REMARK>
 VINA RESULT:      -4.8      2.259      6.814
  Name = 
  1 active torsions:
  status: ('A' for Active; 'I' for Inactive)
    1  A    between atoms: C_2  and  C_29
                            x       y       z     vdW  Elec       q    Type
                         _______ _______ _______ _____ _____    ______ ____

>  <TORSDO>
F 1

$$$$
=
 OpenBabel11062412413D

 32 37  0  0  1  0  0  0  0  0999 V2000
  188.6770  176.8570  136.1270 C   0  0  0  0  0  0  0  0  0  0  0  0
  192.9490  175.5840  136.5710 C   0  0  2  0  0  3  0  0  0  0  0  0
  186.3620  178.2570  135.4380 N   0  0  0  0  0  0  0  0  0  0  0  0
  191.4100  173.3860  134.5950 O   0  0  0  0  0  1  0  0  0  0  0  0
  186.0010  175.0640  136.3280 C   0  0  0  0  0  3  0  0  0  0  0  0
  187.2960  172.6470  135.9660 C   0  0  0  0  0  3  0  0  0  0  0  0
  186.7430  177.3050  134.6330 C   0  0  0  0  0  3  0  0  0  0  0  0
  189.9180  176.3940  136.3680 C   0  0  1  0  0  3  0  0  0  0  0  0
  184.2460  173.9230  137.6840 C   0  0  0  0  0  1  0  0  0  0  0  0
  188.0820  177.8280  137.0660 C   0  0  0  0  0  0  0  0  0  0  0  0
  186.9750  178.4850  136.7180 C   0  0  0  0  0  2  0  0  0  0  0  0
  186.1460  172.7110  136.6870 N   0  0  0  0  0  0  0  0  0  0  0  0
  190.7000  177.8830  139.7950 C   0  0  0  0  0  1  0  0  0  0  0  0
  190.6680  175.5420  135.3570 C   0  0  1  0  0  3  0  0  0  0  0  0
  189.9730  177.5920  138.5330 C   0  0  0  0  0  0  0  0  0  0  0  0
  191.5390  173.8590  137.6920 C   0  0  0  0  0  2  0  0  0  0  0  0
  192.8670  174.1190  136.9930 C   0  0  0  0  0  2  0  0  0  0  0  0
  188.7750  178.1350  138.3200 C   0  0  0  0  0  3  0  0  0  0  0  0
  189.1030  173.6880  134.6010 C   0  0  0  0  0  2  0  0  0  0  0  0
  187.1740  175.0280  135.5560 C   0  0  0  0  0  0  0  0  0  0  0  0
  185.4940  173.8870  136.8780 C   0  0  0  0  0  0  0  0  0  0  0  0
  192.1640  175.9010  135.2910 C   0  0  0  0  0  2  0  0  0  0  0  0
  190.4080  174.0070  135.3470 C   0  0  1  0  0  0  0  0  0  0  0  0
  187.7990  176.3010  135.0380 C   0  0  2  0  0  3  0  0  0  0  0  0
  187.8400  173.8020  135.3960 C   0  0  0  0  0  0  0  0  0  0  0  0
  190.5590  176.7570  137.5680 O   0  0  0  0  0  0  0  0  0  0  0  0
  190.4270  173.3750  136.7520 C   0  0  0  0  0  2  0  0  0  0  0  0
  196.8250  174.5960  136.3300 C   0  0  0  0  0  2  0  0  0  0  0  0
  194.6710  177.2240  136.2980 O   0  0  0  0  0  0  0  0  0  0  0  0
  194.3710  176.0060  136.4170 C   0  0  0  0  0  0  0  0  0  0  0  0
  195.3980  175.0210  136.4120 N   0  0  0  0  0  0  0  0  0  0  0  0
  195.8750  173.6090  136.4870 C   0  0  0  0  0  2  0  0  0  0  0  0
  1 10  2  0  0  0  0
  2 30  1  6  0  0  0
  2 17  1  0  0  0  0
  3 11  1  0  0  0  0
  5 21  1  0  0  0  0
  6 12  1  0  0  0  0
  7  3  2  0  0  0  0
  8  1  1  6  0  0  0
  8 26  1  0  0  0  0
 10 18  1  0  0  0  0
 11 10  1  0  0  0  0
 12 21  2  0  0  0  0
 14 22  1  1  0  0  0
 14  8  1  0  0  0  0
 15 13  1  0  0  0  0
 17 16  1  0  0  0  0
 18 15  2  0  0  0  0
 19 23  1  0  0  0  0
 19 25  1  0  0  0  0
 20  5  2  0  0  0  0
 21  9  1  0  0  0  0
 22  2  1  0  0  0  0
 23  4  1  6  0  0  0
 23 14  1  0  0  0  0
 23 27  1  0  0  0  0
 24  7  1  1  0  0  0
 24 20  1  0  0  0  0
 24  1  1  0  0  0  0
 25 20  1  0  0  0  0
 25  6  2  0  0  0  0
 26 15  1  0  0  0  0
 27 16  1  0  0  0  0
 28 31  1  0  0  0  0
 28 32  1  0  0  0  0
 29 30  2  0  0  0  0
 31 30  1  0  0  0  0
 31 32  1  0  0  0  0
M  END
>  <MODEL>
6

>  <REMARK>
 VINA RESULT:      -4.6      4.539      9.162
  Name = 
  1 active torsions:
  status: ('A' for Active; 'I' for Inactive)
    1  A    between atoms: C_2  and  C_29
                            x       y       z     vdW  Elec       q    Type
                         _______ _______ _______ _____ _____    ______ ____

>  <TORSDO>
F 1

$$$$
=
 OpenBabel11062412413D

 32 37  0  0  1  0  0  0  0  0999 V2000
  189.9640  176.6160  136.2940 C   0  0  0  0  0  0  0  0  0  0  0  0
  194.1840  175.1700  136.7070 C   0  0  2  0  0  3  0  0  0  0  0  0
  187.7070  178.1330  135.6640 N   0  0  0  0  0  0  0  0  0  0  0  0
  192.5940  173.1440  134.5940 O   0  0  0  0  0  1  0  0  0  0  0  0
  187.2250  174.9100  136.3660 C   0  0  0  0  0  3  0  0  0  0  0  0
  188.4410  172.4730  135.8790 C   0  0  0  0  0  3  0  0  0  0  0  0
  188.0650  177.2160  134.8100 C   0  0  0  0  0  3  0  0  0  0  0  0
  191.1860  176.0970  136.5210 C   0  0  1  0  0  3  0  0  0  0  0  0
  185.4170  173.7560  137.6370 C   0  0  0  0  0  1  0  0  0  0  0  0
  189.3920  177.5520  137.2820 C   0  0  0  0  0  0  0  0  0  0  0  0
  188.3130  178.2670  136.9610 C   0  0  0  0  0  2  0  0  0  0  0  0
  187.2850  172.5370  136.5900 N   0  0  0  0  0  0  0  0  0  0  0  0
  191.9770  177.3590  140.0350 C   0  0  0  0  0  1  0  0  0  0  0  0
  191.9170  175.2770  135.4700 C   0  0  1  0  0  3  0  0  0  0  0  0
  191.2560  177.1670  138.7520 C   0  0  0  0  0  0  0  0  0  0  0  0
  192.7020  173.4340  137.7140 C   0  0  0  0  0  2  0  0  0  0  0  0
  194.0470  173.6870  137.0440 C   0  0  0  0  0  2  0  0  0  0  0  0
  190.0800  177.7620  138.5580 C   0  0  0  0  0  3  0  0  0  0  0  0
  190.2990  173.5260  134.5940 C   0  0  0  0  0  2  0  0  0  0  0  0
  188.4060  174.8770  135.6050 C   0  0  0  0  0  0  0  0  0  0  0  0
  186.6710  173.7220  136.8430 C   0  0  0  0  0  0  0  0  0  0  0  0
  193.4260  175.5870  135.4390 C   0  0  0  0  0  2  0  0  0  0  0  0
  191.6040  173.7560  135.3690 C   0  0  1  0  0  0  0  0  0  0  0  0
  189.0810  176.1540  135.1670 C   0  0  2  0  0  3  0  0  0  0  0  0
  189.0310  173.6390  135.3810 C   0  0  0  0  0  0  0  0  0  0  0  0
  191.8250  176.3680  137.7470 O   0  0  0  0  0  0  0  0  0  0  0  0
  191.5850  173.0440  136.7360 C   0  0  0  0  0  2  0  0  0  0  0  0
  197.9780  174.6850  137.9030 C   0  0  0  0  0  2  0  0  0  0  0  0
  195.9890  176.4360  135.7760 O   0  0  0  0  0  0  0  0  0  0  0  0
  195.6220  175.5490  136.5920 C   0  0  0  0  0  0  0  0  0  0  0  0
  196.5850  174.9060  137.4190 N   0  0  0  0  0  0  0  0  0  0  0  0
  196.9770  173.9280  138.4750 C   0  0  0  0  0  2  0  0  0  0  0  0
  1 10  2  0  0  0  0
  2 30  1  6  0  0  0
  2 17  1  0  0  0  0
  3 11  1  0  0  0  0
  5 21  1  0  0  0  0
  6 12  1  0  0  0  0
  7  3  2  0  0  0  0
  8  1  1  6  0  0  0
  8 26  1  0  0  0  0
 10 18  1  0  0  0  0
 11 10  1  0  0  0  0
 12 21  2  0  0  0  0
 14 22  1  1  0  0  0
 14  8  1  0  0  0  0
 15 13  1  0  0  0  0
 17 16  1  0  0  0  0
 18 15  2  0  0  0  0
 19 23  1  0  0  0  0
 19 25  1  0  0  0  0
 20  5  2  0  0  0  0
 21  9  1  0  0  0  0
 22  2  1  0  0  0  0
 23  4  1  6  0  0  0
 23 14  1  0  0  0  0
 23 27  1  0  0  0  0
 24  7  1  1  0  0  0
 24 20  1  0  0  0  0
 24  1  1  0  0  0  0
 25 20  1  0  0  0  0
 25  6  2  0  0  0  0
 26 15  1  0  0  0  0
 27 16  1  0  0  0  0
 28 32  1  0  0  0  0
 29 30  2  0  0  0  0
 30 31  1  0  0  0  0
 31 28  1  0  0  0  0
 31 32  1  0  0  0  0
M  END
>  <MODEL>
7

>  <REMARK>
 VINA RESULT:      -4.2      5.318      9.971
  Name = 
  1 active torsions:
  status: ('A' for Active; 'I' for Inactive)
    1  A    between atoms: C_2  and  C_29
                            x       y       z     vdW  Elec       q    Type
                         _______ _______ _______ _____ _____    ______ ____

>  <TORSDO>
F 1

$$$$
=
 OpenBabel11062412413D

 32 37  0  0  1  0  0  0  0  0999 V2000
  187.0280  178.0280  138.8720 C   0  0  0  0  0  0  0  0  0  0  0  0
  191.0090  176.3780  137.6470 C   0  0  2  0  0  3  0  0  0  0  0  0
  184.9610  179.7530  139.6120 N   0  0  0  0  0  0  0  0  0  0  0  0
  188.9070  176.0280  135.0860 O   0  0  0  0  0  1  0  0  0  0  0  0
  184.0950  176.7450  138.4640 C   0  0  0  0  0  3  0  0  0  0  0  0
  184.8750  174.9700  136.4910 C   0  0  0  0  0  3  0  0  0  0  0  0
  185.0810  179.4760  138.3430 C   0  0  0  0  0  3  0  0  0  0  0  0
  188.1780  177.4070  138.5480 C   0  0  1  0  0  3  0  0  0  0  0  0
  182.2940  175.1710  139.1700 C   0  0  0  0  0  1  0  0  0  0  0  0
  186.7170  178.2550  140.2970 C   0  0  0  0  0  0  0  0  0  0  0  0
  185.7240  179.0820  140.6290 C   0  0  0  0  0  2  0  0  0  0  0  0
  183.8300  174.6760  137.3090 N   0  0  0  0  0  0  0  0  0  0  0  0
  189.5440  176.3720  141.9590 C   0  0  0  0  0  1  0  0  0  0  0  0
  188.6560  177.3020  137.1090 C   0  0  1  0  0  3  0  0  0  0  0  0
  188.6590  176.9930  140.9400 C   0  0  0  0  0  0  0  0  0  0  0  0
  189.4130  174.4640  137.7560 C   0  0  0  0  0  2  0  0  0  0  0  0
  190.6950  174.9820  137.1160 C   0  0  0  0  0  2  0  0  0  0  0  0
  187.5700  177.6550  141.3260 C   0  0  0  0  0  3  0  0  0  0  0  0
  186.7080  176.4660  135.7080 C   0  0  0  0  0  2  0  0  0  0  0  0
  185.1620  177.0910  137.6190 C   0  0  0  0  0  0  0  0  0  0  0  0
  183.4310  175.5320  138.2850 C   0  0  0  0  0  0  0  0  0  0  0  0
  190.1800  177.4900  136.9890 C   0  0  0  0  0  2  0  0  0  0  0  0
  188.1140  176.1360  136.2330 C   0  0  1  0  0  0  0  0  0  0  0  0
  185.9630  178.3480  137.8580 C   0  0  2  0  0  3  0  0  0  0  0  0
  185.5690  176.1750  136.6350 C   0  0  0  0  0  0  0  0  0  0  0  0
  188.9860  176.8880  139.5790 O   0  0  0  0  0  0  0  0  0  0  0  0
  188.1470  174.7700  136.9450 C   0  0  0  0  0  2  0  0  0  0  0  0
  194.3110  176.4360  135.3780 C   0  0  0  0  0  2  0  0  0  0  0  0
  193.1220  177.1280  138.4850 O   0  0  0  0  0  0  0  0  0  0  0  0
  192.4640  176.6750  137.5100 C   0  0  0  0  0  0  0  0  0  0  0  0
  193.1140  176.4380  136.2670 N   0  0  0  0  0  0  0  0  0  0  0  0
  193.1200  175.9940  134.8430 C   0  0  0  0  0  2  0  0  0  0  0  0
  1 10  2  0  0  0  0
  2 30  1  6  0  0  0
  3 11  1  0  0  0  0
  6 25  2  0  0  0  0
  6 12  1  0  0  0  0
  7  3  2  0  0  0  0
  8  1  1  1  0  0  0
  8 26  1  0  0  0  0
 10 11  1  0  0  0  0
 10 18  1  0  0  0  0
 12 21  2  0  0  0  0
 14 22  1  1  0  0  0
 14  8  1  0  0  0  0
 15 18  2  0  0  0  0
 15 13  1  0  0  0  0
 17  2  1  0  0  0  0
 17 16  1  0  0  0  0
 19 23  1  0  0  0  0
 19 25  1  0  0  0  0
 20 24  1  0  0  0  0
 20  5  2  0  0  0  0
 21  5  1  0  0  0  0
 21  9  1  0  0  0  0
 22  2  1  0  0  0  0
 23  4  1  6  0  0  0
 23 27  1  0  0  0  0
 23 14  1  0  0  0  0
 24  7  1  1  0  0  0
 24  1  1  0  0  0  0
 25 20  1  0  0  0  0
 26 15  1  0  0  0  0
 27 16  1  0  0  0  0
 28 31  1  0  0  0  0
 30 29  2  0  0  0  0
 31 30  1  0  0  0  0
 32 28  1  0  0  0  0
 32 31  1  0  0  0  0
M  END
>  <MODEL>
8

>  <REMARK>
 VINA RESULT:      -4.1      3.173      7.721
  Name = 
  1 active torsions:
  status: ('A' for Active; 'I' for Inactive)
    1  A    between atoms: C_2  and  C_29
                            x       y       z     vdW  Elec       q    Type
                         _______ _______ _______ _____ _____    ______ ____

>  <TORSDO>
F 1

$$$$
=
 OpenBabel11062412413D

 32 37  0  0  1  0  0  0  0  0999 V2000
  186.0590  178.2000  138.4640 C   0  0  0  0  0  0  0  0  0  0  0  0
  189.5630  176.2450  136.4720 C   0  0  2  0  0  3  0  0  0  0  0  0
  184.2790  180.0880  139.4920 N   0  0  0  0  0  0  0  0  0  0  0  0
  186.8650  175.7030  134.5940 O   0  0  0  0  0  1  0  0  0  0  0  0
  183.1020  177.0120  138.9760 C   0  0  0  0  0  3  0  0  0  0  0  0
  183.3200  174.9920  137.0990 C   0  0  0  0  0  3  0  0  0  0  0  0
  184.0620  179.6650  138.2790 C   0  0  0  0  0  3  0  0  0  0  0  0
  187.0770  177.4950  137.9340 C   0  0  1  0  0  3  0  0  0  0  0  0
  181.5230  175.6110  140.3030 C   0  0  0  0  0  1  0  0  0  0  0  0
  186.1310  178.6000  139.8830 C   0  0  0  0  0  0  0  0  0  0  0  0
  185.2700  179.5030  140.3550 C   0  0  0  0  0  2  0  0  0  0  0  0
  182.5180  174.8400  138.1850 N   0  0  0  0  0  0  0  0  0  0  0  0
  189.2640  176.7910  140.9840 C   0  0  0  0  0  1  0  0  0  0  0  0
  187.1650  177.2070  136.4450 C   0  0  1  0  0  3  0  0  0  0  0  0
  188.1550  177.3320  140.1570 C   0  0  0  0  0  0  0  0  0  0  0  0
  188.0230  174.4290  137.2150 C   0  0  0  0  0  2  0  0  0  0  0  0
  189.1020  174.8130  136.2110 C   0  0  0  0  0  2  0  0  0  0  0  0
  187.2120  178.0820  140.7240 C   0  0  0  0  0  3  0  0  0  0  0  0
  184.9090  176.3070  135.6990 C   0  0  0  0  0  2  0  0  0  0  0  0
  183.9200  177.2120  137.8510 C   0  0  0  0  0  0  0  0  0  0  0  0
  182.3970  175.8170  139.1200 C   0  0  0  0  0  0  0  0  0  0  0  0
  188.6080  177.3110  135.9170 C   0  0  0  0  0  2  0  0  0  0  0  0
  186.3980  175.9740  135.8830 C   0  0  1  0  0  0  0  0  0  0  0  0
  184.7730  178.4510  137.7240 C   0  0  2  0  0  3  0  0  0  0  0  0
  184.0450  176.1730  136.9140 C   0  0  0  0  0  0  0  0  0  0  0  0
  188.1170  177.0590  138.7800 O   0  0  0  0  0  0  0  0  0  0  0  0
  186.5940  174.6970  136.7230 C   0  0  0  0  0  2  0  0  0  0  0  0
  193.5200  176.3770  137.0910 C   0  0  0  0  0  2  0  0  0  0  0  0
  191.1150  176.7470  134.7200 O   0  0  0  0  0  0  0  0  0  0  0  0
  190.9380  176.4580  135.9340 C   0  0  0  0  0  0  0  0  0  0  0  0
  192.0580  176.3400  136.8030 N   0  0  0  0  0  0  0  0  0  0  0  0
  192.6720  176.0820  138.1380 C   0  0  0  0  0  2  0  0  0  0  0  0
  1 10  2  0  0  0  0
  2 30  1  6  0  0  0
  3 11  1  0  0  0  0
  5 21  1  0  0  0  0
  6 12  1  0  0  0  0
  7  3  2  0  0  0  0
  8  1  1  6  0  0  0
  8 26  1  0  0  0  0
 10 11  1  0  0  0  0
 10 18  1  0  0  0  0
 12 21  2  0  0  0  0
 14 22  1  1  0  0  0
 14  8  1  0  0  0  0
 15 18  2  0  0  0  0
 15 13  1  0  0  0  0
 17  2  1  0  0  0  0
 17 16  1  0  0  0  0
 19 23  1  0  0  0  0
 19 25  1  0  0  0  0
 20  5  2  0  0  0  0
 21  9  1  0  0  0  0
 22  2  1  0  0  0  0
 23  4  1  6  0  0  0
 23 14  1  0  0  0  0
 23 27  1  0  0  0  0
 24 20  1  0  0  0  0
 24  7  1  1  0  0  0
 24  1  1  0  0  0  0
 25  6  2  0  0  0  0
 25 20  1  0  0  0  0
 26 15  1  0  0  0  0
 27 16  1  0  0  0  0
 28 32  1  0  0  0  0
 29 30  2  0  0  0  0
 30 31  1  0  0  0  0
 31 28  1  0  0  0  0
 31 32  1  0  0  0  0
M  END
>  <MODEL>
9

>  <REMARK>
 VINA RESULT:      -4.0      2.670      7.075
  Name = 
  1 active torsions:
  status: ('A' for Active; 'I' for Inactive)
    1  A    between atoms: C_2  and  C_29
                            x       y       z     vdW  Elec       q    Type
                         _______ _______ _______ _____ _____    ______ ____

>  <TORSDO>
F 1

$$$$
