=
 OpenBabel11062412493D

 54 59  0  0  1  0  0  0  0  0999 V2000
  190.1420  172.6230  135.9570 C   0  0  2  0  0  3  0  0  0  0  0  0
  183.3050  176.8350  138.2320 C   0  0  2  0  0  3  0  0  0  0  0  0
  189.4840  173.9870  136.2390 C   0  0  1  0  0  3  0  0  0  0  0  0
  192.1590  175.8670  136.1180 N   0  0  0  0  0  0  0  0  0  0  0  0
  185.6720  173.6990  136.4000 C   0  0  0  0  0  2  0  0  0  0  0  0
  190.2670  177.2800  136.5260 C   0  0  0  0  0  2  0  0  0  0  0  0
  190.9380  175.9440  136.5450 C   0  0  0  0  0  0  0  0  0  0  0  0
  193.5940  172.9180  134.5970 C   0  0  0  0  0  2  0  0  0  0  0  0
  188.0900  173.9440  138.2470 O   0  0  0  0  0  1  0  0  0  0  0  0
  188.1070  173.7390  136.8620 C   0  0  1  0  0  3  0  0  0  0  0  0
  184.6440  174.7650  136.6860 C   0  0  2  0  0  3  0  0  0  0  0  0
  185.4220  175.8580  137.3560 C   0  0  2  0  0  3  0  0  0  0  0  0
  194.3580  174.9250  135.6930 C   0  0  0  0  0  2  0  0  0  0  0  0
  182.5660  175.5520  137.7810 C   0  0  0  0  0  2  0  0  0  0  0  0
  187.8940  176.6600  137.1910 C   0  0  2  0  0  3  0  0  0  0  0  0
  190.2860  174.8250  137.0740 O   0  0  0  0  0  0  0  0  0  0  0  0
  188.8120  177.1870  136.0720 C   0  0  1  0  0  3  0  0  0  0  0  0
  191.6610  172.5600  136.1150 C   0  0  0  0  0  2  0  0  0  0  0  0
  192.9540  174.6510  136.1760 C   0  0  2  0  0  3  0  0  0  0  0  0
  194.8330  173.6120  135.1280 C   0  0  0  0  0  2  0  0  0  0  0  0
  192.3970  173.5760  135.2580 C   0  0  1  0  0  3  0  0  0  0  0  0
  186.9680  174.4650  136.1350 C   0  0  2  0  0  3  0  0  0  0  0  0
  184.5520  177.1090  137.3730 C   0  0  0  0  0  2  0  0  0  0  0  0
  186.6950  175.9350  136.5450 C   0  0  1  0  0  3  0  0  0  0  0  0
  183.5080  174.3480  137.6040 C   0  0  0  0  0  2  0  0  0  0  0  0
  188.7040  177.9520  139.8850 C   0  0  0  0  0  0  0  0  0  0  0  0
  188.7090  178.6350  138.5520 C   0  0  0  0  0  2  0  0  0  0  0  0
  187.5440  177.7070  138.2720 C   0  0  2  0  0  3  0  0  0  0  0  0
  189.8650  177.2150  140.1210 O   0  0  0  0  0  1  0  0  0  0  0  0
  187.6230  177.1270  139.5560 O   0  0  0  0  0  0  0  0  0  0  0  0
  188.3990  178.8150  140.9390 O   0  0  0  0  0  1  0  0  0  0  0  0
  188.0150  179.4410  136.3410 F   0  0  0  0  0  0  0  0  0  0  0  0
  189.3520  178.9740  134.6000 F   0  0  0  0  0  0  0  0  0  0  0  0
  188.3410  178.4850  135.3980 C   0  0  0  0  0  0  0  0  0  0  0  0
  187.2370  178.2380  134.5980 F   0  0  0  0  0  0  0  0  0  0  0  0
  189.7200  172.0800  134.5940 C   0  0  0  0  0  2  0  0  0  0  0  0
  188.0130  170.6390  135.4260 O   0  0  0  0  0  1  0  0  0  0  0  0
  189.2130  170.6500  134.7130 C   0  0  0  0  0  2  0  0  0  0  0  0
  183.6930  176.7750  139.7120 C   0  0  0  0  0  2  0  0  0  0  0  0
  183.7100  178.1360  140.4120 C   0  0  1  0  0  0  0  0  0  0  0  0
  182.3100  178.7520  140.2840 C   0  0  0  0  0  1  0  0  0  0  0  0
  184.9150  178.5110  142.5180 N   0  0  0  0  0  0  0  0  0  0  0  0
  184.0280  177.8380  141.8530 C   0  0  0  0  0  3  0  0  0  0  0  0
  186.3300  177.6020  144.2440 N   0  0  0  0  0  0  0  0  0  0  0  0
  185.2590  178.2570  143.8910 C   0  0  0  0  0  0  0  0  0  0  0  0
  184.6490  178.6010  146.3220 C   0  0  0  0  0  1  0  0  0  0  0  0
  184.4080  178.7980  144.9020 N   0  0  0  0  0  2  0  0  0  0  0  0
  187.3440  177.0720  143.3410 C   0  0  0  0  0  2  0  0  0  0  0  0
  189.4830  176.8090  144.4210 N   0  0  0  0  0  0  0  0  0  0  0  0
  188.6940  177.5600  143.7400 C   0  0  0  0  0  3  0  0  0  0  0  0
  191.1030  178.5860  144.1010 C   0  0  0  0  0  1  0  0  0  0  0  0
  190.7770  177.2900  144.8180 C   0  0  0  0  0  2  0  0  0  0  0  0
  184.7210  178.9410  139.8140 O   0  0  0  0  0  0  0  0  0  0  0  0
  184.1590  180.0830  139.2200 C   0  0  0  0  0  1  0  0  0  0  0  0
  1 36  1  6  0  0  0
  1 18  1  0  0  0  0
  1  3  1  0  0  0  0
  2 39  1  1  0  0  0
  3 10  1  0  0  0  0
  3 16  1  1  0  0  0
  4 19  1  0  0  0  0
  4  7  2  0  0  0  0
  6  7  1  0  0  0  0
  7 16  1  0  0  0  0
  8 20  1  0  0  0  0
 10  9  1  1  0  0  0
 11  5  1  1  0  0  0
 11 12  1  0  0  0  0
 11 25  1  0  0  0  0
 12 23  1  6  0  0  0
 14  2  1  0  0  0  0
 15 28  1  6  0  0  0
 17 34  1  1  0  0  0
 17  6  1  0  0  0  0
 17 15  1  0  0  0  0
 19 13  1  6  0  0  0
 20 13  1  0  0  0  0
 21  8  1  1  0  0  0
 21 18  1  0  0  0  0
 21 19  1  0  0  0  0
 22  5  1  1  0  0  0
 22 24  1  0  0  0  0
 22 10  1  0  0  0  0
 23  2  1  0  0  0  0
 24 15  1  0  0  0  0
 24 12  1  0  0  0  0
 25 14  1  0  0  0  0
 26 29  1  0  0  0  0
 26 31  1  0  0  0  0
 27 26  1  0  0  0  0
 28 27  1  0  0  0  0
 28 30  1  0  0  0  0
 30 26  1  0  0  0  0
 33 34  1  0  0  0  0
 34 32  1  0  0  0  0
 35 34  1  0  0  0  0
 36 38  1  0  0  0  0
 38 37  1  0  0  0  0
 39 40  1  0  0  0  0
 40 43  1  0  0  0  0
 41 40  1  0  0  0  0
 42 45  1  0  0  0  0
 43 42  2  0  0  0  0
 45 44  2  0  0  0  0
 45 47  1  0  0  0  0
 47 46  1  0  0  0  0
 48 50  1  0  0  0  0
 48 44  1  0  0  0  0
 49 52  1  0  0  0  0
 50 49  2  0  0  0  0
 51 52  1  0  0  0  0
 53 40  1  0  0  0  0
 54 53  1  0  0  0  0
M  END
>  <MODEL>
1

>  <REMARK>
 VINA RESULT:      -4.3      0.000      0.000
  Name = 
  12 active torsions:
  status: ('A' for Active; 'I' for Inactive)
    1  A    between atoms: C_1  and  C_3
    2  A    between atoms: C_2  and  C_18
    3  A    between atoms: C_3  and  C_35
    4  A    between atoms: C_4  and  O_17
    5  A    between atoms: C_4  and  C_18
    6  A    between atoms: C_4  and  C_36
    7  A    between atoms: N_7  and  C_24
    8  A    between atoms: N_11  and  C_25
    9  A    between atoms: N_19  and  C_53
   10  A    between atoms: C_24  and  C_48
   11  A    between atoms: C_28  and  C_31
   12  A    between atoms: C_34  and  C_50
                            x       y       z     vdW  Elec       q    Type
                         _______ _______ _______ _____ _____    ______ ____

>  <TORSDO>
F 12

$$$$
=
 OpenBabel11062412493D

 54 59  0  0  1  0  0  0  0  0999 V2000
  191.6330  172.5040  136.1580 C   0  0  2  0  0  3  0  0  0  0  0  0
  183.8590  175.5330  135.9420 C   0  0  2  0  0  3  0  0  0  0  0  0
  190.7080  173.7300  136.2700 C   0  0  1  0  0  3  0  0  0  0  0  0
  192.8980  175.9130  137.3400 N   0  0  0  0  0  0  0  0  0  0  0  0
  187.2070  172.9730  134.9250 C   0  0  0  0  0  2  0  0  0  0  0  0
  190.7890  177.0240  137.0950 C   0  0  0  0  0  2  0  0  0  0  0  0
  191.6110  175.7860  137.2670 C   0  0  0  0  0  0  0  0  0  0  0  0
  195.2480  173.3850  136.2630 C   0  0  0  0  0  2  0  0  0  0  0  0
  188.6960  173.2530  137.5750 O   0  0  0  0  0  1  0  0  0  0  0  0
  189.2580  173.2390  136.2920 C   0  0  1  0  0  3  0  0  0  0  0  0
  185.9900  173.8610  134.8740 C   0  0  2  0  0  3  0  0  0  0  0  0
  186.2770  174.9390  135.8770 C   0  0  2  0  0  3  0  0  0  0  0  0
  195.2190  175.3040  137.7240 C   0  0  0  0  0  2  0  0  0  0  0  0
  183.5570  174.2430  135.1410 C   0  0  0  0  0  2  0  0  0  0  0  0
  188.4710  176.0440  136.7420 C   0  0  2  0  0  3  0  0  0  0  0  0
  190.9980  174.5370  137.4130 O   0  0  0  0  0  0  0  0  0  0  0  0
  189.6410  176.8200  136.1100 C   0  0  1  0  0  3  0  0  0  0  0  0
  192.9750  172.6000  136.8850 C   0  0  0  0  0  2  0  0  0  0  0  0
  193.7990  174.8030  137.6040 C   0  0  2  0  0  3  0  0  0  0  0  0
  196.0730  174.1440  137.2850 C   0  0  0  0  0  2  0  0  0  0  0  0
  193.8030  173.8030  136.4610 C   0  0  1  0  0  3  0  0  0  0  0  0
  188.3680  173.9160  135.2420 C   0  0  2  0  0  3  0  0  0  0  0  0
  185.2750  176.0650  135.6550 C   0  0  0  0  0  2  0  0  0  0  0  0
  187.7300  175.2740  135.6290 C   0  0  1  0  0  3  0  0  0  0  0  0
  184.6770  173.1930  135.2470 C   0  0  0  0  0  2  0  0  0  0  0  0
  188.3750  177.9040  139.2140 C   0  0  0  0  0  0  0  0  0  0  0  0
  188.0860  178.3110  137.8020 C   0  0  0  0  0  2  0  0  0  0  0  0
  187.5820  176.8870  137.6830 C   0  0  2  0  0  3  0  0  0  0  0  0
  189.7380  177.9120  139.5140 O   0  0  0  0  0  1  0  0  0  0  0  0
  187.8930  176.6040  139.0310 O   0  0  0  0  0  0  0  0  0  0  0  0
  187.6210  178.6120  140.1520 O   0  0  0  0  0  1  0  0  0  0  0  0
  188.9610  179.1180  136.3350 F   0  0  0  0  0  0  0  0  0  0  0  0
  190.3010  178.5560  134.6250 F   0  0  0  0  0  0  0  0  0  0  0  0
  189.2510  178.1320  135.4100 C   0  0  0  0  0  0  0  0  0  0  0  0
  188.1500  177.9330  134.5940 F   0  0  0  0  0  0  0  0  0  0  0  0
  191.8400  172.1020  134.7000 C   0  0  0  0  0  2  0  0  0  0  0  0
  191.6090  169.7290  134.7350 O   0  0  0  0  0  1  0  0  0  0  0  0
  192.5440  170.7560  134.6020 C   0  0  0  0  0  2  0  0  0  0  0  0
  183.6760  175.3210  137.4470 C   0  0  0  0  0  2  0  0  0  0  0  0
  182.2770  175.6660  137.9630 C   0  0  1  0  0  0  0  0  0  0  0  0
  182.0900  174.9740  139.3210 C   0  0  0  0  0  1  0  0  0  0  0  0
  182.8890  177.7530  139.1030 N   0  0  0  0  0  0  0  0  0  0  0  0
  182.2720  177.1630  138.1270 C   0  0  0  0  0  3  0  0  0  0  0  0
  183.6080  179.7530  140.2410 N   0  0  0  0  0  0  0  0  0  0  0  0
  182.9030  179.1770  139.3070 C   0  0  0  0  0  0  0  0  0  0  0  0
  182.0790  181.4330  138.5150 C   0  0  0  0  0  1  0  0  0  0  0  0
  182.1480  179.9850  138.4050 N   0  0  0  0  0  2  0  0  0  0  0  0
  184.5000  179.0790  141.1760 C   0  0  0  0  0  2  0  0  0  0  0  0
  184.6000  178.7760  143.5650 N   0  0  0  0  0  0  0  0  0  0  0  0
  183.8830  179.0300  142.5310 C   0  0  0  0  0  3  0  0  0  0  0  0
  185.0520  178.4660  145.9290 C   0  0  0  0  0  1  0  0  0  0  0  0
  183.9970  178.7130  144.8670 C   0  0  0  0  0  2  0  0  0  0  0  0
  181.3200  175.2460  136.9970 O   0  0  0  0  0  0  0  0  0  0  0  0
  180.2300  176.1320  136.9600 C   0  0  0  0  0  1  0  0  0  0  0  0
  1 36  1  6  0  0  0
  1  3  1  0  0  0  0
  1 18  1  0  0  0  0
  2 39  1  1  0  0  0
  3 10  1  0  0  0  0
  3 16  1  1  0  0  0
  4 19  1  0  0  0  0
  6  7  1  0  0  0  0
  7  4  2  0  0  0  0
  7 16  1  0  0  0  0
  8 20  1  0  0  0  0
 10  9  1  1  0  0  0
 11  5  1  1  0  0  0
 11 25  1  0  0  0  0
 11 12  1  0  0  0  0
 12 23  1  6  0  0  0
 14 25  1  0  0  0  0
 14  2  1  0  0  0  0
 15 28  1  6  0  0  0
 17 34  1  1  0  0  0
 17 15  1  0  0  0  0
 17  6  1  0  0  0  0
 19 13  1  6  0  0  0
 20 13  1  0  0  0  0
 21  8  1  1  0  0  0
 21 18  1  0  0  0  0
 21 19  1  0  0  0  0
 22  5  1  1  0  0  0
 22 24  1  0  0  0  0
 22 10  1  0  0  0  0
 23  2  1  0  0  0  0
 24 12  1  0  0  0  0
 24 15  1  0  0  0  0
 26 29  1  0  0  0  0
 26 31  1  0  0  0  0
 27 26  1  0  0  0  0
 28 27  1  0  0  0  0
 28 30  1  0  0  0  0
 30 26  1  0  0  0  0
 33 34  1  0  0  0  0
 34 32  1  0  0  0  0
 35 34  1  0  0  0  0
 38 36  1  0  0  0  0
 38 37  1  0  0  0  0
 39 40  1  0  0  0  0
 40 43  1  0  0  0  0
 40 41  1  0  0  0  0
 42 45  1  0  0  0  0
 43 42  2  0  0  0  0
 44 48  1  0  0  0  0
 45 44  2  0  0  0  0
 47 46  1  0  0  0  0
 47 45  1  0  0  0  0
 48 50  1  0  0  0  0
 49 52  1  0  0  0  0
 50 49  2  0  0  0  0
 52 51  1  0  0  0  0
 53 40  1  0  0  0  0
 54 53  1  0  0  0  0
M  END
>  <MODEL>
2

>  <REMARK>
 VINA RESULT:      -3.1      2.077      3.354
  Name = 
  12 active torsions:
  status: ('A' for Active; 'I' for Inactive)
    1  A    between atoms: C_1  and  C_3
    2  A    between atoms: C_2  and  C_18
    3  A    between atoms: C_3  and  C_35
    4  A    between atoms: C_4  and  O_17
    5  A    between atoms: C_4  and  C_18
    6  A    between atoms: C_4  and  C_36
    7  A    between atoms: N_7  and  C_24
    8  A    between atoms: N_11  and  C_25
    9  A    between atoms: N_19  and  C_53
   10  A    between atoms: C_24  and  C_48
   11  A    between atoms: C_28  and  C_31
   12  A    between atoms: C_34  and  C_50
                            x       y       z     vdW  Elec       q    Type
                         _______ _______ _______ _____ _____    ______ ____

>  <TORSDO>
F 12

$$$$
=
 OpenBabel11062412493D

 54 59  0  0  1  0  0  0  0  0999 V2000
  191.8380  172.6110  136.2170 C   0  0  2  0  0  3  0  0  0  0  0  0
  184.0470  175.5990  136.0780 C   0  0  2  0  0  3  0  0  0  0  0  0
  190.9050  173.8260  136.3730 C   0  0  1  0  0  3  0  0  0  0  0  0
  193.0750  175.9770  137.5420 N   0  0  0  0  0  0  0  0  0  0  0  0
  187.4160  173.1030  134.9780 C   0  0  0  0  0  2  0  0  0  0  0  0
  190.9610  177.0850  137.3300 C   0  0  0  0  0  2  0  0  0  0  0  0
  191.7900  175.8460  137.4570 C   0  0  0  0  0  0  0  0  0  0  0  0
  195.4470  173.5090  136.3790 C   0  0  0  0  0  2  0  0  0  0  0  0
  188.8880  173.2850  137.6460 O   0  0  0  0  0  1  0  0  0  0  0  0
  189.4580  173.3260  136.3670 C   0  0  1  0  0  3  0  0  0  0  0  0
  186.1940  173.9850  134.9560 C   0  0  2  0  0  3  0  0  0  0  0  0
  186.4690  175.0240  136.0030 C   0  0  2  0  0  3  0  0  0  0  0  0
  195.3970  175.3670  137.9150 C   0  0  0  0  0  2  0  0  0  0  0  0
  183.7570  174.3410  135.2250 C   0  0  0  0  0  2  0  0  0  0  0  0
  188.6510  176.1060  136.9240 C   0  0  2  0  0  3  0  0  0  0  0  0
  191.1840  174.5890  137.5490 O   0  0  0  0  0  0  0  0  0  0  0  0
  189.8200  176.9140  136.3310 C   0  0  1  0  0  3  0  0  0  0  0  0
  193.1760  172.6860  136.9550 C   0  0  0  0  0  2  0  0  0  0  0  0
  193.9820  174.8630  137.7670 C   0  0  2  0  0  3  0  0  0  0  0  0
  196.2620  174.2310  137.4340 C   0  0  0  0  0  2  0  0  0  0  0  0
  193.9980  173.9100  136.5840 C   0  0  1  0  0  3  0  0  0  0  0  0
  188.5700  174.0390  135.3390 C   0  0  2  0  0  3  0  0  0  0  0  0
  185.4610  176.1510  135.8210 C   0  0  0  0  0  2  0  0  0  0  0  0
  187.9210  175.3770  135.7770 C   0  0  1  0  0  3  0  0  0  0  0  0
  184.8830  173.2950  135.2940 C   0  0  0  0  0  2  0  0  0  0  0  0
  188.4350  177.5070  139.6770 C   0  0  0  0  0  0  0  0  0  0  0  0
  188.4170  178.1900  138.3440 C   0  0  0  0  0  2  0  0  0  0  0  0
  187.7520  176.9060  137.8930 C   0  0  2  0  0  3  0  0  0  0  0  0
  189.7270  177.2480  140.1370 O   0  0  0  0  0  1  0  0  0  0  0  0
  187.8170  176.3500  139.1890 O   0  0  0  0  0  0  0  0  0  0  0  0
  187.6500  178.1540  140.6330 O   0  0  0  0  0  1  0  0  0  0  0  0
  190.2310  178.5280  134.5940 F   0  0  0  0  0  0  0  0  0  0  0  0
  188.1160  178.1780  135.2580 F   0  0  0  0  0  0  0  0  0  0  0  0
  189.4250  178.2500  135.6820 C   0  0  0  0  0  0  0  0  0  0  0  0
  189.5280  179.2810  136.6010 F   0  0  0  0  0  0  0  0  0  0  0  0
  192.0560  172.2690  134.7450 C   0  0  0  0  0  2  0  0  0  0  0  0
  192.2940  170.0940  135.6920 O   0  0  0  0  0  1  0  0  0  0  0  0
  192.6520  170.8770  134.5940 C   0  0  0  0  0  2  0  0  0  0  0  0
  183.8560  175.3260  137.5720 C   0  0  0  0  0  2  0  0  0  0  0  0
  182.4520  175.6370  138.0930 C   0  0  1  0  0  0  0  0  0  0  0  0
  181.6910  174.3090  138.2220 C   0  0  0  0  0  1  0  0  0  0  0  0
  182.9450  177.5200  139.5890 N   0  0  0  0  0  0  0  0  0  0  0  0
  182.6580  176.2630  139.4460 C   0  0  0  0  0  3  0  0  0  0  0  0
  182.2030  178.7250  141.5400 N   0  0  0  0  0  0  0  0  0  0  0  0
  183.1610  178.1600  140.8590 C   0  0  0  0  0  0  0  0  0  0  0  0
  184.8180  178.7370  142.6800 C   0  0  0  0  0  1  0  0  0  0  0  0
  184.4770  178.1190  141.4100 N   0  0  0  0  0  2  0  0  0  0  0  0
  180.7960  178.7670  141.1620 C   0  0  0  0  0  2  0  0  0  0  0  0
  179.8770  180.8820  140.4590 N   0  0  0  0  0  0  0  0  0  0  0  0
  180.5660  179.8420  140.1550 C   0  0  0  0  0  3  0  0  0  0  0  0
  180.5250  181.6890  138.2650 C   0  0  0  0  0  1  0  0  0  0  0  0
  179.6440  181.9070  139.4800 C   0  0  0  0  0  2  0  0  0  0  0  0
  181.8240  176.5430  137.1920 O   0  0  0  0  0  0  0  0  0  0  0  0
  180.8280  175.8920  136.4450 C   0  0  0  0  0  1  0  0  0  0  0  0
  1 36  1  6  0  0  0
  1  3  1  0  0  0  0
  1 18  1  0  0  0  0
  2 39  1  1  0  0  0
  3 16  1  1  0  0  0
  4 19  1  0  0  0  0
  6  7  1  0  0  0  0
  7  4  2  0  0  0  0
  7 16  1  0  0  0  0
  8 20  1  0  0  0  0
 10  3  1  0  0  0  0
 10  9  1  1  0  0  0
 11  5  1  1  0  0  0
 11 25  1  0  0  0  0
 11 12  1  0  0  0  0
 12 23  1  6  0  0  0
 14 25  1  0  0  0  0
 14  2  1  0  0  0  0
 15 28  1  6  0  0  0
 17 34  1  1  0  0  0
 17 15  1  0  0  0  0
 17  6  1  0  0  0  0
 19 13  1  6  0  0  0
 20 13  1  0  0  0  0
 21  8  1  1  0  0  0
 21 18  1  0  0  0  0
 21 19  1  0  0  0  0
 22  5  1  1  0  0  0
 22 24  1  0  0  0  0
 22 10  1  0  0  0  0
 23  2  1  0  0  0  0
 24 12  1  0  0  0  0
 24 15  1  0  0  0  0
 26 29  1  0  0  0  0
 26 31  1  0  0  0  0
 27 26  1  0  0  0  0
 28 27  1  0  0  0  0
 28 30  1  0  0  0  0
 30 26  1  0  0  0  0
 32 34  1  0  0  0  0
 33 34  1  0  0  0  0
 34 35  1  0  0  0  0
 38 36  1  0  0  0  0
 38 37  1  0  0  0  0
 39 40  1  0  0  0  0
 40 41  1  0  0  0  0
 40 43  1  0  0  0  0
 42 45  1  0  0  0  0
 43 42  2  0  0  0  0
 45 47  1  0  0  0  0
 45 44  2  0  0  0  0
 47 46  1  0  0  0  0
 48 44  1  0  0  0  0
 50 49  2  0  0  0  0
 50 48  1  0  0  0  0
 51 52  1  0  0  0  0
 52 49  1  0  0  0  0
 53 40  1  0  0  0  0
 54 53  1  0  0  0  0
M  END
>  <MODEL>
3

>  <REMARK>
 VINA RESULT:      -3.1      2.193      4.173
  Name = 
  12 active torsions:
  status: ('A' for Active; 'I' for Inactive)
    1  A    between atoms: C_1  and  C_3
    2  A    between atoms: C_2  and  C_18
    3  A    between atoms: C_3  and  C_35
    4  A    between atoms: C_4  and  O_17
    5  A    between atoms: C_4  and  C_18
    6  A    between atoms: C_4  and  C_36
    7  A    between atoms: N_7  and  C_24
    8  A    between atoms: N_11  and  C_25
    9  A    between atoms: N_19  and  C_53
   10  A    between atoms: C_24  and  C_48
   11  A    between atoms: C_28  and  C_31
   12  A    between atoms: C_34  and  C_50
                            x       y       z     vdW  Elec       q    Type
                         _______ _______ _______ _____ _____    ______ ____

>  <TORSDO>
F 12

$$$$
=
 OpenBabel11062412493D

 54 59  0  0  1  0  0  0  0  0999 V2000
  190.9100  172.9360  136.3060 C   0  0  2  0  0  3  0  0  0  0  0  0
  183.2700  176.2930  136.2130 C   0  0  2  0  0  3  0  0  0  0  0  0
  190.0390  174.1990  136.4440 C   0  0  1  0  0  3  0  0  0  0  0  0
  192.3300  176.2730  137.5180 N   0  0  0  0  0  0  0  0  0  0  0  0
  186.4960  173.6080  135.1270 C   0  0  0  0  0  2  0  0  0  0  0  0
  190.2680  177.4750  137.3110 C   0  0  0  0  0  2  0  0  0  0  0  0
  191.0390  176.2020  137.4570 C   0  0  0  0  0  0  0  0  0  0  0  0
  194.5600  173.6630  136.3840 C   0  0  0  0  0  2  0  0  0  0  0  0
  188.0220  173.7900  137.7640 O   0  0  0  0  0  1  0  0  0  0  0  0
  188.5700  173.7700  136.4760 C   0  0  1  0  0  3  0  0  0  0  0  0
  185.3170  174.5480  135.1020 C   0  0  2  0  0  3  0  0  0  0  0  0
  185.6590  175.5990  136.1150 C   0  0  2  0  0  3  0  0  0  0  0  0
  194.6270  175.5610  137.8690 C   0  0  0  0  0  2  0  0  0  0  0  0
  182.9050  175.0280  135.4000 C   0  0  0  0  0  2  0  0  0  0  0  0
  187.9070  176.5980  136.9700 C   0  0  2  0  0  3  0  0  0  0  0  0
  190.3750  174.9780  137.5950 O   0  0  0  0  0  0  0  0  0  0  0  0
  189.1030  177.3330  136.3360 C   0  0  1  0  0  3  0  0  0  0  0  0
  192.2630  172.9660  137.0200 C   0  0  0  0  0  2  0  0  0  0  0  0
  193.1870  175.1220  137.7580 C   0  0  2  0  0  3  0  0  0  0  0  0
  195.4270  174.3720  137.4060 C   0  0  0  0  0  2  0  0  0  0  0  0
  193.1360  174.1380  136.6020 C   0  0  1  0  0  3  0  0  0  0  0  0
  187.6990  174.4970  135.4430 C   0  0  2  0  0  3  0  0  0  0  0  0
  184.7040  176.7690  135.9180 C   0  0  0  0  0  2  0  0  0  0  0  0
  187.1230  175.8760  135.8550 C   0  0  1  0  0  3  0  0  0  0  0  0
  183.9810  173.9310  135.4800 C   0  0  0  0  0  2  0  0  0  0  0  0
  187.7290  177.9170  139.7650 C   0  0  0  0  0  0  0  0  0  0  0  0
  187.8560  178.6440  138.4620 C   0  0  0  0  0  2  0  0  0  0  0  0
  187.0650  177.4660  137.9310 C   0  0  2  0  0  3  0  0  0  0  0  0
  188.9580  177.4880  140.2690 O   0  0  0  0  0  1  0  0  0  0  0  0
  187.0010  176.8610  139.2050 O   0  0  0  0  0  0  0  0  0  0  0  0
  186.9820  178.6200  140.7130 O   0  0  0  0  0  1  0  0  0  0  0  0
  187.4580  178.6700  135.1960 F   0  0  0  0  0  0  0  0  0  0  0  0
  188.9100  179.6920  136.5690 F   0  0  0  0  0  0  0  0  0  0  0  0
  188.7610  178.6700  135.6570 C   0  0  0  0  0  0  0  0  0  0  0  0
  189.6200  178.9050  134.5960 F   0  0  0  0  0  0  0  0  0  0  0  0
  191.0850  172.5450  134.8410 C   0  0  0  0  0  2  0  0  0  0  0  0
  191.6840  170.2510  134.5970 O   0  0  0  0  0  1  0  0  0  0  0  0
  190.5960  171.1250  134.5960 C   0  0  0  0  0  2  0  0  0  0  0  0
  183.0930  176.0690  137.7180 C   0  0  0  0  0  2  0  0  0  0  0  0
  181.6490  176.2040  138.2070 C   0  0  1  0  0  0  0  0  0  0  0  0
  181.4980  175.3510  139.4740 C   0  0  0  0  0  1  0  0  0  0  0  0
  180.8080  178.0670  139.5660 N   0  0  0  0  0  0  0  0  0  0  0  0
  181.4720  177.6640  138.5270 C   0  0  0  0  0  3  0  0  0  0  0  0
  180.4130  179.8570  141.1320 N   0  0  0  0  0  0  0  0  0  0  0  0
  180.6030  179.4490  139.9080 C   0  0  0  0  0  0  0  0  0  0  0  0
  180.4670  181.8340  139.0760 C   0  0  0  0  0  1  0  0  0  0  0  0
  180.6660  180.4110  138.8550 N   0  0  0  0  0  2  0  0  0  0  0  0
  180.4170  179.0160  142.3220 C   0  0  0  0  0  2  0  0  0  0  0  0
  182.3450  179.7610  143.5640 N   0  0  0  0  0  0  0  0  0  0  0  0
  181.8080  178.8530  142.8310 C   0  0  0  0  0  3  0  0  0  0  0  0
  184.4620  178.6550  143.1430 C   0  0  0  0  0  1  0  0  0  0  0  0
  183.6910  179.6070  144.0380 C   0  0  0  0  0  2  0  0  0  0  0  0
  180.7760  175.7930  137.1610 O   0  0  0  0  0  0  0  0  0  0  0  0
  179.7480  174.9770  137.6630 C   0  0  0  0  0  1  0  0  0  0  0  0
  1 36  1  6  0  0  0
  1  3  1  0  0  0  0
  1 18  1  0  0  0  0
  2 39  1  1  0  0  0
  3 10  1  0  0  0  0
  3 16  1  1  0  0  0
  4 19  1  0  0  0  0
  6  7  1  0  0  0  0
  7  4  2  0  0  0  0
  7 16  1  0  0  0  0
  8 20  1  0  0  0  0
 10  9  1  1  0  0  0
 11  5  1  1  0  0  0
 11 25  1  0  0  0  0
 11 12  1  0  0  0  0
 12 23  1  6  0  0  0
 14 25  1  0  0  0  0
 14  2  1  0  0  0  0
 15 28  1  6  0  0  0
 17 34  1  1  0  0  0
 17 15  1  0  0  0  0
 17  6  1  0  0  0  0
 19 13  1  6  0  0  0
 20 13  1  0  0  0  0
 21  8  1  1  0  0  0
 21 18  1  0  0  0  0
 21 19  1  0  0  0  0
 22  5  1  1  0  0  0
 22 24  1  0  0  0  0
 22 10  1  0  0  0  0
 23  2  1  0  0  0  0
 24 12  1  0  0  0  0
 24 15  1  0  0  0  0
 26 29  1  0  0  0  0
 26 31  1  0  0  0  0
 27 26  1  0  0  0  0
 28 27  1  0  0  0  0
 28 30  1  0  0  0  0
 30 26  1  0  0  0  0
 32 34  1  0  0  0  0
 34 33  1  0  0  0  0
 35 34  1  0  0  0  0
 38 37  1  0  0  0  0
 38 36  1  0  0  0  0
 39 40  1  0  0  0  0
 40 43  1  0  0  0  0
 40 41  1  0  0  0  0
 42 45  1  0  0  0  0
 43 42  2  0  0  0  0
 44 48  1  0  0  0  0
 45 44  2  0  0  0  0
 47 46  1  0  0  0  0
 47 45  1  0  0  0  0
 48 50  1  0  0  0  0
 49 52  1  0  0  0  0
 50 49  2  0  0  0  0
 51 52  1  0  0  0  0
 53 54  1  0  0  0  0
 53 40  1  0  0  0  0
M  END
>  <MODEL>
4

>  <REMARK>
 VINA RESULT:      -2.8      2.328      3.686
  Name = 
  12 active torsions:
  status: ('A' for Active; 'I' for Inactive)
    1  A    between atoms: C_1  and  C_3
    2  A    between atoms: C_2  and  C_18
    3  A    between atoms: C_3  and  C_35
    4  A    between atoms: C_4  and  O_17
    5  A    between atoms: C_4  and  C_18
    6  A    between atoms: C_4  and  C_36
    7  A    between atoms: N_7  and  C_24
    8  A    between atoms: N_11  and  C_25
    9  A    between atoms: N_19  and  C_53
   10  A    between atoms: C_24  and  C_48
   11  A    between atoms: C_28  and  C_31
   12  A    between atoms: C_34  and  C_50
                            x       y       z     vdW  Elec       q    Type
                         _______ _______ _______ _____ _____    ______ ____

>  <TORSDO>
F 12

$$$$
=
 OpenBabel11062412493D

 54 59  0  0  1  0  0  0  0  0999 V2000
  190.2870  173.1600  136.4080 C   0  0  2  0  0  3  0  0  0  0  0  0
  182.2860  175.3600  135.5080 C   0  0  2  0  0  3  0  0  0  0  0  0
  189.2320  174.2820  136.4360 C   0  0  1  0  0  3  0  0  0  0  0  0
  191.0800  176.6750  137.6860 N   0  0  0  0  0  0  0  0  0  0  0  0
  185.9600  173.1720  134.7930 C   0  0  0  0  0  2  0  0  0  0  0  0
  188.8950  177.5620  137.2560 C   0  0  0  0  0  2  0  0  0  0  0  0
  189.8240  176.4150  137.5010 C   0  0  0  0  0  0  0  0  0  0  0  0
  193.7660  174.4150  136.8250 C   0  0  0  0  0  2  0  0  0  0  0  0
  187.1750  173.5890  137.5620 O   0  0  0  0  0  1  0  0  0  0  0  0
  187.8450  173.6420  136.3330 C   0  0  1  0  0  3  0  0  0  0  0  0
  184.6650  173.9280  134.6350 C   0  0  2  0  0  3  0  0  0  0  0  0
  184.7490  175.0230  135.6550 C   0  0  2  0  0  3  0  0  0  0  0  0
  193.4090  176.3100  138.2720 C   0  0  0  0  0  2  0  0  0  0  0  0
  182.1910  174.0510  134.6880 C   0  0  0  0  0  2  0  0  0  0  0  0
  186.7320  176.3460  136.7050 C   0  0  2  0  0  3  0  0  0  0  0  0
  189.3350  175.1080  137.5980 O   0  0  0  0  0  0  0  0  0  0  0  0
  187.8650  177.2450  136.1750 C   0  0  1  0  0  3  0  0  0  0  0  0
  191.5430  173.3920  137.2490 C   0  0  0  0  0  2  0  0  0  0  0  0
  192.0660  175.6640  138.0300 C   0  0  2  0  0  3  0  0  0  0  0  0
  194.4160  175.2490  137.9120 C   0  0  0  0  0  2  0  0  0  0  0  0
  192.2740  174.6770  136.8950 C   0  0  1  0  0  3  0  0  0  0  0  0
  186.9840  174.2290  135.2070 C   0  0  2  0  0  3  0  0  0  0  0  0
  183.6580  176.0390  135.3440 C   0  0  0  0  0  2  0  0  0  0  0  0
  186.1750  175.5110  135.5340 C   0  0  1  0  0  3  0  0  0  0  0  0
  183.4020  173.1240  134.8930 C   0  0  0  0  0  2  0  0  0  0  0  0
  186.2380  178.3480  139.0140 C   0  0  0  0  0  0  0  0  0  0  0  0
  185.9170  178.5830  137.5690 C   0  0  0  0  0  2  0  0  0  0  0  0
  185.6820  177.0860  137.5620 C   0  0  2  0  0  3  0  0  0  0  0  0
  187.5690  178.6280  139.3270 O   0  0  0  0  0  1  0  0  0  0  0  0
  186.0030  176.9710  138.9330 O   0  0  0  0  0  0  0  0  0  0  0  0
  185.3440  178.9790  139.8810 O   0  0  0  0  0  1  0  0  0  0  0  0
  187.1150  179.5260  136.3360 F   0  0  0  0  0  0  0  0  0  0  0  0
  188.4030  178.9380  134.5940 F   0  0  0  0  0  0  0  0  0  0  0  0
  187.4010  178.5130  135.4400 C   0  0  0  0  0  0  0  0  0  0  0  0
  186.2750  178.2450  134.6800 F   0  0  0  0  0  0  0  0  0  0  0  0
  190.6600  172.7920  134.9740 C   0  0  0  0  0  2  0  0  0  0  0  0
  192.3900  171.1880  134.6300 O   0  0  0  0  0  1  0  0  0  0  0  0
  191.0210  171.3170  134.8700 C   0  0  0  0  0  2  0  0  0  0  0  0
  181.9960  175.1210  136.9920 C   0  0  0  0  0  2  0  0  0  0  0  0
  180.6260  175.6240  137.4530 C   0  0  1  0  0  0  0  0  0  0  0  0
  179.9590  174.5040  138.2640 C   0  0  0  0  0  1  0  0  0  0  0  0
  180.1170  177.8360  138.3880 N   0  0  0  0  0  0  0  0  0  0  0  0
  180.9130  176.8140  138.3290 C   0  0  0  0  0  3  0  0  0  0  0  0
  180.8890  180.0930  138.7360 N   0  0  0  0  0  0  0  0  0  0  0  0
  180.3540  178.9980  139.2020 C   0  0  0  0  0  0  0  0  0  0  0  0
  180.1240  180.0630  141.4850 C   0  0  0  0  0  1  0  0  0  0  0  0
  179.9310  178.9540  140.5650 N   0  0  0  0  0  2  0  0  0  0  0  0
  181.2840  180.3290  137.3530 C   0  0  0  0  0  2  0  0  0  0  0  0
  179.6780  182.0870  136.9800 N   0  0  0  0  0  0  0  0  0  0  0  0
  180.9050  181.7090  136.9390 C   0  0  0  0  0  3  0  0  0  0  0  0
  180.4730  184.0780  135.8450 C   0  0  0  0  0  1  0  0  0  0  0  0
  179.3150  183.4130  136.5640 C   0  0  0  0  0  2  0  0  0  0  0  0
  179.8700  175.9960  136.3050 O   0  0  0  0  0  0  0  0  0  0  0  0
  178.9570  174.9850  135.9630 C   0  0  0  0  0  1  0  0  0  0  0  0
  1 36  1  6  0  0  0
  1  3  1  0  0  0  0
  1 18  1  0  0  0  0
  2 39  1  1  0  0  0
  3 16  1  1  0  0  0
  4 19  1  0  0  0  0
  6  7  1  0  0  0  0
  7 16  1  0  0  0  0
  7  4  2  0  0  0  0
  8 20  1  0  0  0  0
 10  3  1  0  0  0  0
 10  9  1  1  0  0  0
 11  5  1  1  0  0  0
 11 25  1  0  0  0  0
 11 12  1  0  0  0  0
 12 23  1  6  0  0  0
 14 25  1  0  0  0  0
 14  2  1  0  0  0  0
 15 28  1  6  0  0  0
 17 34  1  1  0  0  0
 17 15  1  0  0  0  0
 17  6  1  0  0  0  0
 19 13  1  6  0  0  0
 20 13  1  0  0  0  0
 21  8  1  1  0  0  0
 21 18  1  0  0  0  0
 21 19  1  0  0  0  0
 22  5  1  1  0  0  0
 22 24  1  0  0  0  0
 22 10  1  0  0  0  0
 23  2  1  0  0  0  0
 24 12  1  0  0  0  0
 24 15  1  0  0  0  0
 26 29  1  0  0  0  0
 26 31  1  0  0  0  0
 27 26  1  0  0  0  0
 28 27  1  0  0  0  0
 28 30  1  0  0  0  0
 30 26  1  0  0  0  0
 33 34  1  0  0  0  0
 34 32  1  0  0  0  0
 35 34  1  0  0  0  0
 37 38  1  0  0  0  0
 38 36  1  0  0  0  0
 39 40  1  0  0  0  0
 40 41  1  0  0  0  0
 40 43  1  0  0  0  0
 42 45  1  0  0  0  0
 43 42  2  0  0  0  0
 44 45  2  0  0  0  0
 45 47  1  0  0  0  0
 47 46  1  0  0  0  0
 48 44  1  0  0  0  0
 50 49  2  0  0  0  0
 50 48  1  0  0  0  0
 51 52  1  0  0  0  0
 52 49  1  0  0  0  0
 53 40  1  0  0  0  0
 54 53  1  0  0  0  0
M  END
>  <MODEL>
5

>  <REMARK>
 VINA RESULT:      -2.1      3.143      5.175
  Name = 
  12 active torsions:
  status: ('A' for Active; 'I' for Inactive)
    1  A    between atoms: C_1  and  C_3
    2  A    between atoms: C_2  and  C_18
    3  A    between atoms: C_3  and  C_35
    4  A    between atoms: C_4  and  O_17
    5  A    between atoms: C_4  and  C_18
    6  A    between atoms: C_4  and  C_36
    7  A    between atoms: N_7  and  C_24
    8  A    between atoms: N_11  and  C_25
    9  A    between atoms: N_19  and  C_53
   10  A    between atoms: C_24  and  C_48
   11  A    between atoms: C_28  and  C_31
   12  A    between atoms: C_34  and  C_50
                            x       y       z     vdW  Elec       q    Type
                         _______ _______ _______ _____ _____    ______ ____

>  <TORSDO>
F 12

$$$$
