=
 OpenBabel11062417423D

 39 41  0  0  1  0  0  0  0  0999 V2000
  185.1600  178.3730  139.3350 O   0  0  0  0  0  1  0  0  0  0  0  0
  182.1010  178.7690  141.2950 O   0  0  0  0  0  0  0  0  0  0  0  0
  183.0650  178.0910  140.4880 C   0  0  2  0  0  3  0  0  0  0  0  0
  181.3140  179.5560  143.3830 C   0  0  0  0  0  3  0  0  0  0  0  0
  182.2800  178.9760  142.6660 C   0  0  0  0  0  0  0  0  0  0  0  0
  180.0170  179.9670  142.7750 C   0  0  0  0  0  1  0  0  0  0  0  0
  184.5880  179.4400  142.7610 O   0  0  0  0  0  0  0  0  0  0  0  0
  185.1940  178.7300  141.7120 C   0  0  2  0  0  3  0  0  0  0  0  0
  186.6120  179.2530  141.5440 C   0  0  0  0  0  1  0  0  0  0  0  0
  184.3950  178.8700  140.3980 C   0  0  1  0  0  3  0  0  0  0  0  0
  183.6030  178.5950  143.2800 C   0  0  1  0  0  3  0  0  0  0  0  0
  182.0350  178.7230  138.3890 N   0  0  0  0  0  2  0  0  0  0  0  0
  182.4640  177.7820  139.1500 C   0  0  0  0  0  0  0  0  0  0  0  0
  182.3850  176.3550  138.7080 C   0  0  0  0  0  2  0  0  0  0  0  0
  183.6550  175.9110  137.9840 C   0  0  1  0  0  3  0  0  0  0  0  0
  183.7320  174.5180  137.9840 O   0  0  0  0  0  1  0  0  0  0  0  0
  183.7450  176.4510  136.5510 C   0  0  0  0  0  2  0  0  0  0  0  0
  185.0740  176.1360  135.8650 C   0  0  0  0  0  2  0  0  0  0  0  0
  187.4830  175.2660  137.1580 O   0  0  0  0  0  0  0  0  0  0  0  0
  187.3170  176.5050  136.9910 C   0  0  0  0  0  0  0  0  0  0  0  0
  186.1350  177.0050  136.3570 N   0  0  0  0  0  2  0  0  0  0  0  0
  188.3690  177.4560  137.4410 C   0  0  0  0  0  2  0  0  0  0  0  0
  188.5560  177.3460  138.9410 C   0  0  0  0  0  2  0  0  0  0  0  0
  191.8650  177.4890  140.5060 N   0  0  0  0  0  2  0  0  0  0  0  0
  189.8760  177.8250  139.3000 N   0  0  0  0  0  2  0  0  0  0  0  0
  190.6830  177.0740  140.1980 C   0  0  0  0  0  3  0  0  0  0  0  0
  183.6480  178.5940  144.8090 C   0  0  0  0  0  2  0  0  0  0  0  0
  184.9930  179.0920  145.3120 C   0  0  2  0  0  3  0  0  0  0  0  0
  185.7310  177.9840  145.9540 C   0  0  2  0  0  3  0  0  0  0  0  0
  185.0560  178.9590  146.7110 O   0  0  0  0  0  0  0  0  0  0  0  0
  187.1540  178.2830  145.9340 N   0  0  0  0  0  2  0  0  0  0  0  0
  189.7800  178.5160  144.3840 N   0  0  0  0  0  0  0  0  0  0  0  0
  189.1380  177.2710  147.8560 C   0  0  0  0  0  1  0  0  0  0  0  0
  190.9660  179.0300  143.7230 C   0  0  0  0  0  1  0  0  0  0  0  0
  189.2470  177.0580  146.3560 C   0  0  1  0  0  3  0  0  0  0  0  0
  187.8690  177.0350  145.6810 C   0  0  2  0  0  3  0  0  0  0  0  0
  189.3430  177.3500  143.6190 C   0  0  0  0  0  2  0  0  0  0  0  0
  190.1940  178.1000  145.7300 C   0  0  0  0  0  2  0  0  0  0  0  0
  188.0110  176.8210  144.1660 C   0  0  0  0  0  2  0  0  0  0  0  0
  2  5  1  0  0  0  0
  3 13  1  6  0  0  0
  3  2  1  0  0  0  0
  5 11  1  0  0  0  0
  5  4  2  0  0  0  0
  6  4  1  0  0  0  0
  7 11  1  0  0  0  0
  8  9  1  6  0  0  0
  8  7  1  0  0  0  0
 10  1  1  6  0  0  0
 10  3  1  0  0  0  0
 10  8  1  0  0  0  0
 11 27  1  1  0  0  0
 12 13  2  0  0  0  0
 14 13  1  0  0  0  0
 15 16  1  6  0  0  0
 15 14  1  0  0  0  0
 17 15  1  0  0  0  0
 18 21  1  0  0  0  0
 18 17  1  0  0  0  0
 20 19  2  0  0  0  0
 20 22  1  0  0  0  0
 21 20  1  0  0  0  0
 22 23  1  0  0  0  0
 23 25  1  0  0  0  0
 25 26  1  0  0  0  0
 26 24  2  0  0  0  0
 28 27  1  6  0  0  0
 28 29  1  0  0  0  0
 28 30  1  0  0  0  0
 29 31  1  1  0  0  0
 29 30  1  0  0  0  0
 32 38  1  0  0  0  0
 34 32  1  0  0  0  0
 35 33  1  1  0  0  0
 36 31  1  6  0  0  0
 36 35  1  0  0  0  0
 37 39  1  0  0  0  0
 37 32  1  0  0  0  0
 38 35  1  0  0  0  0
 39 36  1  0  0  0  0
M  END
>  <MODEL>
1

>  <REMARK>
 VINA RESULT:      -7.2      0.000      0.000
  Name = 
  13 active torsions:
  status: ('A' for Active; 'I' for Inactive)
    1  A    between atoms: C_2  and  C_15
    2  A    between atoms: C_2  and  C_36
    3  A    between atoms: C_6  and  C_27
    4  A    between atoms: C_6  and  N_38
    5  A    between atoms: C_8  and  C_29
    6  A    between atoms: C_9  and  C_11
    7  A    between atoms: C_9  and  C_34
    8  A    between atoms: C_11  and  C_29
    9  A    between atoms: N_18  and  C_20
   10  A    between atoms: N_18  and  C_32
   11  A    between atoms: C_21  and  C_27
   12  A    between atoms: C_30  and  C_34
   13  A    between atoms: C_30  and  N_35
                            x       y       z     vdW  Elec       q    Type
                         _______ _______ _______ _____ _____    ______ ____

>  <TORSDO>
F 13

$$$$
=
 OpenBabel11062417423D

 39 41  0  0  1  0  0  0  0  0999 V2000
  184.7640  177.9470  139.3250 O   0  0  0  0  0  1  0  0  0  0  0  0
  181.7930  178.5510  141.3660 O   0  0  0  0  0  0  0  0  0  0  0  0
  182.7270  177.7890  140.5990 C   0  0  2  0  0  3  0  0  0  0  0  0
  181.0940  179.5710  143.3830 C   0  0  0  0  0  3  0  0  0  0  0  0
  182.0330  178.9170  142.6940 C   0  0  0  0  0  0  0  0  0  0  0  0
  179.7670  179.9020  142.7930 C   0  0  0  0  0  1  0  0  0  0  0  0
  184.3370  179.4000  142.6280 O   0  0  0  0  0  0  0  0  0  0  0  0
  184.9020  178.5760  141.6420 C   0  0  2  0  0  3  0  0  0  0  0  0
  186.3050  179.0840  141.3480 C   0  0  0  0  0  1  0  0  0  0  0  0
  184.0430  178.5590  140.3580 C   0  0  1  0  0  3  0  0  0  0  0  0
  183.3860  178.6160  143.2860 C   0  0  1  0  0  3  0  0  0  0  0  0
  181.9360  176.0730  139.0840 N   0  0  0  0  0  2  0  0  0  0  0  0
  182.0690  177.3250  139.3340 C   0  0  0  0  0  0  0  0  0  0  0  0
  181.5560  178.3490  138.3720 C   0  0  0  0  0  2  0  0  0  0  0  0
  181.0340  177.7120  137.0850 C   0  0  1  0  0  3  0  0  0  0  0  0
  179.6640  177.9500  136.9660 O   0  0  0  0  0  1  0  0  0  0  0  0
  181.7720  178.2030  135.8330 C   0  0  0  0  0  2  0  0  0  0  0  0
  182.5900  177.1110  135.1430 C   0  0  0  0  0  2  0  0  0  0  0  0
  184.0760  175.1540  136.6230 O   0  0  0  0  0  0  0  0  0  0  0  0
  184.6830  176.1920  136.2390 C   0  0  0  0  0  0  0  0  0  0  0  0
  183.9980  177.2080  135.5010 N   0  0  0  0  0  2  0  0  0  0  0  0
  186.1320  176.3500  136.5420 C   0  0  0  0  0  2  0  0  0  0  0  0
  186.6810  177.5630  135.8170 C   0  0  0  0  0  2  0  0  0  0  0  0
  188.6650  178.9180  138.5820 N   0  0  0  0  0  2  0  0  0  0  0  0
  187.2090  178.5050  136.7840 N   0  0  0  0  0  2  0  0  0  0  0  0
  188.1800  178.0780  137.7310 C   0  0  0  0  0  3  0  0  0  0  0  0
  183.5010  178.7920  144.8010 C   0  0  0  0  0  2  0  0  0  0  0  0
  184.8970  179.2470  145.1900 C   0  0  2  0  0  3  0  0  0  0  0  0
  185.6280  178.1350  145.8310 C   0  0  2  0  0  3  0  0  0  0  0  0
  185.0500  179.1710  146.5870 O   0  0  0  0  0  0  0  0  0  0  0  0
  187.0580  178.3650  145.7020 N   0  0  0  0  0  2  0  0  0  0  0  0
  189.7930  178.4430  144.3350 N   0  0  0  0  0  0  0  0  0  0  0  0
  188.8320  177.1740  147.7230 C   0  0  0  0  0  1  0  0  0  0  0  0
  191.0540  178.8850  143.7670 C   0  0  0  0  0  1  0  0  0  0  0  0
  189.0270  176.9860  146.2290 C   0  0  1  0  0  3  0  0  0  0  0  0
  187.7000  177.0750  145.4640 C   0  0  2  0  0  3  0  0  0  0  0  0
  189.3280  177.3280  143.5120 C   0  0  0  0  0  2  0  0  0  0  0  0
  190.0840  177.9700  145.6940 C   0  0  0  0  0  2  0  0  0  0  0  0
  187.9290  176.8840  143.9570 C   0  0  0  0  0  2  0  0  0  0  0  0
  2  5  1  0  0  0  0
  3 13  1  6  0  0  0
  3  2  1  0  0  0  0
  5 11  1  0  0  0  0
  5  4  2  0  0  0  0
  6  4  1  0  0  0  0
  7 11  1  0  0  0  0
  8  9  1  6  0  0  0
  8  7  1  0  0  0  0
 10  1  1  6  0  0  0
 10  3  1  0  0  0  0
 10  8  1  0  0  0  0
 11 27  1  1  0  0  0
 12 13  2  0  0  0  0
 14 13  1  0  0  0  0
 15 16  1  6  0  0  0
 15 14  1  0  0  0  0
 17 15  1  0  0  0  0
 18 21  1  0  0  0  0
 18 17  1  0  0  0  0
 20 22  1  0  0  0  0
 20 19  2  0  0  0  0
 21 20  1  0  0  0  0
 23 22  1  0  0  0  0
 23 25  1  0  0  0  0
 25 26  1  0  0  0  0
 26 24  2  0  0  0  0
 28 27  1  1  0  0  0
 28 29  1  0  0  0  0
 28 30  1  0  0  0  0
 29 31  1  6  0  0  0
 29 30  1  0  0  0  0
 32 38  1  0  0  0  0
 34 32  1  0  0  0  0
 35 33  1  1  0  0  0
 36 31  1  6  0  0  0
 36 35  1  0  0  0  0
 37 39  1  0  0  0  0
 37 32  1  0  0  0  0
 38 35  1  0  0  0  0
 39 36  1  0  0  0  0
M  END
>  <MODEL>
2

>  <REMARK>
 VINA RESULT:      -6.9      1.383      2.018
  Name = 
  13 active torsions:
  status: ('A' for Active; 'I' for Inactive)
    1  A    between atoms: C_2  and  C_15
    2  A    between atoms: C_2  and  C_36
    3  A    between atoms: C_6  and  C_27
    4  A    between atoms: C_6  and  N_38
    5  A    between atoms: C_8  and  C_29
    6  A    between atoms: C_9  and  C_11
    7  A    between atoms: C_9  and  C_34
    8  A    between atoms: C_11  and  C_29
    9  A    between atoms: N_18  and  C_20
   10  A    between atoms: N_18  and  C_32
   11  A    between atoms: C_21  and  C_27
   12  A    between atoms: C_30  and  C_34
   13  A    between atoms: C_30  and  N_35
                            x       y       z     vdW  Elec       q    Type
                         _______ _______ _______ _____ _____    ______ ____

>  <TORSDO>
F 13

$$$$
=
 OpenBabel11062417423D

 39 41  0  0  1  0  0  0  0  0999 V2000
  179.4050  177.0250  142.4230 O   0  0  0  0  0  1  0  0  0  0  0  0
  181.2160  179.4570  140.3830 O   0  0  0  0  0  0  0  0  0  0  0  0
  181.0070  178.5440  141.4600 C   0  0  2  0  0  3  0  0  0  0  0  0
  181.8100  179.9370  138.1430 C   0  0  0  0  0  3  0  0  0  0  0  0
  181.5590  179.0340  139.0950 C   0  0  0  0  0  0  0  0  0  0  0  0
  181.7690  181.4010  138.4120 C   0  0  0  0  0  1  0  0  0  0  0  0
  180.2550  177.0830  138.8900 O   0  0  0  0  0  0  0  0  0  0  0  0
  180.1200  176.5420  140.1790 C   0  0  2  0  0  3  0  0  0  0  0  0
  179.0310  175.4810  140.1340 C   0  0  0  0  0  1  0  0  0  0  0  0
  179.7840  177.6330  141.2190 C   0  0  1  0  0  3  0  0  0  0  0  0
  181.5680  177.5540  138.8070 C   0  0  1  0  0  3  0  0  0  0  0  0
  180.2890  180.4120  142.8260 N   0  0  0  0  0  2  0  0  0  0  0  0
  180.9360  179.3060  142.7500 C   0  0  0  0  0  0  0  0  0  0  0  0
  181.6240  178.7460  143.9550 C   0  0  0  0  0  2  0  0  0  0  0  0
  183.0730  179.2190  144.0570 C   0  0  1  0  0  3  0  0  0  0  0  0
  183.4910  179.1680  145.3870 O   0  0  0  0  0  1  0  0  0  0  0  0
  184.0280  178.4140  143.1650 C   0  0  0  0  0  2  0  0  0  0  0  0
  185.4670  178.9260  143.1990 C   0  0  0  0  0  2  0  0  0  0  0  0
  187.7670  177.9430  141.7940 O   0  0  0  0  0  0  0  0  0  0  0  0
  187.5120  177.4500  142.9270 C   0  0  0  0  0  0  0  0  0  0  0  0
  186.3770  177.8940  143.6780 N   0  0  0  0  0  2  0  0  0  0  0  0
  188.4120  176.4110  143.4970 C   0  0  0  0  0  2  0  0  0  0  0  0
  189.8250  176.9500  143.5970 C   0  0  0  0  0  2  0  0  0  0  0  0
  191.8100  176.8080  146.6730 N   0  0  0  0  0  2  0  0  0  0  0  0
  190.1900  177.0880  144.9940 N   0  0  0  0  0  2  0  0  0  0  0  0
  191.4760  176.6710  145.4340 C   0  0  0  0  0  3  0  0  0  0  0  0
  182.2030  177.1420  137.4770 C   0  0  0  0  0  2  0  0  0  0  0  0
  183.6050  176.5970  137.6910 C   0  0  2  0  0  3  0  0  0  0  0  0
  184.5870  177.4430  136.9820 C   0  0  2  0  0  3  0  0  0  0  0  0
  184.1580  176.2100  136.4570 O   0  0  0  0  0  0  0  0  0  0  0  0
  185.8930  177.2820  137.6000 N   0  0  0  0  0  2  0  0  0  0  0  0
  188.7870  177.6990  138.4980 N   0  0  0  0  0  0  0  0  0  0  0  0
  187.2220  174.8240  136.6810 C   0  0  0  0  0  1  0  0  0  0  0  0
  189.9930  177.8240  139.2960 C   0  0  0  0  0  1  0  0  0  0  0  0
  187.9030  176.1810  136.7050 C   0  0  1  0  0  3  0  0  0  0  0  0
  186.8980  177.3290  136.5420 C   0  0  2  0  0  3  0  0  0  0  0  0
  188.9100  178.6500  137.3950 C   0  0  0  0  0  2  0  0  0  0  0  0
  188.7680  176.3280  137.9710 C   0  0  0  0  0  2  0  0  0  0  0  0
  187.6150  178.6870  136.5730 C   0  0  0  0  0  2  0  0  0  0  0  0
  2  3  1  0  0  0  0
  3 13  1  1  0  0  0
  4  6  1  0  0  0  0
  4  5  2  0  0  0  0
  5  2  1  0  0  0  0
  7  8  1  0  0  0  0
  8  9  1  6  0  0  0
  8 10  1  0  0  0  0
 10  3  1  0  0  0  0
 10  1  1  1  0  0  0
 11 27  1  6  0  0  0
 11  7  1  0  0  0  0
 11  5  1  0  0  0  0
 13 12  2  0  0  0  0
 13 14  1  0  0  0  0
 14 15  1  0  0  0  0
 15 16  1  1  0  0  0
 17 18  1  0  0  0  0
 17 15  1  0  0  0  0
 18 21  1  0  0  0  0
 19 20  2  0  0  0  0
 20 22  1  0  0  0  0
 20 21  1  0  0  0  0
 22 23  1  0  0  0  0
 23 25  1  0  0  0  0
 25 26  1  0  0  0  0
 26 24  2  0  0  0  0
 28 27  1  6  0  0  0
 29 31  1  1  0  0  0
 29 28  1  0  0  0  0
 30 29  1  0  0  0  0
 30 28  1  0  0  0  0
 32 34  1  0  0  0  0
 35 33  1  1  0  0  0
 35 38  1  0  0  0  0
 36 39  1  0  0  0  0
 36 35  1  0  0  0  0
 36 31  1  1  0  0  0
 37 32  1  0  0  0  0
 38 32  1  0  0  0  0
 39 37  1  0  0  0  0
M  END
>  <MODEL>
3

>  <REMARK>
 VINA RESULT:      -6.8      2.173      6.860
  Name = 
  13 active torsions:
  status: ('A' for Active; 'I' for Inactive)
    1  A    between atoms: C_2  and  C_15
    2  A    between atoms: C_2  and  C_36
    3  A    between atoms: C_6  and  C_27
    4  A    between atoms: C_6  and  N_38
    5  A    between atoms: C_8  and  C_29
    6  A    between atoms: C_9  and  C_11
    7  A    between atoms: C_9  and  C_34
    8  A    between atoms: C_11  and  C_29
    9  A    between atoms: N_18  and  C_20
   10  A    between atoms: N_18  and  C_32
   11  A    between atoms: C_21  and  C_27
   12  A    between atoms: C_30  and  C_34
   13  A    between atoms: C_30  and  N_35
                            x       y       z     vdW  Elec       q    Type
                         _______ _______ _______ _____ _____    ______ ____

>  <TORSDO>
F 13

$$$$
=
 OpenBabel11062417423D

 39 41  0  0  1  0  0  0  0  0999 V2000
  188.4720  178.2550  142.7030 O   0  0  0  0  0  1  0  0  0  0  0  0
  187.3940  177.4150  139.3140 O   0  0  0  0  0  0  0  0  0  0  0  0
  187.6590  178.2570  140.4360 C   0  0  2  0  0  3  0  0  0  0  0  0
  188.0840  176.2510  137.3730 C   0  0  0  0  0  3  0  0  0  0  0  0
  188.4000  176.9800  138.4460 C   0  0  0  0  0  0  0  0  0  0  0  0
  186.6740  175.9040  137.0410 C   0  0  0  0  0  1  0  0  0  0  0  0
  190.1680  176.5910  139.9530 O   0  0  0  0  0  0  0  0  0  0  0  0
  190.0080  177.4940  141.0170 C   0  0  2  0  0  3  0  0  0  0  0  0
  190.9270  177.0600  142.1480 C   0  0  0  0  0  1  0  0  0  0  0  0
  188.5400  177.5540  141.4920 C   0  0  1  0  0  3  0  0  0  0  0  0
  189.8320  177.2980  138.7950 C   0  0  1  0  0  3  0  0  0  0  0  0
  185.5500  179.4340  140.2500 N   0  0  0  0  0  2  0  0  0  0  0  0
  186.3630  178.7700  140.9890 C   0  0  0  0  0  0  0  0  0  0  0  0
  186.0250  178.4810  142.4180 C   0  0  0  0  0  2  0  0  0  0  0  0
  184.7410  179.1850  142.8540 C   0  0  1  0  0  3  0  0  0  0  0  0
  183.6640  178.3060  142.7450 O   0  0  0  0  0  1  0  0  0  0  0  0
  184.8260  179.7520  144.2770 C   0  0  0  0  0  2  0  0  0  0  0  0
  184.4840  178.7300  145.3610 C   0  0  0  0  0  2  0  0  0  0  0  0
  187.0010  177.4240  145.7890 O   0  0  0  0  0  0  0  0  0  0  0  0
  186.5900  178.2200  146.6780 C   0  0  0  0  0  0  0  0  0  0  0  0
  185.3400  178.8990  146.5270 N   0  0  0  0  0  2  0  0  0  0  0  0
  187.4230  178.4670  147.8860 C   0  0  0  0  0  2  0  0  0  0  0  0
  188.2710  177.2480  148.1870 C   0  0  0  0  0  2  0  0  0  0  0  0
  191.6390  176.9200  146.7860 N   0  0  0  0  0  2  0  0  0  0  0  0
  189.6590  177.5400  147.8880 N   0  0  0  0  0  2  0  0  0  0  0  0
  190.4090  176.6540  147.0670 C   0  0  0  0  0  3  0  0  0  0  0  0
  190.8580  177.0360  137.6910 C   0  0  0  0  0  2  0  0  0  0  0  0
  192.0890  176.3410  138.2470 C   0  0  2  0  0  3  0  0  0  0  0  0
  192.9250  175.8350  137.1390 C   0  0  2  0  0  3  0  0  0  0  0  0
  192.0790  174.9850  137.8740 O   0  0  0  0  0  0  0  0  0  0  0  0
  194.2940  175.6810  137.6040 N   0  0  0  0  0  2  0  0  0  0  0  0
  196.7350  175.2940  135.8020 N   0  0  0  0  0  0  0  0  0  0  0  0
  196.2090  174.3300  139.3810 C   0  0  0  0  0  1  0  0  0  0  0  0
  197.9270  175.5190  135.0050 C   0  0  0  0  0  1  0  0  0  0  0  0
  196.1140  174.0500  137.8910 C   0  0  1  0  0  3  0  0  0  0  0  0
  194.6990  174.3020  137.3510 C   0  0  2  0  0  3  0  0  0  0  0  0
  195.9840  174.2250  135.1450 C   0  0  0  0  0  2  0  0  0  0  0  0
  197.1890  174.8430  137.1230 C   0  0  0  0  0  2  0  0  0  0  0  0
  194.6350  174.0130  135.8440 C   0  0  0  0  0  2  0  0  0  0  0  0
  2  3  1  0  0  0  0
  3 13  1  1  0  0  0
  3 10  1  0  0  0  0
  4  5  2  0  0  0  0
  5 11  1  0  0  0  0
  5  2  1  0  0  0  0
  6  4  1  0  0  0  0
  7  8  1  0  0  0  0
  8 10  1  0  0  0  0
  8  9  1  1  0  0  0
 10  1  1  1  0  0  0
 11 27  1  6  0  0  0
 11  7  1  0  0  0  0
 12 13  2  0  0  0  0
 13 14  1  0  0  0  0
 14 15  1  0  0  0  0
 15 16  1  1  0  0  0
 15 17  1  0  0  0  0
 17 18  1  0  0  0  0
 18 21  1  0  0  0  0
 19 20  2  0  0  0  0
 20 22  1  0  0  0  0
 21 20  1  0  0  0  0
 22 23  1  0  0  0  0
 24 26  2  0  0  0  0
 25 23  1  0  0  0  0
 26 25  1  0  0  0  0
 28 27  1  6  0  0  0
 29 31  1  1  0  0  0
 29 30  1  0  0  0  0
 29 28  1  0  0  0  0
 30 28  1  0  0  0  0
 32 38  1  0  0  0  0
 34 32  1  0  0  0  0
 35 33  1  1  0  0  0
 36 31  1  6  0  0  0
 36 35  1  0  0  0  0
 37 32  1  0  0  0  0
 37 39  1  0  0  0  0
 38 35  1  0  0  0  0
 39 36  1  0  0  0  0
M  END
>  <MODEL>
4

>  <REMARK>
 VINA RESULT:      -6.8      3.922      8.915
  Name = 
  13 active torsions:
  status: ('A' for Active; 'I' for Inactive)
    1  A    between atoms: C_2  and  C_15
    2  A    between atoms: C_2  and  C_36
    3  A    between atoms: C_6  and  C_27
    4  A    between atoms: C_6  and  N_38
    5  A    between atoms: C_8  and  C_29
    6  A    between atoms: C_9  and  C_11
    7  A    between atoms: C_9  and  C_34
    8  A    between atoms: C_11  and  C_29
    9  A    between atoms: N_18  and  C_20
   10  A    between atoms: N_18  and  C_32
   11  A    between atoms: C_21  and  C_27
   12  A    between atoms: C_30  and  C_34
   13  A    between atoms: C_30  and  N_35
                            x       y       z     vdW  Elec       q    Type
                         _______ _______ _______ _____ _____    ______ ____

>  <TORSDO>
F 13

$$$$
=
 OpenBabel11062417423D

 39 41  0  0  1  0  0  0  0  0999 V2000
  188.4660  177.5750  138.1430 O   0  0  0  0  0  1  0  0  0  0  0  0
  184.8910  178.3320  138.1080 O   0  0  0  0  0  0  0  0  0  0  0  0
  186.0620  177.5200  138.0160 C   0  0  2  0  0  3  0  0  0  0  0  0
  183.2060  179.4230  139.3600 C   0  0  0  0  0  3  0  0  0  0  0  0
  184.3410  178.7200  139.3330 C   0  0  0  0  0  0  0  0  0  0  0  0
  182.4730  179.7870  138.1150 C   0  0  0  0  0  1  0  0  0  0  0  0
  186.2840  179.1200  140.6030 O   0  0  0  0  0  0  0  0  0  0  0  0
  187.2780  178.2540  140.1190 C   0  0  2  0  0  3  0  0  0  0  0  0
  188.6150  178.7040  140.6850 C   0  0  0  0  0  1  0  0  0  0  0  0
  187.3100  178.2370  138.5750 C   0  0  1  0  0  3  0  0  0  0  0  0
  185.0960  178.3860  140.5950 C   0  0  1  0  0  3  0  0  0  0  0  0
  186.5650  177.8690  135.6720 N   0  0  0  0  0  2  0  0  0  0  0  0
  186.2300  177.0500  136.6020 C   0  0  0  0  0  0  0  0  0  0  0  0
  186.0130  175.6020  136.2950 C   0  0  0  0  0  2  0  0  0  0  0  0
  187.0270  174.7090  137.0080 C   0  0  1  0  0  3  0  0  0  0  0  0
  186.4240  173.5000  137.3580 O   0  0  0  0  0  1  0  0  0  0  0  0
  188.2890  174.4540  136.1740 C   0  0  0  0  0  2  0  0  0  0  0  0
  189.3620  173.6620  136.9210 C   0  0  0  0  0  2  0  0  0  0  0  0
  190.9940  175.3150  138.6040 O   0  0  0  0  0  0  0  0  0  0  0  0
  191.4600  174.9720  137.4820 C   0  0  0  0  0  0  0  0  0  0  0  0
  190.6940  174.1520  136.5940 N   0  0  0  0  0  2  0  0  0  0  0  0
  192.8270  175.4100  137.0880 C   0  0  0  0  0  2  0  0  0  0  0  0
  193.8570  174.4540  137.6560 C   0  0  0  0  0  2  0  0  0  0  0  0
  197.4450  175.1890  137.5810 N   0  0  0  0  0  2  0  0  0  0  0  0
  195.1110  175.1570  137.8490 N   0  0  0  0  0  2  0  0  0  0  0  0
  196.3310  174.5590  137.4260 C   0  0  0  0  0  3  0  0  0  0  0  0
  184.3280  178.5930  141.9020 C   0  0  0  0  0  2  0  0  0  0  0  0
  185.2450  179.1230  142.9910 C   0  0  2  0  0  3  0  0  0  0  0  0
  185.4840  178.0720  144.0020 C   0  0  2  0  0  3  0  0  0  0  0  0
  184.5690  179.1170  144.2250 O   0  0  0  0  0  0  0  0  0  0  0  0
  186.7270  178.3540  144.7010 N   0  0  0  0  0  2  0  0  0  0  0  0
  189.7360  178.1830  144.1810 N   0  0  0  0  0  0  0  0  0  0  0  0
  187.8240  177.8360  147.3810 C   0  0  0  0  0  1  0  0  0  0  0  0
  191.1190  178.5110  143.8880 C   0  0  0  0  0  1  0  0  0  0  0  0
  188.4220  177.2590  146.1100 C   0  0  1  0  0  3  0  0  0  0  0  0
  187.3650  177.0780  145.0120 C   0  0  2  0  0  3  0  0  0  0  0  0
  189.4820  176.8670  143.5980 C   0  0  0  0  0  2  0  0  0  0  0  0
  189.6190  178.1090  145.6430 C   0  0  0  0  0  2  0  0  0  0  0  0
  188.0000  176.4970  143.7390 C   0  0  0  0  0  2  0  0  0  0  0  0
  2  5  1  0  0  0  0
  3 13  1  6  0  0  0
  3  2  1  0  0  0  0
  3 10  1  0  0  0  0
  5  4  2  0  0  0  0
  5 11  1  0  0  0  0
  6  4  1  0  0  0  0
  8  7  1  0  0  0  0
  8  9  1  1  0  0  0
 10  1  1  1  0  0  0
 10  8  1  0  0  0  0
 11  7  1  0  0  0  0
 11 27  1  1  0  0  0
 12 13  2  0  0  0  0
 14 13  1  0  0  0  0
 14 15  1  0  0  0  0
 15 16  1  6  0  0  0
 17 18  1  0  0  0  0
 17 15  1  0  0  0  0
 20 19  2  0  0  0  0
 21 18  1  0  0  0  0
 21 20  1  0  0  0  0
 22 20  1  0  0  0  0
 22 23  1  0  0  0  0
 23 25  1  0  0  0  0
 26 24  2  0  0  0  0
 26 25  1  0  0  0  0
 28 27  1  6  0  0  0
 28 29  1  0  0  0  0
 28 30  1  0  0  0  0
 29 30  1  0  0  0  0
 29 31  1  1  0  0  0
 32 38  1  0  0  0  0
 34 32  1  0  0  0  0
 35 33  1  1  0  0  0
 36 31  1  6  0  0  0
 36 35  1  0  0  0  0
 37 39  1  0  0  0  0
 37 32  1  0  0  0  0
 38 35  1  0  0  0  0
 39 36  1  0  0  0  0
M  END
>  <MODEL>
5

>  <REMARK>
 VINA RESULT:      -6.7      2.697      3.849
  Name = 
  13 active torsions:
  status: ('A' for Active; 'I' for Inactive)
    1  A    between atoms: C_2  and  C_15
    2  A    between atoms: C_2  and  C_36
    3  A    between atoms: C_6  and  C_27
    4  A    between atoms: C_6  and  N_38
    5  A    between atoms: C_8  and  C_29
    6  A    between atoms: C_9  and  C_11
    7  A    between atoms: C_9  and  C_34
    8  A    between atoms: C_11  and  C_29
    9  A    between atoms: N_18  and  C_20
   10  A    between atoms: N_18  and  C_32
   11  A    between atoms: C_21  and  C_27
   12  A    between atoms: C_30  and  C_34
   13  A    between atoms: C_30  and  N_35
                            x       y       z     vdW  Elec       q    Type
                         _______ _______ _______ _____ _____    ______ ____

>  <TORSDO>
F 13

$$$$
=
 OpenBabel11062417423D

 39 41  0  0  1  0  0  0  0  0999 V2000
  187.6590  177.6280  143.6130 O   0  0  0  0  0  1  0  0  0  0  0  0
  186.8960  178.2810  140.0990 O   0  0  0  0  0  0  0  0  0  0  0  0
  187.1470  178.5980  141.4690 C   0  0  2  0  0  3  0  0  0  0  0  0
  187.6350  177.7810  137.9080 C   0  0  0  0  0  3  0  0  0  0  0  0
  187.9240  178.0030  139.1930 C   0  0  0  0  0  0  0  0  0  0  0  0
  186.2410  177.8530  137.3870 C   0  0  0  0  0  1  0  0  0  0  0  0
  189.4070  176.7690  140.5450 O   0  0  0  0  0  0  0  0  0  0  0  0
  189.2570  177.2440  141.8580 C   0  0  2  0  0  3  0  0  0  0  0  0
  189.9470  176.2650  142.7960 C   0  0  0  0  0  1  0  0  0  0  0  0
  187.7680  177.4090  142.2340 C   0  0  1  0  0  3  0  0  0  0  0  0
  189.3330  177.8940  139.7190 C   0  0  1  0  0  3  0  0  0  0  0  0
  185.8430  180.2950  142.6050 N   0  0  0  0  0  2  0  0  0  0  0  0
  185.8870  179.1160  142.0970 C   0  0  0  0  0  0  0  0  0  0  0  0
  184.6760  178.2390  142.1100 C   0  0  0  0  0  2  0  0  0  0  0  0
  183.4420  178.9770  142.6270 C   0  0  1  0  0  3  0  0  0  0  0  0
  182.3710  178.7670  141.7590 O   0  0  0  0  0  1  0  0  0  0  0  0
  183.0590  178.5720  144.0560 C   0  0  0  0  0  2  0  0  0  0  0  0
  183.9170  179.2420  145.1290 C   0  0  0  0  0  2  0  0  0  0  0  0
  185.6810  179.6930  147.3450 O   0  0  0  0  0  0  0  0  0  0  0  0
  185.8770  178.6710  146.6320 C   0  0  0  0  0  0  0  0  0  0  0  0
  185.0360  178.3910  145.5090 N   0  0  0  0  0  2  0  0  0  0  0  0
  186.9840  177.7370  146.9750 C   0  0  0  0  0  2  0  0  0  0  0  0
  187.7340  178.2480  148.1890 C   0  0  0  0  0  2  0  0  0  0  0  0
  190.8210  176.7690  146.8840 N   0  0  0  0  0  2  0  0  0  0  0  0
  189.1320  177.8780  148.0840 N   0  0  0  0  0  2  0  0  0  0  0  0
  189.5750  177.0860  146.9890 C   0  0  0  0  0  3  0  0  0  0  0  0
  190.4350  177.8550  138.6590 C   0  0  0  0  0  2  0  0  0  0  0  0
  191.1200  176.4980  138.6390 C   0  0  2  0  0  3  0  0  0  0  0  0
  191.8110  176.3030  137.3480 C   0  0  2  0  0  3  0  0  0  0  0  0
  190.5680  175.7020  137.6180 O   0  0  0  0  0  0  0  0  0  0  0  0
  192.8730  175.3240  137.5170 N   0  0  0  0  0  2  0  0  0  0  0  0
  195.5530  173.8520  137.4790 N   0  0  0  0  0  0  0  0  0  0  0  0
  192.2280  172.8340  136.0900 C   0  0  0  0  0  1  0  0  0  0  0  0
  196.7350  173.1010  137.8620 C   0  0  0  0  0  1  0  0  0  0  0  0
  193.5690  173.5380  135.9740 C   0  0  1  0  0  3  0  0  0  0  0  0
  193.4420  175.0500  136.2000 C   0  0  2  0  0  3  0  0  0  0  0  0
  195.9720  174.7990  136.4480 C   0  0  0  0  0  2  0  0  0  0  0  0
  194.6050  172.8860  136.9100 C   0  0  0  0  0  2  0  0  0  0  0  0
  194.8120  175.7340  136.0790 C   0  0  0  0  0  2  0  0  0  0  0  0
  2  3  1  0  0  0  0
  3 13  1  1  0  0  0
  3 10  1  0  0  0  0
  4  5  2  0  0  0  0
  5 11  1  0  0  0  0
  5  2  1  0  0  0  0
  6  4  1  0  0  0  0
  7  8  1  0  0  0  0
  8 10  1  0  0  0  0
  8  9  1  1  0  0  0
 10  1  1  1  0  0  0
 11 27  1  6  0  0  0
 11  7  1  0  0  0  0
 13 14  1  0  0  0  0
 13 12  2  0  0  0  0
 14 15  1  0  0  0  0
 15 16  1  6  0  0  0
 15 17  1  0  0  0  0
 17 18  1  0  0  0  0
 18 21  1  0  0  0  0
 20 22  1  0  0  0  0
 20 19  2  0  0  0  0
 21 20  1  0  0  0  0
 22 23  1  0  0  0  0
 24 26  2  0  0  0  0
 25 23  1  0  0  0  0
 26 25  1  0  0  0  0
 28 27  1  6  0  0  0
 29 31  1  1  0  0  0
 29 30  1  0  0  0  0
 29 28  1  0  0  0  0
 30 28  1  0  0  0  0
 32 34  1  0  0  0  0
 35 33  1  1  0  0  0
 35 36  1  0  0  0  0
 35 38  1  0  0  0  0
 36 31  1  1  0  0  0
 37 32  1  0  0  0  0
 38 32  1  0  0  0  0
 39 36  1  0  0  0  0
 39 37  1  0  0  0  0
M  END
>  <MODEL>
6

>  <REMARK>
 VINA RESULT:      -6.7      3.467      8.558
  Name = 
  13 active torsions:
  status: ('A' for Active; 'I' for Inactive)
    1  A    between atoms: C_2  and  C_15
    2  A    between atoms: C_2  and  C_36
    3  A    between atoms: C_6  and  C_27
    4  A    between atoms: C_6  and  N_38
    5  A    between atoms: C_8  and  C_29
    6  A    between atoms: C_9  and  C_11
    7  A    between atoms: C_9  and  C_34
    8  A    between atoms: C_11  and  C_29
    9  A    between atoms: N_18  and  C_20
   10  A    between atoms: N_18  and  C_32
   11  A    between atoms: C_21  and  C_27
   12  A    between atoms: C_30  and  C_34
   13  A    between atoms: C_30  and  N_35
                            x       y       z     vdW  Elec       q    Type
                         _______ _______ _______ _____ _____    ______ ____

>  <TORSDO>
F 13

$$$$
=
 OpenBabel11062417423D

 39 41  0  0  1  0  0  0  0  0999 V2000
  183.9530  179.2570  141.3550 O   0  0  0  0  0  1  0  0  0  0  0  0
  185.4640  178.3310  138.1600 O   0  0  0  0  0  0  0  0  0  0  0  0
  184.8560  179.1910  139.1240 C   0  0  2  0  0  3  0  0  0  0  0  0
  187.3500  177.2400  137.2370 C   0  0  0  0  0  3  0  0  0  0  0  0
  186.8200  177.9930  138.2050 C   0  0  0  0  0  0  0  0  0  0  0  0
  186.5470  176.7660  136.0750 C   0  0  0  0  0  1  0  0  0  0  0  0
  187.1590  177.7630  140.5240 O   0  0  0  0  0  0  0  0  0  0  0  0
  186.2690  178.6450  141.1590 C   0  0  2  0  0  3  0  0  0  0  0  0
  186.2300  178.2930  142.6380 C   0  0  0  0  0  1  0  0  0  0  0  0
  184.8580  178.5690  140.5370 C   0  0  1  0  0  3  0  0  0  0  0  0
  187.6300  178.4390  139.3950 C   0  0  1  0  0  3  0  0  0  0  0  0
  183.0460  180.7730  138.8270 N   0  0  0  0  0  2  0  0  0  0  0  0
  183.4880  179.5820  138.6480 C   0  0  0  0  0  0  0  0  0  0  0  0
  182.6510  178.5590  137.9460 C   0  0  0  0  0  2  0  0  0  0  0  0
  181.2360  178.4910  138.5170 C   0  0  1  0  0  3  0  0  0  0  0  0
  180.3460  178.0890  137.5200 O   0  0  0  0  0  1  0  0  0  0  0  0
  181.1270  177.5650  139.7350 C   0  0  0  0  0  2  0  0  0  0  0  0
  180.0780  178.0160  140.7510 C   0  0  0  0  0  2  0  0  0  0  0  0
  180.6970  180.2430  142.4500 O   0  0  0  0  0  0  0  0  0  0  0  0
  180.8800  179.0820  142.9080 C   0  0  0  0  0  0  0  0  0  0  0  0
  180.5960  177.9290  142.1100 N   0  0  0  0  0  2  0  0  0  0  0  0
  181.3800  178.9110  144.2990 C   0  0  0  0  0  2  0  0  0  0  0  0
  182.8540  178.5610  144.2780 C   0  0  0  0  0  2  0  0  0  0  0  0
  185.2690  179.1910  146.9590 N   0  0  0  0  0  2  0  0  0  0  0  0
  183.5200  179.2100  145.3900 N   0  0  0  0  0  2  0  0  0  0  0  0
  184.6650  178.6070  145.9810 C   0  0  0  0  0  3  0  0  0  0  0  0
  189.1450  178.2750  139.2650 C   0  0  0  0  0  2  0  0  0  0  0  0
  189.6360  177.0930  140.0850 C   0  0  2  0  0  3  0  0  0  0  0  0
  190.7260  177.5220  140.9840 C   0  0  2  0  0  3  0  0  0  0  0  0
  190.9860  176.8340  139.7850 O   0  0  0  0  0  0  0  0  0  0  0  0
  190.8130  176.5990  142.1050 N   0  0  0  0  0  2  0  0  0  0  0  0
  189.3930  177.6460  144.6030 N   0  0  0  0  0  0  0  0  0  0  0  0
  191.9910  174.9730  144.2540 C   0  0  0  0  0  1  0  0  0  0  0  0
  188.4020  177.9320  145.6240 C   0  0  0  0  0  1  0  0  0  0  0  0
  191.5790  176.4230  144.4370 C   0  0  1  0  0  3  0  0  0  0  0  0
  191.6620  177.2110  143.1230 C   0  0  2  0  0  3  0  0  0  0  0  0
  190.2420  178.8310  144.4950 C   0  0  0  0  0  2  0  0  0  0  0  0
  190.1860  176.5100  145.0900 C   0  0  0  0  0  2  0  0  0  0  0  0
  191.2370  178.6720  143.3390 C   0  0  0  0  0  2  0  0  0  0  0  0
  2  5  1  0  0  0  0
  2  3  1  0  0  0  0
  3 13  1  6  0  0  0
  3 10  1  0  0  0  0
  4  5  2  0  0  0  0
  5 11  1  0  0  0  0
  6  4  1  0  0  0  0
  7  8  1  0  0  0  0
  8  9  1  1  0  0  0
 10  8  1  0  0  0  0
 10  1  1  1  0  0  0
 11 27  1  6  0  0  0
 11  7  1  0  0  0  0
 13 12  2  0  0  0  0
 14 15  1  0  0  0  0
 14 13  1  0  0  0  0
 15 16  1  6  0  0  0
 15 17  1  0  0  0  0
 17 18  1  0  0  0  0
 18 21  1  0  0  0  0
 19 20  2  0  0  0  0
 20 22  1  0  0  0  0
 21 20  1  0  0  0  0
 23 22  1  0  0  0  0
 23 25  1  0  0  0  0
 25 26  1  0  0  0  0
 26 24  2  0  0  0  0
 28 27  1  6  0  0  0
 28 29  1  0  0  0  0
 29 31  1  1  0  0  0
 30 28  1  0  0  0  0
 30 29  1  0  0  0  0
 32 38  1  0  0  0  0
 32 34  1  0  0  0  0
 35 33  1  6  0  0  0
 35 38  1  0  0  0  0
 36 31  1  6  0  0  0
 36 39  1  0  0  0  0
 36 35  1  0  0  0  0
 37 32  1  0  0  0  0
 39 37  1  0  0  0  0
M  END
>  <MODEL>
7

>  <REMARK>
 VINA RESULT:      -6.6      2.194      6.087
  Name = 
  13 active torsions:
  status: ('A' for Active; 'I' for Inactive)
    1  A    between atoms: C_2  and  C_15
    2  A    between atoms: C_2  and  C_36
    3  A    between atoms: C_6  and  C_27
    4  A    between atoms: C_6  and  N_38
    5  A    between atoms: C_8  and  C_29
    6  A    between atoms: C_9  and  C_11
    7  A    between atoms: C_9  and  C_34
    8  A    between atoms: C_11  and  C_29
    9  A    between atoms: N_18  and  C_20
   10  A    between atoms: N_18  and  C_32
   11  A    between atoms: C_21  and  C_27
   12  A    between atoms: C_30  and  C_34
   13  A    between atoms: C_30  and  N_35
                            x       y       z     vdW  Elec       q    Type
                         _______ _______ _______ _____ _____    ______ ____

>  <TORSDO>
F 13

$$$$
=
 OpenBabel11062417423D

 39 41  0  0  1  0  0  0  0  0999 V2000
  187.3300  178.5770  139.7750 O   0  0  0  0  0  1  0  0  0  0  0  0
  190.7390  177.2850  140.0270 O   0  0  0  0  0  0  0  0  0  0  0  0
  189.3260  177.3090  140.2310 C   0  0  2  0  0  3  0  0  0  0  0  0
  192.6470  176.7940  138.7180 C   0  0  0  0  0  3  0  0  0  0  0  0
  191.3180  176.8610  138.8270 C   0  0  0  0  0  0  0  0  0  0  0  0
  193.5520  177.1280  139.8540 C   0  0  0  0  0  1  0  0  0  0  0  0
  189.8090  177.7480  137.2510 O   0  0  0  0  0  0  0  0  0  0  0  0
  188.5450  177.7750  137.8620 C   0  0  2  0  0  3  0  0  0  0  0  0
  187.6240  178.6300  137.0050 C   0  0  0  0  0  1  0  0  0  0  0  0
  188.6240  178.3240  139.3030 C   0  0  1  0  0  3  0  0  0  0  0  0
  190.4100  176.5560  137.6630 C   0  0  1  0  0  3  0  0  0  0  0  0
  187.8510  177.3760  142.1520 N   0  0  0  0  0  2  0  0  0  0  0  0
  189.0370  177.5330  141.6850 C   0  0  0  0  0  0  0  0  0  0  0  0
  190.1610  177.9310  142.5890 C   0  0  0  0  0  2  0  0  0  0  0  0
  190.2230  177.0570  143.8410 C   0  0  1  0  0  3  0  0  0  0  0  0
  191.3710  176.2650  143.8030 O   0  0  0  0  0  1  0  0  0  0  0  0
  190.1780  177.8720  145.1400 C   0  0  0  0  0  2  0  0  0  0  0  0
  189.4440  177.1610  146.2770 C   0  0  0  0  0  2  0  0  0  0  0  0
  186.7620  176.9500  145.2820 O   0  0  0  0  0  0  0  0  0  0  0  0
  186.9880  177.7880  146.1980 C   0  0  0  0  0  0  0  0  0  0  0  0
  188.3050  177.9460  146.7340 N   0  0  0  0  0  2  0  0  0  0  0  0
  185.8690  178.6080  146.7380 C   0  0  0  0  0  2  0  0  0  0  0  0
  184.7220  178.6310  145.7470 C   0  0  0  0  0  2  0  0  0  0  0  0
  185.0650  179.5680  142.2230 N   0  0  0  0  0  2  0  0  0  0  0  0
  185.1220  179.3660  144.5630 N   0  0  0  0  0  2  0  0  0  0  0  0
  184.7250  178.9070  143.2770 C   0  0  0  0  0  3  0  0  0  0  0  0
  191.0690  175.8490  136.4770 C   0  0  0  0  0  2  0  0  0  0  0  0
  191.3370  174.3880  136.7960 C   0  0  2  0  0  3  0  0  0  0  0  0
  192.3430  173.8450  135.8610 C   0  0  2  0  0  3  0  0  0  0  0  0
  190.9700  173.5870  135.7000 O   0  0  0  0  0  0  0  0  0  0  0  0
  192.9880  172.6920  136.4690 N   0  0  0  0  0  2  0  0  0  0  0  0
  195.1440  173.9140  138.2610 N   0  0  0  0  0  0  0  0  0  0  0  0
  194.7090  170.3870  137.0830 C   0  0  0  0  0  1  0  0  0  0  0  0
  195.8550  174.4990  139.3830 C   0  0  0  0  0  1  0  0  0  0  0  0
  195.2380  171.8000  136.9110 C   0  0  1  0  0  3  0  0  0  0  0  0
  194.3580  172.6300  135.9670 C   0  0  2  0  0  3  0  0  0  0  0  0
  195.7030  174.5120  137.0500 C   0  0  0  0  0  2  0  0  0  0  0  0
  195.4330  172.4740  138.2830 C   0  0  0  0  0  2  0  0  0  0  0  0
  194.9160  174.0530  135.8160 C   0  0  0  0  0  2  0  0  0  0  0  0
  2  3  1  0  0  0  0
  3 13  1  1  0  0  0
  4  5  2  0  0  0  0
  4  6  1  0  0  0  0
  5  2  1  0  0  0  0
  7 11  1  0  0  0  0
  7  8  1  0  0  0  0
  8  9  1  6  0  0  0
  8 10  1  0  0  0  0
 10  1  1  1  0  0  0
 10  3  1  0  0  0  0
 11 27  1  6  0  0  0
 11  5  1  0  0  0  0
 13 12  2  0  0  0  0
 13 14  1  0  0  0  0
 14 15  1  0  0  0  0
 15 16  1  6  0  0  0
 15 17  1  0  0  0  0
 17 18  1  0  0  0  0
 18 21  1  0  0  0  0
 19 20  2  0  0  0  0
 20 21  1  0  0  0  0
 20 22  1  0  0  0  0
 23 22  1  0  0  0  0
 24 26  2  0  0  0  0
 25 23  1  0  0  0  0
 26 25  1  0  0  0  0
 28 27  1  6  0  0  0
 29 31  1  1  0  0  0
 29 28  1  0  0  0  0
 30 29  1  0  0  0  0
 30 28  1  0  0  0  0
 32 38  1  0  0  0  0
 32 34  1  0  0  0  0
 35 33  1  1  0  0  0
 35 38  1  0  0  0  0
 36 31  1  1  0  0  0
 36 35  1  0  0  0  0
 37 32  1  0  0  0  0
 39 36  1  0  0  0  0
 39 37  1  0  0  0  0
M  END
>  <MODEL>
8

>  <REMARK>
 VINA RESULT:      -6.5      4.174      9.773
  Name = 
  13 active torsions:
  status: ('A' for Active; 'I' for Inactive)
    1  A    between atoms: C_2  and  C_15
    2  A    between atoms: C_2  and  C_36
    3  A    between atoms: C_6  and  C_27
    4  A    between atoms: C_6  and  N_38
    5  A    between atoms: C_8  and  C_29
    6  A    between atoms: C_9  and  C_11
    7  A    between atoms: C_9  and  C_34
    8  A    between atoms: C_11  and  C_29
    9  A    between atoms: N_18  and  C_20
   10  A    between atoms: N_18  and  C_32
   11  A    between atoms: C_21  and  C_27
   12  A    between atoms: C_30  and  C_34
   13  A    between atoms: C_30  and  N_35
                            x       y       z     vdW  Elec       q    Type
                         _______ _______ _______ _____ _____    ______ ____

>  <TORSDO>
F 13

$$$$
=
 OpenBabel11062417423D

 39 41  0  0  1  0  0  0  0  0999 V2000
  187.0910  178.6270  139.6300 O   0  0  0  0  0  1  0  0  0  0  0  0
  190.4820  177.2990  139.9260 O   0  0  0  0  0  0  0  0  0  0  0  0
  189.0690  177.3450  140.1220 C   0  0  2  0  0  3  0  0  0  0  0  0
  192.3900  176.7570  138.6370 C   0  0  0  0  0  3  0  0  0  0  0  0
  191.0620  176.8420  138.7380 C   0  0  0  0  0  0  0  0  0  0  0  0
  193.2940  177.1030  139.7700 C   0  0  0  0  0  1  0  0  0  0  0  0
  189.5710  177.7150  137.1360 O   0  0  0  0  0  0  0  0  0  0  0  0
  188.3040  177.7700  137.7400 C   0  0  2  0  0  3  0  0  0  0  0  0
  187.3990  178.6180  136.8610 C   0  0  0  0  0  1  0  0  0  0  0  0
  188.3840  178.3490  139.1700 C   0  0  1  0  0  3  0  0  0  0  0  0
  190.1550  176.5240  137.5760 C   0  0  1  0  0  3  0  0  0  0  0  0
  187.5810  177.5030  142.0270 N   0  0  0  0  0  2  0  0  0  0  0  0
  188.7760  177.6040  141.5700 C   0  0  0  0  0  0  0  0  0  0  0  0
  189.9070  177.9680  142.4780 C   0  0  0  0  0  2  0  0  0  0  0  0
  190.2420  176.8410  143.4540 C   0  0  1  0  0  3  0  0  0  0  0  0
  190.1450  175.6120  142.8020 O   0  0  0  0  0  1  0  0  0  0  0  0
  191.6260  176.9980  144.0960 C   0  0  0  0  0  2  0  0  0  0  0  0
  191.6740  176.5500  145.5560 C   0  0  0  0  0  2  0  0  0  0  0  0
  191.6730  177.1850  148.3530 O   0  0  0  0  0  0  0  0  0  0  0  0
  190.6120  177.3880  147.7010 C   0  0  0  0  0  0  0  0  0  0  0  0
  190.5450  177.0870  146.3040 N   0  0  0  0  0  2  0  0  0  0  0  0
  189.4240  177.9620  148.3900 C   0  0  0  0  0  2  0  0  0  0  0  0
  188.1710  177.2310  147.9510 C   0  0  0  0  0  2  0  0  0  0  0  0
  185.1770  179.0240  146.8360 N   0  0  0  0  0  2  0  0  0  0  0  0
  187.0500  178.1510  147.9550 N   0  0  0  0  0  2  0  0  0  0  0  0
  186.1840  178.2180  146.8280 C   0  0  0  0  0  3  0  0  0  0  0  0
  190.8100  175.7840  136.4080 C   0  0  0  0  0  2  0  0  0  0  0  0
  191.1040  174.3400  136.7780 C   0  0  2  0  0  3  0  0  0  0  0  0
  192.0160  173.7410  135.7810 C   0  0  2  0  0  3  0  0  0  0  0  0
  190.6330  173.4850  135.7650 O   0  0  0  0  0  0  0  0  0  0  0  0
  192.7130  172.6170  136.3850 N   0  0  0  0  0  2  0  0  0  0  0  0
  195.0170  173.7650  138.0350 N   0  0  0  0  0  0  0  0  0  0  0  0
  194.4280  170.2690  136.8320 C   0  0  0  0  0  1  0  0  0  0  0  0
  195.8190  174.3170  139.1120 C   0  0  0  0  0  1  0  0  0  0  0  0
  194.9710  171.6760  136.6460 C   0  0  1  0  0  3  0  0  0  0  0  0
  194.0410  172.5380  135.7840 C   0  0  2  0  0  3  0  0  0  0  0  0
  195.4980  174.3750  136.7970 C   0  0  0  0  0  2  0  0  0  0  0  0
  195.2780  172.3210  138.0110 C   0  0  0  0  0  2  0  0  0  0  0  0
  194.6140  173.9540  135.6160 C   0  0  0  0  0  2  0  0  0  0  0  0
  2  3  1  0  0  0  0
  3 13  1  1  0  0  0
  4  5  2  0  0  0  0
  4  6  1  0  0  0  0
  5  2  1  0  0  0  0
  7 11  1  0  0  0  0
  7  8  1  0  0  0  0
  8  9  1  6  0  0  0
  8 10  1  0  0  0  0
 10  1  1  1  0  0  0
 10  3  1  0  0  0  0
 11 27  1  6  0  0  0
 11  5  1  0  0  0  0
 13 12  2  0  0  0  0
 13 14  1  0  0  0  0
 14 15  1  0  0  0  0
 15 16  1  6  0  0  0
 15 17  1  0  0  0  0
 17 18  1  0  0  0  0
 18 21  1  0  0  0  0
 20 19  2  0  0  0  0
 20 22  1  0  0  0  0
 21 20  1  0  0  0  0
 23 25  1  0  0  0  0
 23 22  1  0  0  0  0
 26 24  2  0  0  0  0
 26 25  1  0  0  0  0
 28 27  1  6  0  0  0
 29 31  1  1  0  0  0
 29 28  1  0  0  0  0
 30 29  1  0  0  0  0
 30 28  1  0  0  0  0
 32 34  1  0  0  0  0
 35 33  1  1  0  0  0
 35 38  1  0  0  0  0
 36 31  1  1  0  0  0
 36 35  1  0  0  0  0
 37 32  1  0  0  0  0
 38 32  1  0  0  0  0
 39 36  1  0  0  0  0
 39 37  1  0  0  0  0
M  END
>  <MODEL>
9

>  <REMARK>
 VINA RESULT:      -6.4      4.224     10.025
  Name = 
  13 active torsions:
  status: ('A' for Active; 'I' for Inactive)
    1  A    between atoms: C_2  and  C_15
    2  A    between atoms: C_2  and  C_36
    3  A    between atoms: C_6  and  C_27
    4  A    between atoms: C_6  and  N_38
    5  A    between atoms: C_8  and  C_29
    6  A    between atoms: C_9  and  C_11
    7  A    between atoms: C_9  and  C_34
    8  A    between atoms: C_11  and  C_29
    9  A    between atoms: N_18  and  C_20
   10  A    between atoms: N_18  and  C_32
   11  A    between atoms: C_21  and  C_27
   12  A    between atoms: C_30  and  C_34
   13  A    between atoms: C_30  and  N_35
                            x       y       z     vdW  Elec       q    Type
                         _______ _______ _______ _____ _____    ______ ____

>  <TORSDO>
F 13

$$$$
