=
 OpenBabel11062418073D

 63 67  0  0  1  0  0  0  0  0999 V2000
  181.8050  177.1750  139.4510 C   0  0  1  0  0  0  0  0  0  0  0  0
  180.5340  177.5530  140.2510 C   0  0  1  0  0  3  0  0  0  0  0  0
  180.8510  176.1070  139.9840 C   0  0  0  0  0  2  0  0  0  0  0  0
  181.7890  177.1660  137.8650 C   0  0  2  0  0  0  0  0  0  0  0  0
  183.0720  177.5470  137.4310 O   0  0  0  0  0  1  0  0  0  0  0  0
  180.7900  178.2260  137.2530 C   0  0  2  0  0  0  0  0  0  0  0  0
  179.3700  177.9920  137.7900 C   0  0  0  0  0  1  0  0  0  0  0  0
  180.9860  179.3400  135.0900 O   0  0  0  0  0  0  0  0  0  0  0  0
  180.8640  178.1050  135.7000 C   0  0  0  0  0  3  0  0  0  0  0  0
  179.7950  178.7140  135.0630 O   0  0  0  0  0  0  0  0  0  0  0  0
  181.2430  179.5360  137.6460 O   0  0  0  0  0  0  0  0  0  0  0  0
  180.4660  180.5490  138.2390 C   0  0  0  0  0  0  0  0  0  0  0  0
  180.6720  180.9170  139.4240 O   0  0  0  0  0  0  0  0  0  0  0  0
  179.4520  181.1700  137.5110 O   0  0  0  0  0  0  0  0  0  0  0  0
  179.6280  182.4470  136.9090 C   0  0  0  0  0  2  0  0  0  0  0  0
  181.1010  182.7150  136.6690 C   0  0  0  0  0  1  0  0  0  0  0  0
  181.5910  175.7210  137.2950 C   0  0  2  0  0  3  0  0  0  0  0  0
  180.1720  175.1130  137.3650 C   0  0  2  0  0  3  0  0  0  0  0  0
  180.1480  173.7540  138.0380 C   0  0  0  0  0  1  0  0  0  0  0  0
  179.6430  174.9700  136.0980 F   0  0  0  0  0  0  0  0  0  0  0  0
  182.5590  174.8530  137.8280 O   0  0  0  0  0  0  0  0  0  0  0  0
  184.7340  174.1490  137.0790 C   0  0  0  0  0  2  0  0  0  0  0  0
  183.6050  172.1480  135.5730 N   0  0  0  0  0  0  0  0  0  0  0  0
  184.6440  172.8980  134.8600 C   0  0  0  0  0  2  0  0  0  0  0  0
  183.2660  174.3690  136.7200 C   0  0  1  0  0  3  0  0  0  0  0  0
  182.6350  173.0560  136.2160 C   0  0  0  0  0  2  0  0  0  0  0  0
  185.5250  173.6650  135.8540 C   0  0  0  0  0  2  0  0  0  0  0  0
  182.9080  171.2550  134.6430 C   0  0  0  0  0  2  0  0  0  0  0  0
  181.3970  171.4680  134.5940 C   0  0  0  0  0  2  0  0  0  0  0  0
  180.7490  170.4600  135.3090 O   0  0  0  0  0  1  0  0  0  0  0  0
  179.8290  178.0770  142.4360 O   0  0  0  0  0  0  0  0  0  0  0  0
  180.7680  177.7910  141.7080 C   0  0  0  0  0  3  0  0  0  0  0  0
  183.0230  177.0550  140.1630 O   0  0  0  0  0  0  0  0  0  0  0  0
  183.6500  179.2250  139.8400 O   0  0  0  0  0  1  0  0  0  0  0  0
  183.3680  178.2610  140.8210 C   0  0  2  0  0  3  0  0  0  0  0  0
  184.4900  178.1050  141.6540 O   0  0  0  0  0  0  0  0  0  0  0  0
  184.3870  179.1030  142.6310 C   0  0  0  0  0  2  0  0  0  0  0  0
  185.5280  179.0040  143.6330 C   0  0  0  0  0  2  0  0  0  0  0  0
  185.0750  179.4220  145.0190 C   0  0  0  0  0  2  0  0  0  0  0  0
  185.1000  178.4160  147.1730 O   0  0  0  0  0  0  0  0  0  0  0  0
  185.6230  178.4730  146.0300 C   0  0  0  0  0  0  0  0  0  0  0  0
  186.7130  177.6600  145.7120 O   0  0  0  0  0  0  0  0  0  0  0  0
  187.2030  177.5810  144.3790 C   0  0  0  0  0  2  0  0  0  0  0  0
  188.1890  176.5930  144.2820 O   0  0  0  0  0  0  0  0  0  0  0  0
  189.4160  177.2220  144.5440 C   0  0  1  0  0  3  0  0  0  0  0  0
  189.4370  176.7470  147.0020 O   0  0  0  0  0  0  0  0  0  0  0  0
  191.6490  177.1980  146.9040 O   0  0  0  0  0  0  0  0  0  0  0  0
  190.0800  176.6430  145.8100 C   0  0  1  0  0  0  0  0  0  0  0  0
  191.4850  176.2050  145.9250 C   0  0  0  0  0  2  0  0  0  0  0  0
  190.3880  177.7130  146.7250 N   0  0  1  0  0  0  0  0  0  0  0  0
  190.3110  177.1980  143.2920 C   0  0  1  0  0  3  0  0  0  0  0  0
  190.0750  175.7270  141.4610 O   0  0  0  0  0  0  0  0  0  0  0  0
  189.6060  176.6860  142.0620 C   0  0  0  0  0  0  0  0  0  0  0  0
  188.3780  177.3710  141.5350 C   0  0  0  0  0  2  0  0  0  0  0  0
  188.7210  178.6250  140.7410 C   0  0  0  0  0  2  0  0  0  0  0  0
  188.8340  178.3150  139.2580 C   0  0  0  0  0  2  0  0  0  0  0  0
  187.5960  178.5190  138.6500 O   0  0  0  0  0  0  0  0  0  0  0  0
  189.2690  177.9360  137.0670 C   0  0  0  0  0  1  0  0  0  0  0  0
  187.8410  178.3910  137.2790 C   0  0  0  0  0  2  0  0  0  0  0  0
  190.8620  178.4900  143.0550 O   0  0  0  0  0  0  0  0  0  0  0  0
  191.5420  179.2040  144.0480 C   0  0  0  0  0  0  0  0  0  0  0  0
  192.7130  178.8620  144.3640 O   0  0  0  0  0  0  0  0  0  0  0  0
  190.9170  180.3780  144.7300 C   0  0  0  0  0  1  0  0  0  0  0  0
  1  3  1  0  0  0  0
  1 33  1  1  0  0  0
  1  2  1  0  0  0  0
  2 32  1  1  0  0  0
  3  2  1  0  0  0  0
  4  5  1  6  0  0  0
  4  1  1  0  0  0  0
  6 11  1  0  0  0  0
  6  7  1  1  0  0  0
  6  4  1  0  0  0  0
  8  9  1  0  0  0  0
  9  6  1  0  0  0  0
 10  8  1  0  0  0  0
 10  9  1  0  0  0  0
 11 12  1  0  0  0  0
 12 13  2  0  0  0  0
 14 12  1  0  0  0  0
 15 14  1  0  0  0  0
 16 15  1  0  0  0  0
 17 18  1  0  0  0  0
 17 21  1  1  0  0  0
 17  4  1  0  0  0  0
 18 19  1  6  0  0  0
 20 18  1  0  0  0  0
 23 26  1  0  0  0  0
 24 23  1  0  0  0  0
 24 27  1  0  0  0  0
 25 22  1  0  0  0  0
 25 21  1  1  0  0  0
 26 25  1  0  0  0  0
 27 22  1  0  0  0  0
 28 23  1  0  0  0  0
 29 28  1  0  0  0  0
 29 30  1  0  0  0  0
 32 31  2  0  0  0  0
 33 35  1  0  0  0  0
 35 34  1  6  0  0  0
 35 36  1  0  0  0  0
 36 37  1  0  0  0  0
 37 38  1  0  0  0  0
 38 39  1  0  0  0  0
 39 41  1  0  0  0  0
 41 40  2  0  0  0  0
 42 41  1  0  0  0  0
 43 42  1  0  0  0  0
 44 43  1  0  0  0  0
 45 44  1  6  0  0  0
 48 45  1  6  0  0  0
 48 49  1  0  0  0  0
 48 50  1  0  0  0  0
 48 46  1  0  0  0  0
 49 47  1  0  0  0  0
 50 47  1  1  0  0  0
 50 46  1  0  0  0  0
 51 53  1  6  0  0  0
 51 45  1  0  0  0  0
 52 53  2  0  0  0  0
 54 53  1  0  0  0  0
 55 54  1  0  0  0  0
 56 55  1  0  0  0  0
 57 56  1  0  0  0  0
 58 59  1  0  0  0  0
 59 57  1  0  0  0  0
 60 51  1  0  0  0  0
 60 61  1  0  0  0  0
 61 62  2  0  0  0  0
 61 63  1  0  0  0  0
M  END
>  <MODEL>
1

>  <REMARK>
 VINA RESULT:      -4.2      0.000      0.000
  Name = 
  35 active torsions:
  status: ('A' for Active; 'I' for Inactive)
    1  A    between atoms: C_1  and  O_8
    2  A    between atoms: C_3  and  C_17
    3  A    between atoms: C_3  and  C_29
    4  A    between atoms: C_3  and  C_57
    5  A    between atoms: C_6  and  C_23
    6  A    between atoms: C_6  and  C_60
    7  A    between atoms: C_7  and  O_8
    8  A    between atoms: C_7  and  O_42
    9  A    between atoms: C_10  and  C_57
   10  A    between atoms: O_15  and  C_47
   11  A    between atoms: O_15  and  C_57
   12  A    between atoms: C_16  and  C_48
   13  A    between atoms: C_17  and  C_31
   14  A    between atoms: C_17  and  O_42
   15  A    between atoms: O_18  and  C_24
   16  A    between atoms: O_18  and  C_32
   17  A    between atoms: C_19  and  O_28
   18  A    between atoms: C_19  and  C_48
   19  A    between atoms: C_19  and  C_61
   20  A    between atoms: C_20  and  C_32
   21  A    between atoms: C_20  and  C_43
   22  A    between atoms: O_21  and  C_36
   23  A    between atoms: O_21  and  C_59
   24  A    between atoms: C_23  and  C_61
   25  A    between atoms: C_24  and  O_30
   26  A    between atoms: N_25  and  C_44
   27  A    between atoms: C_27  and  C_44
   28  A    between atoms: O_28  and  C_33
   29  A    between atoms: C_29  and  O_41
   30  A    between atoms: O_30  and  C_48
   31  A    between atoms: C_36  and  C_43
   32  A    between atoms: O_37  and  C_38
   33  A    between atoms: O_37  and  C_60
   34  A    between atoms: C_39  and  C_45
   35  A    between atoms: O_41  and  C_59
                            x       y       z     vdW  Elec       q    Type
                         _______ _______ _______ _____ _____    ______ ____

>  <TORSDO>
F 35

$$$$
=
 OpenBabel11062418073D

 63 67  0  0  1  0  0  0  0  0999 V2000
  181.9820  177.1230  139.5640 C   0  0  1  0  0  0  0  0  0  0  0  0
  180.7480  177.6890  140.3100 C   0  0  1  0  0  3  0  0  0  0  0  0
  180.9300  176.2010  140.1810 C   0  0  0  0  0  2  0  0  0  0  0  0
  181.9700  176.9690  137.9850 C   0  0  2  0  0  0  0  0  0  0  0  0
  183.3020  177.0740  137.5450 O   0  0  0  0  0  1  0  0  0  0  0  0
  181.1790  178.1280  137.2580 C   0  0  2  0  0  0  0  0  0  0  0  0
  179.7400  178.2040  137.7890 C   0  0  0  0  0  1  0  0  0  0  0  0
  182.5130  177.9750  135.2200 O   0  0  0  0  0  0  0  0  0  0  0  0
  181.2320  177.8480  135.7260 C   0  0  0  0  0  3  0  0  0  0  0  0
  181.6210  178.9570  134.9910 O   0  0  0  0  0  0  0  0  0  0  0  0
  181.8600  179.3670  137.5360 O   0  0  0  0  0  0  0  0  0  0  0  0
  181.2640  180.5870  137.9060 C   0  0  0  0  0  0  0  0  0  0  0  0
  181.2050  180.9430  139.1100 O   0  0  0  0  0  0  0  0  0  0  0  0
  180.7310  181.4290  136.9300 O   0  0  0  0  0  0  0  0  0  0  0  0
  180.4220  182.7910  137.1960 C   0  0  0  0  0  2  0  0  0  0  0  0
  180.9280  183.6720  136.0710 C   0  0  0  0  0  1  0  0  0  0  0  0
  181.5200  175.5340  137.5450 C   0  0  2  0  0  3  0  0  0  0  0  0
  180.0190  175.1870  137.6690 C   0  0  2  0  0  3  0  0  0  0  0  0
  179.7820  173.8110  138.2610 C   0  0  0  0  0  1  0  0  0  0  0  0
  179.4080  175.2300  136.4320 F   0  0  0  0  0  0  0  0  0  0  0  0
  182.3340  174.5640  138.1520 O   0  0  0  0  0  0  0  0  0  0  0  0
  182.3360  174.3060  135.7600 C   0  0  0  0  0  2  0  0  0  0  0  0
  185.0790  174.1540  135.7450 N   0  0  0  0  0  0  0  0  0  0  0  0
  184.4350  173.1380  134.9070 C   0  0  0  0  0  2  0  0  0  0  0  0
  182.9620  173.8970  137.0920 C   0  0  1  0  0  3  0  0  0  0  0  0
  184.4730  174.2010  137.0900 C   0  0  0  0  0  2  0  0  0  0  0  0
  182.9870  173.5400  134.5980 C   0  0  0  0  0  2  0  0  0  0  0  0
  186.5130  173.8720  135.8560 C   0  0  0  0  0  2  0  0  0  0  0  0
  187.3190  174.2650  134.6210 C   0  0  0  0  0  2  0  0  0  0  0  0
  188.6270  173.7900  134.7340 O   0  0  0  0  0  1  0  0  0  0  0  0
  180.1000  178.5190  142.4160 O   0  0  0  0  0  0  0  0  0  0  0  0
  180.9980  178.0380  141.7420 C   0  0  0  0  0  3  0  0  0  0  0  0
  183.1800  176.9570  140.2990 O   0  0  0  0  0  0  0  0  0  0  0  0
  184.0750  179.0020  139.8270 O   0  0  0  0  0  1  0  0  0  0  0  0
  183.6200  178.1760  140.8670 C   0  0  2  0  0  3  0  0  0  0  0  0
  184.6610  177.9810  141.7930 O   0  0  0  0  0  0  0  0  0  0  0  0
  184.6510  179.1050  142.6290 C   0  0  0  0  0  2  0  0  0  0  0  0
  185.6700  178.9600  143.7500 C   0  0  0  0  0  2  0  0  0  0  0  0
  185.0840  179.3980  145.0790 C   0  0  0  0  0  2  0  0  0  0  0  0
  184.7520  178.2950  147.1580 O   0  0  0  0  0  0  0  0  0  0  0  0
  185.4810  178.4320  146.1410 C   0  0  0  0  0  0  0  0  0  0  0  0
  186.6570  177.6900  146.0130 O   0  0  0  0  0  0  0  0  0  0  0  0
  187.3500  177.6260  144.7720 C   0  0  0  0  0  2  0  0  0  0  0  0
  188.3070  176.6050  144.8030 O   0  0  0  0  0  0  0  0  0  0  0  0
  189.5100  177.1950  145.2190 C   0  0  1  0  0  3  0  0  0  0  0  0
  189.6320  178.1490  147.5310 O   0  0  0  0  0  0  0  0  0  0  0  0
  191.2910  176.6550  147.8830 O   0  0  0  0  0  0  0  0  0  0  0  0
  189.7060  177.0460  146.7420 C   0  0  1  0  0  0  0  0  0  0  0  0
  190.2320  175.8510  147.4320 C   0  0  0  0  0  2  0  0  0  0  0  0
  190.8990  177.7460  147.1470 N   0  0  1  0  0  0  0  0  0  0  0  0
  190.6870  176.6720  144.3760 C   0  0  1  0  0  3  0  0  0  0  0  0
  190.2130  175.0850  142.6950 O   0  0  0  0  0  0  0  0  0  0  0  0
  190.2890  176.2740  142.9770 C   0  0  0  0  0  0  0  0  0  0  0  0
  190.0470  177.3110  141.9190 C   0  0  0  0  0  2  0  0  0  0  0  0
  189.7840  176.6840  140.5550 C   0  0  0  0  0  2  0  0  0  0  0  0
  188.9100  177.5880  139.7020 C   0  0  0  0  0  2  0  0  0  0  0  0
  189.6640  178.0930  138.6440 O   0  0  0  0  0  0  0  0  0  0  0  0
  189.9480  176.8650  136.6290 C   0  0  0  0  0  1  0  0  0  0  0  0
  190.3080  176.9800  138.0960 C   0  0  0  0  0  2  0  0  0  0  0  0
  191.7370  177.6340  144.3460 O   0  0  0  0  0  0  0  0  0  0  0  0
  191.4930  179.0010  144.1760 C   0  0  0  0  0  0  0  0  0  0  0  0
  192.4540  179.8130  144.2340 O   0  0  0  0  0  0  0  0  0  0  0  0
  190.1170  179.5190  143.9070 C   0  0  0  0  0  1  0  0  0  0  0  0
  1  3  1  0  0  0  0
  1 33  1  1  0  0  0
  1  2  1  0  0  0  0
  2 32  1  1  0  0  0
  3  2  1  0  0  0  0
  4  5  1  6  0  0  0
  4  1  1  0  0  0  0
  6 11  1  0  0  0  0
  6  7  1  1  0  0  0
  6  4  1  0  0  0  0
  8  9  1  0  0  0  0
  9  6  1  0  0  0  0
 10  8  1  0  0  0  0
 10  9  1  0  0  0  0
 11 12  1  0  0  0  0
 12 13  2  0  0  0  0
 14 15  1  0  0  0  0
 14 12  1  0  0  0  0
 16 15  1  0  0  0  0
 17 18  1  0  0  0  0
 17  4  1  0  0  0  0
 17 21  1  1  0  0  0
 18 19  1  6  0  0  0
 20 18  1  0  0  0  0
 22 25  1  0  0  0  0
 23 28  1  0  0  0  0
 23 26  1  0  0  0  0
 24 23  1  0  0  0  0
 25 21  1  1  0  0  0
 26 25  1  0  0  0  0
 27 24  1  0  0  0  0
 27 22  1  0  0  0  0
 29 30  1  0  0  0  0
 29 28  1  0  0  0  0
 32 31  2  0  0  0  0
 33 35  1  0  0  0  0
 35 34  1  6  0  0  0
 35 36  1  0  0  0  0
 36 37  1  0  0  0  0
 37 38  1  0  0  0  0
 38 39  1  0  0  0  0
 39 41  1  0  0  0  0
 41 40  2  0  0  0  0
 42 41  1  0  0  0  0
 43 44  1  0  0  0  0
 43 42  1  0  0  0  0
 45 44  1  6  0  0  0
 48 45  1  6  0  0  0
 48 50  1  0  0  0  0
 48 49  1  0  0  0  0
 48 46  1  0  0  0  0
 49 47  1  0  0  0  0
 50 46  1  1  0  0  0
 50 47  1  0  0  0  0
 51 53  1  6  0  0  0
 51 45  1  0  0  0  0
 52 53  2  0  0  0  0
 54 53  1  0  0  0  0
 55 54  1  0  0  0  0
 56 55  1  0  0  0  0
 57 56  1  0  0  0  0
 58 59  1  0  0  0  0
 59 57  1  0  0  0  0
 60 51  1  0  0  0  0
 61 62  2  0  0  0  0
 61 60  1  0  0  0  0
 63 61  1  0  0  0  0
M  END
>  <MODEL>
2

>  <REMARK>
 VINA RESULT:      -3.9      1.276      1.898
  Name = 
  35 active torsions:
  status: ('A' for Active; 'I' for Inactive)
    1  A    between atoms: C_1  and  O_8
    2  A    between atoms: C_3  and  C_17
    3  A    between atoms: C_3  and  C_29
    4  A    between atoms: C_3  and  C_57
    5  A    between atoms: C_6  and  C_23
    6  A    between atoms: C_6  and  C_60
    7  A    between atoms: C_7  and  O_8
    8  A    between atoms: C_7  and  O_42
    9  A    between atoms: C_10  and  C_57
   10  A    between atoms: O_15  and  C_47
   11  A    between atoms: O_15  and  C_57
   12  A    between atoms: C_16  and  C_48
   13  A    between atoms: C_17  and  C_31
   14  A    between atoms: C_17  and  O_42
   15  A    between atoms: O_18  and  C_24
   16  A    between atoms: O_18  and  C_32
   17  A    between atoms: C_19  and  O_28
   18  A    between atoms: C_19  and  C_48
   19  A    between atoms: C_19  and  C_61
   20  A    between atoms: C_20  and  C_32
   21  A    between atoms: C_20  and  C_43
   22  A    between atoms: O_21  and  C_36
   23  A    between atoms: O_21  and  C_59
   24  A    between atoms: C_23  and  C_61
   25  A    between atoms: C_24  and  O_30
   26  A    between atoms: N_25  and  C_44
   27  A    between atoms: C_27  and  C_44
   28  A    between atoms: O_28  and  C_33
   29  A    between atoms: C_29  and  O_41
   30  A    between atoms: O_30  and  C_48
   31  A    between atoms: C_36  and  C_43
   32  A    between atoms: O_37  and  C_38
   33  A    between atoms: O_37  and  C_60
   34  A    between atoms: C_39  and  C_45
   35  A    between atoms: O_41  and  C_59
                            x       y       z     vdW  Elec       q    Type
                         _______ _______ _______ _____ _____    ______ ____

>  <TORSDO>
F 35

$$$$
=
 OpenBabel11062418073D

 63 67  0  0  1  0  0  0  0  0999 V2000
  190.9600  175.4140  137.7200 C   0  0  1  0  0  0  0  0  0  0  0  0
  192.1540  176.0710  136.9840 C   0  0  1  0  0  3  0  0  0  0  0  0
  190.8450  176.8040  137.0960 C   0  0  0  0  0  2  0  0  0  0  0  0
  190.0000  174.4050  136.9630 C   0  0  2  0  0  0  0  0  0  0  0  0
  189.4300  173.5610  137.9330 O   0  0  0  0  0  1  0  0  0  0  0  0
  190.7700  173.4570  135.9590 C   0  0  2  0  0  0  0  0  0  0  0  0
  190.9640  174.1580  134.6070 C   0  0  0  0  0  1  0  0  0  0  0  0
  190.4620  171.3030  134.8540 O   0  0  0  0  0  0  0  0  0  0  0  0
  189.9500  172.1370  135.8310 C   0  0  0  0  0  3  0  0  0  0  0  0
  189.3410  172.0020  134.5940 O   0  0  0  0  0  0  0  0  0  0  0  0
  192.0570  173.1590  136.5360 O   0  0  0  0  0  0  0  0  0  0  0  0
  193.1380  172.5280  135.8920 C   0  0  0  0  0  0  0  0  0  0  0  0
  193.3540  171.2980  136.0390 O   0  0  0  0  0  0  0  0  0  0  0  0
  193.9870  173.2650  135.0680 O   0  0  0  0  0  0  0  0  0  0  0  0
  195.1940  173.8430  135.5520 C   0  0  0  0  0  2  0  0  0  0  0  0
  195.4580  175.1630  134.8530 C   0  0  0  0  0  1  0  0  0  0  0  0
  188.7790  175.1410  136.3120 C   0  0  2  0  0  3  0  0  0  0  0  0
  188.9190  176.6560  136.0440 C   0  0  2  0  0  3  0  0  0  0  0  0
  187.5800  177.3500  135.8850 C   0  0  0  0  0  1  0  0  0  0  0  0
  189.6530  176.8790  134.8960 F   0  0  0  0  0  0  0  0  0  0  0  0
  187.6020  174.8400  137.0180 O   0  0  0  0  0  0  0  0  0  0  0  0
  186.0380  173.3150  136.0090 C   0  0  0  0  0  2  0  0  0  0  0  0
  184.1610  175.3110  135.8190 N   0  0  0  0  0  0  0  0  0  0  0  0
  184.2830  174.5080  134.5980 C   0  0  0  0  0  2  0  0  0  0  0  0
  186.6060  174.7320  136.0380 C   0  0  1  0  0  3  0  0  0  0  0  0
  185.4840  175.7550  136.3030 C   0  0  0  0  0  2  0  0  0  0  0  0
  184.9820  173.1770  134.9030 C   0  0  0  0  0  2  0  0  0  0  0  0
  183.3090  176.4770  135.5650 C   0  0  0  0  0  2  0  0  0  0  0  0
  182.6180  177.0220  136.8130 C   0  0  0  0  0  2  0  0  0  0  0  0
  181.7440  176.0650  137.3310 O   0  0  0  0  0  1  0  0  0  0  0  0
  194.3240  176.5800  137.7430 O   0  0  0  0  0  0  0  0  0  0  0  0
  193.1250  176.7690  137.8800 C   0  0  0  0  0  3  0  0  0  0  0  0
  190.8840  175.5690  139.1260 O   0  0  0  0  0  0  0  0  0  0  0  0
  189.9860  177.6580  139.3160 O   0  0  0  0  0  1  0  0  0  0  0  0
  189.7300  176.2910  139.5130 C   0  0  2  0  0  3  0  0  0  0  0  0
  189.3980  176.0720  140.8620 O   0  0  0  0  0  0  0  0  0  0  0  0
  189.9450  177.1460  141.5740 C   0  0  0  0  0  2  0  0  0  0  0  0
  191.2660  176.7560  142.2200 C   0  0  0  0  0  2  0  0  0  0  0  0
  191.8030  177.8810  143.0850 C   0  0  0  0  0  2  0  0  0  0  0  0
  190.8930  179.6650  144.3650 O   0  0  0  0  0  0  0  0  0  0  0  0
  190.6760  178.7480  143.5310 C   0  0  0  0  0  0  0  0  0  0  0  0
  189.3890  178.5400  143.0320 O   0  0  0  0  0  0  0  0  0  0  0  0
  188.2420  178.7870  143.8380 C   0  0  0  0  0  2  0  0  0  0  0  0
  187.2400  177.8520  143.5550 O   0  0  0  0  0  0  0  0  0  0  0  0
  186.1680  178.5660  143.0010 C   0  0  1  0  0  3  0  0  0  0  0  0
  186.9410  178.0110  140.6850 O   0  0  0  0  0  0  0  0  0  0  0  0
  185.0450  179.0220  139.9860 O   0  0  0  0  0  0  0  0  0  0  0  0
  185.8980  178.1260  141.5470 C   0  0  1  0  0  0  0  0  0  0  0  0
  184.5750  178.0620  140.8960 C   0  0  0  0  0  2  0  0  0  0  0  0
  186.2350  179.2000  140.6470 N   0  0  1  0  0  0  0  0  0  0  0  0
  184.9380  178.4940  143.9230 C   0  0  1  0  0  3  0  0  0  0  0  0
  185.2630  180.0410  145.6750 O   0  0  0  0  0  0  0  0  0  0  0  0
  185.2410  178.8590  145.3540 C   0  0  0  0  0  0  0  0  0  0  0  0
  185.5750  177.8030  146.3660 C   0  0  0  0  0  2  0  0  0  0  0  0
  186.4400  178.3470  147.4960 C   0  0  0  0  0  2  0  0  0  0  0  0
  187.9030  178.0050  147.2720 C   0  0  0  0  0  2  0  0  0  0  0  0
  187.9920  176.8480  146.4970 O   0  0  0  0  0  0  0  0  0  0  0  0
  189.9420  176.2390  147.7100 C   0  0  0  0  0  1  0  0  0  0  0  0
  189.3620  176.6080  146.3610 C   0  0  0  0  0  2  0  0  0  0  0  0
  183.8880  179.3060  143.4080 O   0  0  0  0  0  0  0  0  0  0  0  0
  182.5400  179.0360  143.6690 C   0  0  0  0  0  0  0  0  0  0  0  0
  182.1860  178.7280  144.8380 O   0  0  0  0  0  0  0  0  0  0  0  0
  181.5040  179.1260  142.5950 C   0  0  0  0  0  1  0  0  0  0  0  0
  1 33  1  1  0  0  0
  2  3  1  0  0  0  0
  2  1  1  0  0  0  0
  2 32  1  1  0  0  0
  3  1  1  0  0  0  0
  4  1  1  0  0  0  0
  4  5  1  1  0  0  0
  6  7  1  6  0  0  0
  6 11  1  0  0  0  0
  6  4  1  0  0  0  0
  8  9  1  0  0  0  0
  9  6  1  0  0  0  0
 10  8  1  0  0  0  0
 10  9  1  0  0  0  0
 12 13  2  0  0  0  0
 12 11  1  0  0  0  0
 14 15  1  0  0  0  0
 14 12  1  0  0  0  0
 16 15  1  0  0  0  0
 17  4  1  0  0  0  0
 17 21  1  1  0  0  0
 18 19  1  6  0  0  0
 18 17  1  0  0  0  0
 20 18  1  0  0  0  0
 22 25  1  0  0  0  0
 23 26  1  0  0  0  0
 24 27  1  0  0  0  0
 24 23  1  0  0  0  0
 25 26  1  0  0  0  0
 25 21  1  1  0  0  0
 27 22  1  0  0  0  0
 28 23  1  0  0  0  0
 28 29  1  0  0  0  0
 29 30  1  0  0  0  0
 31 32  2  0  0  0  0
 33 35  1  0  0  0  0
 35 34  1  1  0  0  0
 35 36  1  0  0  0  0
 36 37  1  0  0  0  0
 37 38  1  0  0  0  0
 38 39  1  0  0  0  0
 39 41  1  0  0  0  0
 41 40  2  0  0  0  0
 42 41  1  0  0  0  0
 42 43  1  0  0  0  0
 44 43  1  0  0  0  0
 45 44  1  1  0  0  0
 45 51  1  0  0  0  0
 46 48  1  0  0  0  0
 47 49  1  0  0  0  0
 48 45  1  1  0  0  0
 49 48  1  0  0  0  0
 50 47  1  6  0  0  0
 50 46  1  0  0  0  0
 50 48  1  0  0  0  0
 51 60  1  6  0  0  0
 51 53  1  0  0  0  0
 53 52  2  0  0  0  0
 53 54  1  0  0  0  0
 54 55  1  0  0  0  0
 56 55  1  0  0  0  0
 57 56  1  0  0  0  0
 59 57  1  0  0  0  0
 59 58  1  0  0  0  0
 60 61  1  0  0  0  0
 61 62  2  0  0  0  0
 63 61  1  0  0  0  0
M  END
>  <MODEL>
3

>  <REMARK>
 VINA RESULT:      -3.0      3.835      9.076
  Name = 
  35 active torsions:
  status: ('A' for Active; 'I' for Inactive)
    1  A    between atoms: C_1  and  O_8
    2  A    between atoms: C_3  and  C_17
    3  A    between atoms: C_3  and  C_29
    4  A    between atoms: C_3  and  C_57
    5  A    between atoms: C_6  and  C_23
    6  A    between atoms: C_6  and  C_60
    7  A    between atoms: C_7  and  O_8
    8  A    between atoms: C_7  and  O_42
    9  A    between atoms: C_10  and  C_57
   10  A    between atoms: O_15  and  C_47
   11  A    between atoms: O_15  and  C_57
   12  A    between atoms: C_16  and  C_48
   13  A    between atoms: C_17  and  C_31
   14  A    between atoms: C_17  and  O_42
   15  A    between atoms: O_18  and  C_24
   16  A    between atoms: O_18  and  C_32
   17  A    between atoms: C_19  and  O_28
   18  A    between atoms: C_19  and  C_48
   19  A    between atoms: C_19  and  C_61
   20  A    between atoms: C_20  and  C_32
   21  A    between atoms: C_20  and  C_43
   22  A    between atoms: O_21  and  C_36
   23  A    between atoms: O_21  and  C_59
   24  A    between atoms: C_23  and  C_61
   25  A    between atoms: C_24  and  O_30
   26  A    between atoms: N_25  and  C_44
   27  A    between atoms: C_27  and  C_44
   28  A    between atoms: O_28  and  C_33
   29  A    between atoms: C_29  and  O_41
   30  A    between atoms: O_30  and  C_48
   31  A    between atoms: C_36  and  C_43
   32  A    between atoms: O_37  and  C_38
   33  A    between atoms: O_37  and  C_60
   34  A    between atoms: C_39  and  C_45
   35  A    between atoms: O_41  and  C_59
                            x       y       z     vdW  Elec       q    Type
                         _______ _______ _______ _____ _____    ______ ____

>  <TORSDO>
F 35

$$$$
=
 OpenBabel11062418073D

 63 67  0  0  1  0  0  0  0  0999 V2000
  188.4850  174.8510  136.4710 C   0  0  1  0  0  0  0  0  0  0  0  0
  188.6420  173.4780  137.1690 C   0  0  1  0  0  3  0  0  0  0  0  0
  187.6730  174.4910  137.7140 C   0  0  0  0  0  2  0  0  0  0  0  0
  189.4750  176.0440  136.8040 C   0  0  2  0  0  0  0  0  0  0  0  0
  189.2080  177.0780  135.8870 O   0  0  0  0  0  1  0  0  0  0  0  0
  190.9940  175.6610  136.5980 C   0  0  2  0  0  0  0  0  0  0  0  0
  191.8940  176.5880  137.4280 C   0  0  0  0  0  1  0  0  0  0  0  0
  192.4780  176.4260  134.8180 O   0  0  0  0  0  0  0  0  0  0  0  0
  191.3010  175.7450  135.0720 C   0  0  0  0  0  3  0  0  0  0  0  0
  191.3030  177.0460  134.5960 O   0  0  0  0  0  0  0  0  0  0  0  0
  191.1680  174.3000  137.0400 O   0  0  0  0  0  0  0  0  0  0  0  0
  191.9150  173.2980  136.3940 C   0  0  0  0  0  0  0  0  0  0  0  0
  191.3800  172.2190  136.0330 O   0  0  0  0  0  0  0  0  0  0  0  0
  193.2710  173.4940  136.1370 O   0  0  0  0  0  0  0  0  0  0  0  0
  194.2790  172.6960  136.7470 C   0  0  0  0  0  2  0  0  0  0  0  0
  194.2670  171.2980  136.1590 C   0  0  0  0  0  1  0  0  0  0  0  0
  189.1740  176.6740  138.2070 C   0  0  2  0  0  3  0  0  0  0  0  0
  188.9920  178.2070  138.2770 C   0  0  2  0  0  3  0  0  0  0  0  0
  187.5410  178.6320  138.1490 C   0  0  0  0  0  1  0  0  0  0  0  0
  189.7080  178.8270  137.2740 F   0  0  0  0  0  0  0  0  0  0  0  0
  190.1050  176.2140  139.1530 O   0  0  0  0  0  0  0  0  0  0  0  0
  188.7690  176.4180  141.1430 C   0  0  0  0  0  2  0  0  0  0  0  0
  190.9530  177.2960  142.5600 N   0  0  0  0  0  0  0  0  0  0  0  0
  189.7430  178.0880  142.8040 C   0  0  0  0  0  2  0  0  0  0  0  0
  189.8920  177.0040  140.2900 C   0  0  1  0  0  3  0  0  0  0  0  0
  191.1900  177.1140  141.1140 C   0  0  0  0  0  2  0  0  0  0  0  0
  188.4970  177.3080  142.3660 C   0  0  0  0  0  2  0  0  0  0  0  0
  192.1100  177.9530  143.1740 C   0  0  0  0  0  2  0  0  0  0  0  0
  191.7520  178.8940  144.3210 C   0  0  0  0  0  2  0  0  0  0  0  0
  190.9220  179.9160  143.8580 O   0  0  0  0  0  1  0  0  0  0  0  0
  188.1950  171.2180  136.6780 O   0  0  0  0  0  0  0  0  0  0  0  0
  187.8310  172.3790  136.5620 C   0  0  0  0  0  3  0  0  0  0  0  0
  187.5840  174.9400  135.3820 O   0  0  0  0  0  0  0  0  0  0  0  0
  185.5970  174.1420  134.5940 O   0  0  0  0  0  1  0  0  0  0  0  0
  186.2730  174.5560  135.7530 C   0  0  2  0  0  3  0  0  0  0  0  0
  185.5630  175.6130  136.3520 O   0  0  0  0  0  0  0  0  0  0  0  0
  184.2060  175.3190  136.1690 C   0  0  0  0  0  2  0  0  0  0  0  0
  183.5220  176.3980  135.3410 C   0  0  0  0  0  2  0  0  0  0  0  0
  182.0560  176.0730  135.1290 C   0  0  0  0  0  2  0  0  0  0  0  0
  180.2710  177.3340  136.0650 O   0  0  0  0  0  0  0  0  0  0  0  0
  181.2600  176.5870  136.2810 C   0  0  0  0  0  0  0  0  0  0  0  0
  181.6160  176.2470  137.5870 O   0  0  0  0  0  0  0  0  0  0  0  0
  181.9530  177.2500  138.5390 C   0  0  0  0  0  2  0  0  0  0  0  0
  182.4080  178.4020  137.8880 O   0  0  0  0  0  0  0  0  0  0  0  0
  182.2120  179.4700  138.7770 C   0  0  1  0  0  3  0  0  0  0  0  0
  181.4120  181.6520  137.8460 O   0  0  0  0  0  0  0  0  0  0  0  0
  179.6280  181.3920  139.2080 O   0  0  0  0  0  0  0  0  0  0  0  0
  181.0910  180.4070  138.2820 C   0  0  1  0  0  0  0  0  0  0  0  0
  179.6420  180.1960  138.4740 C   0  0  0  0  0  2  0  0  0  0  0  0
  180.9920  181.5460  139.1600 N   0  0  1  0  0  0  0  0  0  0  0  0
  182.0150  178.9480  140.2110 C   0  0  1  0  0  3  0  0  0  0  0  0
  184.2560  179.5750  140.6020 O   0  0  0  0  0  0  0  0  0  0  0  0
  183.2720  178.9940  141.0420 C   0  0  0  0  0  0  0  0  0  0  0  0
  183.3480  178.2880  142.3650 C   0  0  0  0  0  2  0  0  0  0  0  0
  183.7240  179.2370  143.4970 C   0  0  0  0  0  2  0  0  0  0  0  0
  185.2260  179.2370  143.7290 C   0  0  0  0  0  2  0  0  0  0  0  0
  185.6380  177.9490  144.0700 O   0  0  0  0  0  0  0  0  0  0  0  0
  187.0540  177.6290  145.9510 C   0  0  0  0  0  1  0  0  0  0  0  0
  185.6510  177.9310  145.4670 C   0  0  0  0  0  2  0  0  0  0  0  0
  180.9600  179.6580  140.8530 O   0  0  0  0  0  0  0  0  0  0  0  0
  180.0450  179.0270  141.7020 C   0  0  0  0  0  0  0  0  0  0  0  0
  179.9590  177.7700  141.6960 O   0  0  0  0  0  0  0  0  0  0  0  0
  179.1780  179.8100  142.6340 C   0  0  0  0  0  1  0  0  0  0  0  0
  1 33  1  6  0  0  0
  1  4  1  0  0  0  0
  1  2  1  0  0  0  0
  1  3  1  0  0  0  0
  2 32  1  6  0  0  0
  2  3  1  0  0  0  0
  4  5  1  6  0  0  0
  4 17  1  0  0  0  0
  6  4  1  0  0  0  0
  6 11  1  0  0  0  0
  6  7  1  1  0  0  0
  8  9  1  0  0  0  0
  9  6  1  0  0  0  0
 10  8  1  0  0  0  0
 10  9  1  0  0  0  0
 12 11  1  0  0  0  0
 13 12  2  0  0  0  0
 14 12  1  0  0  0  0
 14 15  1  0  0  0  0
 16 15  1  0  0  0  0
 17 18  1  0  0  0  0
 17 21  1  1  0  0  0
 18 19  1  6  0  0  0
 20 18  1  0  0  0  0
 22 27  1  0  0  0  0
 23 24  1  0  0  0  0
 23 28  1  0  0  0  0
 25 21  1  6  0  0  0
 25 26  1  0  0  0  0
 25 22  1  0  0  0  0
 26 23  1  0  0  0  0
 27 24  1  0  0  0  0
 28 29  1  0  0  0  0
 30 29  1  0  0  0  0
 32 31  2  0  0  0  0
 33 35  1  0  0  0  0
 35 34  1  6  0  0  0
 35 36  1  0  0  0  0
 37 36  1  0  0  0  0
 38 37  1  0  0  0  0
 39 38  1  0  0  0  0
 39 41  1  0  0  0  0
 40 41  2  0  0  0  0
 41 42  1  0  0  0  0
 42 43  1  0  0  0  0
 44 43  1  0  0  0  0
 45 44  1  6  0  0  0
 45 51  1  0  0  0  0
 46 48  1  0  0  0  0
 48 49  1  0  0  0  0
 48 45  1  1  0  0  0
 48 50  1  0  0  0  0
 49 47  1  0  0  0  0
 50 46  1  6  0  0  0
 50 47  1  0  0  0  0
 51 60  1  1  0  0  0
 51 53  1  0  0  0  0
 52 53  2  0  0  0  0
 53 54  1  0  0  0  0
 54 55  1  0  0  0  0
 55 56  1  0  0  0  0
 56 57  1  0  0  0  0
 57 59  1  0  0  0  0
 59 58  1  0  0  0  0
 60 61  1  0  0  0  0
 61 63  1  0  0  0  0
 62 61  2  0  0  0  0
M  END
>  <MODEL>
4

>  <REMARK>
 VINA RESULT:      -3.0      3.684     10.708
  Name = 
  35 active torsions:
  status: ('A' for Active; 'I' for Inactive)
    1  A    between atoms: C_1  and  O_8
    2  A    between atoms: C_3  and  C_17
    3  A    between atoms: C_3  and  C_29
    4  A    between atoms: C_3  and  C_57
    5  A    between atoms: C_6  and  C_23
    6  A    between atoms: C_6  and  C_60
    7  A    between atoms: C_7  and  O_8
    8  A    between atoms: C_7  and  O_42
    9  A    between atoms: C_10  and  C_57
   10  A    between atoms: O_15  and  C_47
   11  A    between atoms: O_15  and  C_57
   12  A    between atoms: C_16  and  C_48
   13  A    between atoms: C_17  and  C_31
   14  A    between atoms: C_17  and  O_42
   15  A    between atoms: O_18  and  C_24
   16  A    between atoms: O_18  and  C_32
   17  A    between atoms: C_19  and  O_28
   18  A    between atoms: C_19  and  C_48
   19  A    between atoms: C_19  and  C_61
   20  A    between atoms: C_20  and  C_32
   21  A    between atoms: C_20  and  C_43
   22  A    between atoms: O_21  and  C_36
   23  A    between atoms: O_21  and  C_59
   24  A    between atoms: C_23  and  C_61
   25  A    between atoms: C_24  and  O_30
   26  A    between atoms: N_25  and  C_44
   27  A    between atoms: C_27  and  C_44
   28  A    between atoms: O_28  and  C_33
   29  A    between atoms: C_29  and  O_41
   30  A    between atoms: O_30  and  C_48
   31  A    between atoms: C_36  and  C_43
   32  A    between atoms: O_37  and  C_38
   33  A    between atoms: O_37  and  C_60
   34  A    between atoms: C_39  and  C_45
   35  A    between atoms: O_41  and  C_59
                            x       y       z     vdW  Elec       q    Type
                         _______ _______ _______ _____ _____    ______ ____

>  <TORSDO>
F 35

$$$$
=
 OpenBabel11062418073D

 63 67  0  0  1  0  0  0  0  0999 V2000
  186.2960  177.7340  137.6490 C   0  0  1  0  0  0  0  0  0  0  0  0
  184.9600  178.2060  138.2730 C   0  0  1  0  0  3  0  0  0  0  0  0
  185.9320  177.4070  139.0960 C   0  0  0  0  0  2  0  0  0  0  0  0
  186.3620  176.3980  136.7970 C   0  0  2  0  0  0  0  0  0  0  0  0
  186.9290  175.4060  137.6180 O   0  0  0  0  0  1  0  0  0  0  0  0
  187.3100  176.5150  135.5380 C   0  0  2  0  0  0  0  0  0  0  0  0
  188.7790  176.5750  135.9810 C   0  0  0  0  0  1  0  0  0  0  0  0
  187.9200  178.6830  134.5950 O   0  0  0  0  0  0  0  0  0  0  0  0
  186.8800  177.7830  134.7380 C   0  0  0  0  0  3  0  0  0  0  0  0
  186.9510  178.9420  135.4920 O   0  0  0  0  0  0  0  0  0  0  0  0
  187.1010  175.3480  134.7200 O   0  0  0  0  0  0  0  0  0  0  0  0
  187.9440  174.2240  134.6320 C   0  0  0  0  0  0  0  0  0  0  0  0
  189.1950  174.3510  134.5950 O   0  0  0  0  0  0  0  0  0  0  0  0
  187.3980  172.9420  134.5940 O   0  0  0  0  0  0  0  0  0  0  0  0
  186.9970  172.2560  135.7730 C   0  0  0  0  0  2  0  0  0  0  0  0
  186.1100  171.0780  135.4190 C   0  0  0  0  0  1  0  0  0  0  0  0
  184.9330  175.8560  136.4530 C   0  0  2  0  0  3  0  0  0  0  0  0
  183.9490  176.8260  135.7600 C   0  0  2  0  0  3  0  0  0  0  0  0
  182.9650  176.1140  134.8510 C   0  0  0  0  0  1  0  0  0  0  0  0
  184.6360  177.7530  135.0020 F   0  0  0  0  0  0  0  0  0  0  0  0
  184.3600  175.2490  137.5830 O   0  0  0  0  0  0  0  0  0  0  0  0
  183.6860  172.9680  137.2190 C   0  0  0  0  0  2  0  0  0  0  0  0
  181.0970  173.5900  137.8940 N   0  0  0  0  0  0  0  0  0  0  0  0
  181.2020  172.7580  136.6910 C   0  0  0  0  0  2  0  0  0  0  0  0
  183.3270  174.4460  137.0830 C   0  0  1  0  0  3  0  0  0  0  0  0
  182.0100  174.7490  137.8250 C   0  0  0  0  0  2  0  0  0  0  0  0
  182.5790  172.0840  136.6260 C   0  0  0  0  0  2  0  0  0  0  0  0
  179.7170  174.0550  138.0590 C   0  0  0  0  0  2  0  0  0  0  0  0
  179.1530  173.8340  139.4610 C   0  0  0  0  0  2  0  0  0  0  0  0
  179.8760  174.5830  140.3900 O   0  0  0  0  0  1  0  0  0  0  0  0
  183.9500  180.2530  138.8500 O   0  0  0  0  0  0  0  0  0  0  0  0
  184.9830  179.6040  138.8010 C   0  0  0  0  0  3  0  0  0  0  0  0
  187.3910  178.6300  137.6750 O   0  0  0  0  0  0  0  0  0  0  0  0
  189.3220  179.2820  138.7010 O   0  0  0  0  0  1  0  0  0  0  0  0
  188.2630  178.3620  138.7570 C   0  0  2  0  0  3  0  0  0  0  0  0
  188.7810  177.0550  138.7060 O   0  0  0  0  0  0  0  0  0  0  0  0
  190.0480  177.1180  139.2980 C   0  0  0  0  0  2  0  0  0  0  0  0
  190.0690  176.3690  140.6230 C   0  0  0  0  0  2  0  0  0  0  0  0
  190.8350  177.1460  141.6770 C   0  0  0  0  0  2  0  0  0  0  0  0
  190.2490  175.2740  143.0200 O   0  0  0  0  0  0  0  0  0  0  0  0
  190.7730  176.4170  142.9760 C   0  0  0  0  0  0  0  0  0  0  0  0
  191.2850  177.0030  144.1350 O   0  0  0  0  0  0  0  0  0  0  0  0
  191.5450  178.4010  144.1950 C   0  0  0  0  0  2  0  0  0  0  0  0
  190.5440  179.0490  144.9270 O   0  0  0  0  0  0  0  0  0  0  0  0
  189.6380  178.0590  145.3350 C   0  0  1  0  0  3  0  0  0  0  0  0
  190.5980  176.7170  147.2190 O   0  0  0  0  0  0  0  0  0  0  0  0
  188.5780  176.9560  148.2010 O   0  0  0  0  0  0  0  0  0  0  0  0
  189.7960  177.7440  146.8370 C   0  0  1  0  0  0  0  0  0  0  0  0
  188.9530  178.2800  147.9240 C   0  0  0  0  0  2  0  0  0  0  0  0
  189.2460  176.4420  147.1180 N   0  0  1  0  0  0  0  0  0  0  0  0
  188.2060  178.4320  144.9130 C   0  0  1  0  0  3  0  0  0  0  0  0
  188.4370  178.9130  142.6140 O   0  0  0  0  0  0  0  0  0  0  0  0
  187.9280  178.1800  143.4530 C   0  0  0  0  0  0  0  0  0  0  0  0
  186.9940  177.0870  143.0230 C   0  0  0  0  0  2  0  0  0  0  0  0
  185.5360  177.4460  143.2840 C   0  0  0  0  0  2  0  0  0  0  0  0
  185.1770  178.7690  142.6290 C   0  0  0  0  0  2  0  0  0  0  0  0
  184.3200  179.4800  143.4680 O   0  0  0  0  0  0  0  0  0  0  0  0
  183.0510  178.4380  141.7500 C   0  0  0  0  0  1  0  0  0  0  0  0
  183.0390  179.0220  143.1480 C   0  0  0  0  0  2  0  0  0  0  0  0
  187.2580  177.7520  145.7310 O   0  0  0  0  0  0  0  0  0  0  0  0
  186.1700  178.4090  146.3150 C   0  0  0  0  0  0  0  0  0  0  0  0
  186.2270  179.6540  146.5030 O   0  0  0  0  0  0  0  0  0  0  0  0
  184.9310  177.6700  146.7050 C   0  0  0  0  0  1  0  0  0  0  0  0
  1 33  1  6  0  0  0
  1  2  1  0  0  0  0
  1  3  1  0  0  0  0
  2 32  1  1  0  0  0
  2  3  1  0  0  0  0
  4  5  1  1  0  0  0
  4  1  1  0  0  0  0
  6  7  1  1  0  0  0
  6  4  1  0  0  0  0
  8  9  1  0  0  0  0
  8 10  1  0  0  0  0
  9 10  1  0  0  0  0
  9  6  1  0  0  0  0
 11  6  1  0  0  0  0
 12 11  1  0  0  0  0
 13 12  2  0  0  0  0
 14 12  1  0  0  0  0
 14 15  1  0  0  0  0
 16 15  1  0  0  0  0
 17  4  1  0  0  0  0
 17 21  1  1  0  0  0
 18 19  1  6  0  0  0
 18 17  1  0  0  0  0
 20 18  1  0  0  0  0
 23 28  1  0  0  0  0
 24 23  1  0  0  0  0
 25 22  1  0  0  0  0
 25 21  1  1  0  0  0
 25 26  1  0  0  0  0
 26 23  1  0  0  0  0
 27 24  1  0  0  0  0
 27 22  1  0  0  0  0
 28 29  1  0  0  0  0
 29 30  1  0  0  0  0
 32 31  2  0  0  0  0
 33 35  1  0  0  0  0
 35 34  1  6  0  0  0
 36 35  1  0  0  0  0
 36 37  1  0  0  0  0
 37 38  1  0  0  0  0
 38 39  1  0  0  0  0
 39 41  1  0  0  0  0
 41 40  2  0  0  0  0
 41 42  1  0  0  0  0
 42 43  1  0  0  0  0
 43 44  1  0  0  0  0
 45 44  1  1  0  0  0
 48 45  1  6  0  0  0
 48 50  1  0  0  0  0
 48 46  1  0  0  0  0
 48 49  1  0  0  0  0
 49 47  1  0  0  0  0
 50 46  1  1  0  0  0
 50 47  1  0  0  0  0
 51 53  1  6  0  0  0
 51 45  1  0  0  0  0
 51 60  1  0  0  0  0
 52 53  2  0  0  0  0
 54 55  1  0  0  0  0
 54 53  1  0  0  0  0
 56 55  1  0  0  0  0
 56 57  1  0  0  0  0
 58 59  1  0  0  0  0
 59 57  1  0  0  0  0
 60 61  1  0  0  0  0
 61 62  2  0  0  0  0
 61 63  1  0  0  0  0
M  END
>  <MODEL>
5

>  <REMARK>
 VINA RESULT:      -2.9      2.812      6.035
  Name = 
  35 active torsions:
  status: ('A' for Active; 'I' for Inactive)
    1  A    between atoms: C_1  and  O_8
    2  A    between atoms: C_3  and  C_17
    3  A    between atoms: C_3  and  C_29
    4  A    between atoms: C_3  and  C_57
    5  A    between atoms: C_6  and  C_23
    6  A    between atoms: C_6  and  C_60
    7  A    between atoms: C_7  and  O_8
    8  A    between atoms: C_7  and  O_42
    9  A    between atoms: C_10  and  C_57
   10  A    between atoms: O_15  and  C_47
   11  A    between atoms: O_15  and  C_57
   12  A    between atoms: C_16  and  C_48
   13  A    between atoms: C_17  and  C_31
   14  A    between atoms: C_17  and  O_42
   15  A    between atoms: O_18  and  C_24
   16  A    between atoms: O_18  and  C_32
   17  A    between atoms: C_19  and  O_28
   18  A    between atoms: C_19  and  C_48
   19  A    between atoms: C_19  and  C_61
   20  A    between atoms: C_20  and  C_32
   21  A    between atoms: C_20  and  C_43
   22  A    between atoms: O_21  and  C_36
   23  A    between atoms: O_21  and  C_59
   24  A    between atoms: C_23  and  C_61
   25  A    between atoms: C_24  and  O_30
   26  A    between atoms: N_25  and  C_44
   27  A    between atoms: C_27  and  C_44
   28  A    between atoms: O_28  and  C_33
   29  A    between atoms: C_29  and  O_41
   30  A    between atoms: O_30  and  C_48
   31  A    between atoms: C_36  and  C_43
   32  A    between atoms: O_37  and  C_38
   33  A    between atoms: O_37  and  C_60
   34  A    between atoms: C_39  and  C_45
   35  A    between atoms: O_41  and  C_59
                            x       y       z     vdW  Elec       q    Type
                         _______ _______ _______ _____ _____    ______ ____

>  <TORSDO>
F 35

$$$$
=
 OpenBabel11062418073D

 63 67  0  0  1  0  0  0  0  0999 V2000
  182.2530  178.1670  139.0730 C   0  0  1  0  0  0  0  0  0  0  0  0
  183.1610  176.9830  139.4880 C   0  0  1  0  0  3  0  0  0  0  0  0
  183.6720  178.0210  138.5280 C   0  0  0  0  0  2  0  0  0  0  0  0
  181.2050  178.0070  137.8930 C   0  0  2  0  0  0  0  0  0  0  0  0
  181.2250  179.2020  137.1510 O   0  0  0  0  0  1  0  0  0  0  0  0
  179.7200  177.8370  138.4060 C   0  0  2  0  0  0  0  0  0  0  0  0
  179.0960  176.5630  137.8200 C   0  0  0  0  0  1  0  0  0  0  0  0
  179.7510  180.2350  137.9490 O   0  0  0  0  0  0  0  0  0  0  0  0
  178.9320  179.1220  138.0080 C   0  0  0  0  0  3  0  0  0  0  0  0
  178.9310  180.0820  139.0060 O   0  0  0  0  0  0  0  0  0  0  0  0
  179.7600  177.7360  139.8430 O   0  0  0  0  0  0  0  0  0  0  0  0
  179.6930  176.5520  140.6020 C   0  0  0  0  0  0  0  0  0  0  0  0
  179.2710  176.5630  141.7870 O   0  0  0  0  0  0  0  0  0  0  0  0
  180.0900  175.3390  140.0420 O   0  0  0  0  0  0  0  0  0  0  0  0
  179.1780  174.2650  139.8440 C   0  0  0  0  0  2  0  0  0  0  0  0
  179.4440  173.1620  140.8500 C   0  0  0  0  0  1  0  0  0  0  0  0
  181.6430  176.9010  136.8740 C   0  0  2  0  0  3  0  0  0  0  0  0
  181.3160  177.1350  135.3820 C   0  0  2  0  0  3  0  0  0  0  0  0
  182.4880  177.7040  134.6060 C   0  0  0  0  0  1  0  0  0  0  0  0
  180.2530  178.0060  135.2500 F   0  0  0  0  0  0  0  0  0  0  0  0
  181.2090  175.6390  137.3130 O   0  0  0  0  0  0  0  0  0  0  0  0
  183.3980  174.6960  136.9820 C   0  0  0  0  0  2  0  0  0  0  0  0
  182.2990  172.2200  136.5230 N   0  0  0  0  0  0  0  0  0  0  0  0
  183.3430  172.5810  135.5600 C   0  0  0  0  0  2  0  0  0  0  0  0
  181.9340  174.7160  136.5480 C   0  0  1  0  0  3  0  0  0  0  0  0
  181.3160  173.3100  136.6810 C   0  0  0  0  0  2  0  0  0  0  0  0
  184.2080  173.7220  136.1130 C   0  0  0  0  0  2  0  0  0  0  0  0
  181.6190  170.9980  136.0860 C   0  0  0  0  0  2  0  0  0  0  0  0
  180.1070  171.1490  135.9400 C   0  0  0  0  0  2  0  0  0  0  0  0
  179.7460  171.0630  134.5940 O   0  0  0  0  0  1  0  0  0  0  0  0
  184.9810  177.7310  140.7820 O   0  0  0  0  0  0  0  0  0  0  0  0
  183.8880  177.1840  140.7780 C   0  0  0  0  0  3  0  0  0  0  0  0
  182.2320  179.3090  139.9100 O   0  0  0  0  0  0  0  0  0  0  0  0
  180.8160  180.3800  141.3430 O   0  0  0  0  0  1  0  0  0  0  0  0
  181.3690  179.1310  141.0180 C   0  0  2  0  0  3  0  0  0  0  0  0
  182.0490  178.6200  142.1390 O   0  0  0  0  0  0  0  0  0  0  0  0
  182.7000  179.7110  142.7270 C   0  0  0  0  0  2  0  0  0  0  0  0
  184.1990  179.4660  142.8200 C   0  0  0  0  0  2  0  0  0  0  0  0
  184.7560  179.9850  144.1320 C   0  0  0  0  0  2  0  0  0  0  0  0
  182.9940  178.9830  145.3760 O   0  0  0  0  0  0  0  0  0  0  0  0
  184.2350  179.1560  145.2570 C   0  0  0  0  0  0  0  0  0  0  0  0
  185.1180  178.5850  146.1760 O   0  0  0  0  0  0  0  0  0  0  0  0
  186.0160  177.5530  145.7840 C   0  0  0  0  0  2  0  0  0  0  0  0
  187.0480  178.0800  145.0000 O   0  0  0  0  0  0  0  0  0  0  0  0
  188.2310  177.9300  145.7380 C   0  0  1  0  0  3  0  0  0  0  0  0
  187.4500  178.6740  147.9980 O   0  0  0  0  0  0  0  0  0  0  0  0
  189.0820  177.3440  148.8180 O   0  0  0  0  0  0  0  0  0  0  0  0
  187.9280  177.6630  147.2270 C   0  0  1  0  0  0  0  0  0  0  0  0
  188.3500  176.4740  147.9940 C   0  0  0  0  0  2  0  0  0  0  0  0
  188.8140  178.4480  148.0480 N   0  0  1  0  0  0  0  0  0  0  0  0
  189.1470  176.8830  145.0800 C   0  0  1  0  0  3  0  0  0  0  0  0
  187.5610  176.5080  143.3750 O   0  0  0  0  0  0  0  0  0  0  0  0
  188.7500  176.5440  143.6660 C   0  0  0  0  0  0  0  0  0  0  0  0
  189.7840  176.1930  142.6370 C   0  0  0  0  0  2  0  0  0  0  0  0
  189.8830  177.2510  141.5440 C   0  0  0  0  0  2  0  0  0  0  0  0
  189.9460  176.6070  140.1700 C   0  0  0  0  0  2  0  0  0  0  0  0
  190.4630  177.5240  139.2550 O   0  0  0  0  0  0  0  0  0  0  0  0
  189.9590  176.8100  137.0460 C   0  0  0  0  0  1  0  0  0  0  0  0
  190.9420  176.7480  138.1960 C   0  0  0  0  0  2  0  0  0  0  0  0
  190.5040  177.3130  145.1330 O   0  0  0  0  0  0  0  0  0  0  0  0
  191.5110  176.5350  145.7130 C   0  0  0  0  0  0  0  0  0  0  0  0
  192.1780  175.7470  144.9900 O   0  0  0  0  0  0  0  0  0  0  0  0
  191.8300  176.6310  147.1690 C   0  0  0  0  0  1  0  0  0  0  0  0
  1  2  1  0  0  0  0
  1 33  1  1  0  0  0
  2 32  1  1  0  0  0
  3  1  1  0  0  0  0
  3  2  1  0  0  0  0
  4  5  1  6  0  0  0
  4  6  1  0  0  0  0
  4  1  1  0  0  0  0
  6  7  1  6  0  0  0
  6 11  1  0  0  0  0
  8  9  1  0  0  0  0
  8 10  1  0  0  0  0
  9  6  1  0  0  0  0
  9 10  1  0  0  0  0
 11 12  1  0  0  0  0
 12 13  2  0  0  0  0
 14 12  1  0  0  0  0
 15 14  1  0  0  0  0
 15 16  1  0  0  0  0
 17 21  1  1  0  0  0
 17  4  1  0  0  0  0
 18 19  1  6  0  0  0
 18 17  1  0  0  0  0
 20 18  1  0  0  0  0
 23 26  1  0  0  0  0
 24 27  1  0  0  0  0
 24 23  1  0  0  0  0
 25 26  1  0  0  0  0
 25 22  1  0  0  0  0
 25 21  1  1  0  0  0
 27 22  1  0  0  0  0
 28 23  1  0  0  0  0
 29 28  1  0  0  0  0
 30 29  1  0  0  0  0
 32 31  2  0  0  0  0
 33 35  1  0  0  0  0
 35 34  1  1  0  0  0
 35 36  1  0  0  0  0
 36 37  1  0  0  0  0
 37 38  1  0  0  0  0
 38 39  1  0  0  0  0
 39 41  1  0  0  0  0
 41 40  2  0  0  0  0
 41 42  1  0  0  0  0
 43 42  1  0  0  0  0
 44 43  1  0  0  0  0
 45 44  1  6  0  0  0
 48 45  1  6  0  0  0
 48 49  1  0  0  0  0
 48 46  1  0  0  0  0
 48 50  1  0  0  0  0
 49 47  1  0  0  0  0
 50 46  1  1  0  0  0
 50 47  1  0  0  0  0
 51 53  1  6  0  0  0
 51 60  1  0  0  0  0
 51 45  1  0  0  0  0
 52 53  2  0  0  0  0
 54 53  1  0  0  0  0
 55 54  1  0  0  0  0
 56 55  1  0  0  0  0
 57 56  1  0  0  0  0
 58 59  1  0  0  0  0
 59 57  1  0  0  0  0
 60 61  1  0  0  0  0
 61 63  1  0  0  0  0
 62 61  2  0  0  0  0
M  END
>  <MODEL>
6

>  <REMARK>
 VINA RESULT:      -2.7      1.883      3.309
  Name = 
  35 active torsions:
  status: ('A' for Active; 'I' for Inactive)
    1  A    between atoms: C_1  and  O_8
    2  A    between atoms: C_3  and  C_17
    3  A    between atoms: C_3  and  C_29
    4  A    between atoms: C_3  and  C_57
    5  A    between atoms: C_6  and  C_23
    6  A    between atoms: C_6  and  C_60
    7  A    between atoms: C_7  and  O_8
    8  A    between atoms: C_7  and  O_42
    9  A    between atoms: C_10  and  C_57
   10  A    between atoms: O_15  and  C_47
   11  A    between atoms: O_15  and  C_57
   12  A    between atoms: C_16  and  C_48
   13  A    between atoms: C_17  and  C_31
   14  A    between atoms: C_17  and  O_42
   15  A    between atoms: O_18  and  C_24
   16  A    between atoms: O_18  and  C_32
   17  A    between atoms: C_19  and  O_28
   18  A    between atoms: C_19  and  C_48
   19  A    between atoms: C_19  and  C_61
   20  A    between atoms: C_20  and  C_32
   21  A    between atoms: C_20  and  C_43
   22  A    between atoms: O_21  and  C_36
   23  A    between atoms: O_21  and  C_59
   24  A    between atoms: C_23  and  C_61
   25  A    between atoms: C_24  and  O_30
   26  A    between atoms: N_25  and  C_44
   27  A    between atoms: C_27  and  C_44
   28  A    between atoms: O_28  and  C_33
   29  A    between atoms: C_29  and  O_41
   30  A    between atoms: O_30  and  C_48
   31  A    between atoms: C_36  and  C_43
   32  A    between atoms: O_37  and  C_38
   33  A    between atoms: O_37  and  C_60
   34  A    between atoms: C_39  and  C_45
   35  A    between atoms: O_41  and  C_59
                            x       y       z     vdW  Elec       q    Type
                         _______ _______ _______ _____ _____    ______ ____

>  <TORSDO>
F 35

$$$$
