=
 OpenBabel11062412243D

 37 42  0  0  1  0  0  0  0  0999 V2000
  183.5150  179.1350  138.9620 C   0  0  0  0  0  3  0  0  0  0  0  0
  180.0880  178.9920  143.8720 O   0  0  0  0  0  0  0  0  0  0  0  0
  183.1360  178.5720  143.4930 C   0  0  0  0  0  3  0  0  0  0  0  0
  182.4860  178.8460  141.4550 C   0  0  0  0  0  0  0  0  0  0  0  0
  180.7340  178.9900  142.7910 C   0  0  0  0  0  0  0  0  0  0  0  0
  183.8100  178.7200  141.3240 C   0  0  0  0  0  0  0  0  0  0  0  0
  182.0620  178.7740  142.6980 N   0  0  0  0  0  0  0  0  0  0  0  0
  180.0890  179.2920  141.2270 S   0  0  0  0  0  0  0  0  0  0  0  0
  184.3910  178.8620  140.0580 C   0  0  0  0  0  3  0  0  0  0  0  0
  182.0990  179.2630  139.1470 C   0  0  0  0  0  0  0  0  0  0  0  0
  181.6060  179.1160  140.4590 C   0  0  0  0  0  0  0  0  0  0  0  0
  184.2610  178.5250  142.6310 C   0  0  0  0  0  0  0  0  0  0  0  0
  181.2380  179.5720  138.0410 N   0  0  0  0  0  0  0  0  0  0  0  0
  180.4520  178.5060  137.4360 C   0  0  0  0  0  1  0  0  0  0  0  0
  181.0570  180.9200  137.5780 C   0  0  0  0  0  0  0  0  0  0  0  0
  181.1060  183.0560  137.5440 N   0  0  0  0  0  0  0  0  0  0  0  0
  181.4730  182.0070  138.2560 N   0  0  0  0  0  0  0  0  0  0  0  0
  180.4710  182.5780  136.4580 C   0  0  0  0  0  0  0  0  0  0  0  0
  179.8930  183.4440  135.3970 C   0  0  0  0  0  1  0  0  0  0  0  0
  180.4090  181.2330  136.4380 N   0  0  0  0  0  2  0  0  0  0  0  0
  186.7760  178.2290  143.3840 C   0  0  0  0  0  0  0  0  0  0  0  0
  185.6270  178.3630  143.0420 C   0  0  0  0  0  0  0  0  0  0  0  0
  191.6320  176.2820  145.5670 C   0  0  1  0  0  3  0  0  0  0  0  0
  188.1720  178.0690  143.8040 C   0  0  2  0  0  3  0  0  0  0  0  0
  192.0320  175.3540  144.4090 C   0  0  0  0  0  2  0  0  0  0  0  0
  188.7860  176.8150  143.1500 C   0  0  2  0  0  3  0  0  0  0  0  0
  190.9510  175.5490  143.3900 C   0  0  0  0  0  3  0  0  0  0  0  0
  190.0550  176.4050  143.8520 C   0  0  0  0  0  0  0  0  0  0  0  0
  190.3440  176.8200  145.1720 N   0  0  0  0  0  0  0  0  0  0  0  0
  189.6750  177.9460  145.8090 C   0  0  0  0  0  2  0  0  0  0  0  0
  188.2270  178.0160  145.3320 C   0  0  0  0  0  2  0  0  0  0  0  0
  190.4020  175.9530  147.6210 O   0  0  0  0  0  1  0  0  0  0  0  0
  191.5430  175.5580  146.9180 C   0  0  2  0  0  3  0  0  0  0  0  0
  192.7140  176.8300  148.6750 N   0  0  0  0  0  1  0  0  0  0  0  0
  192.7960  175.6790  147.7900 C   0  0  0  0  0  2  0  0  0  0  0  0
  189.0400  177.0750  141.7220 C   0  0  0  0  0  0  0  0  0  0  0  0
  189.2380  177.2780  140.6010 N   0  0  0  0  0  0  0  0  0  0  0  0
  1 10  2  0  0  0  0
  1  9  1  0  0  0  0
  4  7  1  0  0  0  0
  5  2  2  0  0  0  0
  6  4  1  0  0  0  0
  6 12  1  0  0  0  0
  7  5  1  0  0  0  0
  7  3  1  0  0  0  0
  8  5  1  0  0  0  0
  9  6  2  0  0  0  0
 10 11  1  0  0  0  0
 11  8  1  0  0  0  0
 11  4  2  0  0  0  0
 12 22  1  0  0  0  0
 12  3  2  0  0  0  0
 13 10  1  0  0  0  0
 14 13  1  0  0  0  0
 15 13  1  0  0  0  0
 15 17  2  0  0  0  0
 16 17  1  0  0  0  0
 18 16  2  0  0  0  0
 19 18  1  0  0  0  0
 20 18  1  0  0  0  0
 20 15  1  0  0  0  0
 22 21  3  0  0  0  0
 23 33  1  1  0  0  0
 24 21  1  1  0  0  0
 24 31  1  0  0  0  0
 25 23  1  0  0  0  0
 26 36  1  6  0  0  0
 26 24  1  0  0  0  0
 26 28  1  0  0  0  0
 27 28  2  0  0  0  0
 27 25  1  0  0  0  0
 28 29  1  0  0  0  0
 29 23  1  0  0  0  0
 29 30  1  0  0  0  0
 31 30  1  0  0  0  0
 33 32  1  1  0  0  0
 33 35  1  0  0  0  0
 35 34  1  0  0  0  0
 37 36  3  0  0  0  0
M  END
>  <MODEL>
1

>  <REMARK>
 VINA RESULT:      -8.5      0.000      0.000
  Name = 
  6 active torsions:
  status: ('A' for Active; 'I' for Inactive)
    1  A    between atoms: C_3  and  C_21
    2  A    between atoms: N_4  and  C_31
    3  A    between atoms: C_5  and  C_13
    4  A    between atoms: C_7  and  C_11
    5  A    between atoms: C_21  and  C_24
    6  A    between atoms: C_34  and  C_35
                            x       y       z     vdW  Elec       q    Type
                         _______ _______ _______ _____ _____    ______ ____

>  <TORSDO>
F 6

$$$$
=
 OpenBabel11062412243D

 37 42  0  0  1  0  0  0  0  0999 V2000
  182.6790  179.4690  138.7200 C   0  0  0  0  0  3  0  0  0  0  0  0
  178.9330  180.4220  143.2960 O   0  0  0  0  0  0  0  0  0  0  0  0
  181.7630  179.1590  143.1980 C   0  0  0  0  0  3  0  0  0  0  0  0
  181.3960  179.5470  141.1090 C   0  0  0  0  0  0  0  0  0  0  0  0
  179.6440  180.2100  142.2790 C   0  0  0  0  0  0  0  0  0  0  0  0
  182.6380  179.0540  141.1000 C   0  0  0  0  0  0  0  0  0  0  0  0
  180.8620  179.6300  142.3080 N   0  0  0  0  0  0  0  0  0  0  0  0
  179.2490  180.6360  140.6620 S   0  0  0  0  0  0  0  0  0  0  0  0
  183.3440  178.9930  139.8920 C   0  0  0  0  0  3  0  0  0  0  0  0
  181.3440  179.9910  138.7740 C   0  0  0  0  0  0  0  0  0  0  0  0
  180.7180  180.0240  140.0360 C   0  0  0  0  0  0  0  0  0  0  0  0
  182.9000  178.7770  142.4430 C   0  0  0  0  0  0  0  0  0  0  0  0
  180.7040  180.4980  137.5930 N   0  0  0  0  0  0  0  0  0  0  0  0
  179.8010  179.6300  136.8510 C   0  0  0  0  0  1  0  0  0  0  0  0
  180.8530  181.8650  137.1800 C   0  0  0  0  0  0  0  0  0  0  0  0
  181.3320  183.9460  137.2570 N   0  0  0  0  0  0  0  0  0  0  0  0
  181.3920  182.8260  137.9540 N   0  0  0  0  0  0  0  0  0  0  0  0
  180.7520  183.6350  136.0840 C   0  0  0  0  0  0  0  0  0  0  0  0
  180.4930  184.6280  135.0070 C   0  0  0  0  0  1  0  0  0  0  0  0
  180.4250  182.3330  135.9890 N   0  0  0  0  0  2  0  0  0  0  0  0
  185.1530  177.8110  143.4290 C   0  0  0  0  0  0  0  0  0  0  0  0
  184.1250  178.2530  142.9770 C   0  0  0  0  0  0  0  0  0  0  0  0
  190.5280  177.0840  145.0780 C   0  0  1  0  0  3  0  0  0  0  0  0
  186.4010  177.2710  143.9770 C   0  0  2  0  0  3  0  0  0  0  0  0
  190.4490  177.8450  146.4110 C   0  0  0  0  0  2  0  0  0  0  0  0
  186.9160  178.1690  145.1210 C   0  0  2  0  0  3  0  0  0  0  0  0
  189.0170  178.2740  146.5060 C   0  0  0  0  0  3  0  0  0  0  0  0
  188.3620  177.8780  145.4280 C   0  0  0  0  0  0  0  0  0  0  0  0
  189.2090  177.2380  144.4940 N   0  0  0  0  0  0  0  0  0  0  0  0
  188.7000  176.4800  143.3590 C   0  0  0  0  0  2  0  0  0  0  0  0
  187.4200  177.1290  142.8440 C   0  0  0  0  0  2  0  0  0  0  0  0
  191.3570  178.9420  143.7760 O   0  0  0  0  0  1  0  0  0  0  0  0
  191.6190  177.6190  144.1400 C   0  0  2  0  0  3  0  0  0  0  0  0
  191.6820  177.5030  141.6790 N   0  0  0  0  0  1  0  0  0  0  0  0
  191.8830  176.7510  142.9070 C   0  0  0  0  0  2  0  0  0  0  0  0
  186.0780  177.9770  146.3170 C   0  0  0  0  0  0  0  0  0  0  0  0
  185.4200  177.8270  147.2560 N   0  0  0  0  0  0  0  0  0  0  0  0
  1 10  2  0  0  0  0
  1  9  1  0  0  0  0
  4  7  1  0  0  0  0
  5  7  1  0  0  0  0
  5  2  2  0  0  0  0
  6  4  1  0  0  0  0
  6 12  1  0  0  0  0
  7  3  1  0  0  0  0
  8  5  1  0  0  0  0
  9  6  2  0  0  0  0
 10 11  1  0  0  0  0
 11  8  1  0  0  0  0
 11  4  2  0  0  0  0
 12 22  1  0  0  0  0
 12  3  2  0  0  0  0
 13 10  1  0  0  0  0
 14 13  1  0  0  0  0
 15 13  1  0  0  0  0
 15 17  2  0  0  0  0
 16 17  1  0  0  0  0
 18 16  2  0  0  0  0
 19 18  1  0  0  0  0
 20 18  1  0  0  0  0
 20 15  1  0  0  0  0
 22 21  3  0  0  0  0
 23 33  1  6  0  0  0
 23 25  1  0  0  0  0
 24 21  1  6  0  0  0
 24 26  1  0  0  0  0
 25 27  1  0  0  0  0
 26 28  1  0  0  0  0
 26 36  1  1  0  0  0
 28 27  2  0  0  0  0
 29 23  1  0  0  0  0
 29 28  1  0  0  0  0
 30 29  1  0  0  0  0
 31 30  1  0  0  0  0
 31 24  1  0  0  0  0
 33 32  1  6  0  0  0
 34 35  1  0  0  0  0
 35 33  1  0  0  0  0
 36 37  3  0  0  0  0
M  END
>  <MODEL>
2

>  <REMARK>
 VINA RESULT:      -8.4      1.860      2.932
  Name = 
  6 active torsions:
  status: ('A' for Active; 'I' for Inactive)
    1  A    between atoms: C_3  and  C_21
    2  A    between atoms: N_4  and  C_31
    3  A    between atoms: C_5  and  C_13
    4  A    between atoms: C_7  and  C_11
    5  A    between atoms: C_21  and  C_24
    6  A    between atoms: C_34  and  C_35
                            x       y       z     vdW  Elec       q    Type
                         _______ _______ _______ _____ _____    ______ ____

>  <TORSDO>
F 6

$$$$
=
 OpenBabel11062412243D

 37 42  0  0  1  0  0  0  0  0999 V2000
  188.7930  177.0790  142.8480 C   0  0  0  0  0  3  0  0  0  0  0  0
  184.8880  179.3920  138.9380 O   0  0  0  0  0  0  0  0  0  0  0  0
  187.6510  178.0490  138.5190 C   0  0  0  0  0  3  0  0  0  0  0  0
  187.4970  178.0450  140.6690 C   0  0  0  0  0  0  0  0  0  0  0  0
  185.6790  178.9700  139.8230 C   0  0  0  0  0  0  0  0  0  0  0  0
  188.6580  177.4170  140.4590 C   0  0  0  0  0  0  0  0  0  0  0  0
  186.8830  178.4170  139.5680 N   0  0  0  0  0  0  0  0  0  0  0  0
  185.3940  178.9700  141.5170 S   0  0  0  0  0  0  0  0  0  0  0  0
  189.3650  176.8980  141.5510 C   0  0  0  0  0  3  0  0  0  0  0  0
  187.5440  177.7590  143.0290 C   0  0  0  0  0  0  0  0  0  0  0  0
  186.8980  178.2360  141.8710 C   0  0  0  0  0  0  0  0  0  0  0  0
  188.7940  177.4170  139.0700 C   0  0  0  0  0  0  0  0  0  0  0  0
  186.9650  177.9010  144.3360 N   0  0  0  0  0  0  0  0  0  0  0  0
  185.5210  178.0320  144.4590 C   0  0  0  0  0  1  0  0  0  0  0  0
  187.7620  177.8180  145.5270 C   0  0  0  0  0  0  0  0  0  0  0  0
  189.4240  177.4160  146.8090 N   0  0  0  0  0  0  0  0  0  0  0  0
  189.0370  177.3820  145.5470 N   0  0  0  0  0  0  0  0  0  0  0  0
  188.3730  177.8640  147.5200 C   0  0  0  0  0  0  0  0  0  0  0  0
  188.3970  178.0440  148.9960 C   0  0  0  0  0  1  0  0  0  0  0  0
  187.2970  178.1260  146.7550 N   0  0  0  0  0  2  0  0  0  0  0  0
  190.7770  176.3370  137.6980 C   0  0  0  0  0  0  0  0  0  0  0  0
  189.8720  176.8310  138.3230 C   0  0  0  0  0  0  0  0  0  0  0  0
  195.4420  173.5130  136.1470 C   0  0  1  0  0  3  0  0  0  0  0  0
  191.8750  175.7340  136.9360 C   0  0  2  0  0  3  0  0  0  0  0  0
  194.8330  172.1030  136.0940 C   0  0  0  0  0  2  0  0  0  0  0  0
  191.8550  174.2000  137.0910 C   0  0  2  0  0  3  0  0  0  0  0  0
  193.3870  172.3140  136.4260 C   0  0  0  0  0  3  0  0  0  0  0  0
  193.1680  173.5960  136.6640 C   0  0  0  0  0  0  0  0  0  0  0  0
  194.3550  174.3600  136.6020 N   0  0  0  0  0  0  0  0  0  0  0  0
  194.3540  175.8160  136.5610 C   0  0  0  0  0  2  0  0  0  0  0  0
  193.1970  176.3500  137.3990 C   0  0  0  0  0  2  0  0  0  0  0  0
  196.2490  173.7220  138.4150 O   0  0  0  0  0  1  0  0  0  0  0  0
  196.6550  173.6120  137.0830 C   0  0  2  0  0  3  0  0  0  0  0  0
  198.1130  175.4220  137.9050 N   0  0  0  0  0  1  0  0  0  0  0  0
  197.6530  174.7150  136.7200 C   0  0  0  0  0  2  0  0  0  0  0  0
  190.7420  173.6370  136.3080 C   0  0  0  0  0  0  0  0  0  0  0  0
  189.8690  173.1930  135.6920 N   0  0  0  0  0  0  0  0  0  0  0  0
  1 10  1  0  0  0  0
  2  5  2  0  0  0  0
  3 12  2  0  0  0  0
  3  7  1  0  0  0  0
  4 11  1  0  0  0  0
  5  8  1  0  0  0  0
  6  4  2  0  0  0  0
  6  9  1  0  0  0  0
  7  5  1  0  0  0  0
  7  4  1  0  0  0  0
  8 11  1  0  0  0  0
  9  1  2  0  0  0  0
 10 13  1  0  0  0  0
 11 10  2  0  0  0  0
 12  6  1  0  0  0  0
 13 14  1  0  0  0  0
 13 15  1  0  0  0  0
 15 17  2  0  0  0  0
 15 20  1  0  0  0  0
 16 18  2  0  0  0  0
 17 16  1  0  0  0  0
 18 19  1  0  0  0  0
 20 18  1  0  0  0  0
 21 22  3  0  0  0  0
 22 12  1  0  0  0  0
 23 29  1  0  0  0  0
 23 33  1  1  0  0  0
 24 26  1  0  0  0  0
 24 31  1  0  0  0  0
 24 21  1  1  0  0  0
 25 23  1  0  0  0  0
 25 27  1  0  0  0  0
 26 36  1  6  0  0  0
 27 28  2  0  0  0  0
 28 26  1  0  0  0  0
 29 28  1  0  0  0  0
 30 29  1  0  0  0  0
 30 31  1  0  0  0  0
 33 32  1  1  0  0  0
 35 33  1  0  0  0  0
 35 34  1  0  0  0  0
 37 36  3  0  0  0  0
M  END
>  <MODEL>
3

>  <REMARK>
 VINA RESULT:      -7.6      5.585      9.225
  Name = 
  6 active torsions:
  status: ('A' for Active; 'I' for Inactive)
    1  A    between atoms: C_3  and  C_21
    2  A    between atoms: N_4  and  C_31
    3  A    between atoms: C_5  and  C_13
    4  A    between atoms: C_7  and  C_11
    5  A    between atoms: C_21  and  C_24
    6  A    between atoms: C_34  and  C_35
                            x       y       z     vdW  Elec       q    Type
                         _______ _______ _______ _____ _____    ______ ____

>  <TORSDO>
F 6

$$$$
=
 OpenBabel11062412243D

 37 42  0  0  1  0  0  0  0  0999 V2000
  188.9490  177.7050  138.3830 C   0  0  0  0  0  3  0  0  0  0  0  0
  188.2470  177.6060  144.3310 O   0  0  0  0  0  0  0  0  0  0  0  0
  186.3200  178.4600  142.0580 C   0  0  0  0  0  3  0  0  0  0  0  0
  188.1020  177.9760  140.9460 C   0  0  0  0  0  0  0  0  0  0  0  0
  188.4870  177.6450  143.0950 C   0  0  0  0  0  0  0  0  0  0  0  0
  187.2340  178.2930  139.9800 C   0  0  0  0  0  0  0  0  0  0  0  0
  187.6040  178.0530  142.1600 N   0  0  0  0  0  0  0  0  0  0  0  0
  189.9480  177.1610  142.3320 S   0  0  0  0  0  0  0  0  0  0  0  0
  187.6220  178.1700  138.6400 C   0  0  0  0  0  3  0  0  0  0  0  0
  189.8490  177.3760  139.4490 C   0  0  0  0  0  0  0  0  0  0  0  0
  189.3670  177.5200  140.7650 C   0  0  0  0  0  0  0  0  0  0  0  0
  186.0690  178.6280  140.6720 C   0  0  0  0  0  0  0  0  0  0  0  0
  191.1670  176.8780  139.1720 N   0  0  0  0  0  0  0  0  0  0  0  0
  192.3100  177.5030  139.8210 C   0  0  0  0  0  1  0  0  0  0  0  0
  191.3790  175.7190  138.3500 C   0  0  0  0  0  0  0  0  0  0  0  0
  190.9710  173.9290  137.2570 N   0  0  0  0  0  0  0  0  0  0  0  0
  190.3950  174.8820  137.9680 N   0  0  0  0  0  0  0  0  0  0  0  0
  192.2860  174.2100  137.2340 C   0  0  0  0  0  0  0  0  0  0  0  0
  193.2930  173.3690  136.5330 C   0  0  0  0  0  1  0  0  0  0  0  0
  192.5950  175.3290  137.9150 N   0  0  0  0  0  2  0  0  0  0  0  0
  183.7660  179.3480  139.5960 C   0  0  0  0  0  0  0  0  0  0  0  0
  184.8170  179.0170  140.0870 C   0  0  0  0  0  0  0  0  0  0  0  0
  179.7410  181.2600  136.0910 C   0  0  1  0  0  3  0  0  0  0  0  0
  182.4890  179.7510  138.9970 C   0  0  2  0  0  3  0  0  0  0  0  0
  179.5540  179.9810  135.2600 C   0  0  0  0  0  2  0  0  0  0  0  0
  182.2100  178.9240  137.7260 C   0  0  2  0  0  3  0  0  0  0  0  0
  180.4900  178.9930  135.8880 C   0  0  0  0  0  3  0  0  0  0  0  0
  181.1380  179.5690  136.8850 C   0  0  0  0  0  0  0  0  0  0  0  0
  180.8120  180.9380  137.0150 N   0  0  0  0  0  0  0  0  0  0  0  0
  181.1770  181.7280  138.1830 C   0  0  0  0  0  2  0  0  0  0  0  0
  182.5250  181.2550  138.7190 C   0  0  0  0  0  2  0  0  0  0  0  0
  181.3580  182.3530  134.6670 O   0  0  0  0  0  1  0  0  0  0  0  0
  180.0900  182.4880  135.2390 C   0  0  2  0  0  3  0  0  0  0  0  0
  181.1800  184.6060  135.8740 N   0  0  0  0  0  1  0  0  0  0  0  0
  179.9550  183.8280  135.9670 C   0  0  0  0  0  2  0  0  0  0  0  0
  181.8260  177.5520  138.1010 C   0  0  0  0  0  0  0  0  0  0  0  0
  181.5250  176.4750  138.3960 N   0  0  0  0  0  0  0  0  0  0  0  0
  1  9  2  0  0  0  0
  1 10  1  0  0  0  0
  3  7  1  0  0  0  0
  4  7  1  0  0  0  0
  5  2  2  0  0  0  0
  6 12  1  0  0  0  0
  6  4  2  0  0  0  0
  7  5  1  0  0  0  0
  8  5  1  0  0  0  0
  9  6  1  0  0  0  0
 10 11  2  0  0  0  0
 11  4  1  0  0  0  0
 11  8  1  0  0  0  0
 12  3  2  0  0  0  0
 13 10  1  0  0  0  0
 13 14  1  0  0  0  0
 15 13  1  0  0  0  0
 16 17  1  0  0  0  0
 17 15  2  0  0  0  0
 18 16  2  0  0  0  0
 18 20  1  0  0  0  0
 19 18  1  0  0  0  0
 20 15  1  0  0  0  0
 21 22  3  0  0  0  0
 22 12  1  0  0  0  0
 23 33  1  6  0  0  0
 23 29  1  0  0  0  0
 24 21  1  6  0  0  0
 25 27  1  0  0  0  0
 25 23  1  0  0  0  0
 26 36  1  1  0  0  0
 26 24  1  0  0  0  0
 27 28  2  0  0  0  0
 28 29  1  0  0  0  0
 28 26  1  0  0  0  0
 29 30  1  0  0  0  0
 30 31  1  0  0  0  0
 31 24  1  0  0  0  0
 33 32  1  1  0  0  0
 33 35  1  0  0  0  0
 34 35  1  0  0  0  0
 36 37  3  0  0  0  0
M  END
>  <MODEL>
4

>  <REMARK>
 VINA RESULT:      -7.3      3.739     11.334
  Name = 
  6 active torsions:
  status: ('A' for Active; 'I' for Inactive)
    1  A    between atoms: C_3  and  C_21
    2  A    between atoms: N_4  and  C_31
    3  A    between atoms: C_5  and  C_13
    4  A    between atoms: C_7  and  C_11
    5  A    between atoms: C_21  and  C_24
    6  A    between atoms: C_34  and  C_35
                            x       y       z     vdW  Elec       q    Type
                         _______ _______ _______ _____ _____    ______ ____

>  <TORSDO>
F 6

$$$$
=
 OpenBabel11062412243D

 37 42  0  0  1  0  0  0  0  0999 V2000
  188.6850  177.8240  142.6400 C   0  0  0  0  0  3  0  0  0  0  0  0
  184.9370  178.6270  147.2430 O   0  0  0  0  0  0  0  0  0  0  0  0
  184.4050  178.2830  144.2090 C   0  0  0  0  0  3  0  0  0  0  0  0
  186.5600  178.2630  144.2690 C   0  0  0  0  0  0  0  0  0  0  0  0
  185.7890  178.5100  146.3230 C   0  0  0  0  0  0  0  0  0  0  0  0
  186.3030  178.0570  142.9730 C   0  0  0  0  0  0  0  0  0  0  0  0
  185.4840  178.3890  145.0140 N   0  0  0  0  0  0  0  0  0  0  0  0
  187.4940  178.4420  146.5250 S   0  0  0  0  0  0  0  0  0  0  0  0
  187.3650  177.8250  142.0910 C   0  0  0  0  0  3  0  0  0  0  0  0
  188.9160  178.0490  144.0370 C   0  0  0  0  0  0  0  0  0  0  0  0
  187.7850  178.2610  144.8500 C   0  0  0  0  0  0  0  0  0  0  0  0
  184.9090  178.0800  142.8990 C   0  0  0  0  0  0  0  0  0  0  0  0
  190.2460  178.0100  144.5770 N   0  0  0  0  0  0  0  0  0  0  0  0
  191.2530  178.9150  144.0430 C   0  0  0  0  0  1  0  0  0  0  0  0
  190.5830  177.1730  145.6950 C   0  0  0  0  0  0  0  0  0  0  0  0
  190.3470  175.9060  147.3990 N   0  0  0  0  0  0  0  0  0  0  0  0
  189.6710  176.5470  146.4640 N   0  0  0  0  0  0  0  0  0  0  0  0
  191.6480  176.1650  147.1770 C   0  0  0  0  0  0  0  0  0  0  0  0
  192.7480  175.6280  148.0200 C   0  0  0  0  0  1  0  0  0  0  0  0
  191.8480  176.9670  146.1140 N   0  0  0  0  0  2  0  0  0  0  0  0
  183.4570  177.7050  140.7240 C   0  0  0  0  0  0  0  0  0  0  0  0
  184.1190  177.8780  141.7170 C   0  0  0  0  0  0  0  0  0  0  0  0
  180.6430  175.4090  136.3710 C   0  0  1  0  0  3  0  0  0  0  0  0
  182.6510  177.4930  139.5170 C   0  0  2  0  0  3  0  0  0  0  0  0
  179.3460  175.0540  137.1160 C   0  0  0  0  0  2  0  0  0  0  0  0
  181.4010  176.6540  139.8490 C   0  0  2  0  0  3  0  0  0  0  0  0
  179.5710  175.5610  138.5080 C   0  0  0  0  0  3  0  0  0  0  0  0
  180.7780  176.0920  138.5980 C   0  0  0  0  0  0  0  0  0  0  0  0
  181.5080  175.9640  137.3940 N   0  0  0  0  0  0  0  0  0  0  0  0
  182.7460  176.6900  137.1420 C   0  0  0  0  0  2  0  0  0  0  0  0
  183.5250  176.8380  138.4450 C   0  0  0  0  0  2  0  0  0  0  0  0
  180.4720  173.7000  134.6720 O   0  0  0  0  0  1  0  0  0  0  0  0
  181.2950  174.2020  135.6840 C   0  0  2  0  0  3  0  0  0  0  0  0
  183.1870  173.0240  136.7380 N   0  0  0  0  0  1  0  0  0  0  0  0
  181.7370  173.0880  136.6360 C   0  0  0  0  0  2  0  0  0  0  0  0
  180.4320  177.4810  140.5890 C   0  0  0  0  0  0  0  0  0  0  0  0
  179.6720  178.1300  141.1710 N   0  0  0  0  0  0  0  0  0  0  0  0
  1 10  1  0  0  0  0
  3  7  1  0  0  0  0
  4 11  1  0  0  0  0
  4  7  1  0  0  0  0
  5  8  1  0  0  0  0
  5  2  2  0  0  0  0
  6  4  2  0  0  0  0
  7  5  1  0  0  0  0
  9  1  2  0  0  0  0
  9  6  1  0  0  0  0
 10 13  1  0  0  0  0
 10 11  2  0  0  0  0
 11  8  1  0  0  0  0
 12  6  1  0  0  0  0
 12  3  2  0  0  0  0
 13 15  1  0  0  0  0
 14 13  1  0  0  0  0
 15 20  1  0  0  0  0
 15 17  2  0  0  0  0
 17 16  1  0  0  0  0
 18 16  2  0  0  0  0
 18 19  1  0  0  0  0
 20 18  1  0  0  0  0
 21 22  3  0  0  0  0
 22 12  1  0  0  0  0
 23 33  1  1  0  0  0
 23 25  1  0  0  0  0
 23 29  1  0  0  0  0
 24 26  1  0  0  0  0
 24 21  1  1  0  0  0
 25 27  1  0  0  0  0
 26 36  1  6  0  0  0
 27 28  2  0  0  0  0
 28 26  1  0  0  0  0
 29 28  1  0  0  0  0
 30 29  1  0  0  0  0
 30 31  1  0  0  0  0
 31 24  1  0  0  0  0
 33 32  1  6  0  0  0
 33 35  1  0  0  0  0
 35 34  1  0  0  0  0
 36 37  3  0  0  0  0
M  END
>  <MODEL>
5

>  <REMARK>
 VINA RESULT:      -7.2      3.613     11.023
  Name = 
  6 active torsions:
  status: ('A' for Active; 'I' for Inactive)
    1  A    between atoms: C_3  and  C_21
    2  A    between atoms: N_4  and  C_31
    3  A    between atoms: C_5  and  C_13
    4  A    between atoms: C_7  and  C_11
    5  A    between atoms: C_21  and  C_24
    6  A    between atoms: C_34  and  C_35
                            x       y       z     vdW  Elec       q    Type
                         _______ _______ _______ _____ _____    ______ ____

>  <TORSDO>
F 6

$$$$
=
 OpenBabel11062412243D

 37 42  0  0  1  0  0  0  0  0999 V2000
  183.8560  178.9180  138.9520 C   0  0  0  0  0  3  0  0  0  0  0  0
  184.8530  178.7220  144.8560 O   0  0  0  0  0  0  0  0  0  0  0  0
  186.7460  178.2570  142.4450 C   0  0  0  0  0  3  0  0  0  0  0  0
  184.8630  178.5890  141.4500 C   0  0  0  0  0  0  0  0  0  0  0  0
  184.5550  178.7330  143.6320 C   0  0  0  0  0  0  0  0  0  0  0  0
  185.7100  178.4430  140.4270 C   0  0  0  0  0  0  0  0  0  0  0  0
  185.4290  178.4960  142.6330 N   0  0  0  0  0  0  0  0  0  0  0  0
  183.0080  179.0830  142.9710 S   0  0  0  0  0  0  0  0  0  0  0  0
  185.2410  178.6040  139.1180 C   0  0  0  0  0  3  0  0  0  0  0  0
  182.9810  179.0660  140.0780 C   0  0  0  0  0  0  0  0  0  0  0  0
  183.5450  178.8990  141.3580 C   0  0  0  0  0  0  0  0  0  0  0  0
  186.9420  178.2100  141.0420 C   0  0  0  0  0  0  0  0  0  0  0  0
  181.6000  179.4170  139.8950 N   0  0  0  0  0  0  0  0  0  0  0  0
  180.5780  178.6490  140.5910 C   0  0  0  0  0  1  0  0  0  0  0  0
  181.2080  180.5630  139.1240 C   0  0  0  0  0  0  0  0  0  0  0  0
  181.3420  182.4140  138.0660 N   0  0  0  0  0  0  0  0  0  0  0  0
  182.0640  181.5170  138.7110 N   0  0  0  0  0  0  0  0  0  0  0  0
  180.0680  181.9850  138.1110 C   0  0  0  0  0  0  0  0  0  0  0  0
  178.9310  182.7210  137.4990 C   0  0  0  0  0  1  0  0  0  0  0  0
  179.9310  180.8210  138.7750 N   0  0  0  0  0  2  0  0  0  0  0  0
  189.2530  177.8490  139.8130 C   0  0  0  0  0  0  0  0  0  0  0  0
  188.1990  178.0150  140.3760 C   0  0  0  0  0  0  0  0  0  0  0  0
  193.9660  175.6190  137.5870 C   0  0  1  0  0  3  0  0  0  0  0  0
  190.5340  177.6500  139.1280 C   0  0  2  0  0  3  0  0  0  0  0  0
  193.3580  175.0930  136.2770 C   0  0  0  0  0  2  0  0  0  0  0  0
  190.3630  176.6770  137.9450 C   0  0  2  0  0  3  0  0  0  0  0  0
  191.9220  175.5170  136.3420 C   0  0  0  0  0  3  0  0  0  0  0  0
  191.6970  176.1500  137.4800 C   0  0  0  0  0  0  0  0  0  0  0  0
  192.8390  176.1770  138.3110 N   0  0  0  0  0  0  0  0  0  0  0  0
  192.9390  177.0310  139.4870 C   0  0  0  0  0  2  0  0  0  0  0  0
  191.5680  177.1570  140.1440 C   0  0  0  0  0  2  0  0  0  0  0  0
  195.8850  174.9970  138.9160 O   0  0  0  0  0  1  0  0  0  0  0  0
  194.6710  174.5300  138.4060 C   0  0  2  0  0  3  0  0  0  0  0  0
  195.5890  172.2430  138.4880 N   0  0  0  0  0  1  0  0  0  0  0  0
  194.8590  173.2000  137.6710 C   0  0  0  0  0  2  0  0  0  0  0  0
  189.6570  177.3550  136.8440 C   0  0  0  0  0  0  0  0  0  0  0  0
  189.1010  177.8880  135.9810 N   0  0  0  0  0  0  0  0  0  0  0  0
  1  9  2  0  0  0  0
  1 10  1  0  0  0  0
  3  7  1  0  0  0  0
  4  7  1  0  0  0  0
  5  2  2  0  0  0  0
  6 12  1  0  0  0  0
  6  4  2  0  0  0  0
  7  5  1  0  0  0  0
  8  5  1  0  0  0  0
  9  6  1  0  0  0  0
 10 11  2  0  0  0  0
 11  4  1  0  0  0  0
 11  8  1  0  0  0  0
 12  3  2  0  0  0  0
 13 10  1  0  0  0  0
 13 14  1  0  0  0  0
 15 13  1  0  0  0  0
 16 18  2  0  0  0  0
 16 17  1  0  0  0  0
 17 15  2  0  0  0  0
 18 20  1  0  0  0  0
 19 18  1  0  0  0  0
 20 15  1  0  0  0  0
 21 22  3  0  0  0  0
 22 12  1  0  0  0  0
 23 29  1  0  0  0  0
 23 33  1  1  0  0  0
 24 21  1  1  0  0  0
 24 31  1  0  0  0  0
 25 27  1  0  0  0  0
 25 23  1  0  0  0  0
 26 36  1  6  0  0  0
 26 24  1  0  0  0  0
 27 28  2  0  0  0  0
 28 26  1  0  0  0  0
 28 29  1  0  0  0  0
 29 30  1  0  0  0  0
 30 31  1  0  0  0  0
 33 32  1  6  0  0  0
 35 33  1  0  0  0  0
 35 34  1  0  0  0  0
 37 36  3  0  0  0  0
M  END
>  <MODEL>
6

>  <REMARK>
 VINA RESULT:      -7.1      4.151      5.414
  Name = 
  6 active torsions:
  status: ('A' for Active; 'I' for Inactive)
    1  A    between atoms: C_3  and  C_21
    2  A    between atoms: N_4  and  C_31
    3  A    between atoms: C_5  and  C_13
    4  A    between atoms: C_7  and  C_11
    5  A    between atoms: C_21  and  C_24
    6  A    between atoms: C_34  and  C_35
                            x       y       z     vdW  Elec       q    Type
                         _______ _______ _______ _____ _____    ______ ____

>  <TORSDO>
F 6

$$$$
=
 OpenBabel11062412243D

 37 42  0  0  1  0  0  0  0  0999 V2000
  193.5270  176.4370  138.2090 C   0  0  0  0  0  3  0  0  0  0  0  0
  189.2760  174.1390  134.6690 O   0  0  0  0  0  0  0  0  0  0  0  0
  189.0920  175.6640  137.3620 C   0  0  0  0  0  3  0  0  0  0  0  0
  191.2270  175.5290  137.0930 C   0  0  0  0  0  0  0  0  0  0  0  0
  190.2270  174.5520  135.3840 C   0  0  0  0  0  0  0  0  0  0  0  0
  191.1190  176.2360  138.2230 C   0  0  0  0  0  0  0  0  0  0  0  0
  190.0730  175.1890  136.5630 N   0  0  0  0  0  0  0  0  0  0  0  0
  191.9000  174.4340  135.0100 S   0  0  0  0  0  0  0  0  0  0  0  0
  192.2770  176.7280  138.8380 C   0  0  0  0  0  3  0  0  0  0  0  0
  193.5980  175.6750  136.9960 C   0  0  0  0  0  0  0  0  0  0  0  0
  192.3800  175.2320  136.4440 C   0  0  0  0  0  0  0  0  0  0  0  0
  189.7420  176.3270  138.4330 C   0  0  0  0  0  0  0  0  0  0  0  0
  194.8590  175.4210  136.3590 N   0  0  0  0  0  0  0  0  0  0  0  0
  195.3320  176.3420  135.3360 C   0  0  0  0  0  1  0  0  0  0  0  0
  195.7110  174.3410  136.7720 C   0  0  0  0  0  0  0  0  0  0  0  0
  196.5140  172.7580  137.9610 N   0  0  0  0  0  0  0  0  0  0  0  0
  195.5280  173.6340  137.9040 N   0  0  0  0  0  0  0  0  0  0  0  0
  197.2710  172.9620  136.8680 C   0  0  0  0  0  0  0  0  0  0  0  0
  198.4940  172.1750  136.5570 C   0  0  0  0  0  1  0  0  0  0  0  0
  196.8070  173.9560  136.0870 N   0  0  0  0  0  2  0  0  0  0  0  0
  188.5500  177.6020  140.4160 C   0  0  0  0  0  0  0  0  0  0  0  0
  189.0930  177.0190  139.5100 C   0  0  0  0  0  0  0  0  0  0  0  0
  184.9090  179.2880  144.4210 C   0  0  1  0  0  3  0  0  0  0  0  0
  187.8890  178.3120  141.5160 C   0  0  2  0  0  3  0  0  0  0  0  0
  185.3080  178.2830  145.5120 C   0  0  0  0  0  2  0  0  0  0  0  0
  187.6610  177.3610  142.7070 C   0  0  2  0  0  3  0  0  0  0  0  0
  186.4330  177.5030  144.9020 C   0  0  0  0  0  3  0  0  0  0  0  0
  186.6530  177.9320  143.6710 C   0  0  0  0  0  0  0  0  0  0  0  0
  185.7340  178.9330  143.2820 N   0  0  0  0  0  0  0  0  0  0  0  0
  185.9170  179.7520  142.0920 C   0  0  0  0  0  2  0  0  0  0  0  0
  186.5850  178.9230  140.9990 C   0  0  0  0  0  2  0  0  0  0  0  0
  182.6830  178.6270  145.0890 O   0  0  0  0  0  1  0  0  0  0  0  0
  183.4160  179.2350  144.0670 C   0  0  2  0  0  3  0  0  0  0  0  0
  181.7950  179.0020  142.2250 N   0  0  0  0  0  1  0  0  0  0  0  0
  183.1040  178.5960  142.7110 C   0  0  0  0  0  2  0  0  0  0  0  0
  188.9420  177.0990  143.3860 C   0  0  0  0  0  0  0  0  0  0  0  0
  189.9480  176.8930  143.9190 N   0  0  0  0  0  0  0  0  0  0  0  0
  1  9  1  0  0  0  0
  2  5  2  0  0  0  0
  3 12  2  0  0  0  0
  4  6  1  0  0  0  0
  5  7  1  0  0  0  0
  6 12  1  0  0  0  0
  6  9  2  0  0  0  0
  7  4  1  0  0  0  0
  7  3  1  0  0  0  0
  8  5  1  0  0  0  0
  8 11  1  0  0  0  0
 10  1  2  0  0  0  0
 11 10  1  0  0  0  0
 11  4  2  0  0  0  0
 12 22  1  0  0  0  0
 13 15  1  0  0  0  0
 13 10  1  0  0  0  0
 14 13  1  0  0  0  0
 15 17  2  0  0  0  0
 17 16  1  0  0  0  0
 18 16  2  0  0  0  0
 19 18  1  0  0  0  0
 20 15  1  0  0  0  0
 20 18  1  0  0  0  0
 22 21  3  0  0  0  0
 23 33  1  6  0  0  0
 23 25  1  0  0  0  0
 24 21  1  6  0  0  0
 24 26  1  0  0  0  0
 26 36  1  1  0  0  0
 26 28  1  0  0  0  0
 27 25  1  0  0  0  0
 28 27  2  0  0  0  0
 29 28  1  0  0  0  0
 29 23  1  0  0  0  0
 30 29  1  0  0  0  0
 31 24  1  0  0  0  0
 31 30  1  0  0  0  0
 33 32  1  1  0  0  0
 34 35  1  0  0  0  0
 35 33  1  0  0  0  0
 36 37  3  0  0  0  0
M  END
>  <MODEL>
7

>  <REMARK>
 VINA RESULT:      -7.0      6.049     11.250
  Name = 
  6 active torsions:
  status: ('A' for Active; 'I' for Inactive)
    1  A    between atoms: C_3  and  C_21
    2  A    between atoms: N_4  and  C_31
    3  A    between atoms: C_5  and  C_13
    4  A    between atoms: C_7  and  C_11
    5  A    between atoms: C_21  and  C_24
    6  A    between atoms: C_34  and  C_35
                            x       y       z     vdW  Elec       q    Type
                         _______ _______ _______ _____ _____    ______ ____

>  <TORSDO>
F 6

$$$$
=
 OpenBabel11062412243D

 37 42  0  0  1  0  0  0  0  0999 V2000
  188.1850  177.8600  142.4400 C   0  0  0  0  0  3  0  0  0  0  0  0
  184.8820  178.6710  147.3710 O   0  0  0  0  0  0  0  0  0  0  0  0
  184.0850  178.5060  144.3800 C   0  0  0  0  0  3  0  0  0  0  0  0
  186.2320  178.3500  144.2580 C   0  0  0  0  0  0  0  0  0  0  0  0
  185.6470  178.5460  146.3790 C   0  0  0  0  0  0  0  0  0  0  0  0
  185.8580  178.2230  142.9810 C   0  0  0  0  0  0  0  0  0  0  0  0
  185.2310  178.5070  145.0960 N   0  0  0  0  0  0  0  0  0  0  0  0
  187.3550  178.3640  146.4340 S   0  0  0  0  0  0  0  0  0  0  0  0
  186.8280  177.9680  142.0040 C   0  0  0  0  0  3  0  0  0  0  0  0
  188.5430  178.0030  143.8210 C   0  0  0  0  0  0  0  0  0  0  0  0
  187.4970  178.2460  144.7340 C   0  0  0  0  0  0  0  0  0  0  0  0
  184.4670  178.3350  143.0250 C   0  0  0  0  0  0  0  0  0  0  0  0
  189.9060  177.8560  144.2460 N   0  0  0  0  0  0  0  0  0  0  0  0
  190.9560  178.5390  143.5030 C   0  0  0  0  0  1  0  0  0  0  0  0
  190.2520  177.1370  145.4400 C   0  0  0  0  0  0  0  0  0  0  0  0
  190.0410  176.1480  147.3230 N   0  0  0  0  0  0  0  0  0  0  0  0
  189.3550  176.7470  146.3660 N   0  0  0  0  0  0  0  0  0  0  0  0
  191.3340  176.1990  146.9550 C   0  0  0  0  0  0  0  0  0  0  0  0
  192.4410  175.6330  147.7710 C   0  0  0  0  0  1  0  0  0  0  0  0
  191.5190  176.8190  145.7750 N   0  0  0  0  0  2  0  0  0  0  0  0
  182.8210  178.1540  140.9660 C   0  0  0  0  0  0  0  0  0  0  0  0
  183.5730  178.2390  141.9060 C   0  0  0  0  0  0  0  0  0  0  0  0
  179.9400  179.0940  136.1750 C   0  0  1  0  0  3  0  0  0  0  0  0
  181.9050  178.0510  139.8260 C   0  0  2  0  0  3  0  0  0  0  0  0
  180.9900  178.5650  135.1850 C   0  0  0  0  0  2  0  0  0  0  0  0
  182.6990  178.0030  138.5050 C   0  0  2  0  0  3  0  0  0  0  0  0
  182.1070  178.0780  136.0580 C   0  0  0  0  0  3  0  0  0  0  0  0
  181.8060  178.2970  137.3260 C   0  0  0  0  0  0  0  0  0  0  0  0
  180.5740  178.9730  137.4750 N   0  0  0  0  0  0  0  0  0  0  0  0
  179.8910  179.0960  138.7550 C   0  0  0  0  0  2  0  0  0  0  0  0
  180.9210  179.2220  139.8730 C   0  0  0  0  0  2  0  0  0  0  0  0
  178.9880  180.6650  134.6060 O   0  0  0  0  0  1  0  0  0  0  0  0
  179.5190  180.5430  135.8930 C   0  0  2  0  0  3  0  0  0  0  0  0
  180.2650  182.4680  137.2390 N   0  0  0  0  0  1  0  0  0  0  0  0
  180.6140  181.5840  136.1380 C   0  0  0  0  0  2  0  0  0  0  0  0
  183.3400  176.6850  138.3590 C   0  0  0  0  0  0  0  0  0  0  0  0
  183.8420  175.6490  138.2440 N   0  0  0  0  0  0  0  0  0  0  0  0
  1 10  1  0  0  0  0
  3  7  1  0  0  0  0
  4 11  1  0  0  0  0
  4  7  1  0  0  0  0
  5  8  1  0  0  0  0
  5  2  2  0  0  0  0
  6 12  1  0  0  0  0
  6  4  2  0  0  0  0
  7  5  1  0  0  0  0
  9  1  2  0  0  0  0
  9  6  1  0  0  0  0
 10 13  1  0  0  0  0
 10 11  2  0  0  0  0
 11  8  1  0  0  0  0
 12  3  2  0  0  0  0
 13 15  1  0  0  0  0
 14 13  1  0  0  0  0
 15 20  1  0  0  0  0
 15 17  2  0  0  0  0
 17 16  1  0  0  0  0
 18 16  2  0  0  0  0
 18 19  1  0  0  0  0
 20 18  1  0  0  0  0
 21 22  3  0  0  0  0
 22 12  1  0  0  0  0
 23 33  1  6  0  0  0
 23 29  1  0  0  0  0
 24 31  1  0  0  0  0
 24 21  1  1  0  0  0
 25 27  1  0  0  0  0
 25 23  1  0  0  0  0
 26 36  1  6  0  0  0
 26 24  1  0  0  0  0
 27 28  2  0  0  0  0
 28 29  1  0  0  0  0
 28 26  1  0  0  0  0
 29 30  1  0  0  0  0
 30 31  1  0  0  0  0
 33 32  1  6  0  0  0
 33 35  1  0  0  0  0
 35 34  1  0  0  0  0
 37 36  3  0  0  0  0
M  END
>  <MODEL>
8

>  <REMARK>
 VINA RESULT:      -6.7      2.925     11.156
  Name = 
  6 active torsions:
  status: ('A' for Active; 'I' for Inactive)
    1  A    between atoms: C_3  and  C_21
    2  A    between atoms: N_4  and  C_31
    3  A    between atoms: C_5  and  C_13
    4  A    between atoms: C_7  and  C_11
    5  A    between atoms: C_21  and  C_24
    6  A    between atoms: C_34  and  C_35
                            x       y       z     vdW  Elec       q    Type
                         _______ _______ _______ _____ _____    ______ ____

>  <TORSDO>
F 6

$$$$
=
 OpenBabel11062412243D

 37 42  0  0  1  0  0  0  0  0999 V2000
  188.3330  178.2300  142.5660 C   0  0  0  0  0  3  0  0  0  0  0  0
  190.3720  176.9210  137.0880 O   0  0  0  0  0  0  0  0  0  0  0  0
  187.5660  177.8020  138.0690 C   0  0  0  0  0  3  0  0  0  0  0  0
  188.6470  177.6680  139.9300 C   0  0  0  0  0  0  0  0  0  0  0  0
  190.0050  177.1330  138.2740 C   0  0  0  0  0  0  0  0  0  0  0  0
  187.4450  178.1040  140.3220 C   0  0  0  0  0  0  0  0  0  0  0  0
  188.7550  177.4910  138.6320 N   0  0  0  0  0  0  0  0  0  0  0  0
  191.0020  177.0520  139.6710 S   0  0  0  0  0  0  0  0  0  0  0  0
  187.2320  178.4090  141.6720 C   0  0  0  0  0  3  0  0  0  0  0  0
  189.6060  177.7600  142.1040 C   0  0  0  0  0  0  0  0  0  0  0  0
  189.7300  177.4900  140.7260 C   0  0  0  0  0  0  0  0  0  0  0  0
  186.7140  178.1870  139.1360 C   0  0  0  0  0  0  0  0  0  0  0  0
  190.7110  177.6190  143.0090 N   0  0  0  0  0  0  0  0  0  0  0  0
  192.0570  177.9040  142.5320 C   0  0  0  0  0  1  0  0  0  0  0  0
  190.5160  177.3010  144.3960 C   0  0  0  0  0  0  0  0  0  0  0  0
  189.5360  177.0170  146.2730 N   0  0  0  0  0  0  0  0  0  0  0  0
  189.3180  177.3350  145.0100 N   0  0  0  0  0  0  0  0  0  0  0  0
  190.8590  176.8070  146.3920 C   0  0  0  0  0  0  0  0  0  0  0  0
  191.5200  176.4290  147.6700 C   0  0  0  0  0  1  0  0  0  0  0  0
  191.5230  176.9800  145.2340 N   0  0  0  0  0  2  0  0  0  0  0  0
  184.2180  179.0170  138.8960 C   0  0  0  0  0  0  0  0  0  0  0  0
  185.3570  178.6360  139.0050 C   0  0  0  0  0  0  0  0  0  0  0  0
  179.3910  181.3240  137.0180 C   0  0  1  0  0  3  0  0  0  0  0  0
  182.8330  179.4800  138.7590 C   0  0  2  0  0  3  0  0  0  0  0  0
  178.9310  180.1620  136.1240 C   0  0  0  0  0  2  0  0  0  0  0  0
  182.1670  178.8230  137.5340 C   0  0  2  0  0  3  0  0  0  0  0  0
  179.9820  179.1110  136.3140 C   0  0  0  0  0  3  0  0  0  0  0  0
  180.9130  179.5590  137.1390 C   0  0  0  0  0  0  0  0  0  0  0  0
  180.6780  180.8960  137.5330 N   0  0  0  0  0  0  0  0  0  0  0  0
  181.3950  181.5320  138.6300 C   0  0  0  0  0  2  0  0  0  0  0  0
  182.8270  181.0090  138.6760 C   0  0  0  0  0  2  0  0  0  0  0  0
  180.6870  182.7050  135.5180 O   0  0  0  0  0  1  0  0  0  0  0  0
  179.5070  182.6560  136.2640 C   0  0  2  0  0  3  0  0  0  0  0  0
  180.5550  184.7290  137.0910 N   0  0  0  0  0  1  0  0  0  0  0  0
  179.3600  183.9010  137.1430 C   0  0  0  0  0  2  0  0  0  0  0  0
  181.8730  177.4100  137.8280 C   0  0  0  0  0  0  0  0  0  0  0  0
  181.6400  176.3000  138.0580 N   0  0  0  0  0  0  0  0  0  0  0  0
  2  5  2  0  0  0  0
  3  7  1  0  0  0  0
  3 12  2  0  0  0  0
  4  6  2  0  0  0  0
  4 11  1  0  0  0  0
  5  7  1  0  0  0  0
  5  8  1  0  0  0  0
  6  9  1  0  0  0  0
  7  4  1  0  0  0  0
  8 11  1  0  0  0  0
  9  1  2  0  0  0  0
 10  1  1  0  0  0  0
 10 13  1  0  0  0  0
 11 10  2  0  0  0  0
 12  6  1  0  0  0  0
 13 15  1  0  0  0  0
 14 13  1  0  0  0  0
 15 17  2  0  0  0  0
 15 20  1  0  0  0  0
 16 18  2  0  0  0  0
 17 16  1  0  0  0  0
 18 19  1  0  0  0  0
 20 18  1  0  0  0  0
 21 22  3  0  0  0  0
 22 12  1  0  0  0  0
 23 33  1  6  0  0  0
 23 29  1  0  0  0  0
 24 21  1  6  0  0  0
 25 27  1  0  0  0  0
 25 23  1  0  0  0  0
 26 36  1  1  0  0  0
 26 24  1  0  0  0  0
 27 28  2  0  0  0  0
 28 29  1  0  0  0  0
 28 26  1  0  0  0  0
 29 30  1  0  0  0  0
 30 31  1  0  0  0  0
 31 24  1  0  0  0  0
 33 32  1  1  0  0  0
 33 35  1  0  0  0  0
 34 35  1  0  0  0  0
 36 37  3  0  0  0  0
M  END
>  <MODEL>
9

>  <REMARK>
 VINA RESULT:      -6.7      3.657     11.772
  Name = 
  6 active torsions:
  status: ('A' for Active; 'I' for Inactive)
    1  A    between atoms: C_3  and  C_21
    2  A    between atoms: N_4  and  C_31
    3  A    between atoms: C_5  and  C_13
    4  A    between atoms: C_7  and  C_11
    5  A    between atoms: C_21  and  C_24
    6  A    between atoms: C_34  and  C_35
                            x       y       z     vdW  Elec       q    Type
                         _______ _______ _______ _____ _____    ______ ____

>  <TORSDO>
F 6

$$$$
