=
 OpenBabel11062416503D

 34 37  0  0  1  0  0  0  0  0999 V2000
  188.7580  177.9320  142.2730 C   0  0  0  0  0  0  0  0  0  0  0  0
  187.2240  177.4860  144.0920 C   0  0  0  0  0  3  0  0  0  0  0  0
  188.6170  178.2680  140.9280 C   0  0  0  0  0  0  0  0  0  0  0  0
  189.6360  177.3100  144.4220 C   0  0  0  0  0  3  0  0  0  0  0  0
  189.8670  177.7710  143.1190 C   0  0  0  0  0  0  0  0  0  0  0  0
  187.4890  177.9350  142.7960 C   0  0  0  0  0  0  0  0  0  0  0  0
  191.1170  178.2490  142.7600 O   0  0  0  0  0  1  0  0  0  0  0  0
  187.3680  178.6480  140.7170 O   0  0  0  0  0  0  0  0  0  0  0  0
  186.6560  178.4250  141.8170 C   0  0  0  0  0  0  0  0  0  0  0  0
  188.3200  177.1120  144.8790 C   0  0  0  0  0  3  0  0  0  0  0  0
  192.1430  175.8480  138.5150 O   0  0  0  0  0  0  0  0  0  0  0  0
  188.6130  179.2860  137.9500 O   0  0  0  0  0  0  0  0  0  0  0  0
  190.3100  176.7100  139.8650 C   0  0  0  0  0  2  0  0  0  0  0  0
  188.9400  176.1240  137.0140 C   0  0  0  0  0  3  0  0  0  0  0  0
  189.5910  178.1120  139.7680 C   0  0  1  0  0  3  0  0  0  0  0  0
  188.0790  176.9640  137.8970 C   0  0  1  0  0  3  0  0  0  0  0  0
  190.1640  175.7360  137.3470 C   0  0  0  0  0  3  0  0  0  0  0  0
  190.9150  176.1030  138.5670 C   0  0  0  0  0  0  0  0  0  0  0  0
  188.7770  178.1940  138.4630 C   0  0  0  0  0  0  0  0  0  0  0  0
  185.8080  177.4700  136.5520 C   0  0  0  0  0  3  0  0  0  0  0  0
  186.8090  177.2710  137.1780 C   0  0  0  0  0  0  0  0  0  0  0  0
  185.1880  178.7780  141.9430 C   0  0  1  0  0  3  0  0  0  0  0  0
  180.6010  177.4240  140.5840 F   0  0  0  0  0  0  0  0  0  0  0  0
  182.8740  177.9680  141.3100 C   0  0  0  0  0  2  0  0  0  0  0  0
  181.9560  178.5810  138.9670 C   0  0  2  0  0  3  0  0  0  0  0  0
  184.2740  178.3470  140.7820 C   0  0  1  0  0  3  0  0  0  0  0  0
  184.1500  179.4690  139.7130 C   0  0  0  0  0  2  0  0  0  0  0  0
  183.3710  178.9750  138.5110 C   0  0  0  0  0  2  0  0  0  0  0  0
  181.9210  177.5710  140.1470 C   0  0  2  0  0  3  0  0  0  0  0  0
  181.1140  178.1570  137.8410 N   0  0  0  0  0  0  0  0  0  0  0  0
  181.1020  176.8220  137.4960 O   0  0  0  0  0  0  0  0  0  0  0  0
  180.7680  178.9750  136.9570 O   0  0  0  0  0  0  0  0  0  0  0  0
  184.4260  179.7650  144.0710 C   0  0  0  0  0  1  0  0  0  0  0  0
  184.6430  178.4520  143.3280 C   0  0  0  0  0  2  0  0  0  0  0  0
  1  6  1  0  0  0  0
  1  5  1  0  0  0  0
  2 10  2  0  0  0  0
  3  1  2  0  0  0  0
  4 10  1  0  0  0  0
  5  4  2  0  0  0  0
  6  2  1  0  0  0  0
  7  5  1  0  0  0  0
  8  3  1  0  0  0  0
  8  9  1  0  0  0  0
  9 22  1  0  0  0  0
  9  6  2  0  0  0  0
 11 18  2  0  0  0  0
 12 19  2  0  0  0  0
 14 17  2  0  0  0  0
 14 16  1  0  0  0  0
 15 13  1  0  0  0  0
 15  3  1  1  0  0  0
 16 21  1  6  0  0  0
 16 19  1  0  0  0  0
 17 18  1  0  0  0  0
 18 13  1  0  0  0  0
 19 15  1  0  0  0  0
 20 21  3  0  0  0  0
 22 34  1  1  0  0  0
 25 30  1  6  0  0  0
 25 29  1  0  0  0  0
 26 24  1  0  0  0  0
 26 22  1  1  0  0  0
 27 26  1  0  0  0  0
 28 25  1  0  0  0  0
 28 27  1  0  0  0  0
 29 23  1  1  0  0  0
 29 24  1  0  0  0  0
 31 30  2  0  0  0  0
 32 30  2  0  0  0  0
 34 33  1  0  0  0  0
M  END
>  <MODEL>
1

>  <REMARK>
 VINA RESULT:      -8.4      0.000      0.000
  Name = 
  6 active torsions:
  status: ('A' for Active; 'I' for Inactive)
    1  A    between atoms: N_6  and  C_9
    2  A    between atoms: C_11  and  C_19
    3  A    between atoms: C_12  and  C_32
    4  A    between atoms: C_20  and  C_28
    5  A    between atoms: C_22  and  C_32
    6  A    between atoms: C_31  and  C_32
                            x       y       z     vdW  Elec       q    Type
                         _______ _______ _______ _____ _____    ______ ____

>  <TORSDO>
F 6

$$$$
=
 OpenBabel11062416503D

 34 37  0  0  1  0  0  0  0  0999 V2000
  187.7170  177.6140  137.3740 C   0  0  0  0  0  0  0  0  0  0  0  0
  189.9540  176.7010  137.5160 C   0  0  0  0  0  3  0  0  0  0  0  0
  186.7840  178.0790  138.2990 C   0  0  0  0  0  0  0  0  0  0  0  0
  188.8210  176.9000  135.3630 C   0  0  0  0  0  3  0  0  0  0  0  0
  187.7360  177.5440  135.9720 C   0  0  0  0  0  0  0  0  0  0  0  0
  188.8540  177.3390  138.0920 C   0  0  0  0  0  0  0  0  0  0  0  0
  186.8350  178.2670  135.2060 O   0  0  0  0  0  1  0  0  0  0  0  0
  187.3950  178.2620  139.4580 O   0  0  0  0  0  0  0  0  0  0  0  0
  188.6350  177.7930  139.3720 C   0  0  0  0  0  0  0  0  0  0  0  0
  189.8920  176.4280  136.1440 C   0  0  0  0  0  3  0  0  0  0  0  0
  182.2860  176.2600  137.5440 O   0  0  0  0  0  0  0  0  0  0  0  0
  184.7120  180.1070  139.5240 O   0  0  0  0  0  0  0  0  0  0  0  0
  184.6100  176.8060  138.0150 C   0  0  0  0  0  2  0  0  0  0  0  0
  183.0990  177.4930  140.7700 C   0  0  0  0  0  3  0  0  0  0  0  0
  185.2730  178.2290  138.1830 C   0  0  1  0  0  3  0  0  0  0  0  0
  184.4790  178.0590  140.7210 C   0  0  1  0  0  3  0  0  0  0  0  0
  182.5400  176.8500  139.7540 C   0  0  0  0  0  3  0  0  0  0  0  0
  183.1140  176.6400  138.4070 C   0  0  0  0  0  0  0  0  0  0  0  0
  184.7700  178.8910  139.4790 C   0  0  0  0  0  0  0  0  0  0  0  0
  184.9000  179.3380  143.0470 C   0  0  0  0  0  3  0  0  0  0  0  0
  184.7490  178.7750  142.0020 C   0  0  0  0  0  0  0  0  0  0  0  0
  189.6340  177.8740  140.5080 C   0  0  1  0  0  3  0  0  0  0  0  0
  186.8170  176.0270  144.1650 F   0  0  0  0  0  0  0  0  0  0  0  0
  188.0900  176.9610  142.2950 C   0  0  0  0  0  2  0  0  0  0  0  0
  188.6380  177.4770  144.7730 C   0  0  2  0  0  3  0  0  0  0  0  0
  189.0590  178.1010  141.9180 C   0  0  1  0  0  3  0  0  0  0  0  0
  190.1890  178.2070  142.9790 C   0  0  0  0  0  2  0  0  0  0  0  0
  189.6160  178.5800  144.3320 C   0  0  0  0  0  2  0  0  0  0  0  0
  187.5310  177.1490  143.7340 C   0  0  2  0  0  3  0  0  0  0  0  0
  188.0920  177.7320  146.1120 N   0  0  0  0  0  0  0  0  0  0  0  0
  188.5620  176.9790  147.1680 O   0  0  0  0  0  0  0  0  0  0  0  0
  186.9680  178.2680  146.2540 O   0  0  0  0  0  0  0  0  0  0  0  0
  192.0450  177.4160  140.2480 C   0  0  0  0  0  1  0  0  0  0  0  0
  190.6780  176.7650  140.4250 C   0  0  0  0  0  2  0  0  0  0  0  0
  1  6  1  0  0  0  0
  1  3  2  0  0  0  0
  2  6  1  0  0  0  0
  3  8  1  0  0  0  0
  4  5  2  0  0  0  0
  4 10  1  0  0  0  0
  5  1  1  0  0  0  0
  6  9  2  0  0  0  0
  7  5  1  0  0  0  0
  9  8  1  0  0  0  0
  9 22  1  0  0  0  0
 10  2  2  0  0  0  0
 11 18  2  0  0  0  0
 13 15  1  0  0  0  0
 13 18  1  0  0  0  0
 15  3  1  1  0  0  0
 15 19  1  0  0  0  0
 16 14  1  0  0  0  0
 16 21  1  1  0  0  0
 17 14  2  0  0  0  0
 18 17  1  0  0  0  0
 19 12  2  0  0  0  0
 19 16  1  0  0  0  0
 21 20  3  0  0  0  0
 22 34  1  1  0  0  0
 24 29  1  0  0  0  0
 25 30  1  1  0  0  0
 26 22  1  6  0  0  0
 26 24  1  0  0  0  0
 26 27  1  0  0  0  0
 27 28  1  0  0  0  0
 28 25  1  0  0  0  0
 29 23  1  1  0  0  0
 29 25  1  0  0  0  0
 30 32  2  0  0  0  0
 30 31  2  0  0  0  0
 33 34  1  0  0  0  0
M  END
>  <MODEL>
2

>  <REMARK>
 VINA RESULT:      -8.3      2.930      7.227
  Name = 
  6 active torsions:
  status: ('A' for Active; 'I' for Inactive)
    1  A    between atoms: N_6  and  C_9
    2  A    between atoms: C_11  and  C_19
    3  A    between atoms: C_12  and  C_32
    4  A    between atoms: C_20  and  C_28
    5  A    between atoms: C_22  and  C_32
    6  A    between atoms: C_31  and  C_32
                            x       y       z     vdW  Elec       q    Type
                         _______ _______ _______ _____ _____    ______ ____

>  <TORSDO>
F 6

$$$$
=
 OpenBabel11062416503D

 34 37  0  0  1  0  0  0  0  0999 V2000
  186.9410  178.3390  140.4640 C   0  0  0  0  0  0  0  0  0  0  0  0
  187.9120  177.4210  142.4810 C   0  0  0  0  0  3  0  0  0  0  0  0
  185.6690  178.7700  140.0930 C   0  0  0  0  0  0  0  0  0  0  0  0
  189.2570  177.6970  140.4630 C   0  0  0  0  0  3  0  0  0  0  0  0
  188.1840  178.3200  139.8110 C   0  0  0  0  0  0  0  0  0  0  0  0
  186.8620  178.0380  141.8000 C   0  0  0  0  0  0  0  0  0  0  0  0
  188.4040  179.0700  138.6660 O   0  0  0  0  0  1  0  0  0  0  0  0
  184.9370  178.9120  141.1850 O   0  0  0  0  0  0  0  0  0  0  0  0
  185.6190  178.4460  142.2260 C   0  0  0  0  0  0  0  0  0  0  0  0
  189.0970  177.1970  141.7680 C   0  0  0  0  0  3  0  0  0  0  0  0
  184.3550  177.0110  135.7010 O   0  0  0  0  0  0  0  0  0  0  0  0
  183.4540  180.6740  138.9210 O   0  0  0  0  0  0  0  0  0  0  0  0
  184.9950  177.5210  137.9930 C   0  0  0  0  0  2  0  0  0  0  0  0
  181.8080  177.9540  137.9830 C   0  0  0  0  0  3  0  0  0  0  0  0
  185.0460  178.9260  138.7120 C   0  0  1  0  0  3  0  0  0  0  0  0
  182.4570  178.5270  139.1990 C   0  0  1  0  0  3  0  0  0  0  0  0
  182.4880  177.4020  136.9880 C   0  0  0  0  0  3  0  0  0  0  0  0
  183.9580  177.3160  136.8520 C   0  0  0  0  0  0  0  0  0  0  0  0
  183.6170  179.4670  138.9040 C   0  0  0  0  0  0  0  0  0  0  0  0
  180.5420  179.6520  140.7130 C   0  0  0  0  0  3  0  0  0  0  0  0
  181.4030  179.1270  140.0680 C   0  0  0  0  0  0  0  0  0  0  0  0
  185.0950  178.4860  143.6470 C   0  0  1  0  0  3  0  0  0  0  0  0
  186.0900  179.9960  148.2790 F   0  0  0  0  0  0  0  0  0  0  0  0
  185.6070  179.3830  145.9590 C   0  0  0  0  0  2  0  0  0  0  0  0
  187.2310  178.0410  147.4650 C   0  0  2  0  0  3  0  0  0  0  0  0
  186.1470  178.5620  144.7690 C   0  0  1  0  0  3  0  0  0  0  0  0
  186.5640  177.1440  145.2500 C   0  0  0  0  0  2  0  0  0  0  0  0
  187.7040  177.2340  146.2440 C   0  0  0  0  0  2  0  0  0  0  0  0
  186.6390  179.4350  147.1220 C   0  0  2  0  0  3  0  0  0  0  0  0
  188.2620  178.1120  148.5080 N   0  0  0  0  0  0  0  0  0  0  0  0
  189.5700  177.8470  148.1610 O   0  0  0  0  0  0  0  0  0  0  0  0
  187.9590  177.9800  149.7180 O   0  0  0  0  0  0  0  0  0  0  0  0
  182.6460  178.6700  143.8840 C   0  0  0  0  0  1  0  0  0  0  0  0
  183.9410  179.4700  143.7980 C   0  0  0  0  0  2  0  0  0  0  0  0
  1  6  1  0  0  0  0
  3  1  2  0  0  0  0
  3  8  1  0  0  0  0
  4 10  1  0  0  0  0
  5  4  2  0  0  0  0
  5  1  1  0  0  0  0
  6  9  2  0  0  0  0
  6  2  1  0  0  0  0
  7  5  1  0  0  0  0
  8  9  1  0  0  0  0
  9 22  1  0  0  0  0
 10  2  2  0  0  0  0
 11 18  2  0  0  0  0
 13 15  1  0  0  0  0
 14 16  1  0  0  0  0
 15 19  1  0  0  0  0
 15  3  1  1  0  0  0
 16 21  1  6  0  0  0
 17 14  2  0  0  0  0
 18 17  1  0  0  0  0
 18 13  1  0  0  0  0
 19 12  2  0  0  0  0
 19 16  1  0  0  0  0
 21 20  3  0  0  0  0
 22 34  1  6  0  0  0
 24 29  1  0  0  0  0
 25 30  1  1  0  0  0
 26 22  1  6  0  0  0
 26 27  1  0  0  0  0
 26 24  1  0  0  0  0
 27 28  1  0  0  0  0
 28 25  1  0  0  0  0
 29 25  1  0  0  0  0
 29 23  1  1  0  0  0
 30 32  2  0  0  0  0
 31 30  2  0  0  0  0
 34 33  1  0  0  0  0
M  END
>  <MODEL>
3

>  <REMARK>
 VINA RESULT:      -8.3      3.668      6.845
  Name = 
  6 active torsions:
  status: ('A' for Active; 'I' for Inactive)
    1  A    between atoms: N_6  and  C_9
    2  A    between atoms: C_11  and  C_19
    3  A    between atoms: C_12  and  C_32
    4  A    between atoms: C_20  and  C_28
    5  A    between atoms: C_22  and  C_32
    6  A    between atoms: C_31  and  C_32
                            x       y       z     vdW  Elec       q    Type
                         _______ _______ _______ _____ _____    ______ ____

>  <TORSDO>
F 6

$$$$
=
 OpenBabel11062416503D

 34 37  0  0  1  0  0  0  0  0999 V2000
  182.8980  178.3340  141.7270 C   0  0  0  0  0  0  0  0  0  0  0  0
  182.4190  178.8540  144.0420 C   0  0  0  0  0  3  0  0  0  0  0  0
  184.0600  178.1660  140.9770 C   0  0  0  0  0  0  0  0  0  0  0  0
  180.6110  178.5710  142.4270 C   0  0  0  0  0  3  0  0  0  0  0  0
  181.5310  178.2120  141.4320 C   0  0  0  0  0  0  0  0  0  0  0  0
  183.3090  178.5000  143.0260 C   0  0  0  0  0  0  0  0  0  0  0  0
  181.1000  177.5610  140.2860 O   0  0  0  0  0  1  0  0  0  0  0  0
  185.0820  178.0340  141.8060 O   0  0  0  0  0  0  0  0  0  0  0  0
  184.6640  178.2650  143.0470 C   0  0  0  0  0  0  0  0  0  0  0  0
  181.0640  178.9490  143.7040 C   0  0  0  0  0  3  0  0  0  0  0  0
  183.8740  176.3260  136.4280 O   0  0  0  0  0  0  0  0  0  0  0  0
  184.1610  180.5810  138.9610 O   0  0  0  0  0  0  0  0  0  0  0  0
  183.6940  176.9860  138.7630 C   0  0  0  0  0  2  0  0  0  0  0  0
  181.7690  179.0640  137.2390 C   0  0  0  0  0  3  0  0  0  0  0  0
  184.2850  178.2660  139.4740 C   0  0  1  0  0  3  0  0  0  0  0  0
  182.0680  179.4870  138.6390 C   0  0  1  0  0  3  0  0  0  0  0  0
  182.3060  177.9930  136.6730 C   0  0  0  0  0  3  0  0  0  0  0  0
  183.3200  177.0880  137.2570 C   0  0  0  0  0  0  0  0  0  0  0  0
  183.5520  179.5260  138.9770 C   0  0  0  0  0  0  0  0  0  0  0  0
  180.7390  181.7790  139.0870 C   0  0  0  0  0  3  0  0  0  0  0  0
  181.3540  180.7670  138.9170 C   0  0  0  0  0  0  0  0  0  0  0  0
  185.5670  178.1640  144.2600 C   0  0  1  0  0  3  0  0  0  0  0  0
  190.0960  177.6750  146.2530 F   0  0  0  0  0  0  0  0  0  0  0  0
  187.8670  178.0460  145.3120 C   0  0  0  0  0  2  0  0  0  0  0  0
  189.7110  176.7050  144.0850 C   0  0  2  0  0  3  0  0  0  0  0  0
  187.0760  178.0330  143.9870 C   0  0  1  0  0  3  0  0  0  0  0  0
  187.3970  176.7360  143.1930 C   0  0  0  0  0  2  0  0  0  0  0  0
  188.8610  176.6990  142.8040 C   0  0  0  0  0  2  0  0  0  0  0  0
  189.3920  177.8700  145.0610 C   0  0  2  0  0  3  0  0  0  0  0  0
  191.1460  176.5980  143.7920 N   0  0  0  0  0  0  0  0  0  0  0  0
  191.7110  177.5130  142.9280 O   0  0  0  0  0  0  0  0  0  0  0  0
  191.7510  175.5100  143.9400 O   0  0  0  0  0  0  0  0  0  0  0  0
  184.8660  178.4500  146.6080 C   0  0  0  0  0  1  0  0  0  0  0  0
  185.2060  179.1960  145.3220 C   0  0  0  0  0  2  0  0  0  0  0  0
  1  6  1  0  0  0  0
  3  1  2  0  0  0  0
  3  8  1  0  0  0  0
  4 10  1  0  0  0  0
  5  1  1  0  0  0  0
  5  4  2  0  0  0  0
  6  9  2  0  0  0  0
  6  2  1  0  0  0  0
  7  5  1  0  0  0  0
  8  9  1  0  0  0  0
  9 22  1  0  0  0  0
 10  2  2  0  0  0  0
 11 18  2  0  0  0  0
 12 19  2  0  0  0  0
 13 15  1  0  0  0  0
 14 16  1  0  0  0  0
 15  3  1  1  0  0  0
 16 21  1  6  0  0  0
 16 19  1  0  0  0  0
 17 14  2  0  0  0  0
 17 18  1  0  0  0  0
 18 13  1  0  0  0  0
 19 15  1  0  0  0  0
 21 20  3  0  0  0  0
 22 34  1  1  0  0  0
 25 30  1  6  0  0  0
 25 29  1  0  0  0  0
 26 22  1  1  0  0  0
 26 24  1  0  0  0  0
 27 26  1  0  0  0  0
 28 27  1  0  0  0  0
 28 25  1  0  0  0  0
 29 24  1  0  0  0  0
 29 23  1  1  0  0  0
 30 32  2  0  0  0  0
 31 30  2  0  0  0  0
 34 33  1  0  0  0  0
M  END
>  <MODEL>
4

>  <REMARK>
 VINA RESULT:      -8.0      3.950      7.428
  Name = 
  6 active torsions:
  status: ('A' for Active; 'I' for Inactive)
    1  A    between atoms: N_6  and  C_9
    2  A    between atoms: C_11  and  C_19
    3  A    between atoms: C_12  and  C_32
    4  A    between atoms: C_20  and  C_28
    5  A    between atoms: C_22  and  C_32
    6  A    between atoms: C_31  and  C_32
                            x       y       z     vdW  Elec       q    Type
                         _______ _______ _______ _____ _____    ______ ____

>  <TORSDO>
F 6

$$$$
=
 OpenBabel11062416503D

 34 37  0  0  1  0  0  0  0  0999 V2000
  183.2220  178.6750  141.9130 C   0  0  0  0  0  0  0  0  0  0  0  0
  182.7910  178.8430  144.2890 C   0  0  0  0  0  3  0  0  0  0  0  0
  184.3690  178.5980  141.1240 C   0  0  0  0  0  0  0  0  0  0  0  0
  180.9530  178.8540  142.6830 C   0  0  0  0  0  3  0  0  0  0  0  0
  181.8480  178.6310  141.6280 C   0  0  0  0  0  0  0  0  0  0  0  0
  183.6570  178.6290  143.2140 C   0  0  0  0  0  0  0  0  0  0  0  0
  181.3840  178.1750  140.4040 O   0  0  0  0  0  1  0  0  0  0  0  0
  185.3980  178.3170  141.9050 O   0  0  0  0  0  0  0  0  0  0  0  0
  185.0050  178.3620  143.1740 C   0  0  0  0  0  0  0  0  0  0  0  0
  181.4340  179.0190  143.9950 C   0  0  0  0  0  3  0  0  0  0  0  0
  187.1910  179.0600  137.1330 O   0  0  0  0  0  0  0  0  0  0  0  0
  182.4890  178.4860  138.6030 O   0  0  0  0  0  0  0  0  0  0  0  0
  186.0620  178.5950  139.2380 C   0  0  0  0  0  2  0  0  0  0  0  0
  184.7340  176.5010  137.1880 C   0  0  0  0  0  3  0  0  0  0  0  0
  184.5740  178.9240  139.6510 C   0  0  1  0  0  3  0  0  0  0  0  0
  183.9630  176.6190  138.4610 C   0  0  1  0  0  3  0  0  0  0  0  0
  185.8000  177.2400  136.9130 C   0  0  0  0  0  3  0  0  0  0  0  0
  186.3670  178.3300  137.7360 C   0  0  0  0  0  0  0  0  0  0  0  0
  183.6000  178.0480  138.8410 C   0  0  0  0  0  0  0  0  0  0  0  0
  181.8120  175.0120  138.3380 C   0  0  0  0  0  3  0  0  0  0  0  0
  182.7920  175.6970  138.3990 C   0  0  0  0  0  0  0  0  0  0  0  0
  185.9230  178.0550  144.3390 C   0  0  1  0  0  3  0  0  0  0  0  0
  190.5360  177.6230  146.1440 F   0  0  0  0  0  0  0  0  0  0  0  0
  188.2720  177.9690  145.2800 C   0  0  0  0  0  2  0  0  0  0  0  0
  190.0020  176.4270  144.1260 C   0  0  2  0  0  3  0  0  0  0  0  0
  187.4100  177.8350  144.0070 C   0  0  1  0  0  3  0  0  0  0  0  0
  187.6440  176.4440  143.3540 C   0  0  0  0  0  2  0  0  0  0  0  0
  189.0830  176.3060  142.8980 C   0  0  0  0  0  2  0  0  0  0  0  0
  189.7740  177.7080  144.9740 C   0  0  2  0  0  3  0  0  0  0  0  0
  191.4150  176.2320  143.7740 N   0  0  0  0  0  0  0  0  0  0  0  0
  191.9370  176.9560  142.7240 O   0  0  0  0  0  0  0  0  0  0  0  0
  192.0130  175.1760  144.0880 O   0  0  0  0  0  0  0  0  0  0  0  0
  185.1330  178.1500  146.6750 C   0  0  0  0  0  1  0  0  0  0  0  0
  185.6720  178.9860  145.5190 C   0  0  0  0  0  2  0  0  0  0  0  0
  1  6  1  0  0  0  0
  3  8  1  0  0  0  0
  3  1  2  0  0  0  0
  4 10  1  0  0  0  0
  5  1  1  0  0  0  0
  5  4  2  0  0  0  0
  6  2  1  0  0  0  0
  7  5  1  0  0  0  0
  8  9  1  0  0  0  0
  9  6  2  0  0  0  0
  9 22  1  0  0  0  0
 10  2  2  0  0  0  0
 11 18  2  0  0  0  0
 12 19  2  0  0  0  0
 13 15  1  0  0  0  0
 14 16  1  0  0  0  0
 15  3  1  1  0  0  0
 16 21  1  6  0  0  0
 16 19  1  0  0  0  0
 17 14  2  0  0  0  0
 17 18  1  0  0  0  0
 18 13  1  0  0  0  0
 19 15  1  0  0  0  0
 20 21  3  0  0  0  0
 22 34  1  1  0  0  0
 25 30  1  6  0  0  0
 25 29  1  0  0  0  0
 26 22  1  1  0  0  0
 26 24  1  0  0  0  0
 27 26  1  0  0  0  0
 28 27  1  0  0  0  0
 28 25  1  0  0  0  0
 29 24  1  0  0  0  0
 29 23  1  1  0  0  0
 30 32  2  0  0  0  0
 31 30  2  0  0  0  0
 34 33  1  0  0  0  0
M  END
>  <MODEL>
5

>  <REMARK>
 VINA RESULT:      -7.7      3.603      6.964
  Name = 
  6 active torsions:
  status: ('A' for Active; 'I' for Inactive)
    1  A    between atoms: N_6  and  C_9
    2  A    between atoms: C_11  and  C_19
    3  A    between atoms: C_12  and  C_32
    4  A    between atoms: C_20  and  C_28
    5  A    between atoms: C_22  and  C_32
    6  A    between atoms: C_31  and  C_32
                            x       y       z     vdW  Elec       q    Type
                         _______ _______ _______ _____ _____    ______ ____

>  <TORSDO>
F 6

$$$$
=
 OpenBabel11062416503D

 34 37  0  0  1  0  0  0  0  0999 V2000
  188.5240  177.5830  138.2210 C   0  0  0  0  0  0  0  0  0  0  0  0
  190.2800  176.4840  139.4740 C   0  0  0  0  0  3  0  0  0  0  0  0
  187.2810  178.1270  138.5400 C   0  0  0  0  0  0  0  0  0  0  0  0
  190.4640  176.7740  137.0570 C   0  0  0  0  0  3  0  0  0  0  0  0
  189.2710  177.5090  137.0350 C   0  0  0  0  0  0  0  0  0  0  0  0
  189.0910  177.2140  139.4160 C   0  0  0  0  0  0  0  0  0  0  0  0
  188.9620  178.3050  135.9430 O   0  0  0  0  0  1  0  0  0  0  0  0
  187.2040  178.2600  139.8540 O   0  0  0  0  0  0  0  0  0  0  0  0
  188.2670  177.6880  140.4100 C   0  0  0  0  0  0  0  0  0  0  0  0
  190.9280  176.2150  138.2620 C   0  0  0  0  0  3  0  0  0  0  0  0
  184.1040  176.8740  135.0130 O   0  0  0  0  0  0  0  0  0  0  0  0
  184.7080  179.9050  138.8920 O   0  0  0  0  0  0  0  0  0  0  0  0
  185.7360  177.1210  136.8000 C   0  0  0  0  0  2  0  0  0  0  0  0
  182.9140  177.1740  138.3410 C   0  0  0  0  0  3  0  0  0  0  0  0
  186.0720  178.4040  137.6570 C   0  0  1  0  0  3  0  0  0  0  0  0
  184.0410  177.6380  139.2020 C   0  0  1  0  0  3  0  0  0  0  0  0
  183.0590  176.8540  137.0630 C   0  0  0  0  0  3  0  0  0  0  0  0
  184.2900  176.9620  136.2510 C   0  0  0  0  0  0  0  0  0  0  0  0
  184.8880  178.7410  138.5820 C   0  0  0  0  0  0  0  0  0  0  0  0
  183.1230  178.3010  141.6400 C   0  0  0  0  0  3  0  0  0  0  0  0
  183.5050  177.9790  140.5520 C   0  0  0  0  0  0  0  0  0  0  0  0
  188.5240  177.6860  141.9030 C   0  0  1  0  0  3  0  0  0  0  0  0
  186.8010  177.3550  146.5560 F   0  0  0  0  0  0  0  0  0  0  0  0
  187.6640  177.3830  144.2660 C   0  0  0  0  0  2  0  0  0  0  0  0
  185.6430  178.8100  145.0290 C   0  0  2  0  0  3  0  0  0  0  0  0
  187.2860  177.7520  142.8160 C   0  0  1  0  0  3  0  0  0  0  0  0
  186.6350  179.1640  142.7830 C   0  0  0  0  0  2  0  0  0  0  0  0
  185.3370  179.1690  143.5650 C   0  0  0  0  0  2  0  0  0  0  0  0
  186.4350  177.4860  145.2130 C   0  0  2  0  0  3  0  0  0  0  0  0
  184.4400  178.8640  145.8700 N   0  0  0  0  0  0  0  0  0  0  0  0
  184.5010  178.3310  147.1410 O   0  0  0  0  0  0  0  0  0  0  0  0
  183.3020  178.9710  145.3550 O   0  0  0  0  0  0  0  0  0  0  0  0
  190.7930  177.3380  142.8070 C   0  0  0  0  0  1  0  0  0  0  0  0
  189.5440  176.6250  142.3020 C   0  0  0  0  0  2  0  0  0  0  0  0
  1  3  2  0  0  0  0
  1  6  1  0  0  0  0
  3  8  1  0  0  0  0
  4 10  1  0  0  0  0
  5  4  2  0  0  0  0
  5  1  1  0  0  0  0
  6  2  1  0  0  0  0
  6  9  2  0  0  0  0
  7  5  1  0  0  0  0
  8  9  1  0  0  0  0
  9 22  1  0  0  0  0
 10  2  2  0  0  0  0
 11 18  2  0  0  0  0
 13 15  1  0  0  0  0
 14 16  1  0  0  0  0
 15  3  1  1  0  0  0
 15 19  1  0  0  0  0
 16 21  1  1  0  0  0
 17 14  2  0  0  0  0
 18 13  1  0  0  0  0
 18 17  1  0  0  0  0
 19 12  2  0  0  0  0
 19 16  1  0  0  0  0
 21 20  3  0  0  0  0
 22 34  1  1  0  0  0
 24 29  1  0  0  0  0
 25 29  1  0  0  0  0
 25 30  1  1  0  0  0
 26 22  1  6  0  0  0
 26 24  1  0  0  0  0
 27 26  1  0  0  0  0
 27 28  1  0  0  0  0
 28 25  1  0  0  0  0
 29 23  1  1  0  0  0
 30 31  2  0  0  0  0
 32 30  2  0  0  0  0
 34 33  1  0  0  0  0
M  END
>  <MODEL>
6

>  <REMARK>
 VINA RESULT:      -7.6      3.028      6.075
  Name = 
  6 active torsions:
  status: ('A' for Active; 'I' for Inactive)
    1  A    between atoms: N_6  and  C_9
    2  A    between atoms: C_11  and  C_19
    3  A    between atoms: C_12  and  C_32
    4  A    between atoms: C_20  and  C_28
    5  A    between atoms: C_22  and  C_32
    6  A    between atoms: C_31  and  C_32
                            x       y       z     vdW  Elec       q    Type
                         _______ _______ _______ _____ _____    ______ ____

>  <TORSDO>
F 6

$$$$
=
 OpenBabel11062416503D

 34 37  0  0  1  0  0  0  0  0999 V2000
  185.5350  178.2670  140.3750 C   0  0  0  0  0  0  0  0  0  0  0  0
  187.5850  178.0910  141.6500 C   0  0  0  0  0  3  0  0  0  0  0  0
  184.1780  178.1540  140.6740 C   0  0  0  0  0  0  0  0  0  0  0  0
  187.6420  178.4960  139.2440 C   0  0  0  0  0  3  0  0  0  0  0  0
  186.2440  178.5840  139.2050 C   0  0  0  0  0  0  0  0  0  0  0  0
  186.1930  178.1780  141.5760 C   0  0  0  0  0  0  0  0  0  0  0  0
  185.6120  179.1680  138.1200 O   0  0  0  0  0  1  0  0  0  0  0  0
  184.0310  178.2020  141.9870 O   0  0  0  0  0  0  0  0  0  0  0  0
  185.2310  178.1830  142.5580 C   0  0  0  0  0  0  0  0  0  0  0  0
  188.2990  178.1900  140.4490 C   0  0  0  0  0  3  0  0  0  0  0  0
  181.0090  175.0590  138.5550 O   0  0  0  0  0  0  0  0  0  0  0  0
  181.6650  179.8220  139.7760 O   0  0  0  0  0  0  0  0  0  0  0  0
  182.6240  176.3210  139.8670 C   0  0  0  0  0  2  0  0  0  0  0  0
  179.7830  177.3630  140.9590 C   0  0  0  0  0  3  0  0  0  0  0  0
  182.9920  177.8540  139.7670 C   0  0  1  0  0  3  0  0  0  0  0  0
  180.9140  178.2370  141.3900 C   0  0  1  0  0  3  0  0  0  0  0  0
  179.9350  176.3230  140.1510 C   0  0  0  0  0  3  0  0  0  0  0  0
  181.1810  175.8860  139.4840 C   0  0  0  0  0  0  0  0  0  0  0  0
  181.8070  178.7090  140.2510 C   0  0  0  0  0  0  0  0  0  0  0  0
  179.8810  180.2380  142.8570 C   0  0  0  0  0  3  0  0  0  0  0  0
  180.3710  179.3450  142.2280 C   0  0  0  0  0  0  0  0  0  0  0  0
  185.4380  178.2630  144.0570 C   0  0  1  0  0  3  0  0  0  0  0  0
  188.4560  178.3290  148.0090 F   0  0  0  0  0  0  0  0  0  0  0  0
  186.9570  178.4310  146.0760 C   0  0  0  0  0  2  0  0  0  0  0  0
  189.1070  176.9890  146.1190 C   0  0  2  0  0  3  0  0  0  0  0  0
  186.8900  178.1580  144.5590 C   0  0  1  0  0  3  0  0  0  0  0  0
  187.4960  176.7610  144.2460 C   0  0  0  0  0  2  0  0  0  0  0  0
  188.9670  176.7260  144.6100 C   0  0  0  0  0  2  0  0  0  0  0  0
  188.4100  178.2870  146.6120 C   0  0  2  0  0  3  0  0  0  0  0  0
  190.5040  176.9000  146.5640 N   0  0  0  0  0  0  0  0  0  0  0  0
  191.4950  177.3350  145.7100 O   0  0  0  0  0  0  0  0  0  0  0  0
  190.8410  176.0880  147.4570 O   0  0  0  0  0  0  0  0  0  0  0  0
  183.2640  178.8590  145.0600 C   0  0  0  0  0  1  0  0  0  0  0  0
  184.6370  179.4010  144.6800 C   0  0  0  0  0  2  0  0  0  0  0  0
  1  3  2  0  0  0  0
  1  6  1  0  0  0  0
  3  8  1  0  0  0  0
  4 10  1  0  0  0  0
  5  4  2  0  0  0  0
  5  1  1  0  0  0  0
  6  2  1  0  0  0  0
  6  9  2  0  0  0  0
  7  5  1  0  0  0  0
  8  9  1  0  0  0  0
  9 22  1  0  0  0  0
 10  2  2  0  0  0  0
 11 18  2  0  0  0  0
 12 19  2  0  0  0  0
 14 16  1  0  0  0  0
 15 13  1  0  0  0  0
 15 19  1  0  0  0  0
 15  3  1  1  0  0  0
 16 21  1  6  0  0  0
 17 14  2  0  0  0  0
 18 13  1  0  0  0  0
 18 17  1  0  0  0  0
 19 16  1  0  0  0  0
 21 20  3  0  0  0  0
 22 34  1  6  0  0  0
 24 29  1  0  0  0  0
 25 30  1  6  0  0  0
 25 29  1  0  0  0  0
 26 22  1  1  0  0  0
 26 24  1  0  0  0  0
 27 26  1  0  0  0  0
 27 28  1  0  0  0  0
 28 25  1  0  0  0  0
 29 23  1  1  0  0  0
 30 32  2  0  0  0  0
 31 30  2  0  0  0  0
 34 33  1  0  0  0  0
M  END
>  <MODEL>
7

>  <REMARK>
 VINA RESULT:      -7.6      3.747      7.871
  Name = 
  6 active torsions:
  status: ('A' for Active; 'I' for Inactive)
    1  A    between atoms: N_6  and  C_9
    2  A    between atoms: C_11  and  C_19
    3  A    between atoms: C_12  and  C_32
    4  A    between atoms: C_20  and  C_28
    5  A    between atoms: C_22  and  C_32
    6  A    between atoms: C_31  and  C_32
                            x       y       z     vdW  Elec       q    Type
                         _______ _______ _______ _____ _____    ______ ____

>  <TORSDO>
F 6

$$$$
=
 OpenBabel11062416503D

 34 37  0  0  1  0  0  0  0  0999 V2000
  184.4630  178.9790  142.4750 C   0  0  0  0  0  0  0  0  0  0  0  0
  182.2270  178.5990  141.6300 C   0  0  0  0  0  3  0  0  0  0  0  0
  185.7370  179.0020  141.9100 C   0  0  0  0  0  0  0  0  0  0  0  0
  182.6120  178.9970  144.0070 C   0  0  0  0  0  3  0  0  0  0  0  0
  183.9750  179.2240  143.7680 C   0  0  0  0  0  0  0  0  0  0  0  0
  183.5900  178.8240  141.4270 C   0  0  0  0  0  0  0  0  0  0  0  0
  184.7510  179.8690  144.7170 O   0  0  0  0  0  1  0  0  0  0  0  0
  185.6140  179.0640  140.5950 O   0  0  0  0  0  0  0  0  0  0  0  0
  184.3320  178.9240  140.2730 C   0  0  0  0  0  0  0  0  0  0  0  0
  181.7610  178.6260  142.9500 C   0  0  0  0  0  3  0  0  0  0  0  0
  188.8080  176.7540  145.0130 O   0  0  0  0  0  0  0  0  0  0  0  0
  188.6750  179.6160  140.9650 O   0  0  0  0  0  0  0  0  0  0  0  0
  187.0850  177.5450  143.4880 C   0  0  0  0  0  2  0  0  0  0  0  0
  189.3760  176.4260  141.5270 C   0  0  0  0  0  3  0  0  0  0  0  0
  187.1040  178.8210  142.5570 C   0  0  1  0  0  3  0  0  0  0  0  0
  188.3680  177.2580  140.8070 C   0  0  1  0  0  3  0  0  0  0  0  0
  189.3640  176.2420  142.8400 C   0  0  0  0  0  3  0  0  0  0  0  0
  188.4400  176.8560  143.8180 C   0  0  0  0  0  0  0  0  0  0  0  0
  188.1320  178.6290  141.4270 C   0  0  0  0  0  0  0  0  0  0  0  0
  189.0860  177.3330  138.2180 C   0  0  0  0  0  3  0  0  0  0  0  0
  188.7300  177.3060  139.3610 C   0  0  0  0  0  0  0  0  0  0  0  0
  183.8220  178.9830  138.8480 C   0  0  1  0  0  3  0  0  0  0  0  0
  186.2610  175.2880  136.5840 F   0  0  0  0  0  0  0  0  0  0  0  0
  185.0860  177.1850  137.5900 C   0  0  0  0  0  2  0  0  0  0  0  0
  184.1850  174.7590  137.6800 C   0  0  2  0  0  3  0  0  0  0  0  0
  183.7030  177.6420  138.1020 C   0  0  1  0  0  3  0  0  0  0  0  0
  183.0870  176.5420  139.0110 C   0  0  0  0  0  2  0  0  0  0  0  0
  182.8390  175.2740  138.2190 C   0  0  0  0  0  2  0  0  0  0  0  0
  184.9950  175.8090  136.8710 C   0  0  2  0  0  3  0  0  0  0  0  0
  184.0370  173.4890  136.9570 N   0  0  0  0  0  0  0  0  0  0  0  0
  184.5560  172.3450  137.5250 O   0  0  0  0  0  0  0  0  0  0  0  0
  183.8560  173.4750  135.7170 O   0  0  0  0  0  0  0  0  0  0  0  0
  181.7420  179.3580  137.5750 C   0  0  0  0  0  1  0  0  0  0  0  0
  182.5990  179.8850  138.7200 C   0  0  0  0  0  2  0  0  0  0  0  0
  1  5  1  0  0  0  0
  2 10  2  0  0  0  0
  3  1  2  0  0  0  0
  5  4  2  0  0  0  0
  5  7  1  0  0  0  0
  6  2  1  0  0  0  0
  6  1  1  0  0  0  0
  8  3  1  0  0  0  0
  9  8  1  0  0  0  0
  9  6  2  0  0  0  0
 10  4  1  0  0  0  0
 12 19  2  0  0  0  0
 13 18  1  0  0  0  0
 14 17  2  0  0  0  0
 15  3  1  6  0  0  0
 15 13  1  0  0  0  0
 16 21  1  6  0  0  0
 16 19  1  0  0  0  0
 16 14  1  0  0  0  0
 17 18  1  0  0  0  0
 18 11  2  0  0  0  0
 19 15  1  0  0  0  0
 20 21  3  0  0  0  0
 22 34  1  1  0  0  0
 22  9  1  0  0  0  0
 24 26  1  0  0  0  0
 25 30  1  6  0  0  0
 25 28  1  0  0  0  0
 26 22  1  1  0  0  0
 26 27  1  0  0  0  0
 28 27  1  0  0  0  0
 29 23  1  1  0  0  0
 29 24  1  0  0  0  0
 29 25  1  0  0  0  0
 30 31  2  0  0  0  0
 32 30  2  0  0  0  0
 33 34  1  0  0  0  0
M  END
>  <MODEL>
8

>  <REMARK>
 VINA RESULT:      -7.3      2.669      4.989
  Name = 
  6 active torsions:
  status: ('A' for Active; 'I' for Inactive)
    1  A    between atoms: N_6  and  C_9
    2  A    between atoms: C_11  and  C_19
    3  A    between atoms: C_12  and  C_32
    4  A    between atoms: C_20  and  C_28
    5  A    between atoms: C_22  and  C_32
    6  A    between atoms: C_31  and  C_32
                            x       y       z     vdW  Elec       q    Type
                         _______ _______ _______ _____ _____    ______ ____

>  <TORSDO>
F 6

$$$$
=
 OpenBabel11062416503D

 34 37  0  0  1  0  0  0  0  0999 V2000
  183.8410  178.7920  142.5840 C   0  0  0  0  0  0  0  0  0  0  0  0
  185.6850  179.2150  144.0930 C   0  0  0  0  0  3  0  0  0  0  0  0
  183.7110  178.6540  141.2040 C   0  0  0  0  0  0  0  0  0  0  0  0
  183.4060  179.0040  144.9380 C   0  0  0  0  0  3  0  0  0  0  0  0
  182.9390  178.6850  143.6550 C   0  0  0  0  0  0  0  0  0  0  0  0
  185.1870  178.9020  142.8270 C   0  0  0  0  0  0  0  0  0  0  0  0
  181.7010  178.0840  143.4930 O   0  0  0  0  0  1  0  0  0  0  0  0
  184.9150  178.4860  140.6830 O   0  0  0  0  0  0  0  0  0  0  0  0
  185.8270  178.6640  141.6330 C   0  0  0  0  0  0  0  0  0  0  0  0
  184.7600  179.3260  145.1380 C   0  0  0  0  0  3  0  0  0  0  0  0
  181.1930  180.9610  137.6760 O   0  0  0  0  0  0  0  0  0  0  0  0
  181.5640  176.6420  140.0860 O   0  0  0  0  0  0  0  0  0  0  0  0
  182.7490  179.9750  139.2660 C   0  0  0  0  0  2  0  0  0  0  0  0
  182.3790  177.6780  137.0450 C   0  0  0  0  0  3  0  0  0  0  0  0
  182.4900  178.8170  140.3080 C   0  0  1  0  0  3  0  0  0  0  0  0
  183.0340  177.1700  138.2860 C   0  0  1  0  0  3  0  0  0  0  0  0
  181.9310  178.9190  136.9150 C   0  0  0  0  0  3  0  0  0  0  0  0
  181.9220  179.9770  137.9490 C   0  0  0  0  0  0  0  0  0  0  0  0
  182.2750  177.4850  139.5670 C   0  0  0  0  0  0  0  0  0  0  0  0
  183.6520  174.5730  137.9670 C   0  0  0  0  0  3  0  0  0  0  0  0
  183.3390  175.7200  138.1070 C   0  0  0  0  0  0  0  0  0  0  0  0
  187.3150  178.5100  141.3950 C   0  0  1  0  0  3  0  0  0  0  0  0
  190.2700  174.7820  142.8430 F   0  0  0  0  0  0  0  0  0  0  0  0
  188.7100  176.5310  142.1370 C   0  0  0  0  0  2  0  0  0  0  0  0
  190.5990  176.9380  143.8600 C   0  0  2  0  0  3  0  0  0  0  0  0
  188.1390  177.9050  142.5460 C   0  0  1  0  0  3  0  0  0  0  0  0
  189.2950  178.8520  142.9730 C   0  0  0  0  0  2  0  0  0  0  0  0
  189.9990  178.3120  144.2010 C   0  0  0  0  0  2  0  0  0  0  0  0
  189.5820  175.9220  143.2710 C   0  0  2  0  0  3  0  0  0  0  0  0
  191.3620  176.3780  144.9830 N   0  0  0  0  0  0  0  0  0  0  0  0
  191.6840  177.2060  146.0380 O   0  0  0  0  0  0  0  0  0  0  0  0
  192.0700  175.3540  144.8300 O   0  0  0  0  0  0  0  0  0  0  0  0
  188.8290  178.6230  139.4500 C   0  0  0  0  0  1  0  0  0  0  0  0
  187.6110  177.9100  140.0250 C   0  0  0  0  0  2  0  0  0  0  0  0
  1  6  1  0  0  0  0
  1  5  1  0  0  0  0
  2 10  2  0  0  0  0
  3  1  2  0  0  0  0
  4 10  1  0  0  0  0
  5  4  2  0  0  0  0
  6  2  1  0  0  0  0
  7  5  1  0  0  0  0
  8  3  1  0  0  0  0
  8  9  1  0  0  0  0
  9  6  2  0  0  0  0
 11 18  2  0  0  0  0
 13 15  1  0  0  0  0
 14 16  1  0  0  0  0
 15  3  1  1  0  0  0
 16 21  1  6  0  0  0
 16 19  1  0  0  0  0
 17 14  2  0  0  0  0
 17 18  1  0  0  0  0
 18 13  1  0  0  0  0
 19 12  2  0  0  0  0
 19 15  1  0  0  0  0
 20 21  3  0  0  0  0
 22 34  1  6  0  0  0
 22  9  1  0  0  0  0
 24 26  1  0  0  0  0
 24 29  1  0  0  0  0
 25 28  1  0  0  0  0
 25 30  1  1  0  0  0
 26 22  1  6  0  0  0
 26 27  1  0  0  0  0
 27 28  1  0  0  0  0
 29 23  1  6  0  0  0
 29 25  1  0  0  0  0
 30 31  2  0  0  0  0
 32 30  2  0  0  0  0
 33 34  1  0  0  0  0
M  END
>  <MODEL>
9

>  <REMARK>
 VINA RESULT:      -7.3      3.653      7.620
  Name = 
  6 active torsions:
  status: ('A' for Active; 'I' for Inactive)
    1  A    between atoms: N_6  and  C_9
    2  A    between atoms: C_11  and  C_19
    3  A    between atoms: C_12  and  C_32
    4  A    between atoms: C_20  and  C_28
    5  A    between atoms: C_22  and  C_32
    6  A    between atoms: C_31  and  C_32
                            x       y       z     vdW  Elec       q    Type
                         _______ _______ _______ _____ _____    ______ ____

>  <TORSDO>
F 6

$$$$
