=
 OpenBabel11062414013D

 49 53  0  0  1  0  0  0  0  0999 V2000
  186.6990  178.2040  144.1550 C   0  0  2  0  0  3  0  0  0  0  0  0
  186.6580  178.3840  145.6310 N   0  0  0  0  0  0  0  0  0  0  0  0
  185.4310  178.0610  144.8740 C   0  0  1  0  0  3  0  0  0  0  0  0
  188.2220  176.7470  142.7900 C   0  0  0  0  0  3  0  0  0  0  0  0
  187.2370  176.8620  143.6990 C   0  0  0  0  0  3  0  0  0  0  0  0
  188.8150  177.9400  142.0960 C   0  0  0  0  0  2  0  0  0  0  0  0
  188.4110  177.9100  140.6370 C   0  0  0  0  0  2  0  0  0  0  0  0
  189.4720  177.2150  139.7900 C   0  0  0  0  0  2  0  0  0  0  0  0
  189.2840  178.4070  137.6180 C   0  0  0  0  0  1  0  0  0  0  0  0
  189.0250  177.0750  138.3060 C   0  0  1  0  0  0  0  0  0  0  0  0
  189.9210  176.0770  137.5240 C   0  0  2  0  0  3  0  0  0  0  0  0
  191.3490  176.0670  137.9110 C   0  0  2  0  0  3  0  0  0  0  0  0
  190.9100  176.7390  136.7600 O   0  0  0  0  0  0  0  0  0  0  0  0
  191.9280  174.7190  137.5320 C   0  0  0  0  0  2  0  0  0  0  0  0
  194.1040  176.4340  137.1240 N   0  0  0  0  0  1  0  0  0  0  0  0
  194.1900  173.9610  136.4420 O   0  0  0  0  0  0  0  0  0  0  0  0
  193.7200  174.8020  137.6180 S   0  0  2  0  0  0  0  0  0  0  0  0
  187.6330  176.8020  138.1380 O   0  0  0  0  0  0  0  0  0  0  0  0
  187.3960  176.0120  136.9930 C   0  0  0  0  0  3  0  0  0  0  0  0
  186.7130  174.8560  137.3720 O   0  0  0  0  0  1  0  0  0  0  0  0
  186.6030  176.7360  136.1000 O   0  0  0  0  0  1  0  0  0  0  0  0
  187.0360  177.2450  146.2650 O   0  0  0  0  0  0  0  0  0  0  0  0
  187.9270  177.6670  147.2550 C   0  0  0  0  0  2  0  0  0  0  0  0
  190.1600  177.3640  146.0660 C   0  0  0  0  0  0  0  0  0  0  0  0
  189.2240  177.0100  147.0940 N   0  0  0  0  0  2  0  0  0  0  0  0
  189.9970  178.4200  145.3860 O   0  0  0  0  0  0  0  0  0  0  0  0
  191.3340  176.5160  145.8320 C   0  0  0  0  0  0  0  0  0  0  0  0
  191.7620  176.3320  144.6480 O   0  0  0  0  0  0  0  0  0  0  0  0
  192.0680  175.8930  146.9890 C   0  0  0  0  0  1  0  0  0  0  0  0
  184.6260  179.3320  144.6760 C   0  0  0  0  0  2  0  0  0  0  0  0
  183.5020  179.1050  143.6730 C   0  0  0  0  0  2  0  0  0  0  0  0
  182.2490  178.6930  144.3880 C   0  0  0  0  0  3  0  0  0  0  0  0
  181.0600  178.5410  143.7890 C   0  0  0  0  0  3  0  0  0  0  0  0
  180.7770  178.7400  142.3180 C   0  0  1  0  0  3  0  0  0  0  0  0
  180.0000  180.9410  142.7650 O   0  0  0  0  0  0  0  0  0  0  0  0
  180.0000  179.9940  142.0050 C   0  0  0  0  0  0  0  0  0  0  0  0
  179.5900  181.4260  140.0410 C   0  0  0  0  0  1  0  0  0  0  0  0
  179.2810  180.1030  140.6950 C   0  0  0  0  0  2  0  0  0  0  0  0
  182.0250  178.5370  141.4500 C   0  0  0  0  0  2  0  0  0  0  0  0
  182.1100  178.3320  138.9050 C   0  0  1  0  0  0  0  0  0  0  0  0
  181.6460  175.5000  138.0470 C   0  0  0  0  0  2  0  0  0  0  0  0
  182.7770  175.8060  139.0560 C   0  0  2  0  0  3  0  0  0  0  0  0
  183.0770  177.2810  139.4950 C   0  0  2  0  0  0  0  0  0  0  0  0
  179.6970  176.2670  136.8040 N   0  0  0  0  0  1  0  0  0  0  0  0
  180.5660  176.5740  137.9260 C   0  0  2  0  0  3  0  0  0  0  0  0
  181.7590  177.6640  140.2130 C   0  0  1  0  0  3  0  0  0  0  0  0
  183.7360  176.6240  138.2770 C   0  0  0  0  0  2  0  0  0  0  0  0
  182.6490  179.7590  138.9250 C   0  0  0  0  0  1  0  0  0  0  0  0
  181.2010  177.9480  137.7280 C   0  0  0  0  0  2  0  0  0  0  0  0
  1  5  1  1  0  0  0
  1  3  1  0  0  0  0
  1  2  1  0  0  0  0
  2 22  1  0  0  0  0
  3 30  1  6  0  0  0
  3  2  1  0  0  0  0
  4  5  2  0  0  0  0
  6  4  1  0  0  0  0
  7  6  1  0  0  0  0
  8  7  1  0  0  0  0
 10  9  1  6  0  0  0
 10  8  1  0  0  0  0
 11 12  1  0  0  0  0
 11 10  1  1  0  0  0
 12 14  1  6  0  0  0
 13 11  1  0  0  0  0
 13 12  1  0  0  0  0
 14 17  1  0  0  0  0
 15 17  1  0  0  0  0
 17 16  2  6  0  0  0
 18 10  1  0  0  0  0
 19 20  1  0  0  0  0
 19 18  1  0  0  0  0
 21 19  1  0  0  0  0
 22 23  1  0  0  0  0
 24 25  1  0  0  0  0
 25 23  1  0  0  0  0
 26 24  2  0  0  0  0
 27 24  1  0  0  0  0
 27 29  1  0  0  0  0
 28 27  2  0  0  0  0
 31 32  1  0  0  0  0
 31 30  1  0  0  0  0
 33 32  2  0  0  0  0
 34 39  1  6  0  0  0
 34 33  1  0  0  0  0
 36 34  1  0  0  0  0
 36 35  2  0  0  0  0
 37 38  1  0  0  0  0
 38 36  1  0  0  0  0
 40 48  1  1  0  0  0
 40 43  1  0  0  0  0
 40 46  1  0  0  0  0
 42 41  1  6  0  0  0
 42 43  1  0  0  0  0
 43 47  1  1  0  0  0
 43 46  1  0  0  0  0
 45 44  1  6  0  0  0
 45 41  1  0  0  0  0
 46 39  1  1  0  0  0
 47 42  1  0  0  0  0
 49 45  1  0  0  0  0
 49 40  1  0  0  0  0
M  END
>  <MODEL>
1

>  <REMARK>
 VINA RESULT:      -7.3      0.000      0.000
  Name = 
  22 active torsions:
  status: ('A' for Active; 'I' for Inactive)
    1  A    between atoms: C_1  and  C_15
    2  A    between atoms: C_1  and  C_26
    3  A    between atoms: C_2  and  C_20
    4  A    between atoms: C_2  and  C_38
    5  A    between atoms: C_2  and  C_39
    6  A    between atoms: C_3  and  O_19
    7  A    between atoms: C_3  and  N_46
    8  A    between atoms: C_4  and  C_45
    9  A    between atoms: C_6  and  C_28
   10  A    between atoms: C_6  and  C_34
   11  A    between atoms: C_7  and  C_35
   12  A    between atoms: C_7  and  S_40
   13  A    between atoms: C_9  and  C_25
   14  A    between atoms: C_11  and  C_42
   15  A    between atoms: C_13  and  C_28
   16  A    between atoms: C_15  and  C_31
   17  A    between atoms: N_16  and  O_19
   18  A    between atoms: C_22  and  O_36
   19  A    between atoms: C_26  and  C_45
   20  A    between atoms: C_29  and  C_39
   21  A    between atoms: C_32  and  C_38
   22  A    between atoms: O_36  and  C_45
                            x       y       z     vdW  Elec       q    Type
                         _______ _______ _______ _____ _____    ______ ____

>  <TORSDO>
F 22

$$$$
=
 OpenBabel11062414013D

 49 53  0  0  1  0  0  0  0  0999 V2000
  190.8160  176.2620  138.9160 C   0  0  2  0  0  3  0  0  0  0  0  0
  191.7290  175.5930  137.9520 N   0  0  0  0  0  0  0  0  0  0  0  0
  191.0730  176.8710  137.6080 C   0  0  1  0  0  3  0  0  0  0  0  0
  190.9540  177.2170  141.2350 C   0  0  0  0  0  3  0  0  0  0  0  0
  191.5170  177.0150  140.0300 C   0  0  0  0  0  3  0  0  0  0  0  0
  189.5510  176.7780  141.5460 C   0  0  0  0  0  2  0  0  0  0  0  0
  189.5110  176.2290  142.9570 C   0  0  0  0  0  2  0  0  0  0  0  0
  190.8580  176.4070  143.6510 C   0  0  0  0  0  2  0  0  0  0  0  0
  190.6530  178.7540  144.4380 C   0  0  0  0  0  1  0  0  0  0  0  0
  190.7430  177.3110  144.9120 C   0  0  1  0  0  0  0  0  0  0  0  0
  189.4030  177.0870  145.6630 C   0  0  2  0  0  3  0  0  0  0  0  0
  188.4020  178.1650  145.5140 C   0  0  2  0  0  3  0  0  0  0  0  0
  189.1910  178.0570  146.6690 O   0  0  0  0  0  0  0  0  0  0  0  0
  187.0320  177.5710  145.7670 C   0  0  0  0  0  2  0  0  0  0  0  0
  184.4770  178.3110  146.6440 N   0  0  0  0  0  1  0  0  0  0  0  0
  185.2440  178.7170  144.2280 O   0  0  0  0  0  0  0  0  0  0  0  0
  185.7940  178.8660  145.6370 S   0  0  2  0  0  0  0  0  0  0  0  0
  191.8720  177.2460  145.7840 O   0  0  0  0  0  0  0  0  0  0  0  0
  191.6730  176.3110  146.8200 C   0  0  0  0  0  3  0  0  0  0  0  0
  192.4470  175.1780  146.5650 O   0  0  0  0  0  1  0  0  0  0  0  0
  192.0820  176.8780  148.0290 O   0  0  0  0  0  1  0  0  0  0  0  0
  193.0250  175.8850  138.2350 O   0  0  0  0  0  0  0  0  0  0  0  0
  193.7530  174.8080  137.7210 C   0  0  0  0  0  2  0  0  0  0  0  0
  196.2210  174.5630  137.1410 C   0  0  0  0  0  0  0  0  0  0  0  0
  195.1730  174.9480  138.0400 N   0  0  0  0  0  2  0  0  0  0  0  0
  195.9610  174.2900  135.9310 O   0  0  0  0  0  0  0  0  0  0  0  0
  197.6090  174.5250  137.6170 C   0  0  0  0  0  0  0  0  0  0  0  0
  198.0710  175.4860  138.3090 O   0  0  0  0  0  0  0  0  0  0  0  0
  198.4820  173.3340  137.3290 C   0  0  0  0  0  1  0  0  0  0  0  0
  189.8830  176.5880  136.7100 C   0  0  0  0  0  2  0  0  0  0  0  0
  188.8960  177.7470  136.7450 C   0  0  0  0  0  2  0  0  0  0  0  0
  187.8510  177.5040  137.7930 C   0  0  0  0  0  3  0  0  0  0  0  0
  186.6590  176.9450  137.5460 C   0  0  0  0  0  3  0  0  0  0  0  0
  186.1680  176.4590  136.2020 C   0  0  1  0  0  3  0  0  0  0  0  0
  186.1900  174.4690  134.9030 O   0  0  0  0  0  0  0  0  0  0  0  0
  186.2870  174.9690  136.0060 C   0  0  0  0  0  0  0  0  0  0  0  0
  185.3860  173.3380  137.6190 C   0  0  0  0  0  1  0  0  0  0  0  0
  186.6120  174.0980  137.1810 C   0  0  0  0  0  2  0  0  0  0  0  0
  184.7940  177.0370  135.8380 C   0  0  0  0  0  2  0  0  0  0  0  0
  182.4520  177.5210  136.7330 C   0  0  1  0  0  0  0  0  0  0  0  0
  182.3590  177.1930  139.7090 C   0  0  0  0  0  2  0  0  0  0  0  0
  182.8650  176.0210  138.8370 C   0  0  2  0  0  3  0  0  0  0  0  0
  182.8870  176.1410  137.2740 C   0  0  2  0  0  0  0  0  0  0  0  0
  181.6940  179.5310  139.8780 N   0  0  0  0  0  1  0  0  0  0  0  0
  182.3900  178.5680  139.0430 C   0  0  2  0  0  3  0  0  0  0  0  0
  183.9060  177.2890  137.0660 C   0  0  1  0  0  3  0  0  0  0  0  0
  181.6730  175.6220  138.0520 C   0  0  0  0  0  2  0  0  0  0  0  0
  182.0180  177.5120  135.2710 C   0  0  0  0  0  1  0  0  0  0  0  0
  181.7330  178.5080  137.6660 C   0  0  0  0  0  2  0  0  0  0  0  0
  1  5  1  1  0  0  0
  2 22  1  0  0  0  0
  2  1  1  0  0  0  0
  3 30  1  6  0  0  0
  3  2  1  0  0  0  0
  3  1  1  0  0  0  0
  4  6  1  0  0  0  0
  5  4  2  0  0  0  0
  6  7  1  0  0  0  0
  7  8  1  0  0  0  0
  8 10  1  0  0  0  0
 10  9  1  6  0  0  0
 10 18  1  0  0  0  0
 11 10  1  6  0  0  0
 11 13  1  0  0  0  0
 12 11  1  0  0  0  0
 12 14  1  1  0  0  0
 12 13  1  0  0  0  0
 17 16  2  6  0  0  0
 17 14  1  0  0  0  0
 17 15  1  0  0  0  0
 18 19  1  0  0  0  0
 19 21  1  0  0  0  0
 20 19  1  0  0  0  0
 23 25  1  0  0  0  0
 23 22  1  0  0  0  0
 24 27  1  0  0  0  0
 24 25  1  0  0  0  0
 26 24  2  0  0  0  0
 27 28  2  0  0  0  0
 29 27  1  0  0  0  0
 30 31  1  0  0  0  0
 31 32  1  0  0  0  0
 33 32  2  0  0  0  0
 34 39  1  1  0  0  0
 34 33  1  0  0  0  0
 35 36  2  0  0  0  0
 36 34  1  0  0  0  0
 36 38  1  0  0  0  0
 38 37  1  0  0  0  0
 40 48  1  6  0  0  0
 40 46  1  0  0  0  0
 40 43  1  0  0  0  0
 40 49  1  0  0  0  0
 42 47  1  6  0  0  0
 42 41  1  0  0  0  0
 43 47  1  6  0  0  0
 43 42  1  0  0  0  0
 45 41  1  0  0  0  0
 45 44  1  1  0  0  0
 46 39  1  6  0  0  0
 46 43  1  0  0  0  0
 49 45  1  0  0  0  0
M  END
>  <MODEL>
2

>  <REMARK>
 VINA RESULT:      -6.9      3.105      8.624
  Name = 
  22 active torsions:
  status: ('A' for Active; 'I' for Inactive)
    1  A    between atoms: C_1  and  C_15
    2  A    between atoms: C_1  and  C_26
    3  A    between atoms: C_2  and  C_20
    4  A    between atoms: C_2  and  C_38
    5  A    between atoms: C_2  and  C_39
    6  A    between atoms: C_3  and  O_19
    7  A    between atoms: C_3  and  N_46
    8  A    between atoms: C_4  and  C_45
    9  A    between atoms: C_6  and  C_28
   10  A    between atoms: C_6  and  C_34
   11  A    between atoms: C_7  and  C_35
   12  A    between atoms: C_7  and  S_40
   13  A    between atoms: C_9  and  C_25
   14  A    between atoms: C_11  and  C_42
   15  A    between atoms: C_13  and  C_28
   16  A    between atoms: C_15  and  C_31
   17  A    between atoms: N_16  and  O_19
   18  A    between atoms: C_22  and  O_36
   19  A    between atoms: C_26  and  C_45
   20  A    between atoms: C_29  and  C_39
   21  A    between atoms: C_32  and  C_38
   22  A    between atoms: O_36  and  C_45
                            x       y       z     vdW  Elec       q    Type
                         _______ _______ _______ _____ _____    ______ ____

>  <TORSDO>
F 22

$$$$
=
 OpenBabel11062414013D

 49 53  0  0  1  0  0  0  0  0999 V2000
  188.2690  177.6200  140.7990 C   0  0  2  0  0  3  0  0  0  0  0  0
  187.7700  178.2670  139.5560 N   0  0  0  0  0  0  0  0  0  0  0  0
  187.6720  178.9570  140.8580 C   0  0  1  0  0  3  0  0  0  0  0  0
  190.3590  177.7810  142.1830 C   0  0  0  0  0  3  0  0  0  0  0  0
  189.7740  177.6740  140.9760 C   0  0  0  0  0  3  0  0  0  0  0  0
  189.5620  177.9340  143.4480 C   0  0  0  0  0  2  0  0  0  0  0  0
  190.0670  176.9360  144.4690 C   0  0  0  0  0  2  0  0  0  0  0  0
  190.6150  177.6460  145.7030 C   0  0  0  0  0  2  0  0  0  0  0  0
  190.1020  178.1310  148.0850 C   0  0  0  0  0  1  0  0  0  0  0  0
  190.0340  177.0490  147.0170 C   0  0  1  0  0  0  0  0  0  0  0  0
  188.5160  176.7490  146.8940 C   0  0  2  0  0  3  0  0  0  0  0  0
  187.6390  177.9360  146.7840 C   0  0  2  0  0  3  0  0  0  0  0  0
  187.7850  177.2460  147.9970 O   0  0  0  0  0  0  0  0  0  0  0  0
  186.3570  177.5090  146.1000 C   0  0  0  0  0  2  0  0  0  0  0  0
  184.1070  179.0110  145.3770 N   0  0  0  0  0  1  0  0  0  0  0  0
  185.6310  179.7170  147.3170 O   0  0  0  0  0  0  0  0  0  0  0  0
  184.9860  178.4500  146.7790 S   0  0  2  0  0  0  0  0  0  0  0  0
  190.7680  175.9360  147.5290 O   0  0  0  0  0  0  0  0  0  0  0  0
  192.1370  176.0230  147.2000 C   0  0  0  0  0  3  0  0  0  0  0  0
  192.8900  175.9690  148.3730 O   0  0  0  0  0  1  0  0  0  0  0  0
  192.4780  174.9390  146.3900 O   0  0  0  0  0  1  0  0  0  0  0  0
  188.7880  178.8570  138.8780 O   0  0  0  0  0  0  0  0  0  0  0  0
  188.6020  178.4700  137.5480 C   0  0  0  0  0  2  0  0  0  0  0  0
  189.7700  176.2130  137.3770 C   0  0  0  0  0  0  0  0  0  0  0  0
  188.5810  177.0120  137.4340 N   0  0  0  0  0  2  0  0  0  0  0  0
  190.8980  176.7190  137.6510 O   0  0  0  0  0  0  0  0  0  0  0  0
  189.6710  174.7880  137.0400 C   0  0  0  0  0  0  0  0  0  0  0  0
  190.4380  173.9450  137.6020 O   0  0  0  0  0  0  0  0  0  0  0  0
  188.6330  174.3060  136.0610 C   0  0  0  0  0  1  0  0  0  0  0  0
  186.2540  178.8210  141.3810 C   0  0  0  0  0  2  0  0  0  0  0  0
  185.3310  178.2820  140.2960 C   0  0  0  0  0  2  0  0  0  0  0  0
  184.4640  179.3840  139.7620 C   0  0  0  0  0  3  0  0  0  0  0  0
  183.1250  179.3500  139.7620 C   0  0  0  0  0  3  0  0  0  0  0  0
  182.2660  178.2280  140.3000 C   0  0  1  0  0  3  0  0  0  0  0  0
  181.5560  178.7170  142.5140 O   0  0  0  0  0  0  0  0  0  0  0  0
  181.2620  178.6640  141.3370 C   0  0  0  0  0  0  0  0  0  0  0  0
  179.7960  180.6170  141.0060 C   0  0  0  0  0  1  0  0  0  0  0  0
  179.9030  179.1170  140.8980 C   0  0  0  0  0  2  0  0  0  0  0  0
  181.6820  177.3540  139.1830 C   0  0  0  0  0  2  0  0  0  0  0  0
  182.2000  175.6400  137.3610 C   0  0  1  0  0  0  0  0  0  0  0  0
  185.1550  175.2380  137.0840 C   0  0  0  0  0  2  0  0  0  0  0  0
  184.5740  176.6660  136.9670 C   0  0  2  0  0  3  0  0  0  0  0  0
  183.0290  176.9100  137.0630 C   0  0  2  0  0  0  0  0  0  0  0  0
  184.8180  172.8890  137.6380 N   0  0  0  0  0  1  0  0  0  0  0  0
  184.2580  174.2200  137.7880 C   0  0  2  0  0  3  0  0  0  0  0  0
  182.7330  176.4540  138.5140 C   0  0  1  0  0  3  0  0  0  0  0  0
  183.7430  176.6120  135.7400 C   0  0  0  0  0  2  0  0  0  0  0  0
  180.7230  175.7560  136.9950 C   0  0  0  0  0  1  0  0  0  0  0  0
  182.8480  174.2570  137.2010 C   0  0  0  0  0  2  0  0  0  0  0  0
  1  3  1  0  0  0  0
  1  5  1  6  0  0  0
  2  1  1  0  0  0  0
  2  3  1  0  0  0  0
  3 30  1  1  0  0  0
  4  6  1  0  0  0  0
  5  4  2  0  0  0  0
  6  7  1  0  0  0  0
  7  8  1  0  0  0  0
  8 10  1  0  0  0  0
 10 18  1  0  0  0  0
 10  9  1  1  0  0  0
 11 10  1  1  0  0  0
 11 13  1  0  0  0  0
 12 14  1  6  0  0  0
 12 11  1  0  0  0  0
 12 13  1  0  0  0  0
 14 17  1  0  0  0  0
 17 15  1  6  0  0  0
 17 16  2  0  0  0  0
 19 18  1  0  0  0  0
 19 20  1  0  0  0  0
 21 19  1  0  0  0  0
 22  2  1  0  0  0  0
 23 22  1  0  0  0  0
 24 25  1  0  0  0  0
 24 26  2  0  0  0  0
 25 23  1  0  0  0  0
 27 24  1  0  0  0  0
 27 28  2  0  0  0  0
 29 27  1  0  0  0  0
 31 30  1  0  0  0  0
 32 31  1  0  0  0  0
 33 32  2  0  0  0  0
 33 34  1  0  0  0  0
 34 39  1  6  0  0  0
 34 36  1  0  0  0  0
 36 35  2  0  0  0  0
 38 37  1  0  0  0  0
 38 36  1  0  0  0  0
 40 48  1  6  0  0  0
 40 46  1  0  0  0  0
 41 45  1  0  0  0  0
 42 47  1  6  0  0  0
 42 43  1  0  0  0  0
 42 41  1  0  0  0  0
 43 47  1  6  0  0  0
 43 40  1  0  0  0  0
 43 46  1  0  0  0  0
 45 44  1  6  0  0  0
 46 39  1  1  0  0  0
 49 40  1  0  0  0  0
 49 45  1  0  0  0  0
M  END
>  <MODEL>
3

>  <REMARK>
 VINA RESULT:      -6.9      3.055      7.547
  Name = 
  22 active torsions:
  status: ('A' for Active; 'I' for Inactive)
    1  A    between atoms: C_1  and  C_15
    2  A    between atoms: C_1  and  C_26
    3  A    between atoms: C_2  and  C_20
    4  A    between atoms: C_2  and  C_38
    5  A    between atoms: C_2  and  C_39
    6  A    between atoms: C_3  and  O_19
    7  A    between atoms: C_3  and  N_46
    8  A    between atoms: C_4  and  C_45
    9  A    between atoms: C_6  and  C_28
   10  A    between atoms: C_6  and  C_34
   11  A    between atoms: C_7  and  C_35
   12  A    between atoms: C_7  and  S_40
   13  A    between atoms: C_9  and  C_25
   14  A    between atoms: C_11  and  C_42
   15  A    between atoms: C_13  and  C_28
   16  A    between atoms: C_15  and  C_31
   17  A    between atoms: N_16  and  O_19
   18  A    between atoms: C_22  and  O_36
   19  A    between atoms: C_26  and  C_45
   20  A    between atoms: C_29  and  C_39
   21  A    between atoms: C_32  and  C_38
   22  A    between atoms: O_36  and  C_45
                            x       y       z     vdW  Elec       q    Type
                         _______ _______ _______ _____ _____    ______ ____

>  <TORSDO>
F 22

$$$$
=
 OpenBabel11062414013D

 49 53  0  0  1  0  0  0  0  0999 V2000
  187.9200  177.4700  137.6980 C   0  0  2  0  0  3  0  0  0  0  0  0
  189.3960  177.2910  137.6590 N   0  0  0  0  0  0  0  0  0  0  0  0
  188.6700  177.2990  138.9450 C   0  0  1  0  0  3  0  0  0  0  0  0
  185.8230  176.2680  137.0140 C   0  0  0  0  0  3  0  0  0  0  0  0
  187.1260  176.2260  137.3500 C   0  0  0  0  0  3  0  0  0  0  0  0
  185.0330  177.5460  137.0320 C   0  0  0  0  0  2  0  0  0  0  0  0
  183.6660  177.2670  137.6220 C   0  0  0  0  0  2  0  0  0  0  0  0
  183.4240  178.1160  138.8670 C   0  0  0  0  0  2  0  0  0  0  0  0
  181.6370  178.9030  137.3300 C   0  0  0  0  0  1  0  0  0  0  0  0
  182.0720  178.8830  138.7880 C   0  0  1  0  0  0  0  0  0  0  0  0
  180.9290  178.1120  139.5020 C   0  0  2  0  0  3  0  0  0  0  0  0
  180.9410  178.1820  140.9800 C   0  0  2  0  0  3  0  0  0  0  0  0
  181.4210  177.0530  140.3000 O   0  0  0  0  0  0  0  0  0  0  0  0
  179.5310  177.9270  141.4720 C   0  0  0  0  0  2  0  0  0  0  0  0
  180.5250  180.1660  142.8290 N   0  0  0  0  0  1  0  0  0  0  0  0
  178.9470  178.4920  143.9660 O   0  0  0  0  0  0  0  0  0  0  0  0
  179.0710  179.2160  142.6360 S   0  0  2  0  0  0  0  0  0  0  0  0
  182.1480  180.2480  139.2020 O   0  0  0  0  0  0  0  0  0  0  0  0
  181.1070  181.0170  138.6420 C   0  0  0  0  0  3  0  0  0  0  0  0
  180.2650  181.4540  139.6640 O   0  0  0  0  0  1  0  0  0  0  0  0
  181.6580  182.1280  138.0000 O   0  0  0  0  0  1  0  0  0  0  0  0
  189.7170  175.9980  137.4010 O   0  0  0  0  0  0  0  0  0  0  0  0
  190.5980  176.0590  136.3170 C   0  0  0  0  0  2  0  0  0  0  0  0
  192.8660  175.3470  137.2350 C   0  0  0  0  0  0  0  0  0  0  0  0
  191.6780  175.0850  136.4760 N   0  0  0  0  0  2  0  0  0  0  0  0
  192.9330  176.3600  137.9930 O   0  0  0  0  0  0  0  0  0  0  0  0
  193.9940  174.4120  137.1630 C   0  0  0  0  0  0  0  0  0  0  0  0
  194.2660  173.8240  136.0690 O   0  0  0  0  0  0  0  0  0  0  0  0
  194.8640  174.1730  138.3680 C   0  0  0  0  0  1  0  0  0  0  0  0
  188.8310  178.6610  139.5930 C   0  0  0  0  0  2  0  0  0  0  0  0
  188.0990  178.7110  140.9280 C   0  0  0  0  0  2  0  0  0  0  0  0
  186.6190  178.6030  140.7090 C   0  0  0  0  0  3  0  0  0  0  0  0
  185.7250  178.4470  141.6950 C   0  0  0  0  0  3  0  0  0  0  0  0
  186.0390  178.3670  143.1720 C   0  0  1  0  0  3  0  0  0  0  0  0
  183.7460  178.8070  143.6120 O   0  0  0  0  0  0  0  0  0  0  0  0
  184.8340  178.5140  144.0660 C   0  0  0  0  0  0  0  0  0  0  0  0
  185.7000  179.3340  146.2230 C   0  0  0  0  0  1  0  0  0  0  0  0
  184.9640  178.2160  145.5280 C   0  0  0  0  0  2  0  0  0  0  0  0
  186.9380  177.1720  143.5140 C   0  0  0  0  0  2  0  0  0  0  0  0
  189.1480  177.3030  144.7880 C   0  0  1  0  0  0  0  0  0  0  0  0
  191.4370  177.7510  142.9090 C   0  0  0  0  0  2  0  0  0  0  0  0
  190.4950  176.5480  142.6760 C   0  0  2  0  0  3  0  0  0  0  0  0
  189.3130  176.2560  143.6630 C   0  0  2  0  0  0  0  0  0  0  0  0
  191.9160  179.8240  144.0960 N   0  0  0  0  0  1  0  0  0  0  0  0
  190.8670  178.8710  143.7790 C   0  0  2  0  0  3  0  0  0  0  0  0
  188.4350  177.5180  143.4750 C   0  0  1  0  0  3  0  0  0  0  0  0
  190.7220  175.6850  143.8610 C   0  0  0  0  0  2  0  0  0  0  0  0
  188.3490  176.8090  145.9910 C   0  0  0  0  0  1  0  0  0  0  0  0
  190.2840  178.2980  145.0690 C   0  0  0  0  0  2  0  0  0  0  0  0
  1  5  1  6  0  0  0
  1  3  1  0  0  0  0
  2  1  1  0  0  0  0
  2  3  1  0  0  0  0
  3 30  1  1  0  0  0
  4  6  1  0  0  0  0
  4  5  2  0  0  0  0
  6  7  1  0  0  0  0
  7  8  1  0  0  0  0
 10  9  1  6  0  0  0
 10  8  1  0  0  0  0
 10 18  1  0  0  0  0
 11 10  1  6  0  0  0
 11 13  1  0  0  0  0
 11 12  1  0  0  0  0
 12 14  1  1  0  0  0
 13 12  1  0  0  0  0
 14 17  1  0  0  0  0
 17 15  1  1  0  0  0
 17 16  2  0  0  0  0
 19 18  1  0  0  0  0
 19 20  1  0  0  0  0
 21 19  1  0  0  0  0
 22  2  1  0  0  0  0
 23 25  1  0  0  0  0
 23 22  1  0  0  0  0
 24 26  2  0  0  0  0
 25 24  1  0  0  0  0
 27 24  1  0  0  0  0
 27 29  1  0  0  0  0
 28 27  2  0  0  0  0
 30 31  1  0  0  0  0
 32 31  1  0  0  0  0
 32 33  2  0  0  0  0
 34 33  1  6  0  0  0
 34 39  1  0  0  0  0
 34 36  1  0  0  0  0
 35 36  2  0  0  0  0
 36 38  1  0  0  0  0
 38 37  1  0  0  0  0
 40 49  1  0  0  0  0
 40 48  1  1  0  0  0
 41 45  1  0  0  0  0
 42 41  1  1  0  0  0
 42 43  1  0  0  0  0
 42 47  1  0  0  0  0
 43 47  1  1  0  0  0
 43 40  1  0  0  0  0
 45 44  1  1  0  0  0
 45 49  1  0  0  0  0
 46 39  1  1  0  0  0
 46 43  1  0  0  0  0
 46 40  1  0  0  0  0
M  END
>  <MODEL>
4

>  <REMARK>
 VINA RESULT:      -6.9      3.562      9.271
  Name = 
  22 active torsions:
  status: ('A' for Active; 'I' for Inactive)
    1  A    between atoms: C_1  and  C_15
    2  A    between atoms: C_1  and  C_26
    3  A    between atoms: C_2  and  C_20
    4  A    between atoms: C_2  and  C_38
    5  A    between atoms: C_2  and  C_39
    6  A    between atoms: C_3  and  O_19
    7  A    between atoms: C_3  and  N_46
    8  A    between atoms: C_4  and  C_45
    9  A    between atoms: C_6  and  C_28
   10  A    between atoms: C_6  and  C_34
   11  A    between atoms: C_7  and  C_35
   12  A    between atoms: C_7  and  S_40
   13  A    between atoms: C_9  and  C_25
   14  A    between atoms: C_11  and  C_42
   15  A    between atoms: C_13  and  C_28
   16  A    between atoms: C_15  and  C_31
   17  A    between atoms: N_16  and  O_19
   18  A    between atoms: C_22  and  O_36
   19  A    between atoms: C_26  and  C_45
   20  A    between atoms: C_29  and  C_39
   21  A    between atoms: C_32  and  C_38
   22  A    between atoms: O_36  and  C_45
                            x       y       z     vdW  Elec       q    Type
                         _______ _______ _______ _____ _____    ______ ____

>  <TORSDO>
F 22

$$$$
=
 OpenBabel11062414013D

 49 53  0  0  1  0  0  0  0  0999 V2000
  186.4030  178.2660  143.7580 C   0  0  2  0  0  3  0  0  0  0  0  0
  185.6040  178.7320  144.9220 N   0  0  0  0  0  0  0  0  0  0  0  0
  184.9410  178.1620  143.7310 C   0  0  1  0  0  3  0  0  0  0  0  0
  188.3750  176.7110  143.7730 C   0  0  0  0  0  3  0  0  0  0  0  0
  187.0550  176.9100  143.9430 C   0  0  0  0  0  3  0  0  0  0  0  0
  189.2960  177.8050  143.3090 C   0  0  0  0  0  2  0  0  0  0  0  0
  190.4760  177.1800  142.5930 C   0  0  0  0  0  2  0  0  0  0  0  0
  190.0270  176.4530  141.3300 C   0  0  0  0  0  2  0  0  0  0  0  0
  191.9580  177.5890  140.2570 C   0  0  0  0  0  1  0  0  0  0  0  0
  190.5080  177.1830  140.0420 C   0  0  1  0  0  0  0  0  0  0  0  0
  190.5720  176.2220  138.8240 C   0  0  2  0  0  3  0  0  0  0  0  0
  191.9310  175.9130  138.3280 C   0  0  2  0  0  3  0  0  0  0  0  0
  191.1140  176.8520  137.6800 O   0  0  0  0  0  0  0  0  0  0  0  0
  191.8720  174.5880  137.5970 C   0  0  0  0  0  2  0  0  0  0  0  0
  194.5390  175.4420  137.6320 N   0  0  0  0  0  1  0  0  0  0  0  0
  193.5030  174.3420  135.5570 O   0  0  0  0  0  0  0  0  0  0  0  0
  193.5270  174.1360  137.0620 S   0  0  2  0  0  0  0  0  0  0  0  0
  189.7950  178.3850  139.7500 O   0  0  0  0  0  0  0  0  0  0  0  0
  188.4660  178.1160  139.3600 C   0  0  0  0  0  3  0  0  0  0  0  0
  187.5970  178.6450  140.3150 O   0  0  0  0  0  1  0  0  0  0  0  0
  188.2200  178.7320  138.1320 O   0  0  0  0  0  1  0  0  0  0  0  0
  185.5580  177.7780  145.8870 O   0  0  0  0  0  0  0  0  0  0  0  0
  185.8460  178.4570  147.0740 C   0  0  0  0  0  2  0  0  0  0  0  0
  188.1460  177.4520  147.5060 C   0  0  0  0  0  0  0  0  0  0  0  0
  187.2910  178.5770  147.2620 N   0  0  0  0  0  2  0  0  0  0  0  0
  187.7160  176.2710  147.3460 O   0  0  0  0  0  0  0  0  0  0  0  0
  189.5420  177.6740  147.9030 C   0  0  0  0  0  0  0  0  0  0  0  0
  189.8110  178.4350  148.8860 O   0  0  0  0  0  0  0  0  0  0  0  0
  190.6610  176.9710  147.1830 C   0  0  0  0  0  1  0  0  0  0  0  0
  184.4000  179.2950  142.8800 C   0  0  0  0  0  2  0  0  0  0  0  0
  184.3820  178.9000  141.4090 C   0  0  0  0  0  2  0  0  0  0  0  0
  183.5630  177.6580  141.2190 C   0  0  0  0  0  3  0  0  0  0  0  0
  182.9080  177.3580  140.0890 C   0  0  0  0  0  3  0  0  0  0  0  0
  182.8900  178.1900  138.8270 C   0  0  1  0  0  3  0  0  0  0  0  0
  182.9450  180.5640  138.7320 O   0  0  0  0  0  0  0  0  0  0  0  0
  182.3060  179.5690  139.0080 C   0  0  0  0  0  0  0  0  0  0  0  0
  180.4690  181.1590  139.4200 C   0  0  0  0  0  1  0  0  0  0  0  0
  180.8850  179.7100  139.4590 C   0  0  0  0  0  2  0  0  0  0  0  0
  184.2350  178.1650  138.0900 C   0  0  0  0  0  2  0  0  0  0  0  0
  184.2810  176.2350  136.4170 C   0  0  1  0  0  0  0  0  0  0  0  0
  186.2820  174.1620  137.2350 C   0  0  0  0  0  2  0  0  0  0  0  0
  186.7410  175.6290  137.0710 C   0  0  2  0  0  3  0  0  0  0  0  0
  185.7320  176.7330  136.6020 C   0  0  2  0  0  0  0  0  0  0  0  0
  184.4620  172.5470  137.3480 N   0  0  0  0  0  1  0  0  0  0  0  0
  184.7790  173.9620  137.4260 C   0  0  2  0  0  3  0  0  0  0  0  0
  184.7160  176.7400  137.7710 C   0  0  1  0  0  3  0  0  0  0  0  0
  186.5630  175.8970  135.6230 C   0  0  0  0  0  2  0  0  0  0  0  0
  183.4180  177.1330  135.5360 C   0  0  0  0  0  1  0  0  0  0  0  0
  184.0000  174.7260  136.3580 C   0  0  0  0  0  2  0  0  0  0  0  0
  1  5  1  1  0  0  0
  1  2  1  0  0  0  0
  2 22  1  0  0  0  0
  3 30  1  6  0  0  0
  3  1  1  0  0  0  0
  3  2  1  0  0  0  0
  4  5  2  0  0  0  0
  6  4  1  0  0  0  0
  7  6  1  0  0  0  0
  8  7  1  0  0  0  0
 10  9  1  1  0  0  0
 10  8  1  0  0  0  0
 11 10  1  1  0  0  0
 12 14  1  6  0  0  0
 12 11  1  0  0  0  0
 13 12  1  0  0  0  0
 13 11  1  0  0  0  0
 17 16  2  6  0  0  0
 17 14  1  0  0  0  0
 17 15  1  0  0  0  0
 18 10  1  0  0  0  0
 19 18  1  0  0  0  0
 19 20  1  0  0  0  0
 21 19  1  0  0  0  0
 22 23  1  0  0  0  0
 23 25  1  0  0  0  0
 24 27  1  0  0  0  0
 25 24  1  0  0  0  0
 26 24  2  0  0  0  0
 27 28  2  0  0  0  0
 29 27  1  0  0  0  0
 31 30  1  0  0  0  0
 32 31  1  0  0  0  0
 33 32  2  0  0  0  0
 34 39  1  1  0  0  0
 34 36  1  0  0  0  0
 34 33  1  0  0  0  0
 35 36  2  0  0  0  0
 36 38  1  0  0  0  0
 37 38  1  0  0  0  0
 40 48  1  6  0  0  0
 40 43  1  0  0  0  0
 40 46  1  0  0  0  0
 41 45  1  0  0  0  0
 42 47  1  6  0  0  0
 42 41  1  0  0  0  0
 43 47  1  6  0  0  0
 43 42  1  0  0  0  0
 43 46  1  0  0  0  0
 45 44  1  6  0  0  0
 46 39  1  6  0  0  0
 49 40  1  0  0  0  0
 49 45  1  0  0  0  0
M  END
>  <MODEL>
5

>  <REMARK>
 VINA RESULT:      -6.7      2.250      3.188
  Name = 
  22 active torsions:
  status: ('A' for Active; 'I' for Inactive)
    1  A    between atoms: C_1  and  C_15
    2  A    between atoms: C_1  and  C_26
    3  A    between atoms: C_2  and  C_20
    4  A    between atoms: C_2  and  C_38
    5  A    between atoms: C_2  and  C_39
    6  A    between atoms: C_3  and  O_19
    7  A    between atoms: C_3  and  N_46
    8  A    between atoms: C_4  and  C_45
    9  A    between atoms: C_6  and  C_28
   10  A    between atoms: C_6  and  C_34
   11  A    between atoms: C_7  and  C_35
   12  A    between atoms: C_7  and  S_40
   13  A    between atoms: C_9  and  C_25
   14  A    between atoms: C_11  and  C_42
   15  A    between atoms: C_13  and  C_28
   16  A    between atoms: C_15  and  C_31
   17  A    between atoms: N_16  and  O_19
   18  A    between atoms: C_22  and  O_36
   19  A    between atoms: C_26  and  C_45
   20  A    between atoms: C_29  and  C_39
   21  A    between atoms: C_32  and  C_38
   22  A    between atoms: O_36  and  C_45
                            x       y       z     vdW  Elec       q    Type
                         _______ _______ _______ _____ _____    ______ ____

>  <TORSDO>
F 22

$$$$
=
 OpenBabel11062414013D

 49 53  0  0  1  0  0  0  0  0999 V2000
  184.3110  178.0010  139.2690 C   0  0  2  0  0  3  0  0  0  0  0  0
  183.2800  178.9190  139.8200 N   0  0  0  0  0  0  0  0  0  0  0  0
  184.6840  179.0060  140.2680 C   0  0  1  0  0  3  0  0  0  0  0  0
  186.1030  178.2490  137.5270 C   0  0  0  0  0  3  0  0  0  0  0  0
  184.8130  178.3740  137.8870 C   0  0  0  0  0  3  0  0  0  0  0  0
  187.1640  177.8010  138.4920 C   0  0  0  0  0  2  0  0  0  0  0  0
  188.4440  177.5400  137.7260 C   0  0  0  0  0  2  0  0  0  0  0  0
  188.7710  176.0500  137.6990 C   0  0  0  0  0  2  0  0  0  0  0  0
  188.4290  176.6070  135.3020 C   0  0  0  0  0  1  0  0  0  0  0  0
  188.9250  175.5200  136.2440 C   0  0  1  0  0  0  0  0  0  0  0  0
  190.4160  175.3430  135.8480 C   0  0  2  0  0  3  0  0  0  0  0  0
  191.3340  175.0120  136.9590 C   0  0  2  0  0  3  0  0  0  0  0  0
  191.2440  176.3170  136.4530 O   0  0  0  0  0  0  0  0  0  0  0  0
  192.5450  174.3140  136.3740 C   0  0  0  0  0  2  0  0  0  0  0  0
  193.9590  175.8450  138.2440 N   0  0  0  0  0  1  0  0  0  0  0  0
  195.1140  174.0420  136.8290 O   0  0  0  0  0  0  0  0  0  0  0  0
  193.8310  174.2160  137.6250 S   0  0  2  0  0  0  0  0  0  0  0  0
  188.1460  174.3580  135.9590 O   0  0  0  0  0  0  0  0  0  0  0  0
  186.9860  174.3030  136.7610 C   0  0  0  0  0  3  0  0  0  0  0  0
  185.8650  174.4770  135.9490 O   0  0  0  0  0  1  0  0  0  0  0  0
  186.9150  173.0490  137.3710 O   0  0  0  0  0  1  0  0  0  0  0  0
  183.0720  179.9680  138.9830 O   0  0  0  0  0  0  0  0  0  0  0  0
  181.7070  180.2460  139.0900 C   0  0  0  0  0  2  0  0  0  0  0  0
  180.9150  181.6250  137.0990 C   0  0  0  0  0  0  0  0  0  0  0  0
  181.3890  181.5210  138.4490 N   0  0  0  0  0  2  0  0  0  0  0  0
  180.5360  180.5920  136.4720 O   0  0  0  0  0  0  0  0  0  0  0  0
  180.8330  182.9420  136.4590 C   0  0  0  0  0  0  0  0  0  0  0  0
  180.5880  183.0320  135.2140 O   0  0  0  0  0  0  0  0  0  0  0  0
  180.9910  184.1980  137.2740 C   0  0  0  0  0  1  0  0  0  0  0  0
  184.8160  178.3130  141.6110 C   0  0  0  0  0  2  0  0  0  0  0  0
  185.1540  179.3200  142.7030 C   0  0  0  0  0  2  0  0  0  0  0  0
  184.4130  178.9820  143.9630 C   0  0  0  0  0  3  0  0  0  0  0  0
  184.9970  178.5050  145.0700 C   0  0  0  0  0  3  0  0  0  0  0  0
  186.4750  178.2400  145.2490 C   0  0  1  0  0  3  0  0  0  0  0  0
  186.5700  176.7330  147.0840 O   0  0  0  0  0  0  0  0  0  0  0  0
  186.8610  177.8280  146.6470 C   0  0  0  0  0  0  0  0  0  0  0  0
  188.3110  178.0050  148.6330 C   0  0  0  0  0  1  0  0  0  0  0  0
  187.6880  178.7570  147.4840 C   0  0  0  0  0  2  0  0  0  0  0  0
  187.0450  177.3410  144.1450 C   0  0  0  0  0  2  0  0  0  0  0  0
  189.3110  177.0570  143.0020 C   0  0  1  0  0  0  0  0  0  0  0  0
  191.5320  177.0980  145.0110 C   0  0  0  0  0  2  0  0  0  0  0  0
  190.5380  178.2800  144.9630 C   0  0  2  0  0  3  0  0  0  0  0  0
  189.3890  178.3150  143.8970 C   0  0  2  0  0  0  0  0  0  0  0  0
  192.1390  174.8530  144.2850 N   0  0  0  0  0  1  0  0  0  0  0  0
  191.0430  175.8020  144.3650 C   0  0  2  0  0  3  0  0  0  0  0  0
  188.5510  177.0780  144.3050 C   0  0  1  0  0  3  0  0  0  0  0  0
  190.7830  178.8970  143.6370 C   0  0  0  0  0  2  0  0  0  0  0  0
  188.5480  177.2640  141.6970 C   0  0  0  0  0  1  0  0  0  0  0  0
  190.4940  176.0780  142.9670 C   0  0  0  0  0  2  0  0  0  0  0  0
  1  5  1  6  0  0  0
  1  2  1  0  0  0  0
  1  3  1  0  0  0  0
  2  3  1  0  0  0  0
  3 30  1  1  0  0  0
  4  5  2  0  0  0  0
  4  6  1  0  0  0  0
  7  6  1  0  0  0  0
  8  7  1  0  0  0  0
 10  9  1  6  0  0  0
 10  8  1  0  0  0  0
 11 10  1  1  0  0  0
 11 13  1  0  0  0  0
 11 12  1  0  0  0  0
 12 14  1  6  0  0  0
 13 12  1  0  0  0  0
 14 17  1  0  0  0  0
 17 16  2  6  0  0  0
 17 15  1  0  0  0  0
 18 10  1  0  0  0  0
 18 19  1  0  0  0  0
 19 21  1  0  0  0  0
 20 19  1  0  0  0  0
 22 23  1  0  0  0  0
 22  2  1  0  0  0  0
 24 25  1  0  0  0  0
 25 23  1  0  0  0  0
 26 24  2  0  0  0  0
 27 24  1  0  0  0  0
 27 29  1  0  0  0  0
 28 27  2  0  0  0  0
 30 31  1  0  0  0  0
 31 32  1  0  0  0  0
 32 33  2  0  0  0  0
 33 34  1  0  0  0  0
 34 39  1  6  0  0  0
 34 36  1  0  0  0  0
 36 35  2  0  0  0  0
 36 38  1  0  0  0  0
 38 37  1  0  0  0  0
 40 48  1  6  0  0  0
 40 43  1  0  0  0  0
 40 46  1  0  0  0  0
 42 47  1  6  0  0  0
 42 41  1  0  0  0  0
 43 47  1  6  0  0  0
 43 46  1  0  0  0  0
 43 42  1  0  0  0  0
 45 44  1  6  0  0  0
 45 41  1  0  0  0  0
 46 39  1  6  0  0  0
 49 40  1  0  0  0  0
 49 45  1  0  0  0  0
M  END
>  <MODEL>
6

>  <REMARK>
 VINA RESULT:      -6.6      2.699      8.272
  Name = 
  22 active torsions:
  status: ('A' for Active; 'I' for Inactive)
    1  A    between atoms: C_1  and  C_15
    2  A    between atoms: C_1  and  C_26
    3  A    between atoms: C_2  and  C_20
    4  A    between atoms: C_2  and  C_38
    5  A    between atoms: C_2  and  C_39
    6  A    between atoms: C_3  and  O_19
    7  A    between atoms: C_3  and  N_46
    8  A    between atoms: C_4  and  C_45
    9  A    between atoms: C_6  and  C_28
   10  A    between atoms: C_6  and  C_34
   11  A    between atoms: C_7  and  C_35
   12  A    between atoms: C_7  and  S_40
   13  A    between atoms: C_9  and  C_25
   14  A    between atoms: C_11  and  C_42
   15  A    between atoms: C_13  and  C_28
   16  A    between atoms: C_15  and  C_31
   17  A    between atoms: N_16  and  O_19
   18  A    between atoms: C_22  and  O_36
   19  A    between atoms: C_26  and  C_45
   20  A    between atoms: C_29  and  C_39
   21  A    between atoms: C_32  and  C_38
   22  A    between atoms: O_36  and  C_45
                            x       y       z     vdW  Elec       q    Type
                         _______ _______ _______ _____ _____    ______ ____

>  <TORSDO>
F 22

$$$$
=
 OpenBabel11062414013D

 49 53  0  0  1  0  0  0  0  0999 V2000
  188.2350  178.3740  138.8410 C   0  0  2  0  0  3  0  0  0  0  0  0
  189.7050  178.2150  139.0090 N   0  0  0  0  0  0  0  0  0  0  0  0
  188.7630  177.3350  139.7310 C   0  0  1  0  0  3  0  0  0  0  0  0
  186.3680  177.5490  137.3790 C   0  0  0  0  0  3  0  0  0  0  0  0
  187.6800  177.7820  137.5600 C   0  0  0  0  0  3  0  0  0  0  0  0
  185.3550  177.7860  138.4640 C   0  0  0  0  0  2  0  0  0  0  0  0
  184.0750  178.2960  137.8370 C   0  0  0  0  0  2  0  0  0  0  0  0
  183.0410  178.6400  138.9050 C   0  0  0  0  0  2  0  0  0  0  0  0
  181.4780  177.8980  137.1220 C   0  0  0  0  0  1  0  0  0  0  0  0
  181.6290  178.8610  138.2910 C   0  0  1  0  0  0  0  0  0  0  0  0
  180.5000  178.4320  139.2680 C   0  0  2  0  0  3  0  0  0  0  0  0
  180.9550  177.8170  140.5340 C   0  0  2  0  0  3  0  0  0  0  0  0
  180.4790  177.0330  139.4720 O   0  0  0  0  0  0  0  0  0  0  0  0
  179.8620  178.0060  141.5650 C   0  0  0  0  0  2  0  0  0  0  0  0
  180.0580  180.6620  142.4310 N   0  0  0  0  0  1  0  0  0  0  0  0
  181.9940  179.0020  142.7260 O   0  0  0  0  0  0  0  0  0  0  0  0
  180.4840  179.0340  142.9010 S   0  0  2  0  0  0  0  0  0  0  0  0
  181.4190  180.1700  137.7600 O   0  0  0  0  0  0  0  0  0  0  0  0
  181.4530  181.1500  138.7730 C   0  0  0  0  0  3  0  0  0  0  0  0
  182.6750  181.8200  138.7170 O   0  0  0  0  0  1  0  0  0  0  0  0
  180.4220  182.0660  138.5530 O   0  0  0  0  0  1  0  0  0  0  0  0
  190.2280  177.4780  137.9950 O   0  0  0  0  0  0  0  0  0  0  0  0
  191.2070  176.6860  138.6000 C   0  0  0  0  0  2  0  0  0  0  0  0
  191.5820  174.5710  137.2300 C   0  0  0  0  0  0  0  0  0  0  0  0
  191.9360  175.9120  137.5950 N   0  0  0  0  0  2  0  0  0  0  0  0
  190.4780  174.0740  137.6030 O   0  0  0  0  0  0  0  0  0  0  0  0
  192.4890  173.7860  136.3830 C   0  0  0  0  0  0  0  0  0  0  0  0
  192.0940  172.6920  135.8700 O   0  0  0  0  0  0  0  0  0  0  0  0
  193.8740  174.2890  136.0790 C   0  0  0  0  0  1  0  0  0  0  0  0
  188.6320  177.8240  141.1610 C   0  0  0  0  0  2  0  0  0  0  0  0
  189.8630  177.4430  141.9730 C   0  0  0  0  0  2  0  0  0  0  0  0
  190.3010  178.6020  142.8190 C   0  0  0  0  0  3  0  0  0  0  0  0
  190.3200  178.5860  144.1590 C   0  0  0  0  0  3  0  0  0  0  0  0
  189.9270  177.4210  145.0380 C   0  0  1  0  0  3  0  0  0  0  0  0
  191.9910  176.2440  145.0750 O   0  0  0  0  0  0  0  0  0  0  0  0
  191.0900  176.7430  145.7180 C   0  0  0  0  0  0  0  0  0  0  0  0
  192.0750  175.6470  147.6930 C   0  0  0  0  0  1  0  0  0  0  0  0
  191.1740  176.7560  147.2140 C   0  0  0  0  0  2  0  0  0  0  0  0
  188.7600  177.7630  145.9730 C   0  0  0  0  0  2  0  0  0  0  0  0
  186.7010  177.3280  144.5250 C   0  0  1  0  0  0  0  0  0  0  0  0
  184.9810  179.7740  144.3540 C   0  0  0  0  0  2  0  0  0  0  0  0
  185.3540  179.2100  145.7440 C   0  0  2  0  0  3  0  0  0  0  0  0
  186.2150  177.9070  145.8730 C   0  0  2  0  0  0  0  0  0  0  0  0
  185.3040  179.7500  141.9390 N   0  0  0  0  0  1  0  0  0  0  0  0
  185.8850  179.3330  143.2040 C   0  0  2  0  0  3  0  0  0  0  0  0
  187.5520  178.3560  145.2300 C   0  0  1  0  0  3  0  0  0  0  0  0
  184.6850  177.8880  145.7820 C   0  0  0  0  0  2  0  0  0  0  0  0
  187.1120  175.8600  144.5860 C   0  0  0  0  0  1  0  0  0  0  0  0
  186.0620  177.8170  143.2160 C   0  0  0  0  0  2  0  0  0  0  0  0
  1  5  1  6  0  0  0
  1  2  1  0  0  0  0
  1  3  1  0  0  0  0
  2  3  1  0  0  0  0
  3 30  1  1  0  0  0
  4  5  2  0  0  0  0
  4  6  1  0  0  0  0
  7  6  1  0  0  0  0
  7  8  1  0  0  0  0
 10  9  1  6  0  0  0
 10  8  1  0  0  0  0
 11 10  1  6  0  0  0
 11 13  1  0  0  0  0
 11 12  1  0  0  0  0
 12 14  1  1  0  0  0
 13 12  1  0  0  0  0
 14 17  1  0  0  0  0
 16 17  2  0  0  0  0
 17 15  1  6  0  0  0
 18 10  1  0  0  0  0
 18 19  1  0  0  0  0
 20 19  1  0  0  0  0
 21 19  1  0  0  0  0
 22 23  1  0  0  0  0
 22  2  1  0  0  0  0
 24 25  1  0  0  0  0
 24 26  2  0  0  0  0
 25 23  1  0  0  0  0
 27 24  1  0  0  0  0
 28 27  2  0  0  0  0
 29 27  1  0  0  0  0
 30 31  1  0  0  0  0
 31 32  1  0  0  0  0
 32 33  2  0  0  0  0
 34 33  1  1  0  0  0
 34 36  1  0  0  0  0
 34 39  1  0  0  0  0
 35 36  2  0  0  0  0
 36 38  1  0  0  0  0
 38 37  1  0  0  0  0
 40 48  1  1  0  0  0
 40 46  1  0  0  0  0
 40 43  1  0  0  0  0
 42 41  1  6  0  0  0
 42 47  1  0  0  0  0
 42 43  1  0  0  0  0
 43 47  1  1  0  0  0
 45 44  1  6  0  0  0
 45 49  1  0  0  0  0
 45 41  1  0  0  0  0
 46 43  1  0  0  0  0
 46 39  1  1  0  0  0
 49 40  1  0  0  0  0
M  END
>  <MODEL>
7

>  <REMARK>
 VINA RESULT:      -6.5      3.279      9.423
  Name = 
  22 active torsions:
  status: ('A' for Active; 'I' for Inactive)
    1  A    between atoms: C_1  and  C_15
    2  A    between atoms: C_1  and  C_26
    3  A    between atoms: C_2  and  C_20
    4  A    between atoms: C_2  and  C_38
    5  A    between atoms: C_2  and  C_39
    6  A    between atoms: C_3  and  O_19
    7  A    between atoms: C_3  and  N_46
    8  A    between atoms: C_4  and  C_45
    9  A    between atoms: C_6  and  C_28
   10  A    between atoms: C_6  and  C_34
   11  A    between atoms: C_7  and  C_35
   12  A    between atoms: C_7  and  S_40
   13  A    between atoms: C_9  and  C_25
   14  A    between atoms: C_11  and  C_42
   15  A    between atoms: C_13  and  C_28
   16  A    between atoms: C_15  and  C_31
   17  A    between atoms: N_16  and  O_19
   18  A    between atoms: C_22  and  O_36
   19  A    between atoms: C_26  and  C_45
   20  A    between atoms: C_29  and  C_39
   21  A    between atoms: C_32  and  C_38
   22  A    between atoms: O_36  and  C_45
                            x       y       z     vdW  Elec       q    Type
                         _______ _______ _______ _____ _____    ______ ____

>  <TORSDO>
F 22

$$$$
=
 OpenBabel11062414013D

 49 53  0  0  1  0  0  0  0  0999 V2000
  185.1370  177.8900  139.9200 C   0  0  2  0  0  3  0  0  0  0  0  0
  183.7300  178.3040  140.1700 N   0  0  0  0  0  0  0  0  0  0  0  0
  184.8510  178.9890  140.8470 C   0  0  1  0  0  3  0  0  0  0  0  0
  187.0380  178.3550  138.3460 C   0  0  0  0  0  3  0  0  0  0  0  0
  185.7200  178.3980  138.6160 C   0  0  0  0  0  3  0  0  0  0  0  0
  188.0450  177.8690  139.3500 C   0  0  0  0  0  2  0  0  0  0  0  0
  189.4280  177.9570  138.7380 C   0  0  0  0  0  2  0  0  0  0  0  0
  189.3770  177.7040  137.2340 C   0  0  0  0  0  2  0  0  0  0  0  0
  190.1780  175.4760  137.9870 C   0  0  0  0  0  1  0  0  0  0  0  0
  190.2230  176.4630  136.8290 C   0  0  1  0  0  0  0  0  0  0  0  0
  189.5760  175.6810  135.6540 C   0  0  2  0  0  3  0  0  0  0  0  0
  188.6200  174.6220  136.0450 C   0  0  2  0  0  3  0  0  0  0  0  0
  189.9350  174.3130  135.6660 O   0  0  0  0  0  0  0  0  0  0  0  0
  187.6790  174.3880  134.8800 C   0  0  0  0  0  2  0  0  0  0  0  0
  186.0030  174.9620  137.0490 N   0  0  0  0  0  1  0  0  0  0  0  0
  185.1010  173.9030  134.8920 O   0  0  0  0  0  0  0  0  0  0  0  0
  186.0500  175.0170  135.3030 S   0  0  2  0  0  0  0  0  0  0  0  0
  191.6040  176.7450  136.5980 O   0  0  0  0  0  0  0  0  0  0  0  0
  192.4380  175.9170  137.3770 C   0  0  0  0  0  3  0  0  0  0  0  0
  193.1420  175.0580  136.5330 O   0  0  0  0  0  1  0  0  0  0  0  0
  193.3480  176.7160  138.0730 O   0  0  0  0  0  1  0  0  0  0  0  0
  183.2940  179.1420  139.1940 O   0  0  0  0  0  0  0  0  0  0  0  0
  182.0020  178.7010  138.8980 C   0  0  0  0  0  2  0  0  0  0  0  0
  180.4210  180.4270  139.9050 C   0  0  0  0  0  0  0  0  0  0  0  0
  181.0600  179.1430  139.9260 N   0  0  0  0  0  2  0  0  0  0  0  0
  180.4750  181.1540  138.8690 O   0  0  0  0  0  0  0  0  0  0  0  0
  179.6680  180.8820  141.0790 C   0  0  0  0  0  0  0  0  0  0  0  0
  178.9310  181.9150  141.0030 O   0  0  0  0  0  0  0  0  0  0  0  0
  179.7240  180.1070  142.3680 C   0  0  0  0  0  1  0  0  0  0  0  0
  184.9680  178.4590  142.2630 C   0  0  0  0  0  2  0  0  0  0  0  0
  184.7110  179.5680  143.2750 C   0  0  0  0  0  2  0  0  0  0  0  0
  183.9770  179.0220  144.4630 C   0  0  0  0  0  3  0  0  0  0  0  0
  184.5730  178.6280  145.5970 C   0  0  0  0  0  3  0  0  0  0  0  0
  186.0570  178.6750  145.8800 C   0  0  1  0  0  3  0  0  0  0  0  0
  186.0570  180.1080  147.7760 O   0  0  0  0  0  0  0  0  0  0  0  0
  186.4010  179.0440  147.3010 C   0  0  0  0  0  0  0  0  0  0  0  0
  188.4210  178.6170  148.6460 C   0  0  0  0  0  1  0  0  0  0  0  0
  187.1100  178.0480  148.1670 C   0  0  0  0  0  2  0  0  0  0  0  0
  186.7910  177.4350  145.3540 C   0  0  0  0  0  2  0  0  0  0  0  0
  189.3260  177.1370  145.2560 C   0  0  1  0  0  0  0  0  0  0  0  0
  190.4240  178.1920  142.6760 C   0  0  0  0  0  2  0  0  0  0  0  0
  189.2990  177.1330  142.6400 C   0  0  2  0  0  3  0  0  0  0  0  0
  188.7290  176.5260  143.9680 C   0  0  2  0  0  0  0  0  0  0  0  0
  191.7780  179.7510  143.9690 N   0  0  0  0  0  1  0  0  0  0  0  0
  190.5630  178.9560  143.9920 C   0  0  2  0  0  3  0  0  0  0  0  0
  188.1070  177.7770  144.6370 C   0  0  1  0  0  3  0  0  0  0  0  0
  189.9280  175.9250  143.2250 C   0  0  0  0  0  2  0  0  0  0  0  0
  189.1550  176.2690  146.4980 C   0  0  0  0  0  1  0  0  0  0  0  0
  190.6050  177.9850  145.1700 C   0  0  0  0  0  2  0  0  0  0  0  0
  1  5  1  6  0  0  0
  1  2  1  0  0  0  0
  1  3  1  0  0  0  0
  2  3  1  0  0  0  0
  3 30  1  1  0  0  0
  4  5  2  0  0  0  0
  4  6  1  0  0  0  0
  7  6  1  0  0  0  0
  8  7  1  0  0  0  0
 10  8  1  0  0  0  0
 10  9  1  1  0  0  0
 11 13  1  0  0  0  0
 11 12  1  0  0  0  0
 11 10  1  1  0  0  0
 12 14  1  6  0  0  0
 13 12  1  0  0  0  0
 14 17  1  0  0  0  0
 17 16  2  6  0  0  0
 17 15  1  0  0  0  0
 18 10  1  0  0  0  0
 18 19  1  0  0  0  0
 19 21  1  0  0  0  0
 20 19  1  0  0  0  0
 22  2  1  0  0  0  0
 23 22  1  0  0  0  0
 23 25  1  0  0  0  0
 24 25  1  0  0  0  0
 24 27  1  0  0  0  0
 26 24  2  0  0  0  0
 27 29  1  0  0  0  0
 28 27  2  0  0  0  0
 30 31  1  0  0  0  0
 31 32  1  0  0  0  0
 32 33  2  0  0  0  0
 33 34  1  0  0  0  0
 34 39  1  1  0  0  0
 34 36  1  0  0  0  0
 36 35  2  0  0  0  0
 36 38  1  0  0  0  0
 38 37  1  0  0  0  0
 40 48  1  1  0  0  0
 41 45  1  0  0  0  0
 42 41  1  1  0  0  0
 42 47  1  0  0  0  0
 42 43  1  0  0  0  0
 43 47  1  1  0  0  0
 43 46  1  0  0  0  0
 43 40  1  0  0  0  0
 45 44  1  6  0  0  0
 45 49  1  0  0  0  0
 46 40  1  0  0  0  0
 46 39  1  1  0  0  0
 49 40  1  0  0  0  0
M  END
>  <MODEL>
8

>  <REMARK>
 VINA RESULT:      -6.5      2.979      8.186
  Name = 
  22 active torsions:
  status: ('A' for Active; 'I' for Inactive)
    1  A    between atoms: C_1  and  C_15
    2  A    between atoms: C_1  and  C_26
    3  A    between atoms: C_2  and  C_20
    4  A    between atoms: C_2  and  C_38
    5  A    between atoms: C_2  and  C_39
    6  A    between atoms: C_3  and  O_19
    7  A    between atoms: C_3  and  N_46
    8  A    between atoms: C_4  and  C_45
    9  A    between atoms: C_6  and  C_28
   10  A    between atoms: C_6  and  C_34
   11  A    between atoms: C_7  and  C_35
   12  A    between atoms: C_7  and  S_40
   13  A    between atoms: C_9  and  C_25
   14  A    between atoms: C_11  and  C_42
   15  A    between atoms: C_13  and  C_28
   16  A    between atoms: C_15  and  C_31
   17  A    between atoms: N_16  and  O_19
   18  A    between atoms: C_22  and  O_36
   19  A    between atoms: C_26  and  C_45
   20  A    between atoms: C_29  and  C_39
   21  A    between atoms: C_32  and  C_38
   22  A    between atoms: O_36  and  C_45
                            x       y       z     vdW  Elec       q    Type
                         _______ _______ _______ _____ _____    ______ ____

>  <TORSDO>
F 22

$$$$
=
 OpenBabel11062414013D

 49 53  0  0  1  0  0  0  0  0999 V2000
  187.2950  178.0800  142.8590 C   0  0  2  0  0  3  0  0  0  0  0  0
  186.6610  178.3020  144.1860 N   0  0  0  0  0  0  0  0  0  0  0  0
  185.8540  177.8710  143.0260 C   0  0  1  0  0  3  0  0  0  0  0  0
  189.2720  176.6790  142.1970 C   0  0  0  0  0  3  0  0  0  0  0  0
  188.0390  176.7650  142.7290 C   0  0  0  0  0  3  0  0  0  0  0  0
  189.9800  177.8730  141.6200 C   0  0  0  0  0  2  0  0  0  0  0  0
  191.0750  177.3910  140.6910 C   0  0  0  0  0  2  0  0  0  0  0  0
  190.5450  176.3400  139.7200 C   0  0  0  0  0  2  0  0  0  0  0  0
  191.3610  174.9220  137.8500 C   0  0  0  0  0  1  0  0  0  0  0  0
  191.3300  176.3500  138.3760 C   0  0  1  0  0  0  0  0  0  0  0  0
  190.5730  177.1330  137.2700 C   0  0  2  0  0  3  0  0  0  0  0  0
  189.1660  176.7310  137.0550 C   0  0  2  0  0  3  0  0  0  0  0  0
  190.1870  176.2970  136.1970 O   0  0  0  0  0  0  0  0  0  0  0  0
  188.4330  177.9030  136.4340 C   0  0  0  0  0  2  0  0  0  0  0  0
  187.2080  178.4840  138.8840 N   0  0  0  0  0  1  0  0  0  0  0  0
  186.2990  176.6620  137.3220 O   0  0  0  0  0  0  0  0  0  0  0  0
  186.8310  178.0820  137.2260 S   0  0  2  0  0  0  0  0  0  0  0  0
  192.6930  176.7600  138.4970 O   0  0  0  0  0  0  0  0  0  0  0  0
  193.5460  175.9610  137.7070 C   0  0  0  0  0  3  0  0  0  0  0  0
  194.0870  176.7450  136.6880 O   0  0  0  0  0  1  0  0  0  0  0  0
  194.5820  175.4770  138.5080 O   0  0  0  0  0  1  0  0  0  0  0  0
  186.8140  177.2120  144.9810 O   0  0  0  0  0  0  0  0  0  0  0  0
  187.6200  177.6500  146.0350 C   0  0  0  0  0  2  0  0  0  0  0  0
  189.9540  177.2240  146.9640 C   0  0  0  0  0  0  0  0  0  0  0  0
  188.9310  177.0040  145.9830 N   0  0  0  0  0  2  0  0  0  0  0  0
  189.6850  177.8190  148.0490 O   0  0  0  0  0  0  0  0  0  0  0  0
  191.3110  176.7190  146.7240 C   0  0  0  0  0  0  0  0  0  0  0  0
  192.0120  177.1990  145.7780 O   0  0  0  0  0  0  0  0  0  0  0  0
  191.9000  175.6620  147.6190 C   0  0  0  0  0  1  0  0  0  0  0  0
  185.1300  179.0760  142.4550 C   0  0  0  0  0  2  0  0  0  0  0  0
  184.3450  178.6890  141.2090 C   0  0  0  0  0  2  0  0  0  0  0  0
  182.8820  178.6020  141.5280 C   0  0  0  0  0  3  0  0  0  0  0  0
  181.9080  178.7360  140.6180 C   0  0  0  0  0  3  0  0  0  0  0  0
  182.1030  178.9800  139.1390 C   0  0  1  0  0  3  0  0  0  0  0  0
  183.5880  180.7880  138.7240 O   0  0  0  0  0  0  0  0  0  0  0  0
  182.4360  180.4080  138.7890 C   0  0  0  0  0  0  0  0  0  0  0  0
  180.8460  181.0920  137.0350 C   0  0  0  0  0  1  0  0  0  0  0  0
  181.3290  181.3550  138.4390 C   0  0  0  0  0  2  0  0  0  0  0  0
  183.0260  177.9390  138.4920 C   0  0  0  0  0  2  0  0  0  0  0  0
  181.8370  176.6650  136.6240 C   0  0  1  0  0  0  0  0  0  0  0  0
  181.3650  173.8140  137.4100 C   0  0  0  0  0  2  0  0  0  0  0  0
  182.8010  174.3830  137.4650 C   0  0  2  0  0  3  0  0  0  0  0  0
  183.0930  175.8570  137.0200 C   0  0  2  0  0  0  0  0  0  0  0  0
  178.9760  174.2060  137.1410 N   0  0  0  0  0  1  0  0  0  0  0  0
  180.2460  174.8540  137.4140 C   0  0  2  0  0  3  0  0  0  0  0  0
  182.2830  176.6620  138.0660 C   0  0  1  0  0  3  0  0  0  0  0  0
  183.1230  174.6730  136.0470 C   0  0  0  0  0  2  0  0  0  0  0  0
  182.1260  177.8910  135.7630 C   0  0  0  0  0  1  0  0  0  0  0  0
  180.5140  175.9290  136.3630 C   0  0  0  0  0  2  0  0  0  0  0  0
  1  5  1  1  0  0  0
  1  3  1  0  0  0  0
  1  2  1  0  0  0  0
  2 22  1  0  0  0  0
  3 30  1  6  0  0  0
  3  2  1  0  0  0  0
  4  5  2  0  0  0  0
  6  4  1  0  0  0  0
  7  6  1  0  0  0  0
  8  7  1  0  0  0  0
 10  9  1  6  0  0  0
 10 18  1  0  0  0  0
 10  8  1  0  0  0  0
 11 10  1  1  0  0  0
 12 14  1  6  0  0  0
 12 11  1  0  0  0  0
 13 12  1  0  0  0  0
 13 11  1  0  0  0  0
 14 17  1  0  0  0  0
 17 16  2  1  0  0  0
 17 15  1  0  0  0  0
 19 18  1  0  0  0  0
 19 21  1  0  0  0  0
 20 19  1  0  0  0  0
 22 23  1  0  0  0  0
 24 26  2  0  0  0  0
 25 23  1  0  0  0  0
 25 24  1  0  0  0  0
 27 24  1  0  0  0  0
 27 29  1  0  0  0  0
 28 27  2  0  0  0  0
 31 32  1  0  0  0  0
 31 30  1  0  0  0  0
 33 32  2  0  0  0  0
 34 39  1  1  0  0  0
 34 33  1  0  0  0  0
 35 36  2  0  0  0  0
 36 34  1  0  0  0  0
 37 38  1  0  0  0  0
 38 36  1  0  0  0  0
 40 48  1  6  0  0  0
 40 43  1  0  0  0  0
 40 46  1  0  0  0  0
 41 45  1  0  0  0  0
 41 42  1  0  0  0  0
 42 47  1  6  0  0  0
 43 47  1  6  0  0  0
 43 42  1  0  0  0  0
 43 46  1  0  0  0  0
 45 44  1  6  0  0  0
 46 39  1  6  0  0  0
 49 40  1  0  0  0  0
 49 45  1  0  0  0  0
M  END
>  <MODEL>
9

>  <REMARK>
 VINA RESULT:      -6.4      2.354      3.665
  Name = 
  22 active torsions:
  status: ('A' for Active; 'I' for Inactive)
    1  A    between atoms: C_1  and  C_15
    2  A    between atoms: C_1  and  C_26
    3  A    between atoms: C_2  and  C_20
    4  A    between atoms: C_2  and  C_38
    5  A    between atoms: C_2  and  C_39
    6  A    between atoms: C_3  and  O_19
    7  A    between atoms: C_3  and  N_46
    8  A    between atoms: C_4  and  C_45
    9  A    between atoms: C_6  and  C_28
   10  A    between atoms: C_6  and  C_34
   11  A    between atoms: C_7  and  C_35
   12  A    between atoms: C_7  and  S_40
   13  A    between atoms: C_9  and  C_25
   14  A    between atoms: C_11  and  C_42
   15  A    between atoms: C_13  and  C_28
   16  A    between atoms: C_15  and  C_31
   17  A    between atoms: N_16  and  O_19
   18  A    between atoms: C_22  and  O_36
   19  A    between atoms: C_26  and  C_45
   20  A    between atoms: C_29  and  C_39
   21  A    between atoms: C_32  and  C_38
   22  A    between atoms: O_36  and  C_45
                            x       y       z     vdW  Elec       q    Type
                         _______ _______ _______ _____ _____    ______ ____

>  <TORSDO>
F 22

$$$$
