=
 OpenBabel11062412373D

 51 56  0  0  1  0  0  0  0  0999 V2000
  184.8310  178.8510  140.9890 C   0  0  0  0  0  3  0  0  0  0  0  0
  187.5400  178.3540  141.7470 C   0  0  1  0  0  3  0  0  0  0  0  0
  187.0270  178.1770  140.4200 O   0  0  0  0  0  0  0  0  0  0  0  0
  185.7400  178.5860  140.0520 C   0  0  0  0  0  0  0  0  0  0  0  0
  186.4340  178.4000  142.7710 C   0  0  0  0  0  3  0  0  0  0  0  0
  185.1820  178.6880  142.4100 C   0  0  0  0  0  0  0  0  0  0  0  0
  184.1690  178.8100  143.4020 N   0  0  0  0  0  0  0  0  0  0  0  0
  182.9320  179.4370  143.9540 C   0  0  0  0  0  2  0  0  0  0  0  0
  183.5390  178.4520  144.7060 C   0  0  2  0  0  3  0  0  0  0  0  0
  184.3650  179.0570  145.8280 C   0  0  2  0  0  3  0  0  0  0  0  0
  185.7810  178.9250  145.5160 N   0  0  0  0  0  2  0  0  0  0  0  0
  185.9660  177.9620  146.5320 N   0  0  0  0  0  0  0  0  0  0  0  0
  184.5670  178.0510  146.9230 C   0  0  0  0  0  2  0  0  0  0  0  0
  186.7650  178.5860  147.5780 C   0  0  0  0  0  2  0  0  0  0  0  0
  187.8080  177.7320  147.9470 O   0  0  0  0  0  1  0  0  0  0  0  0
  187.9990  176.2160  142.7150 F   0  0  0  0  0  0  0  0  0  0  0  0
  189.1690  176.8350  140.9040 F   0  0  0  0  0  0  0  0  0  0  0  0
  188.6020  177.2920  142.0830 C   0  0  0  0  0  0  0  0  0  0  0  0
  190.9140  175.5650  142.9070 C   0  0  0  0  0  1  0  0  0  0  0  0
  191.6510  177.3430  144.3060 O   0  0  0  0  0  0  0  0  0  0  0  0
  189.7300  177.8260  142.9970 C   0  0  2  0  0  3  0  0  0  0  0  0
  191.0560  177.0740  143.0570 C   0  0  2  0  0  0  0  0  0  0  0  0
  190.6540  177.8540  145.1710 C   0  0  1  0  0  3  0  0  0  0  0  0
  189.3510  178.0430  144.4270 C   0  0  0  0  0  2  0  0  0  0  0  0
  191.8880  177.5450  142.0430 O   0  0  0  0  0  1  0  0  0  0  0  0
  190.4580  176.9110  146.3450 C   0  0  0  0  0  2  0  0  0  0  0  0
  191.3860  177.1790  147.3390 F   0  0  0  0  0  0  0  0  0  0  0  0
  185.3790  178.7080  138.6140 C   0  0  0  0  0  2  0  0  0  0  0  0
  184.0470  178.3330  138.4290 O   0  0  0  0  0  0  0  0  0  0  0  0
  184.1170  177.1070  137.7650 C   0  0  0  0  0  2  0  0  0  0  0  0
  185.1100  177.2010  136.6260 C   0  0  0  0  0  2  0  0  0  0  0  0
  185.9400  176.0500  136.6370 O   0  0  0  0  0  0  0  0  0  0  0  0
  187.2820  176.1030  136.2610 C   0  0  0  0  0  0  0  0  0  0  0  0
  187.6510  176.9590  135.4120 O   0  0  0  0  0  0  0  0  0  0  0  0
  188.2350  175.2030  136.8300 N   0  0  0  0  0  2  0  0  0  0  0  0
  189.5850  175.2450  136.4480 N   0  0  0  0  0  2  0  0  0  0  0  0
  190.4320  175.2070  137.6430 C   0  0  2  0  0  3  0  0  0  0  0  0
  190.1490  177.5690  137.8870 O   0  0  0  0  0  0  0  0  0  0  0  0
  190.8620  176.5630  138.1360 C   0  0  0  0  0  0  0  0  0  0  0  0
  192.0530  176.7250  138.8360 O   0  0  0  0  0  1  0  0  0  0  0  0
  191.5220  174.2320  137.5240 N   0  0  0  0  0  2  0  0  0  0  0  0
  191.9580  174.1700  136.1900 N   0  0  0  0  0  2  0  0  0  0  0  0
  194.5680  172.6030  137.5550 N   0  0  0  0  0  2  0  0  0  0  0  0
  193.4090  174.2540  136.2170 C   0  0  1  0  0  3  0  0  0  0  0  0
  195.8510  172.8400  138.1800 C   0  0  0  0  0  2  0  0  0  0  0  0
  196.7220  174.6620  139.3500 C   0  0  0  0  0  1  0  0  0  0  0  0
  193.8480  175.6750  136.0570 C   0  0  0  0  0  2  0  0  0  0  0  0
  196.1480  174.2590  138.0760 N   0  0  0  0  0  0  0  0  0  0  0  0
  194.9110  174.9160  137.9590 N   0  0  1  0  0  0  0  0  0  0  0  0
  195.0310  175.8270  136.8880 N   0  0  0  0  0  2  0  0  0  0  0  0
  193.9230  173.9030  137.5850 C   0  0  2  0  0  3  0  0  0  0  0  0
  1  6  1  0  0  0  0
  2 18  1  1  0  0  0
  2  5  1  0  0  0  0
  3  2  1  0  0  0  0
  4  3  1  0  0  0  0
  4  1  2  0  0  0  0
  6  5  2  0  0  0  0
  6  7  1  0  0  0  0
  7  8  1  0  0  0  0
  7  9  1  0  0  0  0
  9  8  1  6  0  0  0
  9 10  1  0  0  0  0
 10 13  1  1  0  0  0
 11 10  1  0  0  0  0
 11 12  1  0  0  0  0
 12 13  1  0  0  0  0
 12 14  1  0  0  0  0
 14 15  1  0  0  0  0
 17 18  1  0  0  0  0
 18 16  1  0  0  0  0
 20 23  1  0  0  0  0
 21 18  1  1  0  0  0
 21 22  1  0  0  0  0
 21 24  1  0  0  0  0
 22 19  1  6  0  0  0
 22 20  1  0  0  0  0
 23 26  1  1  0  0  0
 24 23  1  0  0  0  0
 25 22  1  0  0  0  0
 26 27  1  0  0  0  0
 28  4  1  0  0  0  0
 29 28  1  0  0  0  0
 30 29  1  0  0  0  0
 31 32  1  0  0  0  0
 31 30  1  0  0  0  0
 33 32  1  0  0  0  0
 33 35  1  0  0  0  0
 34 33  2  0  0  0  0
 36 35  1  0  0  0  0
 37 36  1  6  0  0  0
 37 39  1  0  0  0  0
 38 39  2  0  0  0  0
 39 40  1  0  0  0  0
 41 37  1  0  0  0  0
 42 41  1  0  0  0  0
 43 45  1  0  0  0  0
 44 42  1  1  0  0  0
 44 51  1  0  0  0  0
 47 44  1  0  0  0  0
 47 50  1  0  0  0  0
 48 45  1  0  0  0  0
 48 46  1  0  0  0  0
 49 50  1  6  0  0  0
 49 48  1  0  0  0  0
 51 43  1  6  0  0  0
 51 49  1  0  0  0  0
M  END
>  <MODEL>
1

>  <REMARK>
 VINA RESULT:      -7.3      0.000      0.000
  Name = 
  18 active torsions:
  status: ('A' for Active; 'I' for Inactive)
    1  A    between atoms: C_1  and  C_15
    2  A    between atoms: C_1  and  N_40
    3  A    between atoms: C_1  and  N_46
    4  A    between atoms: C_3  and  O_14
    5  A    between atoms: N_5  and  C_33
    6  A    between atoms: C_6  and  C_24
    7  A    between atoms: C_6  and  O_43
    8  A    between atoms: C_9  and  N_36
    9  A    between atoms: C_10  and  C_38
   10  A    between atoms: C_12  and  C_27
   11  A    between atoms: C_12  and  O_43
   12  A    between atoms: O_14  and  C_24
   13  A    between atoms: C_17  and  C_37
   14  A    between atoms: C_23  and  N_34
   15  A    between atoms: C_29  and  C_37
   16  A    between atoms: N_36  and  N_46
   17  A    between atoms: C_39  and  C_41
   18  A    between atoms: N_40  and  N_44
                            x       y       z     vdW  Elec       q    Type
                         _______ _______ _______ _____ _____    ______ ____

>  <TORSDO>
F 18

$$$$
=
 OpenBabel11062412373D

 51 56  0  0  1  0  0  0  0  0999 V2000
  187.7110  178.1390  141.9300 C   0  0  0  0  0  3  0  0  0  0  0  0
  188.5030  178.4610  139.2050 C   0  0  1  0  0  3  0  0  0  0  0  0
  187.1490  178.5360  139.6660 O   0  0  0  0  0  0  0  0  0  0  0  0
  186.8170  178.5370  141.0260 C   0  0  0  0  0  0  0  0  0  0  0  0
  189.3970  177.7720  140.2060 C   0  0  0  0  0  3  0  0  0  0  0  0
  189.0370  177.6770  141.4890 C   0  0  0  0  0  0  0  0  0  0  0  0
  189.9300  177.0990  142.4340 N   0  0  0  0  0  0  0  0  0  0  0  0
  190.4060  175.9600  143.2730 C   0  0  0  0  0  2  0  0  0  0  0  0
  191.0790  177.1600  143.3830 C   0  0  2  0  0  3  0  0  0  0  0  0
  190.6430  177.9140  144.6280 C   0  0  2  0  0  3  0  0  0  0  0  0
  191.1260  177.2200  145.8130 N   0  0  0  0  0  2  0  0  0  0  0  0
  189.8200  176.8170  146.1700 N   0  0  0  0  0  0  0  0  0  0  0  0
  189.2540  177.5060  145.0200 C   0  0  0  0  0  2  0  0  0  0  0  0
  189.4500  177.5610  147.3660 C   0  0  0  0  0  2  0  0  0  0  0  0
  188.4660  176.8620  148.0700 O   0  0  0  0  0  1  0  0  0  0  0  0
  187.5660  178.3070  137.0110 F   0  0  0  0  0  0  0  0  0  0  0  0
  189.7930  178.1620  137.2260 F   0  0  0  0  0  0  0  0  0  0  0  0
  188.5850  177.8160  137.8100 C   0  0  0  0  0  0  0  0  0  0  0  0
  190.1960  176.0830  135.9630 C   0  0  0  0  0  1  0  0  0  0  0  0
  189.0210  174.2010  136.8210 O   0  0  0  0  0  0  0  0  0  0  0  0
  188.4790  176.2740  137.8440 C   0  0  2  0  0  3  0  0  0  0  0  0
  189.5800  175.4390  137.1970 C   0  0  2  0  0  0  0  0  0  0  0  0
  187.6130  174.3370  136.8040 C   0  0  1  0  0  3  0  0  0  0  0  0
  187.2050  175.7050  137.3060 C   0  0  0  0  0  2  0  0  0  0  0  0
  190.5890  175.2180  138.1340 O   0  0  0  0  0  1  0  0  0  0  0  0
  187.0900  174.1170  135.3950 C   0  0  0  0  0  2  0  0  0  0  0  0
  186.0030  173.2580  135.4140 F   0  0  0  0  0  0  0  0  0  0  0  0
  185.4610  178.9650  141.4630 C   0  0  0  0  0  2  0  0  0  0  0  0
  185.4760  179.2590  142.8280 O   0  0  0  0  0  0  0  0  0  0  0  0
  184.4320  178.5010  143.3610 C   0  0  0  0  0  2  0  0  0  0  0  0
  183.4070  179.4190  143.9910 C   0  0  0  0  0  2  0  0  0  0  0  0
  182.1080  178.8980  143.7550 O   0  0  0  0  0  0  0  0  0  0  0  0
  181.3110  179.3490  142.7040 C   0  0  0  0  0  0  0  0  0  0  0  0
  180.4260  180.2180  142.9310 O   0  0  0  0  0  0  0  0  0  0  0  0
  181.4900  178.8400  141.3800 N   0  0  0  0  0  2  0  0  0  0  0  0
  180.6840  179.2830  140.3210 N   0  0  0  0  0  2  0  0  0  0  0  0
  181.5140  179.9800  139.3350 C   0  0  2  0  0  3  0  0  0  0  0  0
  179.6290  181.3240  138.7380 O   0  0  0  0  0  1  0  0  0  0  0  0
  180.8820  181.2230  138.7680 C   0  0  0  0  0  0  0  0  0  0  0  0
  181.6640  182.2500  138.2480 O   0  0  0  0  0  0  0  0  0  0  0  0
  182.0670  179.0690  138.3270 N   0  0  0  0  0  2  0  0  0  0  0  0
  183.4480  178.9130  138.5350 N   0  0  0  0  0  2  0  0  0  0  0  0
  184.1280  177.1390  135.7930 N   0  0  0  0  0  2  0  0  0  0  0  0
  183.7800  177.5510  138.1530 C   0  0  1  0  0  3  0  0  0  0  0  0
  183.8790  175.8620  135.1610 C   0  0  0  0  0  2  0  0  0  0  0  0
  182.1380  174.3180  135.3590 C   0  0  0  0  0  1  0  0  0  0  0  0
  183.1490  176.5790  139.1000 C   0  0  0  0  0  2  0  0  0  0  0  0
  183.1670  175.0200  136.1100 N   0  0  0  0  0  0  0  0  0  0  0  0
  182.5060  175.8900  136.9940 N   0  0  1  0  0  0  0  0  0  0  0  0
  182.7720  175.4260  138.3000 N   0  0  0  0  0  2  0  0  0  0  0  0
  183.1280  177.2060  136.8440 C   0  0  2  0  0  3  0  0  0  0  0  0
  2 18  1  6  0  0  0
  2  3  1  0  0  0  0
  2  5  1  0  0  0  0
  3  4  1  0  0  0  0
  4 28  1  0  0  0  0
  4  1  2  0  0  0  0
  5  6  2  0  0  0  0
  6  1  1  0  0  0  0
  6  7  1  0  0  0  0
  7  8  1  0  0  0  0
  7  9  1  0  0  0  0
  9  8  1  1  0  0  0
  9 10  1  0  0  0  0
 10 13  1  1  0  0  0
 10 11  1  0  0  0  0
 11 12  1  0  0  0  0
 12 14  1  0  0  0  0
 13 12  1  0  0  0  0
 14 15  1  0  0  0  0
 16 18  1  0  0  0  0
 17 18  1  0  0  0  0
 20 22  1  0  0  0  0
 21 18  1  6  0  0  0
 22 19  1  6  0  0  0
 22 21  1  0  0  0  0
 22 25  1  0  0  0  0
 23 26  1  6  0  0  0
 23 20  1  0  0  0  0
 23 24  1  0  0  0  0
 24 21  1  0  0  0  0
 26 27  1  0  0  0  0
 28 29  1  0  0  0  0
 29 30  1  0  0  0  0
 30 31  1  0  0  0  0
 32 31  1  0  0  0  0
 33 34  2  0  0  0  0
 33 32  1  0  0  0  0
 35 33  1  0  0  0  0
 36 35  1  0  0  0  0
 37 41  1  6  0  0  0
 37 36  1  0  0  0  0
 38 39  1  0  0  0  0
 39 37  1  0  0  0  0
 40 39  2  0  0  0  0
 41 42  1  0  0  0  0
 44 42  1  1  0  0  0
 44 47  1  0  0  0  0
 45 43  1  0  0  0  0
 45 48  1  0  0  0  0
 46 48  1  0  0  0  0
 48 49  1  0  0  0  0
 49 50  1  1  0  0  0
 50 47  1  0  0  0  0
 51 43  1  6  0  0  0
 51 49  1  0  0  0  0
 51 44  1  0  0  0  0
M  END
>  <MODEL>
2

>  <REMARK>
 VINA RESULT:      -7.3      4.172      8.600
  Name = 
  18 active torsions:
  status: ('A' for Active; 'I' for Inactive)
    1  A    between atoms: C_1  and  C_15
    2  A    between atoms: C_1  and  N_40
    3  A    between atoms: C_1  and  N_46
    4  A    between atoms: C_3  and  O_14
    5  A    between atoms: N_5  and  C_33
    6  A    between atoms: C_6  and  C_24
    7  A    between atoms: C_6  and  O_43
    8  A    between atoms: C_9  and  N_36
    9  A    between atoms: C_10  and  C_38
   10  A    between atoms: C_12  and  C_27
   11  A    between atoms: C_12  and  O_43
   12  A    between atoms: O_14  and  C_24
   13  A    between atoms: C_17  and  C_37
   14  A    between atoms: C_23  and  N_34
   15  A    between atoms: C_29  and  C_37
   16  A    between atoms: N_36  and  N_46
   17  A    between atoms: C_39  and  C_41
   18  A    between atoms: N_40  and  N_44
                            x       y       z     vdW  Elec       q    Type
                         _______ _______ _______ _____ _____    ______ ____

>  <TORSDO>
F 18

$$$$
=
 OpenBabel11062412373D

 51 56  0  0  1  0  0  0  0  0999 V2000
  187.6660  178.1640  141.8990 C   0  0  0  0  0  3  0  0  0  0  0  0
  188.7030  178.4400  139.2510 C   0  0  1  0  0  3  0  0  0  0  0  0
  187.3160  178.5560  139.5910 O   0  0  0  0  0  0  0  0  0  0  0  0
  186.8660  178.5770  140.9170 C   0  0  0  0  0  0  0  0  0  0  0  0
  189.4860  177.7370  140.3320 C   0  0  0  0  0  3  0  0  0  0  0  0
  189.0130  177.6640  141.5780 C   0  0  0  0  0  0  0  0  0  0  0  0
  189.8040  177.0700  142.6020 N   0  0  0  0  0  0  0  0  0  0  0  0
  190.6320  175.9560  143.1510 C   0  0  0  0  0  2  0  0  0  0  0  0
  190.4120  177.0490  143.9640 C   0  0  2  0  0  3  0  0  0  0  0  0
  189.3200  176.7570  144.9800 C   0  0  2  0  0  3  0  0  0  0  0  0
  188.6720  178.0010  145.3690 N   0  0  0  0  0  2  0  0  0  0  0  0
  189.2380  177.9510  146.6610 N   0  0  0  0  0  0  0  0  0  0  0  0
  189.9030  176.6920  146.3610 C   0  0  0  0  0  2  0  0  0  0  0  0
  188.1550  177.6760  147.5960 C   0  0  0  0  0  2  0  0  0  0  0  0
  188.3950  178.3400  148.8020 O   0  0  0  0  0  1  0  0  0  0  0  0
  188.0390  178.3750  136.9560 F   0  0  0  0  0  0  0  0  0  0  0  0
  190.1920  177.9890  137.4490 F   0  0  0  0  0  0  0  0  0  0  0  0
  188.8890  177.7810  137.8740 C   0  0  0  0  0  0  0  0  0  0  0  0
  190.3080  175.9080  136.0050 C   0  0  0  0  0  1  0  0  0  0  0  0
  188.9250  174.1550  136.8290 O   0  0  0  0  0  0  0  0  0  0  0  0
  188.6120  176.2600  137.8830 C   0  0  2  0  0  3  0  0  0  0  0  0
  189.6170  175.3170  137.2270 C   0  0  2  0  0  0  0  0  0  0  0  0
  187.5410  174.4480  136.8090 C   0  0  1  0  0  3  0  0  0  0  0  0
  187.2850  175.8440  137.3310 C   0  0  0  0  0  2  0  0  0  0  0  0
  190.5890  174.9710  138.1640 O   0  0  0  0  0  1  0  0  0  0  0  0
  187.0050  174.3080  135.3950 C   0  0  0  0  0  2  0  0  0  0  0  0
  186.5940  175.5400  134.9120 F   0  0  0  0  0  0  0  0  0  0  0  0
  185.4890  179.0440  141.2300 C   0  0  0  0  0  2  0  0  0  0  0  0
  184.9410  179.6800  140.1150 O   0  0  0  0  0  0  0  0  0  0  0  0
  183.6780  179.1050  139.9680 C   0  0  0  0  0  2  0  0  0  0  0  0
  183.3490  178.9640  138.4980 C   0  0  0  0  0  2  0  0  0  0  0  0
  184.2170  178.0040  137.9160 O   0  0  0  0  0  0  0  0  0  0  0  0
  183.7370  176.9370  137.1580 C   0  0  0  0  0  0  0  0  0  0  0  0
  183.9470  176.9200  135.9150 O   0  0  0  0  0  0  0  0  0  0  0  0
  183.0190  175.8670  137.7760 N   0  0  0  0  0  2  0  0  0  0  0  0
  182.5240  174.7960  137.0180 N   0  0  0  0  0  2  0  0  0  0  0  0
  181.3630  174.2120  137.6960 C   0  0  2  0  0  3  0  0  0  0  0  0
  180.3260  173.9600  135.5570 O   0  0  0  0  0  0  0  0  0  0  0  0
  180.3440  173.6120  136.7650 C   0  0  0  0  0  0  0  0  0  0  0  0
  179.4010  172.7000  137.2290 O   0  0  0  0  0  1  0  0  0  0  0  0
  180.8010  175.1090  138.7110 N   0  0  0  0  0  2  0  0  0  0  0  0
  179.6640  175.7550  138.1980 N   0  0  0  0  0  2  0  0  0  0  0  0
  179.8060  178.9280  139.2170 N   0  0  0  0  0  2  0  0  0  0  0  0
  179.1430  176.6000  139.2590 C   0  0  1  0  0  3  0  0  0  0  0  0
  179.9120  179.7490  140.4030 C   0  0  0  0  0  2  0  0  0  0  0  0
  180.8000  179.3470  142.5240 C   0  0  0  0  0  1  0  0  0  0  0  0
  178.9390  175.7990  140.5060 C   0  0  0  0  0  2  0  0  0  0  0  0
  179.8140  178.8790  141.5640 N   0  0  0  0  0  0  0  0  0  0  0  0
  180.2280  177.6040  141.1410 N   0  0  1  0  0  0  0  0  0  0  0  0
  179.2660  176.6850  141.6100 N   0  0  0  0  0  2  0  0  0  0  0  0
  180.1810  177.6030  139.6780 C   0  0  2  0  0  3  0  0  0  0  0  0
  2 18  1  6  0  0  0
  2  3  1  0  0  0  0
  2  5  1  0  0  0  0
  3  4  1  0  0  0  0
  4 28  1  0  0  0  0
  4  1  2  0  0  0  0
  5  6  2  0  0  0  0
  6  1  1  0  0  0  0
  6  7  1  0  0  0  0
  7  8  1  0  0  0  0
  7  9  1  0  0  0  0
  9  8  1  6  0  0  0
  9 10  1  0  0  0  0
 10 11  1  0  0  0  0
 10 13  1  1  0  0  0
 11 12  1  0  0  0  0
 12 14  1  0  0  0  0
 13 12  1  0  0  0  0
 14 15  1  0  0  0  0
 16 18  1  0  0  0  0
 17 18  1  0  0  0  0
 20 22  1  0  0  0  0
 21 18  1  6  0  0  0
 22 19  1  6  0  0  0
 22 21  1  0  0  0  0
 22 25  1  0  0  0  0
 23 26  1  6  0  0  0
 23 20  1  0  0  0  0
 23 24  1  0  0  0  0
 24 21  1  0  0  0  0
 27 26  1  0  0  0  0
 29 28  1  0  0  0  0
 30 29  1  0  0  0  0
 31 30  1  0  0  0  0
 32 31  1  0  0  0  0
 33 35  1  0  0  0  0
 33 32  1  0  0  0  0
 34 33  2  0  0  0  0
 36 37  1  0  0  0  0
 36 35  1  0  0  0  0
 37 39  1  6  0  0  0
 37 41  1  0  0  0  0
 38 39  2  0  0  0  0
 39 40  1  0  0  0  0
 42 41  1  0  0  0  0
 43 45  1  0  0  0  0
 44 42  1  6  0  0  0
 44 51  1  0  0  0  0
 44 47  1  0  0  0  0
 45 48  1  0  0  0  0
 47 50  1  0  0  0  0
 48 46  1  0  0  0  0
 49 48  1  0  0  0  0
 49 50  1  1  0  0  0
 51 43  1  1  0  0  0
 51 49  1  0  0  0  0
M  END
>  <MODEL>
3

>  <REMARK>
 VINA RESULT:      -7.2      4.234      9.175
  Name = 
  18 active torsions:
  status: ('A' for Active; 'I' for Inactive)
    1  A    between atoms: C_1  and  C_15
    2  A    between atoms: C_1  and  N_40
    3  A    between atoms: C_1  and  N_46
    4  A    between atoms: C_3  and  O_14
    5  A    between atoms: N_5  and  C_33
    6  A    between atoms: C_6  and  C_24
    7  A    between atoms: C_6  and  O_43
    8  A    between atoms: C_9  and  N_36
    9  A    between atoms: C_10  and  C_38
   10  A    between atoms: C_12  and  C_27
   11  A    between atoms: C_12  and  O_43
   12  A    between atoms: O_14  and  C_24
   13  A    between atoms: C_17  and  C_37
   14  A    between atoms: C_23  and  N_34
   15  A    between atoms: C_29  and  C_37
   16  A    between atoms: N_36  and  N_46
   17  A    between atoms: C_39  and  C_41
   18  A    between atoms: N_40  and  N_44
                            x       y       z     vdW  Elec       q    Type
                         _______ _______ _______ _____ _____    ______ ____

>  <TORSDO>
F 18

$$$$
=
 OpenBabel11062412373D

 51 56  0  0  1  0  0  0  0  0999 V2000
  185.5560  178.1950  138.1730 C   0  0  0  0  0  3  0  0  0  0  0  0
  183.4190  176.4730  137.3790 C   0  0  1  0  0  3  0  0  0  0  0  0
  183.4020  177.2920  138.5550 O   0  0  0  0  0  0  0  0  0  0  0  0
  184.3950  178.2420  138.8240 C   0  0  0  0  0  0  0  0  0  0  0  0
  184.8200  176.2800  136.8540 C   0  0  0  0  0  3  0  0  0  0  0  0
  185.7970  177.1250  137.1900 C   0  0  0  0  0  0  0  0  0  0  0  0
  187.0910  176.9750  136.6180 N   0  0  0  0  0  0  0  0  0  0  0  0
  188.2010  177.4280  135.7280 C   0  0  0  0  0  2  0  0  0  0  0  0
  188.3690  176.2350  136.4020 C   0  0  2  0  0  3  0  0  0  0  0  0
  188.0980  175.0530  135.4880 C   0  0  2  0  0  3  0  0  0  0  0  0
  187.5860  173.9380  136.2730 N   0  0  0  0  0  2  0  0  0  0  0  0
  188.7770  173.2010  136.0970 N   0  0  0  0  0  0  0  0  0  0  0  0
  189.3550  174.2600  135.2810 C   0  0  0  0  0  2  0  0  0  0  0  0
  188.4660  172.0800  135.2210 C   0  0  0  0  0  2  0  0  0  0  0  0
  187.9350  171.0280  135.9730 O   0  0  0  0  0  1  0  0  0  0  0  0
  183.6250  174.1510  137.9090 F   0  0  0  0  0  0  0  0  0  0  0  0
  181.8530  175.2690  138.7090 F   0  0  0  0  0  0  0  0  0  0  0  0
  182.6960  175.1360  137.6170 C   0  0  0  0  0  0  0  0  0  0  0  0
  180.4860  173.1240  137.9020 C   0  0  0  0  0  1  0  0  0  0  0  0
  180.2490  173.1570  135.5340 O   0  0  0  0  0  0  0  0  0  0  0  0
  181.8580  174.6720  136.4030 C   0  0  2  0  0  3  0  0  0  0  0  0
  180.5180  173.9830  136.6440 C   0  0  2  0  0  0  0  0  0  0  0  0
  181.4580  172.9580  134.8260 C   0  0  1  0  0  3  0  0  0  0  0  0
  182.5700  173.7880  135.4290 C   0  0  0  0  0  2  0  0  0  0  0  0
  179.5220  174.9530  136.7430 O   0  0  0  0  0  1  0  0  0  0  0  0
  181.8310  171.4870  134.8440 C   0  0  0  0  0  2  0  0  0  0  0  0
  180.9720  170.7820  135.6720 F   0  0  0  0  0  0  0  0  0  0  0  0
  184.1620  179.2950  139.8490 C   0  0  0  0  0  2  0  0  0  0  0  0
  185.3170  179.4750  140.6110 O   0  0  0  0  0  0  0  0  0  0  0  0
  185.1330  178.6530  141.7240 C   0  0  0  0  0  2  0  0  0  0  0  0
  184.8810  179.5030  142.9500 C   0  0  0  0  0  2  0  0  0  0  0  0
  184.2740  178.7040  143.9540 O   0  0  0  0  0  0  0  0  0  0  0  0
  184.8410  178.5510  145.2190 C   0  0  0  0  0  0  0  0  0  0  0  0
  184.1960  178.9300  146.2340 O   0  0  0  0  0  0  0  0  0  0  0  0
  186.1370  177.9670  145.3720 N   0  0  0  0  0  2  0  0  0  0  0  0
  186.7170  177.8200  146.6410 N   0  0  0  0  0  2  0  0  0  0  0  0
  188.1210  177.4250  146.4930 C   0  0  2  0  0  3  0  0  0  0  0  0
  190.1690  177.3260  147.7210 O   0  0  0  0  0  0  0  0  0  0  0  0
  188.9350  177.5650  147.7510 C   0  0  0  0  0  0  0  0  0  0  0  0
  188.3370  177.9260  148.9540 O   0  0  0  0  0  1  0  0  0  0  0  0
  188.7420  178.0120  145.3010 N   0  0  0  0  0  2  0  0  0  0  0  0
  189.2200  176.9910  144.4620 N   0  0  0  0  0  2  0  0  0  0  0  0
  188.5110  177.5450  141.2500 N   0  0  0  0  0  2  0  0  0  0  0  0
  189.7990  177.6390  143.2970 C   0  0  1  0  0  3  0  0  0  0  0  0
  189.1050  177.5720  139.9310 C   0  0  0  0  0  2  0  0  0  0  0  0
  190.9690  176.5010  139.0200 C   0  0  0  0  0  1  0  0  0  0  0  0
  191.2930  177.5810  143.3620 C   0  0  0  0  0  2  0  0  0  0  0  0
  190.5410  177.4000  140.0810 N   0  0  0  0  0  0  0  0  0  0  0  0
  190.7360  176.7210  141.2950 N   0  0  1  0  0  0  0  0  0  0  0  0
  191.7490  177.4130  141.9940 N   0  0  0  0  0  2  0  0  0  0  0  0
  189.4930  176.8450  142.0580 C   0  0  2  0  0  3  0  0  0  0  0  0
  1  4  2  0  0  0  0
  2 18  1  1  0  0  0
  2  3  1  0  0  0  0
  3  4  1  0  0  0  0
  4 28  1  0  0  0  0
  5  6  2  0  0  0  0
  5  2  1  0  0  0  0
  6  1  1  0  0  0  0
  7  6  1  0  0  0  0
  8  7  1  0  0  0  0
  9  8  1  6  0  0  0
  9  7  1  0  0  0  0
 10 13  1  1  0  0  0
 10 11  1  0  0  0  0
 10  9  1  0  0  0  0
 12 11  1  0  0  0  0
 13 12  1  0  0  0  0
 14 15  1  0  0  0  0
 14 12  1  0  0  0  0
 18 16  1  0  0  0  0
 18 17  1  0  0  0  0
 20 22  1  0  0  0  0
 21 22  1  0  0  0  0
 21 18  1  1  0  0  0
 22 25  1  0  0  0  0
 22 19  1  1  0  0  0
 23 26  1  1  0  0  0
 23 24  1  0  0  0  0
 23 20  1  0  0  0  0
 24 21  1  0  0  0  0
 26 27  1  0  0  0  0
 28 29  1  0  0  0  0
 29 30  1  0  0  0  0
 30 31  1  0  0  0  0
 31 32  1  0  0  0  0
 32 33  1  0  0  0  0
 33 35  1  0  0  0  0
 33 34  2  0  0  0  0
 35 36  1  0  0  0  0
 37 41  1  6  0  0  0
 37 36  1  0  0  0  0
 37 39  1  0  0  0  0
 38 39  2  0  0  0  0
 39 40  1  0  0  0  0
 42 41  1  0  0  0  0
 44 47  1  0  0  0  0
 44 42  1  1  0  0  0
 45 48  1  0  0  0  0
 45 43  1  0  0  0  0
 46 48  1  0  0  0  0
 48 49  1  0  0  0  0
 49 50  1  1  0  0  0
 49 51  1  0  0  0  0
 50 47  1  0  0  0  0
 51 43  1  6  0  0  0
 51 44  1  0  0  0  0
M  END
>  <MODEL>
4

>  <REMARK>
 VINA RESULT:      -7.1      3.962      9.744
  Name = 
  18 active torsions:
  status: ('A' for Active; 'I' for Inactive)
    1  A    between atoms: C_1  and  C_15
    2  A    between atoms: C_1  and  N_40
    3  A    between atoms: C_1  and  N_46
    4  A    between atoms: C_3  and  O_14
    5  A    between atoms: N_5  and  C_33
    6  A    between atoms: C_6  and  C_24
    7  A    between atoms: C_6  and  O_43
    8  A    between atoms: C_9  and  N_36
    9  A    between atoms: C_10  and  C_38
   10  A    between atoms: C_12  and  C_27
   11  A    between atoms: C_12  and  O_43
   12  A    between atoms: O_14  and  C_24
   13  A    between atoms: C_17  and  C_37
   14  A    between atoms: C_23  and  N_34
   15  A    between atoms: C_29  and  C_37
   16  A    between atoms: N_36  and  N_46
   17  A    between atoms: C_39  and  C_41
   18  A    between atoms: N_40  and  N_44
                            x       y       z     vdW  Elec       q    Type
                         _______ _______ _______ _____ _____    ______ ____

>  <TORSDO>
F 18

$$$$
=
 OpenBabel11062412373D

 51 56  0  0  1  0  0  0  0  0999 V2000
  186.5610  178.6010  140.9700 C   0  0  0  0  0  3  0  0  0  0  0  0
  187.9960  178.1130  143.3910 C   0  0  1  0  0  3  0  0  0  0  0  0
  188.5200  177.8720  142.0790 O   0  0  0  0  0  0  0  0  0  0  0  0
  187.8520  178.2760  140.9180 C   0  0  0  0  0  0  0  0  0  0  0  0
  186.4920  178.2260  143.3790 C   0  0  0  0  0  3  0  0  0  0  0  0
  185.8390  178.5100  142.2500 C   0  0  0  0  0  0  0  0  0  0  0  0
  184.4280  178.6960  142.2750 N   0  0  0  0  0  0  0  0  0  0  0  0
  183.0980  178.6080  142.9450 C   0  0  0  0  0  2  0  0  0  0  0  0
  183.1300  179.0820  141.6500 C   0  0  2  0  0  3  0  0  0  0  0  0
  182.7220  177.9990  140.6650 C   0  0  2  0  0  3  0  0  0  0  0  0
  183.1220  178.3880  139.3210 N   0  0  0  0  0  2  0  0  0  0  0  0
  181.7820  178.5950  138.9270 N   0  0  0  0  0  0  0  0  0  0  0  0
  181.2960  178.1970  140.2400 C   0  0  0  0  0  2  0  0  0  0  0  0
  181.4400  177.5390  137.9830 C   0  0  0  0  0  2  0  0  0  0  0  0
  180.0830  177.6160  137.6620 O   0  0  0  0  0  1  0  0  0  0  0  0
  187.4490  176.6770  145.2230 F   0  0  0  0  0  0  0  0  0  0  0  0
  188.9170  175.9380  143.6970 F   0  0  0  0  0  0  0  0  0  0  0  0
  188.4920  177.0580  144.3950 C   0  0  0  0  0  0  0  0  0  0  0  0
  191.3580  176.5420  143.6650 C   0  0  0  0  0  1  0  0  0  0  0  0
  191.9880  177.5200  145.7410 O   0  0  0  0  0  0  0  0  0  0  0  0
  189.6590  177.5580  145.2780 C   0  0  2  0  0  3  0  0  0  0  0  0
  191.0620  177.6350  144.6840 C   0  0  2  0  0  0  0  0  0  0  0  0
  191.3140  176.9840  146.8640 C   0  0  1  0  0  3  0  0  0  0  0  0
  189.8360  176.8400  146.5780 C   0  0  0  0  0  2  0  0  0  0  0  0
  191.2240  178.8740  144.0670 O   0  0  0  0  0  1  0  0  0  0  0  0
  191.9130  175.6380  147.2300 C   0  0  0  0  0  2  0  0  0  0  0  0
  192.3170  174.9640  146.0890 F   0  0  0  0  0  0  0  0  0  0  0  0
  188.5770  178.3260  139.6190 C   0  0  0  0  0  2  0  0  0  0  0  0
  187.6750  178.5850  138.5850 O   0  0  0  0  0  0  0  0  0  0  0  0
  187.5760  177.3760  137.8950 C   0  0  0  0  0  2  0  0  0  0  0  0
  186.7610  177.5740  136.6360 C   0  0  0  0  0  2  0  0  0  0  0  0
  187.2180  176.6730  135.6390 O   0  0  0  0  0  0  0  0  0  0  0  0
  188.5510  176.6370  135.2320 C   0  0  0  0  0  0  0  0  0  0  0  0
  189.0740  177.6730  134.7380 O   0  0  0  0  0  0  0  0  0  0  0  0
  189.3250  175.4440  135.3730 N   0  0  0  0  0  2  0  0  0  0  0  0
  190.6640  175.3970  134.9560 N   0  0  0  0  0  2  0  0  0  0  0  0
  191.4890  174.8320  136.0270 C   0  0  2  0  0  3  0  0  0  0  0  0
  190.6890  174.8640  138.2800 O   0  0  0  0  0  1  0  0  0  0  0  0
  191.2910  175.4870  137.3680 C   0  0  0  0  0  0  0  0  0  0  0  0
  191.7360  176.7840  137.6030 O   0  0  0  0  0  0  0  0  0  0  0  0
  192.8930  174.6810  135.6290 N   0  0  0  0  0  2  0  0  0  0  0  0
  193.5850  173.9400  136.6010 N   0  0  0  0  0  2  0  0  0  0  0  0
  196.5860  174.9770  135.5790 N   0  0  0  0  0  2  0  0  0  0  0  0
  194.6850  174.7720  137.0620 C   0  0  1  0  0  3  0  0  0  0  0  0
  197.9360  175.2220  136.0400 C   0  0  0  0  0  2  0  0  0  0  0  0
  199.1800  174.3400  137.8080 C   0  0  0  0  0  1  0  0  0  0  0  0
  194.7740  174.7330  138.5550 C   0  0  0  0  0  2  0  0  0  0  0  0
  197.9550  175.0540  137.4840 N   0  0  0  0  0  0  0  0  0  0  0  0
  196.8870  174.1970  137.8000 N   0  0  1  0  0  0  0  0  0  0  0  0
  196.1900  174.7890  138.8740 N   0  0  0  0  0  2  0  0  0  0  0  0
  195.9980  174.1770  136.6370 C   0  0  2  0  0  3  0  0  0  0  0  0
  1  6  1  0  0  0  0
  2 18  1  1  0  0  0
  3  2  1  0  0  0  0
  4  1  2  0  0  0  0
  4  3  1  0  0  0  0
  5  2  1  0  0  0  0
  6  7  1  0  0  0  0
  6  5  2  0  0  0  0
  7  8  1  0  0  0  0
  9  7  1  0  0  0  0
  9  8  1  1  0  0  0
 10 13  1  6  0  0  0
 10  9  1  0  0  0  0
 11 10  1  0  0  0  0
 12 11  1  0  0  0  0
 12 13  1  0  0  0  0
 14 12  1  0  0  0  0
 15 14  1  0  0  0  0
 17 18  1  0  0  0  0
 18 16  1  0  0  0  0
 20 23  1  0  0  0  0
 21 18  1  6  0  0  0
 21 24  1  0  0  0  0
 22 19  1  6  0  0  0
 22 21  1  0  0  0  0
 22 20  1  0  0  0  0
 23 26  1  6  0  0  0
 24 23  1  0  0  0  0
 25 22  1  0  0  0  0
 27 26  1  0  0  0  0
 28  4  1  0  0  0  0
 29 28  1  0  0  0  0
 30 29  1  0  0  0  0
 31 30  1  0  0  0  0
 32 31  1  0  0  0  0
 33 35  1  0  0  0  0
 33 32  1  0  0  0  0
 34 33  2  0  0  0  0
 36 35  1  0  0  0  0
 37 36  1  6  0  0  0
 37 39  1  0  0  0  0
 39 40  2  0  0  0  0
 39 38  1  0  0  0  0
 41 37  1  0  0  0  0
 41 42  1  0  0  0  0
 43 45  1  0  0  0  0
 44 42  1  1  0  0  0
 44 47  1  0  0  0  0
 45 48  1  0  0  0  0
 47 50  1  0  0  0  0
 48 49  1  0  0  0  0
 48 46  1  0  0  0  0
 49 50  1  1  0  0  0
 51 43  1  6  0  0  0
 51 44  1  0  0  0  0
 51 49  1  0  0  0  0
M  END
>  <MODEL>
5

>  <REMARK>
 VINA RESULT:      -7.1      2.129      3.791
  Name = 
  18 active torsions:
  status: ('A' for Active; 'I' for Inactive)
    1  A    between atoms: C_1  and  C_15
    2  A    between atoms: C_1  and  N_40
    3  A    between atoms: C_1  and  N_46
    4  A    between atoms: C_3  and  O_14
    5  A    between atoms: N_5  and  C_33
    6  A    between atoms: C_6  and  C_24
    7  A    between atoms: C_6  and  O_43
    8  A    between atoms: C_9  and  N_36
    9  A    between atoms: C_10  and  C_38
   10  A    between atoms: C_12  and  C_27
   11  A    between atoms: C_12  and  O_43
   12  A    between atoms: O_14  and  C_24
   13  A    between atoms: C_17  and  C_37
   14  A    between atoms: C_23  and  N_34
   15  A    between atoms: C_29  and  C_37
   16  A    between atoms: N_36  and  N_46
   17  A    between atoms: C_39  and  C_41
   18  A    between atoms: N_40  and  N_44
                            x       y       z     vdW  Elec       q    Type
                         _______ _______ _______ _____ _____    ______ ____

>  <TORSDO>
F 18

$$$$
=
 OpenBabel11062412373D

 51 56  0  0  1  0  0  0  0  0999 V2000
  184.7610  178.9240  141.1540 C   0  0  0  0  0  3  0  0  0  0  0  0
  187.2980  178.3290  142.3240 C   0  0  1  0  0  3  0  0  0  0  0  0
  186.9940  178.1730  140.9320 O   0  0  0  0  0  0  0  0  0  0  0  0
  185.7960  178.6280  140.3690 C   0  0  0  0  0  0  0  0  0  0  0  0
  186.0470  178.4130  143.1620 C   0  0  0  0  0  3  0  0  0  0  0  0
  184.8780  178.7460  142.6110 C   0  0  0  0  0  0  0  0  0  0  0  0
  183.7270  178.9020  143.4320 N   0  0  0  0  0  0  0  0  0  0  0  0
  182.9490  178.6370  144.6790 C   0  0  0  0  0  2  0  0  0  0  0  0
  182.3520  179.4120  143.7060 C   0  0  2  0  0  3  0  0  0  0  0  0
  181.3590  178.5960  142.8950 C   0  0  2  0  0  3  0  0  0  0  0  0
  181.3680  179.0530  141.5130 N   0  0  0  0  0  2  0  0  0  0  0  0
  180.0810  179.6210  141.6410 N   0  0  0  0  0  0  0  0  0  0  0  0
  179.9830  179.1790  143.0240 C   0  0  0  0  0  2  0  0  0  0  0  0
  179.1700  178.8100  140.8440 C   0  0  0  0  0  2  0  0  0  0  0  0
  178.9770  179.4070  139.5960 O   0  0  0  0  0  1  0  0  0  0  0  0
  187.5570  176.3120  143.5820 F   0  0  0  0  0  0  0  0  0  0  0  0
  188.7750  176.5630  141.7160 F   0  0  0  0  0  0  0  0  0  0  0  0
  188.2560  177.2290  142.8140 C   0  0  0  0  0  0  0  0  0  0  0  0
  190.7550  175.6270  143.2650 C   0  0  0  0  0  1  0  0  0  0  0  0
  191.5040  177.3440  144.7320 O   0  0  0  0  0  0  0  0  0  0  0  0
  189.4310  177.7760  143.6580 C   0  0  2  0  0  3  0  0  0  0  0  0
  190.8060  177.1270  143.5280 C   0  0  2  0  0  0  0  0  0  0  0  0
  190.5670  177.7080  145.7290 C   0  0  1  0  0  3  0  0  0  0  0  0
  189.1850  177.8520  145.1310 C   0  0  0  0  0  2  0  0  0  0  0  0
  191.4970  177.7380  142.4830 O   0  0  0  0  0  1  0  0  0  0  0  0
  190.5570  176.6650  146.8320 C   0  0  0  0  0  2  0  0  0  0  0  0
  190.9380  177.2340  148.0370 F   0  0  0  0  0  0  0  0  0  0  0  0
  185.6700  178.7650  138.8930 C   0  0  0  0  0  2  0  0  0  0  0  0
  184.3990  178.3530  138.4880 O   0  0  0  0  0  0  0  0  0  0  0  0
  184.6310  177.2270  137.6970 C   0  0  0  0  0  2  0  0  0  0  0  0
  185.8700  177.4440  136.8550 C   0  0  0  0  0  2  0  0  0  0  0  0
  186.5080  176.1950  136.6360 O   0  0  0  0  0  0  0  0  0  0  0  0
  187.8370  176.1070  136.2230 C   0  0  0  0  0  0  0  0  0  0  0  0
  188.2450  176.8550  135.2940 O   0  0  0  0  0  0  0  0  0  0  0  0
  188.7350  175.1840  136.8440 N   0  0  0  0  0  2  0  0  0  0  0  0
  190.0700  175.0830  136.4260 N   0  0  0  0  0  2  0  0  0  0  0  0
  190.9240  174.8050  137.5840 C   0  0  2  0  0  3  0  0  0  0  0  0
  192.2350  176.7540  138.0330 O   0  0  0  0  0  0  0  0  0  0  0  0
  191.2770  176.0240  138.3940 C   0  0  0  0  0  0  0  0  0  0  0  0
  190.5780  176.3380  139.5560 O   0  0  0  0  0  1  0  0  0  0  0  0
  192.0690  173.9540  137.2420 N   0  0  0  0  0  2  0  0  0  0  0  0
  192.4860  174.2250  135.9290 N   0  0  0  0  0  2  0  0  0  0  0  0
  194.9660  172.5260  137.3750 N   0  0  0  0  0  2  0  0  0  0  0  0
  193.9390  174.1730  135.9290 C   0  0  1  0  0  3  0  0  0  0  0  0
  196.2790  172.6870  137.9610 C   0  0  0  0  0  2  0  0  0  0  0  0
  197.3410  174.5030  138.9740 C   0  0  0  0  0  1  0  0  0  0  0  0
  194.5060  175.5300  135.6520 C   0  0  0  0  0  2  0  0  0  0  0  0
  196.7050  174.0600  137.7430 N   0  0  0  0  0  0  0  0  0  0  0  0
  195.5330  174.8200  137.5930 N   0  0  1  0  0  0  0  0  0  0  0  0
  195.7140  175.6320  136.4520 N   0  0  0  0  0  2  0  0  0  0  0  0
  194.4470  173.8800  137.3130 C   0  0  2  0  0  3  0  0  0  0  0  0
  1  6  1  0  0  0  0
  2 18  1  1  0  0  0
  2  5  1  0  0  0  0
  3  2  1  0  0  0  0
  4  3  1  0  0  0  0
  4  1  2  0  0  0  0
  6  5  2  0  0  0  0
  6  7  1  0  0  0  0
  7  9  1  0  0  0  0
  7  8  1  0  0  0  0
  9  8  1  1  0  0  0
 10 13  1  1  0  0  0
 10  9  1  0  0  0  0
 11 12  1  0  0  0  0
 11 10  1  0  0  0  0
 12 13  1  0  0  0  0
 14 12  1  0  0  0  0
 15 14  1  0  0  0  0
 17 18  1  0  0  0  0
 18 16  1  0  0  0  0
 20 23  1  0  0  0  0
 21 18  1  6  0  0  0
 21 24  1  0  0  0  0
 22 19  1  6  0  0  0
 22 21  1  0  0  0  0
 22 20  1  0  0  0  0
 23 26  1  1  0  0  0
 24 23  1  0  0  0  0
 25 22  1  0  0  0  0
 26 27  1  0  0  0  0
 28  4  1  0  0  0  0
 29 28  1  0  0  0  0
 30 29  1  0  0  0  0
 31 30  1  0  0  0  0
 32 31  1  0  0  0  0
 33 32  1  0  0  0  0
 33 35  1  0  0  0  0
 34 33  2  0  0  0  0
 36 35  1  0  0  0  0
 37 36  1  6  0  0  0
 37 39  1  0  0  0  0
 38 39  2  0  0  0  0
 39 40  1  0  0  0  0
 41 37  1  0  0  0  0
 42 41  1  0  0  0  0
 43 45  1  0  0  0  0
 44 42  1  1  0  0  0
 44 51  1  0  0  0  0
 47 44  1  0  0  0  0
 47 50  1  0  0  0  0
 48 45  1  0  0  0  0
 48 46  1  0  0  0  0
 49 50  1  6  0  0  0
 49 48  1  0  0  0  0
 51 43  1  6  0  0  0
 51 49  1  0  0  0  0
M  END
>  <MODEL>
6

>  <REMARK>
 VINA RESULT:      -7.0      1.525      2.918
  Name = 
  18 active torsions:
  status: ('A' for Active; 'I' for Inactive)
    1  A    between atoms: C_1  and  C_15
    2  A    between atoms: C_1  and  N_40
    3  A    between atoms: C_1  and  N_46
    4  A    between atoms: C_3  and  O_14
    5  A    between atoms: N_5  and  C_33
    6  A    between atoms: C_6  and  C_24
    7  A    between atoms: C_6  and  O_43
    8  A    between atoms: C_9  and  N_36
    9  A    between atoms: C_10  and  C_38
   10  A    between atoms: C_12  and  C_27
   11  A    between atoms: C_12  and  O_43
   12  A    between atoms: O_14  and  C_24
   13  A    between atoms: C_17  and  C_37
   14  A    between atoms: C_23  and  N_34
   15  A    between atoms: C_29  and  C_37
   16  A    between atoms: N_36  and  N_46
   17  A    between atoms: C_39  and  C_41
   18  A    between atoms: N_40  and  N_44
                            x       y       z     vdW  Elec       q    Type
                         _______ _______ _______ _____ _____    ______ ____

>  <TORSDO>
F 18

$$$$
=
 OpenBabel11062412373D

 51 56  0  0  1  0  0  0  0  0999 V2000
  186.6540  176.9410  137.0450 C   0  0  0  0  0  3  0  0  0  0  0  0
  184.6320  178.2790  138.5550 C   0  0  1  0  0  3  0  0  0  0  0  0
  186.0370  178.5260  138.6900 O   0  0  0  0  0  0  0  0  0  0  0  0
  186.9840  177.9720  137.8220 C   0  0  0  0  0  0  0  0  0  0  0  0
  184.3600  176.9610  137.8720 C   0  0  0  0  0  3  0  0  0  0  0  0
  185.2980  176.3750  137.1250 C   0  0  0  0  0  0  0  0  0  0  0  0
  184.9950  175.1760  136.4210 N   0  0  0  0  0  0  0  0  0  0  0  0
  185.0700  174.2980  135.2160 C   0  0  0  0  0  2  0  0  0  0  0  0
  184.3280  173.8470  136.2890 C   0  0  2  0  0  3  0  0  0  0  0  0
  182.8440  174.0680  136.0540 C   0  0  2  0  0  3  0  0  0  0  0  0
  182.1510  174.1250  137.3330 N   0  0  0  0  0  2  0  0  0  0  0  0
  181.5240  172.8800  137.1050 N   0  0  0  0  0  0  0  0  0  0  0  0
  182.1590  172.7580  135.8010 C   0  0  0  0  0  2  0  0  0  0  0  0
  180.1070  173.1440  136.8900 C   0  0  0  0  0  2  0  0  0  0  0  0
  179.3460  172.1270  137.4730 O   0  0  0  0  0  1  0  0  0  0  0  0
  183.3740  177.1640  140.2560 F   0  0  0  0  0  0  0  0  0  0  0  0
  184.8300  178.7510  140.8800 F   0  0  0  0  0  0  0  0  0  0  0  0
  183.9090  178.3940  139.9080 C   0  0  0  0  0  0  0  0  0  0  0  0
  181.0520  177.6080  139.4250 C   0  0  0  0  0  1  0  0  0  0  0  0
  180.4880  179.9200  139.4510 O   0  0  0  0  0  0  0  0  0  0  0  0
  182.7690  179.4380  139.9040 C   0  0  2  0  0  3  0  0  0  0  0  0
  181.3270  178.9650  140.0610 C   0  0  2  0  0  0  0  0  0  0  0  0
  181.2790  180.7210  138.5930 C   0  0  1  0  0  3  0  0  0  0  0  0
  182.7410  180.3560  138.7230 C   0  0  0  0  0  2  0  0  0  0  0  0
  181.0210  178.8910  141.4190 O   0  0  0  0  0  1  0  0  0  0  0  0
  180.8200  180.5470  137.1560 C   0  0  0  0  0  2  0  0  0  0  0  0
  181.5450  179.5410  136.5370 F   0  0  0  0  0  0  0  0  0  0  0  0
  188.3660  178.5220  137.7760 C   0  0  0  0  0  2  0  0  0  0  0  0
  188.7840  178.8540  139.0660 O   0  0  0  0  0  0  0  0  0  0  0  0
  189.2800  177.6600  139.5920 C   0  0  0  0  0  2  0  0  0  0  0  0
  189.7260  177.8800  141.0210 C   0  0  0  0  0  2  0  0  0  0  0  0
  190.7590  176.9570  141.3330 O   0  0  0  0  0  0  0  0  0  0  0  0
  190.7620  176.2250  142.5200 C   0  0  0  0  0  0  0  0  0  0  0  0
  189.9480  175.2720  142.6580 O   0  0  0  0  0  0  0  0  0  0  0  0
  191.6770  176.5410  143.5710 N   0  0  0  0  0  2  0  0  0  0  0  0
  191.6780  175.8150  144.7710 N   0  0  0  0  0  2  0  0  0  0  0  0
  191.7230  176.7450  145.9030 C   0  0  2  0  0  3  0  0  0  0  0  0
  191.5660  174.8580  147.3640 O   0  0  0  0  0  0  0  0  0  0  0  0
  191.8620  176.0740  147.2440 C   0  0  0  0  0  0  0  0  0  0  0  0
  192.2830  176.7890  148.3610 O   0  0  0  0  0  1  0  0  0  0  0  0
  190.6610  177.7540  145.8390 N   0  0  0  0  0  2  0  0  0  0  0  0
  189.4060  177.1300  145.9320 N   0  0  0  0  0  2  0  0  0  0  0  0
  186.8640  178.9100  147.1550 N   0  0  0  0  0  2  0  0  0  0  0  0
  188.4180  178.0990  145.4870 C   0  0  1  0  0  3  0  0  0  0  0  0
  185.5250  179.3630  146.8450 C   0  0  0  0  0  2  0  0  0  0  0  0
  183.8600  178.5180  145.4430 C   0  0  0  0  0  1  0  0  0  0  0  0
  188.0740  177.8650  144.0500 C   0  0  0  0  0  2  0  0  0  0  0  0
  185.2330  178.9970  145.4680 N   0  0  0  0  0  0  0  0  0  0  0  0
  186.0560  177.8990  145.1660 N   0  0  1  0  0  0  0  0  0  0  0  0
  186.6600  178.1700  143.9200 N   0  0  0  0  0  2  0  0  0  0  0  0
  187.1080  177.8610  146.1820 C   0  0  2  0  0  3  0  0  0  0  0  0
  1  6  1  0  0  0  0
  1  4  2  0  0  0  0
  2  3  1  0  0  0  0
  2 18  1  1  0  0  0
  4  3  1  0  0  0  0
  5  2  1  0  0  0  0
  6  5  2  0  0  0  0
  7  6  1  0  0  0  0
  8  7  1  0  0  0  0
  9  8  1  6  0  0  0
  9  7  1  0  0  0  0
 10 13  1  6  0  0  0
 10  9  1  0  0  0  0
 10 11  1  0  0  0  0
 12 11  1  0  0  0  0
 13 12  1  0  0  0  0
 14 12  1  0  0  0  0
 14 15  1  0  0  0  0
 18 16  1  0  0  0  0
 18 17  1  0  0  0  0
 20 22  1  0  0  0  0
 21 18  1  6  0  0  0
 21 22  1  0  0  0  0
 22 19  1  6  0  0  0
 22 25  1  0  0  0  0
 23 26  1  6  0  0  0
 23 24  1  0  0  0  0
 23 20  1  0  0  0  0
 24 21  1  0  0  0  0
 27 26  1  0  0  0  0
 28  4  1  0  0  0  0
 28 29  1  0  0  0  0
 29 30  1  0  0  0  0
 30 31  1  0  0  0  0
 31 32  1  0  0  0  0
 32 33  1  0  0  0  0
 33 34  2  0  0  0  0
 33 35  1  0  0  0  0
 35 36  1  0  0  0  0
 37 36  1  6  0  0  0
 37 39  1  0  0  0  0
 39 38  2  0  0  0  0
 39 40  1  0  0  0  0
 41 37  1  0  0  0  0
 41 42  1  0  0  0  0
 44 42  1  1  0  0  0
 44 51  1  0  0  0  0
 45 43  1  0  0  0  0
 46 48  1  0  0  0  0
 47 44  1  0  0  0  0
 48 45  1  0  0  0  0
 49 50  1  6  0  0  0
 49 48  1  0  0  0  0
 49 51  1  0  0  0  0
 50 47  1  0  0  0  0
 51 43  1  1  0  0  0
M  END
>  <MODEL>
7

>  <REMARK>
 VINA RESULT:      -6.9      4.077      9.856
  Name = 
  18 active torsions:
  status: ('A' for Active; 'I' for Inactive)
    1  A    between atoms: C_1  and  C_15
    2  A    between atoms: C_1  and  N_40
    3  A    between atoms: C_1  and  N_46
    4  A    between atoms: C_3  and  O_14
    5  A    between atoms: N_5  and  C_33
    6  A    between atoms: C_6  and  C_24
    7  A    between atoms: C_6  and  O_43
    8  A    between atoms: C_9  and  N_36
    9  A    between atoms: C_10  and  C_38
   10  A    between atoms: C_12  and  C_27
   11  A    between atoms: C_12  and  O_43
   12  A    between atoms: O_14  and  C_24
   13  A    between atoms: C_17  and  C_37
   14  A    between atoms: C_23  and  N_34
   15  A    between atoms: C_29  and  C_37
   16  A    between atoms: N_36  and  N_46
   17  A    between atoms: C_39  and  C_41
   18  A    between atoms: N_40  and  N_44
                            x       y       z     vdW  Elec       q    Type
                         _______ _______ _______ _____ _____    ______ ____

>  <TORSDO>
F 18

$$$$
=
 OpenBabel11062412373D

 51 56  0  0  1  0  0  0  0  0999 V2000
  189.1450  175.2740  137.4310 C   0  0  0  0  0  3  0  0  0  0  0  0
  191.9280  174.7390  137.0780 C   0  0  1  0  0  3  0  0  0  0  0  0
  191.3750  176.0470  137.2630 O   0  0  0  0  0  0  0  0  0  0  0  0
  190.0310  176.2540  137.5960 C   0  0  0  0  0  0  0  0  0  0  0  0
  190.8780  173.7430  136.6550 C   0  0  0  0  0  3  0  0  0  0  0  0
  189.5830  173.9820  136.8760 C   0  0  0  0  0  0  0  0  0  0  0  0
  188.6140  172.9940  136.5470 N   0  0  0  0  0  0  0  0  0  0  0  0
  188.0170  171.9900  135.6180 C   0  0  0  0  0  2  0  0  0  0  0  0
  187.3890  172.1900  136.8300 C   0  0  2  0  0  3  0  0  0  0  0  0
  186.1710  173.0850  136.6690 C   0  0  2  0  0  3  0  0  0  0  0  0
  185.3640  173.0310  137.8790 N   0  0  0  0  0  2  0  0  0  0  0  0
  184.3400  172.3130  137.2240 N   0  0  0  0  0  0  0  0  0  0  0  0
  185.0730  172.3430  135.9670 C   0  0  0  0  0  2  0  0  0  0  0  0
  183.1970  173.2080  137.0980 C   0  0  0  0  0  2  0  0  0  0  0  0
  182.0120  172.4790  137.2310 O   0  0  0  0  0  1  0  0  0  0  0  0
  193.2630  173.5310  135.5040 F   0  0  0  0  0  0  0  0  0  0  0  0
  192.8820  175.7080  135.1230 F   0  0  0  0  0  0  0  0  0  0  0  0
  193.1260  174.7680  136.1120 C   0  0  0  0  0  0  0  0  0  0  0  0
  195.7160  174.8620  134.5970 C   0  0  0  0  0  1  0  0  0  0  0  0
  196.8290  175.2380  136.6670 O   0  0  0  0  0  0  0  0  0  0  0  0
  194.4610  175.1210  136.8070 C   0  0  2  0  0  3  0  0  0  0  0  0
  195.6520  175.5490  135.9550 C   0  0  2  0  0  0  0  0  0  0  0  0
  196.5010  174.3080  137.6810 C   0  0  1  0  0  3  0  0  0  0  0  0
  195.0070  174.0720  137.7230 C   0  0  0  0  0  2  0  0  0  0  0  0
  195.5910  176.9270  135.7540 O   0  0  0  0  0  1  0  0  0  0  0  0
  197.2330  173.0000  137.4380 C   0  0  0  0  0  2  0  0  0  0  0  0
  198.5990  173.1770  137.5920 F   0  0  0  0  0  0  0  0  0  0  0  0
  189.5860  177.5750  138.1170 C   0  0  0  0  0  2  0  0  0  0  0  0
  188.5460  177.3960  139.0300 O   0  0  0  0  0  0  0  0  0  0  0  0
  187.7190  178.5030  138.8410 C   0  0  0  0  0  2  0  0  0  0  0  0
  186.3390  178.0430  138.4210 C   0  0  0  0  0  2  0  0  0  0  0  0
  185.3900  179.0390  138.7700 O   0  0  0  0  0  0  0  0  0  0  0  0
  184.4470  178.8410  139.7770 C   0  0  0  0  0  0  0  0  0  0  0  0
  183.2220  178.9860  139.5120 O   0  0  0  0  0  0  0  0  0  0  0  0
  184.8540  178.4720  141.0960 N   0  0  0  0  0  2  0  0  0  0  0  0
  183.9100  178.2810  142.1170 N   0  0  0  0  0  2  0  0  0  0  0  0
  184.5910  178.2600  143.4140 C   0  0  2  0  0  3  0  0  0  0  0  0
  182.8060  179.6230  144.2340 O   0  0  0  0  0  0  0  0  0  0  0  0
  183.8520  178.9810  144.5090 C   0  0  0  0  0  0  0  0  0  0  0  0
  184.3260  178.9740  145.8170 O   0  0  0  0  0  1  0  0  0  0  0  0
  186.0100  178.6160  143.3050 N   0  0  0  0  0  2  0  0  0  0  0  0
  186.8050  177.5080  143.6410 N   0  0  0  0  0  2  0  0  0  0  0  0
  190.1320  177.7430  143.6780 N   0  0  0  0  0  2  0  0  0  0  0  0
  187.8700  177.9980  144.5000 C   0  0  1  0  0  3  0  0  0  0  0  0
  191.2840  177.6000  144.5410 C   0  0  0  0  0  2  0  0  0  0  0  0
  191.6550  176.3510  146.4790 C   0  0  0  0  0  1  0  0  0  0  0  0
  187.4720  177.8790  145.9370 C   0  0  0  0  0  2  0  0  0  0  0  0
  190.8060  177.3790  145.8970 N   0  0  0  0  0  0  0  0  0  0  0  0
  189.5190  176.8270  145.7790 N   0  0  1  0  0  0  0  0  0  0  0  0
  188.6840  177.5420  146.6640 N   0  0  0  0  0  2  0  0  0  0  0  0
  189.0650  177.0900  144.4130 C   0  0  2  0  0  3  0  0  0  0  0  0
  1  4  2  0  0  0  0
  2 18  1  6  0  0  0
  2  3  1  0  0  0  0
  3  4  1  0  0  0  0
  4 28  1  0  0  0  0
  5  6  2  0  0  0  0
  5  2  1  0  0  0  0
  6  1  1  0  0  0  0
  7  9  1  0  0  0  0
  7  6  1  0  0  0  0
  8  7  1  0  0  0  0
  9  8  1  6  0  0  0
 10 13  1  6  0  0  0
 10  9  1  0  0  0  0
 10 11  1  0  0  0  0
 12 11  1  0  0  0  0
 13 12  1  0  0  0  0
 14 12  1  0  0  0  0
 14 15  1  0  0  0  0
 16 18  1  0  0  0  0
 17 18  1  0  0  0  0
 20 23  1  0  0  0  0
 21 18  1  6  0  0  0
 21 24  1  0  0  0  0
 22 19  1  6  0  0  0
 22 20  1  0  0  0  0
 22 21  1  0  0  0  0
 23 26  1  6  0  0  0
 23 24  1  0  0  0  0
 25 22  1  0  0  0  0
 26 27  1  0  0  0  0
 28 29  1  0  0  0  0
 30 29  1  0  0  0  0
 31 32  1  0  0  0  0
 31 30  1  0  0  0  0
 32 33  1  0  0  0  0
 33 35  1  0  0  0  0
 34 33  2  0  0  0  0
 35 36  1  0  0  0  0
 37 36  1  6  0  0  0
 37 39  1  0  0  0  0
 38 39  2  0  0  0  0
 39 40  1  0  0  0  0
 41 37  1  0  0  0  0
 41 42  1  0  0  0  0
 43 45  1  0  0  0  0
 44 42  1  6  0  0  0
 44 47  1  0  0  0  0
 45 48  1  0  0  0  0
 47 50  1  0  0  0  0
 48 46  1  0  0  0  0
 49 48  1  0  0  0  0
 49 50  1  1  0  0  0
 51 43  1  6  0  0  0
 51 44  1  0  0  0  0
 51 49  1  0  0  0  0
M  END
>  <MODEL>
8

>  <REMARK>
 VINA RESULT:      -6.8      3.772      9.190
  Name = 
  18 active torsions:
  status: ('A' for Active; 'I' for Inactive)
    1  A    between atoms: C_1  and  C_15
    2  A    between atoms: C_1  and  N_40
    3  A    between atoms: C_1  and  N_46
    4  A    between atoms: C_3  and  O_14
    5  A    between atoms: N_5  and  C_33
    6  A    between atoms: C_6  and  C_24
    7  A    between atoms: C_6  and  O_43
    8  A    between atoms: C_9  and  N_36
    9  A    between atoms: C_10  and  C_38
   10  A    between atoms: C_12  and  C_27
   11  A    between atoms: C_12  and  O_43
   12  A    between atoms: O_14  and  C_24
   13  A    between atoms: C_17  and  C_37
   14  A    between atoms: C_23  and  N_34
   15  A    between atoms: C_29  and  C_37
   16  A    between atoms: N_36  and  N_46
   17  A    between atoms: C_39  and  C_41
   18  A    between atoms: N_40  and  N_44
                            x       y       z     vdW  Elec       q    Type
                         _______ _______ _______ _____ _____    ______ ____

>  <TORSDO>
F 18

$$$$
=
 OpenBabel11062412373D

 51 56  0  0  1  0  0  0  0  0999 V2000
  192.0570  175.2740  137.9660 C   0  0  0  0  0  3  0  0  0  0  0  0
  189.9490  175.6910  136.0840 C   0  0  1  0  0  3  0  0  0  0  0  0
  189.8520  175.9850  137.4830 O   0  0  0  0  0  0  0  0  0  0  0  0
  190.9560  175.9220  138.3420 C   0  0  0  0  0  0  0  0  0  0  0  0
  191.0900  174.7500  135.7890 C   0  0  0  0  0  3  0  0  0  0  0  0
  192.0970  174.6070  136.6540 C   0  0  0  0  0  0  0  0  0  0  0  0
  193.2050  173.7790  136.3200 N   0  0  0  0  0  0  0  0  0  0  0  0
  193.8100  172.4550  135.9890 C   0  0  0  0  0  2  0  0  0  0  0  0
  194.6570  173.5420  136.0730 C   0  0  2  0  0  3  0  0  0  0  0  0
  195.3870  173.5600  137.4050 C   0  0  2  0  0  3  0  0  0  0  0  0
  195.8370  174.9130  137.6950 N   0  0  0  0  0  2  0  0  0  0  0  0
  197.1890  174.5610  137.4920 N   0  0  0  0  0  0  0  0  0  0  0  0
  196.8260  173.1800  137.2120 C   0  0  0  0  0  2  0  0  0  0  0  0
  197.8460  174.5970  138.7920 C   0  0  0  0  0  2  0  0  0  0  0  0
  198.5030  175.8190  138.9530 O   0  0  0  0  0  1  0  0  0  0  0  0
  188.0040  176.1770  134.7810 F   0  0  0  0  0  0  0  0  0  0  0  0
  188.8570  174.1040  134.6850 F   0  0  0  0  0  0  0  0  0  0  0  0
  188.6100  175.1780  135.5260 C   0  0  0  0  0  0  0  0  0  0  0  0
  186.8590  172.7650  135.1770 C   0  0  0  0  0  1  0  0  0  0  0  0
  185.8240  173.3060  137.2500 O   0  0  0  0  0  0  0  0  0  0  0  0
  187.6240  174.7240  136.6270 C   0  0  2  0  0  3  0  0  0  0  0  0
  187.0670  173.3040  136.5860 C   0  0  2  0  0  0  0  0  0  0  0  0
  185.3740  174.6450  137.3430 C   0  0  1  0  0  3  0  0  0  0  0  0
  186.4250  175.5970  136.8160 C   0  0  0  0  0  2  0  0  0  0  0  0
  187.9440  172.4560  137.2620 O   0  0  0  0  0  1  0  0  0  0  0  0
  184.0790  174.8090  136.5680 C   0  0  0  0  0  2  0  0  0  0  0  0
  184.3450  175.0080  135.2220 F   0  0  0  0  0  0  0  0  0  0  0  0
  190.8950  176.5620  139.6840 C   0  0  0  0  0  2  0  0  0  0  0  0
  190.2780  177.8100  139.5830 O   0  0  0  0  0  0  0  0  0  0  0  0
  189.2410  177.7650  140.5150 C   0  0  0  0  0  2  0  0  0  0  0  0
  187.9090  177.8180  139.7980 C   0  0  0  0  0  2  0  0  0  0  0  0
  187.1920  178.9630  140.2320 O   0  0  0  0  0  0  0  0  0  0  0  0
  186.0200  178.8610  140.9800 C   0  0  0  0  0  0  0  0  0  0  0  0
  185.0090  178.3050  140.4700 O   0  0  0  0  0  0  0  0  0  0  0  0
  185.9570  179.3740  142.3120 N   0  0  0  0  0  2  0  0  0  0  0  0
  184.7770  179.2840  143.0660 N   0  0  0  0  0  2  0  0  0  0  0  0
  185.0540  178.5850  144.3240 C   0  0  2  0  0  3  0  0  0  0  0  0
  184.1920  178.3880  146.5460 O   0  0  0  0  0  1  0  0  0  0  0  0
  183.9630  178.7150  145.3530 C   0  0  0  0  0  0  0  0  0  0  0  0
  182.6940  179.1630  144.9980 O   0  0  0  0  0  0  0  0  0  0  0  0
  186.4020  178.8630  144.8320 N   0  0  0  0  0  2  0  0  0  0  0  0
  187.0890  177.6560  145.0390 N   0  0  0  0  0  2  0  0  0  0  0  0
  190.3890  177.5370  144.5680 N   0  0  0  0  0  2  0  0  0  0  0  0
  188.3200  177.9860  145.7390 C   0  0  1  0  0  3  0  0  0  0  0  0
  191.6350  177.2290  145.2370 C   0  0  0  0  0  2  0  0  0  0  0  0
  192.1510  175.8510  147.0490 C   0  0  0  0  0  1  0  0  0  0  0  0
  188.1310  177.8370  147.2160 C   0  0  0  0  0  2  0  0  0  0  0  0
  191.3440  176.9910  146.6420 N   0  0  0  0  0  0  0  0  0  0  0  0
  190.0010  176.5840  146.7060 N   0  0  1  0  0  0  0  0  0  0  0  0
  189.3930  177.3380  147.7340 N   0  0  0  0  0  2  0  0  0  0  0  0
  189.3780  176.9630  145.4370 C   0  0  2  0  0  3  0  0  0  0  0  0
  1  4  2  0  0  0  0
  2 18  1  1  0  0  0
  2  3  1  0  0  0  0
  3  4  1  0  0  0  0
  4 28  1  0  0  0  0
  5  2  1  0  0  0  0
  5  6  2  0  0  0  0
  6  1  1  0  0  0  0
  7  6  1  0  0  0  0
  8  7  1  0  0  0  0
  9  8  1  1  0  0  0
  9  7  1  0  0  0  0
  9 10  1  0  0  0  0
 10 13  1  6  0  0  0
 10 11  1  0  0  0  0
 12 11  1  0  0  0  0
 12 14  1  0  0  0  0
 13 12  1  0  0  0  0
 14 15  1  0  0  0  0
 16 18  1  0  0  0  0
 17 18  1  0  0  0  0
 20 23  1  0  0  0  0
 21 18  1  6  0  0  0
 21 24  1  0  0  0  0
 22 19  1  6  0  0  0
 22 21  1  0  0  0  0
 22 20  1  0  0  0  0
 22 25  1  0  0  0  0
 23 26  1  6  0  0  0
 24 23  1  0  0  0  0
 27 26  1  0  0  0  0
 29 28  1  0  0  0  0
 29 30  1  0  0  0  0
 31 32  1  0  0  0  0
 31 30  1  0  0  0  0
 32 33  1  0  0  0  0
 33 35  1  0  0  0  0
 34 33  2  0  0  0  0
 35 36  1  0  0  0  0
 37 36  1  6  0  0  0
 37 41  1  0  0  0  0
 37 39  1  0  0  0  0
 39 38  1  0  0  0  0
 40 39  2  0  0  0  0
 41 42  1  0  0  0  0
 43 45  1  0  0  0  0
 44 42  1  6  0  0  0
 44 47  1  0  0  0  0
 45 48  1  0  0  0  0
 47 50  1  0  0  0  0
 48 49  1  0  0  0  0
 48 46  1  0  0  0  0
 49 50  1  1  0  0  0
 51 43  1  6  0  0  0
 51 44  1  0  0  0  0
 51 49  1  0  0  0  0
M  END
>  <MODEL>
9

>  <REMARK>
 VINA RESULT:      -6.8      3.124     10.215
  Name = 
  18 active torsions:
  status: ('A' for Active; 'I' for Inactive)
    1  A    between atoms: C_1  and  C_15
    2  A    between atoms: C_1  and  N_40
    3  A    between atoms: C_1  and  N_46
    4  A    between atoms: C_3  and  O_14
    5  A    between atoms: N_5  and  C_33
    6  A    between atoms: C_6  and  C_24
    7  A    between atoms: C_6  and  O_43
    8  A    between atoms: C_9  and  N_36
    9  A    between atoms: C_10  and  C_38
   10  A    between atoms: C_12  and  C_27
   11  A    between atoms: C_12  and  O_43
   12  A    between atoms: O_14  and  C_24
   13  A    between atoms: C_17  and  C_37
   14  A    between atoms: C_23  and  N_34
   15  A    between atoms: C_29  and  C_37
   16  A    between atoms: N_36  and  N_46
   17  A    between atoms: C_39  and  C_41
   18  A    between atoms: N_40  and  N_44
                            x       y       z     vdW  Elec       q    Type
                         _______ _______ _______ _____ _____    ______ ____

>  <TORSDO>
F 18

$$$$
