=
 OpenBabel11062416203D

 29 31  0  0  1  0  0  0  0  0999 V2000
  189.7590  177.4890  139.8100 C   0  0  0  0  0  0  0  0  0  0  0  0
  189.4230  177.7650  141.0660 C   0  0  1  0  0  3  0  0  0  0  0  0
  188.0300  177.9490  141.5750 C   0  0  0  0  0  1  0  0  0  0  0  0
  191.6540  177.3350  141.1250 C   0  0  0  0  0  3  0  0  0  0  0  0
  191.2060  177.1590  139.7090 C   0  0  0  0  0  3  0  0  0  0  0  0
  190.6260  177.6800  141.8880 C   0  0  0  0  0  0  0  0  0  0  0  0
  188.3730  178.4260  137.8900 C   0  0  0  0  0  0  0  0  0  0  0  0
  188.9120  179.5640  137.9310 O   0  0  0  0  0  0  0  0  0  0  0  0
  188.8570  177.3550  138.7050 N   0  0  0  0  0  2  0  0  0  0  0  0
  187.2760  178.1690  136.9130 C   0  0  0  0  0  2  0  0  0  0  0  0
  185.9600  177.8750  137.6210 C   0  0  0  0  0  0  0  0  0  0  0  0
  185.5650  176.4230  137.4740 C   0  0  0  0  0  2  0  0  0  0  0  0
  184.7640  177.5040  136.7670 C   0  0  0  0  0  2  0  0  0  0  0  0
  185.7180  178.3780  139.0390 C   0  0  0  0  0  2  0  0  0  0  0  0
  184.4120  179.0840  139.1690 C   0  0  0  0  0  0  0  0  0  0  0  0
  184.3450  180.3180  138.9410 O   0  0  0  0  0  0  0  0  0  0  0  0
  183.2670  178.3880  139.5240 O   0  0  0  0  0  1  0  0  0  0  0  0
  190.7380  177.9380  143.3360 C   0  0  0  0  0  0  0  0  0  0  0  0
  191.1380  179.0660  143.7390 O   0  0  0  0  0  0  0  0  0  0  0  0
  189.1980  177.2820  145.1660 C   0  0  0  0  0  3  0  0  0  0  0  0
  191.4680  176.7110  145.3570 C   0  0  0  0  0  3  0  0  0  0  0  0
  191.6730  176.8820  147.7350 O   0  0  0  0  0  1  0  0  0  0  0  0
  189.5550  177.3110  146.4420 C   0  0  0  0  0  0  0  0  0  0  0  0
  190.9540  176.9540  146.5480 C   0  0  0  0  0  0  0  0  0  0  0  0
  190.3830  176.8770  144.3360 C   0  0  2  0  0  3  0  0  0  0  0  0
  187.5340  178.3140  147.1090 F   0  0  0  0  0  0  0  0  0  0  0  0
  188.2950  176.5380  148.2700 F   0  0  0  0  0  0  0  0  0  0  0  0
  188.6670  177.6820  147.5890 C   0  0  0  0  0  0  0  0  0  0  0  0
  189.3200  178.5300  148.4650 F   0  0  0  0  0  0  0  0  0  0  0  0
  1  2  1  0  0  0  0
  2  3  1  1  0  0  0
  2  6  1  0  0  0  0
  4  6  2  0  0  0  0
  5  1  2  0  0  0  0
  5  4  1  0  0  0  0
  6 18  1  0  0  0  0
  7  8  2  0  0  0  0
  7  9  1  0  0  0  0
  9  1  1  0  0  0  0
 10 11  1  0  0  0  0
 10  7  1  0  0  0  0
 11 14  1  0  0  0  0
 12 11  1  0  0  0  0
 13 12  1  0  0  0  0
 13 11  1  0  0  0  0
 14 15  1  0  0  0  0
 15 17  1  0  0  0  0
 16 15  2  0  0  0  0
 18 19  2  0  0  0  0
 20 23  2  0  0  0  0
 21 24  2  0  0  0  0
 23 24  1  0  0  0  0
 23 28  1  0  0  0  0
 24 22  1  0  0  0  0
 25 18  1  6  0  0  0
 25 20  1  0  0  0  0
 25 21  1  0  0  0  0
 26 28  1  0  0  0  0
 28 27  1  0  0  0  0
 28 29  1  0  0  0  0
M  END
>  <MODEL>
1

>  <REMARK>
 VINA RESULT:      -8.4      0.000      0.000
  Name = 
  8 active torsions:
  status: ('A' for Active; 'I' for Inactive)
    1  A    between atoms: C_1  and  C_27
    2  A    between atoms: C_3  and  N_18
    3  A    between atoms: C_7  and  C_8
    4  A    between atoms: C_7  and  C_27
    5  A    between atoms: C_8  and  C_17
    6  A    between atoms: C_12  and  C_22
    7  A    between atoms: C_12  and  C_28
    8  A    between atoms: C_14  and  C_15
                            x       y       z     vdW  Elec       q    Type
                         _______ _______ _______ _____ _____    ______ ____

>  <TORSDO>
F 8

$$$$
=
 OpenBabel11062416203D

 29 31  0  0  1  0  0  0  0  0999 V2000
  185.3870  178.0680  144.3110 C   0  0  0  0  0  0  0  0  0  0  0  0
  186.5070  177.4380  144.6510 C   0  0  0  0  0  0  0  0  0  0  0  0
  187.2820  176.5060  143.7780 C   0  0  0  0  0  1  0  0  0  0  0  0
  186.0940  178.8860  146.3550 C   0  0  0  0  0  3  0  0  0  0  0  0
  185.0130  179.0760  145.3390 C   0  0  0  0  0  2  0  0  0  0  0  0
  186.9400  177.9490  145.9490 C   0  0  0  0  0  0  0  0  0  0  0  0
  184.7440  178.8850  141.9860 C   0  0  0  0  0  0  0  0  0  0  0  0
  185.6180  179.7920  141.9600 O   0  0  0  0  0  0  0  0  0  0  0  0
  184.6950  177.9440  143.0630 N   0  0  0  0  0  2  0  0  0  0  0  0
  183.8080  178.7340  140.8360 C   0  0  0  0  0  2  0  0  0  0  0  0
  182.3550  178.7820  141.2920 C   0  0  0  0  0  0  0  0  0  0  0  0
  181.5430  177.6690  140.6690 C   0  0  0  0  0  2  0  0  0  0  0  0
  181.2980  179.1120  140.2580 C   0  0  0  0  0  2  0  0  0  0  0  0
  182.0160  178.9600  142.7670 C   0  0  0  0  0  2  0  0  0  0  0  0
  180.5870  179.3310  142.9730 C   0  0  0  0  0  0  0  0  0  0  0  0
  179.7550  178.4490  143.3000 O   0  0  0  0  0  1  0  0  0  0  0  0
  180.1710  180.6450  142.8230 O   0  0  0  0  0  0  0  0  0  0  0  0
  188.1140  177.5180  146.7320 C   0  0  0  0  0  0  0  0  0  0  0  0
  187.9510  176.7860  147.7470 O   0  0  0  0  0  0  0  0  0  0  0  0
  189.8120  177.5300  144.9240 C   0  0  0  0  0  3  0  0  0  0  0  0
  190.5350  177.2070  147.1350 C   0  0  0  0  0  3  0  0  0  0  0  0
  192.3830  175.7530  146.6900 O   0  0  0  0  0  1  0  0  0  0  0  0
  190.8660  176.7260  144.9320 C   0  0  0  0  0  0  0  0  0  0  0  0
  191.3050  176.5370  146.2980 C   0  0  0  0  0  0  0  0  0  0  0  0
  189.4980  177.9380  146.3350 C   0  0  2  0  0  3  0  0  0  0  0  0
  190.4910  175.5880  142.9060 F   0  0  0  0  0  0  0  0  0  0  0  0
  192.2150  177.0350  143.0320 F   0  0  0  0  0  0  0  0  0  0  0  0
  191.4860  176.0890  143.7270 C   0  0  0  0  0  0  0  0  0  0  0  0
  192.3300  175.0560  144.0940 F   0  0  0  0  0  0  0  0  0  0  0  0
  1  2  2  0  0  0  0
  1  5  1  0  0  0  0
  2  6  1  0  0  0  0
  3  2  1  0  0  0  0
  5  4  1  0  0  0  0
  6  4  2  0  0  0  0
  6 18  1  0  0  0  0
  7  9  1  0  0  0  0
  8  7  2  0  0  0  0
  9  1  1  0  0  0  0
 10 11  1  0  0  0  0
 10  7  1  0  0  0  0
 11 14  1  0  0  0  0
 12 11  1  0  0  0  0
 13 12  1  0  0  0  0
 13 11  1  0  0  0  0
 14 15  1  0  0  0  0
 15 16  1  0  0  0  0
 17 15  2  0  0  0  0
 18 19  2  0  0  0  0
 20 23  2  0  0  0  0
 20 25  1  0  0  0  0
 23 24  1  0  0  0  0
 24 22  1  0  0  0  0
 24 21  2  0  0  0  0
 25 18  1  1  0  0  0
 25 21  1  0  0  0  0
 26 28  1  0  0  0  0
 27 28  1  0  0  0  0
 28 29  1  0  0  0  0
 28 23  1  0  0  0  0
M  END
>  <MODEL>
2

>  <REMARK>
 VINA RESULT:      -8.2      3.822      5.166
  Name = 
  8 active torsions:
  status: ('A' for Active; 'I' for Inactive)
    1  A    between atoms: C_1  and  C_27
    2  A    between atoms: C_3  and  N_18
    3  A    between atoms: C_7  and  C_8
    4  A    between atoms: C_7  and  C_27
    5  A    between atoms: C_8  and  C_17
    6  A    between atoms: C_12  and  C_22
    7  A    between atoms: C_12  and  C_28
    8  A    between atoms: C_14  and  C_15
                            x       y       z     vdW  Elec       q    Type
                         _______ _______ _______ _____ _____    ______ ____

>  <TORSDO>
F 8

$$$$
=
 OpenBabel11062416203D

 29 31  0  0  1  0  0  0  0  0999 V2000
  188.9660  177.6760  139.9830 C   0  0  0  0  0  0  0  0  0  0  0  0
  189.8990  177.5870  140.9240 C   0  0  1  0  0  3  0  0  0  0  0  0
  191.3310  177.2230  140.6990 C   0  0  0  0  0  1  0  0  0  0  0  0
  188.0820  178.4700  141.9670 C   0  0  0  0  0  3  0  0  0  0  0  0
  187.7160  178.2700  140.5300 C   0  0  0  0  0  3  0  0  0  0  0  0
  189.3310  178.0770  142.1770 C   0  0  0  0  0  0  0  0  0  0  0  0
  189.0250  178.3610  137.5310 C   0  0  0  0  0  0  0  0  0  0  0  0
  188.9960  179.5950  137.7770 O   0  0  0  0  0  0  0  0  0  0  0  0
  189.1440  177.4040  138.5880 N   0  0  0  0  0  2  0  0  0  0  0  0
  189.0250  177.8940  136.1150 C   0  0  0  0  0  2  0  0  0  0  0  0
  187.7500  177.1310  135.7800 C   0  0  0  0  0  0  0  0  0  0  0  0
  186.8540  177.9300  134.8610 C   0  0  0  0  0  2  0  0  0  0  0  0
  186.4380  177.6810  136.3020 C   0  0  0  0  0  2  0  0  0  0  0  0
  187.8150  175.6680  135.3610 C   0  0  0  0  0  2  0  0  0  0  0  0
  187.8960  174.7520  136.5330 C   0  0  0  0  0  0  0  0  0  0  0  0
  186.8400  174.3210  137.0620 O   0  0  0  0  0  1  0  0  0  0  0  0
  189.1260  174.3570  137.0370 O   0  0  0  0  0  0  0  0  0  0  0  0
  189.9920  178.1340  143.4950 C   0  0  0  0  0  0  0  0  0  0  0  0
  190.7520  179.1040  143.7680 O   0  0  0  0  0  0  0  0  0  0  0  0
  188.7260  177.4560  145.5170 C   0  0  0  0  0  3  0  0  0  0  0  0
  190.9910  176.8540  145.3610 C   0  0  0  0  0  3  0  0  0  0  0  0
  191.5450  176.9680  147.6860 O   0  0  0  0  0  1  0  0  0  0  0  0
  189.2670  177.4510  146.7270 C   0  0  0  0  0  0  0  0  0  0  0  0
  190.6610  177.0750  146.6190 C   0  0  0  0  0  0  0  0  0  0  0  0
  189.7700  177.0560  144.5130 C   0  0  2  0  0  3  0  0  0  0  0  0
  189.4000  178.5690  148.7930 F   0  0  0  0  0  0  0  0  0  0  0  0
  187.4260  178.5360  147.7050 F   0  0  0  0  0  0  0  0  0  0  0  0
  188.5620  177.8060  147.9990 C   0  0  0  0  0  0  0  0  0  0  0  0
  188.1940  176.6680  148.6950 F   0  0  0  0  0  0  0  0  0  0  0  0
  1  5  2  0  0  0  0
  1  2  1  0  0  0  0
  2  3  1  6  0  0  0
  2  6  1  0  0  0  0
  4  6  2  0  0  0  0
  5  4  1  0  0  0  0
  6 18  1  0  0  0  0
  7  8  2  0  0  0  0
  7  9  1  0  0  0  0
  9  1  1  0  0  0  0
 10  7  1  0  0  0  0
 11 10  1  0  0  0  0
 11 13  1  0  0  0  0
 12 11  1  0  0  0  0
 12 13  1  0  0  0  0
 14 11  1  0  0  0  0
 14 15  1  0  0  0  0
 15 17  2  0  0  0  0
 15 16  1  0  0  0  0
 18 19  2  0  0  0  0
 20 23  2  0  0  0  0
 21 24  2  0  0  0  0
 23 28  1  0  0  0  0
 24 23  1  0  0  0  0
 24 22  1  0  0  0  0
 25 18  1  6  0  0  0
 25 21  1  0  0  0  0
 25 20  1  0  0  0  0
 27 28  1  0  0  0  0
 28 29  1  0  0  0  0
 28 26  1  0  0  0  0
M  END
>  <MODEL>
3

>  <REMARK>
 VINA RESULT:      -8.1      1.846      2.957
  Name = 
  8 active torsions:
  status: ('A' for Active; 'I' for Inactive)
    1  A    between atoms: C_1  and  C_27
    2  A    between atoms: C_3  and  N_18
    3  A    between atoms: C_7  and  C_8
    4  A    between atoms: C_7  and  C_27
    5  A    between atoms: C_8  and  C_17
    6  A    between atoms: C_12  and  C_22
    7  A    between atoms: C_12  and  C_28
    8  A    between atoms: C_14  and  C_15
                            x       y       z     vdW  Elec       q    Type
                         _______ _______ _______ _____ _____    ______ ____

>  <TORSDO>
F 8

$$$$
=
 OpenBabel11062416203D

 29 31  0  0  1  0  0  0  0  0999 V2000
  189.5300  177.6800  140.1620 C   0  0  0  0  0  0  0  0  0  0  0  0
  190.0640  177.5330  141.3700 C   0  0  1  0  0  3  0  0  0  0  0  0
  191.4810  177.1550  141.6560 C   0  0  0  0  0  1  0  0  0  0  0  0
  187.9940  178.4010  141.7320 C   0  0  0  0  0  3  0  0  0  0  0  0
  188.1680  178.2710  140.2520 C   0  0  0  0  0  3  0  0  0  0  0  0
  189.0840  177.9770  142.3570 C   0  0  0  0  0  0  0  0  0  0  0  0
  189.7850  176.5530  137.8920 C   0  0  0  0  0  0  0  0  0  0  0  0
  188.6360  176.0360  137.9140 O   0  0  0  0  0  0  0  0  0  0  0  0
  190.1980  177.4670  138.9120 N   0  0  0  0  0  2  0  0  0  0  0  0
  190.6910  176.2800  136.7400 C   0  0  0  0  0  2  0  0  0  0  0  0
  191.4130  174.9490  136.9050 C   0  0  0  0  0  0  0  0  0  0  0  0
  191.6120  174.2600  135.5730 C   0  0  0  0  0  2  0  0  0  0  0  0
  190.6440  173.6810  136.5930 C   0  0  0  0  0  2  0  0  0  0  0  0
  192.6610  174.8520  137.7740 C   0  0  0  0  0  2  0  0  0  0  0  0
  193.4860  176.0910  137.7110 C   0  0  0  0  0  0  0  0  0  0  0  0
  194.1430  176.3500  136.6710 O   0  0  0  0  0  0  0  0  0  0  0  0
  193.5240  176.9700  138.7830 O   0  0  0  0  0  1  0  0  0  0  0  0
  189.2270  177.9640  143.8250 C   0  0  0  0  0  0  0  0  0  0  0  0
  190.1590  178.6220  144.3650 O   0  0  0  0  0  0  0  0  0  0  0  0
  186.9510  177.8750  144.8080 C   0  0  0  0  0  3  0  0  0  0  0  0
  188.7590  177.1180  146.1030 C   0  0  0  0  0  3  0  0  0  0  0  0
  187.9400  177.7600  148.2570 O   0  0  0  0  0  1  0  0  0  0  0  0
  186.7180  178.1310  146.0870 C   0  0  0  0  0  0  0  0  0  0  0  0
  187.8360  177.6580  146.8750 C   0  0  0  0  0  0  0  0  0  0  0  0
  188.2780  177.1810  144.6830 C   0  0  2  0  0  3  0  0  0  0  0  0
  185.9030  179.8150  147.5150 F   0  0  0  0  0  0  0  0  0  0  0  0
  184.8040  179.4030  145.5900 F   0  0  0  0  0  0  0  0  0  0  0  0
  185.5080  178.8270  146.6310 C   0  0  0  0  0  0  0  0  0  0  0  0
  184.6810  177.9360  147.2900 F   0  0  0  0  0  0  0  0  0  0  0  0
  1  5  2  0  0  0  0
  1  2  1  0  0  0  0
  2  3  1  6  0  0  0
  2  6  1  0  0  0  0
  4  6  2  0  0  0  0
  5  4  1  0  0  0  0
  6 18  1  0  0  0  0
  7  8  2  0  0  0  0
  7  9  1  0  0  0  0
  9  1  1  0  0  0  0
 10 11  1  0  0  0  0
 10  7  1  0  0  0  0
 11 14  1  0  0  0  0
 12 13  1  0  0  0  0
 12 11  1  0  0  0  0
 13 11  1  0  0  0  0
 15 14  1  0  0  0  0
 15 17  1  0  0  0  0
 16 15  2  0  0  0  0
 18 19  2  0  0  0  0
 20 23  2  0  0  0  0
 21 24  2  0  0  0  0
 23 28  1  0  0  0  0
 23 24  1  0  0  0  0
 24 22  1  0  0  0  0
 25 18  1  6  0  0  0
 25 20  1  0  0  0  0
 25 21  1  0  0  0  0
 27 28  1  0  0  0  0
 28 29  1  0  0  0  0
 28 26  1  0  0  0  0
M  END
>  <MODEL>
4

>  <REMARK>
 VINA RESULT:      -8.0      2.998      4.964
  Name = 
  8 active torsions:
  status: ('A' for Active; 'I' for Inactive)
    1  A    between atoms: C_1  and  C_27
    2  A    between atoms: C_3  and  N_18
    3  A    between atoms: C_7  and  C_8
    4  A    between atoms: C_7  and  C_27
    5  A    between atoms: C_8  and  C_17
    6  A    between atoms: C_12  and  C_22
    7  A    between atoms: C_12  and  C_28
    8  A    between atoms: C_14  and  C_15
                            x       y       z     vdW  Elec       q    Type
                         _______ _______ _______ _____ _____    ______ ____

>  <TORSDO>
F 8

$$$$
=
 OpenBabel11062416203D

 29 31  0  0  1  0  0  0  0  0999 V2000
  190.1620  177.4250  139.7540 C   0  0  0  0  0  0  0  0  0  0  0  0
  189.6320  177.7140  140.9380 C   0  0  1  0  0  3  0  0  0  0  0  0
  188.1710  177.8290  141.2330 C   0  0  0  0  0  1  0  0  0  0  0  0
  191.8510  177.4190  141.3330 C   0  0  0  0  0  3  0  0  0  0  0  0
  191.6240  177.1780  139.8750 C   0  0  0  0  0  3  0  0  0  0  0  0
  190.7050  177.7230  141.9270 C   0  0  0  0  0  0  0  0  0  0  0  0
  188.8230  178.2230  137.7400 C   0  0  0  0  0  0  0  0  0  0  0  0
  189.0880  179.4400  137.9270 O   0  0  0  0  0  0  0  0  0  0  0  0
  189.4400  177.2070  138.5360 N   0  0  0  0  0  2  0  0  0  0  0  0
  187.9260  177.8310  136.6160 C   0  0  0  0  0  2  0  0  0  0  0  0
  186.7290  177.0310  137.1130 C   0  0  0  0  0  0  0  0  0  0  0  0
  185.4390  177.5260  136.4990 C   0  0  0  0  0  2  0  0  0  0  0  0
  185.7100  177.7430  137.9800 C   0  0  0  0  0  2  0  0  0  0  0  0
  186.7810  175.5080  137.1470 C   0  0  0  0  0  2  0  0  0  0  0  0
  187.6500  174.9530  136.0710 C   0  0  0  0  0  0  0  0  0  0  0  0
  187.2270  174.9110  134.8880 O   0  0  0  0  0  0  0  0  0  0  0  0
  188.9260  174.4960  136.3600 O   0  0  0  0  0  1  0  0  0  0  0  0
  190.5900  178.0270  143.3660 C   0  0  0  0  0  0  0  0  0  0  0  0
  190.7840  179.2080  143.7710 O   0  0  0  0  0  0  0  0  0  0  0  0
  189.0710  177.3460  145.2050 C   0  0  0  0  0  3  0  0  0  0  0  0
  191.3420  176.7690  145.3600 C   0  0  0  0  0  3  0  0  0  0  0  0
  191.5760  176.9040  147.7370 O   0  0  0  0  0  1  0  0  0  0  0  0
  189.4440  177.3550  146.4760 C   0  0  0  0  0  0  0  0  0  0  0  0
  190.8430  176.9950  146.5600 C   0  0  0  0  0  0  0  0  0  0  0  0
  190.2450  176.9520  144.3540 C   0  0  2  0  0  3  0  0  0  0  0  0
  187.3710  178.2230  147.1760 F   0  0  0  0  0  0  0  0  0  0  0  0
  188.3200  176.5750  148.3880 F   0  0  0  0  0  0  0  0  0  0  0  0
  188.5700  177.7100  147.6390 C   0  0  0  0  0  0  0  0  0  0  0  0
  189.1810  178.6520  148.4470 F   0  0  0  0  0  0  0  0  0  0  0  0
  1  5  2  0  0  0  0
  1  2  1  0  0  0  0
  2  3  1  1  0  0  0
  2  6  1  0  0  0  0
  4  6  2  0  0  0  0
  5  4  1  0  0  0  0
  6 18  1  0  0  0  0
  7  8  2  0  0  0  0
  7  9  1  0  0  0  0
  9  1  1  0  0  0  0
 10 11  1  0  0  0  0
 10  7  1  0  0  0  0
 11 14  1  0  0  0  0
 11 13  1  0  0  0  0
 12 11  1  0  0  0  0
 12 13  1  0  0  0  0
 15 17  1  0  0  0  0
 15 14  1  0  0  0  0
 16 15  2  0  0  0  0
 18 19  2  0  0  0  0
 20 23  2  0  0  0  0
 21 24  2  0  0  0  0
 23 24  1  0  0  0  0
 23 28  1  0  0  0  0
 24 22  1  0  0  0  0
 25 18  1  6  0  0  0
 25 20  1  0  0  0  0
 25 21  1  0  0  0  0
 26 28  1  0  0  0  0
 28 27  1  0  0  0  0
 28 29  1  0  0  0  0
M  END
>  <MODEL>
5

>  <REMARK>
 VINA RESULT:      -8.0      1.635      2.420
  Name = 
  8 active torsions:
  status: ('A' for Active; 'I' for Inactive)
    1  A    between atoms: C_1  and  C_27
    2  A    between atoms: C_3  and  N_18
    3  A    between atoms: C_7  and  C_8
    4  A    between atoms: C_7  and  C_27
    5  A    between atoms: C_8  and  C_17
    6  A    between atoms: C_12  and  C_22
    7  A    between atoms: C_12  and  C_28
    8  A    between atoms: C_14  and  C_15
                            x       y       z     vdW  Elec       q    Type
                         _______ _______ _______ _____ _____    ______ ____

>  <TORSDO>
F 8

$$$$
=
 OpenBabel11062416203D

 29 31  0  0  1  0  0  0  0  0999 V2000
  183.3320  178.6760  141.7580 C   0  0  0  0  0  0  0  0  0  0  0  0
  184.5070  178.7480  142.3750 C   0  0  0  0  0  0  0  0  0  0  0  0
  185.8230  179.0040  141.7140 C   0  0  0  0  0  1  0  0  0  0  0  0
  182.9640  178.6440  144.0410 C   0  0  0  0  0  3  0  0  0  0  0  0
  182.2180  178.6290  142.7440 C   0  0  0  0  0  2  0  0  0  0  0  0
  184.2680  178.7130  143.8150 C   0  0  0  0  0  0  0  0  0  0  0  0
  182.9640  177.6980  139.4360 C   0  0  0  0  0  0  0  0  0  0  0  0
  182.7690  176.5260  139.8560 O   0  0  0  0  0  0  0  0  0  0  0  0
  183.1100  178.7910  140.3480 N   0  0  0  0  0  2  0  0  0  0  0  0
  182.9520  177.9620  137.9690 C   0  0  0  0  0  2  0  0  0  0  0  0
  183.8450  176.9810  137.2190 C   0  0  0  0  0  0  0  0  0  0  0  0
  183.6660  177.1040  135.7230 C   0  0  0  0  0  2  0  0  0  0  0  0
  183.1760  175.8610  136.4490 C   0  0  0  0  0  2  0  0  0  0  0  0
  185.3140  176.8340  137.5950 C   0  0  0  0  0  2  0  0  0  0  0  0
  186.0810  178.0900  137.3600 C   0  0  0  0  0  0  0  0  0  0  0  0
  186.0620  179.0030  138.2240 O   0  0  0  0  0  1  0  0  0  0  0  0
  186.8290  178.2540  136.2050 O   0  0  0  0  0  0  0  0  0  0  0  0
  185.2800  178.7360  144.8880 C   0  0  0  0  0  0  0  0  0  0  0  0
  185.3450  179.7310  145.6620 O   0  0  0  0  0  0  0  0  0  0  0  0
  186.6390  177.4420  146.5100 C   0  0  0  0  0  3  0  0  0  0  0  0
  187.5360  177.8560  144.3780 C   0  0  0  0  0  3  0  0  0  0  0  0
  189.8420  178.0180  144.9940 O   0  0  0  0  0  1  0  0  0  0  0  0
  187.9550  177.5740  146.6010 C   0  0  0  0  0  0  0  0  0  0  0  0
  188.4970  177.8250  145.2820 C   0  0  0  0  0  0  0  0  0  0  0  0
  186.2320  177.5910  145.0710 C   0  0  2  0  0  3  0  0  0  0  0  0
  187.9310  177.1210  148.9100 F   0  0  0  0  0  0  0  0  0  0  0  0
  189.7670  176.5790  147.7200 F   0  0  0  0  0  0  0  0  0  0  0  0
  188.7530  177.5070  147.8660 C   0  0  0  0  0  0  0  0  0  0  0  0
  189.3130  178.7360  148.1630 F   0  0  0  0  0  0  0  0  0  0  0  0
  1  2  2  0  0  0  0
  1  5  1  0  0  0  0
  2  6  1  0  0  0  0
  3  2  1  0  0  0  0
  5  4  1  0  0  0  0
  6  4  2  0  0  0  0
  6 18  1  0  0  0  0
  7  8  2  0  0  0  0
  7  9  1  0  0  0  0
  9  1  1  0  0  0  0
 10  7  1  0  0  0  0
 11 14  1  0  0  0  0
 11 10  1  0  0  0  0
 12 13  1  0  0  0  0
 12 11  1  0  0  0  0
 13 11  1  0  0  0  0
 15 14  1  0  0  0  0
 15 16  1  0  0  0  0
 17 15  2  0  0  0  0
 18 19  2  0  0  0  0
 20 23  2  0  0  0  0
 21 25  1  0  0  0  0
 21 24  2  0  0  0  0
 22 24  1  0  0  0  0
 23 28  1  0  0  0  0
 24 23  1  0  0  0  0
 25 18  1  1  0  0  0
 25 20  1  0  0  0  0
 27 28  1  0  0  0  0
 28 29  1  0  0  0  0
 28 26  1  0  0  0  0
M  END
>  <MODEL>
6

>  <REMARK>
 VINA RESULT:      -7.8      2.911      4.724
  Name = 
  8 active torsions:
  status: ('A' for Active; 'I' for Inactive)
    1  A    between atoms: C_1  and  C_27
    2  A    between atoms: C_3  and  N_18
    3  A    between atoms: C_7  and  C_8
    4  A    between atoms: C_7  and  C_27
    5  A    between atoms: C_8  and  C_17
    6  A    between atoms: C_12  and  C_22
    7  A    between atoms: C_12  and  C_28
    8  A    between atoms: C_14  and  C_15
                            x       y       z     vdW  Elec       q    Type
                         _______ _______ _______ _____ _____    ______ ____

>  <TORSDO>
F 8

$$$$
=
 OpenBabel11062416203D

 29 31  0  0  1  0  0  0  0  0999 V2000
  185.2870  178.2110  144.9800 C   0  0  0  0  0  0  0  0  0  0  0  0
  186.4300  177.5360  144.9240 C   0  0  0  0  0  0  0  0  0  0  0  0
  186.9040  176.7210  143.7640 C   0  0  0  0  0  1  0  0  0  0  0  0
  186.5490  178.7540  146.8400 C   0  0  0  0  0  3  0  0  0  0  0  0
  185.2430  179.0800  146.1870 C   0  0  0  0  0  2  0  0  0  0  0  0
  187.2160  177.8720  146.1070 C   0  0  0  0  0  0  0  0  0  0  0  0
  184.2860  179.1160  142.8200 C   0  0  0  0  0  0  0  0  0  0  0  0
  185.3270  179.7430  142.4890 O   0  0  0  0  0  0  0  0  0  0  0  0
  184.2800  178.2530  143.9620 N   0  0  0  0  0  2  0  0  0  0  0  0
  183.0720  179.2030  141.9600 C   0  0  0  0  0  2  0  0  0  0  0  0
  183.3220  178.6020  140.5820 C   0  0  0  0  0  0  0  0  0  0  0  0
  182.0600  178.0060  140.0020 C   0  0  0  0  0  2  0  0  0  0  0  0
  183.2020  177.0990  140.4320 C   0  0  0  0  0  2  0  0  0  0  0  0
  184.1040  179.3820  139.5320 C   0  0  0  0  0  2  0  0  0  0  0  0
  185.3040  178.6370  139.0580 C   0  0  0  0  0  0  0  0  0  0  0  0
  186.3460  178.6230  139.7600 O   0  0  0  0  0  1  0  0  0  0  0  0
  185.2760  177.9450  137.8570 O   0  0  0  0  0  0  0  0  0  0  0  0
  188.5390  177.3380  146.4830 C   0  0  0  0  0  0  0  0  0  0  0  0
  188.6210  176.4490  147.3760 O   0  0  0  0  0  0  0  0  0  0  0  0
  189.5420  178.1620  144.3690 C   0  0  0  0  0  3  0  0  0  0  0  0
  190.8290  176.7600  145.7460 C   0  0  0  0  0  3  0  0  0  0  0  0
  192.0670  175.6320  144.0370 O   0  0  0  0  0  1  0  0  0  0  0  0
  190.3360  177.4120  143.6180 C   0  0  0  0  0  0  0  0  0  0  0  0
  191.1260  176.5550  144.4760 C   0  0  0  0  0  0  0  0  0  0  0  0
  189.7860  177.8360  145.8150 C   0  0  2  0  0  3  0  0  0  0  0  0
  191.6310  177.8650  141.7070 F   0  0  0  0  0  0  0  0  0  0  0  0
  190.1780  176.1430  141.6460 F   0  0  0  0  0  0  0  0  0  0  0  0
  190.3870  177.4240  142.1220 C   0  0  0  0  0  0  0  0  0  0  0  0
  189.4150  178.2580  141.6000 F   0  0  0  0  0  0  0  0  0  0  0  0
  1  5  1  0  0  0  0
  2  1  2  0  0  0  0
  2  6  1  0  0  0  0
  3  2  1  0  0  0  0
  5  4  1  0  0  0  0
  6 18  1  0  0  0  0
  6  4  2  0  0  0  0
  7  9  1  0  0  0  0
  8  7  2  0  0  0  0
  9  1  1  0  0  0  0
 10  7  1  0  0  0  0
 11 10  1  0  0  0  0
 12 13  1  0  0  0  0
 12 11  1  0  0  0  0
 13 11  1  0  0  0  0
 14 11  1  0  0  0  0
 15 14  1  0  0  0  0
 15 16  1  0  0  0  0
 17 15  2  0  0  0  0
 18 19  2  0  0  0  0
 20 25  1  0  0  0  0
 21 25  1  0  0  0  0
 22 24  1  0  0  0  0
 23 20  2  0  0  0  0
 23 24  1  0  0  0  0
 24 21  2  0  0  0  0
 25 18  1  6  0  0  0
 26 28  1  0  0  0  0
 27 28  1  0  0  0  0
 28 23  1  0  0  0  0
 29 28  1  0  0  0  0
M  END
>  <MODEL>
7

>  <REMARK>
 VINA RESULT:      -7.8      3.353      5.056
  Name = 
  8 active torsions:
  status: ('A' for Active; 'I' for Inactive)
    1  A    between atoms: C_1  and  C_27
    2  A    between atoms: C_3  and  N_18
    3  A    between atoms: C_7  and  C_8
    4  A    between atoms: C_7  and  C_27
    5  A    between atoms: C_8  and  C_17
    6  A    between atoms: C_12  and  C_22
    7  A    between atoms: C_12  and  C_28
    8  A    between atoms: C_14  and  C_15
                            x       y       z     vdW  Elec       q    Type
                         _______ _______ _______ _____ _____    ______ ____

>  <TORSDO>
F 8

$$$$
=
 OpenBabel11062416203D

 29 31  0  0  1  0  0  0  0  0999 V2000
  186.7030  177.8810  145.5390 C   0  0  0  0  0  0  0  0  0  0  0  0
  185.9850  178.2890  144.4980 C   0  0  0  0  0  0  0  0  0  0  0  0
  186.3720  178.1420  143.0620 C   0  0  0  0  0  1  0  0  0  0  0  0
  184.6330  178.5730  146.3030 C   0  0  0  0  0  3  0  0  0  0  0  0
  185.9190  177.9900  146.7990 C   0  0  0  0  0  2  0  0  0  0  0  0
  184.6850  178.7370  144.9890 C   0  0  0  0  0  0  0  0  0  0  0  0
  189.1130  177.5960  146.3120 C   0  0  0  0  0  0  0  0  0  0  0  0
  188.9660  178.3060  147.3420 O   0  0  0  0  0  0  0  0  0  0  0  0
  187.9940  177.2620  145.4850 N   0  0  0  0  0  2  0  0  0  0  0  0
  190.4530  177.0210  146.0020 C   0  0  0  0  0  2  0  0  0  0  0  0
  190.8410  177.2680  144.5500 C   0  0  0  0  0  0  0  0  0  0  0  0
  191.9010  178.3420  144.4370 C   0  0  0  0  0  2  0  0  0  0  0  0
  190.4890  178.6100  143.9410 C   0  0  0  0  0  2  0  0  0  0  0  0
  191.1330  176.0970  143.6200 C   0  0  0  0  0  2  0  0  0  0  0  0
  190.0980  175.9520  142.5580 C   0  0  0  0  0  0  0  0  0  0  0  0
  188.9350  175.5880  142.8680 O   0  0  0  0  0  1  0  0  0  0  0  0
  190.4010  176.2300  141.2340 O   0  0  0  0  0  0  0  0  0  0  0  0
  183.5780  179.3020  144.1940 C   0  0  0  0  0  0  0  0  0  0  0  0
  183.4640  180.5550  144.0870 O   0  0  0  0  0  0  0  0  0  0  0  0
  182.5030  178.6990  142.0420 C   0  0  0  0  0  3  0  0  0  0  0  0
  181.1910  178.6820  143.9900 C   0  0  0  0  0  3  0  0  0  0  0  0
  179.1110  179.3560  143.0160 O   0  0  0  0  0  1  0  0  0  0  0  0
  181.2620  179.0540  141.7420 C   0  0  0  0  0  0  0  0  0  0  0  0
  180.4620  179.0360  142.9480 C   0  0  0  0  0  0  0  0  0  0  0  0
  182.5860  178.4060  143.5130 C   0  0  2  0  0  3  0  0  0  0  0  0
  179.7440  178.5930  140.0040 F   0  0  0  0  0  0  0  0  0  0  0  0
  180.2960  180.7390  140.4180 F   0  0  0  0  0  0  0  0  0  0  0  0
  180.7700  179.4410  140.3820 C   0  0  0  0  0  0  0  0  0  0  0  0
  181.7860  179.3620  139.4470 F   0  0  0  0  0  0  0  0  0  0  0  0
  1  5  1  0  0  0  0
  2  6  1  0  0  0  0
  2  1  2  0  0  0  0
  3  2  1  0  0  0  0
  4  5  1  0  0  0  0
  6  4  2  0  0  0  0
  7  8  2  0  0  0  0
  9  1  1  0  0  0  0
  9  7  1  0  0  0  0
 10  7  1  0  0  0  0
 11 10  1  0  0  0  0
 12 11  1  0  0  0  0
 13 12  1  0  0  0  0
 13 11  1  0  0  0  0
 14 11  1  0  0  0  0
 15 16  1  0  0  0  0
 15 14  1  0  0  0  0
 17 15  2  0  0  0  0
 18  6  1  0  0  0  0
 19 18  2  0  0  0  0
 20 25  1  0  0  0  0
 23 20  2  0  0  0  0
 23 24  1  0  0  0  0
 24 22  1  0  0  0  0
 24 21  2  0  0  0  0
 25 21  1  0  0  0  0
 25 18  1  1  0  0  0
 26 28  1  0  0  0  0
 28 27  1  0  0  0  0
 28 23  1  0  0  0  0
 29 28  1  0  0  0  0
M  END
>  <MODEL>
8

>  <REMARK>
 VINA RESULT:      -7.8      5.093      8.941
  Name = 
  8 active torsions:
  status: ('A' for Active; 'I' for Inactive)
    1  A    between atoms: C_1  and  C_27
    2  A    between atoms: C_3  and  N_18
    3  A    between atoms: C_7  and  C_8
    4  A    between atoms: C_7  and  C_27
    5  A    between atoms: C_8  and  C_17
    6  A    between atoms: C_12  and  C_22
    7  A    between atoms: C_12  and  C_28
    8  A    between atoms: C_14  and  C_15
                            x       y       z     vdW  Elec       q    Type
                         _______ _______ _______ _____ _____    ______ ____

>  <TORSDO>
F 8

$$$$
=
 OpenBabel11062416203D

 29 31  0  0  1  0  0  0  0  0999 V2000
  184.4040  178.7280  144.1790 C   0  0  0  0  0  0  0  0  0  0  0  0
  185.6070  178.1650  144.1270 C   0  0  0  0  0  0  0  0  0  0  0  0
  186.3630  177.8400  142.8790 C   0  0  0  0  0  1  0  0  0  0  0  0
  185.2540  178.6170  146.3270 C   0  0  0  0  0  3  0  0  0  0  0  0
  184.0550  179.1030  145.5760 C   0  0  0  0  0  2  0  0  0  0  0  0
  186.1320  178.0840  145.4870 C   0  0  0  0  0  0  0  0  0  0  0  0
  182.1900  178.8420  142.9250 C   0  0  0  0  0  0  0  0  0  0  0  0
  181.5010  178.4940  143.9200 O   0  0  0  0  0  0  0  0  0  0  0  0
  183.5930  179.0930  143.0560 N   0  0  0  0  0  2  0  0  0  0  0  0
  181.5200  179.0840  141.6160 C   0  0  0  0  0  2  0  0  0  0  0  0
  182.3200  178.4900  140.4640 C   0  0  0  0  0  0  0  0  0  0  0  0
  181.5550  177.3850  139.7710 C   0  0  0  0  0  2  0  0  0  0  0  0
  182.7910  177.0550  140.5930 C   0  0  0  0  0  2  0  0  0  0  0  0
  183.0160  179.4000  139.4590 C   0  0  0  0  0  2  0  0  0  0  0  0
  184.4870  179.1680  139.4170 C   0  0  0  0  0  0  0  0  0  0  0  0
  185.2350  179.7530  140.2400 O   0  0  0  0  0  1  0  0  0  0  0  0
  185.0380  178.2990  138.4870 O   0  0  0  0  0  0  0  0  0  0  0  0
  187.4190  177.5040  145.9150 C   0  0  0  0  0  0  0  0  0  0  0  0
  187.4250  176.5120  146.6960 O   0  0  0  0  0  0  0  0  0  0  0  0
  189.2330  177.3330  144.2320 C   0  0  0  0  0  3  0  0  0  0  0  0
  189.8070  177.8750  146.4440 C   0  0  0  0  0  3  0  0  0  0  0  0
  191.9430  176.8000  146.5250 O   0  0  0  0  0  1  0  0  0  0  0  0
  190.4230  176.8240  144.5170 C   0  0  0  0  0  0  0  0  0  0  0  0
  190.7680  177.1670  145.8810 C   0  0  0  0  0  0  0  0  0  0  0  0
  188.7180  178.0760  145.4320 C   0  0  2  0  0  3  0  0  0  0  0  0
  192.0750  176.8330  142.8420 F   0  0  0  0  0  0  0  0  0  0  0  0
  192.0550  175.1430  144.3330 F   0  0  0  0  0  0  0  0  0  0  0  0
  191.2640  176.0010  143.5930 C   0  0  0  0  0  0  0  0  0  0  0  0
  190.4730  175.2530  142.7390 F   0  0  0  0  0  0  0  0  0  0  0  0
  1  5  1  0  0  0  0
  2  1  2  0  0  0  0
  2  6  1  0  0  0  0
  3  2  1  0  0  0  0
  5  4  1  0  0  0  0
  6 18  1  0  0  0  0
  6  4  2  0  0  0  0
  7  9  1  0  0  0  0
  7  8  2  0  0  0  0
  9  1  1  0  0  0  0
 10  7  1  0  0  0  0
 11 13  1  0  0  0  0
 11 10  1  0  0  0  0
 12 11  1  0  0  0  0
 12 13  1  0  0  0  0
 14 11  1  0  0  0  0
 15 14  1  0  0  0  0
 15 16  1  0  0  0  0
 17 15  2  0  0  0  0
 18 19  2  0  0  0  0
 20 23  2  0  0  0  0
 20 25  1  0  0  0  0
 23 24  1  0  0  0  0
 24 21  2  0  0  0  0
 24 22  1  0  0  0  0
 25 18  1  1  0  0  0
 25 21  1  0  0  0  0
 26 28  1  0  0  0  0
 28 27  1  0  0  0  0
 28 23  1  0  0  0  0
 29 28  1  0  0  0  0
M  END
>  <MODEL>
9

>  <REMARK>
 VINA RESULT:      -7.8      3.569      5.312
  Name = 
  8 active torsions:
  status: ('A' for Active; 'I' for Inactive)
    1  A    between atoms: C_1  and  C_27
    2  A    between atoms: C_3  and  N_18
    3  A    between atoms: C_7  and  C_8
    4  A    between atoms: C_7  and  C_27
    5  A    between atoms: C_8  and  C_17
    6  A    between atoms: C_12  and  C_22
    7  A    between atoms: C_12  and  C_28
    8  A    between atoms: C_14  and  C_15
                            x       y       z     vdW  Elec       q    Type
                         _______ _______ _______ _____ _____    ______ ____

>  <TORSDO>
F 8

$$$$
