=
 OpenBabel11062416073D

 43 47  0  0  1  0  0  0  0  0999 V2000
  191.6600  177.9360  145.5640 N   0  0  0  0  0  2  0  0  0  0  0  0
  190.9040  176.6880  145.3140 C   0  0  2  0  0  3  0  0  0  0  0  0
  190.9570  176.1600  143.8660 C   0  0  0  0  0  2  0  0  0  0  0  0
  192.2130  178.5360  144.3450 C   0  0  0  0  0  2  0  0  0  0  0  0
  189.5900  176.7270  145.8400 O   0  0  0  0  0  0  0  0  0  0  0  0
  187.7830  177.5810  144.4540 C   0  0  2  0  0  3  0  0  0  0  0  0
  191.1430  178.6500  143.2620 C   0  0  0  0  0  2  0  0  0  0  0  0
  189.1880  177.3120  142.3540 C   0  0  2  0  0  3  0  0  0  0  0  0
  190.6470  177.2640  142.8410 C   0  0  2  0  0  3  0  0  0  0  0  0
  188.1910  176.6550  143.3110 C   0  0  0  0  0  2  0  0  0  0  0  0
  188.9470  177.8970  145.3900 C   0  0  0  0  0  2  0  0  0  0  0  0
  188.2890  178.9570  140.2170 C   0  0  0  0  0  1  0  0  0  0  0  0
  189.0930  176.6300  140.9920 C   0  0  1  0  0  3  0  0  0  0  0  0
  188.6000  177.5150  139.8360 C   0  0  2  0  0  3  0  0  0  0  0  0
  190.0820  177.2600  140.0310 C   0  0  2  0  0  3  0  0  0  0  0  0
  190.5590  176.1980  139.0640 C   0  0  0  0  0  2  0  0  0  0  0  0
  191.9930  176.4820  138.6450 C   0  0  0  0  0  2  0  0  0  0  0  0
  193.9590  171.2110  135.0390 C   0  0  0  0  0  3  0  0  0  0  0  0
  196.3130  175.2400  136.6250 O   0  0  0  0  0  0  0  0  0  0  0  0
  194.9510  175.1760  138.8370 O   0  0  0  0  0  1  0  0  0  0  0  0
  195.3290  172.5830  136.4150 O   0  0  0  0  0  0  0  0  0  0  0  0
  192.7370  171.8420  135.6260 C   0  0  0  0  0  2  0  0  0  0  0  0
  191.3850  175.1680  136.4680 C   0  0  0  0  0  2  0  0  0  0  0  0
  195.1690  171.5670  135.4660 C   0  0  0  0  0  3  0  0  0  0  0  0
  192.2460  176.2270  137.1580 C   0  0  2  0  0  3  0  0  0  0  0  0
  194.2340  173.3140  136.9810 C   0  0  2  0  0  3  0  0  0  0  0  0
  192.9970  173.2820  136.0660 C   0  0  2  0  0  3  0  0  0  0  0  0
  194.7970  175.0150  137.3410 P   0  0  2  0  0  0  0  0  0  0  0  0
  191.7690  173.7420  136.8330 C   0  0  0  0  0  2  0  0  0  0  0  0
  193.6960  176.3160  136.6860 C   0  0  0  0  0  2  0  0  0  0  0  0
  186.6310  176.9730  145.2430 C   0  0  0  0  0  2  0  0  0  0  0  0
  186.1910  177.8840  146.2880 N   0  0  0  0  0  2  0  0  0  0  0  0
  185.6190  179.0520  145.6350 C   0  0  0  0  0  2  0  0  0  0  0  0
  184.1250  178.8460  145.4010 C   0  0  0  0  0  2  0  0  0  0  0  0
  183.7550  178.7420  143.9160 C   0  0  1  0  0  3  0  0  0  0  0  0
  181.4300  178.5490  144.0280 C   0  0  0  0  0  1  0  0  0  0  0  0
  182.5100  179.4420  143.6440 N   0  0  0  0  0  2  0  0  0  0  0  0
  184.8600  179.2730  143.0150 C   0  0  0  0  0  2  0  0  0  0  0  0
  185.1440  178.2920  141.8910 C   0  0  0  0  0  2  0  0  0  0  0  0
  183.2120  177.8210  140.5830 O   0  0  0  0  0  0  0  0  0  0  0  0
  183.6150  179.9600  138.7480 C   0  0  0  0  0  1  0  0  0  0  0  0
  184.2250  178.5530  140.7490 C   0  0  0  0  0  0  0  0  0  0  0  0
  184.4880  179.6470  139.8680 N   0  0  0  0  0  2  0  0  0  0  0  0
  2  3  1  6  0  0  0
  2  1  1  0  0  0  0
  2  5  1  0  0  0  0
  4  1  1  0  0  0  0
  6 31  1  1  0  0  0
  6 11  1  0  0  0  0
  7  4  1  0  0  0  0
  8  9  1  0  0  0  0
  8 10  1  1  0  0  0
  9  7  1  1  0  0  0
  9  3  1  0  0  0  0
 10  6  1  0  0  0  0
 11  5  1  0  0  0  0
 13  8  1  1  0  0  0
 14 15  1  0  0  0  0
 14 12  1  1  0  0  0
 14 13  1  0  0  0  0
 15 16  1  6  0  0  0
 15 13  1  0  0  0  0
 17 16  1  0  0  0  0
 18 24  2  0  0  0  0
 18 22  1  0  0  0  0
 23 29  1  0  0  0  0
 23 25  1  0  0  0  0
 24 21  1  0  0  0  0
 25 17  1  1  0  0  0
 26 21  1  6  0  0  0
 26 28  1  0  0  0  0
 27 22  1  1  0  0  0
 27 29  1  0  0  0  0
 27 26  1  0  0  0  0
 28 19  2  6  0  0  0
 28 20  1  0  0  0  0
 30 25  1  0  0  0  0
 30 28  1  0  0  0  0
 31 32  1  0  0  0  0
 33 32  1  0  0  0  0
 34 33  1  0  0  0  0
 35 38  1  6  0  0  0
 35 34  1  0  0  0  0
 37 35  1  0  0  0  0
 37 36  1  0  0  0  0
 39 38  1  0  0  0  0
 40 42  2  0  0  0  0
 41 43  1  0  0  0  0
 42 39  1  0  0  0  0
 43 42  1  0  0  0  0
M  END
>  <MODEL>
1

>  <REMARK>
 VINA RESULT:      -7.5      0.000      0.000
  Name = 
  13 active torsions:
  status: ('A' for Active; 'I' for Inactive)
    1  A    between atoms: C_1  and  C_23
    2  A    between atoms: C_1  and  C_42
    3  A    between atoms: N_4  and  C_5
    4  A    between atoms: N_4  and  C_12
    5  A    between atoms: C_5  and  C_25
    6  A    between atoms: C_8  and  C_12
    7  A    between atoms: C_8  and  C_23
    8  A    between atoms: C_20  and  C_32
    9  A    between atoms: C_21  and  C_29
   10  A    between atoms: C_21  and  C_35
   11  A    between atoms: C_23  and  N_31
   12  A    between atoms: C_27  and  C_42
   13  A    between atoms: C_34  and  C_35
                            x       y       z     vdW  Elec       q    Type
                         _______ _______ _______ _____ _____    ______ ____

>  <TORSDO>
F 13

$$$$
=
 OpenBabel11062416073D

 43 47  0  0  1  0  0  0  0  0999 V2000
  178.9560  178.9740  139.5690 N   0  0  0  0  0  2  0  0  0  0  0  0
  179.3220  177.7160  140.2610 C   0  0  2  0  0  3  0  0  0  0  0  0
  180.4270  177.8450  141.3280 C   0  0  0  0  0  2  0  0  0  0  0  0
  179.8190  180.1050  139.9220 C   0  0  0  0  0  2  0  0  0  0  0  0
  179.5410  176.6410  139.3660 O   0  0  0  0  0  0  0  0  0  0  0  0
  181.7730  176.2820  138.4670 C   0  0  2  0  0  3  0  0  0  0  0  0
  181.2920  179.7230  139.8030 C   0  0  0  0  0  2  0  0  0  0  0  0
  182.8000  177.7380  140.2790 C   0  0  2  0  0  3  0  0  0  0  0  0
  181.6490  178.6170  140.8000 C   0  0  2  0  0  3  0  0  0  0  0  0
  182.3700  176.3270  139.8710 C   0  0  0  0  0  2  0  0  0  0  0  0
  180.4540  177.0460  138.3720 C   0  0  0  0  0  2  0  0  0  0  0  0
  185.1210  179.3200  139.8390 C   0  0  0  0  0  1  0  0  0  0  0  0
  183.8790  177.6380  141.3540 C   0  0  1  0  0  3  0  0  0  0  0  0
  185.1380  178.4870  141.1150 C   0  0  2  0  0  3  0  0  0  0  0  0
  184.0440  178.9790  142.0420 C   0  0  2  0  0  3  0  0  0  0  0  0
  184.4360  178.7360  143.4840 C   0  0  0  0  0  2  0  0  0  0  0  0
  185.9440  178.5800  143.5930 C   0  0  0  0  0  2  0  0  0  0  0  0
  191.1060  176.7120  147.4040 C   0  0  0  0  0  3  0  0  0  0  0  0
  190.0470  176.0200  142.6410 O   0  0  0  0  0  1  0  0  0  0  0  0
  188.9960  178.3930  142.5210 O   0  0  0  0  0  0  0  0  0  0  0  0
  191.1290  177.0610  145.0520 O   0  0  0  0  0  0  0  0  0  0  0  0
  189.7560  177.3490  147.4860 C   0  0  0  0  0  2  0  0  0  0  0  0
  186.4770  177.2830  145.8000 C   0  0  0  0  0  2  0  0  0  0  0  0
  191.7380  176.6260  146.2350 C   0  0  0  0  0  3  0  0  0  0  0  0
  186.3660  177.2760  144.2750 C   0  0  2  0  0  3  0  0  0  0  0  0
  189.8040  177.6090  145.0020 C   0  0  2  0  0  3  0  0  0  0  0  0
  188.9550  177.1510  146.2000 C   0  0  2  0  0  3  0  0  0  0  0  0
  189.0540  177.1620  143.3970 P   0  0  2  0  0  0  0  0  0  0  0  0
  187.7090  178.0120  146.3150 C   0  0  0  0  0  2  0  0  0  0  0  0
  187.3920  176.4190  143.5360 C   0  0  0  0  0  2  0  0  0  0  0  0
  181.5710  174.8390  138.0240 C   0  0  0  0  0  2  0  0  0  0  0  0
  181.4340  174.7650  136.5770 N   0  0  0  0  0  2  0  0  0  0  0  0
  182.5340  173.9550  136.0760 C   0  0  0  0  0  2  0  0  0  0  0  0
  183.5850  174.8430  135.4160 C   0  0  0  0  0  2  0  0  0  0  0  0
  184.8850  174.9420  136.2220 C   0  0  1  0  0  3  0  0  0  0  0  0
  185.8010  173.1510  137.4100 C   0  0  0  0  0  1  0  0  0  0  0  0
  185.6740  173.7280  136.0820 N   0  0  0  0  0  2  0  0  0  0  0  0
  185.7150  176.1530  135.8200 C   0  0  0  0  0  2  0  0  0  0  0  0
  185.7630  177.1620  136.9530 C   0  0  0  0  0  2  0  0  0  0  0  0
  187.7950  176.2350  137.7770 O   0  0  0  0  0  0  0  0  0  0  0  0
  189.1240  178.7370  138.0580 C   0  0  0  0  0  1  0  0  0  0  0  0
  187.1550  177.2770  137.4680 C   0  0  0  0  0  0  0  0  0  0  0  0
  187.7620  178.5660  137.5800 N   0  0  0  0  0  2  0  0  0  0  0  0
  1  4  1  0  0  0  0
  1  2  1  0  0  0  0
  2  3  1  6  0  0  0
  5  2  1  0  0  0  0
  6 31  1  1  0  0  0
  6 10  1  0  0  0  0
  7  4  1  0  0  0  0
  8 10  1  1  0  0  0
  8  9  1  0  0  0  0
  9  7  1  6  0  0  0
  9  3  1  0  0  0  0
 11  6  1  0  0  0  0
 11  5  1  0  0  0  0
 13  8  1  6  0  0  0
 13 15  1  0  0  0  0
 14 12  1  6  0  0  0
 14 13  1  0  0  0  0
 14 15  1  0  0  0  0
 15 16  1  1  0  0  0
 16 17  1  0  0  0  0
 18 22  1  0  0  0  0
 19 28  1  0  0  0  0
 21 24  1  0  0  0  0
 23 29  1  0  0  0  0
 24 18  2  0  0  0  0
 25 17  1  6  0  0  0
 25 23  1  0  0  0  0
 26 21  1  1  0  0  0
 26 27  1  0  0  0  0
 27 29  1  1  0  0  0
 27 22  1  0  0  0  0
 28 20  2  6  0  0  0
 28 30  1  0  0  0  0
 28 26  1  0  0  0  0
 30 25  1  0  0  0  0
 32 31  1  0  0  0  0
 33 32  1  0  0  0  0
 34 33  1  0  0  0  0
 35 34  1  6  0  0  0
 37 35  1  0  0  0  0
 37 36  1  0  0  0  0
 38 35  1  0  0  0  0
 38 39  1  0  0  0  0
 39 42  1  0  0  0  0
 42 43  1  0  0  0  0
 42 40  2  0  0  0  0
 43 41  1  0  0  0  0
M  END
>  <MODEL>
2

>  <REMARK>
 VINA RESULT:      -7.5      4.870      9.539
  Name = 
  13 active torsions:
  status: ('A' for Active; 'I' for Inactive)
    1  A    between atoms: C_1  and  C_23
    2  A    between atoms: C_1  and  C_42
    3  A    between atoms: N_4  and  C_5
    4  A    between atoms: N_4  and  C_12
    5  A    between atoms: C_5  and  C_25
    6  A    between atoms: C_8  and  C_12
    7  A    between atoms: C_8  and  C_23
    8  A    between atoms: C_20  and  C_32
    9  A    between atoms: C_21  and  C_29
   10  A    between atoms: C_21  and  C_35
   11  A    between atoms: C_23  and  N_31
   12  A    between atoms: C_27  and  C_42
   13  A    between atoms: C_34  and  C_35
                            x       y       z     vdW  Elec       q    Type
                         _______ _______ _______ _____ _____    ______ ____

>  <TORSDO>
F 13

$$$$
=
 OpenBabel11062416073D

 43 47  0  0  1  0  0  0  0  0999 V2000
  179.3460  179.4210  138.9500 N   0  0  0  0  0  2  0  0  0  0  0  0
  180.7620  179.8520  138.8880 C   0  0  2  0  0  3  0  0  0  0  0  0
  181.6000  179.2130  137.7620 C   0  0  0  0  0  2  0  0  0  0  0  0
  179.0240  178.3420  138.0100 C   0  0  0  0  0  2  0  0  0  0  0  0
  181.4050  179.8070  140.1480 O   0  0  0  0  0  0  0  0  0  0  0  0
  182.5160  177.7580  140.8400 C   0  0  2  0  0  3  0  0  0  0  0  0
  180.0380  177.2060  138.1200 C   0  0  0  0  0  2  0  0  0  0  0  0
  182.5330  176.8910  138.4520 C   0  0  2  0  0  3  0  0  0  0  0  0
  181.4360  177.6840  137.7200 C   0  0  2  0  0  3  0  0  0  0  0  0
  183.2780  177.6970  139.5190 C   0  0  0  0  0  2  0  0  0  0  0  0
  181.2080  178.5360  140.7230 C   0  0  0  0  0  2  0  0  0  0  0  0
  182.1680  174.1940  137.6320 C   0  0  0  0  0  1  0  0  0  0  0  0
  183.5400  176.3700  137.4290 C   0  0  1  0  0  3  0  0  0  0  0  0
  183.3480  174.9100  136.9900 C   0  0  2  0  0  3  0  0  0  0  0  0
  182.8310  176.0460  136.1290 C   0  0  2  0  0  3  0  0  0  0  0  0
  183.7830  176.3060  134.9820 C   0  0  0  0  0  2  0  0  0  0  0  0
  184.7250  177.4460  135.3370 C   0  0  0  0  0  2  0  0  0  0  0  0
  190.4120  174.7570  137.5900 C   0  0  0  0  0  3  0  0  0  0  0  0
  188.8590  179.4150  137.1590 O   0  0  0  0  0  0  0  0  0  0  0  0
  186.4480  178.6780  137.7870 O   0  0  0  0  0  1  0  0  0  0  0  0
  189.4840  176.8550  138.2190 O   0  0  0  0  0  0  0  0  0  0  0  0
  189.1320  174.3960  136.9060 C   0  0  0  0  0  2  0  0  0  0  0  0
  186.6430  175.8320  134.5950 C   0  0  0  0  0  2  0  0  0  0  0  0
  190.5260  175.9190  138.2300 C   0  0  0  0  0  3  0  0  0  0  0  0
  186.1320  177.2630  134.7650 C   0  0  2  0  0  3  0  0  0  0  0  0
  188.2470  176.6490  137.5240 C   0  0  2  0  0  3  0  0  0  0  0  0
  188.4010  175.6300  136.3810 C   0  0  2  0  0  3  0  0  0  0  0  0
  187.6330  178.2690  136.9430 P   0  0  2  0  0  0  0  0  0  0  0  0
  187.0330  175.1690  135.9080 C   0  0  0  0  0  2  0  0  0  0  0  0
  187.1770  178.2990  135.1750 C   0  0  0  0  0  2  0  0  0  0  0  0
  183.3900  178.3710  141.9270 C   0  0  0  0  0  2  0  0  0  0  0  0
  184.7070  178.6940  141.4000 N   0  0  0  0  0  2  0  0  0  0  0  0
  185.6170  178.7900  142.5320 C   0  0  0  0  0  2  0  0  0  0  0  0
  184.9000  178.3980  143.8200 C   0  0  0  0  0  2  0  0  0  0  0  0
  185.7970  178.4830  145.0610 C   0  0  1  0  0  3  0  0  0  0  0  0
  185.9290  179.2350  147.2680 C   0  0  0  0  0  1  0  0  0  0  0  0
  185.0080  178.7560  146.2510 N   0  0  0  0  0  2  0  0  0  0  0  0
  186.6190  177.2180  145.2590 C   0  0  0  0  0  2  0  0  0  0  0  0
  188.0920  177.5010  145.0290 C   0  0  0  0  0  2  0  0  0  0  0  0
  187.8610  175.9880  143.2050 O   0  0  0  0  0  0  0  0  0  0  0  0
  190.0960  176.9910  141.7550 C   0  0  0  0  0  1  0  0  0  0  0  0
  188.5170  176.9350  143.7190 C   0  0  0  0  0  0  0  0  0  0  0  0
  189.6480  177.4900  143.0440 N   0  0  0  0  0  2  0  0  0  0  0  0
  2  3  1  6  0  0  0
  2  1  1  0  0  0  0
  2  5  1  0  0  0  0
  4  7  1  0  0  0  0
  4  1  1  0  0  0  0
  5 11  1  0  0  0  0
  6 31  1  1  0  0  0
  8 10  1  1  0  0  0
  9  3  1  1  0  0  0
  9  7  1  0  0  0  0
  9  8  1  0  0  0  0
 10  6  1  0  0  0  0
 11  6  1  0  0  0  0
 13  8  1  1  0  0  0
 14 13  1  0  0  0  0
 14 12  1  1  0  0  0
 15 16  1  6  0  0  0
 15 14  1  0  0  0  0
 15 13  1  0  0  0  0
 16 17  1  0  0  0  0
 18 24  2  0  0  0  0
 21 24  1  0  0  0  0
 22 18  1  0  0  0  0
 23 25  1  0  0  0  0
 23 29  1  0  0  0  0
 25 30  1  0  0  0  0
 25 17  1  1  0  0  0
 26 21  1  6  0  0  0
 27 29  1  1  0  0  0
 27 22  1  0  0  0  0
 27 26  1  0  0  0  0
 28 19  2  1  0  0  0
 28 26  1  0  0  0  0
 28 20  1  0  0  0  0
 30 28  1  0  0  0  0
 32 31  1  0  0  0  0
 32 33  1  0  0  0  0
 33 34  1  0  0  0  0
 35 34  1  6  0  0  0
 35 38  1  0  0  0  0
 35 37  1  0  0  0  0
 37 36  1  0  0  0  0
 39 38  1  0  0  0  0
 40 42  2  0  0  0  0
 41 43  1  0  0  0  0
 42 39  1  0  0  0  0
 43 42  1  0  0  0  0
M  END
>  <MODEL>
3

>  <REMARK>
 VINA RESULT:      -6.7      3.726      7.698
  Name = 
  13 active torsions:
  status: ('A' for Active; 'I' for Inactive)
    1  A    between atoms: C_1  and  C_23
    2  A    between atoms: C_1  and  C_42
    3  A    between atoms: N_4  and  C_5
    4  A    between atoms: N_4  and  C_12
    5  A    between atoms: C_5  and  C_25
    6  A    between atoms: C_8  and  C_12
    7  A    between atoms: C_8  and  C_23
    8  A    between atoms: C_20  and  C_32
    9  A    between atoms: C_21  and  C_29
   10  A    between atoms: C_21  and  C_35
   11  A    between atoms: C_23  and  N_31
   12  A    between atoms: C_27  and  C_42
   13  A    between atoms: C_34  and  C_35
                            x       y       z     vdW  Elec       q    Type
                         _______ _______ _______ _____ _____    ______ ____

>  <TORSDO>
F 13

$$$$
=
 OpenBabel11062416073D

 43 47  0  0  1  0  0  0  0  0999 V2000
  190.5090  177.8350  144.0260 N   0  0  0  0  0  2  0  0  0  0  0  0
  189.5040  176.9000  143.4700 C   0  0  2  0  0  3  0  0  0  0  0  0
  190.0180  175.9540  142.3660 C   0  0  0  0  0  2  0  0  0  0  0  0
  191.7940  177.7950  143.3200 C   0  0  0  0  0  2  0  0  0  0  0  0
  188.2890  177.5410  143.1260 O   0  0  0  0  0  0  0  0  0  0  0  0
  188.0260  178.4620  140.8900 C   0  0  2  0  0  3  0  0  0  0  0  0
  191.5890  177.9090  141.8110 C   0  0  0  0  0  2  0  0  0  0  0  0
  189.9810  177.0850  140.0290 C   0  0  2  0  0  3  0  0  0  0  0  0
  190.7990  176.7100  141.2780 C   0  0  2  0  0  3  0  0  0  0  0  0
  188.4700  177.1400  140.2690 C   0  0  0  0  0  2  0  0  0  0  0  0
  188.5690  178.6510  142.3050 C   0  0  0  0  0  2  0  0  0  0  0  0
  189.7740  178.0870  137.3780 C   0  0  0  0  0  1  0  0  0  0  0  0
  190.2730  176.0790  138.9200 C   0  0  1  0  0  3  0  0  0  0  0  0
  190.1550  176.6160  137.4850 C   0  0  2  0  0  3  0  0  0  0  0  0
  191.5110  176.5030  138.1540 C   0  0  2  0  0  3  0  0  0  0  0  0
  192.2270  175.2600  137.6700 C   0  0  0  0  0  2  0  0  0  0  0  0
  193.7220  175.5260  137.5750 C   0  0  0  0  0  2  0  0  0  0  0  0
  197.3270  170.0580  136.2480 C   0  0  0  0  0  3  0  0  0  0  0  0
  198.5420  174.7970  136.8490 O   0  0  0  0  0  0  0  0  0  0  0  0
  196.7240  175.0380  138.6900 O   0  0  0  0  0  1  0  0  0  0  0  0
  198.0870  172.0350  137.3300 O   0  0  0  0  0  0  0  0  0  0  0  0
  195.9140  170.5300  136.3790 C   0  0  0  0  0  2  0  0  0  0  0  0
  193.8720  173.5570  135.8620 C   0  0  0  0  0  2  0  0  0  0  0  0
  198.3260  170.7860  136.7430 C   0  0  0  0  0  3  0  0  0  0  0  0
  194.3590  174.9330  136.3160 C   0  0  2  0  0  3  0  0  0  0  0  0
  196.7830  172.6220  137.4320 C   0  0  2  0  0  3  0  0  0  0  0  0
  195.8220  172.0550  136.3730 C   0  0  2  0  0  3  0  0  0  0  0  0
  196.9570  174.4380  137.3220 P   0  0  2  0  0  0  0  0  0  0  0  0
  194.3880  172.4160  136.7250 C   0  0  0  0  0  2  0  0  0  0  0  0
  195.8440  175.2180  136.1030 C   0  0  0  0  0  2  0  0  0  0  0  0
  186.5060  178.5570  140.8990 C   0  0  0  0  0  2  0  0  0  0  0  0
  186.0690  179.6590  141.7430 N   0  0  0  0  0  2  0  0  0  0  0  0
  184.7550  179.3130  142.2640 C   0  0  0  0  0  2  0  0  0  0  0  0
  184.8830  178.2650  143.3660 C   0  0  0  0  0  2  0  0  0  0  0  0
  185.0710  178.8740  144.7600 C   0  0  1  0  0  3  0  0  0  0  0  0
  182.7610  178.6410  144.5150 C   0  0  0  0  0  1  0  0  0  0  0  0
  183.7910  179.2540  145.3360 N   0  0  0  0  0  2  0  0  0  0  0  0
  185.8070  177.9300  145.7000 C   0  0  0  0  0  2  0  0  0  0  0  0
  186.0960  178.6170  147.0230 C   0  0  0  0  0  2  0  0  0  0  0  0
  187.7520  178.4720  148.7270 O   0  0  0  0  0  0  0  0  0  0  0  0
  189.5240  176.8270  147.2240 C   0  0  0  0  0  1  0  0  0  0  0  0
  187.4050  178.1530  147.5580 C   0  0  0  0  0  0  0  0  0  0  0  0
  188.2440  177.3260  146.7480 N   0  0  0  0  0  2  0  0  0  0  0  0
  2  3  1  6  0  0  0
  2  1  1  0  0  0  0
  4  1  1  0  0  0  0
  5  2  1  0  0  0  0
  6 31  1  1  0  0  0
  6 11  1  0  0  0  0
  7  4  1  0  0  0  0
  8 10  1  1  0  0  0
  8  9  1  0  0  0  0
  9  7  1  1  0  0  0
  9  3  1  0  0  0  0
 10  6  1  0  0  0  0
 11  5  1  0  0  0  0
 13  8  1  1  0  0  0
 14 12  1  1  0  0  0
 14 15  1  0  0  0  0
 14 13  1  0  0  0  0
 15 16  1  6  0  0  0
 15 13  1  0  0  0  0
 17 16  1  0  0  0  0
 18 22  1  0  0  0  0
 18 24  2  0  0  0  0
 23 25  1  0  0  0  0
 23 29  1  0  0  0  0
 24 21  1  0  0  0  0
 25 17  1  1  0  0  0
 26 21  1  6  0  0  0
 27 22  1  1  0  0  0
 27 29  1  0  0  0  0
 27 26  1  0  0  0  0
 28 19  2  6  0  0  0
 28 26  1  0  0  0  0
 28 20  1  0  0  0  0
 30 25  1  0  0  0  0
 30 28  1  0  0  0  0
 31 32  1  0  0  0  0
 32 33  1  0  0  0  0
 33 34  1  0  0  0  0
 35 34  1  6  0  0  0
 35 37  1  0  0  0  0
 35 38  1  0  0  0  0
 36 37  1  0  0  0  0
 38 39  1  0  0  0  0
 39 42  1  0  0  0  0
 42 40  2  0  0  0  0
 43 41  1  0  0  0  0
 43 42  1  0  0  0  0
M  END
>  <MODEL>
4

>  <REMARK>
 VINA RESULT:      -6.7      1.915      3.906
  Name = 
  13 active torsions:
  status: ('A' for Active; 'I' for Inactive)
    1  A    between atoms: C_1  and  C_23
    2  A    between atoms: C_1  and  C_42
    3  A    between atoms: N_4  and  C_5
    4  A    between atoms: N_4  and  C_12
    5  A    between atoms: C_5  and  C_25
    6  A    between atoms: C_8  and  C_12
    7  A    between atoms: C_8  and  C_23
    8  A    between atoms: C_20  and  C_32
    9  A    between atoms: C_21  and  C_29
   10  A    between atoms: C_21  and  C_35
   11  A    between atoms: C_23  and  N_31
   12  A    between atoms: C_27  and  C_42
   13  A    between atoms: C_34  and  C_35
                            x       y       z     vdW  Elec       q    Type
                         _______ _______ _______ _____ _____    ______ ____

>  <TORSDO>
F 13

$$$$
=
 OpenBabel11062416073D

 43 47  0  0  1  0  0  0  0  0999 V2000
  179.1930  179.3340  142.1220 N   0  0  0  0  0  2  0  0  0  0  0  0
  180.3950  180.1300  141.7860 C   0  0  2  0  0  3  0  0  0  0  0  0
  181.0660  179.7810  140.4420 C   0  0  0  0  0  2  0  0  0  0  0  0
  178.9320  178.2440  141.1760 C   0  0  0  0  0  2  0  0  0  0  0  0
  181.3170  180.2120  142.8580 O   0  0  0  0  0  0  0  0  0  0  0  0
  183.0410  178.5100  143.0730 C   0  0  2  0  0  3  0  0  0  0  0  0
  180.1930  177.4170  140.9400 C   0  0  0  0  0  2  0  0  0  0  0  0
  182.6910  177.7680  140.6680 C   0  0  2  0  0  3  0  0  0  0  0  0
  181.2860  178.2660  140.2850 C   0  0  2  0  0  3  0  0  0  0  0  0
  183.4470  178.7040  141.6140 C   0  0  0  0  0  2  0  0  0  0  0  0
  181.5910  178.9140  143.3320 C   0  0  0  0  0  2  0  0  0  0  0  0
  182.4690  175.2150  139.4380 C   0  0  0  0  0  1  0  0  0  0  0  0
  183.5150  177.5740  139.3980 C   0  0  1  0  0  3  0  0  0  0  0  0
  183.4020  176.1920  138.7350 C   0  0  2  0  0  3  0  0  0  0  0  0
  182.5920  177.3630  138.2140 C   0  0  2  0  0  3  0  0  0  0  0  0
  183.2500  177.9420  136.9800 C   0  0  0  0  0  2  0  0  0  0  0  0
  184.7340  178.1570  137.2340 C   0  0  0  0  0  2  0  0  0  0  0  0
  189.4950  173.4980  136.7020 C   0  0  0  0  0  3  0  0  0  0  0  0
  189.6530  178.4110  137.0650 O   0  0  0  0  0  0  0  0  0  0  0  0
  187.6230  178.3650  138.6860 O   0  0  0  0  0  1  0  0  0  0  0  0
  189.7110  175.6440  137.7040 O   0  0  0  0  0  0  0  0  0  0  0  0
  188.0100  173.6720  136.6500 C   0  0  0  0  0  2  0  0  0  0  0  0
  185.4750  176.1750  135.6990 C   0  0  0  0  0  2  0  0  0  0  0  0
  190.2620  174.4430  137.2410 C   0  0  0  0  0  3  0  0  0  0  0  0
  185.6190  177.6450  136.0960 C   0  0  2  0  0  3  0  0  0  0  0  0
  188.3130  175.9520  137.6260 C   0  0  2  0  0  3  0  0  0  0  0  0
  187.6150  175.1410  136.5200 C   0  0  2  0  0  3  0  0  0  0  0  0
  188.1290  177.7550  137.3980 P   0  0  2  0  0  0  0  0  0  0  0  0
  186.1070  175.2140  136.6940 C   0  0  0  0  0  2  0  0  0  0  0  0
  187.0320  178.2210  136.0160 C   0  0  0  0  0  2  0  0  0  0  0  0
  183.9710  179.2930  143.9900 C   0  0  0  0  0  2  0  0  0  0  0  0
  183.8340  178.8380  145.3650 N   0  0  0  0  0  2  0  0  0  0  0  0
  185.1150  179.0470  146.0220 C   0  0  0  0  0  2  0  0  0  0  0  0
  186.0670  177.8980  145.7020 C   0  0  0  0  0  2  0  0  0  0  0  0
  187.4590  178.0760  146.3210 C   0  0  1  0  0  3  0  0  0  0  0  0
  188.7980  177.8270  148.2180 C   0  0  0  0  0  1  0  0  0  0  0  0
  187.5270  177.4420  147.6280 N   0  0  0  0  0  2  0  0  0  0  0  0
  188.5580  177.5330  145.4190 C   0  0  0  0  0  2  0  0  0  0  0  0
  188.0060  177.2240  144.0390 C   0  0  0  0  0  2  0  0  0  0  0  0
  190.1460  176.2930  143.5660 O   0  0  0  0  0  0  0  0  0  0  0  0
  190.0560  176.8460  140.7750 C   0  0  0  0  0  1  0  0  0  0  0  0
  189.1220  176.8750  143.1160 C   0  0  0  0  0  0  0  0  0  0  0  0
  189.0080  177.1800  141.7250 N   0  0  0  0  0  2  0  0  0  0  0  0
  2  3  1  6  0  0  0
  2  1  1  0  0  0  0
  2  5  1  0  0  0  0
  4  1  1  0  0  0  0
  5 11  1  0  0  0  0
  6 11  1  0  0  0  0
  6 31  1  1  0  0  0
  7  4  1  0  0  0  0
  8 10  1  1  0  0  0
  9  3  1  1  0  0  0
  9  8  1  0  0  0  0
  9  7  1  0  0  0  0
 10  6  1  0  0  0  0
 13  8  1  1  0  0  0
 14 13  1  0  0  0  0
 14 12  1  1  0  0  0
 15 16  1  6  0  0  0
 15 14  1  0  0  0  0
 15 13  1  0  0  0  0
 16 17  1  0  0  0  0
 18 24  2  0  0  0  0
 22 18  1  0  0  0  0
 23 25  1  0  0  0  0
 23 29  1  0  0  0  0
 24 21  1  0  0  0  0
 25 17  1  1  0  0  0
 26 21  1  6  0  0  0
 27 22  1  1  0  0  0
 27 29  1  0  0  0  0
 27 26  1  0  0  0  0
 28 19  2  6  0  0  0
 28 26  1  0  0  0  0
 28 20  1  0  0  0  0
 30 25  1  0  0  0  0
 30 28  1  0  0  0  0
 31 32  1  0  0  0  0
 32 33  1  0  0  0  0
 34 33  1  0  0  0  0
 34 35  1  0  0  0  0
 35 38  1  6  0  0  0
 35 37  1  0  0  0  0
 37 36  1  0  0  0  0
 39 38  1  0  0  0  0
 41 43  1  0  0  0  0
 42 40  2  0  0  0  0
 42 39  1  0  0  0  0
 43 42  1  0  0  0  0
M  END
>  <MODEL>
5

>  <REMARK>
 VINA RESULT:      -6.6      3.281      7.308
  Name = 
  13 active torsions:
  status: ('A' for Active; 'I' for Inactive)
    1  A    between atoms: C_1  and  C_23
    2  A    between atoms: C_1  and  C_42
    3  A    between atoms: N_4  and  C_5
    4  A    between atoms: N_4  and  C_12
    5  A    between atoms: C_5  and  C_25
    6  A    between atoms: C_8  and  C_12
    7  A    between atoms: C_8  and  C_23
    8  A    between atoms: C_20  and  C_32
    9  A    between atoms: C_21  and  C_29
   10  A    between atoms: C_21  and  C_35
   11  A    between atoms: C_23  and  N_31
   12  A    between atoms: C_27  and  C_42
   13  A    between atoms: C_34  and  C_35
                            x       y       z     vdW  Elec       q    Type
                         _______ _______ _______ _____ _____    ______ ____

>  <TORSDO>
F 13

$$$$
=
 OpenBabel11062416073D

 43 47  0  0  1  0  0  0  0  0999 V2000
  191.7830  174.4450  135.8770 N   0  0  0  0  0  2  0  0  0  0  0  0
  191.0700  174.1430  137.1400 C   0  0  2  0  0  3  0  0  0  0  0  0
  189.5330  174.0720  137.0310 C   0  0  0  0  0  2  0  0  0  0  0  0
  190.8850  174.7690  134.7640 C   0  0  0  0  0  2  0  0  0  0  0  0
  191.5110  174.9420  138.2230 O   0  0  0  0  0  0  0  0  0  0  0  0
  190.4310  177.0810  138.6370 C   0  0  2  0  0  3  0  0  0  0  0  0
  189.8620  175.8230  135.1810 C   0  0  0  0  0  2  0  0  0  0  0  0
  188.4430  176.4230  137.1970 C   0  0  2  0  0  3  0  0  0  0  0  0
  188.9520  175.2880  136.2900 C   0  0  2  0  0  3  0  0  0  0  0  0
  189.0560  176.4200  138.6000 C   0  0  0  0  0  2  0  0  0  0  0  0
  191.4750  176.2970  137.8440 C   0  0  0  0  0  2  0  0  0  0  0  0
  186.9730  178.4810  135.9010 C   0  0  0  0  0  1  0  0  0  0  0  0
  186.9250  176.3240  137.3170 C   0  0  1  0  0  3  0  0  0  0  0  0
  186.1280  177.4400  136.6230 C   0  0  2  0  0  3  0  0  0  0  0  0
  186.3150  176.0950  135.9480 C   0  0  2  0  0  3  0  0  0  0  0  0
  185.0680  175.2540  136.1110 C   0  0  0  0  0  2  0  0  0  0  0  0
  184.3590  175.6190  137.4060 C   0  0  0  0  0  2  0  0  0  0  0  0
  179.9080  180.5750  136.8710 C   0  0  0  0  0  3  0  0  0  0  0  0
  181.2430  177.6730  140.6250 O   0  0  0  0  0  1  0  0  0  0  0  0
  183.7040  177.7110  139.7910 O   0  0  0  0  0  0  0  0  0  0  0  0
  181.0320  179.8790  138.8490 O   0  0  0  0  0  0  0  0  0  0  0  0
  180.8310  179.7310  136.0500 C   0  0  0  0  0  2  0  0  0  0  0  0
  182.2820  176.3410  135.9920 C   0  0  0  0  0  2  0  0  0  0  0  0
  180.0590  180.6440  138.1920 C   0  0  0  0  0  3  0  0  0  0  0  0
  182.8380  175.6910  137.2590 C   0  0  2  0  0  3  0  0  0  0  0  0
  181.9130  178.9730  138.1720 C   0  0  2  0  0  3  0  0  0  0  0  0
  181.3260  178.5120  136.8260 C   0  0  2  0  0  3  0  0  0  0  0  0
  182.2820  177.5790  139.2930 P   0  0  2  0  0  0  0  0  0  0  0  0
  182.4080  177.8570  135.9840 C   0  0  0  0  0  2  0  0  0  0  0  0
  182.0380  175.9350  138.5380 C   0  0  0  0  0  2  0  0  0  0  0  0
  190.8960  177.2560  140.0760 C   0  0  0  0  0  2  0  0  0  0  0  0
  190.2550  176.2780  140.9420 N   0  0  0  0  0  2  0  0  0  0  0  0
  190.4650  176.7080  142.3160 C   0  0  0  0  0  2  0  0  0  0  0  0
  189.7790  178.0500  142.5590 C   0  0  0  0  0  2  0  0  0  0  0  0
  188.4230  177.9170  143.2610 C   0  0  1  0  0  3  0  0  0  0  0  0
  187.4050  178.6310  141.2840 C   0  0  0  0  0  1  0  0  0  0  0  0
  187.3750  177.5980  142.3040 N   0  0  0  0  0  2  0  0  0  0  0  0
  188.4540  176.8740  144.3680 C   0  0  0  0  0  2  0  0  0  0  0  0
  188.2650  177.5330  145.7230 C   0  0  0  0  0  2  0  0  0  0  0  0
  189.2320  177.1760  147.8690 O   0  0  0  0  0  0  0  0  0  0  0  0
  191.7970  176.4420  146.8760 C   0  0  0  0  0  1  0  0  0  0  0  0
  189.4000  177.1780  146.6190 C   0  0  0  0  0  0  0  0  0  0  0  0
  190.6600  176.8160  146.0510 N   0  0  0  0  0  2  0  0  0  0  0  0
  1  2  1  0  0  0  0
  2  3  1  6  0  0  0
  2  5  1  0  0  0  0
  4  7  1  0  0  0  0
  4  1  1  0  0  0  0
  6 31  1  1  0  0  0
  8 10  1  1  0  0  0
  9  7  1  6  0  0  0
  9  3  1  0  0  0  0
  9  8  1  0  0  0  0
 10  6  1  0  0  0  0
 11  5  1  0  0  0  0
 11  6  1  0  0  0  0
 13  8  1  6  0  0  0
 14 12  1  6  0  0  0
 14 13  1  0  0  0  0
 15 16  1  1  0  0  0
 15 14  1  0  0  0  0
 15 13  1  0  0  0  0
 16 17  1  0  0  0  0
 18 24  2  0  0  0  0
 22 27  1  0  0  0  0
 22 18  1  0  0  0  0
 23 25  1  0  0  0  0
 24 21  1  0  0  0  0
 25 17  1  1  0  0  0
 25 30  1  0  0  0  0
 26 21  1  1  0  0  0
 26 28  1  0  0  0  0
 27 29  1  6  0  0  0
 27 26  1  0  0  0  0
 28 20  2  1  0  0  0
 28 19  1  0  0  0  0
 29 23  1  0  0  0  0
 30 28  1  0  0  0  0
 31 32  1  0  0  0  0
 32 33  1  0  0  0  0
 33 34  1  0  0  0  0
 35 34  1  6  0  0  0
 35 38  1  0  0  0  0
 36 37  1  0  0  0  0
 37 35  1  0  0  0  0
 38 39  1  0  0  0  0
 39 42  1  0  0  0  0
 42 40  2  0  0  0  0
 43 42  1  0  0  0  0
 43 41  1  0  0  0  0
M  END
>  <MODEL>
6

>  <REMARK>
 VINA RESULT:      -6.6      3.864      9.601
  Name = 
  13 active torsions:
  status: ('A' for Active; 'I' for Inactive)
    1  A    between atoms: C_1  and  C_23
    2  A    between atoms: C_1  and  C_42
    3  A    between atoms: N_4  and  C_5
    4  A    between atoms: N_4  and  C_12
    5  A    between atoms: C_5  and  C_25
    6  A    between atoms: C_8  and  C_12
    7  A    between atoms: C_8  and  C_23
    8  A    between atoms: C_20  and  C_32
    9  A    between atoms: C_21  and  C_29
   10  A    between atoms: C_21  and  C_35
   11  A    between atoms: C_23  and  N_31
   12  A    between atoms: C_27  and  C_42
   13  A    between atoms: C_34  and  C_35
                            x       y       z     vdW  Elec       q    Type
                         _______ _______ _______ _____ _____    ______ ____

>  <TORSDO>
F 13

$$$$
=
 OpenBabel11062416073D

 43 47  0  0  1  0  0  0  0  0999 V2000
  181.5230  174.2600  136.9250 N   0  0  0  0  0  2  0  0  0  0  0  0
  182.9250  174.4080  137.3790 C   0  0  2  0  0  3  0  0  0  0  0  0
  183.1230  175.2620  138.6480 C   0  0  0  0  0  2  0  0  0  0  0  0
  180.5740  175.0800  137.6870 C   0  0  0  0  0  2  0  0  0  0  0  0
  183.8070  174.7650  136.3300 O   0  0  0  0  0  0  0  0  0  0  0  0
  184.1780  177.1180  135.8400 C   0  0  2  0  0  3  0  0  0  0  0  0
  181.0600  176.5240  137.7830 C   0  0  0  0  0  2  0  0  0  0  0  0
  183.2310  177.7980  138.0980 C   0  0  2  0  0  3  0  0  0  0  0  0
  182.3770  176.6040  138.5600 C   0  0  2  0  0  3  0  0  0  0  0  0
  184.4810  177.3990  137.3090 C   0  0  0  0  0  2  0  0  0  0  0  0
  183.2910  175.8880  135.6540 C   0  0  0  0  0  2  0  0  0  0  0  0
  181.9760  180.3330  138.3720 C   0  0  0  0  0  1  0  0  0  0  0  0
  183.6520  178.6130  139.3180 C   0  0  1  0  0  3  0  0  0  0  0  0
  182.9800  179.9870  139.4640 C   0  0  2  0  0  3  0  0  0  0  0  0
  182.4680  178.7940  140.2480 C   0  0  2  0  0  3  0  0  0  0  0  0
  182.9780  178.8500  141.6720 C   0  0  0  0  0  2  0  0  0  0  0  0
  184.2480  178.0240  141.8020 C   0  0  0  0  0  2  0  0  0  0  0  0
  189.2540  177.1270  146.1380 C   0  0  0  0  0  3  0  0  0  0  0  0
  185.0870  179.7530  146.3410 O   0  0  0  0  0  1  0  0  0  0  0  0
  183.8430  177.8970  145.0140 O   0  0  0  0  0  0  0  0  0  0  0  0
  187.0000  177.6770  146.6620 O   0  0  0  0  0  0  0  0  0  0  0  0
  188.8530  176.8290  144.7280 C   0  0  0  0  0  2  0  0  0  0  0  0
  186.8460  178.2560  141.9830 C   0  0  0  0  0  2  0  0  0  0  0  0
  188.3380  177.4940  147.0320 C   0  0  0  0  0  3  0  0  0  0  0  0
  185.4600  178.8510  142.2360 C   0  0  2  0  0  3  0  0  0  0  0  0
  186.5210  177.5030  145.3210 C   0  0  2  0  0  3  0  0  0  0  0  0
  187.6520  177.6640  144.2900 C   0  0  2  0  0  3  0  0  0  0  0  0
  185.1430  178.6690  145.0420 P   0  0  2  0  0  0  0  0  0  0  0  0
  187.2050  177.1290  142.9400 C   0  0  0  0  0  2  0  0  0  0  0  0
  185.3090  179.6640  143.5200 C   0  0  0  0  0  2  0  0  0  0  0  0
  185.4720  176.9490  135.0560 C   0  0  0  0  0  2  0  0  0  0  0  0
  186.5810  176.6700  135.9550 N   0  0  0  0  0  2  0  0  0  0  0  0
  187.5950  177.6880  135.7240 C   0  0  0  0  0  2  0  0  0  0  0  0
  188.5310  177.7830  136.9260 C   0  0  0  0  0  2  0  0  0  0  0  0
  189.2990  176.4840  137.1980 C   0  0  1  0  0  3  0  0  0  0  0  0
  190.4780  175.0800  135.7520 C   0  0  0  0  0  1  0  0  0  0  0  0
  190.4840  176.4000  136.3600 N   0  0  0  0  0  2  0  0  0  0  0  0
  189.6850  176.3470  138.6640 C   0  0  0  0  0  2  0  0  0  0  0  0
  190.0960  177.6930  139.2320 C   0  0  0  0  0  2  0  0  0  0  0  0
  192.3480  177.5010  139.9820 O   0  0  0  0  0  0  0  0  0  0  0  0
  191.6780  177.1750  142.7290 C   0  0  0  0  0  1  0  0  0  0  0  0
  191.1250  177.5020  140.2910 C   0  0  0  0  0  0  0  0  0  0  0  0
  190.7170  177.3470  141.6520 N   0  0  0  0  0  2  0  0  0  0  0  0
  1  2  1  0  0  0  0
  1  4  1  0  0  0  0
  2  3  1  1  0  0  0
  4  7  1  0  0  0  0
  5  2  1  0  0  0  0
  6 31  1  6  0  0  0
  6 10  1  0  0  0  0
  8 10  1  1  0  0  0
  8  9  1  0  0  0  0
  9  7  1  6  0  0  0
  9  3  1  0  0  0  0
 11  6  1  0  0  0  0
 11  5  1  0  0  0  0
 13  8  1  6  0  0  0
 13 14  1  0  0  0  0
 13 15  1  0  0  0  0
 14 12  1  6  0  0  0
 14 15  1  0  0  0  0
 15 16  1  1  0  0  0
 16 17  1  0  0  0  0
 18 24  2  0  0  0  0
 21 24  1  0  0  0  0
 22 18  1  0  0  0  0
 23 25  1  0  0  0  0
 23 29  1  0  0  0  0
 25 17  1  1  0  0  0
 25 30  1  0  0  0  0
 26 21  1  1  0  0  0
 27 29  1  6  0  0  0
 27 22  1  0  0  0  0
 27 26  1  0  0  0  0
 28 20  2  6  0  0  0
 28 26  1  0  0  0  0
 28 19  1  0  0  0  0
 30 28  1  0  0  0  0
 31 32  1  0  0  0  0
 33 32  1  0  0  0  0
 33 34  1  0  0  0  0
 35 34  1  1  0  0  0
 35 38  1  0  0  0  0
 36 37  1  0  0  0  0
 37 35  1  0  0  0  0
 38 39  1  0  0  0  0
 39 42  1  0  0  0  0
 40 42  2  0  0  0  0
 42 43  1  0  0  0  0
 43 41  1  0  0  0  0
M  END
>  <MODEL>
7

>  <REMARK>
 VINA RESULT:      -6.6      3.957     10.371
  Name = 
  13 active torsions:
  status: ('A' for Active; 'I' for Inactive)
    1  A    between atoms: C_1  and  C_23
    2  A    between atoms: C_1  and  C_42
    3  A    between atoms: N_4  and  C_5
    4  A    between atoms: N_4  and  C_12
    5  A    between atoms: C_5  and  C_25
    6  A    between atoms: C_8  and  C_12
    7  A    between atoms: C_8  and  C_23
    8  A    between atoms: C_20  and  C_32
    9  A    between atoms: C_21  and  C_29
   10  A    between atoms: C_21  and  C_35
   11  A    between atoms: C_23  and  N_31
   12  A    between atoms: C_27  and  C_42
   13  A    between atoms: C_34  and  C_35
                            x       y       z     vdW  Elec       q    Type
                         _______ _______ _______ _____ _____    ______ ____

>  <TORSDO>
F 13

$$$$
=
 OpenBabel11062416073D

 43 47  0  0  1  0  0  0  0  0999 V2000
  185.4220  179.0800  140.4220 N   0  0  0  0  0  2  0  0  0  0  0  0
  184.9490  177.9800  141.2930 C   0  0  2  0  0  3  0  0  0  0  0  0
  183.5450  177.4320  140.9650 C   0  0  0  0  0  2  0  0  0  0  0  0
  184.4020  179.5580  139.4820 C   0  0  0  0  0  2  0  0  0  0  0  0
  185.1260  178.2560  142.6710 O   0  0  0  0  0  0  0  0  0  0  0  0
  183.3560  179.3950  143.8890 C   0  0  2  0  0  3  0  0  0  0  0  0
  183.0880  179.8430  140.2050 C   0  0  0  0  0  2  0  0  0  0  0  0
  181.6720  178.8560  142.0640 C   0  0  2  0  0  3  0  0  0  0  0  0
  182.5100  178.5590  140.8080 C   0  0  2  0  0  3  0  0  0  0  0  0
  182.3240  178.3960  143.3710 C   0  0  0  0  0  2  0  0  0  0  0  0
  184.5660  179.5140  142.9660 C   0  0  0  0  0  2  0  0  0  0  0  0
  179.4760  180.6080  141.6350 C   0  0  0  0  0  1  0  0  0  0  0  0
  180.3090  178.1830  141.9260 C   0  0  1  0  0  3  0  0  0  0  0  0
  179.1190  179.1290  141.7010 C   0  0  2  0  0  3  0  0  0  0  0  0
  179.7630  178.4110  140.5300 C   0  0  2  0  0  3  0  0  0  0  0  0
  178.9310  177.2100  140.1350 C   0  0  0  0  0  2  0  0  0  0  0  0
  179.4980  176.5770  138.8750 C   0  0  0  0  0  2  0  0  0  0  0  0
  184.2050  172.8810  135.9000 C   0  0  0  0  0  3  0  0  0  0  0  0
  179.2800  172.7680  135.7550 O   0  0  0  0  0  0  0  0  0  0  0  0
  179.2080  175.3610  135.8860 O   0  0  0  0  0  1  0  0  0  0  0  0
  181.9980  173.2790  135.1080 O   0  0  0  0  0  0  0  0  0  0  0  0
  184.0280  173.9510  136.9300 C   0  0  0  0  0  2  0  0  0  0  0  0
  181.5830  175.1020  139.4380 C   0  0  0  0  0  2  0  0  0  0  0  0
  183.2300  172.6170  135.0330 C   0  0  0  0  0  3  0  0  0  0  0  0
  180.0900  175.1860  139.1150 C   0  0  2  0  0  3  0  0  0  0  0  0
  181.6890  174.2600  136.1070 C   0  0  2  0  0  3  0  0  0  0  0  0
  182.5690  174.0910  137.3590 C   0  0  2  0  0  3  0  0  0  0  0  0
  179.9040  174.1610  136.4840 P   0  0  2  0  0  0  0  0  0  0  0  0
  182.4780  175.3320  138.2300 C   0  0  0  0  0  2  0  0  0  0  0  0
  179.5270  174.0470  138.2670 C   0  0  0  0  0  2  0  0  0  0  0  0
  183.8080  179.0080  145.2910 C   0  0  0  0  0  2  0  0  0  0  0  0
  185.1540  179.4980  145.5470 N   0  0  0  0  0  2  0  0  0  0  0  0
  185.7700  178.5970  146.5090 C   0  0  0  0  0  2  0  0  0  0  0  0
  186.7120  177.6300  145.7990 C   0  0  0  0  0  2  0  0  0  0  0  0
  188.1910  177.8840  146.1160 C   0  0  1  0  0  3  0  0  0  0  0  0
  189.2350  177.8820  148.2050 C   0  0  0  0  0  1  0  0  0  0  0  0
  188.6430  177.0210  147.1950 N   0  0  0  0  0  2  0  0  0  0  0  0
  189.0770  177.6980  144.8930 C   0  0  0  0  0  2  0  0  0  0  0  0
  188.5060  176.6250  143.9830 C   0  0  0  0  0  2  0  0  0  0  0  0
  190.1720  175.3600  142.8460 O   0  0  0  0  0  0  0  0  0  0  0  0
  190.3300  177.1030  140.6010 C   0  0  0  0  0  1  0  0  0  0  0  0
  189.4340  176.3820  142.8450 C   0  0  0  0  0  0  0  0  0  0  0  0
  189.4590  177.2980  141.7480 N   0  0  0  0  0  2  0  0  0  0  0  0
  1  2  1  0  0  0  0
  2  3  1  1  0  0  0
  2  5  1  0  0  0  0
  4  7  1  0  0  0  0
  4  1  1  0  0  0  0
  5 11  1  0  0  0  0
  6 31  1  1  0  0  0
  8 10  1  1  0  0  0
  9  7  1  1  0  0  0
  9  3  1  0  0  0  0
  9  8  1  0  0  0  0
 10  6  1  0  0  0  0
 11  6  1  0  0  0  0
 13  8  1  6  0  0  0
 14 12  1  6  0  0  0
 14 13  1  0  0  0  0
 15 16  1  1  0  0  0
 15 14  1  0  0  0  0
 15 13  1  0  0  0  0
 17 16  1  0  0  0  0
 18 22  1  0  0  0  0
 20 28  1  0  0  0  0
 24 21  1  0  0  0  0
 24 18  2  0  0  0  0
 25 17  1  6  0  0  0
 25 23  1  0  0  0  0
 26 21  1  6  0  0  0
 26 28  1  0  0  0  0
 26 27  1  0  0  0  0
 27 22  1  6  0  0  0
 27 29  1  0  0  0  0
 28 19  2  6  0  0  0
 28 30  1  0  0  0  0
 29 23  1  0  0  0  0
 30 25  1  0  0  0  0
 31 32  1  0  0  0  0
 32 33  1  0  0  0  0
 34 35  1  0  0  0  0
 34 33  1  0  0  0  0
 35 38  1  6  0  0  0
 35 37  1  0  0  0  0
 37 36  1  0  0  0  0
 39 38  1  0  0  0  0
 41 43  1  0  0  0  0
 42 40  2  0  0  0  0
 42 39  1  0  0  0  0
 43 42  1  0  0  0  0
M  END
>  <MODEL>
8

>  <REMARK>
 VINA RESULT:      -6.5      4.629      9.377
  Name = 
  13 active torsions:
  status: ('A' for Active; 'I' for Inactive)
    1  A    between atoms: C_1  and  C_23
    2  A    between atoms: C_1  and  C_42
    3  A    between atoms: N_4  and  C_5
    4  A    between atoms: N_4  and  C_12
    5  A    between atoms: C_5  and  C_25
    6  A    between atoms: C_8  and  C_12
    7  A    between atoms: C_8  and  C_23
    8  A    between atoms: C_20  and  C_32
    9  A    between atoms: C_21  and  C_29
   10  A    between atoms: C_21  and  C_35
   11  A    between atoms: C_23  and  N_31
   12  A    between atoms: C_27  and  C_42
   13  A    between atoms: C_34  and  C_35
                            x       y       z     vdW  Elec       q    Type
                         _______ _______ _______ _____ _____    ______ ____

>  <TORSDO>
F 13

$$$$
=
 OpenBabel11062416073D

 43 47  0  0  1  0  0  0  0  0999 V2000
  191.7090  174.7380  135.9960 N   0  0  0  0  0  2  0  0  0  0  0  0
  190.8610  174.2800  137.1220 C   0  0  2  0  0  3  0  0  0  0  0  0
  189.3420  174.2930  136.8550 C   0  0  0  0  0  2  0  0  0  0  0  0
  190.9390  175.2650  134.8650 C   0  0  0  0  0  2  0  0  0  0  0  0
  191.2110  174.8850  138.3530 O   0  0  0  0  0  0  0  0  0  0  0  0
  190.1550  176.9830  138.9860 C   0  0  2  0  0  3  0  0  0  0  0  0
  189.9080  176.2870  135.3380 C   0  0  0  0  0  2  0  0  0  0  0  0
  188.3070  176.6370  137.2760 C   0  0  2  0  0  3  0  0  0  0  0  0
  188.8750  175.6310  136.2580 C   0  0  2  0  0  3  0  0  0  0  0  0
  188.7720  176.3950  138.7140 C   0  0  0  0  0  2  0  0  0  0  0  0
  191.2520  176.2830  138.1860 C   0  0  0  0  0  2  0  0  0  0  0  0
  187.0560  178.7010  135.7760 C   0  0  0  0  0  1  0  0  0  0  0  0
  186.7830  176.5870  137.2310 C   0  0  1  0  0  3  0  0  0  0  0  0
  186.1040  177.7060  136.4260 C   0  0  2  0  0  3  0  0  0  0  0  0
  186.3180  176.3380  135.8090 C   0  0  2  0  0  3  0  0  0  0  0  0
  185.0340  175.5390  135.8540 C   0  0  0  0  0  2  0  0  0  0  0  0
  184.4430  175.5840  137.2550 C   0  0  0  0  0  2  0  0  0  0  0  0
  179.9840  180.5510  136.9320 C   0  0  0  0  0  3  0  0  0  0  0  0
  181.6810  177.8220  140.6690 O   0  0  0  0  0  1  0  0  0  0  0  0
  184.0430  177.7960  139.5880 O   0  0  0  0  0  0  0  0  0  0  0  0
  181.3000  179.9420  138.8170 O   0  0  0  0  0  0  0  0  0  0  0  0
  180.8140  179.6600  136.0640 C   0  0  0  0  0  2  0  0  0  0  0  0
  182.2360  176.2580  136.0250 C   0  0  0  0  0  2  0  0  0  0  0  0
  180.2690  180.6830  138.2250 C   0  0  0  0  0  3  0  0  0  0  0  0
  182.9140  175.6640  137.2600 C   0  0  2  0  0  3  0  0  0  0  0  0
  182.1030  178.9960  138.0990 C   0  0  2  0  0  3  0  0  0  0  0  0
  181.3800  178.4750  136.8440 C   0  0  2  0  0  3  0  0  0  0  0  0
  182.5780  177.6540  139.2440 P   0  0  2  0  0  0  0  0  0  0  0  0
  182.3680  177.7700  135.9290 C   0  0  0  0  0  2  0  0  0  0  0  0
  182.2510  175.9770  138.6000 C   0  0  0  0  0  2  0  0  0  0  0  0
  190.4740  176.9170  140.4740 C   0  0  0  0  0  2  0  0  0  0  0  0
  189.6280  177.8380  141.2180 N   0  0  0  0  0  2  0  0  0  0  0  0
  188.8010  177.0420  142.1130 C   0  0  0  0  0  2  0  0  0  0  0  0
  189.6140  176.5930  143.3230 C   0  0  0  0  0  2  0  0  0  0  0  0
  188.9380  176.9210  144.6600 C   0  0  1  0  0  3  0  0  0  0  0  0
  191.1210  177.7020  144.9410 C   0  0  0  0  0  1  0  0  0  0  0  0
  189.7660  177.8170  145.4520 N   0  0  0  0  0  2  0  0  0  0  0  0
  187.5550  177.5250  144.4660 C   0  0  0  0  0  2  0  0  0  0  0  0
  186.8130  177.5870  145.7900 C   0  0  0  0  0  2  0  0  0  0  0  0
  185.0770  178.9630  146.6630 O   0  0  0  0  0  0  0  0  0  0  0  0
  183.8470  179.4540  144.1430 C   0  0  0  0  0  1  0  0  0  0  0  0
  185.5910  178.4240  145.6450 C   0  0  0  0  0  0  0  0  0  0  0  0
  185.0270  178.6310  144.3470 N   0  0  0  0  0  2  0  0  0  0  0  0
  1  2  1  0  0  0  0
  2  3  1  6  0  0  0
  2  5  1  0  0  0  0
  4  7  1  0  0  0  0
  4  1  1  0  0  0  0
  6 31  1  1  0  0  0
  8 10  1  1  0  0  0
  9  7  1  1  0  0  0
  9  3  1  0  0  0  0
  9  8  1  0  0  0  0
 10  6  1  0  0  0  0
 11  5  1  0  0  0  0
 11  6  1  0  0  0  0
 13  8  1  6  0  0  0
 14 12  1  6  0  0  0
 14 13  1  0  0  0  0
 15 16  1  1  0  0  0
 15 14  1  0  0  0  0
 15 13  1  0  0  0  0
 16 17  1  0  0  0  0
 18 24  2  0  0  0  0
 22 27  1  0  0  0  0
 22 18  1  0  0  0  0
 23 25  1  0  0  0  0
 24 21  1  0  0  0  0
 25 17  1  1  0  0  0
 25 30  1  0  0  0  0
 26 21  1  1  0  0  0
 26 28  1  0  0  0  0
 27 29  1  6  0  0  0
 27 26  1  0  0  0  0
 28 20  2  1  0  0  0
 28 19  1  0  0  0  0
 29 23  1  0  0  0  0
 30 28  1  0  0  0  0
 31 32  1  0  0  0  0
 32 33  1  0  0  0  0
 33 34  1  0  0  0  0
 35 34  1  6  0  0  0
 35 37  1  0  0  0  0
 36 37  1  0  0  0  0
 38 35  1  0  0  0  0
 38 39  1  0  0  0  0
 41 43  1  0  0  0  0
 42 39  1  0  0  0  0
 42 40  2  0  0  0  0
 43 42  1  0  0  0  0
M  END
>  <MODEL>
9

>  <REMARK>
 VINA RESULT:      -6.5      3.832      9.230
  Name = 
  13 active torsions:
  status: ('A' for Active; 'I' for Inactive)
    1  A    between atoms: C_1  and  C_23
    2  A    between atoms: C_1  and  C_42
    3  A    between atoms: N_4  and  C_5
    4  A    between atoms: N_4  and  C_12
    5  A    between atoms: C_5  and  C_25
    6  A    between atoms: C_8  and  C_12
    7  A    between atoms: C_8  and  C_23
    8  A    between atoms: C_20  and  C_32
    9  A    between atoms: C_21  and  C_29
   10  A    between atoms: C_21  and  C_35
   11  A    between atoms: C_23  and  N_31
   12  A    between atoms: C_27  and  C_42
   13  A    between atoms: C_34  and  C_35
                            x       y       z     vdW  Elec       q    Type
                         _______ _______ _______ _____ _____    ______ ____

>  <TORSDO>
F 13

$$$$
