=
 OpenBabel11062417153D

 26 29  0  0  1  0  0  0  0  0999 V2000
  185.9600  178.1130  145.1660 C   0  0  0  0  0  0  0  0  0  0  0  0
  188.2750  177.1370  143.8160 C   0  0  2  0  0  3  0  0  0  0  0  0
  183.7230  179.0620  143.8880 N   0  0  0  0  0  0  0  0  0  0  0  0
  185.0010  178.8060  145.8980 C   0  0  0  0  0  3  0  0  0  0  0  0
  184.6470  178.3790  143.1570 C   0  0  0  0  0  0  0  0  0  0  0  0
  185.8070  177.8960  143.7800 C   0  0  0  0  0  0  0  0  0  0  0  0
  188.8980  177.8030  142.5990 C   0  0  2  0  0  3  0  0  0  0  0  0
  183.8750  179.2860  145.2240 C   0  0  0  0  0  3  0  0  0  0  0  0
  186.9060  177.1010  143.0520 C   0  0  1  0  0  3  0  0  0  0  0  0
  187.5430  177.8480  141.8920 C   0  0  0  0  0  2  0  0  0  0  0  0
  188.4300  177.9610  146.3130 C   0  0  2  0  0  3  0  0  0  0  0  0
  187.1780  177.4880  145.7420 C   0  0  2  0  0  3  0  0  0  0  0  0
  184.4210  178.1590  141.7670 N   0  0  0  0  0  1  0  0  0  0  0  0
  188.1950  178.1480  144.8780 N   0  0  2  0  0  0  0  0  0  0  0  0
  191.0140  177.6430  141.5120 O   0  0  0  0  0  0  0  0  0  0  0  0
  190.1190  176.9900  140.1580 P   0  0  0  0  0  0  0  0  0  0  0  0
  191.0260  176.0130  139.4470 O   0  0  0  0  0  0  0  0  0  0  0  0
  189.6320  178.3150  139.2250 O   0  0  0  0  0  0  0  0  0  0  0  0
  189.9840  176.9080  141.9660 C   0  0  0  0  0  2  0  0  0  0  0  0
  189.3800  176.7930  146.5680 C   0  0  2  0  0  3  0  0  0  0  0  0
  189.0040  176.1530  147.7520 O   0  0  0  0  0  1  0  0  0  0  0  0
  190.8320  177.2730  146.6730 C   0  0  2  0  0  3  0  0  0  0  0  0
  191.5960  176.9910  145.3860 C   0  0  0  0  0  2  0  0  0  0  0  0
  191.7650  178.1710  144.6620 O   0  0  0  0  0  1  0  0  0  0  0  0
  191.4730  176.6130  147.7260 O   0  0  0  0  0  0  0  0  0  0  0  0
  192.2990  175.6710  147.1090 C   0  0  0  0  0  1  0  0  0  0  0  0
  1 12  1  0  0  0  0
  1  4  1  0  0  0  0
  2 14  1  0  0  0  0
  3  8  1  0  0  0  0
  5  6  1  0  0  0  0
  5  3  2  0  0  0  0
  6  1  2  0  0  0  0
  7  2  1  0  0  0  0
  8  4  2  0  0  0  0
  9  6  1  0  0  0  0
  9  2  1  0  0  0  0
 10  7  1  0  0  0  0
 10  9  1  0  0  0  0
 11 20  1  0  0  0  0
 12 11  1  0  0  0  0
 13  5  1  0  0  0  0
 14 12  1  0  0  0  0
 14 11  1  0  0  0  0
 15 19  1  0  0  0  0
 16 15  1  0  0  0  0
 17 16  2  0  0  0  0
 18 16  2  0  0  0  0
 19  7  1  0  0  0  0
 20 22  1  0  0  0  0
 20 21  1  0  0  0  0
 22 25  1  0  0  0  0
 23 22  1  0  0  0  0
 24 23  1  0  0  0  0
 26 25  1  0  0  0  0
M  END
>  <MODEL>
1

>  <REMARK>
 VINA RESULT:      -8.3      0.000      0.000
  Name = 
  5 active torsions:
  status: ('A' for Active; 'I' for Inactive)
    1  A    between atoms: C_3  and  C_18
    2  A    between atoms: C_3  and  C_19
    3  A    between atoms: C_10  and  C_18
    4  A    between atoms: C_12  and  C_23
    5  A    between atoms: O_15  and  C_18
                            x       y       z     vdW  Elec       q    Type
                         _______ _______ _______ _____ _____    ______ ____

>  <TORSDO>
F 5

$$$$
=
 OpenBabel11062417153D

 26 29  0  0  1  0  0  0  0  0999 V2000
  188.0410  177.7520  145.3920 C   0  0  0  0  0  0  0  0  0  0  0  0
  188.0560  178.2220  142.5780 C   0  0  2  0  0  3  0  0  0  0  0  0
  190.2140  176.8620  146.8140 N   0  0  0  0  0  0  0  0  0  0  0  0
  187.8620  177.3030  146.6960 C   0  0  0  0  0  3  0  0  0  0  0  0
  190.4090  177.3050  145.5390 C   0  0  0  0  0  0  0  0  0  0  0  0
  189.3140  177.7510  144.7850 C   0  0  0  0  0  0  0  0  0  0  0  0
  188.7080  177.2970  141.5620 C   0  0  2  0  0  3  0  0  0  0  0  0
  188.9820  176.8480  147.3970 C   0  0  0  0  0  3  0  0  0  0  0  0
  189.4240  178.2840  143.3440 C   0  0  1  0  0  3  0  0  0  0  0  0
  190.0120  177.2880  142.3610 C   0  0  0  0  0  2  0  0  0  0  0  0
  185.7880  177.8130  143.8530 C   0  0  2  0  0  3  0  0  0  0  0  0
  186.9670  178.3220  144.5370 C   0  0  2  0  0  3  0  0  0  0  0  0
  191.7240  177.3150  144.9920 N   0  0  0  0  0  1  0  0  0  0  0  0
  187.1130  177.4180  143.3640 N   0  0  2  0  0  0  0  0  0  0  0  0
  188.2080  177.1380  139.2360 O   0  0  0  0  0  0  0  0  0  0  0  0
  189.9370  177.2220  138.9950 P   0  0  0  0  0  0  0  0  0  0  0  0
  190.1760  177.9110  137.6720 O   0  0  0  0  0  0  0  0  0  0  0  0
  190.5080  175.6310  139.0790 O   0  0  0  0  0  0  0  0  0  0  0  0
  188.7530  177.9450  140.1630 C   0  0  0  0  0  2  0  0  0  0  0  0
  185.1740  178.8920  142.9650 C   0  0  2  0  0  3  0  0  0  0  0  0
  184.6510  179.9020  143.7760 O   0  0  0  0  0  1  0  0  0  0  0  0
  184.0670  178.3140  142.0760 C   0  0  2  0  0  3  0  0  0  0  0  0
  184.2140  178.7940  140.6380 C   0  0  0  0  0  2  0  0  0  0  0  0
  185.4180  179.4790  140.4820 O   0  0  0  0  0  1  0  0  0  0  0  0
  182.8170  178.7150  142.5550 O   0  0  0  0  0  0  0  0  0  0  0  0
  181.9810  178.6920  141.4360 C   0  0  0  0  0  1  0  0  0  0  0  0
  1  4  1  0  0  0  0
  2  9  1  0  0  0  0
  2 14  1  0  0  0  0
  3  8  1  0  0  0  0
  4  8  2  0  0  0  0
  5  3  2  0  0  0  0
  6  1  2  0  0  0  0
  6  5  1  0  0  0  0
  7 10  1  0  0  0  0
  7  2  1  0  0  0  0
  9  6  1  0  0  0  0
 10  9  1  0  0  0  0
 11 12  1  0  0  0  0
 12  1  1  0  0  0  0
 13  5  1  0  0  0  0
 14 11  1  0  0  0  0
 14 12  1  0  0  0  0
 15 19  1  0  0  0  0
 16 18  2  0  0  0  0
 16 15  1  0  0  0  0
 17 16  2  0  0  0  0
 19  7  1  0  0  0  0
 20 21  1  0  0  0  0
 20 11  1  0  0  0  0
 22 25  1  0  0  0  0
 22 20  1  0  0  0  0
 23 22  1  0  0  0  0
 24 23  1  0  0  0  0
 26 25  1  0  0  0  0
M  END
>  <MODEL>
2

>  <REMARK>
 VINA RESULT:      -8.1      3.044      5.701
  Name = 
  5 active torsions:
  status: ('A' for Active; 'I' for Inactive)
    1  A    between atoms: C_3  and  C_18
    2  A    between atoms: C_3  and  C_19
    3  A    between atoms: C_10  and  C_18
    4  A    between atoms: C_12  and  C_23
    5  A    between atoms: O_15  and  C_18
                            x       y       z     vdW  Elec       q    Type
                         _______ _______ _______ _____ _____    ______ ____

>  <TORSDO>
F 5

$$$$
=
 OpenBabel11062417153D

 26 29  0  0  1  0  0  0  0  0999 V2000
  187.2890  177.7380  145.2660 C   0  0  0  0  0  0  0  0  0  0  0  0
  186.5900  177.9070  142.5050 C   0  0  2  0  0  3  0  0  0  0  0  0
  185.7200  178.6880  147.3090 N   0  0  0  0  0  0  0  0  0  0  0  0
  187.8290  177.8480  146.5430 C   0  0  0  0  0  3  0  0  0  0  0  0
  185.1720  178.5790  146.0660 C   0  0  0  0  0  0  0  0  0  0  0  0
  185.9540  178.1120  145.0010 C   0  0  0  0  0  0  0  0  0  0  0  0
  185.9800  179.1380  141.8540 C   0  0  2  0  0  3  0  0  0  0  0  0
  187.0130  178.3410  147.5650 C   0  0  0  0  0  3  0  0  0  0  0  0
  185.4320  177.9370  143.5620 C   0  0  1  0  0  3  0  0  0  0  0  0
  184.9050  179.2170  142.9380 C   0  0  0  0  0  2  0  0  0  0  0  0
  189.1020  177.5920  143.2320 C   0  0  2  0  0  3  0  0  0  0  0  0
  188.0020  177.1770  144.0890 C   0  0  2  0  0  3  0  0  0  0  0  0
  183.8070  178.9370  145.8660 N   0  0  0  0  0  1  0  0  0  0  0  0
  187.8360  178.3270  143.1600 N   0  0  2  0  0  0  0  0  0  0  0  0
  184.6900  179.8010  139.9620 O   0  0  0  0  0  0  0  0  0  0  0  0
  183.7600  178.3500  140.2540 P   0  0  0  0  0  0  0  0  0  0  0  0
  183.2600  177.8560  138.9160 O   0  0  0  0  0  0  0  0  0  0  0  0
  182.5450  178.7740  141.3520 O   0  0  0  0  0  0  0  0  0  0  0  0
  185.5010  178.8320  140.4190 C   0  0  0  0  0  2  0  0  0  0  0  0
  189.2530  176.6380  142.0510 C   0  0  2  0  0  3  0  0  0  0  0  0
  190.0440  175.5550  142.4410 O   0  0  0  0  0  1  0  0  0  0  0  0
  189.8910  177.3420  140.8480 C   0  0  2  0  0  3  0  0  0  0  0  0
  188.8980  177.4770  139.7020 C   0  0  0  0  0  2  0  0  0  0  0  0
  188.7550  178.8190  139.3480 O   0  0  0  0  0  1  0  0  0  0  0  0
  190.9930  176.6080  140.3990 O   0  0  0  0  0  0  0  0  0  0  0  0
  192.0650  177.5010  140.4530 C   0  0  0  0  0  1  0  0  0  0  0  0
  1  4  1  0  0  0  0
  2 14  1  0  0  0  0
  2  9  1  0  0  0  0
  3  8  1  0  0  0  0
  4  8  2  0  0  0  0
  5  3  2  0  0  0  0
  6  1  2  0  0  0  0
  6  5  1  0  0  0  0
  7  2  1  0  0  0  0
  7 10  1  0  0  0  0
  9  6  1  0  0  0  0
 10  9  1  0  0  0  0
 11 12  1  0  0  0  0
 12  1  1  0  0  0  0
 13  5  1  0  0  0  0
 14 11  1  0  0  0  0
 14 12  1  0  0  0  0
 15 16  1  0  0  0  0
 15 19  1  0  0  0  0
 16 18  2  0  0  0  0
 17 16  2  0  0  0  0
 19  7  1  0  0  0  0
 20 21  1  0  0  0  0
 20 11  1  0  0  0  0
 22 20  1  0  0  0  0
 23 22  1  0  0  0  0
 24 23  1  0  0  0  0
 25 26  1  0  0  0  0
 25 22  1  0  0  0  0
M  END
>  <MODEL>
3

>  <REMARK>
 VINA RESULT:      -8.1      2.958      4.866
  Name = 
  5 active torsions:
  status: ('A' for Active; 'I' for Inactive)
    1  A    between atoms: C_3  and  C_18
    2  A    between atoms: C_3  and  C_19
    3  A    between atoms: C_10  and  C_18
    4  A    between atoms: C_12  and  C_23
    5  A    between atoms: O_15  and  C_18
                            x       y       z     vdW  Elec       q    Type
                         _______ _______ _______ _____ _____    ______ ____

>  <TORSDO>
F 5

$$$$
=
 OpenBabel11062417153D

 26 29  0  0  1  0  0  0  0  0999 V2000
  188.3320  177.4790  145.8990 C   0  0  0  0  0  0  0  0  0  0  0  0
  187.1330  177.5320  143.3110 C   0  0  2  0  0  3  0  0  0  0  0  0
  187.1440  178.4770  148.1640 N   0  0  0  0  0  0  0  0  0  0  0  0
  189.0960  177.6480  147.0500 C   0  0  0  0  0  3  0  0  0  0  0  0
  186.3780  178.3120  147.0480 C   0  0  0  0  0  0  0  0  0  0  0  0
  186.9630  177.8190  145.8730 C   0  0  0  0  0  0  0  0  0  0  0  0
  186.3820  178.7260  142.7430 C   0  0  2  0  0  3  0  0  0  0  0  0
  188.4700  178.1640  148.1880 C   0  0  0  0  0  3  0  0  0  0  0  0
  186.1890  177.5800  144.5630 C   0  0  1  0  0  3  0  0  0  0  0  0
  185.5240  178.8260  144.0040 C   0  0  0  0  0  2  0  0  0  0  0  0
  189.7430  177.2910  143.5710 C   0  0  2  0  0  3  0  0  0  0  0  0
  188.8300  176.8880  144.6310 C   0  0  2  0  0  3  0  0  0  0  0  0
  184.9920  178.6370  147.0930 N   0  0  0  0  0  1  0  0  0  0  0  0
  188.4660  177.9990  143.7090 N   0  0  2  0  0  0  0  0  0  0  0  0
  185.0130  179.4210  140.9190 O   0  0  0  0  0  0  0  0  0  0  0  0
  183.8450  178.2730  141.5310 P   0  0  0  0  0  0  0  0  0  0  0  0
  183.0710  177.7400  140.3480 O   0  0  0  0  0  0  0  0  0  0  0  0
  182.9130  179.1040  142.6730 O   0  0  0  0  0  0  0  0  0  0  0  0
  185.6550  178.3580  141.4330 C   0  0  0  0  0  2  0  0  0  0  0  0
  189.6970  176.2960  142.4150 C   0  0  2  0  0  3  0  0  0  0  0  0
  190.3680  175.1300  142.7930 O   0  0  0  0  0  1  0  0  0  0  0  0
  190.3430  176.8810  141.1540 C   0  0  2  0  0  3  0  0  0  0  0  0
  191.6990  177.4970  141.4690 C   0  0  0  0  0  2  0  0  0  0  0  0
  192.5000  177.5000  140.3270 O   0  0  0  0  0  1  0  0  0  0  0  0
  189.5170  177.8730  140.6160 O   0  0  0  0  0  0  0  0  0  0  0  0
  188.9630  177.2960  139.4710 C   0  0  0  0  0  1  0  0  0  0  0  0
  1  4  1  0  0  0  0
  2 14  1  0  0  0  0
  2  9  1  0  0  0  0
  3  8  1  0  0  0  0
  4  8  2  0  0  0  0
  5 13  1  0  0  0  0
  5  3  2  0  0  0  0
  6  1  2  0  0  0  0
  6  5  1  0  0  0  0
  7  2  1  0  0  0  0
  7 10  1  0  0  0  0
  9  6  1  0  0  0  0
 10  9  1  0  0  0  0
 11 14  1  0  0  0  0
 11 12  1  0  0  0  0
 12  1  1  0  0  0  0
 14 12  1  0  0  0  0
 15 19  1  0  0  0  0
 15 16  1  0  0  0  0
 16 18  2  0  0  0  0
 17 16  2  0  0  0  0
 19  7  1  0  0  0  0
 20 21  1  0  0  0  0
 20 11  1  0  0  0  0
 22 23  1  0  0  0  0
 22 20  1  0  0  0  0
 24 23  1  0  0  0  0
 25 22  1  0  0  0  0
 26 25  1  0  0  0  0
M  END
>  <MODEL>
4

>  <REMARK>
 VINA RESULT:      -8.1      3.051      4.980
  Name = 
  5 active torsions:
  status: ('A' for Active; 'I' for Inactive)
    1  A    between atoms: C_3  and  C_18
    2  A    between atoms: C_3  and  C_19
    3  A    between atoms: C_10  and  C_18
    4  A    between atoms: C_12  and  C_23
    5  A    between atoms: O_15  and  C_18
                            x       y       z     vdW  Elec       q    Type
                         _______ _______ _______ _____ _____    ______ ____

>  <TORSDO>
F 5

$$$$
=
 OpenBabel11062417153D

 26 29  0  0  1  0  0  0  0  0999 V2000
  186.9340  178.0030  144.0620 C   0  0  0  0  0  0  0  0  0  0  0  0
  189.3310  177.5460  145.5380 C   0  0  2  0  0  3  0  0  0  0  0  0
  184.5160  178.6170  145.2080 N   0  0  0  0  0  0  0  0  0  0  0  0
  185.7800  177.9460  143.2870 C   0  0  0  0  0  3  0  0  0  0  0  0
  185.6370  178.6860  145.9800 C   0  0  0  0  0  0  0  0  0  0  0  0
  186.8830  178.3630  145.4250 C   0  0  0  0  0  0  0  0  0  0  0  0
  189.4020  176.7280  146.8180 C   0  0  2  0  0  3  0  0  0  0  0  0
  184.5600  178.2560  143.8950 C   0  0  0  0  0  3  0  0  0  0  0  0
  188.2120  178.4210  146.2020 C   0  0  1  0  0  3  0  0  0  0  0  0
  188.2480  177.5250  147.4280 C   0  0  0  0  0  2  0  0  0  0  0  0
  189.0720  176.6150  143.0880 C   0  0  2  0  0  3  0  0  0  0  0  0
  188.3090  177.7640  143.5530 C   0  0  2  0  0  3  0  0  0  0  0  0
  185.5290  179.0920  147.3420 N   0  0  0  0  0  1  0  0  0  0  0  0
  188.7170  176.6990  144.5080 N   0  0  2  0  0  0  0  0  0  0  0  0
  191.6950  177.3570  146.6410 O   0  0  0  0  0  0  0  0  0  0  0  0
  192.0440  175.6760  146.9720 P   0  0  0  0  0  0  0  0  0  0  0  0
  193.3570  175.6250  147.7180 O   0  0  0  0  0  0  0  0  0  0  0  0
  192.0470  174.8860  145.4760 O   0  0  0  0  0  0  0  0  0  0  0  0
  190.7800  176.8680  147.4960 C   0  0  0  0  0  2  0  0  0  0  0  0
  190.5330  176.9960  142.8620 C   0  0  2  0  0  3  0  0  0  0  0  0
  190.6770  178.3720  143.0500 O   0  0  0  0  0  1  0  0  0  0  0  0
  190.9930  176.6120  141.4510 C   0  0  2  0  0  3  0  0  0  0  0  0
  191.9180  177.6730  140.8700 C   0  0  0  0  0  2  0  0  0  0  0  0
  193.1860  177.1350  140.6500 O   0  0  0  0  0  1  0  0  0  0  0  0
  189.8840  176.4780  140.6110 O   0  0  0  0  0  0  0  0  0  0  0  0
  190.0290  177.4910  139.6610 C   0  0  0  0  0  1  0  0  0  0  0  0
  1  6  1  0  0  0  0
  2  9  1  0  0  0  0
  2  7  1  0  0  0  0
  3  5  1  0  0  0  0
  4  8  1  0  0  0  0
  4  1  2  0  0  0  0
  5 13  1  0  0  0  0
  6  5  2  0  0  0  0
  6  9  1  0  0  0  0
  7 10  1  0  0  0  0
  7 19  1  0  0  0  0
  8  3  2  0  0  0  0
  9 10  1  0  0  0  0
 11 12  1  0  0  0  0
 11 14  1  0  0  0  0
 12  1  1  0  0  0  0
 12 14  1  0  0  0  0
 14  2  1  0  0  0  0
 15 16  1  0  0  0  0
 15 19  1  0  0  0  0
 16 17  2  0  0  0  0
 18 16  2  0  0  0  0
 20 21  1  0  0  0  0
 20 11  1  0  0  0  0
 22 20  1  0  0  0  0
 23 22  1  0  0  0  0
 24 23  1  0  0  0  0
 25 22  1  0  0  0  0
 26 25  1  0  0  0  0
M  END
>  <MODEL>
5

>  <REMARK>
 VINA RESULT:      -7.9      2.154      4.893
  Name = 
  5 active torsions:
  status: ('A' for Active; 'I' for Inactive)
    1  A    between atoms: C_3  and  C_18
    2  A    between atoms: C_3  and  C_19
    3  A    between atoms: C_10  and  C_18
    4  A    between atoms: C_12  and  C_23
    5  A    between atoms: O_15  and  C_18
                            x       y       z     vdW  Elec       q    Type
                         _______ _______ _______ _____ _____    ______ ____

>  <TORSDO>
F 5

$$$$
=
 OpenBabel11062417153D

 26 29  0  0  1  0  0  0  0  0999 V2000
  190.1320  176.8890  144.3190 C   0  0  0  0  0  0  0  0  0  0  0  0
  187.7530  177.3400  142.8100 C   0  0  2  0  0  3  0  0  0  0  0  0
  190.2560  176.9940  147.0590 N   0  0  0  0  0  0  0  0  0  0  0  0
  191.3750  176.9180  144.9420 C   0  0  0  0  0  3  0  0  0  0  0  0
  189.0300  176.9580  146.4660 C   0  0  0  0  0  0  0  0  0  0  0  0
  188.9360  176.9200  145.0680 C   0  0  0  0  0  0  0  0  0  0  0  0
  186.7540  178.4480  143.1030 C   0  0  2  0  0  3  0  0  0  0  0  0
  191.4130  176.9790  146.3380 C   0  0  0  0  0  3  0  0  0  0  0  0
  187.6040  176.8620  144.2970 C   0  0  1  0  0  3  0  0  0  0  0  0
  186.6800  178.0360  144.5740 C   0  0  0  0  0  2  0  0  0  0  0  0
  190.1200  177.6100  141.6870 C   0  0  2  0  0  3  0  0  0  0  0  0
  189.9210  176.7630  142.8540 C   0  0  2  0  0  3  0  0  0  0  0  0
  187.8580  176.9530  147.2760 N   0  0  0  0  0  1  0  0  0  0  0  0
  189.0700  177.9670  142.6470 N   0  0  2  0  0  0  0  0  0  0  0  0
  185.0260  179.4630  141.8120 O   0  0  0  0  0  0  0  0  0  0  0  0
  183.9380  178.8670  143.0440 P   0  0  0  0  0  0  0  0  0  0  0  0
  182.6160  178.5710  142.3750 O   0  0  0  0  0  0  0  0  0  0  0  0
  183.8750  180.0600  144.2420 O   0  0  0  0  0  0  0  0  0  0  0  0
  185.4690  178.2790  142.2670 C   0  0  0  0  0  2  0  0  0  0  0  0
  189.5280  176.9580  140.4410 C   0  0  2  0  0  3  0  0  0  0  0  0
  190.4820  176.1070  139.8780 O   0  0  0  0  0  1  0  0  0  0  0  0
  189.0990  178.0120  139.4140 C   0  0  2  0  0  3  0  0  0  0  0  0
  187.7660  177.6460  138.7770 C   0  0  0  0  0  2  0  0  0  0  0  0
  186.7960  178.5870  139.1190 O   0  0  0  0  0  1  0  0  0  0  0  0
  190.0630  178.1110  138.4070 O   0  0  0  0  0  0  0  0  0  0  0  0
  189.3390  178.0900  137.2140 C   0  0  0  0  0  1  0  0  0  0  0  0
  1  4  2  0  0  0  0
  1  6  1  0  0  0  0
  2  7  1  0  0  0  0
  2  9  1  0  0  0  0
  4  8  1  0  0  0  0
  5  3  1  0  0  0  0
  5 13  1  0  0  0  0
  6  5  2  0  0  0  0
  7 10  1  0  0  0  0
  8  3  2  0  0  0  0
  9 10  1  0  0  0  0
  9  6  1  0  0  0  0
 11 14  1  0  0  0  0
 11 12  1  0  0  0  0
 12  1  1  0  0  0  0
 14  2  1  0  0  0  0
 14 12  1  0  0  0  0
 15 19  1  0  0  0  0
 15 16  1  0  0  0  0
 16 18  2  0  0  0  0
 17 16  2  0  0  0  0
 19  7  1  0  0  0  0
 20 11  1  0  0  0  0
 21 20  1  0  0  0  0
 22 20  1  0  0  0  0
 23 24  1  0  0  0  0
 23 22  1  0  0  0  0
 25 22  1  0  0  0  0
 26 25  1  0  0  0  0
M  END
>  <MODEL>
6

>  <REMARK>
 VINA RESULT:      -7.9      3.356      6.419
  Name = 
  5 active torsions:
  status: ('A' for Active; 'I' for Inactive)
    1  A    between atoms: C_3  and  C_18
    2  A    between atoms: C_3  and  C_19
    3  A    between atoms: C_10  and  C_18
    4  A    between atoms: C_12  and  C_23
    5  A    between atoms: O_15  and  C_18
                            x       y       z     vdW  Elec       q    Type
                         _______ _______ _______ _____ _____    ______ ____

>  <TORSDO>
F 5

$$$$
=
 OpenBabel11062417153D

 26 29  0  0  1  0  0  0  0  0999 V2000
  189.5070  177.4180  141.0020 C   0  0  0  0  0  0  0  0  0  0  0  0
  187.5050  178.3640  142.8010 C   0  0  2  0  0  3  0  0  0  0  0  0
  189.1460  177.1750  138.2920 N   0  0  0  0  0  0  0  0  0  0  0  0
  190.4380  176.7060  140.2540 C   0  0  0  0  0  3  0  0  0  0  0  0
  188.2280  177.8840  139.0080 C   0  0  0  0  0  0  0  0  0  0  0  0
  188.3790  178.0110  140.3960 C   0  0  0  0  0  0  0  0  0  0  0  0
  186.0420  177.9570  142.7400 C   0  0  2  0  0  3  0  0  0  0  0  0
  190.2290  176.5900  138.8770 C   0  0  0  0  0  3  0  0  0  0  0  0
  187.4100  178.7990  141.2980 C   0  0  1  0  0  3  0  0  0  0  0  0
  185.9770  178.2970  141.2500 C   0  0  0  0  0  2  0  0  0  0  0  0
  189.5100  176.9000  143.6810 C   0  0  2  0  0  3  0  0  0  0  0  0
  189.6160  177.6840  142.4600 C   0  0  2  0  0  3  0  0  0  0  0  0
  187.1290  178.4910  138.3350 N   0  0  0  0  0  1  0  0  0  0  0  0
  188.3010  177.1330  142.8860 N   0  0  2  0  0  0  0  0  0  0  0  0
  185.9490  179.5160  144.5410 O   0  0  0  0  0  0  0  0  0  0  0  0
  185.1040  178.2570  145.4120 P   0  0  0  0  0  0  0  0  0  0  0  0
  184.1390  178.9320  146.3590 O   0  0  0  0  0  0  0  0  0  0  0  0
  186.2920  177.3150  146.1620 O   0  0  0  0  0  0  0  0  0  0  0  0
  185.1810  178.8170  143.6880 C   0  0  0  0  0  2  0  0  0  0  0  0
  189.5450  177.8080  144.9080 C   0  0  2  0  0  3  0  0  0  0  0  0
  190.3330  178.9260  144.6220 O   0  0  0  0  0  1  0  0  0  0  0  0
  190.1100  177.0710  146.1270 C   0  0  2  0  0  3  0  0  0  0  0  0
  189.5070  177.6070  147.4190 C   0  0  0  0  0  2  0  0  0  0  0  0
  188.6800  176.6440  147.9960 O   0  0  0  0  0  1  0  0  0  0  0  0
  191.4970  177.2370  146.1800 O   0  0  0  0  0  0  0  0  0  0  0  0
  191.9910  175.9990  146.5960 C   0  0  0  0  0  1  0  0  0  0  0  0
  1 12  1  0  0  0  0
  2 14  1  0  0  0  0
  3  8  2  0  0  0  0
  3  5  1  0  0  0  0
  4  1  2  0  0  0  0
  5  6  2  0  0  0  0
  6  1  1  0  0  0  0
  6  9  1  0  0  0  0
  7  2  1  0  0  0  0
  7 19  1  0  0  0  0
  8  4  1  0  0  0  0
  9  2  1  0  0  0  0
 10  9  1  0  0  0  0
 10  7  1  0  0  0  0
 11 20  1  0  0  0  0
 12 14  1  0  0  0  0
 12 11  1  0  0  0  0
 13  5  1  0  0  0  0
 14 11  1  0  0  0  0
 15 16  1  0  0  0  0
 16 18  2  0  0  0  0
 16 17  2  0  0  0  0
 19 15  1  0  0  0  0
 20 22  1  0  0  0  0
 21 20  1  0  0  0  0
 22 25  1  0  0  0  0
 22 23  1  0  0  0  0
 23 24  1  0  0  0  0
 25 26  1  0  0  0  0
M  END
>  <MODEL>
7

>  <REMARK>
 VINA RESULT:      -7.4      3.017      5.237
  Name = 
  5 active torsions:
  status: ('A' for Active; 'I' for Inactive)
    1  A    between atoms: C_3  and  C_18
    2  A    between atoms: C_3  and  C_19
    3  A    between atoms: C_10  and  C_18
    4  A    between atoms: C_12  and  C_23
    5  A    between atoms: O_15  and  C_18
                            x       y       z     vdW  Elec       q    Type
                         _______ _______ _______ _____ _____    ______ ____

>  <TORSDO>
F 5

$$$$
=
 OpenBabel11062417153D

 26 29  0  0  1  0  0  0  0  0999 V2000
  188.3550  177.6770  144.6250 C   0  0  0  0  0  0  0  0  0  0  0  0
  189.8600  177.9240  142.2140 C   0  0  2  0  0  3  0  0  0  0  0  0
  189.4150  176.8600  147.0220 N   0  0  0  0  0  0  0  0  0  0  0  0
  187.4980  177.3360  145.6660 C   0  0  0  0  0  3  0  0  0  0  0  0
  190.2700  177.1970  146.0150 C   0  0  0  0  0  0  0  0  0  0  0  0
  189.7560  177.6030  144.7750 C   0  0  0  0  0  0  0  0  0  0  0  0
  190.8910  176.9090  141.7440 C   0  0  2  0  0  3  0  0  0  0  0  0
  188.0610  176.9160  146.8740 C   0  0  0  0  0  3  0  0  0  0  0  0
  190.6300  178.0200  143.5770 C   0  0  1  0  0  3  0  0  0  0  0  0
  191.5860  176.9370  143.1060 C   0  0  0  0  0  2  0  0  0  0  0  0
  187.2410  177.6600  142.1340 C   0  0  2  0  0  3  0  0  0  0  0  0
  187.9180  178.1990  143.3040 C   0  0  2  0  0  3  0  0  0  0  0  0
  191.6750  177.1390  146.2380 N   0  0  0  0  0  1  0  0  0  0  0  0
  188.6010  177.2020  142.4340 N   0  0  2  0  0  0  0  0  0  0  0  0
  190.8790  177.8500  139.5530 O   0  0  0  0  0  0  0  0  0  0  0  0
  191.7050  176.3890  139.0650 P   0  0  0  0  0  0  0  0  0  0  0  0
  192.6160  176.7470  137.9140 O   0  0  0  0  0  0  0  0  0  0  0  0
  190.4990  175.2620  138.6910 O   0  0  0  0  0  0  0  0  0  0  0  0
  191.6950  177.4440  140.5410 C   0  0  0  0  0  2  0  0  0  0  0  0
  187.2420  178.6780  140.9960 C   0  0  2  0  0  3  0  0  0  0  0  0
  186.4370  179.7610  141.3560 O   0  0  0  0  0  1  0  0  0  0  0  0
  186.7250  178.0550  139.6950 C   0  0  2  0  0  3  0  0  0  0  0  0
  187.8640  177.8140  138.7120 C   0  0  0  0  0  2  0  0  0  0  0  0
  188.1760  178.9970  138.0430 O   0  0  0  0  0  1  0  0  0  0  0  0
  185.7940  178.9090  139.0980 O   0  0  0  0  0  0  0  0  0  0  0  0
  184.8400  178.0600  138.5320 C   0  0  0  0  0  1  0  0  0  0  0  0
  1  6  2  0  0  0  0
  1  4  1  0  0  0  0
  2 14  1  0  0  0  0
  2  9  1  0  0  0  0
  4  8  2  0  0  0  0
  5 13  1  0  0  0  0
  5  3  2  0  0  0  0
  6  5  1  0  0  0  0
  7  2  1  0  0  0  0
  7 10  1  0  0  0  0
  8  3  1  0  0  0  0
  9  6  1  0  0  0  0
 10  9  1  0  0  0  0
 11 14  1  0  0  0  0
 11 12  1  0  0  0  0
 12  1  1  0  0  0  0
 14 12  1  0  0  0  0
 15 19  1  0  0  0  0
 16 15  1  0  0  0  0
 17 16  2  0  0  0  0
 18 16  2  0  0  0  0
 19  7  1  0  0  0  0
 20 21  1  0  0  0  0
 20 11  1  0  0  0  0
 22 20  1  0  0  0  0
 23 22  1  0  0  0  0
 24 23  1  0  0  0  0
 25 22  1  0  0  0  0
 26 25  1  0  0  0  0
M  END
>  <MODEL>
8

>  <REMARK>
 VINA RESULT:      -7.3      3.296      5.735
  Name = 
  5 active torsions:
  status: ('A' for Active; 'I' for Inactive)
    1  A    between atoms: C_3  and  C_18
    2  A    between atoms: C_3  and  C_19
    3  A    between atoms: C_10  and  C_18
    4  A    between atoms: C_12  and  C_23
    5  A    between atoms: O_15  and  C_18
                            x       y       z     vdW  Elec       q    Type
                         _______ _______ _______ _____ _____    ______ ____

>  <TORSDO>
F 5

$$$$
=
 OpenBabel11062417153D

 26 29  0  0  1  0  0  0  0  0999 V2000
  185.2160  178.4780  142.5290 C   0  0  0  0  0  0  0  0  0  0  0  0
  187.6210  178.1790  144.0350 C   0  0  2  0  0  3  0  0  0  0  0  0
  182.7190  178.6900  143.6490 N   0  0  0  0  0  0  0  0  0  0  0  0
  184.0940  178.3530  141.7160 C   0  0  0  0  0  3  0  0  0  0  0  0
  183.8070  178.8230  144.4590 C   0  0  0  0  0  0  0  0  0  0  0  0
  185.0940  178.7030  143.9170 C   0  0  0  0  0  0  0  0  0  0  0  0
  187.7650  177.2630  145.2390 C   0  0  2  0  0  3  0  0  0  0  0  0
  182.8340  178.4580  142.3100 C   0  0  0  0  0  3  0  0  0  0  0  0
  186.3890  178.8500  144.7370 C   0  0  1  0  0  3  0  0  0  0  0  0
  186.5100  177.8570  145.8800 C   0  0  0  0  0  2  0  0  0  0  0  0
  187.5270  177.4500  141.5050 C   0  0  2  0  0  3  0  0  0  0  0  0
  186.6210  178.4520  142.0450 C   0  0  2  0  0  3  0  0  0  0  0  0
  183.6220  179.0870  145.8460 N   0  0  0  0  0  1  0  0  0  0  0  0
  187.1370  177.3610  142.9150 N   0  0  2  0  0  0  0  0  0  0  0  0
  189.4560  176.4350  146.7020 O   0  0  0  0  0  0  0  0  0  0  0  0
  188.9890  177.7410  147.7660 P   0  0  0  0  0  0  0  0  0  0  0  0
  190.2220  178.1670  148.5280 O   0  0  0  0  0  0  0  0  0  0  0  0
  187.7300  177.1470  148.7280 O   0  0  0  0  0  0  0  0  0  0  0  0
  189.1010  177.5050  145.9710 C   0  0  0  0  0  2  0  0  0  0  0  0
  188.9350  178.0220  141.3600 C   0  0  2  0  0  3  0  0  0  0  0  0
  188.9550  178.9090  140.2810 O   0  0  0  0  0  1  0  0  0  0  0  0
  189.9650  176.9090  141.1370 C   0  0  2  0  0  3  0  0  0  0  0  0
  190.6700  176.5470  142.4370 C   0  0  0  0  0  2  0  0  0  0  0  0
  190.2220  175.3090  142.8970 O   0  0  0  0  0  1  0  0  0  0  0  0
  190.9240  177.3290  140.2110 O   0  0  0  0  0  0  0  0  0  0  0  0
  192.0930  177.4970  140.9570 C   0  0  0  0  0  1  0  0  0  0  0  0
  1  6  1  0  0  0  0
  2  9  1  0  0  0  0
  2  7  1  0  0  0  0
  3  5  1  0  0  0  0
  4  8  1  0  0  0  0
  4  1  2  0  0  0  0
  5 13  1  0  0  0  0
  6  5  2  0  0  0  0
  6  9  1  0  0  0  0
  7 10  1  0  0  0  0
  7 19  1  0  0  0  0
  8  3  2  0  0  0  0
  9 10  1  0  0  0  0
 11 12  1  0  0  0  0
 11 14  1  0  0  0  0
 12  1  1  0  0  0  0
 12 14  1  0  0  0  0
 14  2  1  0  0  0  0
 15 16  1  0  0  0  0
 16 17  2  0  0  0  0
 16 18  2  0  0  0  0
 19 15  1  0  0  0  0
 20 11  1  0  0  0  0
 21 20  1  0  0  0  0
 22 20  1  0  0  0  0
 22 23  1  0  0  0  0
 23 24  1  0  0  0  0
 25 26  1  0  0  0  0
 25 22  1  0  0  0  0
M  END
>  <MODEL>
9

>  <REMARK>
 VINA RESULT:      -7.0      2.311      5.091
  Name = 
  5 active torsions:
  status: ('A' for Active; 'I' for Inactive)
    1  A    between atoms: C_3  and  C_18
    2  A    between atoms: C_3  and  C_19
    3  A    between atoms: C_10  and  C_18
    4  A    between atoms: C_12  and  C_23
    5  A    between atoms: O_15  and  C_18
                            x       y       z     vdW  Elec       q    Type
                         _______ _______ _______ _____ _____    ______ ____

>  <TORSDO>
F 5

$$$$
