=
 OpenBabel11062415103D

 55 63  0  0  1  0  0  0  0  0999 V2000
  179.2510  176.3160  141.1690 C   0  0  0  0  0  0  0  0  0  0  0  0
  179.3800  174.1220  140.2930 C   0  0  0  0  0  3  0  0  0  0  0  0
  179.5940  174.6960  138.9450 C   0  0  0  0  0  0  0  0  0  0  0  0
  180.0010  173.8770  137.8870 C   0  0  0  0  0  3  0  0  0  0  0  0
  179.7090  178.2070  139.9840 N   0  0  0  0  0  0  0  0  0  0  0  0
  180.1170  178.2860  141.2190 C   0  0  0  0  0  0  0  0  0  0  0  0
  179.8950  177.0970  141.9730 N   0  0  0  0  0  0  0  0  0  0  0  0
  178.9820  176.9610  139.8520 C   0  0  1  0  0  3  0  0  0  0  0  0
  179.5060  176.0900  138.7470 C   0  0  0  0  0  0  0  0  0  0  0  0
  180.1970  175.8350  136.5000 C   0  0  0  0  0  3  0  0  0  0  0  0
  179.2360  174.8960  141.3350 N   0  0  0  0  0  0  0  0  0  0  0  0
  179.7720  176.6170  137.5250 N   0  0  0  0  0  0  0  0  0  0  0  0
  180.3340  174.4530  136.6640 C   0  0  0  0  0  0  0  0  0  0  0  0
  180.8380  173.6370  135.6450 O   0  0  0  0  0  0  0  0  0  0  0  0
  182.1380  173.0510  135.6920 C   0  0  2  0  0  3  0  0  0  0  0  0
  184.1700  173.2850  136.8640 C   0  0  2  0  0  3  0  0  0  0  0  0
  182.1630  171.9320  136.6980 C   0  0  0  0  0  2  0  0  0  0  0  0
  183.5920  171.9050  137.1810 C   0  0  0  0  0  2  0  0  0  0  0  0
  183.1040  174.0380  136.1590 N   0  0  0  0  0  0  0  0  0  0  0  0
  189.2740  173.0490  136.9860 N   0  0  0  0  0  1  0  0  0  0  0  0
  187.8800  172.6580  137.1040 C   0  0  2  0  0  3  0  0  0  0  0  0
  186.0490  171.7790  135.9960 C   0  0  0  0  0  2  0  0  0  0  0  0
  187.5020  171.7990  135.9850 N   0  0  0  0  0  2  0  0  0  0  0  0
  185.5380  173.2100  136.1340 C   0  0  2  0  0  3  0  0  0  0  0  0
  186.8220  174.1260  137.0690 S   0  0  0  0  0  0  0  0  0  0  0  0
  183.5420  174.8160  135.0010 C   0  0  0  0  0  2  0  0  0  0  0  0
  183.0830  176.2630  135.1340 C   0  0  0  0  0  2  0  0  0  0  0  0
  184.3210  177.5060  136.9540 C   0  0  0  0  0  2  0  0  0  0  0  0
  185.2000  177.5070  134.5980 C   0  0  0  0  0  3  0  0  0  0  0  0
  184.1960  177.1110  135.5480 N   0  0  0  0  0  0  0  0  0  0  0  0
  186.7290  177.8220  136.4780 C   0  0  0  0  0  0  0  0  0  0  0  0
  186.4130  177.8650  135.0320 C   0  0  0  0  0  3  0  0  0  0  0  0
  185.7670  177.5540  137.3700 C   0  0  0  0  0  3  0  0  0  0  0  0
  189.2130  177.7400  137.2180 N   0  0  0  0  0  0  0  0  0  0  0  0
  188.1050  177.7710  136.8830 C   0  0  0  0  0  0  0  0  0  0  0  0
  181.1040  179.3060  141.6560 C   0  0  0  0  0  2  0  0  0  0  0  0
  182.1670  178.7100  142.5730 C   0  0  0  0  0  2  0  0  0  0  0  0
  183.5660  178.9580  142.0230 C   0  0  2  0  0  3  0  0  0  0  0  0
  183.5250  179.0480  140.6350 O   0  0  0  0  0  1  0  0  0  0  0  0
  184.5480  177.8690  142.4550 C   0  0  0  0  0  2  0  0  0  0  0  0
  186.1700  179.1730  146.8170 C   0  0  0  0  0  0  0  0  0  0  0  0
  185.5790  179.2240  145.4260 C   0  0  0  0  0  2  0  0  0  0  0  0
  185.8370  178.4450  143.0320 C   0  0  1  0  0  3  0  0  0  0  0  0
  187.3330  176.9640  146.3400 C   0  0  0  0  0  2  0  0  0  0  0  0
  189.0940  178.4140  141.1840 C   0  0  0  0  0  3  0  0  0  0  0  0
  187.2760  178.2170  147.2150 C   0  0  0  0  0  2  0  0  0  0  0  0
  187.8870  177.0810  142.5970 C   0  0  0  0  0  0  0  0  0  0  0  0
  190.4220  176.5730  142.1720 C   0  0  0  0  0  1  0  0  0  0  0  0
  189.1700  177.3490  141.9660 C   0  0  2  0  0  3  0  0  0  0  0  0
  187.7140  176.3530  143.8860 C   0  0  0  0  0  2  0  0  0  0  0  0
  187.3040  177.4110  144.8970 C   0  0  1  0  0  3  0  0  0  0  0  0
  185.9470  178.0370  144.5200 C   0  0  1  0  0  3  0  0  0  0  0  0
  187.6920  178.9390  141.2260 C   0  0  0  0  0  3  0  0  0  0  0  0
  185.7710  179.9710  147.6490 O   0  0  0  0  0  0  0  0  0  0  0  0
  187.0210  178.0130  142.1910 C   0  0  0  0  0  0  0  0  0  0  0  0
  1 11  1  0  0  0  0
  1  7  2  0  0  0  0
  2 11  2  0  0  0  0
  3  2  1  0  0  0  0
  4  3  2  0  0  0  0
  5  6  2  0  0  0  0
  6 36  1  0  0  0  0
  6  7  1  0  0  0  0
  8  9  1  6  0  0  0
  8  5  1  0  0  0  0
  8  1  1  0  0  0  0
  9  3  1  0  0  0  0
 10 13  2  0  0  0  0
 10 12  1  0  0  0  0
 12  9  2  0  0  0  0
 13  4  1  0  0  0  0
 14 13  1  0  0  0  0
 15 14  1  1  0  0  0
 15 19  1  0  0  0  0
 15 17  1  0  0  0  0
 16 18  1  6  0  0  0
 17 18  1  0  0  0  0
 19 16  1  0  0  0  0
 21 20  1  6  0  0  0
 23 22  1  0  0  0  0
 23 21  1  0  0  0  0
 24 22  1  1  0  0  0
 24 16  1  0  0  0  0
 24 25  1  0  0  0  0
 25 21  1  0  0  0  0
 26 27  1  0  0  0  0
 26 19  1  0  0  0  0
 27 30  1  0  0  0  0
 28 33  1  0  0  0  0
 29 32  2  0  0  0  0
 29 30  1  0  0  0  0
 30 28  1  0  0  0  0
 31 35  1  0  0  0  0
 31 33  2  0  0  0  0
 32 31  1  0  0  0  0
 35 34  3  0  0  0  0
 36 37  1  0  0  0  0
 38 39  1  6  0  0  0
 38 40  1  0  0  0  0
 38 37  1  0  0  0  0
 41 46  1  0  0  0  0
 41 54  2  0  0  0  0
 42 41  1  0  0  0  0
 43 40  1  6  0  0  0
 43 52  1  0  0  0  0
 44 46  1  0  0  0  0
 45 53  2  0  0  0  0
 45 49  1  0  0  0  0
 47 50  1  0  0  0  0
 49 48  1  1  0  0  0
 49 47  1  0  0  0  0
 51 50  1  6  0  0  0
 51 44  1  0  0  0  0
 52 51  1  0  0  0  0
 52 42  1  1  0  0  0
 53 55  1  0  0  0  0
 55 47  2  0  0  0  0
 55 43  1  0  0  0  0
M  END
>  <MODEL>
1

>  <REMARK>
 VINA RESULT:      -8.1      0.000      0.000
  Name = 
  12 active torsions:
  status: ('A' for Active; 'I' for Inactive)
    1  A    between atoms: C_3  and  O_4
    2  A    between atoms: O_4  and  C_55
    3  A    between atoms: C_5  and  C_18
    4  A    between atoms: C_5  and  C_27
    5  A    between atoms: C_6  and  C_48
    6  A    between atoms: C_13  and  C_25
    7  A    between atoms: C_13  and  C_27
    8  A    between atoms: C_14  and  C_18
    9  A    between atoms: N_30  and  C_32
   10  A    between atoms: C_32  and  C_40
   11  A    between atoms: C_35  and  C_50
   12  A    between atoms: C_40  and  N_53
                            x       y       z     vdW  Elec       q    Type
                         _______ _______ _______ _____ _____    ______ ____

>  <TORSDO>
F 12

$$$$
=
 OpenBabel11062415103D

 55 63  0  0  1  0  0  0  0  0999 V2000
  189.1820  177.7890  135.9280 C   0  0  0  0  0  0  0  0  0  0  0  0
  190.8980  176.5940  137.0350 C   0  0  0  0  0  3  0  0  0  0  0  0
  190.3230  177.0150  138.3340 C   0  0  0  0  0  0  0  0  0  0  0  0
  190.7630  176.4250  139.5230 C   0  0  0  0  0  3  0  0  0  0  0  0
  187.3940  178.7410  136.9690 N   0  0  0  0  0  0  0  0  0  0  0  0
  187.0770  178.2230  135.8170 C   0  0  0  0  0  0  0  0  0  0  0  0
  188.1630  177.5700  135.1640 N   0  0  0  0  0  0  0  0  0  0  0  0
  188.8320  178.6280  137.1100 C   0  0  1  0  0  3  0  0  0  0  0  0
  189.2460  177.9240  138.3690 C   0  0  0  0  0  0  0  0  0  0  0  0
  189.0760  177.6630  140.7130 C   0  0  0  0  0  3  0  0  0  0  0  0
  190.3420  176.9520  135.9090 N   0  0  0  0  0  0  0  0  0  0  0  0
  188.6770  178.2530  139.5570 N   0  0  0  0  0  0  0  0  0  0  0  0
  190.1160  176.7280  140.7180 C   0  0  0  0  0  0  0  0  0  0  0  0
  190.4960  176.0560  141.8850 O   0  0  0  0  0  0  0  0  0  0  0  0
  190.6440  176.7130  143.1440 C   0  0  2  0  0  3  0  0  0  0  0  0
  189.9480  176.4770  145.3830 C   0  0  2  0  0  3  0  0  0  0  0  0
  191.8270  176.1490  143.8840 C   0  0  0  0  0  2  0  0  0  0  0  0
  191.4690  176.3310  145.3370 C   0  0  0  0  0  2  0  0  0  0  0  0
  189.4780  176.4450  143.9770 N   0  0  0  0  0  0  0  0  0  0  0  0
  187.3550  178.4580  149.3180 N   0  0  0  0  0  1  0  0  0  0  0  0
  188.3790  177.7530  148.5650 C   0  0  2  0  0  3  0  0  0  0  0  0
  190.3830  177.9550  147.4270 C   0  0  0  0  0  2  0  0  0  0  0  0
  189.5890  178.5640  148.4810 N   0  0  0  0  0  2  0  0  0  0  0  0
  189.4860  177.7010  146.2200 C   0  0  2  0  0  3  0  0  0  0  0  0
  187.7970  177.4340  146.8810 S   0  0  0  0  0  0  0  0  0  0  0  0
  188.4480  177.4240  143.6320 C   0  0  0  0  0  2  0  0  0  0  0  0
  187.0810  176.7540  143.5700 C   0  0  0  0  0  2  0  0  0  0  0  0
  185.8290  178.2490  141.9610 C   0  0  0  0  0  2  0  0  0  0  0  0
  185.1870  178.1880  144.3920 C   0  0  0  0  0  3  0  0  0  0  0  0
  186.0420  177.7470  143.3220 N   0  0  0  0  0  0  0  0  0  0  0  0
  183.5330  178.7990  142.7010 C   0  0  0  0  0  0  0  0  0  0  0  0
  183.9890  178.7080  144.1060 C   0  0  0  0  0  3  0  0  0  0  0  0
  184.3660  178.4860  141.7010 C   0  0  0  0  0  3  0  0  0  0  0  0
  180.9950  179.0260  142.2190 N   0  0  0  0  0  0  0  0  0  0  0  0
  182.1280  178.9300  142.4390 C   0  0  0  0  0  0  0  0  0  0  0  0
  185.6670  177.9410  135.4440 C   0  0  0  0  0  2  0  0  0  0  0  0
  184.9150  177.2310  136.5650 C   0  0  0  0  0  2  0  0  0  0  0  0
  183.9240  176.2190  136.0050 C   0  0  2  0  0  3  0  0  0  0  0  0
  184.5920  175.2690  135.2380 O   0  0  0  0  0  1  0  0  0  0  0  0
  182.8300  176.8940  135.1770 C   0  0  0  0  0  2  0  0  0  0  0  0
  180.1230  174.6220  138.4750 C   0  0  0  0  0  0  0  0  0  0  0  0
  180.6300  175.1790  137.1630 C   0  0  0  0  0  2  0  0  0  0  0  0
  181.5890  177.2130  136.0050 C   0  0  1  0  0  3  0  0  0  0  0  0
  181.4870  176.2970  139.8160 C   0  0  0  0  0  2  0  0  0  0  0  0
  180.3030  180.6970  136.4940 C   0  0  0  0  0  3  0  0  0  0  0  0
  180.3010  175.3320  139.8020 C   0  0  0  0  0  2  0  0  0  0  0  0
  181.7830  179.2420  137.4540 C   0  0  0  0  0  0  0  0  0  0  0  0
  181.0080  181.3710  138.7700 C   0  0  0  0  0  1  0  0  0  0  0  0
  181.0230  180.4750  137.5830 C   0  0  2  0  0  3  0  0  0  0  0  0
  182.2520  178.4140  138.6020 C   0  0  0  0  0  2  0  0  0  0  0  0
  181.3840  177.1670  138.5850 C   0  0  1  0  0  3  0  0  0  0  0  0
  181.6100  176.3570  137.2930 C   0  0  1  0  0  3  0  0  0  0  0  0
  180.5600  179.5910  135.5170 C   0  0  0  0  0  3  0  0  0  0  0  0
  179.5020  173.5730  138.4620 O   0  0  0  0  0  0  0  0  0  0  0  0
  181.5070  178.7050  136.2640 C   0  0  0  0  0  0  0  0  0  0  0  0
  2  3  1  0  0  0  0
  3  9  2  0  0  0  0
  3  4  1  0  0  0  0
  4 13  2  0  0  0  0
  5  8  1  0  0  0  0
  6  5  2  0  0  0  0
  7  6  1  0  0  0  0
  7  1  2  0  0  0  0
  8  1  1  6  0  0  0
  8  9  1  0  0  0  0
  9 12  1  0  0  0  0
 10 13  1  0  0  0  0
 11  1  1  0  0  0  0
 11  2  2  0  0  0  0
 12 10  2  0  0  0  0
 13 14  1  0  0  0  0
 15 14  1  6  0  0  0
 15 17  1  0  0  0  0
 15 19  1  0  0  0  0
 16 18  1  6  0  0  0
 16 24  1  0  0  0  0
 17 18  1  0  0  0  0
 19 16  1  0  0  0  0
 21 20  1  1  0  0  0
 22 23  1  0  0  0  0
 23 21  1  0  0  0  0
 24 25  1  0  0  0  0
 24 22  1  1  0  0  0
 25 21  1  0  0  0  0
 26 19  1  0  0  0  0
 27 26  1  0  0  0  0
 28 30  1  0  0  0  0
 30 27  1  0  0  0  0
 30 29  1  0  0  0  0
 31 32  1  0  0  0  0
 32 29  2  0  0  0  0
 33 28  1  0  0  0  0
 33 31  2  0  0  0  0
 34 35  3  0  0  0  0
 35 31  1  0  0  0  0
 36  6  1  0  0  0  0
 36 37  1  0  0  0  0
 38 39  1  6  0  0  0
 38 37  1  0  0  0  0
 40 38  1  0  0  0  0
 41 46  1  0  0  0  0
 42 41  1  0  0  0  0
 43 40  1  1  0  0  0
 43 55  1  0  0  0  0
 43 52  1  0  0  0  0
 45 49  1  0  0  0  0
 46 44  1  0  0  0  0
 47 49  1  0  0  0  0
 47 50  1  0  0  0  0
 49 48  1  1  0  0  0
 51 50  1  1  0  0  0
 51 44  1  0  0  0  0
 52 42  1  6  0  0  0
 52 51  1  0  0  0  0
 53 55  1  0  0  0  0
 53 45  2  0  0  0  0
 54 41  2  0  0  0  0
 55 47  2  0  0  0  0
M  END
>  <MODEL>
2

>  <REMARK>
 VINA RESULT:      -7.8      3.695     10.103
  Name = 
  12 active torsions:
  status: ('A' for Active; 'I' for Inactive)
    1  A    between atoms: C_3  and  O_4
    2  A    between atoms: O_4  and  C_55
    3  A    between atoms: C_5  and  C_18
    4  A    between atoms: C_5  and  C_27
    5  A    between atoms: C_6  and  C_48
    6  A    between atoms: C_13  and  C_25
    7  A    between atoms: C_13  and  C_27
    8  A    between atoms: C_14  and  C_18
    9  A    between atoms: N_30  and  C_32
   10  A    between atoms: C_32  and  C_40
   11  A    between atoms: C_35  and  C_50
   12  A    between atoms: C_40  and  N_53
                            x       y       z     vdW  Elec       q    Type
                         _______ _______ _______ _____ _____    ______ ____

>  <TORSDO>
F 12

$$$$
=
 OpenBabel11062415103D

 55 63  0  0  1  0  0  0  0  0999 V2000
  192.1020  175.6380  136.4110 C   0  0  0  0  0  0  0  0  0  0  0  0
  190.5890  175.7160  134.5940 C   0  0  0  0  0  3  0  0  0  0  0  0
  189.4860  175.3840  135.5250 C   0  0  0  0  0  0  0  0  0  0  0  0
  188.1560  175.4950  135.1090 C   0  0  0  0  0  3  0  0  0  0  0  0
  191.4850  175.4330  138.5950 N   0  0  0  0  0  0  0  0  0  0  0  0
  192.5040  176.2290  138.4420 C   0  0  0  0  0  0  0  0  0  0  0  0
  192.8810  176.4220  137.0810 N   0  0  0  0  0  0  0  0  0  0  0  0
  191.1910  174.8570  137.2980 C   0  0  1  0  0  3  0  0  0  0  0  0
  189.7670  175.0690  136.8700 C   0  0  0  0  0  0  0  0  0  0  0  0
  187.4540  174.9680  137.3510 C   0  0  0  0  0  3  0  0  0  0  0  0
  191.8140  175.8490  135.0270 N   0  0  0  0  0  0  0  0  0  0  0  0
  188.7490  174.8330  137.7360 N   0  0  0  0  0  0  0  0  0  0  0  0
  187.1320  175.3160  136.0360 C   0  0  0  0  0  0  0  0  0  0  0  0
  185.8090  175.5310  135.6350 O   0  0  0  0  0  0  0  0  0  0  0  0
  184.9790  176.5410  136.2080 C   0  0  2  0  0  3  0  0  0  0  0  0
  183.8580  177.0080  138.2270 C   0  0  2  0  0  3  0  0  0  0  0  0
  185.8250  177.5610  136.9210 C   0  0  0  0  0  2  0  0  0  0  0  0
  184.9280  178.0790  138.0170 C   0  0  0  0  0  2  0  0  0  0  0  0
  184.1160  175.9490  137.2230 N   0  0  0  0  0  0  0  0  0  0  0  0
  179.8720  178.9830  140.7450 N   0  0  0  0  0  1  0  0  0  0  0  0
  181.1830  178.8620  140.1320 C   0  0  2  0  0  3  0  0  0  0  0  0
  182.4050  179.1150  138.1840 C   0  0  0  0  0  2  0  0  0  0  0  0
  181.2200  179.5980  138.8720 N   0  0  0  0  0  2  0  0  0  0  0  0
  182.4190  177.5910  138.2380 C   0  0  2  0  0  3  0  0  0  0  0  0
  181.5410  177.1230  139.7790 S   0  0  0  0  0  0  0  0  0  0  0  0
  182.9330  175.4160  136.5470 C   0  0  0  0  0  2  0  0  0  0  0  0
  182.4970  174.1090  137.1980 C   0  0  0  0  0  2  0  0  0  0  0  0
  183.3610  173.1790  135.0110 C   0  0  0  0  0  2  0  0  0  0  0  0
  183.0630  171.6680  136.9990 C   0  0  0  0  0  3  0  0  0  0  0  0
  182.9530  172.9730  136.4050 N   0  0  0  0  0  0  0  0  0  0  0  0
  184.7000  171.1150  135.2720 C   0  0  0  0  0  0  0  0  0  0  0  0
  183.8860  170.7640  136.4570 C   0  0  0  0  0  3  0  0  0  0  0  0
  184.5220  172.2900  134.6560 C   0  0  0  0  0  3  0  0  0  0  0  0
  186.8120  169.7080  134.7380 N   0  0  0  0  0  0  0  0  0  0  0  0
  185.8660  170.3310  134.9780 C   0  0  0  0  0  0  0  0  0  0  0  0
  192.9270  177.1780  139.5030 C   0  0  0  0  0  2  0  0  0  0  0  0
  191.9440  177.1970  140.6700 C   0  0  0  0  0  2  0  0  0  0  0  0
  190.5090  177.0540  140.1800 C   0  0  2  0  0  3  0  0  0  0  0  0
  190.0600  178.2630  139.6550 O   0  0  0  0  0  1  0  0  0  0  0  0
  189.5730  176.5790  141.2910 C   0  0  0  0  0  2  0  0  0  0  0  0
  185.4910  179.1610  141.4450 C   0  0  0  0  0  0  0  0  0  0  0  0
  186.9070  178.7210  141.1460 C   0  0  0  0  0  2  0  0  0  0  0  0
  189.0220  177.7330  142.1210 C   0  0  1  0  0  3  0  0  0  0  0  0
  185.3350  177.6040  143.4490 C   0  0  0  0  0  2  0  0  0  0  0  0
  190.4940  178.7720  145.4050 C   0  0  0  0  0  3  0  0  0  0  0  0
  184.7800  178.8430  142.7460 C   0  0  0  0  0  2  0  0  0  0  0  0
  188.9360  177.3130  144.5840 C   0  0  0  0  0  0  0  0  0  0  0  0
  188.9880  177.8610  147.1460 C   0  0  0  0  0  1  0  0  0  0  0  0
  189.4850  177.9870  145.7500 C   0  0  2  0  0  3  0  0  0  0  0  0
  187.5370  176.8090  144.4790 C   0  0  0  0  0  2  0  0  0  0  0  0
  186.8390  177.7470  143.5100 C   0  0  1  0  0  3  0  0  0  0  0  0
  187.4770  177.6670  142.1100 C   0  0  1  0  0  3  0  0  0  0  0  0
  190.7080  178.6540  143.9260 C   0  0  0  0  0  3  0  0  0  0  0  0
  184.9050  179.8420  140.6200 O   0  0  0  0  0  0  0  0  0  0  0  0
  189.6250  177.7080  143.5110 C   0  0  0  0  0  0  0  0  0  0  0  0
  1  7  2  0  0  0  0
  2 11  2  0  0  0  0
  2  3  1  0  0  0  0
  3  9  1  0  0  0  0
  4  3  2  0  0  0  0
  4 13  1  0  0  0  0
  6  5  2  0  0  0  0
  6 36  1  0  0  0  0
  7  6  1  0  0  0  0
  8  1  1  6  0  0  0
  8  5  1  0  0  0  0
  9  8  1  0  0  0  0
  9 12  2  0  0  0  0
 10 12  1  0  0  0  0
 11  1  1  0  0  0  0
 13 10  2  0  0  0  0
 14 13  1  0  0  0  0
 15 14  1  1  0  0  0
 15 17  1  0  0  0  0
 15 19  1  0  0  0  0
 16 18  1  6  0  0  0
 16 24  1  0  0  0  0
 17 18  1  0  0  0  0
 19 16  1  0  0  0  0
 21 20  1  6  0  0  0
 22 23  1  0  0  0  0
 23 21  1  0  0  0  0
 24 22  1  1  0  0  0
 24 25  1  0  0  0  0
 25 21  1  0  0  0  0
 26 27  1  0  0  0  0
 26 19  1  0  0  0  0
 28 30  1  0  0  0  0
 30 29  1  0  0  0  0
 30 27  1  0  0  0  0
 31 32  1  0  0  0  0
 32 29  2  0  0  0  0
 33 28  1  0  0  0  0
 33 31  2  0  0  0  0
 34 35  3  0  0  0  0
 35 31  1  0  0  0  0
 36 37  1  0  0  0  0
 38 39  1  1  0  0  0
 38 37  1  0  0  0  0
 38 40  1  0  0  0  0
 41 46  1  0  0  0  0
 42 41  1  0  0  0  0
 43 40  1  6  0  0  0
 43 55  1  0  0  0  0
 45 49  1  0  0  0  0
 46 44  1  0  0  0  0
 47 49  1  0  0  0  0
 49 48  1  6  0  0  0
 50 47  1  0  0  0  0
 51 44  1  6  0  0  0
 51 50  1  0  0  0  0
 52 42  1  6  0  0  0
 52 43  1  0  0  0  0
 52 51  1  0  0  0  0
 53 45  2  0  0  0  0
 54 41  2  0  0  0  0
 55 53  1  0  0  0  0
 55 47  2  0  0  0  0
M  END
>  <MODEL>
3

>  <REMARK>
 VINA RESULT:      -7.5      2.708      7.817
  Name = 
  12 active torsions:
  status: ('A' for Active; 'I' for Inactive)
    1  A    between atoms: C_3  and  O_4
    2  A    between atoms: O_4  and  C_55
    3  A    between atoms: C_5  and  C_18
    4  A    between atoms: C_5  and  C_27
    5  A    between atoms: C_6  and  C_48
    6  A    between atoms: C_13  and  C_25
    7  A    between atoms: C_13  and  C_27
    8  A    between atoms: C_14  and  C_18
    9  A    between atoms: N_30  and  C_32
   10  A    between atoms: C_32  and  C_40
   11  A    between atoms: C_35  and  C_50
   12  A    between atoms: C_40  and  N_53
                            x       y       z     vdW  Elec       q    Type
                         _______ _______ _______ _____ _____    ______ ____

>  <TORSDO>
F 12

$$$$
=
 OpenBabel11062415103D

 55 63  0  0  1  0  0  0  0  0999 V2000
  189.2030  178.2280  137.8390 C   0  0  0  0  0  0  0  0  0  0  0  0
  187.1070  178.8620  136.9420 C   0  0  0  0  0  3  0  0  0  0  0  0
  186.8750  177.4540  136.5460 C   0  0  0  0  0  0  0  0  0  0  0  0
  185.6090  177.0440  136.1160 C   0  0  0  0  0  3  0  0  0  0  0  0
  189.9160  176.0750  138.0510 N   0  0  0  0  0  0  0  0  0  0  0  0
  190.2860  176.8190  139.0540 C   0  0  0  0  0  0  0  0  0  0  0  0
  189.8080  178.1600  138.9800 N   0  0  0  0  0  0  0  0  0  0  0  0
  189.2780  176.9440  137.0840 C   0  0  1  0  0  3  0  0  0  0  0  0
  187.8950  176.4950  136.7120 C   0  0  0  0  0  0  0  0  0  0  0  0
  186.4210  174.7790  136.0240 C   0  0  0  0  0  3  0  0  0  0  0  0
  188.2010  179.2110  137.5660 N   0  0  0  0  0  0  0  0  0  0  0  0
  187.6540  175.1930  136.4120 N   0  0  0  0  0  0  0  0  0  0  0  0
  185.3710  175.6910  135.8830 C   0  0  0  0  0  0  0  0  0  0  0  0
  184.0760  175.2780  135.5530 O   0  0  0  0  0  0  0  0  0  0  0  0
  183.0880  174.9670  136.5360 C   0  0  2  0  0  3  0  0  0  0  0  0
  180.7440  174.9670  136.7850 C   0  0  2  0  0  3  0  0  0  0  0  0
  182.6610  173.5300  136.4020 C   0  0  0  0  0  2  0  0  0  0  0  0
  181.2370  173.5240  136.8980 C   0  0  0  0  0  2  0  0  0  0  0  0
  181.8930  175.7690  136.3000 N   0  0  0  0  0  0  0  0  0  0  0  0
  178.9450  174.1150  141.4930 N   0  0  0  0  0  1  0  0  0  0  0  0
  179.8760  174.3040  140.3940 C   0  0  2  0  0  3  0  0  0  0  0  0
  181.0820  175.8480  139.1650 C   0  0  0  0  0  2  0  0  0  0  0  0
  180.4820  175.6300  140.4700 N   0  0  0  0  0  2  0  0  0  0  0  0
  180.0690  175.4750  138.0880 C   0  0  2  0  0  3  0  0  0  0  0  0
  179.0010  174.1730  138.8150 S   0  0  0  0  0  0  0  0  0  0  0  0
  182.0850  177.0600  136.9600 C   0  0  0  0  0  2  0  0  0  0  0  0
  181.9620  178.1930  135.9480 C   0  0  0  0  0  2  0  0  0  0  0  0
  181.5410  179.6950  137.9380 C   0  0  0  0  0  2  0  0  0  0  0  0
  180.3670  180.1270  135.7570 C   0  0  0  0  0  3  0  0  0  0  0  0
  181.2680  179.3290  136.5440 N   0  0  0  0  0  0  0  0  0  0  0  0
  180.7590  181.9600  137.3220 C   0  0  0  0  0  0  0  0  0  0  0  0
  180.1030  181.3840  136.1270 C   0  0  0  0  0  3  0  0  0  0  0  0
  181.5150  181.1900  138.1140 C   0  0  0  0  0  3  0  0  0  0  0  0
  180.8710  184.5410  137.5470 N   0  0  0  0  0  0  0  0  0  0  0  0
  180.8230  183.3880  137.4530 C   0  0  0  0  0  0  0  0  0  0  0  0
  190.7490  176.2340  140.3380 C   0  0  0  0  0  2  0  0  0  0  0  0
  190.3700  177.1070  141.5290 C   0  0  0  0  0  2  0  0  0  0  0  0
  190.2860  176.2830  142.8080 C   0  0  2  0  0  3  0  0  0  0  0  0
  190.8150  175.0130  142.5950 O   0  0  0  0  0  1  0  0  0  0  0  0
  188.8510  176.1780  143.3230 C   0  0  0  0  0  2  0  0  0  0  0  0
  185.2490  179.3180  142.5970 C   0  0  0  0  0  0  0  0  0  0  0  0
  186.6080  178.6540  142.5740 C   0  0  0  0  0  2  0  0  0  0  0  0
  188.3660  177.4760  143.9600 C   0  0  1  0  0  3  0  0  0  0  0  0
  184.5430  178.0070  144.6570 C   0  0  0  0  0  2  0  0  0  0  0  0
  189.4560  178.6140  147.3590 C   0  0  0  0  0  3  0  0  0  0  0  0
  184.3050  179.2360  143.7790 C   0  0  0  0  0  2  0  0  0  0  0  0
  187.8340  177.3180  146.3990 C   0  0  0  0  0  0  0  0  0  0  0  0
  187.5740  178.1040  148.8850 C   0  0  0  0  0  1  0  0  0  0  0  0
  188.2950  178.0200  147.5860 C   0  0  2  0  0  3  0  0  0  0  0  0
  186.4060  177.0110  146.0980 C   0  0  0  0  0  2  0  0  0  0  0  0
  186.0230  177.9390  144.9590 C   0  0  1  0  0  3  0  0  0  0  0  0
  186.8500  177.6300  143.6950 C   0  0  1  0  0  3  0  0  0  0  0  0
  189.8740  178.3210  145.9500 C   0  0  0  0  0  3  0  0  0  0  0  0
  184.9130  179.9910  141.6370 O   0  0  0  0  0  0  0  0  0  0  0  0
  188.7340  177.5030  145.4300 C   0  0  0  0  0  0  0  0  0  0  0  0
  1  7  2  0  0  0  0
  2 11  2  0  0  0  0
  3  9  1  0  0  0  0
  3  2  1  0  0  0  0
  4  3  2  0  0  0  0
  5  6  2  0  0  0  0
  6 36  1  0  0  0  0
  7  6  1  0  0  0  0
  8  9  1  1  0  0  0
  8  1  1  0  0  0  0
  8  5  1  0  0  0  0
 10 12  1  0  0  0  0
 11  1  1  0  0  0  0
 12  9  2  0  0  0  0
 13 10  2  0  0  0  0
 13  4  1  0  0  0  0
 14 13  1  0  0  0  0
 15 14  1  6  0  0  0
 16 18  1  1  0  0  0
 16 24  1  0  0  0  0
 17 15  1  0  0  0  0
 17 18  1  0  0  0  0
 19 15  1  0  0  0  0
 19 16  1  0  0  0  0
 19 26  1  0  0  0  0
 21 23  1  0  0  0  0
 21 20  1  1  0  0  0
 22 23  1  0  0  0  0
 24 25  1  0  0  0  0
 24 22  1  1  0  0  0
 25 21  1  0  0  0  0
 27 30  1  0  0  0  0
 27 26  1  0  0  0  0
 28 33  1  0  0  0  0
 29 32  2  0  0  0  0
 29 30  1  0  0  0  0
 30 28  1  0  0  0  0
 31 35  1  0  0  0  0
 31 33  2  0  0  0  0
 32 31  1  0  0  0  0
 35 34  3  0  0  0  0
 36 37  1  0  0  0  0
 37 38  1  0  0  0  0
 38 39  1  6  0  0  0
 38 40  1  0  0  0  0
 41 46  1  0  0  0  0
 42 41  1  0  0  0  0
 43 40  1  1  0  0  0
 43 55  1  0  0  0  0
 45 49  1  0  0  0  0
 46 44  1  0  0  0  0
 47 49  1  0  0  0  0
 49 48  1  6  0  0  0
 50 47  1  0  0  0  0
 51 44  1  6  0  0  0
 51 50  1  0  0  0  0
 52 42  1  6  0  0  0
 52 43  1  0  0  0  0
 52 51  1  0  0  0  0
 53 45  2  0  0  0  0
 54 41  2  0  0  0  0
 55 53  1  0  0  0  0
 55 47  2  0  0  0  0
M  END
>  <MODEL>
4

>  <REMARK>
 VINA RESULT:      -7.4      2.906      6.896
  Name = 
  12 active torsions:
  status: ('A' for Active; 'I' for Inactive)
    1  A    between atoms: C_3  and  O_4
    2  A    between atoms: O_4  and  C_55
    3  A    between atoms: C_5  and  C_18
    4  A    between atoms: C_5  and  C_27
    5  A    between atoms: C_6  and  C_48
    6  A    between atoms: C_13  and  C_25
    7  A    between atoms: C_13  and  C_27
    8  A    between atoms: C_14  and  C_18
    9  A    between atoms: N_30  and  C_32
   10  A    between atoms: C_32  and  C_40
   11  A    between atoms: C_35  and  C_50
   12  A    between atoms: C_40  and  N_53
                            x       y       z     vdW  Elec       q    Type
                         _______ _______ _______ _____ _____    ______ ____

>  <TORSDO>
F 12

$$$$
=
 OpenBabel11062415103D

 55 63  0  0  1  0  0  0  0  0999 V2000
  189.3690  176.9740  136.3530 C   0  0  0  0  0  0  0  0  0  0  0  0
  187.5970  178.1990  135.3760 C   0  0  0  0  0  3  0  0  0  0  0  0
  186.6350  177.2420  135.9720 C   0  0  0  0  0  0  0  0  0  0  0  0
  185.2670  177.5270  135.9700 C   0  0  0  0  0  3  0  0  0  0  0  0
  189.0940  175.2690  137.8390 N   0  0  0  0  0  0  0  0  0  0  0  0
  190.1270  176.0100  138.1220 C   0  0  0  0  0  0  0  0  0  0  0  0
  190.2950  177.1190  137.2440 N   0  0  0  0  0  0  0  0  0  0  0  0
  188.5610  175.7410  136.5760 C   0  0  1  0  0  3  0  0  0  0  0  0
  187.1050  176.0990  136.6510 C   0  0  0  0  0  0  0  0  0  0  0  0
  184.8960  175.5450  137.2860 C   0  0  0  0  0  3  0  0  0  0  0  0
  188.8810  178.0710  135.5760 N   0  0  0  0  0  0  0  0  0  0  0  0
  186.2230  175.2620  137.2550 N   0  0  0  0  0  0  0  0  0  0  0  0
  184.3930  176.6880  136.6580 C   0  0  0  0  0  0  0  0  0  0  0  0
  183.0400  177.0360  136.7370 O   0  0  0  0  0  0  0  0  0  0  0  0
  182.0350  176.1390  137.2090 C   0  0  2  0  0  3  0  0  0  0  0  0
  179.6870  175.9480  137.2750 C   0  0  2  0  0  3  0  0  0  0  0  0
  181.6730  175.1550  136.1300 C   0  0  0  0  0  2  0  0  0  0  0  0
  180.2360  174.8050  136.4210 C   0  0  0  0  0  2  0  0  0  0  0  0
  180.8160  176.8800  137.5080 N   0  0  0  0  0  0  0  0  0  0  0  0
  179.6770  173.3870  141.6980 N   0  0  0  0  0  1  0  0  0  0  0  0
  179.9410  174.4210  140.7130 C   0  0  2  0  0  3  0  0  0  0  0  0
  179.1600  176.3710  139.7440 C   0  0  0  0  0  2  0  0  0  0  0  0
  179.0910  175.5820  140.9620 N   0  0  0  0  0  2  0  0  0  0  0  0
  178.9510  175.4490  138.5470 C   0  0  2  0  0  3  0  0  0  0  0  0
  179.5740  173.8010  139.0530 S   0  0  0  0  0  0  0  0  0  0  0  0
  180.9340  177.4020  138.8700 C   0  0  0  0  0  2  0  0  0  0  0  0
  182.3310  177.1380  139.4170 C   0  0  0  0  0  2  0  0  0  0  0  0
  181.5240  178.7120  141.2230 C   0  0  0  0  0  2  0  0  0  0  0  0
  183.9820  178.2610  140.9440 C   0  0  0  0  0  3  0  0  0  0  0  0
  182.6250  178.0520  140.5150 N   0  0  0  0  0  0  0  0  0  0  0  0
  183.0970  178.9370  143.1190 C   0  0  0  0  0  0  0  0  0  0  0  0
  184.2210  178.6990  142.1850 C   0  0  0  0  0  3  0  0  0  0  0  0
  181.8330  178.8440  142.6900 C   0  0  0  0  0  3  0  0  0  0  0  0
  183.5950  179.0030  145.6630 N   0  0  0  0  0  0  0  0  0  0  0  0
  183.3670  178.9700  144.5280 C   0  0  0  0  0  0  0  0  0  0  0  0
  190.7740  175.9770  139.4590 C   0  0  0  0  0  2  0  0  0  0  0  0
  190.1340  176.9700  140.4230 C   0  0  0  0  0  2  0  0  0  0  0  0
  191.1910  177.8260  141.1090 C   0  0  2  0  0  3  0  0  0  0  0  0
  192.3800  177.1120  141.2310 O   0  0  0  0  0  1  0  0  0  0  0  0
  190.7250  178.3160  142.4800 C   0  0  0  0  0  2  0  0  0  0  0  0
  192.4210  174.6460  145.1270 C   0  0  0  0  0  0  0  0  0  0  0  0
  191.8470  175.4530  143.9830 C   0  0  0  0  0  2  0  0  0  0  0  0
  190.1340  177.1950  143.3280 C   0  0  1  0  0  3  0  0  0  0  0  0
  191.6790  176.3730  146.8370 C   0  0  0  0  0  2  0  0  0  0  0  0
  186.5930  177.2070  144.5490 C   0  0  0  0  0  3  0  0  0  0  0  0
  192.1060  174.9270  146.5820 C   0  0  0  0  0  2  0  0  0  0  0  0
  188.6550  177.9550  145.1960 C   0  0  0  0  0  0  0  0  0  0  0  0
  186.6960  177.8660  146.9330 C   0  0  0  0  0  1  0  0  0  0  0  0
  187.2790  177.6800  145.5780 C   0  0  2  0  0  3  0  0  0  0  0  0
  189.8080  177.9710  146.1420 C   0  0  0  0  0  2  0  0  0  0  0  0
  190.6090  176.7200  145.8280 C   0  0  1  0  0  3  0  0  0  0  0  0
  191.1720  176.7710  144.3940 C   0  0  1  0  0  3  0  0  0  0  0  0
  187.4990  177.1480  143.3570 C   0  0  0  0  0  3  0  0  0  0  0  0
  193.1370  173.6930  144.8660 O   0  0  0  0  0  0  0  0  0  0  0  0
  188.8030  177.6290  143.9100 C   0  0  0  0  0  0  0  0  0  0  0  0
  1  7  2  0  0  0  0
  2 11  2  0  0  0  0
  2  3  1  0  0  0  0
  3  9  1  0  0  0  0
  4  3  2  0  0  0  0
  4 13  1  0  0  0  0
  5  6  2  0  0  0  0
  6 36  1  0  0  0  0
  7  6  1  0  0  0  0
  8  1  1  1  0  0  0
  8  9  1  0  0  0  0
  8  5  1  0  0  0  0
  9 12  2  0  0  0  0
 11  1  1  0  0  0  0
 12 10  1  0  0  0  0
 13 14  1  0  0  0  0
 13 10  2  0  0  0  0
 15 14  1  6  0  0  0
 15 19  1  0  0  0  0
 16 18  1  1  0  0  0
 16 19  1  0  0  0  0
 16 24  1  0  0  0  0
 17 18  1  0  0  0  0
 17 15  1  0  0  0  0
 19 26  1  0  0  0  0
 21 23  1  0  0  0  0
 21 20  1  1  0  0  0
 22 23  1  0  0  0  0
 24 25  1  0  0  0  0
 24 22  1  1  0  0  0
 25 21  1  0  0  0  0
 26 27  1  0  0  0  0
 27 30  1  0  0  0  0
 28 33  1  0  0  0  0
 29 32  2  0  0  0  0
 30 29  1  0  0  0  0
 30 28  1  0  0  0  0
 31 35  1  0  0  0  0
 32 31  1  0  0  0  0
 33 31  2  0  0  0  0
 35 34  3  0  0  0  0
 36 37  1  0  0  0  0
 37 38  1  0  0  0  0
 38 39  1  1  0  0  0
 38 40  1  0  0  0  0
 41 46  1  0  0  0  0
 42 41  1  0  0  0  0
 43 40  1  1  0  0  0
 43 55  1  0  0  0  0
 43 52  1  0  0  0  0
 45 49  1  0  0  0  0
 46 44  1  0  0  0  0
 47 49  1  0  0  0  0
 47 50  1  0  0  0  0
 49 48  1  1  0  0  0
 51 50  1  1  0  0  0
 51 44  1  0  0  0  0
 52 42  1  6  0  0  0
 52 51  1  0  0  0  0
 53 55  1  0  0  0  0
 53 45  2  0  0  0  0
 54 41  2  0  0  0  0
 55 47  2  0  0  0  0
M  END
>  <MODEL>
5

>  <REMARK>
 VINA RESULT:      -7.3      3.019      7.360
  Name = 
  12 active torsions:
  status: ('A' for Active; 'I' for Inactive)
    1  A    between atoms: C_3  and  O_4
    2  A    between atoms: O_4  and  C_55
    3  A    between atoms: C_5  and  C_18
    4  A    between atoms: C_5  and  C_27
    5  A    between atoms: C_6  and  C_48
    6  A    between atoms: C_13  and  C_25
    7  A    between atoms: C_13  and  C_27
    8  A    between atoms: C_14  and  C_18
    9  A    between atoms: N_30  and  C_32
   10  A    between atoms: C_32  and  C_40
   11  A    between atoms: C_35  and  C_50
   12  A    between atoms: C_40  and  N_53
                            x       y       z     vdW  Elec       q    Type
                         _______ _______ _______ _____ _____    ______ ____

>  <TORSDO>
F 12

$$$$
=
 OpenBabel11062415103D

 55 63  0  0  1  0  0  0  0  0999 V2000
  189.5950  177.4190  145.2490 C   0  0  0  0  0  0  0  0  0  0  0  0
  191.6370  177.5150  144.0580 C   0  0  0  0  0  3  0  0  0  0  0  0
  190.8970  177.2190  142.8090 C   0  0  0  0  0  0  0  0  0  0  0  0
  191.5260  177.3580  141.5680 C   0  0  0  0  0  3  0  0  0  0  0  0
  187.5410  177.2530  144.2780 N   0  0  0  0  0  0  0  0  0  0  0  0
  187.5300  178.0220  145.3290 C   0  0  0  0  0  0  0  0  0  0  0  0
  188.8120  178.1920  145.9280 N   0  0  0  0  0  0  0  0  0  0  0  0
  188.8650  176.6710  144.1860 C   0  0  1  0  0  3  0  0  0  0  0  0
  189.5220  176.9120  142.8570 C   0  0  0  0  0  0  0  0  0  0  0  0
  189.4260  176.8730  140.4950 C   0  0  0  0  0  3  0  0  0  0  0  0
  191.0100  177.6230  145.1980 N   0  0  0  0  0  0  0  0  0  0  0  0
  188.8330  176.7100  141.7050 N   0  0  0  0  0  0  0  0  0  0  0  0
  190.7790  177.2140  140.4020 C   0  0  0  0  0  0  0  0  0  0  0  0
  191.3930  177.4560  139.1680 O   0  0  0  0  0  0  0  0  0  0  0  0
  191.9920  176.4240  138.3850 C   0  0  2  0  0  3  0  0  0  0  0  0
  192.6500  176.0120  136.1600 C   0  0  2  0  0  3  0  0  0  0  0  0
  193.4870  176.5970  138.3600 C   0  0  0  0  0  2  0  0  0  0  0  0
  193.9020  176.0040  137.0370 C   0  0  0  0  0  2  0  0  0  0  0  0
  191.5470  176.5360  137.0010 N   0  0  0  0  0  0  0  0  0  0  0  0
  194.1440  171.2760  134.9520 N   0  0  0  0  0  1  0  0  0  0  0  0
  193.6820  172.4110  135.7320 C   0  0  2  0  0  3  0  0  0  0  0  0
  191.8330  173.6030  136.4470 C   0  0  0  0  0  2  0  0  0  0  0  0
  192.2540  172.2840  136.0100 N   0  0  0  0  0  2  0  0  0  0  0  0
  192.3850  174.6430  135.4770 C   0  0  2  0  0  3  0  0  0  0  0  0
  193.9400  173.9430  134.8040 S   0  0  0  0  0  0  0  0  0  0  0  0
  190.2720  175.8300  136.8840 C   0  0  0  0  0  2  0  0  0  0  0  0
  189.1860  176.7790  136.3930 C   0  0  0  0  0  2  0  0  0  0  0  0
  187.9160  174.6160  136.0770 C   0  0  0  0  0  2  0  0  0  0  0  0
  187.2210  176.6850  134.8280 C   0  0  0  0  0  3  0  0  0  0  0  0
  188.1160  176.0300  135.7440 N   0  0  0  0  0  0  0  0  0  0  0  0
  185.5840  174.9380  135.3150 C   0  0  0  0  0  0  0  0  0  0  0  0
  186.0110  176.1630  134.6030 C   0  0  0  0  0  3  0  0  0  0  0  0
  186.4510  174.2700  136.0850 C   0  0  0  0  0  3  0  0  0  0  0  0
  183.0500  174.4090  135.4750 N   0  0  0  0  0  0  0  0  0  0  0  0
  184.1820  174.6480  135.4100 C   0  0  0  0  0  0  0  0  0  0  0  0
  186.4200  178.9720  145.5960 C   0  0  0  0  0  2  0  0  0  0  0  0
  185.0630  178.3690  145.2520 C   0  0  0  0  0  2  0  0  0  0  0  0
  184.4550  179.0480  144.0310 C   0  0  2  0  0  3  0  0  0  0  0  0
  183.5930  180.0660  144.4290 O   0  0  0  0  0  1  0  0  0  0  0  0
  183.7210  178.0530  143.1330 C   0  0  0  0  0  2  0  0  0  0  0  0
  185.6660  178.4930  138.7300 C   0  0  0  0  0  0  0  0  0  0  0  0
  185.2300  178.7870  140.1480 C   0  0  0  0  0  2  0  0  0  0  0  0
  183.3140  178.6660  141.7970 C   0  0  1  0  0  3  0  0  0  0  0  0
  183.9050  176.6780  138.4690 C   0  0  0  0  0  2  0  0  0  0  0  0
  179.7830  179.6030  140.9700 C   0  0  0  0  0  3  0  0  0  0  0  0
  184.8500  177.6550  137.7670 C   0  0  0  0  0  2  0  0  0  0  0  0
  181.1740  177.7920  140.8440 C   0  0  0  0  0  0  0  0  0  0  0  0
  178.9310  177.8100  139.4910 C   0  0  0  0  0  1  0  0  0  0  0  0
  179.9240  178.4050  140.4250 C   0  0  0  0  0  0  0  0  0  0  0  0
  181.9090  176.7540  140.0670 C   0  0  0  0  0  2  0  0  0  0  0  0
  183.1400  177.4540  139.5160 C   0  0  1  0  0  3  0  0  0  0  0  0
  184.0590  177.9300  140.6580 C   0  0  1  0  0  3  0  0  0  0  0  0
  180.9720  179.8740  141.8420 C   0  0  0  0  0  2  0  0  0  0  0  0
  186.7040  178.9890  138.3240 O   0  0  0  0  0  0  0  0  0  0  0  0
  181.8060  178.6460  141.6530 C   0  0  0  0  0  0  0  0  0  0  0  0
  1  7  2  0  0  0  0
  2 11  2  0  0  0  0
  3  9  1  0  0  0  0
  3  2  1  0  0  0  0
  4  3  2  0  0  0  0
  5  6  2  0  0  0  0
  6 36  1  0  0  0  0
  6  7  1  0  0  0  0
  8  9  1  6  0  0  0
  8  5  1  0  0  0  0
  8  1  1  0  0  0  0
 10 12  1  0  0  0  0
 11  1  1  0  0  0  0
 12  9  2  0  0  0  0
 13 10  2  0  0  0  0
 13  4  1  0  0  0  0
 14 13  1  0  0  0  0
 15 14  1  1  0  0  0
 16 19  1  0  0  0  0
 16 18  1  1  0  0  0
 17 15  1  0  0  0  0
 18 17  1  0  0  0  0
 19 15  1  0  0  0  0
 21 20  1  6  0  0  0
 21 23  1  0  0  0  0
 23 22  1  0  0  0  0
 24 16  1  0  0  0  0
 24 22  1  1  0  0  0
 25 24  1  0  0  0  0
 25 21  1  0  0  0  0
 26 19  1  0  0  0  0
 27 26  1  0  0  0  0
 28 33  1  0  0  0  0
 29 30  1  0  0  0  0
 30 28  1  0  0  0  0
 30 27  1  0  0  0  0
 31 35  1  0  0  0  0
 31 33  2  0  0  0  0
 32 29  2  0  0  0  0
 32 31  1  0  0  0  0
 35 34  3  0  0  0  0
 37 36  1  0  0  0  0
 38 39  1  1  0  0  0
 38 37  1  0  0  0  0
 40 38  1  0  0  0  0
 41 42  1  0  0  0  0
 43 40  1  1  0  0  0
 45 53  1  0  0  0  0
 46 44  1  0  0  0  0
 46 41  1  0  0  0  0
 47 55  2  0  0  0  0
 48 49  1  0  0  0  0
 49 47  1  0  0  0  0
 49 45  2  0  0  0  0
 50 47  1  0  0  0  0
 51 44  1  6  0  0  0
 51 50  1  0  0  0  0
 51 52  1  0  0  0  0
 52 42  1  6  0  0  0
 52 43  1  0  0  0  0
 54 41  2  0  0  0  0
 55 43  1  0  0  0  0
 55 53  1  0  0  0  0
M  END
>  <MODEL>
6

>  <REMARK>
 VINA RESULT:      -7.1      3.570      8.245
  Name = 
  12 active torsions:
  status: ('A' for Active; 'I' for Inactive)
    1  A    between atoms: C_3  and  O_4
    2  A    between atoms: O_4  and  C_55
    3  A    between atoms: C_5  and  C_18
    4  A    between atoms: C_5  and  C_27
    5  A    between atoms: C_6  and  C_48
    6  A    between atoms: C_13  and  C_25
    7  A    between atoms: C_13  and  C_27
    8  A    between atoms: C_14  and  C_18
    9  A    between atoms: N_30  and  C_32
   10  A    between atoms: C_32  and  C_40
   11  A    between atoms: C_35  and  C_50
   12  A    between atoms: C_40  and  N_53
                            x       y       z     vdW  Elec       q    Type
                         _______ _______ _______ _____ _____    ______ ____

>  <TORSDO>
F 12

$$$$
=
 OpenBabel11062415103D

 55 63  0  0  1  0  0  0  0  0999 V2000
  183.4200  178.5060  143.8920 C   0  0  0  0  0  0  0  0  0  0  0  0
  185.7580  178.8260  144.0590 C   0  0  0  0  0  3  0  0  0  0  0  0
  185.8630  178.6680  142.5900 C   0  0  0  0  0  0  0  0  0  0  0  0
  187.0540  178.9870  141.9310 C   0  0  0  0  0  3  0  0  0  0  0  0
  182.2700  178.3950  141.9280 N   0  0  0  0  0  0  0  0  0  0  0  0
  181.6040  179.0210  142.8560 C   0  0  0  0  0  0  0  0  0  0  0  0
  182.3190  179.1570  144.0820 N   0  0  0  0  0  0  0  0  0  0  0  0
  183.4760  177.8760  142.5420 C   0  0  1  0  0  3  0  0  0  0  0  0
  184.7280  178.3090  141.8340 C   0  0  0  0  0  0  0  0  0  0  0  0
  185.9550  178.5710  139.8300 C   0  0  0  0  0  3  0  0  0  0  0  0
  184.5990  178.7640  144.6580 N   0  0  0  0  0  0  0  0  0  0  0  0
  184.8130  178.2330  140.4820 N   0  0  0  0  0  0  0  0  0  0  0  0
  187.0920  178.9690  140.5390 C   0  0  0  0  0  0  0  0  0  0  0  0
  188.2570  179.3890  139.8870 O   0  0  0  0  0  0  0  0  0  0  0  0
  188.9870  178.5520  138.9910 C   0  0  2  0  0  3  0  0  0  0  0  0
  189.2300  176.2680  138.4640 C   0  0  2  0  0  3  0  0  0  0  0  0
  188.1990  178.3370  137.7270 C   0  0  0  0  0  2  0  0  0  0  0  0
  188.6470  176.9810  137.2430 C   0  0  0  0  0  2  0  0  0  0  0  0
  189.1670  177.2340  139.5870 N   0  0  0  0  0  0  0  0  0  0  0  0
  192.4400  173.7110  135.4160 N   0  0  0  0  0  1  0  0  0  0  0  0
  191.6160  174.7820  135.9510 C   0  0  2  0  0  3  0  0  0  0  0  0
  191.5390  176.5810  137.4040 C   0  0  0  0  0  2  0  0  0  0  0  0
  192.4530  175.7830  136.6050 N   0  0  0  0  0  2  0  0  0  0  0  0
  190.6240  175.6440  138.1870 C   0  0  2  0  0  3  0  0  0  0  0  0
  190.4650  174.1200  137.1810 S   0  0  0  0  0  0  0  0  0  0  0  0
  190.3540  177.2880  140.4400 C   0  0  0  0  0  2  0  0  0  0  0  0
  190.2070  176.3230  141.6100 C   0  0  0  0  0  2  0  0  0  0  0  0
  188.4500  176.5840  143.4090 C   0  0  0  0  0  2  0  0  0  0  0  0
  190.4540  178.1040  143.3670 C   0  0  0  0  0  3  0  0  0  0  0  0
  189.7020  177.0250  142.7850 N   0  0  0  0  0  0  0  0  0  0  0  0
  189.2950  177.6580  145.4720 C   0  0  0  0  0  0  0  0  0  0  0  0
  190.2570  178.4260  144.6500 C   0  0  0  0  0  3  0  0  0  0  0  0
  188.5200  176.7250  144.9060 C   0  0  0  0  0  3  0  0  0  0  0  0
  189.5200  177.7520  148.0530 N   0  0  0  0  0  0  0  0  0  0  0  0
  189.4130  177.7100  146.9010 C   0  0  0  0  0  0  0  0  0  0  0  0
  180.4420  179.8890  142.5380 C   0  0  0  0  0  2  0  0  0  0  0  0
  180.2740  180.0850  141.0350 C   0  0  0  0  0  2  0  0  0  0  0  0
  179.0550  179.3330  140.5180 C   0  0  2  0  0  3  0  0  0  0  0  0
  178.9310  178.1120  141.1740 O   0  0  0  0  0  1  0  0  0  0  0  0
  179.1180  179.1180  139.0060 C   0  0  0  0  0  2  0  0  0  0  0  0
  183.1710  177.0940  137.3220 C   0  0  0  0  0  0  0  0  0  0  0  0
  182.1680  177.7710  138.2300 C   0  0  0  0  0  2  0  0  0  0  0  0
  180.4330  179.6030  138.4040 C   0  0  1  0  0  3  0  0  0  0  0  0
  181.9110  177.8240  135.2380 C   0  0  0  0  0  2  0  0  0  0  0  0
  180.9070  183.0670  137.0580 C   0  0  0  0  0  3  0  0  0  0  0  0
  183.2360  177.3400  135.8280 C   0  0  0  0  0  2  0  0  0  0  0  0
  180.1960  181.0110  136.3510 C   0  0  0  0  0  0  0  0  0  0  0  0
  180.7850  182.8630  134.5940 C   0  0  0  0  0  1  0  0  0  0  0  0
  180.6310  182.3480  135.9810 C   0  0  0  0  0  0  0  0  0  0  0  0
  180.3170  179.8100  135.4770 C   0  0  0  0  0  2  0  0  0  0  0  0
  181.4170  178.9660  136.0970 C   0  0  1  0  0  3  0  0  0  0  0  0
  181.0160  178.4870  137.5060 C   0  0  1  0  0  3  0  0  0  0  0  0
  180.6460  182.2270  138.2720 C   0  0  0  0  0  2  0  0  0  0  0  0
  183.9970  176.3470  137.8190 O   0  0  0  0  0  0  0  0  0  0  0  0
  180.2200  180.9190  137.6830 C   0  0  0  0  0  0  0  0  0  0  0  0
  1  7  2  0  0  0  0
  1 11  1  0  0  0  0
  2 11  2  0  0  0  0
  3  2  1  0  0  0  0
  4  3  1  0  0  0  0
  5  8  1  0  0  0  0
  5  6  2  0  0  0  0
  6  7  1  0  0  0  0
  8  9  1  6  0  0  0
  8  1  1  0  0  0  0
  9  3  2  0  0  0  0
 10 12  2  0  0  0  0
 10 13  1  0  0  0  0
 12  9  1  0  0  0  0
 13  4  2  0  0  0  0
 14 13  1  0  0  0  0
 15 19  1  0  0  0  0
 15 14  1  1  0  0  0
 16 18  1  6  0  0  0
 16 19  1  0  0  0  0
 17 15  1  0  0  0  0
 18 17  1  0  0  0  0
 19 26  1  0  0  0  0
 21 20  1  1  0  0  0
 21 23  1  0  0  0  0
 21 25  1  0  0  0  0
 23 22  1  0  0  0  0
 24 22  1  6  0  0  0
 24 16  1  0  0  0  0
 25 24  1  0  0  0  0
 26 27  1  0  0  0  0
 27 30  1  0  0  0  0
 28 33  1  0  0  0  0
 29 32  2  0  0  0  0
 30 29  1  0  0  0  0
 30 28  1  0  0  0  0
 31 35  1  0  0  0  0
 32 31  1  0  0  0  0
 33 31  2  0  0  0  0
 35 34  3  0  0  0  0
 36  6  1  0  0  0  0
 37 36  1  0  0  0  0
 38 37  1  0  0  0  0
 38 39  1  1  0  0  0
 40 38  1  0  0  0  0
 41 54  2  0  0  0  0
 41 42  1  0  0  0  0
 43 40  1  6  0  0  0
 44 46  1  0  0  0  0
 45 53  1  0  0  0  0
 46 41  1  0  0  0  0
 47 55  2  0  0  0  0
 48 49  1  0  0  0  0
 49 47  1  0  0  0  0
 49 45  2  0  0  0  0
 50 51  1  0  0  0  0
 50 47  1  0  0  0  0
 51 44  1  6  0  0  0
 51 52  1  0  0  0  0
 52 42  1  1  0  0  0
 52 43  1  0  0  0  0
 55 53  1  0  0  0  0
 55 43  1  0  0  0  0
M  END
>  <MODEL>
7

>  <REMARK>
 VINA RESULT:      -7.1      3.556      8.351
  Name = 
  12 active torsions:
  status: ('A' for Active; 'I' for Inactive)
    1  A    between atoms: C_3  and  O_4
    2  A    between atoms: O_4  and  C_55
    3  A    between atoms: C_5  and  C_18
    4  A    between atoms: C_5  and  C_27
    5  A    between atoms: C_6  and  C_48
    6  A    between atoms: C_13  and  C_25
    7  A    between atoms: C_13  and  C_27
    8  A    between atoms: C_14  and  C_18
    9  A    between atoms: N_30  and  C_32
   10  A    between atoms: C_32  and  C_40
   11  A    between atoms: C_35  and  C_50
   12  A    between atoms: C_40  and  N_53
                            x       y       z     vdW  Elec       q    Type
                         _______ _______ _______ _____ _____    ______ ____

>  <TORSDO>
F 12

$$$$
=
 OpenBabel11062415103D

 55 63  0  0  1  0  0  0  0  0999 V2000
  182.1440  178.9300  139.5610 C   0  0  0  0  0  0  0  0  0  0  0  0
  184.4400  179.4140  139.2540 C   0  0  0  0  0  3  0  0  0  0  0  0
  184.6780  179.0840  140.6780 C   0  0  0  0  0  0  0  0  0  0  0  0
  185.9830  178.9360  141.1570 C   0  0  0  0  0  3  0  0  0  0  0  0
  181.2610  178.0090  141.4480 N   0  0  0  0  0  0  0  0  0  0  0  0
  180.6860  177.5670  140.3670 C   0  0  0  0  0  0  0  0  0  0  0  0
  181.2530  178.0820  139.1650 N   0  0  0  0  0  0  0  0  0  0  0  0
  182.1900  179.0470  141.0470 C   0  0  1  0  0  3  0  0  0  0  0  0
  183.5910  178.8000  141.5300 C   0  0  0  0  0  0  0  0  0  0  0  0
  185.0800  178.2540  143.2830 C   0  0  0  0  0  3  0  0  0  0  0  0
  183.2440  179.3220  138.7360 N   0  0  0  0  0  0  0  0  0  0  0  0
  183.8180  178.4300  142.8160 N   0  0  0  0  0  0  0  0  0  0  0  0
  186.1870  178.4880  142.4600 C   0  0  0  0  0  0  0  0  0  0  0  0
  187.4930  178.2450  142.8980 O   0  0  0  0  0  0  0  0  0  0  0  0
  188.6050  178.1550  142.0070 C   0  0  2  0  0  3  0  0  0  0  0  0
  189.4160  176.7640  140.2860 C   0  0  2  0  0  3  0  0  0  0  0  0
  188.2940  178.8710  140.7200 C   0  0  0  0  0  2  0  0  0  0  0  0
  189.1130  178.1380  139.6870 C   0  0  0  0  0  2  0  0  0  0  0  0
  188.8350  176.7600  141.6500 N   0  0  0  0  0  0  0  0  0  0  0  0
  193.7510  176.3810  137.6050 N   0  0  0  0  0  1  0  0  0  0  0  0
  192.6360  176.9600  138.3330 C   0  0  2  0  0  3  0  0  0  0  0  0
  191.8380  177.5830  140.4140 C   0  0  0  0  0  2  0  0  0  0  0  0
  193.0660  177.3770  139.6650 N   0  0  0  0  0  2  0  0  0  0  0  0
  190.9190  176.3860  140.1910 C   0  0  2  0  0  3  0  0  0  0  0  0
  191.3190  175.7330  138.5250 S   0  0  0  0  0  0  0  0  0  0  0  0
  189.6730  176.1660  142.6910 C   0  0  0  0  0  2  0  0  0  0  0  0
  190.0880  177.2260  143.7040 C   0  0  0  0  0  2  0  0  0  0  0  0
  191.4600  175.5180  144.9650 C   0  0  0  0  0  2  0  0  0  0  0  0
  189.9270  177.0760  146.2080 C   0  0  0  0  0  3  0  0  0  0  0  0
  190.4700  176.5990  144.9640 N   0  0  0  0  0  0  0  0  0  0  0  0
  191.8850  176.1330  147.3240 C   0  0  0  0  0  0  0  0  0  0  0  0
  190.5880  176.8470  147.3470 C   0  0  0  0  0  3  0  0  0  0  0  0
  192.3390  175.5980  146.1840 C   0  0  0  0  0  3  0  0  0  0  0  0
  193.4930  176.3860  149.3420 N   0  0  0  0  0  0  0  0  0  0  0  0
  192.7740  176.2800  148.4410 C   0  0  0  0  0  0  0  0  0  0  0  0
  179.8590  176.3330  140.3650 C   0  0  0  0  0  2  0  0  0  0  0  0
  179.4400  175.9340  138.9540 C   0  0  0  0  0  2  0  0  0  0  0  0
  180.0010  174.5670  138.5830 C   0  0  2  0  0  3  0  0  0  0  0  0
  179.4170  173.5790  139.3700 O   0  0  0  0  0  1  0  0  0  0  0  0
  181.5230  174.5210  138.7190 C   0  0  0  0  0  2  0  0  0  0  0  0
  185.3820  176.4470  136.5370 C   0  0  0  0  0  0  0  0  0  0  0  0
  183.9580  176.1720  136.9670 C   0  0  0  0  0  2  0  0  0  0  0  0
  182.2230  174.3750  137.3720 C   0  0  1  0  0  3  0  0  0  0  0  0
  186.1330  174.1150  137.2160 C   0  0  0  0  0  2  0  0  0  0  0  0
  181.6330  171.4820  135.0670 C   0  0  0  0  0  3  0  0  0  0  0  0
  186.4260  175.3600  136.3770 C   0  0  0  0  0  2  0  0  0  0  0  0
  182.9800  172.0550  136.8250 C   0  0  0  0  0  0  0  0  0  0  0  0
  183.5870  169.9850  135.3370 C   0  0  0  0  0  1  0  0  0  0  0  0
  182.7310  171.1390  135.7220 C   0  0  0  0  0  0  0  0  0  0  0  0
  184.3220  172.3210  137.4170 C   0  0  0  0  0  2  0  0  0  0  0  0
  184.6950  173.7220  136.9660 C   0  0  1  0  0  3  0  0  0  0  0  0
  183.7110  174.7640  137.5350 C   0  0  1  0  0  3  0  0  0  0  0  0
  181.0400  172.6890  135.7280 C   0  0  0  0  0  2  0  0  0  0  0  0
  185.6960  177.5930  136.2610 O   0  0  0  0  0  0  0  0  0  0  0  0
  182.0140  172.9770  136.8260 C   0  0  0  0  0  0  0  0  0  0  0  0
  2  3  1  0  0  0  0
  3  4  2  0  0  0  0
  3  9  1  0  0  0  0
  4 13  1  0  0  0  0
  6  5  2  0  0  0  0
  7  1  2  0  0  0  0
  7  6  1  0  0  0  0
  8  1  1  6  0  0  0
  8  5  1  0  0  0  0
  8  9  1  0  0  0  0
  9 12  2  0  0  0  0
 11  2  2  0  0  0  0
 11  1  1  0  0  0  0
 12 10  1  0  0  0  0
 13 14  1  0  0  0  0
 13 10  2  0  0  0  0
 15 14  1  1  0  0  0
 16 18  1  1  0  0  0
 16 19  1  0  0  0  0
 17 15  1  0  0  0  0
 18 17  1  0  0  0  0
 19 15  1  0  0  0  0
 19 26  1  0  0  0  0
 21 20  1  1  0  0  0
 21 25  1  0  0  0  0
 21 23  1  0  0  0  0
 23 22  1  0  0  0  0
 24 16  1  0  0  0  0
 24 22  1  6  0  0  0
 25 24  1  0  0  0  0
 26 27  1  0  0  0  0
 27 30  1  0  0  0  0
 28 33  1  0  0  0  0
 29 32  2  0  0  0  0
 30 28  1  0  0  0  0
 30 29  1  0  0  0  0
 31 32  1  0  0  0  0
 31 35  1  0  0  0  0
 33 31  2  0  0  0  0
 35 34  3  0  0  0  0
 36  6  1  0  0  0  0
 37 36  1  0  0  0  0
 38 40  1  0  0  0  0
 38 37  1  0  0  0  0
 38 39  1  1  0  0  0
 41 42  1  0  0  0  0
 43 52  1  0  0  0  0
 43 40  1  1  0  0  0
 45 49  2  0  0  0  0
 45 53  1  0  0  0  0
 46 41  1  0  0  0  0
 46 44  1  0  0  0  0
 47 55  2  0  0  0  0
 47 50  1  0  0  0  0
 48 49  1  0  0  0  0
 49 47  1  0  0  0  0
 51 44  1  1  0  0  0
 51 50  1  0  0  0  0
 51 52  1  0  0  0  0
 52 42  1  6  0  0  0
 53 55  1  0  0  0  0
 54 41  2  0  0  0  0
 55 43  1  0  0  0  0
M  END
>  <MODEL>
8

>  <REMARK>
 VINA RESULT:      -6.7      3.394      8.957
  Name = 
  12 active torsions:
  status: ('A' for Active; 'I' for Inactive)
    1  A    between atoms: C_3  and  O_4
    2  A    between atoms: O_4  and  C_55
    3  A    between atoms: C_5  and  C_18
    4  A    between atoms: C_5  and  C_27
    5  A    between atoms: C_6  and  C_48
    6  A    between atoms: C_13  and  C_25
    7  A    between atoms: C_13  and  C_27
    8  A    between atoms: C_14  and  C_18
    9  A    between atoms: N_30  and  C_32
   10  A    between atoms: C_32  and  C_40
   11  A    between atoms: C_35  and  C_50
   12  A    between atoms: C_40  and  N_53
                            x       y       z     vdW  Elec       q    Type
                         _______ _______ _______ _____ _____    ______ ____

>  <TORSDO>
F 12

$$$$
=
 OpenBabel11062415103D

 55 63  0  0  1  0  0  0  0  0999 V2000
  181.0620  178.1400  138.9800 C   0  0  0  0  0  0  0  0  0  0  0  0
  182.8860  179.2720  137.9840 C   0  0  0  0  0  3  0  0  0  0  0  0
  183.7030  178.9630  139.1800 C   0  0  0  0  0  0  0  0  0  0  0  0
  185.0850  179.1740  139.1620 C   0  0  0  0  0  3  0  0  0  0  0  0
  181.1930  176.9230  140.9020 N   0  0  0  0  0  0  0  0  0  0  0  0
  180.3930  176.3820  140.0280 C   0  0  0  0  0  0  0  0  0  0  0  0
  180.3320  177.0900  138.7920 N   0  0  0  0  0  0  0  0  0  0  0  0
  181.6180  178.1990  140.3620 C   0  0  1  0  0  3  0  0  0  0  0  0
  183.1120  178.3430  140.3000 C   0  0  0  0  0  0  0  0  0  0  0  0
  185.2250  178.1700  141.3460 C   0  0  0  0  0  3  0  0  0  0  0  0
  181.6480  178.8650  137.8960 N   0  0  0  0  0  0  0  0  0  0  0  0
  183.8790  177.9980  141.3660 N   0  0  0  0  0  0  0  0  0  0  0  0
  185.8570  178.7470  140.2400 C   0  0  0  0  0  0  0  0  0  0  0  0
  187.2490  178.8690  140.1690 O   0  0  0  0  0  0  0  0  0  0  0  0
  188.0100  178.4120  139.0510 C   0  0  2  0  0  3  0  0  0  0  0  0
  188.8750  176.4060  138.1690 C   0  0  2  0  0  3  0  0  0  0  0  0
  187.0920  178.0310  137.9210 C   0  0  0  0  0  2  0  0  0  0  0  0
  187.8500  176.9600  137.1790 C   0  0  0  0  0  2  0  0  0  0  0  0
  188.7340  177.1990  139.4130 N   0  0  0  0  0  0  0  0  0  0  0  0
  192.4710  173.9380  135.5020 N   0  0  0  0  0  1  0  0  0  0  0  0
  191.2660  174.6880  135.8120 C   0  0  2  0  0  3  0  0  0  0  0  0
  190.3610  176.7950  136.1200 C   0  0  0  0  0  2  0  0  0  0  0  0
  191.4370  176.0900  135.4440 N   0  0  0  0  0  2  0  0  0  0  0  0
  190.3070  176.3340  137.5730 C   0  0  2  0  0  3  0  0  0  0  0  0
  190.9300  174.6100  137.5890 S   0  0  0  0  0  0  0  0  0  0  0  0
  189.9870  177.6010  140.0520 C   0  0  0  0  0  2  0  0  0  0  0  0
  190.2780  176.7080  141.2510 C   0  0  0  0  0  2  0  0  0  0  0  0
  188.4050  176.7000  142.9500 C   0  0  0  0  0  2  0  0  0  0  0  0
  190.3220  178.3100  143.1880 C   0  0  0  0  0  3  0  0  0  0  0  0
  189.6660  177.2610  142.4540 N   0  0  0  0  0  0  0  0  0  0  0  0
  189.0660  177.5970  145.1590 C   0  0  0  0  0  0  0  0  0  0  0  0
  190.0320  178.4900  144.4810 C   0  0  0  0  0  3  0  0  0  0  0  0
  188.3780  176.6900  144.4540 C   0  0  0  0  0  3  0  0  0  0  0  0
  189.1220  177.4500  147.7470 N   0  0  0  0  0  0  0  0  0  0  0  0
  189.0950  177.5090  146.5910 C   0  0  0  0  0  0  0  0  0  0  0  0
  179.9620  174.9650  140.1290 C   0  0  0  0  0  2  0  0  0  0  0  0
  178.9320  174.6080  139.0620 C   0  0  0  0  0  2  0  0  0  0  0  0
  179.5630  173.7860  137.9460 C   0  0  2  0  0  3  0  0  0  0  0  0
  178.9860  172.5200  137.8980 O   0  0  0  0  0  1  0  0  0  0  0  0
  181.0780  173.6710  138.1110 C   0  0  0  0  0  2  0  0  0  0  0  0
  183.8140  176.4200  135.2260 C   0  0  0  0  0  0  0  0  0  0  0  0
  182.6280  175.6980  135.8280 C   0  0  0  0  0  2  0  0  0  0  0  0
  181.7970  173.5050  136.7760 C   0  0  1  0  0  3  0  0  0  0  0  0
  185.4590  174.8380  136.3450 C   0  0  0  0  0  2  0  0  0  0  0  0
  182.5070  170.1620  135.2420 C   0  0  0  0  0  3  0  0  0  0  0  0
  185.2190  175.8520  135.2260 C   0  0  0  0  0  2  0  0  0  0  0  0
  183.4620  171.6410  136.7020 C   0  0  0  0  0  0  0  0  0  0  0  0
  184.9030  169.7090  135.6720 C   0  0  0  0  0  1  0  0  0  0  0  0
  183.6370  170.4680  135.8600 C   0  0  2  0  0  3  0  0  0  0  0  0
  184.5610  172.5660  137.1010 C   0  0  0  0  0  2  0  0  0  0  0  0
  184.3220  173.8440  136.3150 C   0  0  1  0  0  3  0  0  0  0  0  0
  182.9830  174.4950  136.7180 C   0  0  1  0  0  3  0  0  0  0  0  0
  181.4530  171.1410  135.6620 C   0  0  0  0  0  3  0  0  0  0  0  0
  183.6250  177.4900  134.6730 O   0  0  0  0  0  0  0  0  0  0  0  0
  182.2000  172.0570  136.5790 C   0  0  0  0  0  0  0  0  0  0  0  0
  2  3  1  0  0  0  0
  3  9  1  0  0  0  0
  4  3  2  0  0  0  0
  4 13  1  0  0  0  0
  6 36  1  0  0  0  0
  6  5  2  0  0  0  0
  7  1  2  0  0  0  0
  7  6  1  0  0  0  0
  8  1  1  6  0  0  0
  8  5  1  0  0  0  0
  9  8  1  0  0  0  0
  9 12  2  0  0  0  0
 10 12  1  0  0  0  0
 11  2  2  0  0  0  0
 11  1  1  0  0  0  0
 13 10  2  0  0  0  0
 14 13  1  0  0  0  0
 15 19  1  0  0  0  0
 15 14  1  1  0  0  0
 16 18  1  6  0  0  0
 16 19  1  0  0  0  0
 17 15  1  0  0  0  0
 18 17  1  0  0  0  0
 19 26  1  0  0  0  0
 21 20  1  1  0  0  0
 21 25  1  0  0  0  0
 23 21  1  0  0  0  0
 23 22  1  0  0  0  0
 24 22  1  6  0  0  0
 24 25  1  0  0  0  0
 24 16  1  0  0  0  0
 26 27  1  0  0  0  0
 27 30  1  0  0  0  0
 28 33  1  0  0  0  0
 29 32  2  0  0  0  0
 30 28  1  0  0  0  0
 30 29  1  0  0  0  0
 31 35  1  0  0  0  0
 32 31  1  0  0  0  0
 33 31  2  0  0  0  0
 35 34  3  0  0  0  0
 37 36  1  0  0  0  0
 38 39  1  1  0  0  0
 38 40  1  0  0  0  0
 38 37  1  0  0  0  0
 41 46  1  0  0  0  0
 41 42  1  0  0  0  0
 43 40  1  1  0  0  0
 45 53  2  0  0  0  0
 45 49  1  0  0  0  0
 46 44  1  0  0  0  0
 47 50  1  0  0  0  0
 49 48  1  6  0  0  0
 49 47  1  0  0  0  0
 51 44  1  1  0  0  0
 51 52  1  0  0  0  0
 51 50  1  0  0  0  0
 52 42  1  6  0  0  0
 52 43  1  0  0  0  0
 53 55  1  0  0  0  0
 54 41  2  0  0  0  0
 55 47  2  0  0  0  0
 55 43  1  0  0  0  0
M  END
>  <MODEL>
9

>  <REMARK>
 VINA RESULT:      -6.7      2.715      8.196
  Name = 
  12 active torsions:
  status: ('A' for Active; 'I' for Inactive)
    1  A    between atoms: C_3  and  O_4
    2  A    between atoms: O_4  and  C_55
    3  A    between atoms: C_5  and  C_18
    4  A    between atoms: C_5  and  C_27
    5  A    between atoms: C_6  and  C_48
    6  A    between atoms: C_13  and  C_25
    7  A    between atoms: C_13  and  C_27
    8  A    between atoms: C_14  and  C_18
    9  A    between atoms: N_30  and  C_32
   10  A    between atoms: C_32  and  C_40
   11  A    between atoms: C_35  and  C_50
   12  A    between atoms: C_40  and  N_53
                            x       y       z     vdW  Elec       q    Type
                         _______ _______ _______ _____ _____    ______ ____

>  <TORSDO>
F 12

$$$$
