=
 OpenBabel11062411043D

 66 72  0  0  1  0  0  0  0  0999 V2000
  183.1290  177.8350  141.9440 C   0  0  0  0  0  2  0  0  0  0  0  0
  183.8630  178.2340  143.1220 N   0  0  0  0  0  0  0  0  0  0  0  0
  183.2360  179.4650  143.6940 C   0  0  0  0  0  2  0  0  0  0  0  0
  182.0630  179.8250  143.0410 O   0  0  0  0  0  1  0  0  0  0  0  0
  185.2950  178.3370  142.8100 C   0  0  0  0  0  2  0  0  0  0  0  0
  186.1780  177.8860  143.9790 C   0  0  2  0  0  3  0  0  0  0  0  0
  187.0710  178.9800  144.5990 C   0  0  0  0  0  1  0  0  0  0  0  0
  186.8140  176.4690  143.7370 C   0  0  0  0  0  2  0  0  0  0  0  0
  188.1680  176.4940  142.9790 C   0  0  0  0  0  3  0  0  0  0  0  0
  189.3030  177.1250  143.3150 C   0  0  0  0  0  3  0  0  0  0  0  0
  190.6850  176.7460  142.5860 C   0  0  2  0  0  3  0  0  0  0  0  0
  191.0760  178.5780  141.1070 O   0  0  0  0  0  1  0  0  0  0  0  0
  190.7770  177.1940  141.1580 C   0  0  2  0  0  0  0  0  0  0  0  0
  189.4840  176.8390  140.4510 C   0  0  0  0  0  2  0  0  0  0  0  0
  188.7730  178.0790  139.7670 C   0  0  0  0  0  1  0  0  0  0  0  0
  191.7990  176.4140  140.4630 O   0  0  0  0  0  0  0  0  0  0  0  0
  193.2340  176.0200  138.6800 C   0  0  0  0  0  2  0  0  0  0  0  0
  192.4050  177.0550  139.3830 C   0  0  1  0  0  3  0  0  0  0  0  0
  191.9020  176.4390  138.0610 C   0  0  0  0  0  0  0  0  0  0  0  0
  191.0570  176.3130  137.1720 O   0  0  0  0  0  0  0  0  0  0  0  0
  191.1730  175.3950  143.0880 C   0  0  0  0  0  2  0  0  0  0  0  0
  192.1270  175.8200  144.1440 C   0  0  0  0  0  2  0  0  0  0  0  0
  191.9280  175.0390  145.3640 N   0  0  0  0  0  2  0  0  0  0  0  0
  191.5030  175.8540  146.4940 C   0  0  1  0  0  3  0  0  0  0  0  0
  192.7220  175.9360  147.3460 C   0  0  0  0  0  2  0  0  0  0  0  0
  192.5050  175.1130  148.4570 O   0  0  0  0  0  1  0  0  0  0  0  0
  190.6620  177.1280  146.1660 C   0  0  0  0  0  2  0  0  0  0  0  0
  189.2110  177.1510  146.6580 C   0  0  0  0  0  2  0  0  0  0  0  0
  189.1840  178.0720  148.1920 S   0  0  0  0  0  0  0  0  0  0  0  0
  187.3590  177.9790  148.4550 C   0  0  0  0  0  2  0  0  0  0  0  0
  186.5210  179.1890  148.0990 C   0  0  0  0  0  2  0  0  0  0  0  0
  185.6060  177.5570  147.1110 O   0  0  0  0  0  1  0  0  0  0  0  0
  185.4050  178.8200  147.3470 O   0  0  0  0  0  0  0  0  0  0  0  0
  183.9630  178.0090  140.5710 C   0  0  0  0  0  2  0  0  0  0  0  0
  182.6010  176.6020  138.8580 C   0  0  0  0  0  0  0  0  0  0  0  0
  179.2900  177.9090  134.8900 C   0  0  0  0  0  2  0  0  0  0  0  0
  179.9780  173.2650  137.1940 C   0  0  0  0  0  2  0  0  0  0  0  0
  182.8620  177.0610  136.3950 C   0  0  1  0  0  3  0  0  0  0  0  0
  179.6640  176.6260  135.6840 C   0  0  2  0  0  3  0  0  0  0  0  0
  180.7290  177.5270  135.0500 C   0  0  2  0  0  3  0  0  0  0  0  0
  181.9760  174.6240  136.7650 C   0  0  1  0  0  3  0  0  0  0  0  0
  181.4870  174.6460  135.2960 C   0  0  0  0  0  2  0  0  0  0  0  0
  183.3010  177.9430  139.1670 C   0  0  2  0  0  0  0  0  0  0  0  0
  178.9410  174.3560  134.5950 C   0  0  0  0  0  2  0  0  0  0  0  0
  184.3480  178.2300  138.0250 C   0  0  0  0  0  0  0  0  0  0  0  0
  184.1980  177.6060  136.7590 N   0  0  0  0  0  0  0  0  0  0  0  0
  181.8550  176.0920  139.7250 O   0  0  0  0  0  0  0  0  0  0  0  0
  185.4160  178.8010  138.2920 O   0  0  0  0  0  0  0  0  0  0  0  0
  179.2470  172.8140  134.6500 C   0  0  0  0  0  2  0  0  0  0  0  0
  182.5230  175.9880  137.4160 C   0  0  2  0  0  3  0  0  0  0  0  0
  181.6650  178.0750  136.2100 C   0  0  0  0  0  2  0  0  0  0  0  0
  180.0260  175.2500  135.0520 C   0  0  1  0  0  3  0  0  0  0  0  0
  181.4150  173.4390  137.6000 C   0  0  0  0  0  2  0  0  0  0  0  0
  179.6780  172.2970  136.0740 C   0  0  0  0  0  2  0  0  0  0  0  0
  182.3170  179.0400  139.1640 C   0  0  0  0  0  1  0  0  0  0  0  0
  187.3770  174.9680  135.6540 C   0  0  0  0  0  0  0  0  0  0  0  0
  187.0030  175.0900  137.0140 C   0  0  0  0  0  3  0  0  0  0  0  0
  186.6480  175.7120  134.7060 C   0  0  0  0  0  3  0  0  0  0  0  0
  185.2990  176.7480  136.4550 C   0  0  0  0  0  0  0  0  0  0  0  0
  185.6620  176.5590  135.1160 C   0  0  0  0  0  3  0  0  0  0  0  0
  185.9720  175.9260  137.4170 C   0  0  0  0  0  3  0  0  0  0  0  0
  188.3200  172.6650  135.1820 C   0  0  0  0  0  3  0  0  0  0  0  0
  189.7460  174.5560  134.9060 C   0  0  0  0  0  3  0  0  0  0  0  0
  190.5710  173.4160  134.6930 N   0  0  0  0  0  0  0  0  0  0  0  0
  189.6910  172.2350  134.8240 C   0  0  0  0  0  3  0  0  0  0  0  0
  188.3960  174.1370  135.2390 N   0  0  0  0  0  0  0  0  0  0  0  0
  1  2  1  0  0  0  0
  2  3  1  0  0  0  0
  4  3  1  0  0  0  0
  5  2  1  0  0  0  0
  5  6  1  0  0  0  0
  6  7  1  6  0  0  0
  8  6  1  0  0  0  0
  9 10  2  0  0  0  0
  9  8  1  0  0  0  0
 11 21  1  6  0  0  0
 11 10  1  0  0  0  0
 13 12  1  6  0  0  0
 13 11  1  0  0  0  0
 14 13  1  0  0  0  0
 15 14  1  0  0  0  0
 16 13  1  0  0  0  0
 17 18  1  0  0  0  0
 18 16  1  1  0  0  0
 19 17  1  0  0  0  0
 19 18  1  0  0  0  0
 20 19  2  0  0  0  0
 21 22  1  0  0  0  0
 22 23  1  0  0  0  0
 23 24  1  0  0  0  0
 24 27  1  6  0  0  0
 24 25  1  0  0  0  0
 25 26  1  0  0  0  0
 27 28  1  0  0  0  0
 28 29  1  0  0  0  0
 29 30  1  0  0  0  0
 31 30  1  0  0  0  0
 32 33  1  0  0  0  0
 33 31  1  0  0  0  0
 34  1  1  0  0  0  0
 35 43  1  0  0  0  0
 35 47  2  0  0  0  0
 37 53  1  0  0  0  0
 38 51  1  1  0  0  0
 38 46  1  0  0  0  0
 38 50  1  0  0  0  0
 39 36  1  6  0  0  0
 40 36  1  1  0  0  0
 40 39  1  0  0  0  0
 40 51  1  0  0  0  0
 41 42  1  6  0  0  0
 41 50  1  0  0  0  0
 41 53  1  0  0  0  0
 43 55  1  6  0  0  0
 43 34  1  0  0  0  0
 44 49  1  0  0  0  0
 45 48  2  0  0  0  0
 45 43  1  0  0  0  0
 46 45  1  0  0  0  0
 49 54  1  0  0  0  0
 50 35  1  1  0  0  0
 52 44  1  1  0  0  0
 52 42  1  0  0  0  0
 52 39  1  0  0  0  0
 54 37  1  0  0  0  0
 56 57  1  0  0  0  0
 57 61  2  0  0  0  0
 58 60  1  0  0  0  0
 58 56  2  0  0  0  0
 59 46  1  0  0  0  0
 59 61  1  0  0  0  0
 60 59  2  0  0  0  0
 62 66  1  0  0  0  0
 63 66  1  0  0  0  0
 64 65  1  0  0  0  0
 64 63  2  0  0  0  0
 65 62  2  0  0  0  0
 66 56  1  0  0  0  0
M  END
>  <MODEL>
1

>  <REMARK>
 VINA RESULT:      -3.4      0.000      0.000
  Name = 
  26 active torsions:
  status: ('A' for Active; 'I' for Inactive)
    1  A    between atoms: N_1  and  C_4
    2  A    between atoms: N_1  and  C_23
    3  A    between atoms: N_1  and  C_24
    4  A    between atoms: C_2  and  C_55
    5  A    between atoms: C_3  and  N_34
    6  A    between atoms: C_3  and  C_52
    7  A    between atoms: C_4  and  C_12
    8  A    between atoms: C_5  and  C_7
    9  A    between atoms: C_5  and  C_23
   10  A    between atoms: C_7  and  C_26
   11  A    between atoms: C_11  and  C_52
   12  A    between atoms: C_11  and  C_55
   13  A    between atoms: C_11  and  C_60
   14  A    between atoms: C_12  and  C_38
   15  A    between atoms: C_14  and  N_37
   16  A    between atoms: C_15  and  C_28
   17  A    between atoms: C_15  and  O_59
   18  A    between atoms: C_22  and  O_56
   19  A    between atoms: C_28  and  S_31
   20  A    between atoms: S_31  and  C_46
   21  A    between atoms: N_34  and  C_40
   22  A    between atoms: C_35  and  N_45
   23  A    between atoms: C_40  and  C_42
   24  A    between atoms: C_40  and  C_44
   25  A    between atoms: C_44  and  C_46
   26  A    between atoms: C_55  and  O_56
                            x       y       z     vdW  Elec       q    Type
                         _______ _______ _______ _____ _____    ______ ____

>  <TORSDO>
F 26

$$$$
=
 OpenBabel11062411043D

 66 72  0  0  1  0  0  0  0  0999 V2000
  187.8870  177.1450  137.0490 C   0  0  0  0  0  2  0  0  0  0  0  0
  188.5450  177.1390  138.3350 N   0  0  0  0  0  0  0  0  0  0  0  0
  188.9650  178.5320  138.6750 C   0  0  0  0  0  2  0  0  0  0  0  0
  189.1230  179.3360  137.5530 O   0  0  0  0  0  1  0  0  0  0  0  0
  189.6140  176.1320  138.3460 C   0  0  0  0  0  2  0  0  0  0  0  0
  191.0010  176.7600  138.5250 C   0  0  2  0  0  3  0  0  0  0  0  0
  191.9410  176.6560  137.3070 C   0  0  0  0  0  1  0  0  0  0  0  0
  191.6090  176.4760  139.9470 C   0  0  0  0  0  2  0  0  0  0  0  0
  190.7520  177.0030  141.1280 C   0  0  0  0  0  3  0  0  0  0  0  0
  190.4080  176.3720  142.2600 C   0  0  0  0  0  3  0  0  0  0  0  0
  189.8150  177.2020  143.5020 C   0  0  2  0  0  3  0  0  0  0  0  0
  190.2310  178.3180  145.5700 O   0  0  0  0  0  1  0  0  0  0  0  0
  190.8540  177.7770  144.4180 C   0  0  2  0  0  0  0  0  0  0  0  0
  191.6720  178.7950  143.6500 C   0  0  0  0  0  2  0  0  0  0  0  0
  191.0860  180.2670  143.7240 C   0  0  0  0  0  1  0  0  0  0  0  0
  191.8140  176.7380  144.7840 O   0  0  0  0  0  0  0  0  0  0  0  0
  192.5100  174.9170  146.0460 C   0  0  0  0  0  2  0  0  0  0  0  0
  191.3340  175.7650  145.6610 C   0  0  1  0  0  3  0  0  0  0  0  0
  191.9850  175.9450  147.0470 C   0  0  0  0  0  0  0  0  0  0  0  0
  192.0790  176.5060  148.1410 O   0  0  0  0  0  0  0  0  0  0  0  0
  188.5230  176.5540  143.9790 C   0  0  0  0  0  2  0  0  0  0  0  0
  187.8500  176.2920  142.6830 C   0  0  0  0  0  2  0  0  0  0  0  0
  186.7000  177.1800  142.5090 N   0  0  0  0  0  2  0  0  0  0  0  0
  186.6370  178.2250  143.5220 C   0  0  1  0  0  3  0  0  0  0  0  0
  185.7040  179.2270  142.9340 C   0  0  0  0  0  2  0  0  0  0  0  0
  184.5440  178.5400  142.5590 O   0  0  0  0  0  1  0  0  0  0  0  0
  186.4910  177.7610  145.0050 C   0  0  0  0  0  2  0  0  0  0  0  0
  185.2980  178.3110  145.7940 C   0  0  0  0  0  2  0  0  0  0  0  0
  185.9430  179.4610  147.0030 S   0  0  0  0  0  0  0  0  0  0  0  0
  186.9800  178.2380  147.9170 C   0  0  0  0  0  2  0  0  0  0  0  0
  188.4700  178.4920  148.0140 C   0  0  0  0  0  2  0  0  0  0  0  0
  188.3750  176.3940  147.7560 O   0  0  0  0  0  1  0  0  0  0  0  0
  189.1650  177.3050  148.2440 O   0  0  0  0  0  0  0  0  0  0  0  0
  186.3910  176.5370  137.0820 C   0  0  0  0  0  2  0  0  0  0  0  0
  184.2750  177.4550  138.2860 C   0  0  0  0  0  0  0  0  0  0  0  0
  181.3660  181.8780  137.6630 C   0  0  0  0  0  2  0  0  0  0  0  0
  181.3980  178.5080  141.6620 C   0  0  0  0  0  2  0  0  0  0  0  0
  182.2510  178.0810  136.9230 C   0  0  1  0  0  3  0  0  0  0  0  0
  181.5110  180.7510  138.7240 C   0  0  2  0  0  3  0  0  0  0  0  0
  181.3030  180.4430  137.2370 C   0  0  2  0  0  3  0  0  0  0  0  0
  181.5480  177.5780  139.3950 C   0  0  1  0  0  3  0  0  0  0  0  0
  180.2490  178.3760  139.1220 C   0  0  0  0  0  2  0  0  0  0  0  0
  185.1170  177.4220  136.9920 C   0  0  2  0  0  0  0  0  0  0  0  0
  179.5630  180.5620  140.4650 C   0  0  0  0  0  2  0  0  0  0  0  0
  184.1860  176.9670  135.8060 C   0  0  0  0  0  0  0  0  0  0  0  0
  182.7790  177.1220  135.9160 N   0  0  0  0  0  0  0  0  0  0  0  0
  184.8540  177.6200  139.3840 O   0  0  0  0  0  0  0  0  0  0  0  0
  184.6450  176.2700  134.8880 O   0  0  0  0  0  0  0  0  0  0  0  0
  178.9320  179.5590  141.5000 C   0  0  0  0  0  2  0  0  0  0  0  0
  182.7130  177.5980  138.2870 C   0  0  2  0  0  3  0  0  0  0  0  0
  182.5600  179.6180  136.7260 C   0  0  0  0  0  2  0  0  0  0  0  0
  180.3330  179.9550  139.3590 C   0  0  1  0  0  3  0  0  0  0  0  0
  181.7990  177.2760  140.8990 C   0  0  0  0  0  2  0  0  0  0  0  0
  179.9770  178.5880  142.1680 C   0  0  0  0  0  2  0  0  0  0  0  0
  185.6200  178.7720  136.6810 C   0  0  0  0  0  1  0  0  0  0  0  0
  180.9510  173.2560  135.8570 C   0  0  0  0  0  0  0  0  0  0  0  0
  180.6500  174.1930  134.8380 C   0  0  0  0  0  3  0  0  0  0  0  0
  181.8810  173.6370  136.8420 C   0  0  0  0  0  3  0  0  0  0  0  0
  182.1010  175.8650  135.8730 C   0  0  0  0  0  0  0  0  0  0  0  0
  182.4140  174.8920  136.8300 C   0  0  0  0  0  3  0  0  0  0  0  0
  181.2270  175.4550  134.8130 C   0  0  0  0  0  3  0  0  0  0  0  0
  180.5030  170.9880  134.8200 C   0  0  0  0  0  3  0  0  0  0  0  0
  179.4980  171.4970  136.9230 C   0  0  0  0  0  3  0  0  0  0  0  0
  178.9760  170.2290  136.5420 N   0  0  0  0  0  0  0  0  0  0  0  0
  179.6200  169.8820  135.2560 C   0  0  0  0  0  3  0  0  0  0  0  0
  180.3890  171.9980  135.8910 N   0  0  0  0  0  0  0  0  0  0  0  0
  1 34  1  0  0  0  0
  1  2  1  0  0  0  0
  2  5  1  0  0  0  0
  2  3  1  0  0  0  0
  4  3  1  0  0  0  0
  5  6  1  0  0  0  0
  6  7  1  6  0  0  0
  6  8  1  0  0  0  0
  8  9  1  0  0  0  0
  9 10  2  0  0  0  0
 11 10  1  1  0  0  0
 11 21  1  0  0  0  0
 11 13  1  0  0  0  0
 13 16  1  0  0  0  0
 13 12  1  1  0  0  0
 14 15  1  0  0  0  0
 14 13  1  0  0  0  0
 17 19  1  0  0  0  0
 18 16  1  6  0  0  0
 18 17  1  0  0  0  0
 18 19  1  0  0  0  0
 19 20  2  0  0  0  0
 22 21  1  0  0  0  0
 23 22  1  0  0  0  0
 23 24  1  0  0  0  0
 24 25  1  6  0  0  0
 24 27  1  0  0  0  0
 26 25  1  0  0  0  0
 27 28  1  0  0  0  0
 28 29  1  0  0  0  0
 29 30  1  0  0  0  0
 30 31  1  0  0  0  0
 31 33  1  0  0  0  0
 32 33  1  0  0  0  0
 35 47  2  0  0  0  0
 37 54  1  0  0  0  0
 38 51  1  6  0  0  0
 38 50  1  0  0  0  0
 39 36  1  6  0  0  0
 39 52  1  0  0  0  0
 40 51  1  6  0  0  0
 40 36  1  0  0  0  0
 40 39  1  0  0  0  0
 41 42  1  1  0  0  0
 41 53  1  0  0  0  0
 43 55  1  6  0  0  0
 43 34  1  0  0  0  0
 43 35  1  0  0  0  0
 44 49  1  0  0  0  0
 45 46  1  0  0  0  0
 45 43  1  0  0  0  0
 46 38  1  0  0  0  0
 48 45  2  0  0  0  0
 49 54  1  0  0  0  0
 50 35  1  1  0  0  0
 50 41  1  0  0  0  0
 52 42  1  1  0  0  0
 52 44  1  0  0  0  0
 53 37  1  0  0  0  0
 56 66  1  0  0  0  0
 56 58  1  0  0  0  0
 57 56  2  0  0  0  0
 59 46  1  0  0  0  0
 59 60  1  0  0  0  0
 60 58  2  0  0  0  0
 61 57  1  0  0  0  0
 61 59  2  0  0  0  0
 62 65  2  0  0  0  0
 62 66  1  0  0  0  0
 64 63  2  0  0  0  0
 65 64  1  0  0  0  0
 66 63  1  0  0  0  0
M  END
>  <MODEL>
2

>  <REMARK>
 VINA RESULT:      -3.4      2.592      6.153
  Name = 
  26 active torsions:
  status: ('A' for Active; 'I' for Inactive)
    1  A    between atoms: N_1  and  C_4
    2  A    between atoms: N_1  and  C_23
    3  A    between atoms: N_1  and  C_24
    4  A    between atoms: C_2  and  C_55
    5  A    between atoms: C_3  and  N_34
    6  A    between atoms: C_3  and  C_52
    7  A    between atoms: C_4  and  C_12
    8  A    between atoms: C_5  and  C_7
    9  A    between atoms: C_5  and  C_23
   10  A    between atoms: C_7  and  C_26
   11  A    between atoms: C_11  and  C_52
   12  A    between atoms: C_11  and  C_55
   13  A    between atoms: C_11  and  C_60
   14  A    between atoms: C_12  and  C_38
   15  A    between atoms: C_14  and  N_37
   16  A    between atoms: C_15  and  C_28
   17  A    between atoms: C_15  and  O_59
   18  A    between atoms: C_22  and  O_56
   19  A    between atoms: C_28  and  S_31
   20  A    between atoms: S_31  and  C_46
   21  A    between atoms: N_34  and  C_40
   22  A    between atoms: C_35  and  N_45
   23  A    between atoms: C_40  and  C_42
   24  A    between atoms: C_40  and  C_44
   25  A    between atoms: C_44  and  C_46
   26  A    between atoms: C_55  and  O_56
                            x       y       z     vdW  Elec       q    Type
                         _______ _______ _______ _____ _____    ______ ____

>  <TORSDO>
F 26

$$$$
=
 OpenBabel11062411043D

 66 72  0  0  1  0  0  0  0  0999 V2000
  183.2670  177.7250  141.5420 C   0  0  0  0  0  2  0  0  0  0  0  0
  182.6050  178.4600  142.5940 N   0  0  0  0  0  0  0  0  0  0  0  0
  181.4300  179.1840  142.0200 C   0  0  0  0  0  2  0  0  0  0  0  0
  180.3250  178.3600  141.8440 O   0  0  0  0  0  1  0  0  0  0  0  0
  183.5790  179.2970  143.3080 C   0  0  0  0  0  2  0  0  0  0  0  0
  185.0250  178.9460  142.9430 C   0  0  2  0  0  3  0  0  0  0  0  0
  185.6250  179.7390  141.7640 C   0  0  0  0  0  1  0  0  0  0  0  0
  185.3000  177.3990  143.0020 C   0  0  0  0  0  2  0  0  0  0  0  0
  186.7770  177.0200  143.2880 C   0  0  0  0  0  3  0  0  0  0  0  0
  187.8930  177.5400  142.7580 C   0  0  0  0  0  3  0  0  0  0  0  0
  189.3220  177.2540  143.4360 C   0  0  2  0  0  3  0  0  0  0  0  0
  190.5670  175.2980  142.8740 O   0  0  0  0  0  1  0  0  0  0  0  0
  190.3360  176.6480  142.5120 C   0  0  2  0  0  0  0  0  0  0  0  0
  191.5920  177.4950  142.5430 C   0  0  0  0  0  2  0  0  0  0  0  0
  191.6580  178.4870  143.7780 C   0  0  0  0  0  1  0  0  0  0  0  0
  189.8640  176.7440  141.1320 O   0  0  0  0  0  0  0  0  0  0  0  0
  190.9480  176.4400  139.1010 C   0  0  0  0  0  2  0  0  0  0  0  0
  190.7340  177.3830  140.2490 C   0  0  1  0  0  3  0  0  0  0  0  0
  190.0190  177.6370  138.9060 C   0  0  0  0  0  0  0  0  0  0  0  0
  189.2430  178.2740  138.1890 O   0  0  0  0  0  0  0  0  0  0  0  0
  189.1240  176.8260  144.8820 C   0  0  0  0  0  2  0  0  0  0  0  0
  188.6950  178.1090  145.4940 C   0  0  0  0  0  2  0  0  0  0  0  0
  187.2660  178.0790  145.8090 N   0  0  0  0  0  2  0  0  0  0  0  0
  186.9870  178.4210  147.1970 C   0  0  1  0  0  3  0  0  0  0  0  0
  185.5850  178.9210  147.1600 C   0  0  0  0  0  2  0  0  0  0  0  0
  185.4520  179.6920  145.9990 O   0  0  0  0  0  1  0  0  0  0  0  0
  187.4490  177.3960  148.2810 C   0  0  0  0  0  2  0  0  0  0  0  0
  188.8530  176.8010  148.1250 C   0  0  0  0  0  2  0  0  0  0  0  0
  190.0170  178.0150  148.7330 S   0  0  0  0  0  0  0  0  0  0  0  0
  191.5010  177.3200  147.8840 C   0  0  0  0  0  2  0  0  0  0  0  0
  191.4180  175.9130  147.3290 C   0  0  0  0  0  2  0  0  0  0  0  0
  192.3190  174.5800  145.9570 O   0  0  0  0  0  1  0  0  0  0  0  0
  192.6460  175.5070  146.8080 O   0  0  0  0  0  0  0  0  0  0  0  0
  183.5160  178.5920  140.2010 C   0  0  0  0  0  2  0  0  0  0  0  0
  182.3070  176.7930  138.7620 C   0  0  0  0  0  0  0  0  0  0  0  0
  178.9970  177.0890  134.5950 C   0  0  0  0  0  2  0  0  0  0  0  0
  179.9890  173.0100  137.7120 C   0  0  0  0  0  2  0  0  0  0  0  0
  182.5890  176.8170  136.2590 C   0  0  1  0  0  3  0  0  0  0  0  0
  179.4510  176.0050  135.6120 C   0  0  2  0  0  3  0  0  0  0  0  0
  180.4570  176.8600  134.8330 C   0  0  2  0  0  3  0  0  0  0  0  0
  181.8860  174.4250  137.0600 C   0  0  1  0  0  3  0  0  0  0  0  0
  181.4300  174.1410  135.6070 C   0  0  0  0  0  2  0  0  0  0  0  0
  182.8930  178.2190  138.8270 C   0  0  2  0  0  0  0  0  0  0  0  0
  178.9310  173.5250  134.9490 C   0  0  0  0  0  2  0  0  0  0  0  0
  183.9410  178.3780  137.6610 C   0  0  0  0  0  0  0  0  0  0  0  0
  183.8690  177.5250  136.5290 N   0  0  0  0  0  0  0  0  0  0  0  0
  181.5830  176.3900  139.7010 O   0  0  0  0  0  0  0  0  0  0  0  0
  184.9550  179.0720  137.8280 O   0  0  0  0  0  0  0  0  0  0  0  0
  179.3550  172.0480  135.2870 C   0  0  0  0  0  2  0  0  0  0  0  0
  182.3100  175.9240  137.4560 C   0  0  2  0  0  3  0  0  0  0  0  0
  181.3210  177.6820  135.8820 C   0  0  0  0  0  2  0  0  0  0  0  0
  179.9330  174.5710  135.2440 C   0  0  1  0  0  3  0  0  0  0  0  0
  181.3990  173.3700  138.0920 C   0  0  0  0  0  2  0  0  0  0  0  0
  179.7910  171.8340  136.7850 C   0  0  0  0  0  2  0  0  0  0  0  0
  181.8280  179.2150  138.6160 C   0  0  0  0  0  1  0  0  0  0  0  0
  187.4550  175.2630  135.9690 C   0  0  0  0  0  0  0  0  0  0  0  0
  186.2170  174.5940  136.1290 C   0  0  0  0  0  3  0  0  0  0  0  0
  187.4410  176.6710  135.9690 C   0  0  0  0  0  3  0  0  0  0  0  0
  185.0400  176.7180  136.3950 C   0  0  0  0  0  0  0  0  0  0  0  0
  186.2740  177.3430  136.1790 C   0  0  0  0  0  3  0  0  0  0  0  0
  185.0280  175.2870  136.3030 C   0  0  0  0  0  3  0  0  0  0  0  0
  188.7660  173.1340  135.5640 C   0  0  0  0  0  3  0  0  0  0  0  0
  189.9700  175.1630  135.9090 C   0  0  0  0  0  3  0  0  0  0  0  0
  190.9550  174.1380  135.8330 N   0  0  0  0  0  0  0  0  0  0  0  0
  190.2240  172.8770  135.5810 C   0  0  0  0  0  3  0  0  0  0  0  0
  188.6420  174.5870  135.7890 N   0  0  0  0  0  0  0  0  0  0  0  0
  1  2  1  0  0  0  0
  2  5  1  0  0  0  0
  3  2  1  0  0  0  0
  4  3  1  0  0  0  0
  6  7  1  6  0  0  0
  6  8  1  0  0  0  0
  6  5  1  0  0  0  0
  8  9  1  0  0  0  0
 10  9  2  0  0  0  0
 11 10  1  6  0  0  0
 11 21  1  0  0  0  0
 13 14  1  0  0  0  0
 13 12  1  1  0  0  0
 13 11  1  0  0  0  0
 14 15  1  0  0  0  0
 16 13  1  0  0  0  0
 17 18  1  0  0  0  0
 18 16  1  1  0  0  0
 19 17  1  0  0  0  0
 19 18  1  0  0  0  0
 20 19  2  0  0  0  0
 21 22  1  0  0  0  0
 22 23  1  0  0  0  0
 23 24  1  0  0  0  0
 24 25  1  6  0  0  0
 24 27  1  0  0  0  0
 26 25  1  0  0  0  0
 28 27  1  0  0  0  0
 28 29  1  0  0  0  0
 30 29  1  0  0  0  0
 31 30  1  0  0  0  0
 32 33  1  0  0  0  0
 33 31  1  0  0  0  0
 34  1  1  0  0  0  0
 35 43  1  0  0  0  0
 35 47  2  0  0  0  0
 37 53  1  0  0  0  0
 38 51  1  1  0  0  0
 38 46  1  0  0  0  0
 38 50  1  0  0  0  0
 39 36  1  6  0  0  0
 40 36  1  6  0  0  0
 40 39  1  0  0  0  0
 40 51  1  0  0  0  0
 41 42  1  6  0  0  0
 41 50  1  0  0  0  0
 41 53  1  0  0  0  0
 43 55  1  6  0  0  0
 43 34  1  0  0  0  0
 44 49  1  0  0  0  0
 45 48  2  0  0  0  0
 45 43  1  0  0  0  0
 46 45  1  0  0  0  0
 49 54  1  0  0  0  0
 50 35  1  6  0  0  0
 52 44  1  1  0  0  0
 52 42  1  0  0  0  0
 52 39  1  0  0  0  0
 54 37  1  0  0  0  0
 56 58  2  0  0  0  0
 56 57  1  0  0  0  0
 57 61  2  0  0  0  0
 58 60  1  0  0  0  0
 59 46  1  0  0  0  0
 60 59  2  0  0  0  0
 61 59  1  0  0  0  0
 62 65  2  0  0  0  0
 62 66  1  0  0  0  0
 64 63  2  0  0  0  0
 65 64  1  0  0  0  0
 66 63  1  0  0  0  0
 66 56  1  0  0  0  0
M  END
>  <MODEL>
3

>  <REMARK>
 VINA RESULT:      -2.8      1.432      2.916
  Name = 
  26 active torsions:
  status: ('A' for Active; 'I' for Inactive)
    1  A    between atoms: N_1  and  C_4
    2  A    between atoms: N_1  and  C_23
    3  A    between atoms: N_1  and  C_24
    4  A    between atoms: C_2  and  C_55
    5  A    between atoms: C_3  and  N_34
    6  A    between atoms: C_3  and  C_52
    7  A    between atoms: C_4  and  C_12
    8  A    between atoms: C_5  and  C_7
    9  A    between atoms: C_5  and  C_23
   10  A    between atoms: C_7  and  C_26
   11  A    between atoms: C_11  and  C_52
   12  A    between atoms: C_11  and  C_55
   13  A    between atoms: C_11  and  C_60
   14  A    between atoms: C_12  and  C_38
   15  A    between atoms: C_14  and  N_37
   16  A    between atoms: C_15  and  C_28
   17  A    between atoms: C_15  and  O_59
   18  A    between atoms: C_22  and  O_56
   19  A    between atoms: C_28  and  S_31
   20  A    between atoms: S_31  and  C_46
   21  A    between atoms: N_34  and  C_40
   22  A    between atoms: C_35  and  N_45
   23  A    between atoms: C_40  and  C_42
   24  A    between atoms: C_40  and  C_44
   25  A    between atoms: C_44  and  C_46
   26  A    between atoms: C_55  and  O_56
                            x       y       z     vdW  Elec       q    Type
                         _______ _______ _______ _____ _____    ______ ____

>  <TORSDO>
F 26

$$$$
=
 OpenBabel11062411043D

 66 72  0  0  1  0  0  0  0  0999 V2000
  183.5350  177.5950  142.3010 C   0  0  0  0  0  2  0  0  0  0  0  0
  183.9960  178.3360  143.4520 N   0  0  0  0  0  0  0  0  0  0  0  0
  183.4480  179.7250  143.3900 C   0  0  0  0  0  2  0  0  0  0  0  0
  182.0760  179.7730  143.6100 O   0  0  0  0  0  1  0  0  0  0  0  0
  185.4580  178.2350  143.5600 C   0  0  0  0  0  2  0  0  0  0  0  0
  185.9030  177.6910  144.9230 C   0  0  2  0  0  3  0  0  0  0  0  0
  186.0870  178.7460  146.0320 C   0  0  0  0  0  1  0  0  0  0  0  0
  186.9930  176.5660  144.7920 C   0  0  0  0  0  2  0  0  0  0  0  0
  187.9530  176.7400  143.5850 C   0  0  0  0  0  3  0  0  0  0  0  0
  188.7630  177.7700  143.3010 C   0  0  0  0  0  3  0  0  0  0  0  0
  189.9240  177.6080  142.2020 C   0  0  2  0  0  3  0  0  0  0  0  0
  189.1340  179.5110  140.9990 O   0  0  0  0  0  1  0  0  0  0  0  0
  189.5880  178.1770  140.8560 C   0  0  2  0  0  0  0  0  0  0  0  0
  188.5750  177.2730  140.1840 C   0  0  0  0  0  2  0  0  0  0  0  0
  188.2810  177.6600  138.6740 C   0  0  0  0  0  1  0  0  0  0  0  0
  190.7630  178.1170  139.9890 O   0  0  0  0  0  0  0  0  0  0  0  0
  191.8260  176.5510  138.6430 C   0  0  0  0  0  2  0  0  0  0  0  0
  191.4930  176.9300  140.0570 C   0  0  1  0  0  3  0  0  0  0  0  0
  192.9190  177.1630  139.5180 C   0  0  0  0  0  0  0  0  0  0  0  0
  194.0750  177.5720  139.6420 O   0  0  0  0  0  0  0  0  0  0  0  0
  190.6440  176.2840  142.4120 C   0  0  0  0  0  2  0  0  0  0  0  0
  191.5950  176.6540  143.4910 C   0  0  0  0  0  2  0  0  0  0  0  0
  191.6600  175.6020  144.5040 N   0  0  0  0  0  2  0  0  0  0  0  0
  191.0060  175.9770  145.7510 C   0  0  1  0  0  3  0  0  0  0  0  0
  191.3720  174.8760  146.6840 C   0  0  0  0  0  2  0  0  0  0  0  0
  190.4690  174.9230  147.7520 O   0  0  0  0  0  1  0  0  0  0  0  0
  191.1220  177.4730  146.1840 C   0  0  0  0  0  2  0  0  0  0  0  0
  189.8240  178.1860  146.5790 C   0  0  0  0  0  2  0  0  0  0  0  0
  189.7700  178.2420  148.3660 S   0  0  0  0  0  0  0  0  0  0  0  0
  191.3650  177.3560  148.6480 C   0  0  0  0  0  2  0  0  0  0  0  0
  192.3110  177.8980  149.6980 C   0  0  0  0  0  2  0  0  0  0  0  0
  193.4310  176.4690  148.6120 O   0  0  0  0  0  1  0  0  0  0  0  0
  193.5900  177.3630  149.5430 O   0  0  0  0  0  0  0  0  0  0  0  0
  184.2620  178.0190  140.9230 C   0  0  0  0  0  2  0  0  0  0  0  0
  182.8110  176.7080  139.2060 C   0  0  0  0  0  0  0  0  0  0  0  0
  179.3170  178.2330  135.4810 C   0  0  0  0  0  2  0  0  0  0  0  0
  180.0940  173.4710  137.4980 C   0  0  0  0  0  2  0  0  0  0  0  0
  182.9550  177.2970  136.7610 C   0  0  1  0  0  3  0  0  0  0  0  0
  179.7230  176.9080  136.1860 C   0  0  2  0  0  3  0  0  0  0  0  0
  180.7610  177.8390  135.5490 C   0  0  2  0  0  3  0  0  0  0  0  0
  182.0760  174.8460  137.0440 C   0  0  1  0  0  3  0  0  0  0  0  0
  181.5150  174.9470  135.6040 C   0  0  0  0  0  2  0  0  0  0  0  0
  183.5320  178.0290  139.5510 C   0  0  2  0  0  0  0  0  0  0  0  0
  178.9370  174.7010  135.0150 C   0  0  0  0  0  2  0  0  0  0  0  0
  184.5240  178.3740  138.3760 C   0  0  0  0  0  0  0  0  0  0  0  0
  184.3090  177.8190  137.0880 N   0  0  0  0  0  0  0  0  0  0  0  0
  182.1060  176.1550  140.0810 O   0  0  0  0  0  0  0  0  0  0  0  0
  185.6060  178.9280  138.6200 O   0  0  0  0  0  0  0  0  0  0  0  0
  179.2380  173.1580  134.9720 C   0  0  0  0  0  2  0  0  0  0  0  0
  182.6600  176.1720  137.7400 C   0  0  2  0  0  3  0  0  0  0  0  0
  181.7540  178.3220  136.6890 C   0  0  0  0  0  2  0  0  0  0  0  0
  180.0470  175.5670  135.4640 C   0  0  1  0  0  3  0  0  0  0  0  0
  181.5500  173.6200  137.8420 C   0  0  0  0  0  2  0  0  0  0  0  0
  179.7340  172.5650  136.3440 C   0  0  0  0  0  2  0  0  0  0  0  0
  182.5550  179.1280  139.6550 C   0  0  0  0  0  1  0  0  0  0  0  0
  187.6080  175.2800  136.1080 C   0  0  0  0  0  0  0  0  0  0  0  0
  187.2860  176.3730  135.2670 C   0  0  0  0  0  3  0  0  0  0  0  0
  186.8310  175.0970  137.2690 C   0  0  0  0  0  3  0  0  0  0  0  0
  185.3890  176.9760  136.6840 C   0  0  0  0  0  0  0  0  0  0  0  0
  185.7730  175.9190  137.5190 C   0  0  0  0  0  3  0  0  0  0  0  0
  186.2300  177.2280  135.5510 C   0  0  0  0  0  3  0  0  0  0  0  0
  188.7350  173.0170  136.2720 C   0  0  0  0  0  3  0  0  0  0  0  0
  189.9070  174.7970  135.2010 C   0  0  0  0  0  3  0  0  0  0  0  0
  190.8210  173.7080  135.2500 N   0  0  0  0  0  0  0  0  0  0  0  0
  190.0940  172.5830  135.8780 C   0  0  0  0  0  3  0  0  0  0  0  0
  188.6570  174.4270  135.8410 N   0  0  0  0  0  0  0  0  0  0  0  0
  1  2  1  0  0  0  0
  2  5  1  0  0  0  0
  3  2  1  0  0  0  0
  3  4  1  0  0  0  0
  5  6  1  0  0  0  0
  6  7  1  1  0  0  0
  8  6  1  0  0  0  0
  9  8  1  0  0  0  0
 10  9  2  0  0  0  0
 11 21  1  6  0  0  0
 11 10  1  0  0  0  0
 13 12  1  1  0  0  0
 13 11  1  0  0  0  0
 14 13  1  0  0  0  0
 15 14  1  0  0  0  0
 16 13  1  0  0  0  0
 17 19  1  0  0  0  0
 17 18  1  0  0  0  0
 18 16  1  6  0  0  0
 19 20  2  0  0  0  0
 19 18  1  0  0  0  0
 21 22  1  0  0  0  0
 22 23  1  0  0  0  0
 23 24  1  0  0  0  0
 24 27  1  1  0  0  0
 24 25  1  0  0  0  0
 25 26  1  0  0  0  0
 27 28  1  0  0  0  0
 28 29  1  0  0  0  0
 29 30  1  0  0  0  0
 30 31  1  0  0  0  0
 32 33  1  0  0  0  0
 33 31  1  0  0  0  0
 34  1  1  0  0  0  0
 35 43  1  0  0  0  0
 35 47  2  0  0  0  0
 37 53  1  0  0  0  0
 38 51  1  1  0  0  0
 38 46  1  0  0  0  0
 38 50  1  0  0  0  0
 39 36  1  6  0  0  0
 40 36  1  1  0  0  0
 40 39  1  0  0  0  0
 40 51  1  0  0  0  0
 41 42  1  1  0  0  0
 41 50  1  0  0  0  0
 41 53  1  0  0  0  0
 43 55  1  1  0  0  0
 43 34  1  0  0  0  0
 45 48  2  0  0  0  0
 45 43  1  0  0  0  0
 46 45  1  0  0  0  0
 49 44  1  0  0  0  0
 49 54  1  0  0  0  0
 50 35  1  1  0  0  0
 52 44  1  1  0  0  0
 52 42  1  0  0  0  0
 52 39  1  0  0  0  0
 54 37  1  0  0  0  0
 56 58  1  0  0  0  0
 57 61  1  0  0  0  0
 57 56  2  0  0  0  0
 58 60  2  0  0  0  0
 59 46  1  0  0  0  0
 59 60  1  0  0  0  0
 61 59  2  0  0  0  0
 63 64  2  0  0  0  0
 63 66  1  0  0  0  0
 64 65  1  0  0  0  0
 65 62  2  0  0  0  0
 66 56  1  0  0  0  0
 66 62  1  0  0  0  0
M  END
>  <MODEL>
4

>  <REMARK>
 VINA RESULT:      -2.0      1.375      2.089
  Name = 
  26 active torsions:
  status: ('A' for Active; 'I' for Inactive)
    1  A    between atoms: N_1  and  C_4
    2  A    between atoms: N_1  and  C_23
    3  A    between atoms: N_1  and  C_24
    4  A    between atoms: C_2  and  C_55
    5  A    between atoms: C_3  and  N_34
    6  A    between atoms: C_3  and  C_52
    7  A    between atoms: C_4  and  C_12
    8  A    between atoms: C_5  and  C_7
    9  A    between atoms: C_5  and  C_23
   10  A    between atoms: C_7  and  C_26
   11  A    between atoms: C_11  and  C_52
   12  A    between atoms: C_11  and  C_55
   13  A    between atoms: C_11  and  C_60
   14  A    between atoms: C_12  and  C_38
   15  A    between atoms: C_14  and  N_37
   16  A    between atoms: C_15  and  C_28
   17  A    between atoms: C_15  and  O_59
   18  A    between atoms: C_22  and  O_56
   19  A    between atoms: C_28  and  S_31
   20  A    between atoms: S_31  and  C_46
   21  A    between atoms: N_34  and  C_40
   22  A    between atoms: C_35  and  N_45
   23  A    between atoms: C_40  and  C_42
   24  A    between atoms: C_40  and  C_44
   25  A    between atoms: C_44  and  C_46
   26  A    between atoms: C_55  and  O_56
                            x       y       z     vdW  Elec       q    Type
                         _______ _______ _______ _____ _____    ______ ____

>  <TORSDO>
F 26

$$$$
=
 OpenBabel11062411043D

 66 72  0  0  1  0  0  0  0  0999 V2000
  185.7200  175.9990  136.2350 C   0  0  0  0  0  2  0  0  0  0  0  0
  187.1270  176.2810  136.0670 N   0  0  0  0  0  0  0  0  0  0  0  0
  187.2850  177.6380  135.4630 C   0  0  0  0  0  2  0  0  0  0  0  0
  188.0690  178.4840  136.2380 O   0  0  0  0  0  1  0  0  0  0  0  0
  187.7740  175.1810  135.3380 C   0  0  0  0  0  2  0  0  0  0  0  0
  187.3180  173.8060  135.8370 C   0  0  2  0  0  3  0  0  0  0  0  0
  185.8740  173.7370  136.3720 C   0  0  0  0  0  1  0  0  0  0  0  0
  188.4390  173.0630  136.6510 C   0  0  0  0  0  2  0  0  0  0  0  0
  189.6690  173.9420  137.0000 C   0  0  0  0  0  3  0  0  0  0  0  0
  190.9000  173.9070  136.4690 C   0  0  0  0  0  3  0  0  0  0  0  0
  191.9240  175.1210  136.7180 C   0  0  2  0  0  3  0  0  0  0  0  0
  192.9190  174.4580  134.6530 O   0  0  0  0  0  1  0  0  0  0  0  0
  193.1880  175.0410  135.9160 C   0  0  2  0  0  0  0  0  0  0  0  0
  194.2250  174.2790  136.7140 C   0  0  0  0  0  2  0  0  0  0  0  0
  193.6880  172.9120  137.3110 C   0  0  0  0  0  1  0  0  0  0  0  0
  193.7570  176.3780  135.7610 O   0  0  0  0  0  0  0  0  0  0  0  0
  195.7650  176.2860  134.5960 C   0  0  0  0  0  2  0  0  0  0  0  0
  195.1370  176.4640  135.9480 C   0  0  1  0  0  3  0  0  0  0  0  0
  195.6900  177.6900  135.1940 C   0  0  0  0  0  0  0  0  0  0  0  0
  195.8950  178.9020  135.0890 O   0  0  0  0  0  0  0  0  0  0  0  0
  191.8670  175.5460  138.1790 C   0  0  0  0  0  2  0  0  0  0  0  0
  191.2480  176.8900  138.0520 C   0  0  0  0  0  2  0  0  0  0  0  0
  189.9470  176.9230  138.7200 N   0  0  0  0  0  2  0  0  0  0  0  0
  189.8710  177.9430  139.7570 C   0  0  1  0  0  3  0  0  0  0  0  0
  188.4180  178.2610  139.8310 C   0  0  0  0  0  2  0  0  0  0  0  0
  188.2490  179.1820  140.8710 O   0  0  0  0  0  1  0  0  0  0  0  0
  190.7080  177.6930  141.0520 C   0  0  0  0  0  2  0  0  0  0  0  0
  190.4710  176.3730  141.7920 C   0  0  0  0  0  2  0  0  0  0  0  0
  191.1360  176.5600  143.4420 S   0  0  0  0  0  0  0  0  0  0  0  0
  189.7710  177.6150  144.0960 C   0  0  0  0  0  2  0  0  0  0  0  0
  188.7580  176.9810  145.0270 C   0  0  0  0  0  2  0  0  0  0  0  0
  189.3830  177.9860  146.7810 O   0  0  0  0  0  1  0  0  0  0  0  0
  189.3020  176.7820  146.2960 O   0  0  0  0  0  0  0  0  0  0  0  0
  184.8290  177.3090  136.5510 C   0  0  0  0  0  2  0  0  0  0  0  0
  183.3970  177.5090  138.7140 C   0  0  0  0  0  0  0  0  0  0  0  0
  184.6200  178.4710  143.8110 C   0  0  0  0  0  2  0  0  0  0  0  0
  180.1720  176.5920  141.8030 C   0  0  0  0  0  2  0  0  0  0  0  0
  183.5940  179.5750  140.1410 C   0  0  1  0  0  3  0  0  0  0  0  0
  183.3890  177.9560  143.0140 C   0  0  2  0  0  3  0  0  0  0  0  0
  184.1240  179.2440  142.6280 C   0  0  2  0  0  3  0  0  0  0  0  0
  181.2950  178.3990  140.5770 C   0  0  1  0  0  3  0  0  0  0  0  0
  181.2220  179.1760  141.9140 C   0  0  0  0  0  2  0  0  0  0  0  0
  184.6910  177.9130  137.9760 C   0  0  2  0  0  0  0  0  0  0  0  0
  181.1010  177.9940  144.2910 C   0  0  0  0  0  2  0  0  0  0  0  0
  184.7710  179.4870  137.9410 C   0  0  0  0  0  0  0  0  0  0  0  0
  184.0470  180.2490  138.8940 N   0  0  0  0  0  0  0  0  0  0  0  0
  183.0430  176.3080  138.7040 O   0  0  0  0  0  0  0  0  0  0  0  0
  185.2650  180.0620  136.9600 O   0  0  0  0  0  0  0  0  0  0  0  0
  179.5500  177.9510  144.0340 C   0  0  0  0  0  2  0  0  0  0  0  0
  182.6590  178.4510  139.7280 C   0  0  2  0  0  3  0  0  0  0  0  0
  184.6910  179.0630  141.1560 C   0  0  0  0  0  2  0  0  0  0  0  0
  181.9320  178.4820  143.1690 C   0  0  1  0  0  3  0  0  0  0  0  0
  180.2520  177.2530  140.4540 C   0  0  0  0  0  2  0  0  0  0  0  0
  179.1340  177.1030  142.7740 C   0  0  0  0  0  2  0  0  0  0  0  0
  185.8690  177.4170  138.7090 C   0  0  0  0  0  1  0  0  0  0  0  0
  181.1380  182.8970  137.2160 C   0  0  0  0  0  0  0  0  0  0  0  0
  180.9310  181.4980  137.1610 C   0  0  0  0  0  3  0  0  0  0  0  0
  182.2990  183.3620  137.8640 C   0  0  0  0  0  3  0  0  0  0  0  0
  183.0660  181.0830  138.2740 C   0  0  0  0  0  0  0  0  0  0  0  0
  183.2080  182.4730  138.3570 C   0  0  0  0  0  3  0  0  0  0  0  0
  181.8430  180.6020  137.7000 C   0  0  0  0  0  3  0  0  0  0  0  0
  179.7440  183.7910  135.2990 C   0  0  0  0  0  3  0  0  0  0  0  0
  179.7180  184.9710  137.3710 C   0  0  0  0  0  3  0  0  0  0  0  0
  178.9550  185.7620  136.4660 N   0  0  0  0  0  0  0  0  0  0  0  0
  178.9310  185.0220  135.1850 C   0  0  0  0  0  3  0  0  0  0  0  0
  180.2380  183.7980  136.6890 N   0  0  0  0  0  0  0  0  0  0  0  0
  1 34  1  0  0  0  0
  2  1  1  0  0  0  0
  3  2  1  0  0  0  0
  3  4  1  0  0  0  0
  5  6  1  0  0  0  0
  5  2  1  0  0  0  0
  6  7  1  1  0  0  0
  6  8  1  0  0  0  0
  8  9  1  0  0  0  0
 10  9  2  0  0  0  0
 11 10  1  1  0  0  0
 11 21  1  0  0  0  0
 13 12  1  6  0  0  0
 13 14  1  0  0  0  0
 13 11  1  0  0  0  0
 14 15  1  0  0  0  0
 16 13  1  0  0  0  0
 17 19  1  0  0  0  0
 17 18  1  0  0  0  0
 18 16  1  6  0  0  0
 19 18  1  0  0  0  0
 20 19  2  0  0  0  0
 22 21  1  0  0  0  0
 22 23  1  0  0  0  0
 23 24  1  0  0  0  0
 24 25  1  1  0  0  0
 24 27  1  0  0  0  0
 25 26  1  0  0  0  0
 27 28  1  0  0  0  0
 28 29  1  0  0  0  0
 29 30  1  0  0  0  0
 30 31  1  0  0  0  0
 31 33  1  0  0  0  0
 33 32  1  0  0  0  0
 34 43  1  0  0  0  0
 37 54  1  0  0  0  0
 38 51  1  6  0  0  0
 39 52  1  0  0  0  0
 39 36  1  1  0  0  0
 40 51  1  6  0  0  0
 40 39  1  0  0  0  0
 40 36  1  0  0  0  0
 41 53  1  1  0  0  0
 41 42  1  0  0  0  0
 43 55  1  1  0  0  0
 43 35  1  0  0  0  0
 45 43  1  0  0  0  0
 45 46  1  0  0  0  0
 46 38  1  0  0  0  0
 47 35  2  0  0  0  0
 48 45  2  0  0  0  0
 49 44  1  0  0  0  0
 50 35  1  1  0  0  0
 50 38  1  0  0  0  0
 50 41  1  0  0  0  0
 52 42  1  6  0  0  0
 52 44  1  0  0  0  0
 53 37  1  0  0  0  0
 54 49  1  0  0  0  0
 56 58  1  0  0  0  0
 57 56  2  0  0  0  0
 57 61  1  0  0  0  0
 58 60  2  0  0  0  0
 59 60  1  0  0  0  0
 59 46  1  0  0  0  0
 61 59  2  0  0  0  0
 62 66  1  0  0  0  0
 64 63  2  0  0  0  0
 65 62  2  0  0  0  0
 65 64  1  0  0  0  0
 66 56  1  0  0  0  0
 66 63  1  0  0  0  0
M  END
>  <MODEL>
5

>  <REMARK>
 VINA RESULT:      -0.9      3.348      7.781
  Name = 
  26 active torsions:
  status: ('A' for Active; 'I' for Inactive)
    1  A    between atoms: N_1  and  C_4
    2  A    between atoms: N_1  and  C_23
    3  A    between atoms: N_1  and  C_24
    4  A    between atoms: C_2  and  C_55
    5  A    between atoms: C_3  and  N_34
    6  A    between atoms: C_3  and  C_52
    7  A    between atoms: C_4  and  C_12
    8  A    between atoms: C_5  and  C_7
    9  A    between atoms: C_5  and  C_23
   10  A    between atoms: C_7  and  C_26
   11  A    between atoms: C_11  and  C_52
   12  A    between atoms: C_11  and  C_55
   13  A    between atoms: C_11  and  C_60
   14  A    between atoms: C_12  and  C_38
   15  A    between atoms: C_14  and  N_37
   16  A    between atoms: C_15  and  C_28
   17  A    between atoms: C_15  and  O_59
   18  A    between atoms: C_22  and  O_56
   19  A    between atoms: C_28  and  S_31
   20  A    between atoms: S_31  and  C_46
   21  A    between atoms: N_34  and  C_40
   22  A    between atoms: C_35  and  N_45
   23  A    between atoms: C_40  and  C_42
   24  A    between atoms: C_40  and  C_44
   25  A    between atoms: C_44  and  C_46
   26  A    between atoms: C_55  and  O_56
                            x       y       z     vdW  Elec       q    Type
                         _______ _______ _______ _____ _____    ______ ____

>  <TORSDO>
F 26

$$$$
=
 OpenBabel11062411043D

 66 72  0  0  1  0  0  0  0  0999 V2000
  191.3390  177.8370  142.1910 C   0  0  0  0  0  2  0  0  0  0  0  0
  189.9700  177.6490  142.6120 N   0  0  0  0  0  0  0  0  0  0  0  0
  189.5500  176.2490  142.3000 C   0  0  0  0  0  2  0  0  0  0  0  0
  188.7920  175.6760  143.3140 O   0  0  0  0  0  1  0  0  0  0  0  0
  189.1220  178.7070  142.0460 C   0  0  0  0  0  2  0  0  0  0  0  0
  188.1950  178.1820  140.9450 C   0  0  2  0  0  3  0  0  0  0  0  0
  188.3820  178.8230  139.5550 C   0  0  0  0  0  1  0  0  0  0  0  0
  186.7250  177.9550  141.4570 C   0  0  0  0  0  2  0  0  0  0  0  0
  186.5700  177.9960  143.0000 C   0  0  0  0  0  3  0  0  0  0  0  0
  186.1570  179.0100  143.7740 C   0  0  0  0  0  3  0  0  0  0  0  0
  185.7360  178.7430  145.3020 C   0  0  2  0  0  3  0  0  0  0  0  0
  186.3930  176.5180  145.8600 O   0  0  0  0  0  1  0  0  0  0  0  0
  186.6980  177.8860  146.0700 C   0  0  2  0  0  0  0  0  0  0  0  0
  186.6530  178.2880  147.5290 C   0  0  0  0  0  2  0  0  0  0  0  0
  185.1850  178.3550  148.1240 C   0  0  0  0  0  1  0  0  0  0  0  0
  188.0660  178.1850  145.6500 O   0  0  0  0  0  0  0  0  0  0  0  0
  189.0560  176.6630  147.0980 C   0  0  0  0  0  2  0  0  0  0  0  0
  189.0290  178.0960  146.6550 C   0  0  1  0  0  3  0  0  0  0  0  0
  190.1780  177.1750  146.1960 C   0  0  0  0  0  0  0  0  0  0  0  0
  191.2080  176.9570  145.5540 O   0  0  0  0  0  0  0  0  0  0  0  0
  184.2220  178.6250  145.4020 C   0  0  0  0  0  2  0  0  0  0  0  0
  183.8380  178.7900  143.9770 C   0  0  0  0  0  2  0  0  0  0  0  0
  182.5050  179.3820  143.8680 N   0  0  0  0  0  2  0  0  0  0  0  0
  181.5900  178.5720  143.0760 C   0  0  1  0  0  3  0  0  0  0  0  0
  180.3120  178.6370  143.8380 C   0  0  0  0  0  2  0  0  0  0  0  0
  179.7270  179.8770  143.5570 O   0  0  0  0  0  1  0  0  0  0  0  0
  181.6180  178.7870  141.5290 C   0  0  0  0  0  2  0  0  0  0  0  0
  182.1170  177.6180  140.6720 C   0  0  0  0  0  2  0  0  0  0  0  0
  182.6660  178.2990  139.1110 S   0  0  0  0  0  0  0  0  0  0  0  0
  182.4370  176.7580  138.1220 C   0  0  0  0  0  2  0  0  0  0  0  0
  183.6240  176.2160  137.3530 C   0  0  0  0  0  2  0  0  0  0  0  0
  183.1320  177.4120  135.6790 O   0  0  0  0  0  1  0  0  0  0  0  0
  184.1320  177.1750  136.4760 O   0  0  0  0  0  0  0  0  0  0  0  0
  191.7890  176.8530  140.9920 C   0  0  0  0  0  2  0  0  0  0  0  0
  190.2050  175.9100  139.1560 C   0  0  0  0  0  0  0  0  0  0  0  0
  187.7370  178.1320  134.9870 C   0  0  0  0  0  2  0  0  0  0  0  0
  186.8440  173.4970  137.2390 C   0  0  0  0  0  2  0  0  0  0  0  0
  190.7750  176.2650  136.7280 C   0  0  1  0  0  3  0  0  0  0  0  0
  187.6540  176.7970  135.7790 C   0  0  2  0  0  3  0  0  0  0  0  0
  188.9830  177.3410  135.2420 C   0  0  2  0  0  3  0  0  0  0  0  0
  189.1820  174.2020  136.9830 C   0  0  1  0  0  3  0  0  0  0  0  0
  188.8330  174.3650  135.4840 C   0  0  0  0  0  2  0  0  0  0  0  0
  191.2450  176.9830  139.5420 C   0  0  2  0  0  0  0  0  0  0  0  0
  186.3760  174.8420  134.5950 C   0  0  0  0  0  2  0  0  0  0  0  0
  192.4130  176.9440  138.4850 C   0  0  0  0  0  0  0  0  0  0  0  0
  192.1800  176.3910  137.1990 N   0  0  0  0  0  0  0  0  0  0  0  0
  189.2790  175.6460  139.9570 O   0  0  0  0  0  0  0  0  0  0  0  0
  193.5790  177.1740  138.8400 O   0  0  0  0  0  0  0  0  0  0  0  0
  186.2070  173.2780  134.6400 C   0  0  0  0  0  2  0  0  0  0  0  0
  190.0570  175.3440  137.7000 C   0  0  2  0  0  3  0  0  0  0  0  0
  189.9480  177.5890  136.4780 C   0  0  0  0  0  2  0  0  0  0  0  0
  187.6390  175.3750  135.1460 C   0  0  1  0  0  3  0  0  0  0  0  0
  188.2340  173.2390  137.7510 C   0  0  0  0  0  2  0  0  0  0  0  0
  186.3570  172.6600  136.0810 C   0  0  0  0  0  2  0  0  0  0  0  0
  190.6330  178.3230  139.4900 C   0  0  0  0  0  1  0  0  0  0  0  0
  194.6270  173.0150  136.2470 C   0  0  0  0  0  0  0  0  0  0  0  0
  193.5990  172.8900  137.2130 C   0  0  0  0  0  3  0  0  0  0  0  0
  194.7760  174.2610  135.6080 C   0  0  0  0  0  3  0  0  0  0  0  0
  192.9980  175.2440  136.9580 C   0  0  0  0  0  0  0  0  0  0  0  0
  193.9870  175.3120  135.9690 C   0  0  0  0  0  3  0  0  0  0  0  0
  192.7760  173.9560  137.5470 C   0  0  0  0  0  3  0  0  0  0  0  0
  195.9390  170.9290  136.8330 C   0  0  0  0  0  3  0  0  0  0  0  0
  196.0650  171.7630  134.6020 C   0  0  0  0  0  3  0  0  0  0  0  0
  196.9840  170.6770  134.6610 N   0  0  0  0  0  0  0  0  0  0  0  0
  196.8890  170.1250  136.0300 C   0  0  0  0  0  3  0  0  0  0  0  0
  195.4490  171.9630  135.9020 N   0  0  0  0  0  0  0  0  0  0  0  0
  1  2  1  0  0  0  0
  3  2  1  0  0  0  0
  3  4  1  0  0  0  0
  5  2  1  0  0  0  0
  6  7  1  6  0  0  0
  6  8  1  0  0  0  0
  6  5  1  0  0  0  0
  8  9  1  0  0  0  0
  9 10  2  0  0  0  0
 11 10  1  6  0  0  0
 11 21  1  0  0  0  0
 11 13  1  0  0  0  0
 13 12  1  6  0  0  0
 13 14  1  0  0  0  0
 14 15  1  0  0  0  0
 16 13  1  0  0  0  0
 18 16  1  6  0  0  0
 18 17  1  0  0  0  0
 19 18  1  0  0  0  0
 19 17  1  0  0  0  0
 20 19  2  0  0  0  0
 22 21  1  0  0  0  0
 23 22  1  0  0  0  0
 24 27  1  6  0  0  0
 24 25  1  0  0  0  0
 24 23  1  0  0  0  0
 26 25  1  0  0  0  0
 28 27  1  0  0  0  0
 29 28  1  0  0  0  0
 30 29  1  0  0  0  0
 31 30  1  0  0  0  0
 32 33  1  0  0  0  0
 33 31  1  0  0  0  0
 34  1  1  0  0  0  0
 35 43  1  0  0  0  0
 35 47  2  0  0  0  0
 37 53  1  0  0  0  0
 38 51  1  1  0  0  0
 38 46  1  0  0  0  0
 38 50  1  0  0  0  0
 39 36  1  6  0  0  0
 40 36  1  1  0  0  0
 40 39  1  0  0  0  0
 40 51  1  0  0  0  0
 41 42  1  6  0  0  0
 41 50  1  0  0  0  0
 41 53  1  0  0  0  0
 43 55  1  6  0  0  0
 43 34  1  0  0  0  0
 44 49  1  0  0  0  0
 45 48  2  0  0  0  0
 45 43  1  0  0  0  0
 46 45  1  0  0  0  0
 49 54  1  0  0  0  0
 50 35  1  6  0  0  0
 52 44  1  1  0  0  0
 52 42  1  0  0  0  0
 52 39  1  0  0  0  0
 54 37  1  0  0  0  0
 56 57  1  0  0  0  0
 57 61  2  0  0  0  0
 58 60  1  0  0  0  0
 58 56  2  0  0  0  0
 59 46  1  0  0  0  0
 59 61  1  0  0  0  0
 60 59  2  0  0  0  0
 63 64  2  0  0  0  0
 63 66  1  0  0  0  0
 64 65  1  0  0  0  0
 65 62  2  0  0  0  0
 66 56  1  0  0  0  0
 66 62  1  0  0  0  0
M  END
>  <MODEL>
6

>  <REMARK>
 VINA RESULT:      -0.8      3.139      8.208
  Name = 
  26 active torsions:
  status: ('A' for Active; 'I' for Inactive)
    1  A    between atoms: N_1  and  C_4
    2  A    between atoms: N_1  and  C_23
    3  A    between atoms: N_1  and  C_24
    4  A    between atoms: C_2  and  C_55
    5  A    between atoms: C_3  and  N_34
    6  A    between atoms: C_3  and  C_52
    7  A    between atoms: C_4  and  C_12
    8  A    between atoms: C_5  and  C_7
    9  A    between atoms: C_5  and  C_23
   10  A    between atoms: C_7  and  C_26
   11  A    between atoms: C_11  and  C_52
   12  A    between atoms: C_11  and  C_55
   13  A    between atoms: C_11  and  C_60
   14  A    between atoms: C_12  and  C_38
   15  A    between atoms: C_14  and  N_37
   16  A    between atoms: C_15  and  C_28
   17  A    between atoms: C_15  and  O_59
   18  A    between atoms: C_22  and  O_56
   19  A    between atoms: C_28  and  S_31
   20  A    between atoms: S_31  and  C_46
   21  A    between atoms: N_34  and  C_40
   22  A    between atoms: C_35  and  N_45
   23  A    between atoms: C_40  and  C_42
   24  A    between atoms: C_40  and  C_44
   25  A    between atoms: C_44  and  C_46
   26  A    between atoms: C_55  and  O_56
                            x       y       z     vdW  Elec       q    Type
                         _______ _______ _______ _____ _____    ______ ____

>  <TORSDO>
F 26

$$$$
