=
 OpenBabel11062413193D

 30 32  0  0  1  0  0  0  0  0999 V2000
  185.0350  178.5420  143.8140 C   0  0  0  0  0  0  0  0  0  0  0  0
  184.6450  178.3670  147.3040 O   0  0  0  0  0  1  0  0  0  0  0  0
  186.6070  177.6050  146.2680 C   0  0  0  0  0  3  0  0  0  0  0  0
  186.0410  177.8460  143.2660 C   0  0  0  0  0  3  0  0  0  0  0  0
  187.3780  177.6140  143.8660 C   0  0  0  0  0  0  0  0  0  0  0  0
  185.5220  178.3790  146.2300 C   0  0  0  0  0  0  0  0  0  0  0  0
  185.2530  179.3000  145.0880 C   0  0  0  0  0  2  0  0  0  0  0  0
  187.5960  177.4650  145.1800 C   0  0  0  0  0  3  0  0  0  0  0  0
  189.7590  178.0510  143.4390 C   0  0  0  0  0  3  0  0  0  0  0  0
  188.5330  177.3490  142.9540 C   0  0  2  0  0  3  0  0  0  0  0  0
  188.2020  177.7560  141.5940 N   0  0  0  0  0  0  0  0  0  0  0  0
  188.3220  178.0180  138.9840 Cl  0  0  0  0  0  0  0  0  0  0  0  0
  190.2890  176.9100  140.6120 C   0  0  0  0  0  0  0  0  0  0  0  0
  190.9380  177.9040  142.8410 C   0  0  0  0  0  3  0  0  0  0  0  0
  191.1610  177.1100  141.6180 C   0  0  0  0  0  3  0  0  0  0  0  0
  188.9530  177.5550  140.5520 C   0  0  0  0  0  0  0  0  0  0  0  0
  191.6550  176.5050  138.5740 C   0  0  0  0  0  1  0  0  0  0  0  0
  190.6610  176.1190  139.5160 O   0  0  0  0  0  0  0  0  0  0  0  0
  182.6600  179.1620  143.7660 C   0  0  0  0  0  3  0  0  0  0  0  0
  180.4260  178.1470  143.6620 C   0  0  0  0  0  1  0  0  0  0  0  0
  183.7280  178.6530  143.1200 C   0  0  0  0  0  0  0  0  0  0  0  0
  182.2340  178.1740  141.1050 C   0  0  0  0  0  2  0  0  0  0  0  0
  181.2930  179.2910  143.1550 C   0  0  2  0  0  3  0  0  0  0  0  0
  181.3840  179.3290  141.6210 C   0  0  2  0  0  3  0  0  0  0  0  0
  183.6560  178.3170  141.6430 C   0  0  0  0  0  2  0  0  0  0  0  0
  180.0390  179.4590  140.9070 C   0  0  0  0  0  2  0  0  0  0  0  0
  180.9290  180.2570  138.1730 C   0  0  0  0  0  1  0  0  0  0  0  0
  179.8290  180.8090  140.3990 N   0  0  0  0  0  2  0  0  0  0  0  0
  180.0360  182.3920  138.7120 O   0  0  0  0  0  0  0  0  0  0  0  0
  180.2460  181.2120  139.0930 C   0  0  0  0  0  0  0  0  0  0  0  0
  1  7  1  0  0  0  0
  4  1  2  0  0  0  0
  4  5  1  0  0  0  0
  5  8  2  0  0  0  0
  6  3  2  0  0  0  0
  6  2  1  0  0  0  0
  7  6  1  0  0  0  0
  8  3  1  0  0  0  0
 10  9  1  0  0  0  0
 10  5  1  1  0  0  0
 11 10  1  0  0  0  0
 12 16  1  0  0  0  0
 13 15  2  0  0  0  0
 14  9  2  0  0  0  0
 15 14  1  0  0  0  0
 16 13  1  0  0  0  0
 16 11  2  0  0  0  0
 17 18  1  0  0  0  0
 18 13  1  0  0  0  0
 21 19  2  0  0  0  0
 21  1  1  0  0  0  0
 22 24  1  0  0  0  0
 22 25  1  0  0  0  0
 23 20  1  6  0  0  0
 23 19  1  0  0  0  0
 24 26  1  6  0  0  0
 24 23  1  0  0  0  0
 25 21  1  0  0  0  0
 27 30  1  0  0  0  0
 28 26  1  0  0  0  0
 29 30  2  0  0  0  0
 30 28  1  0  0  0  0
M  END
>  <MODEL>
1

>  <REMARK>
 VINA RESULT:      -9.7      0.000      0.000
  Name = 
  5 active torsions:
  status: ('A' for Active; 'I' for Inactive)
    1  A    between atoms: C_5  and  C_7
    2  A    between atoms: O_6  and  C_18
    3  A    between atoms: C_9  and  C_19
    4  A    between atoms: C_10  and  N_21
    5  A    between atoms: C_10  and  C_26
                            x       y       z     vdW  Elec       q    Type
                         _______ _______ _______ _____ _____    ______ ____

>  <TORSDO>
F 5

$$$$
=
 OpenBabel11062413193D

 30 32  0  0  1  0  0  0  0  0999 V2000
  186.6020  177.8520  143.4620 C   0  0  0  0  0  0  0  0  0  0  0  0
  187.7780  178.0220  146.7710 O   0  0  0  0  0  1  0  0  0  0  0  0
  185.6400  178.8060  146.2060 C   0  0  0  0  0  3  0  0  0  0  0  0
  185.5050  178.5600  143.1550 C   0  0  0  0  0  3  0  0  0  0  0  0
  184.3420  178.8070  144.0440 C   0  0  0  0  0  0  0  0  0  0  0  0
  186.6790  178.0210  145.9240 C   0  0  0  0  0  0  0  0  0  0  0  0
  186.6710  177.0960  144.7530 C   0  0  0  0  0  2  0  0  0  0  0  0
  184.4310  178.9580  145.3730 C   0  0  0  0  0  3  0  0  0  0  0  0
  181.9110  178.5130  144.2460 C   0  0  0  0  0  3  0  0  0  0  0  0
  183.0130  179.0850  143.4180 C   0  0  2  0  0  3  0  0  0  0  0  0
  182.9760  178.5550  142.0610 N   0  0  0  0  0  0  0  0  0  0  0  0
  182.2010  178.1070  139.5920 Cl  0  0  0  0  0  0  0  0  0  0  0  0
  180.7580  179.4740  141.5410 C   0  0  0  0  0  0  0  0  0  0  0  0
  180.6290  178.6990  143.9410 C   0  0  0  0  0  3  0  0  0  0  0  0
  180.1520  179.4130  142.7420 C   0  0  0  0  0  3  0  0  0  0  0  0
  182.0020  178.7310  141.2180 C   0  0  0  0  0  0  0  0  0  0  0  0
  179.2580  181.2770  140.7160 C   0  0  0  0  0  1  0  0  0  0  0  0
  180.1670  180.2040  140.5010 O   0  0  0  0  0  0  0  0  0  0  0  0
  188.7620  176.9220  142.7580 C   0  0  0  0  0  3  0  0  0  0  0  0
  191.0940  177.5940  142.3810 C   0  0  0  0  0  1  0  0  0  0  0  0
  187.7150  177.7270  142.4880 C   0  0  0  0  0  0  0  0  0  0  0  0
  188.8840  178.4660  140.3410 C   0  0  0  0  0  2  0  0  0  0  0  0
  189.9450  176.7500  141.8470 C   0  0  2  0  0  3  0  0  0  0  0  0
  189.5720  177.1080  140.3990 C   0  0  2  0  0  3  0  0  0  0  0  0
  187.5830  178.4050  141.1380 C   0  0  0  0  0  2  0  0  0  0  0  0
  190.7150  176.9630  139.3940 C   0  0  0  0  0  2  0  0  0  0  0  0
  193.0080  176.0220  137.7320 C   0  0  0  0  0  1  0  0  0  0  0  0
  190.7150  175.6470  138.7660 N   0  0  0  0  0  2  0  0  0  0  0  0
  191.7420  174.0310  137.4530 O   0  0  0  0  0  0  0  0  0  0  0  0
  191.8020  175.1770  137.9680 C   0  0  0  0  0  0  0  0  0  0  0  0
  1  7  1  0  0  0  0
  4  1  2  0  0  0  0
  4  5  1  0  0  0  0
  5  8  2  0  0  0  0
  6  3  2  0  0  0  0
  6  2  1  0  0  0  0
  7  6  1  0  0  0  0
  8  3  1  0  0  0  0
 10  5  1  1  0  0  0
 10  9  1  0  0  0  0
 11 10  1  0  0  0  0
 12 16  1  0  0  0  0
 13 15  2  0  0  0  0
 14  9  2  0  0  0  0
 15 14  1  0  0  0  0
 16 13  1  0  0  0  0
 16 11  2  0  0  0  0
 18 17  1  0  0  0  0
 18 13  1  0  0  0  0
 21 19  2  0  0  0  0
 21  1  1  0  0  0  0
 22 24  1  0  0  0  0
 22 25  1  0  0  0  0
 23 20  1  1  0  0  0
 23 19  1  0  0  0  0
 24 26  1  6  0  0  0
 24 23  1  0  0  0  0
 25 21  1  0  0  0  0
 27 30  1  0  0  0  0
 28 26  1  0  0  0  0
 29 30  2  0  0  0  0
 30 28  1  0  0  0  0
M  END
>  <MODEL>
2

>  <REMARK>
 VINA RESULT:      -9.3      2.124      8.388
  Name = 
  5 active torsions:
  status: ('A' for Active; 'I' for Inactive)
    1  A    between atoms: C_5  and  C_7
    2  A    between atoms: O_6  and  C_18
    3  A    between atoms: C_9  and  C_19
    4  A    between atoms: C_10  and  N_21
    5  A    between atoms: C_10  and  C_26
                            x       y       z     vdW  Elec       q    Type
                         _______ _______ _______ _____ _____    ______ ____

>  <TORSDO>
F 5

$$$$
=
 OpenBabel11062413193D

 30 32  0  0  1  0  0  0  0  0999 V2000
  185.0120  178.5130  143.6200 C   0  0  0  0  0  0  0  0  0  0  0  0
  184.5580  178.4160  147.1050 O   0  0  0  0  0  1  0  0  0  0  0  0
  186.5520  177.6640  146.1250 C   0  0  0  0  0  3  0  0  0  0  0  0
  186.0400  177.8210  143.1080 C   0  0  0  0  0  3  0  0  0  0  0  0
  187.3690  177.6270  143.7390 C   0  0  0  0  0  0  0  0  0  0  0  0
  185.4550  178.4170  146.0480 C   0  0  0  0  0  0  0  0  0  0  0  0
  185.1920  179.3050  144.8780 C   0  0  0  0  0  2  0  0  0  0  0  0
  187.5640  177.5140  145.0600 C   0  0  0  0  0  3  0  0  0  0  0  0
  189.7570  178.0690  143.3640 C   0  0  0  0  0  3  0  0  0  0  0  0
  188.5450  177.3600  142.8560 C   0  0  2  0  0  3  0  0  0  0  0  0
  188.2450  177.7570  141.4860 N   0  0  0  0  0  0  0  0  0  0  0  0
  188.4250  178.0000  138.8770 Cl  0  0  0  0  0  0  0  0  0  0  0  0
  190.3570  176.9100  140.5580 C   0  0  0  0  0  0  0  0  0  0  0  0
  190.9510  177.9220  142.7950 C   0  0  0  0  0  3  0  0  0  0  0  0
  191.2050  177.1210  141.5830 C   0  0  0  0  0  3  0  0  0  0  0  0
  189.0200  177.5500  140.4630 C   0  0  0  0  0  0  0  0  0  0  0  0
  191.7590  176.5040  138.5460 C   0  0  0  0  0  1  0  0  0  0  0  0
  190.7570  176.1140  139.4770 O   0  0  0  0  0  0  0  0  0  0  0  0
  183.6250  178.1440  141.6280 C   0  0  0  0  0  3  0  0  0  0  0  0
  182.4530  179.3880  139.8650 C   0  0  0  0  0  1  0  0  0  0  0  0
  183.7170  178.5840  142.8990 C   0  0  0  0  0  0  0  0  0  0  0  0
  181.2840  179.3500  142.7690 C   0  0  0  0  0  2  0  0  0  0  0  0
  182.3660  178.1980  140.8100 C   0  0  2  0  0  3  0  0  0  0  0  0
  181.1290  178.2560  141.7200 C   0  0  2  0  0  3  0  0  0  0  0  0
  182.4810  179.0260  143.6600 C   0  0  0  0  0  2  0  0  0  0  0  0
  179.7940  178.3130  140.9760 C   0  0  0  0  0  2  0  0  0  0  0  0
  179.6430  177.6430  138.0730 C   0  0  0  0  0  1  0  0  0  0  0  0
  179.3780  176.9940  140.5180 N   0  0  0  0  0  2  0  0  0  0  0  0
  178.9340  175.4950  138.8000 O   0  0  0  0  0  0  0  0  0  0  0  0
  179.3000  176.6520  139.1330 C   0  0  0  0  0  0  0  0  0  0  0  0
  1  7  1  0  0  0  0
  4  1  2  0  0  0  0
  4  5  1  0  0  0  0
  5  8  2  0  0  0  0
  6  3  2  0  0  0  0
  6  2  1  0  0  0  0
  7  6  1  0  0  0  0
  8  3  1  0  0  0  0
 10  9  1  0  0  0  0
 10  5  1  1  0  0  0
 11 10  1  0  0  0  0
 12 16  1  0  0  0  0
 13 15  2  0  0  0  0
 14  9  2  0  0  0  0
 15 14  1  0  0  0  0
 16 13  1  0  0  0  0
 16 11  2  0  0  0  0
 17 18  1  0  0  0  0
 18 13  1  0  0  0  0
 19 21  2  0  0  0  0
 21  1  1  0  0  0  0
 21 25  1  0  0  0  0
 22 25  1  0  0  0  0
 23 20  1  6  0  0  0
 23 19  1  0  0  0  0
 23 24  1  0  0  0  0
 24 26  1  6  0  0  0
 24 22  1  0  0  0  0
 27 30  1  0  0  0  0
 28 26  1  0  0  0  0
 29 30  2  0  0  0  0
 30 28  1  0  0  0  0
M  END
>  <MODEL>
3

>  <REMARK>
 VINA RESULT:      -9.3      1.733      2.177
  Name = 
  5 active torsions:
  status: ('A' for Active; 'I' for Inactive)
    1  A    between atoms: C_5  and  C_7
    2  A    between atoms: O_6  and  C_18
    3  A    between atoms: C_9  and  C_19
    4  A    between atoms: C_10  and  N_21
    5  A    between atoms: C_10  and  C_26
                            x       y       z     vdW  Elec       q    Type
                         _______ _______ _______ _____ _____    ______ ____

>  <TORSDO>
F 5

$$$$
=
 OpenBabel11062413193D

 30 32  0  0  1  0  0  0  0  0999 V2000
  186.6150  178.4570  141.7020 C   0  0  0  0  0  0  0  0  0  0  0  0
  183.1820  179.0330  142.1940 O   0  0  0  0  0  1  0  0  0  0  0  0
  184.5390  178.2540  143.9420 C   0  0  0  0  0  3  0  0  0  0  0  0
  187.2680  177.7570  142.6410 C   0  0  0  0  0  3  0  0  0  0  0  0
  187.0150  177.7990  144.1030 C   0  0  0  0  0  0  0  0  0  0  0  0
  184.4330  178.8890  142.7750 C   0  0  0  0  0  0  0  0  0  0  0  0
  185.6160  179.4990  142.1010 C   0  0  0  0  0  2  0  0  0  0  0  0
  185.8030  177.9710  144.6500 C   0  0  0  0  0  3  0  0  0  0  0  0
  187.8070  177.8640  146.4280 C   0  0  0  0  0  3  0  0  0  0  0  0
  188.1340  177.4500  145.0310 C   0  0  2  0  0  3  0  0  0  0  0  0
  189.3730  178.0700  144.5790 N   0  0  0  0  0  0  0  0  0  0  0  0
  191.9290  178.6220  144.3440 Cl  0  0  0  0  0  0  0  0  0  0  0  0
  190.7750  177.0000  146.2890 C   0  0  0  0  0  0  0  0  0  0  0  0
  188.6110  177.5880  147.4510 C   0  0  0  0  0  3  0  0  0  0  0  0
  189.9220  176.9220  147.3280 C   0  0  0  0  0  3  0  0  0  0  0  0
  190.5430  177.8700  145.1080 C   0  0  0  0  0  0  0  0  0  0  0  0
  192.4650  175.6280  147.4910 C   0  0  0  0  0  1  0  0  0  0  0  0
  191.9870  176.2960  146.3300 O   0  0  0  0  0  0  0  0  0  0  0  0
  185.9820  178.4170  139.3310 C   0  0  0  0  0  3  0  0  0  0  0  0
  185.7080  176.8540  137.4570 C   0  0  0  0  0  1  0  0  0  0  0  0
  186.9430  178.2800  140.2660 C   0  0  0  0  0  0  0  0  0  0  0  0
  188.5860  177.6180  138.4250 C   0  0  0  0  0  2  0  0  0  0  0  0
  186.2120  178.2330  137.8570 C   0  0  2  0  0  3  0  0  0  0  0  0
  187.6930  178.4450  137.5080 C   0  0  2  0  0  3  0  0  0  0  0  0
  188.3930  178.0840  139.8670 C   0  0  0  0  0  2  0  0  0  0  0  0
  188.0270  178.2790  136.0250 C   0  0  0  0  0  2  0  0  0  0  0  0
  188.0190  175.6190  134.6730 C   0  0  0  0  0  1  0  0  0  0  0  0
  189.2540  177.5160  135.8330 N   0  0  0  0  0  2  0  0  0  0  0  0
  190.3650  175.6320  135.0520 O   0  0  0  0  0  0  0  0  0  0  0  0
  189.2730  176.2410  135.1880 C   0  0  0  0  0  0  0  0  0  0  0  0
  1  7  1  0  0  0  0
  1  4  2  0  0  0  0
  2  6  1  0  0  0  0
  3  8  1  0  0  0  0
  4  5  1  0  0  0  0
  5  8  2  0  0  0  0
  6  3  2  0  0  0  0
  7  6  1  0  0  0  0
  9 14  2  0  0  0  0
 10  5  1  6  0  0  0
 10  9  1  0  0  0  0
 11 10  1  0  0  0  0
 11 16  2  0  0  0  0
 12 16  1  0  0  0  0
 13 18  1  0  0  0  0
 13 15  2  0  0  0  0
 15 14  1  0  0  0  0
 16 13  1  0  0  0  0
 18 17  1  0  0  0  0
 19 21  2  0  0  0  0
 21  1  1  0  0  0  0
 22 25  1  0  0  0  0
 23 20  1  1  0  0  0
 23 19  1  0  0  0  0
 24 26  1  6  0  0  0
 24 23  1  0  0  0  0
 24 22  1  0  0  0  0
 25 21  1  0  0  0  0
 27 30  1  0  0  0  0
 28 26  1  0  0  0  0
 29 30  2  0  0  0  0
 30 28  1  0  0  0  0
M  END
>  <MODEL>
4

>  <REMARK>
 VINA RESULT:      -8.9      3.841      6.514
  Name = 
  5 active torsions:
  status: ('A' for Active; 'I' for Inactive)
    1  A    between atoms: C_5  and  C_7
    2  A    between atoms: O_6  and  C_18
    3  A    between atoms: C_9  and  C_19
    4  A    between atoms: C_10  and  N_21
    5  A    between atoms: C_10  and  C_26
                            x       y       z     vdW  Elec       q    Type
                         _______ _______ _______ _____ _____    ______ ____

>  <TORSDO>
F 5

$$$$
=
 OpenBabel11062413193D

 30 32  0  0  1  0  0  0  0  0999 V2000
  186.4300  178.4390  141.8070 C   0  0  0  0  0  0  0  0  0  0  0  0
  183.0110  179.0160  142.3950 O   0  0  0  0  0  1  0  0  0  0  0  0
  184.4210  178.2530  144.1090 C   0  0  0  0  0  3  0  0  0  0  0  0
  187.1110  177.7480  142.7320 C   0  0  0  0  0  3  0  0  0  0  0  0
  186.9010  177.8020  144.2000 C   0  0  0  0  0  0  0  0  0  0  0  0
  184.2800  178.8780  142.9400 C   0  0  0  0  0  0  0  0  0  0  0  0
  185.4420  179.4840  142.2270 C   0  0  0  0  0  2  0  0  0  0  0  0
  185.7060  177.9770  144.7820 C   0  0  0  0  0  3  0  0  0  0  0  0
  187.7580  177.8800  146.5020 C   0  0  0  0  0  3  0  0  0  0  0  0
  188.0470  177.4620  145.0980 C   0  0  2  0  0  3  0  0  0  0  0  0
  189.2700  178.0860  144.6090 N   0  0  0  0  0  0  0  0  0  0  0  0
  191.8160  178.6490  144.2990 Cl  0  0  0  0  0  0  0  0  0  0  0  0
  190.7250  177.0290  146.2820 C   0  0  0  0  0  0  0  0  0  0  0  0
  188.5920  177.6120  147.5030 C   0  0  0  0  0  3  0  0  0  0  0  0
  189.9020  176.9520  147.3460 C   0  0  0  0  0  3  0  0  0  0  0  0
  190.4560  177.8930  145.1050 C   0  0  0  0  0  0  0  0  0  0  0  0
  192.4290  175.6260  147.4270 C   0  0  0  0  0  1  0  0  0  0  0  0
  191.9410  176.3310  146.2920 O   0  0  0  0  0  0  0  0  0  0  0  0
  187.9580  177.9280  139.9550 C   0  0  0  0  0  3  0  0  0  0  0  0
  189.0560  179.0010  138.0390 C   0  0  0  0  0  1  0  0  0  0  0  0
  186.7150  178.2500  140.3630 C   0  0  0  0  0  0  0  0  0  0  0  0
  185.9890  178.3840  137.9180 C   0  0  0  0  0  2  0  0  0  0  0  0
  188.3480  177.7410  138.5160 C   0  0  2  0  0  3  0  0  0  0  0  0
  187.1190  177.3950  137.6610 C   0  0  2  0  0  3  0  0  0  0  0  0
  185.5600  178.2890  139.3800 C   0  0  0  0  0  2  0  0  0  0  0  0
  187.4160  177.1840  136.1760 C   0  0  0  0  0  2  0  0  0  0  0  0
  190.0070  175.7380  135.8630 C   0  0  0  0  0  1  0  0  0  0  0  0
  187.4640  175.7690  135.8330 N   0  0  0  0  0  2  0  0  0  0  0  0
  188.6680  173.8350  135.3830 O   0  0  0  0  0  0  0  0  0  0  0  0
  188.6930  175.0570  135.6800 C   0  0  0  0  0  0  0  0  0  0  0  0
  1  7  1  0  0  0  0
  1  4  2  0  0  0  0
  2  6  1  0  0  0  0
  3  8  1  0  0  0  0
  4  5  1  0  0  0  0
  5  8  2  0  0  0  0
  6  3  2  0  0  0  0
  7  6  1  0  0  0  0
  9 14  2  0  0  0  0
 10  5  1  6  0  0  0
 10  9  1  0  0  0  0
 11 10  1  0  0  0  0
 11 16  2  0  0  0  0
 12 16  1  0  0  0  0
 13 18  1  0  0  0  0
 13 15  2  0  0  0  0
 15 14  1  0  0  0  0
 16 13  1  0  0  0  0
 18 17  1  0  0  0  0
 19 21  2  0  0  0  0
 21  1  1  0  0  0  0
 22 25  1  0  0  0  0
 23 20  1  6  0  0  0
 23 19  1  0  0  0  0
 24 26  1  6  0  0  0
 24 22  1  0  0  0  0
 24 23  1  0  0  0  0
 25 21  1  0  0  0  0
 28 26  1  0  0  0  0
 29 30  2  0  0  0  0
 30 28  1  0  0  0  0
 30 27  1  0  0  0  0
M  END
>  <MODEL>
5

>  <REMARK>
 VINA RESULT:      -8.8      3.786      6.544
  Name = 
  5 active torsions:
  status: ('A' for Active; 'I' for Inactive)
    1  A    between atoms: C_5  and  C_7
    2  A    between atoms: O_6  and  C_18
    3  A    between atoms: C_9  and  C_19
    4  A    between atoms: C_10  and  N_21
    5  A    between atoms: C_10  and  C_26
                            x       y       z     vdW  Elec       q    Type
                         _______ _______ _______ _____ _____    ______ ____

>  <TORSDO>
F 5

$$$$
=
 OpenBabel11062413193D

 30 32  0  0  1  0  0  0  0  0999 V2000
  184.8760  178.6300  143.8320 C   0  0  0  0  0  0  0  0  0  0  0  0
  184.5680  178.2630  147.3150 O   0  0  0  0  0  1  0  0  0  0  0  0
  186.5710  177.7300  146.2160 C   0  0  0  0  0  3  0  0  0  0  0  0
  185.9310  178.0540  143.2370 C   0  0  0  0  0  3  0  0  0  0  0  0
  187.2940  177.9180  143.8070 C   0  0  0  0  0  0  0  0  0  0  0  0
  185.4210  178.4030  146.2300 C   0  0  0  0  0  0  0  0  0  0  0  0
  185.0480  179.3470  145.1360 C   0  0  0  0  0  2  0  0  0  0  0  0
  187.5480  177.7290  145.1100 C   0  0  0  0  0  3  0  0  0  0  0  0
  187.9770  177.4860  141.4860 C   0  0  0  0  0  3  0  0  0  0  0  0
  188.4510  177.8000  142.8670 C   0  0  2  0  0  3  0  0  0  0  0  0
  189.3820  176.7840  143.3420 N   0  0  0  0  0  0  0  0  0  0  0  0
  191.5620  175.3430  143.6000 Cl  0  0  0  0  0  0  0  0  0  0  0  0
  191.0570  177.2060  141.5950 C   0  0  0  0  0  0  0  0  0  0  0  0
  188.8130  177.4120  140.4540 C   0  0  0  0  0  3  0  0  0  0  0  0
  190.2780  177.5560  140.5530 C   0  0  0  0  0  3  0  0  0  0  0  0
  190.5380  176.5240  142.8070 C   0  0  0  0  0  0  0  0  0  0  0  0
  193.1620  177.5030  140.3050 C   0  0  0  0  0  1  0  0  0  0  0  0
  192.4410  177.4150  141.5290 O   0  0  0  0  0  0  0  0  0  0  0  0
  182.4620  179.0760  143.8330 C   0  0  0  0  0  3  0  0  0  0  0  0
  180.3070  177.9010  143.7550 C   0  0  0  0  0  1  0  0  0  0  0  0
  183.5520  178.6540  143.1620 C   0  0  0  0  0  0  0  0  0  0  0  0
  182.0600  178.0900  141.1670 C   0  0  0  0  0  2  0  0  0  0  0  0
  181.0780  179.1120  143.2480 C   0  0  2  0  0  3  0  0  0  0  0  0
  181.1380  179.1740  141.7140 C   0  0  2  0  0  3  0  0  0  0  0  0
  183.4780  178.3300  141.6820 C   0  0  0  0  0  2  0  0  0  0  0  0
  179.7740  179.2140  141.0250 C   0  0  0  0  0  2  0  0  0  0  0  0
  178.9340  176.3980  140.5070 C   0  0  0  0  0  1  0  0  0  0  0  0
  179.8290  178.6340  139.6890 N   0  0  0  0  0  2  0  0  0  0  0  0
  179.5010  176.8460  138.2430 O   0  0  0  0  0  0  0  0  0  0  0  0
  179.4310  177.2890  139.4190 C   0  0  0  0  0  0  0  0  0  0  0  0
  1  7  1  0  0  0  0
  3  6  2  0  0  0  0
  4  5  1  0  0  0  0
  4  1  2  0  0  0  0
  5  8  2  0  0  0  0
  6  2  1  0  0  0  0
  7  6  1  0  0  0  0
  8  3  1  0  0  0  0
  9 10  1  0  0  0  0
 10 11  1  0  0  0  0
 10  5  1  1  0  0  0
 13 16  1  0  0  0  0
 14 15  1  0  0  0  0
 14  9  2  0  0  0  0
 15 13  2  0  0  0  0
 16 11  2  0  0  0  0
 16 12  1  0  0  0  0
 17 18  1  0  0  0  0
 18 13  1  0  0  0  0
 21  1  1  0  0  0  0
 21 19  2  0  0  0  0
 22 25  1  0  0  0  0
 22 24  1  0  0  0  0
 23 20  1  6  0  0  0
 23 19  1  0  0  0  0
 24 26  1  6  0  0  0
 24 23  1  0  0  0  0
 25 21  1  0  0  0  0
 28 26  1  0  0  0  0
 29 30  2  0  0  0  0
 30 28  1  0  0  0  0
 30 27  1  0  0  0  0
M  END
>  <MODEL>
6

>  <REMARK>
 VINA RESULT:      -8.5      2.003      2.365
  Name = 
  5 active torsions:
  status: ('A' for Active; 'I' for Inactive)
    1  A    between atoms: C_5  and  C_7
    2  A    between atoms: O_6  and  C_18
    3  A    between atoms: C_9  and  C_19
    4  A    between atoms: C_10  and  N_21
    5  A    between atoms: C_10  and  C_26
                            x       y       z     vdW  Elec       q    Type
                         _______ _______ _______ _____ _____    ______ ____

>  <TORSDO>
F 5

$$$$
=
 OpenBabel11062413193D

 30 32  0  0  1  0  0  0  0  0999 V2000
  185.3630  178.6410  143.2530 C   0  0  0  0  0  0  0  0  0  0  0  0
  182.4540  179.3570  145.0930 O   0  0  0  0  0  1  0  0  0  0  0  0
  184.3600  178.4770  146.1400 C   0  0  0  0  0  3  0  0  0  0  0  0
  186.3030  177.8900  143.8450 C   0  0  0  0  0  3  0  0  0  0  0  0
  186.6630  177.9080  145.2840 C   0  0  0  0  0  0  0  0  0  0  0  0
  183.8250  179.1440  145.1180 C   0  0  0  0  0  0  0  0  0  0  0  0
  184.6640  179.7170  144.0260 C   0  0  0  0  0  2  0  0  0  0  0  0
  185.7860  178.1200  146.2750 C   0  0  0  0  0  3  0  0  0  0  0  0
  188.2950  177.7950  147.1180 C   0  0  0  0  0  3  0  0  0  0  0  0
  188.0430  177.4870  145.6790 C   0  0  2  0  0  3  0  0  0  0  0  0
  189.0290  178.1360  144.8250 N   0  0  0  0  0  0  0  0  0  0  0  0
  191.3120  178.6970  143.6550 Cl  0  0  0  0  0  0  0  0  0  0  0  0
  190.9490  176.9360  145.7790 C   0  0  0  0  0  0  0  0  0  0  0  0
  189.4230  177.4410  147.7280 C   0  0  0  0  0  3  0  0  0  0  0  0
  190.5620  176.7820  147.0600 C   0  0  0  0  0  3  0  0  0  0  0  0
  190.3060  177.8930  144.8440 C   0  0  0  0  0  0  0  0  0  0  0  0
  191.9770  175.2440  144.2750 C   0  0  0  0  0  1  0  0  0  0  0  0
  192.0590  176.2280  145.2990 O   0  0  0  0  0  0  0  0  0  0  0  0
  183.8020  178.3410  141.3820 C   0  0  0  0  0  3  0  0  0  0  0  0
  183.1310  176.6750  139.7070 C   0  0  0  0  0  1  0  0  0  0  0  0
  185.0730  178.4840  141.8060 C   0  0  0  0  0  0  0  0  0  0  0  0
  185.8720  178.1590  139.4010 C   0  0  0  0  0  2  0  0  0  0  0  0
  183.4130  178.1520  139.9420 C   0  0  2  0  0  3  0  0  0  0  0  0
  184.5030  178.7020  139.0090 C   0  0  2  0  0  3  0  0  0  0  0  0
  186.2120  178.6290  140.8140 C   0  0  0  0  0  2  0  0  0  0  0  0
  184.1970  178.5550  137.5180 C   0  0  0  0  0  2  0  0  0  0  0  0
  183.6350  176.0060  136.0730 C   0  0  0  0  0  1  0  0  0  0  0  0
  185.2480  177.8230  136.8230 N   0  0  0  0  0  2  0  0  0  0  0  0
  185.9510  176.0170  135.5430 O   0  0  0  0  0  0  0  0  0  0  0  0
  185.0000  176.6020  136.1240 C   0  0  0  0  0  0  0  0  0  0  0  0
  1  4  2  0  0  0  0
  1  7  1  0  0  0  0
  2  6  1  0  0  0  0
  3  8  1  0  0  0  0
  4  5  1  0  0  0  0
  5  8  2  0  0  0  0
  6  3  2  0  0  0  0
  7  6  1  0  0  0  0
  9 14  2  0  0  0  0
 10  5  1  6  0  0  0
 10  9  1  0  0  0  0
 11 16  2  0  0  0  0
 11 10  1  0  0  0  0
 12 16  1  0  0  0  0
 13 15  2  0  0  0  0
 15 14  1  0  0  0  0
 16 13  1  0  0  0  0
 17 18  1  0  0  0  0
 18 13  1  0  0  0  0
 19 21  2  0  0  0  0
 21  1  1  0  0  0  0
 22 25  1  0  0  0  0
 23 20  1  6  0  0  0
 23 19  1  0  0  0  0
 24 26  1  6  0  0  0
 24 22  1  0  0  0  0
 24 23  1  0  0  0  0
 25 21  1  0  0  0  0
 27 30  1  0  0  0  0
 28 26  1  0  0  0  0
 29 30  2  0  0  0  0
 30 28  1  0  0  0  0
M  END
>  <MODEL>
7

>  <REMARK>
 VINA RESULT:      -8.5      3.534      4.518
  Name = 
  5 active torsions:
  status: ('A' for Active; 'I' for Inactive)
    1  A    between atoms: C_5  and  C_7
    2  A    between atoms: O_6  and  C_18
    3  A    between atoms: C_9  and  C_19
    4  A    between atoms: C_10  and  N_21
    5  A    between atoms: C_10  and  C_26
                            x       y       z     vdW  Elec       q    Type
                         _______ _______ _______ _____ _____    ______ ____

>  <TORSDO>
F 5

$$$$
=
 OpenBabel11062413193D

 30 32  0  0  1  0  0  0  0  0999 V2000
  188.7910  177.7720  144.1610 C   0  0  0  0  0  0  0  0  0  0  0  0
  190.3690  176.9250  147.1870 O   0  0  0  0  0  1  0  0  0  0  0  0
  191.3080  176.3200  145.1240 C   0  0  0  0  0  3  0  0  0  0  0  0
  189.2220  177.1650  143.0450 C   0  0  0  0  0  3  0  0  0  0  0  0
  190.6210  176.7770  142.7410 C   0  0  0  0  0  0  0  0  0  0  0  0
  190.5010  177.1200  145.8200 C   0  0  0  0  0  0  0  0  0  0  0  0
  189.7770  178.2570  145.1800 C   0  0  0  0  0  2  0  0  0  0  0  0
  191.5030  176.3640  143.6620 C   0  0  0  0  0  3  0  0  0  0  0  0
  192.2340  177.5020  141.0340 C   0  0  0  0  0  3  0  0  0  0  0  0
  191.0320  176.6590  141.3080 C   0  0  2  0  0  3  0  0  0  0  0  0
  189.9250  177.0290  140.4360 N   0  0  0  0  0  0  0  0  0  0  0  0
  188.4540  177.3170  138.2790 Cl  0  0  0  0  0  0  0  0  0  0  0  0
  191.0970  176.4490  138.3560 C   0  0  0  0  0  0  0  0  0  0  0  0
  192.8400  177.5030  139.8500 C   0  0  0  0  0  3  0  0  0  0  0  0
  192.3720  176.7480  138.6720 C   0  0  0  0  0  3  0  0  0  0  0  0
  189.9300  176.9260  139.1400 C   0  0  0  0  0  0  0  0  0  0  0  0
  190.3430  174.3760  137.2080 C   0  0  0  0  0  1  0  0  0  0  0  0
  190.8230  175.7150  137.1940 O   0  0  0  0  0  0  0  0  0  0  0  0
  186.9180  178.6190  145.5030 C   0  0  0  0  0  3  0  0  0  0  0  0
  184.9290  177.8330  146.7090 C   0  0  0  0  0  1  0  0  0  0  0  0
  187.3480  178.0600  144.3550 C   0  0  0  0  0  0  0  0  0  0  0  0
  184.9220  177.8790  143.5780 C   0  0  0  0  0  2  0  0  0  0  0  0
  185.4770  178.9240  145.8000 C   0  0  2  0  0  3  0  0  0  0  0  0
  184.6730  179.0680  144.4980 C   0  0  2  0  0  3  0  0  0  0  0  0
  186.3990  177.8440  143.1920 C   0  0  0  0  0  2  0  0  0  0  0  0
  183.1900  179.3800  144.6980 C   0  0  0  0  0  2  0  0  0  0  0  0
  180.4830  178.2670  144.1170 C   0  0  0  0  0  1  0  0  0  0  0  0
  182.5170  179.6300  143.4300 N   0  0  0  0  0  2  0  0  0  0  0  0
  180.6940  179.3600  142.0180 O   0  0  0  0  0  0  0  0  0  0  0  0
  181.2210  179.1080  143.1310 C   0  0  0  0  0  0  0  0  0  0  0  0
  1 21  1  0  0  0  0
  1  7  1  0  0  0  0
  3  6  2  0  0  0  0
  4  1  2  0  0  0  0
  5  4  1  0  0  0  0
  5  8  2  0  0  0  0
  6  2  1  0  0  0  0
  7  6  1  0  0  0  0
  8  3  1  0  0  0  0
  9 10  1  0  0  0  0
 10  5  1  1  0  0  0
 11 10  1  0  0  0  0
 12 16  1  0  0  0  0
 13 15  2  0  0  0  0
 13 16  1  0  0  0  0
 14  9  2  0  0  0  0
 15 14  1  0  0  0  0
 16 11  2  0  0  0  0
 18 17  1  0  0  0  0
 18 13  1  0  0  0  0
 19 23  1  0  0  0  0
 21 19  2  0  0  0  0
 22 24  1  0  0  0  0
 23 20  1  1  0  0  0
 24 26  1  1  0  0  0
 24 23  1  0  0  0  0
 25 22  1  0  0  0  0
 25 21  1  0  0  0  0
 28 26  1  0  0  0  0
 29 30  2  0  0  0  0
 30 28  1  0  0  0  0
 30 27  1  0  0  0  0
M  END
>  <MODEL>
8

>  <REMARK>
 VINA RESULT:      -8.3      2.378      4.064
  Name = 
  5 active torsions:
  status: ('A' for Active; 'I' for Inactive)
    1  A    between atoms: C_5  and  C_7
    2  A    between atoms: O_6  and  C_18
    3  A    between atoms: C_9  and  C_19
    4  A    between atoms: C_10  and  N_21
    5  A    between atoms: C_10  and  C_26
                            x       y       z     vdW  Elec       q    Type
                         _______ _______ _______ _____ _____    ______ ____

>  <TORSDO>
F 5

$$$$
=
 OpenBabel11062413193D

 30 32  0  0  1  0  0  0  0  0999 V2000
  186.4320  177.7060  143.9650 C   0  0  0  0  0  0  0  0  0  0  0  0
  185.3320  179.3720  146.8590 O   0  0  0  0  0  1  0  0  0  0  0  0
  184.1290  179.5190  144.8500 C   0  0  0  0  0  3  0  0  0  0  0  0
  185.8680  178.0510  142.7980 C   0  0  0  0  0  3  0  0  0  0  0  0
  184.4540  178.4480  142.5890 C   0  0  0  0  0  0  0  0  0  0  0  0
  185.0000  178.8590  145.6140 C   0  0  0  0  0  0  0  0  0  0  0  0
  185.5860  177.5540  145.1910 C   0  0  0  0  0  2  0  0  0  0  0  0
  183.7260  179.1330  143.4830 C   0  0  0  0  0  3  0  0  0  0  0  0
  184.5810  179.0290  140.2040 C   0  0  0  0  0  3  0  0  0  0  0  0
  183.8470  178.2410  141.2390 C   0  0  2  0  0  3  0  0  0  0  0  0
  182.4350  178.6000  141.2630 N   0  0  0  0  0  0  0  0  0  0  0  0
  179.9180  178.8200  140.5460 Cl  0  0  0  0  0  0  0  0  0  0  0  0
  181.9970  177.8720  138.9580 C   0  0  0  0  0  0  0  0  0  0  0  0
  184.2820  178.9480  138.9110 C   0  0  0  0  0  3  0  0  0  0  0  0
  183.1720  178.1470  138.3600 C   0  0  0  0  0  3  0  0  0  0  0  0
  181.6050  178.4280  140.2770 C   0  0  0  0  0  0  0  0  0  0  0  0
  180.9080  175.6850  138.4930 C   0  0  0  0  0  1  0  0  0  0  0  0
  181.0460  177.0870  138.2920 O   0  0  0  0  0  0  0  0  0  0  0  0
  188.7040  178.1190  144.7980 C   0  0  0  0  0  3  0  0  0  0  0  0
  190.9080  178.8810  144.0280 C   0  0  0  0  0  1  0  0  0  0  0  0
  187.8770  177.3760  144.0360 C   0  0  0  0  0  0  0  0  0  0  0  0
  189.8910  176.0280  143.2310 C   0  0  0  0  0  2  0  0  0  0  0  0
  190.1830  177.8780  144.9140 C   0  0  2  0  0  3  0  0  0  0  0  0
  190.5240  176.4210  144.5600 C   0  0  2  0  0  3  0  0  0  0  0  0
  188.3710  176.1150  143.3530 C   0  0  0  0  0  2  0  0  0  0  0  0
  192.0110  176.0770  144.6490 C   0  0  0  0  0  2  0  0  0  0  0  0
  191.6350  177.0390  147.4490 C   0  0  0  0  0  1  0  0  0  0  0  0
  192.2970  175.2230  145.7950 N   0  0  0  0  0  2  0  0  0  0  0  0
  192.3870  174.8780  148.0900 O   0  0  0  0  0  0  0  0  0  0  0  0
  192.1230  175.6640  147.1430 C   0  0  0  0  0  0  0  0  0  0  0  0
  1 21  1  0  0  0  0
  1  7  1  0  0  0  0
  3  6  2  0  0  0  0
  4  1  2  0  0  0  0
  5  4  1  0  0  0  0
  5  8  2  0  0  0  0
  6  2  1  0  0  0  0
  7  6  1  0  0  0  0
  8  3  1  0  0  0  0
  9 10  1  0  0  0  0
 10 11  1  0  0  0  0
 10  5  1  1  0  0  0
 13 16  1  0  0  0  0
 14  9  2  0  0  0  0
 15 14  1  0  0  0  0
 15 13  2  0  0  0  0
 16 12  1  0  0  0  0
 16 11  2  0  0  0  0
 18 17  1  0  0  0  0
 18 13  1  0  0  0  0
 19 23  1  0  0  0  0
 21 19  2  0  0  0  0
 22 25  1  0  0  0  0
 22 24  1  0  0  0  0
 23 20  1  6  0  0  0
 24 26  1  6  0  0  0
 24 23  1  0  0  0  0
 25 21  1  0  0  0  0
 26 28  1  0  0  0  0
 28 30  1  0  0  0  0
 30 27  1  0  0  0  0
 30 29  2  0  0  0  0
M  END
>  <MODEL>
9

>  <REMARK>
 VINA RESULT:      -8.1      3.404      8.716
  Name = 
  5 active torsions:
  status: ('A' for Active; 'I' for Inactive)
    1  A    between atoms: C_5  and  C_7
    2  A    between atoms: O_6  and  C_18
    3  A    between atoms: C_9  and  C_19
    4  A    between atoms: C_10  and  N_21
    5  A    between atoms: C_10  and  C_26
                            x       y       z     vdW  Elec       q    Type
                         _______ _______ _______ _____ _____    ______ ____

>  <TORSDO>
F 5

$$$$
