=
 OpenBabel11062414533D

 56 60  0  0  1  0  0  0  0  0999 V2000
  184.5550  178.0270  143.7110 O   0  0  0  0  0  0  0  0  0  0  0  0
  183.5780  178.4600  142.8000 C   0  0  2  0  0  3  0  0  0  0  0  0
  185.6580  179.2550  141.5140 C   0  0  0  0  0  1  0  0  0  0  0  0
  184.2220  178.8500  141.4970 C   0  0  0  0  0  0  0  0  0  0  0  0
  183.5890  178.8040  140.3180 C   0  0  0  0  0  3  0  0  0  0  0  0
  182.1550  178.3700  140.1450 C   0  0  1  0  0  3  0  0  0  0  0  0
  180.7350  179.5890  138.5960 N   0  0  0  0  0  2  0  0  0  0  0  0
  181.2770  179.5970  139.9550 C   0  0  1  0  0  3  0  0  0  0  0  0
  180.5200  177.8810  136.8780 C   0  0  0  0  0  1  0  0  0  0  0  0
  181.4520  178.5540  137.8650 C   0  0  2  0  0  3  0  0  0  0  0  0
  181.9460  177.5530  138.8770 C   0  0  1  0  0  3  0  0  0  0  0  0
  180.1390  179.5700  140.9590 C   0  0  0  0  0  2  0  0  0  0  0  0
  179.7430  178.1410  141.2860 C   0  0  0  0  0  1  0  0  0  0  0  0
  183.1240  176.9480  138.4270 O   0  0  0  0  0  0  0  0  0  0  0  0
  182.8780  175.5730  138.4820 C   0  0  0  0  0  2  0  0  0  0  0  0
  182.6430  175.0200  137.0820 C   0  0  1  0  0  3  0  0  0  0  0  0
  183.8760  175.1900  136.2400 C   0  0  0  0  0  0  0  0  0  0  0  0
  185.0650  174.4820  136.5850 N   0  0  0  0  0  2  0  0  0  0  0  0
  183.8400  175.9090  135.2050 O   0  0  0  0  0  0  0  0  0  0  0  0
  188.0830  172.8180  136.1870 P   0  0  1  0  0  0  0  0  0  0  0  0
  189.4890  172.7030  135.2530 O   0  0  0  0  0  0  0  0  0  0  0  0
  186.3200  172.6270  135.0780 S   0  0  0  0  0  0  0  0  0  0  0  0
  188.1060  171.9600  137.4340 O   0  0  0  0  0  1  0  0  0  0  0  0
  187.5030  174.4980  136.4490 C   0  0  0  0  0  2  0  0  0  0  0  0
  186.1880  174.3690  135.6680 C   0  0  2  0  0  3  0  0  0  0  0  0
  182.2810  173.6700  137.1620 O   0  0  0  0  0  0  0  0  0  0  0  0
  181.6120  173.4000  135.9640 C   0  0  0  0  0  1  0  0  0  0  0  0
  181.7390  178.9300  143.9530 C   0  0  0  0  0  1  0  0  0  0  0  0
  182.8360  179.5300  143.3230 O   0  0  0  0  0  0  0  0  0  0  0  0
  184.6730  179.0360  144.6760 C   0  0  0  0  0  2  0  0  0  0  0  0
  184.6810  178.4490  146.0810 C   0  0  0  0  0  2  0  0  0  0  0  0
  185.7820  178.9880  146.8740 N   0  0  0  0  0  2  0  0  0  0  0  0
  191.7160  177.4080  146.2910 O   0  0  0  0  0  0  0  0  0  0  0  0
  191.3100  177.2140  144.9330 C   0  0  1  0  0  3  0  0  0  0  0  0
  187.0590  178.3530  147.0130 C   0  0  0  0  0  0  0  0  0  0  0  0
  188.8950  177.1310  146.0140 C   0  0  0  0  0  0  0  0  0  0  0  0
  187.6560  177.7640  145.8880 C   0  0  0  0  0  3  0  0  0  0  0  0
  188.9830  177.7080  148.3640 C   0  0  0  0  0  3  0  0  0  0  0  0
  187.7210  178.3090  148.2580 C   0  0  0  0  0  3  0  0  0  0  0  0
  190.9730  176.6380  147.2130 C   0  0  0  0  0  2  0  0  0  0  0  0
  189.5620  177.1190  147.2330 C   0  0  0  0  0  0  0  0  0  0  0  0
  189.7050  176.3490  144.6250 S   0  0  0  0  0  0  0  0  0  0  0  0
  191.2860  178.5520  144.2080 C   0  0  0  0  0  2  0  0  0  0  0  0
  191.6360  178.4260  142.7290 C   0  0  0  0  0  2  0  0  0  0  0  0
  190.4880  177.8130  141.9320 C   0  0  0  0  0  2  0  0  0  0  0  0
  192.3010  177.4630  140.5010 C   0  0  0  0  0  1  0  0  0  0  0  0
  190.8670  177.6960  140.5290 N   0  0  0  0  0  0  0  0  0  0  0  0
  190.2300  176.4910  140.0100 C   0  0  0  0  0  2  0  0  0  0  0  0
  191.0590  176.6230  137.6230 C   0  0  0  0  0  2  0  0  0  0  0  0
  189.3360  177.4080  135.8800 C   0  0  1  0  0  3  0  0  0  0  0  0
  189.3660  177.9420  134.6040 F   0  0  0  0  0  0  0  0  0  0  0  0
  190.6430  176.6440  136.1460 C   0  0  0  0  0  2  0  0  0  0  0  0
  188.9860  177.9220  138.3310 C   0  0  0  0  0  2  0  0  0  0  0  0
  189.8400  176.6620  138.5440 C   0  0  2  0  0  3  0  0  0  0  0  0
  187.9750  179.2290  136.6110 F   0  0  0  0  0  0  0  0  0  0  0  0
  189.1150  178.5100  136.9170 C   0  0  2  0  0  3  0  0  0  0  0  0
  1 30  1  0  0  0  0
  2  4  1  6  0  0  0
  2 29  1  0  0  0  0
  2  1  1  0  0  0  0
  4  3  1  0  0  0  0
  5  4  2  0  0  0  0
  6  5  1  6  0  0  0
  7  8  1  0  0  0  0
  8  6  1  0  0  0  0
  8 12  1  1  0  0  0
 10  9  1  6  0  0  0
 10  7  1  0  0  0  0
 10 11  1  0  0  0  0
 11 14  1  6  0  0  0
 11  6  1  0  0  0  0
 12 13  1  0  0  0  0
 14 15  1  0  0  0  0
 16 26  1  0  0  0  0
 16 15  1  1  0  0  0
 17 18  1  0  0  0  0
 17 16  1  0  0  0  0
 19 17  2  0  0  0  0
 20 21  2  6  0  0  0
 20 24  1  0  0  0  0
 20 23  1  0  0  0  0
 22 25  1  0  0  0  0
 22 20  1  0  0  0  0
 25 24  1  0  0  0  0
 25 18  1  1  0  0  0
 27 26  1  0  0  0  0
 29 28  1  0  0  0  0
 30 31  1  0  0  0  0
 31 32  1  0  0  0  0
 32 35  1  0  0  0  0
 33 40  1  0  0  0  0
 34 43  1  1  0  0  0
 34 33  1  0  0  0  0
 35 39  1  0  0  0  0
 36 41  2  0  0  0  0
 37 36  1  0  0  0  0
 37 35  2  0  0  0  0
 39 38  2  0  0  0  0
 40 41  1  0  0  0  0
 41 38  1  0  0  0  0
 42 34  1  0  0  0  0
 42 36  1  0  0  0  0
 44 43  1  0  0  0  0
 45 44  1  0  0  0  0
 46 47  1  0  0  0  0
 47 45  1  0  0  0  0
 48 47  1  0  0  0  0
 49 54  1  0  0  0  0
 50 51  1  6  0  0  0
 50 52  1  0  0  0  0
 50 56  1  0  0  0  0
 52 49  1  0  0  0  0
 53 54  1  0  0  0  0
 54 48  1  1  0  0  0
 56 55  1  6  0  0  0
 56 53  1  0  0  0  0
M  END
>  <MODEL>
1

>  <REMARK>
 VINA RESULT:      -7.1      0.000      0.000
  Name = 
  21 active torsions:
  status: ('A' for Active; 'I' for Inactive)
    1  A    between atoms: C_3  and  C_13
    2  A    between atoms: C_4  and  N_16
    3  A    between atoms: C_7  and  C_35
    4  A    between atoms: O_8  and  C_35
    5  A    between atoms: C_13  and  C_24
    6  A    between atoms: C_14  and  C_54
    7  A    between atoms: N_16  and  C_45
    8  A    between atoms: N_17  and  C_52
    9  A    between atoms: C_22  and  C_27
   10  A    between atoms: C_24  and  C_40
   11  A    between atoms: O_25  and  C_53
   12  A    between atoms: O_29  and  C_41
   13  A    between atoms: O_29  and  C_42
   14  A    between atoms: C_35  and  C_42
   15  A    between atoms: O_38  and  C_49
   16  A    between atoms: O_38  and  C_53
   17  A    between atoms: C_40  and  N_55
   18  A    between atoms: C_45  and  C_49
   19  A    between atoms: C_46  and  C_50
   20  A    between atoms: C_46  and  N_55
   21  A    between atoms: C_48  and  C_53
                            x       y       z     vdW  Elec       q    Type
                         _______ _______ _______ _____ _____    ______ ____

>  <TORSDO>
F 21

$$$$
=
 OpenBabel11062414533D

 56 60  0  0  1  0  0  0  0  0999 V2000
  190.1760  176.1800  140.7320 O   0  0  0  0  0  0  0  0  0  0  0  0
  189.9580  176.7010  142.0170 C   0  0  2  0  0  3  0  0  0  0  0  0
  188.8460  178.6210  140.7180 C   0  0  0  0  0  1  0  0  0  0  0  0
  188.9350  177.8040  141.9620 C   0  0  0  0  0  0  0  0  0  0  0  0
  188.0680  178.0570  142.9520 C   0  0  0  0  0  3  0  0  0  0  0  0
  188.0130  177.2830  144.2450 C   0  0  1  0  0  3  0  0  0  0  0  0
  188.0080  178.5010  146.3470 N   0  0  0  0  0  2  0  0  0  0  0  0
  188.8730  177.9810  145.2860 C   0  0  1  0  0  3  0  0  0  0  0  0
  185.7150  178.0530  147.0220 C   0  0  0  0  0  1  0  0  0  0  0  0
  186.6380  178.3810  145.8670 C   0  0  2  0  0  3  0  0  0  0  0  0
  186.6170  177.2680  144.8510 C   0  0  1  0  0  3  0  0  0  0  0  0
  189.8640  176.9930  145.8750 C   0  0  0  0  0  2  0  0  0  0  0  0
  189.5670  176.7410  147.3430 C   0  0  0  0  0  1  0  0  0  0  0  0
  185.6150  177.4960  143.9020 O   0  0  0  0  0  0  0  0  0  0  0  0
  185.1620  178.7960  144.1470 C   0  0  0  0  0  2  0  0  0  0  0  0
  183.9950  179.1330  143.2270 C   0  0  1  0  0  3  0  0  0  0  0  0
  184.3840  178.9280  141.7910 C   0  0  0  0  0  0  0  0  0  0  0  0
  183.5810  178.0920  140.9590 N   0  0  0  0  0  2  0  0  0  0  0  0
  185.3810  179.5340  141.3130 O   0  0  0  0  0  0  0  0  0  0  0  0
  181.6960  178.0420  138.0470 P   0  0  1  0  0  0  0  0  0  0  0  0
  181.7520  177.9040  136.3630 O   0  0  0  0  0  0  0  0  0  0  0  0
  182.9040  179.5720  138.8060 S   0  0  0  0  0  0  0  0  0  0  0  0
  180.2920  178.0480  138.6130 O   0  0  0  0  0  1  0  0  0  0  0  0
  182.8460  176.9720  138.9180 C   0  0  0  0  0  2  0  0  0  0  0  0
  183.7260  178.0810  139.5110 C   0  0  2  0  0  3  0  0  0  0  0  0
  182.8890  178.3410  143.5580 O   0  0  0  0  0  0  0  0  0  0  0  0
  181.7820  179.1860  143.4310 C   0  0  0  0  0  1  0  0  0  0  0  0
  191.5750  176.1330  143.4300 C   0  0  0  0  0  1  0  0  0  0  0  0
  191.1540  177.1670  142.5850 O   0  0  0  0  0  0  0  0  0  0  0  0
  191.2460  176.9030  140.1870 C   0  0  0  0  0  2  0  0  0  0  0  0
  191.5190  176.4720  138.7520 C   0  0  0  0  0  2  0  0  0  0  0  0
  190.4930  175.5520  138.2700 N   0  0  0  0  0  2  0  0  0  0  0  0
  184.8070  176.2300  135.9790 O   0  0  0  0  0  0  0  0  0  0  0  0
  184.9260  174.8120  135.8360 C   0  0  1  0  0  3  0  0  0  0  0  0
  189.3620  175.9490  137.4850 C   0  0  0  0  0  0  0  0  0  0  0  0
  187.5110  175.3400  136.0480 C   0  0  0  0  0  0  0  0  0  0  0  0
  188.6080  174.9650  136.8270 C   0  0  0  0  0  3  0  0  0  0  0  0
  187.8710  177.6670  136.6090 C   0  0  0  0  0  3  0  0  0  0  0  0
  188.9990  177.3060  137.3600 C   0  0  0  0  0  3  0  0  0  0  0  0
  185.8200  176.9480  135.3050 C   0  0  0  0  0  2  0  0  0  0  0  0
  187.1330  176.6740  135.9550 C   0  0  0  0  0  0  0  0  0  0  0  0
  186.5160  174.1400  135.1730 S   0  0  0  0  0  0  0  0  0  0  0  0
  184.6310  174.1350  137.1660 C   0  0  0  0  0  2  0  0  0  0  0  0
  185.1020  172.6850  137.2060 C   0  0  0  0  0  2  0  0  0  0  0  0
  183.9300  171.7130  137.1120 C   0  0  0  0  0  2  0  0  0  0  0  0
  184.0900  170.1020  135.4280 C   0  0  0  0  0  1  0  0  0  0  0  0
  183.6190  171.4470  135.7130 N   0  0  0  0  0  0  0  0  0  0  0  0
  182.1650  171.4220  135.5920 C   0  0  0  0  0  2  0  0  0  0  0  0
  180.4190  171.9620  137.3420 C   0  0  0  0  0  2  0  0  0  0  0  0
  179.9510  174.4630  137.7240 C   0  0  1  0  0  3  0  0  0  0  0  0
  178.9320  175.2260  138.2680 F   0  0  0  0  0  0  0  0  0  0  0  0
  179.8850  173.0380  138.2960 C   0  0  0  0  0  2  0  0  0  0  0  0
  181.0360  173.6890  135.5750 C   0  0  0  0  0  2  0  0  0  0  0  0
  181.5230  172.5160  136.4410 C   0  0  2  0  0  3  0  0  0  0  0  0
  179.8420  175.7490  135.7150 F   0  0  0  0  0  0  0  0  0  0  0  0
  179.8580  174.4540  136.1980 C   0  0  2  0  0  3  0  0  0  0  0  0
  2  1  1  6  0  0  0
  2 29  1  0  0  0  0
  3  4  1  0  0  0  0
  4  2  1  0  0  0  0
  4  5  2  0  0  0  0
  6  5  1  6  0  0  0
  6 11  1  0  0  0  0
  6  8  1  0  0  0  0
  8 12  1  1  0  0  0
  8  7  1  0  0  0  0
 10  7  1  0  0  0  0
 10  9  1  1  0  0  0
 11 14  1  6  0  0  0
 11 10  1  0  0  0  0
 12 13  1  0  0  0  0
 14 15  1  0  0  0  0
 16 26  1  0  0  0  0
 16 15  1  1  0  0  0
 17 16  1  0  0  0  0
 18 17  1  0  0  0  0
 19 17  2  0  0  0  0
 20 21  2  6  0  0  0
 20 23  1  0  0  0  0
 20 22  1  0  0  0  0
 20 24  1  0  0  0  0
 22 25  1  0  0  0  0
 24 25  1  0  0  0  0
 25 18  1  1  0  0  0
 27 26  1  0  0  0  0
 29 28  1  0  0  0  0
 30  1  1  0  0  0  0
 31 30  1  0  0  0  0
 32 31  1  0  0  0  0
 34 33  1  0  0  0  0
 34 43  1  1  0  0  0
 35 32  1  0  0  0  0
 36 37  1  0  0  0  0
 37 35  2  0  0  0  0
 38 39  2  0  0  0  0
 39 35  1  0  0  0  0
 40 41  1  0  0  0  0
 40 33  1  0  0  0  0
 41 36  2  0  0  0  0
 41 38  1  0  0  0  0
 42 34  1  0  0  0  0
 42 36  1  0  0  0  0
 43 44  1  0  0  0  0
 45 44  1  0  0  0  0
 46 47  1  0  0  0  0
 47 45  1  0  0  0  0
 48 47  1  0  0  0  0
 49 52  1  0  0  0  0
 50 51  1  1  0  0  0
 50 52  1  0  0  0  0
 53 56  1  0  0  0  0
 53 54  1  0  0  0  0
 54 48  1  6  0  0  0
 54 49  1  0  0  0  0
 56 55  1  6  0  0  0
 56 50  1  0  0  0  0
M  END
>  <MODEL>
2

>  <REMARK>
 VINA RESULT:      -7.0      3.278      9.483
  Name = 
  21 active torsions:
  status: ('A' for Active; 'I' for Inactive)
    1  A    between atoms: C_3  and  C_13
    2  A    between atoms: C_4  and  N_16
    3  A    between atoms: C_7  and  C_35
    4  A    between atoms: O_8  and  C_35
    5  A    between atoms: C_13  and  C_24
    6  A    between atoms: C_14  and  C_54
    7  A    between atoms: N_16  and  C_45
    8  A    between atoms: N_17  and  C_52
    9  A    between atoms: C_22  and  C_27
   10  A    between atoms: C_24  and  C_40
   11  A    between atoms: O_25  and  C_53
   12  A    between atoms: O_29  and  C_41
   13  A    between atoms: O_29  and  C_42
   14  A    between atoms: C_35  and  C_42
   15  A    between atoms: O_38  and  C_49
   16  A    between atoms: O_38  and  C_53
   17  A    between atoms: C_40  and  N_55
   18  A    between atoms: C_45  and  C_49
   19  A    between atoms: C_46  and  C_50
   20  A    between atoms: C_46  and  N_55
   21  A    between atoms: C_48  and  C_53
                            x       y       z     vdW  Elec       q    Type
                         _______ _______ _______ _____ _____    ______ ____

>  <TORSDO>
F 21

$$$$
=
 OpenBabel11062414533D

 56 60  0  0  1  0  0  0  0  0999 V2000
  188.6840  177.3730  142.2390 O   0  0  0  0  0  0  0  0  0  0  0  0
  189.9660  176.8960  142.5550 C   0  0  2  0  0  3  0  0  0  0  0  0
  192.2980  177.8820  142.1090 C   0  0  0  0  0  1  0  0  0  0  0  0
  190.9760  177.4390  141.5800 C   0  0  0  0  0  0  0  0  0  0  0  0
  190.7680  177.4980  140.2580 C   0  0  0  0  0  3  0  0  0  0  0  0
  189.5000  177.0420  139.5810 C   0  0  1  0  0  3  0  0  0  0  0  0
  188.8550  178.0690  137.4770 N   0  0  0  0  0  2  0  0  0  0  0  0
  188.8200  178.2360  138.9310 C   0  0  1  0  0  3  0  0  0  0  0  0
  189.2590  176.1740  136.0080 C   0  0  0  0  0  1  0  0  0  0  0  0
  189.7560  176.9590  137.2040 C   0  0  2  0  0  3  0  0  0  0  0  0
  189.7710  176.0840  138.4300 C   0  0  1  0  0  3  0  0  0  0  0  0
  187.3790  178.3200  139.4010 C   0  0  0  0  0  2  0  0  0  0  0  0
  186.4210  178.0900  138.2450 C   0  0  0  0  0  1  0  0  0  0  0  0
  191.0050  175.4350  138.5490 O   0  0  0  0  0  0  0  0  0  0  0  0
  191.8750  176.1370  137.7090 C   0  0  0  0  0  2  0  0  0  0  0  0
  192.6490  175.1720  136.8210 C   0  0  1  0  0  3  0  0  0  0  0  0
  194.0270  174.9440  137.3740 C   0  0  0  0  0  0  0  0  0  0  0  0
  194.9100  174.0420  136.7080 N   0  0  0  0  0  2  0  0  0  0  0  0
  194.4180  175.5870  138.3860 O   0  0  0  0  0  0  0  0  0  0  0  0
  197.5600  171.8130  136.9230 P   0  0  1  0  0  0  0  0  0  0  0  0
  199.1790  171.6260  137.3730 O   0  0  0  0  0  1  0  0  0  0  0  0
  197.2430  173.3510  135.5420 S   0  0  0  0  0  0  0  0  0  0  0  0
  196.8770  170.5160  136.5460 O   0  0  0  0  0  0  0  0  0  0  0  0
  196.6040  172.8680  138.0180 C   0  0  0  0  0  2  0  0  0  0  0  0
  196.3320  173.9930  137.0100 C   0  0  2  0  0  3  0  0  0  0  0  0
  191.9520  173.9630  136.7150 O   0  0  0  0  0  0  0  0  0  0  0  0
  191.8700  173.7060  135.3430 C   0  0  0  0  0  1  0  0  0  0  0  0
  190.9430  175.1640  143.5450 C   0  0  0  0  0  1  0  0  0  0  0  0
  189.9970  175.4930  142.5660 O   0  0  0  0  0  0  0  0  0  0  0  0
  187.8030  176.7790  143.1520 C   0  0  0  0  0  2  0  0  0  0  0  0
  186.7580  177.7780  143.6300 C   0  0  0  0  0  2  0  0  0  0  0  0
  185.8560  178.1590  142.5470 N   0  0  0  0  0  2  0  0  0  0  0  0
  179.6960  177.8510  142.5770 O   0  0  0  0  0  0  0  0  0  0  0  0
  179.9080  177.7100  141.1700 C   0  0  1  0  0  3  0  0  0  0  0  0
  184.4630  178.4450  142.7230 C   0  0  0  0  0  0  0  0  0  0  0  0
  182.2660  178.7620  141.7560 C   0  0  0  0  0  0  0  0  0  0  0  0
  183.6240  178.4730  141.5990 C   0  0  0  0  0  3  0  0  0  0  0  0
  182.5540  178.9480  144.1520 C   0  0  0  0  0  3  0  0  0  0  0  0
  183.9250  178.7000  144.0020 C   0  0  0  0  0  3  0  0  0  0  0  0
  180.2450  179.0380  143.1110 C   0  0  0  0  0  2  0  0  0  0  0  0
  181.7310  178.9780  143.0210 C   0  0  0  0  0  0  0  0  0  0  0  0
  181.1440  178.8270  140.3660 S   0  0  0  0  0  0  0  0  0  0  0  0
  180.2760  176.2690  140.8470 C   0  0  0  0  0  2  0  0  0  0  0  0
  181.2110  176.1540  139.6480 C   0  0  0  0  0  2  0  0  0  0  0  0
  180.4440  175.8390  138.3680 C   0  0  0  0  0  2  0  0  0  0  0  0
  180.5350  174.9200  136.2220 C   0  0  0  0  0  1  0  0  0  0  0  0
  181.3410  175.2390  137.3880 N   0  0  0  0  0  0  0  0  0  0  0  0
  182.2870  176.2720  136.9810 C   0  0  0  0  0  2  0  0  0  0  0  0
  184.3160  175.6540  135.6010 C   0  0  0  0  0  2  0  0  0  0  0  0
  186.1740  174.3840  136.8470 C   0  0  1  0  0  3  0  0  0  0  0  0
  187.2460  173.5760  136.5070 F   0  0  0  0  0  0  0  0  0  0  0  0
  185.8010  175.2710  135.6490 C   0  0  0  0  0  2  0  0  0  0  0  0
  183.8220  174.4190  137.7730 C   0  0  0  0  0  2  0  0  0  0  0  0
  183.7200  175.7470  137.0050 C   0  0  2  0  0  3  0  0  0  0  0  0
  185.3700  172.6920  138.3290 F   0  0  0  0  0  0  0  0  0  0  0  0
  184.9870  173.5350  137.3020 C   0  0  2  0  0  3  0  0  0  0  0  0
  1  2  1  0  0  0  0
  1 30  1  0  0  0  0
  2  4  1  6  0  0  0
  2 29  1  0  0  0  0
  4  3  1  0  0  0  0
  5  4  2  0  0  0  0
  6  5  1  6  0  0  0
  7  8  1  0  0  0  0
  8 12  1  1  0  0  0
  8  6  1  0  0  0  0
 10  9  1  6  0  0  0
 10  7  1  0  0  0  0
 10 11  1  0  0  0  0
 11 14  1  1  0  0  0
 11  6  1  0  0  0  0
 13 12  1  0  0  0  0
 15 14  1  0  0  0  0
 16 17  1  0  0  0  0
 16 15  1  1  0  0  0
 17 19  2  0  0  0  0
 18 17  1  0  0  0  0
 20 23  2  6  0  0  0
 20 21  1  0  0  0  0
 20 24  1  0  0  0  0
 22 20  1  0  0  0  0
 22 25  1  0  0  0  0
 25 18  1  6  0  0  0
 25 24  1  0  0  0  0
 26 16  1  0  0  0  0
 27 26  1  0  0  0  0
 29 28  1  0  0  0  0
 30 31  1  0  0  0  0
 32 35  1  0  0  0  0
 32 31  1  0  0  0  0
 33 40  1  0  0  0  0
 34 43  1  1  0  0  0
 34 33  1  0  0  0  0
 35 39  1  0  0  0  0
 36 41  2  0  0  0  0
 37 36  1  0  0  0  0
 37 35  2  0  0  0  0
 39 38  2  0  0  0  0
 41 40  1  0  0  0  0
 41 38  1  0  0  0  0
 42 34  1  0  0  0  0
 42 36  1  0  0  0  0
 44 43  1  0  0  0  0
 45 44  1  0  0  0  0
 46 47  1  0  0  0  0
 47 45  1  0  0  0  0
 48 47  1  0  0  0  0
 49 52  1  0  0  0  0
 49 54  1  0  0  0  0
 50 51  1  6  0  0  0
 50 56  1  0  0  0  0
 52 50  1  0  0  0  0
 54 48  1  6  0  0  0
 54 53  1  0  0  0  0
 56 53  1  0  0  0  0
 56 55  1  1  0  0  0
M  END
>  <MODEL>
3

>  <REMARK>
 VINA RESULT:      -6.6      4.123      8.605
  Name = 
  21 active torsions:
  status: ('A' for Active; 'I' for Inactive)
    1  A    between atoms: C_3  and  C_13
    2  A    between atoms: C_4  and  N_16
    3  A    between atoms: C_7  and  C_35
    4  A    between atoms: O_8  and  C_35
    5  A    between atoms: C_13  and  C_24
    6  A    between atoms: C_14  and  C_54
    7  A    between atoms: N_16  and  C_45
    8  A    between atoms: N_17  and  C_52
    9  A    between atoms: C_22  and  C_27
   10  A    between atoms: C_24  and  C_40
   11  A    between atoms: O_25  and  C_53
   12  A    between atoms: O_29  and  C_41
   13  A    between atoms: O_29  and  C_42
   14  A    between atoms: C_35  and  C_42
   15  A    between atoms: O_38  and  C_49
   16  A    between atoms: O_38  and  C_53
   17  A    between atoms: C_40  and  N_55
   18  A    between atoms: C_45  and  C_49
   19  A    between atoms: C_46  and  C_50
   20  A    between atoms: C_46  and  N_55
   21  A    between atoms: C_48  and  C_53
                            x       y       z     vdW  Elec       q    Type
                         _______ _______ _______ _____ _____    ______ ____

>  <TORSDO>
F 21

$$$$
=
 OpenBabel11062414533D

 56 60  0  0  1  0  0  0  0  0999 V2000
  184.7200  178.6360  143.7420 O   0  0  0  0  0  0  0  0  0  0  0  0
  183.5750  178.5000  142.9410 C   0  0  2  0  0  3  0  0  0  0  0  0
  185.2890  179.2210  141.1660 C   0  0  0  0  0  1  0  0  0  0  0  0
  183.9310  178.7000  141.4920 C   0  0  0  0  0  0  0  0  0  0  0  0
  183.1090  178.3890  140.4810 C   0  0  0  0  0  3  0  0  0  0  0  0
  181.7280  177.8110  140.6610 C   0  0  1  0  0  3  0  0  0  0  0  0
  180.0950  178.0880  138.8830 N   0  0  0  0  0  2  0  0  0  0  0  0
  180.7060  178.7490  140.0380 C   0  0  1  0  0  3  0  0  0  0  0  0
  179.9860  175.7800  138.1270 C   0  0  0  0  0  1  0  0  0  0  0  0
  180.8860  176.8950  138.6170 C   0  0  2  0  0  3  0  0  0  0  0  0
  181.5470  176.4990  139.9120 C   0  0  1  0  0  3  0  0  0  0  0  0
  179.6340  179.0860  141.0590 C   0  0  0  0  0  2  0  0  0  0  0  0
  179.8420  180.4830  141.6170 C   0  0  0  0  0  1  0  0  0  0  0  0
  182.7610  175.8510  139.6600 O   0  0  0  0  0  0  0  0  0  0  0  0
  182.9810  175.9990  138.2870 C   0  0  0  0  0  2  0  0  0  0  0  0
  184.2680  175.2950  137.8780 C   0  0  1  0  0  3  0  0  0  0  0  0
  183.9590  173.9770  137.2260 C   0  0  0  0  0  0  0  0  0  0  0  0
  182.6050  173.6460  136.9210 N   0  0  0  0  0  2  0  0  0  0  0  0
  184.8940  173.1960  136.9020 O   0  0  0  0  0  0  0  0  0  0  0  0
  179.9930  171.4900  136.1690 P   0  0  1  0  0  0  0  0  0  0  0  0
  179.5360  170.1250  135.2810 O   0  0  0  0  0  0  0  0  0  0  0  0
  180.8190  173.0150  134.9990 S   0  0  0  0  0  0  0  0  0  0  0  0
  178.9310  171.9780  137.1310 O   0  0  0  0  0  1  0  0  0  0  0  0
  181.6460  171.4010  136.8660 C   0  0  0  0  0  2  0  0  0  0  0  0
  182.2620  172.5390  136.0420 C   0  0  2  0  0  3  0  0  0  0  0  0
  185.0010  176.1150  137.0120 O   0  0  0  0  0  0  0  0  0  0  0  0
  184.3880  177.3690  137.0890 C   0  0  0  0  0  1  0  0  0  0  0  0
  181.5990  178.6070  143.9480 C   0  0  0  0  0  1  0  0  0  0  0  0
  182.5730  179.4010  143.3310 O   0  0  0  0  0  0  0  0  0  0  0  0
  184.2730  179.0440  145.0060 C   0  0  0  0  0  2  0  0  0  0  0  0
  184.6120  178.0040  146.0660 C   0  0  0  0  0  2  0  0  0  0  0  0
  185.8600  178.3310  146.7490 N   0  0  0  0  0  2  0  0  0  0  0  0
  191.0430  177.6160  143.4820 O   0  0  0  0  0  0  0  0  0  0  0  0
  190.1070  177.1740  142.4950 C   0  0  1  0  0  3  0  0  0  0  0  0
  187.1570  177.9260  146.2930 C   0  0  0  0  0  0  0  0  0  0  0  0
  188.5320  176.8730  144.6010 C   0  0  0  0  0  0  0  0  0  0  0  0
  187.2740  177.2840  145.0510 C   0  0  0  0  0  3  0  0  0  0  0  0
  189.5720  177.7790  146.5900 C   0  0  0  0  0  3  0  0  0  0  0  0
  188.3100  178.1580  147.0700 C   0  0  0  0  0  3  0  0  0  0  0  0
  190.9790  176.8770  144.6840 C   0  0  0  0  0  2  0  0  0  0  0  0
  189.6710  177.1340  145.3520 C   0  0  0  0  0  0  0  0  0  0  0  0
  188.7510  176.0380  143.0350 S   0  0  0  0  0  0  0  0  0  0  0  0
  189.4830  178.3770  141.8030 C   0  0  0  0  0  2  0  0  0  0  0  0
  188.7190  177.9990  140.5380 C   0  0  0  0  0  2  0  0  0  0  0  0
  189.6630  177.7560  139.3650 C   0  0  0  0  0  2  0  0  0  0  0  0
  188.0330  178.5440  137.8890 C   0  0  0  0  0  1  0  0  0  0  0  0
  188.8950  177.4090  138.1750 N   0  0  0  0  0  0  0  0  0  0  0  0
  189.8390  177.3020  137.0690 C   0  0  0  0  0  2  0  0  0  0  0  0
  188.4140  175.2460  136.6890 C   0  0  0  0  0  2  0  0  0  0  0  0
  189.6070  173.2420  135.6020 C   0  0  1  0  0  3  0  0  0  0  0  0
  189.3970  171.8770  135.5020 F   0  0  0  0  0  0  0  0  0  0  0  0
  188.2710  173.9460  135.8870 C   0  0  0  0  0  2  0  0  0  0  0  0
  190.9530  175.0510  136.7460 C   0  0  0  0  0  2  0  0  0  0  0  0
  189.7460  175.9360  136.3940 C   0  0  2  0  0  3  0  0  0  0  0  0
  191.8040  172.8430  136.4480 F   0  0  0  0  0  0  0  0  0  0  0  0
  190.6390  173.5480  136.6870 C   0  0  2  0  0  3  0  0  0  0  0  0
  1 30  1  0  0  0  0
  2  4  1  6  0  0  0
  2 29  1  0  0  0  0
  2  1  1  0  0  0  0
  3  4  1  0  0  0  0
  5  4  2  0  0  0  0
  6  5  1  6  0  0  0
  7  8  1  0  0  0  0
  8  6  1  0  0  0  0
  8 12  1  1  0  0  0
 10  9  1  1  0  0  0
 10  7  1  0  0  0  0
 10 11  1  0  0  0  0
 11 14  1  6  0  0  0
 11  6  1  0  0  0  0
 12 13  1  0  0  0  0
 15 14  1  0  0  0  0
 16 15  1  6  0  0  0
 17 16  1  0  0  0  0
 18 17  1  0  0  0  0
 19 17  2  0  0  0  0
 20 21  2  6  0  0  0
 20 24  1  0  0  0  0
 20 23  1  0  0  0  0
 22 25  1  0  0  0  0
 22 20  1  0  0  0  0
 25 24  1  0  0  0  0
 25 18  1  1  0  0  0
 26 27  1  0  0  0  0
 26 16  1  0  0  0  0
 29 28  1  0  0  0  0
 30 31  1  0  0  0  0
 31 32  1  0  0  0  0
 33 40  1  0  0  0  0
 34 43  1  1  0  0  0
 34 42  1  0  0  0  0
 34 33  1  0  0  0  0
 35 32  1  0  0  0  0
 35 39  1  0  0  0  0
 36 37  1  0  0  0  0
 36 41  2  0  0  0  0
 37 35  2  0  0  0  0
 38 39  2  0  0  0  0
 40 41  1  0  0  0  0
 41 38  1  0  0  0  0
 42 36  1  0  0  0  0
 44 43  1  0  0  0  0
 45 44  1  0  0  0  0
 46 47  1  0  0  0  0
 47 45  1  0  0  0  0
 48 47  1  0  0  0  0
 50 51  1  1  0  0  0
 50 52  1  0  0  0  0
 50 56  1  0  0  0  0
 52 49  1  0  0  0  0
 54 49  1  0  0  0  0
 54 53  1  0  0  0  0
 54 48  1  1  0  0  0
 56 55  1  6  0  0  0
 56 53  1  0  0  0  0
M  END
>  <MODEL>
4

>  <REMARK>
 VINA RESULT:      -6.5      2.456      3.622
  Name = 
  21 active torsions:
  status: ('A' for Active; 'I' for Inactive)
    1  A    between atoms: C_3  and  C_13
    2  A    between atoms: C_4  and  N_16
    3  A    between atoms: C_7  and  C_35
    4  A    between atoms: O_8  and  C_35
    5  A    between atoms: C_13  and  C_24
    6  A    between atoms: C_14  and  C_54
    7  A    between atoms: N_16  and  C_45
    8  A    between atoms: N_17  and  C_52
    9  A    between atoms: C_22  and  C_27
   10  A    between atoms: C_24  and  C_40
   11  A    between atoms: O_25  and  C_53
   12  A    between atoms: O_29  and  C_41
   13  A    between atoms: O_29  and  C_42
   14  A    between atoms: C_35  and  C_42
   15  A    between atoms: O_38  and  C_49
   16  A    between atoms: O_38  and  C_53
   17  A    between atoms: C_40  and  N_55
   18  A    between atoms: C_45  and  C_49
   19  A    between atoms: C_46  and  C_50
   20  A    between atoms: C_46  and  N_55
   21  A    between atoms: C_48  and  C_53
                            x       y       z     vdW  Elec       q    Type
                         _______ _______ _______ _____ _____    ______ ____

>  <TORSDO>
F 21

$$$$
=
 OpenBabel11062414533D

 56 60  0  0  1  0  0  0  0  0999 V2000
  190.2180  175.9680  143.6910 O   0  0  0  0  0  0  0  0  0  0  0  0
  190.3320  176.9580  144.6810 C   0  0  2  0  0  3  0  0  0  0  0  0
  190.7860  179.1810  143.4710 C   0  0  0  0  0  1  0  0  0  0  0  0
  189.8220  178.2740  144.1590 C   0  0  0  0  0  0  0  0  0  0  0  0
  188.5390  178.6510  144.2360 C   0  0  0  0  0  3  0  0  0  0  0  0
  187.4490  177.8170  144.8620 C   0  0  1  0  0  3  0  0  0  0  0  0
  185.8910  178.8750  146.3960 N   0  0  0  0  0  2  0  0  0  0  0  0
  187.2230  178.2760  146.2930 C   0  0  1  0  0  3  0  0  0  0  0  0
  183.9020  178.8100  144.9980 C   0  0  0  0  0  1  0  0  0  0  0  0
  185.3990  179.0390  145.0350 C   0  0  2  0  0  3  0  0  0  0  0  0
  186.1030  178.0180  144.1800 C   0  0  1  0  0  3  0  0  0  0  0  0
  187.3220  177.0870  147.2320 C   0  0  0  0  0  2  0  0  0  0  0  0
  187.9500  177.4950  148.5530 C   0  0  0  0  0  1  0  0  0  0  0  0
  186.2290  178.4870  142.8680 O   0  0  0  0  0  0  0  0  0  0  0  0
  184.9810  179.0300  142.5480 C   0  0  0  0  0  2  0  0  0  0  0  0
  184.5610  178.6050  141.1470 C   0  0  1  0  0  3  0  0  0  0  0  0
  183.0710  178.7220  140.9900 C   0  0  0  0  0  0  0  0  0  0  0  0
  182.5380  179.5230  139.9360 N   0  0  0  0  0  2  0  0  0  0  0  0
  182.3020  178.0730  141.7480 O   0  0  0  0  0  0  0  0  0  0  0  0
  180.5190  178.9570  137.1730 P   0  0  1  0  0  0  0  0  0  0  0  0
  178.9310  178.9720  136.5910 O   0  0  0  0  0  1  0  0  0  0  0  0
  180.7780  177.7730  138.8770 S   0  0  0  0  0  0  0  0  0  0  0  0
  181.5600  178.7060  136.1020 O   0  0  0  0  0  0  0  0  0  0  0  0
  180.9110  180.3060  138.2920 C   0  0  0  0  0  2  0  0  0  0  0  0
  181.1390  179.4520  139.5470 C   0  0  2  0  0  3  0  0  0  0  0  0
  185.2220  179.3900  140.1960 O   0  0  0  0  0  0  0  0  0  0  0  0
  185.8260  178.4790  139.3250 C   0  0  0  0  0  1  0  0  0  0  0  0
  191.7720  176.1780  146.1820 C   0  0  0  0  0  1  0  0  0  0  0  0
  191.6590  177.0840  145.1200 O   0  0  0  0  0  0  0  0  0  0  0  0
  190.9960  176.3990  142.6080 C   0  0  0  0  0  2  0  0  0  0  0  0
  190.1920  176.3700  141.3150 C   0  0  0  0  0  2  0  0  0  0  0  0
  190.5940  177.4490  140.4180 N   0  0  0  0  0  2  0  0  0  0  0  0
  188.4630  176.1790  134.7710 O   0  0  0  0  0  0  0  0  0  0  0  0
  189.4000  175.1040  134.8910 C   0  0  1  0  0  3  0  0  0  0  0  0
  190.2300  177.5220  139.0330 C   0  0  0  0  0  0  0  0  0  0  0  0
  190.4220  176.6460  136.7840 C   0  0  0  0  0  0  0  0  0  0  0  0
  190.7590  176.5790  138.1380 C   0  0  0  0  0  3  0  0  0  0  0  0
  188.9940  178.5550  137.2050 C   0  0  0  0  0  3  0  0  0  0  0  0
  189.3570  178.5220  138.5580 C   0  0  0  0  0  3  0  0  0  0  0  0
  189.0520  177.4540  134.9220 C   0  0  0  0  0  2  0  0  0  0  0  0
  189.5340  177.6110  136.3240 C   0  0  0  0  0  0  0  0  0  0  0  0
  191.0700  175.4860  135.5880 S   0  0  0  0  0  0  0  0  0  0  0  0
  188.7840  173.9740  135.7020 C   0  0  0  0  0  2  0  0  0  0  0  0
  187.6990  173.2230  134.9370 C   0  0  0  0  0  2  0  0  0  0  0  0
  186.3040  173.7010  135.3280 C   0  0  0  0  0  2  0  0  0  0  0  0
  186.2380  171.3660  135.3280 C   0  0  0  0  0  1  0  0  0  0  0  0
  185.4410  172.5540  135.5800 N   0  0  0  0  0  0  0  0  0  0  0  0
  185.1240  172.5590  137.0040 C   0  0  0  0  0  2  0  0  0  0  0  0
  182.8260  171.5610  136.6530 C   0  0  0  0  0  2  0  0  0  0  0  0
  180.8390  173.1080  137.1830 C   0  0  1  0  0  3  0  0  0  0  0  0
  179.4950  173.1690  136.8580 F   0  0  0  0  0  0  0  0  0  0  0  0
  181.3400  171.6650  137.0210 C   0  0  0  0  0  2  0  0  0  0  0  0
  183.1240  174.0890  136.7280 C   0  0  0  0  0  2  0  0  0  0  0  0
  183.6240  172.7270  137.2350 C   0  0  2  0  0  3  0  0  0  0  0  0
  181.1260  175.3530  136.4210 F   0  0  0  0  0  0  0  0  0  0  0  0
  181.6450  174.0760  136.3160 C   0  0  2  0  0  3  0  0  0  0  0  0
  2  1  1  6  0  0  0
  2 29  1  0  0  0  0
  3  4  1  0  0  0  0
  4  5  2  0  0  0  0
  4  2  1  0  0  0  0
  6  5  1  6  0  0  0
  6  8  1  0  0  0  0
  8  7  1  0  0  0  0
  8 12  1  1  0  0  0
 10  9  1  1  0  0  0
 10  7  1  0  0  0  0
 11 14  1  6  0  0  0
 11  6  1  0  0  0  0
 11 10  1  0  0  0  0
 12 13  1  0  0  0  0
 15 14  1  0  0  0  0
 16 15  1  1  0  0  0
 17 16  1  0  0  0  0
 17 19  2  0  0  0  0
 18 17  1  0  0  0  0
 20 23  2  6  0  0  0
 20 24  1  0  0  0  0
 20 22  1  0  0  0  0
 21 20  1  0  0  0  0
 22 25  1  0  0  0  0
 24 25  1  0  0  0  0
 25 18  1  6  0  0  0
 26 16  1  0  0  0  0
 27 26  1  0  0  0  0
 29 28  1  0  0  0  0
 30  1  1  0  0  0  0
 31 30  1  0  0  0  0
 32 31  1  0  0  0  0
 33 34  1  0  0  0  0
 33 40  1  0  0  0  0
 34 42  1  0  0  0  0
 34 43  1  1  0  0  0
 35 32  1  0  0  0  0
 36 37  1  0  0  0  0
 37 35  2  0  0  0  0
 38 39  2  0  0  0  0
 39 35  1  0  0  0  0
 40 41  1  0  0  0  0
 41 36  2  0  0  0  0
 41 38  1  0  0  0  0
 42 36  1  0  0  0  0
 44 45  1  0  0  0  0
 44 43  1  0  0  0  0
 45 47  1  0  0  0  0
 46 47  1  0  0  0  0
 47 48  1  0  0  0  0
 49 52  1  0  0  0  0
 49 54  1  0  0  0  0
 50 51  1  6  0  0  0
 52 50  1  0  0  0  0
 53 54  1  0  0  0  0
 54 48  1  6  0  0  0
 56 55  1  1  0  0  0
 56 53  1  0  0  0  0
 56 50  1  0  0  0  0
M  END
>  <MODEL>
5

>  <REMARK>
 VINA RESULT:      -6.3      3.135      8.799
  Name = 
  21 active torsions:
  status: ('A' for Active; 'I' for Inactive)
    1  A    between atoms: C_3  and  C_13
    2  A    between atoms: C_4  and  N_16
    3  A    between atoms: C_7  and  C_35
    4  A    between atoms: O_8  and  C_35
    5  A    between atoms: C_13  and  C_24
    6  A    between atoms: C_14  and  C_54
    7  A    between atoms: N_16  and  C_45
    8  A    between atoms: N_17  and  C_52
    9  A    between atoms: C_22  and  C_27
   10  A    between atoms: C_24  and  C_40
   11  A    between atoms: O_25  and  C_53
   12  A    between atoms: O_29  and  C_41
   13  A    between atoms: O_29  and  C_42
   14  A    between atoms: C_35  and  C_42
   15  A    between atoms: O_38  and  C_49
   16  A    between atoms: O_38  and  C_53
   17  A    between atoms: C_40  and  N_55
   18  A    between atoms: C_45  and  C_49
   19  A    between atoms: C_46  and  C_50
   20  A    between atoms: C_46  and  N_55
   21  A    between atoms: C_48  and  C_53
                            x       y       z     vdW  Elec       q    Type
                         _______ _______ _______ _____ _____    ______ ____

>  <TORSDO>
F 21

$$$$
=
 OpenBabel11062414533D

 56 60  0  0  1  0  0  0  0  0999 V2000
  187.8760  176.4000  138.3390 O   0  0  0  0  0  0  0  0  0  0  0  0
  187.2680  177.3970  137.5590 C   0  0  2  0  0  3  0  0  0  0  0  0
  185.1470  178.4080  138.6020 C   0  0  0  0  0  1  0  0  0  0  0  0
  185.7740  177.3620  137.7450 C   0  0  0  0  0  0  0  0  0  0  0  0
  184.9770  176.4720  137.1410 C   0  0  0  0  0  3  0  0  0  0  0  0
  185.4680  175.3890  136.2120 C   0  0  1  0  0  3  0  0  0  0  0  0
  184.8920  173.0780  136.6890 N   0  0  0  0  0  2  0  0  0  0  0  0
  185.8260  174.1550  137.0230 C   0  0  1  0  0  3  0  0  0  0  0  0
  183.3410  172.7040  134.8540 C   0  0  0  0  0  1  0  0  0  0  0  0
  183.8220  173.6800  135.9070 C   0  0  2  0  0  3  0  0  0  0  0  0
  184.3860  174.9150  135.2530 C   0  0  1  0  0  3  0  0  0  0  0  0
  187.2430  173.7220  136.6950 C   0  0  0  0  0  2  0  0  0  0  0  0
  187.4850  172.2890  137.1370 C   0  0  0  0  0  1  0  0  0  0  0  0
  183.3800  175.8670  135.0620 O   0  0  0  0  0  0  0  0  0  0  0  0
  182.3780  175.5350  135.9800 C   0  0  0  0  0  2  0  0  0  0  0  0
  181.0800  176.2540  135.6320 C   0  0  1  0  0  3  0  0  0  0  0  0
  180.3240  176.6010  136.8820 C   0  0  0  0  0  0  0  0  0  0  0  0
  180.8980  177.5100  137.8200 N   0  0  0  0  0  2  0  0  0  0  0  0
  179.1670  176.1370  137.0710 O   0  0  0  0  0  0  0  0  0  0  0  0
  181.2120  178.7320  141.0520 P   0  0  1  0  0  0  0  0  0  0  0  0
  180.3730  179.3200  142.3970 O   0  0  0  0  0  1  0  0  0  0  0  0
  180.8030  179.7740  139.2850 S   0  0  0  0  0  0  0  0  0  0  0  0
  182.6910  178.5210  141.2970 O   0  0  0  0  0  0  0  0  0  0  0  0
  180.3960  177.3740  140.2050 C   0  0  0  0  0  2  0  0  0  0  0  0
  180.1160  178.1110  138.8890 C   0  0  2  0  0  3  0  0  0  0  0  0
  181.3630  177.4060  134.8880 O   0  0  0  0  0  0  0  0  0  0  0  0
  180.1170  177.9720  134.6040 C   0  0  0  0  0  1  0  0  0  0  0  0
  187.5740  178.5540  135.6880 C   0  0  0  0  0  1  0  0  0  0  0  0
  187.5990  177.2520  136.2030 O   0  0  0  0  0  0  0  0  0  0  0  0
  188.9030  177.0290  139.0560 C   0  0  0  0  0  2  0  0  0  0  0  0
  188.3850  178.2670  139.7760 C   0  0  0  0  0  2  0  0  0  0  0  0
  188.4820  178.1160  141.2250 N   0  0  0  0  0  2  0  0  0  0  0  0
  185.0280  179.2440  146.2090 O   0  0  0  0  0  0  0  0  0  0  0  0
  185.8050  178.1630  146.7300 C   0  0  1  0  0  3  0  0  0  0  0  0
  187.3850  178.3020  142.1280 C   0  0  0  0  0  0  0  0  0  0  0  0
  186.2360  177.6730  144.1650 C   0  0  0  0  0  0  0  0  0  0  0  0
  187.3080  177.5090  143.2830 C   0  0  0  0  0  3  0  0  0  0  0  0
  185.3360  179.4470  142.7860 C   0  0  0  0  0  3  0  0  0  0  0  0
  186.3840  179.2630  141.8740 C   0  0  0  0  0  3  0  0  0  0  0  0
  184.3100  178.9060  145.0400 C   0  0  0  0  0  2  0  0  0  0  0  0
  185.2710  178.6450  143.9310 C   0  0  0  0  0  0  0  0  0  0  0  0
  186.0710  176.6880  145.6470 S   0  0  0  0  0  0  0  0  0  0  0  0
  187.1620  178.6790  147.1860 C   0  0  0  0  0  2  0  0  0  0  0  0
  187.8730  177.7130  148.1280 C   0  0  0  0  0  2  0  0  0  0  0  0
  189.1670  178.3110  148.6720 C   0  0  0  0  0  2  0  0  0  0  0  0
  191.3900  177.5920  148.7040 C   0  0  0  0  0  1  0  0  0  0  0  0
  190.2860  177.9280  147.8200 N   0  0  0  0  0  0  0  0  0  0  0  0
  189.9030  176.7000  147.1320 C   0  0  0  0  0  2  0  0  0  0  0  0
  191.5560  176.0950  145.3140 C   0  0  0  0  0  2  0  0  0  0  0  0
  191.1760  177.2250  143.0340 C   0  0  1  0  0  3  0  0  0  0  0  0
  191.9280  177.4870  141.9020 F   0  0  0  0  0  0  0  0  0  0  0  0
  191.7970  176.0470  143.8000 C   0  0  0  0  0  2  0  0  0  0  0  0
  190.1710  178.2250  145.1270 C   0  0  0  0  0  2  0  0  0  0  0  0
  190.2280  176.7770  145.6430 C   0  0  2  0  0  3  0  0  0  0  0  0
  190.5900  179.5350  143.1800 F   0  0  0  0  0  0  0  0  0  0  0  0
  191.0800  178.4720  143.9140 C   0  0  2  0  0  3  0  0  0  0  0  0
  1 30  1  0  0  0  0
  2 29  1  6  0  0  0
  2  4  1  0  0  0  0
  2  1  1  0  0  0  0
  4  3  1  0  0  0  0
  5  4  2  0  0  0  0
  6  8  1  0  0  0  0
  6  5  1  1  0  0  0
  7  8  1  0  0  0  0
  8 12  1  6  0  0  0
 10  9  1  6  0  0  0
 10  7  1  0  0  0  0
 11 14  1  1  0  0  0
 11 10  1  0  0  0  0
 11  6  1  0  0  0  0
 12 13  1  0  0  0  0
 14 15  1  0  0  0  0
 16 15  1  1  0  0  0
 16 17  1  0  0  0  0
 17 19  2  0  0  0  0
 17 18  1  0  0  0  0
 20 23  2  1  0  0  0
 20 21  1  0  0  0  0
 22 20  1  0  0  0  0
 24 20  1  0  0  0  0
 25 18  1  6  0  0  0
 25 22  1  0  0  0  0
 25 24  1  0  0  0  0
 26 16  1  0  0  0  0
 27 26  1  0  0  0  0
 28 29  1  0  0  0  0
 30 31  1  0  0  0  0
 31 32  1  0  0  0  0
 32 35  1  0  0  0  0
 33 34  1  0  0  0  0
 34 43  1  6  0  0  0
 35 37  1  0  0  0  0
 36 42  1  0  0  0  0
 37 36  2  0  0  0  0
 38 41  2  0  0  0  0
 39 35  2  0  0  0  0
 39 38  1  0  0  0  0
 40 33  1  0  0  0  0
 41 36  1  0  0  0  0
 41 40  1  0  0  0  0
 42 34  1  0  0  0  0
 43 44  1  0  0  0  0
 44 45  1  0  0  0  0
 47 45  1  0  0  0  0
 47 46  1  0  0  0  0
 48 47  1  0  0  0  0
 49 54  1  0  0  0  0
 50 51  1  6  0  0  0
 50 52  1  0  0  0  0
 50 56  1  0  0  0  0
 52 49  1  0  0  0  0
 53 54  1  0  0  0  0
 54 48  1  1  0  0  0
 56 55  1  6  0  0  0
 56 53  1  0  0  0  0
M  END
>  <MODEL>
6

>  <REMARK>
 VINA RESULT:      -6.0      3.294      6.959
  Name = 
  21 active torsions:
  status: ('A' for Active; 'I' for Inactive)
    1  A    between atoms: C_3  and  C_13
    2  A    between atoms: C_4  and  N_16
    3  A    between atoms: C_7  and  C_35
    4  A    between atoms: O_8  and  C_35
    5  A    between atoms: C_13  and  C_24
    6  A    between atoms: C_14  and  C_54
    7  A    between atoms: N_16  and  C_45
    8  A    between atoms: N_17  and  C_52
    9  A    between atoms: C_22  and  C_27
   10  A    between atoms: C_24  and  C_40
   11  A    between atoms: O_25  and  C_53
   12  A    between atoms: O_29  and  C_41
   13  A    between atoms: O_29  and  C_42
   14  A    between atoms: C_35  and  C_42
   15  A    between atoms: O_38  and  C_49
   16  A    between atoms: O_38  and  C_53
   17  A    between atoms: C_40  and  N_55
   18  A    between atoms: C_45  and  C_49
   19  A    between atoms: C_46  and  C_50
   20  A    between atoms: C_46  and  N_55
   21  A    between atoms: C_48  and  C_53
                            x       y       z     vdW  Elec       q    Type
                         _______ _______ _______ _____ _____    ______ ____

>  <TORSDO>
F 21

$$$$
=
 OpenBabel11062414533D

 56 60  0  0  1  0  0  0  0  0999 V2000
  184.2230  176.6940  136.7200 O   0  0  0  0  0  0  0  0  0  0  0  0
  183.4570  177.4910  137.5870 C   0  0  2  0  0  3  0  0  0  0  0  0
  183.0520  175.1640  138.6030 C   0  0  0  0  0  1  0  0  0  0  0  0
  182.7680  176.6280  138.6100 C   0  0  0  0  0  0  0  0  0  0  0  0
  181.9540  177.1130  139.5570 C   0  0  0  0  0  3  0  0  0  0  0  0
  181.6140  178.5740  139.7120 C   0  0  1  0  0  3  0  0  0  0  0  0
  179.4150  179.1900  140.5410 N   0  0  0  0  0  2  0  0  0  0  0  0
  180.1560  178.7940  139.3420 C   0  0  1  0  0  3  0  0  0  0  0  0
  180.0730  180.0320  142.7250 C   0  0  0  0  0  1  0  0  0  0  0  0
  180.3020  178.9660  141.6740 C   0  0  2  0  0  3  0  0  0  0  0  0
  181.7150  179.0410  141.1570 C   0  0  1  0  0  3  0  0  0  0  0  0
  180.0550  179.8880  138.2940 C   0  0  0  0  0  2  0  0  0  0  0  0
  180.8920  181.0910  138.6890 C   0  0  0  0  0  1  0  0  0  0  0  0
  182.5580  178.2320  141.9260 O   0  0  0  0  0  0  0  0  0  0  0  0
  183.2230  179.1080  142.7900 C   0  0  0  0  0  2  0  0  0  0  0  0
  184.7320  178.9610  142.6360 C   0  0  1  0  0  3  0  0  0  0  0  0
  185.3340  178.4040  143.8940 C   0  0  0  0  0  0  0  0  0  0  0  0
  185.0160  179.0030  145.1490 N   0  0  0  0  0  2  0  0  0  0  0  0
  186.0700  177.3810  143.8450 O   0  0  0  0  0  0  0  0  0  0  0  0
  187.6970  177.8670  147.0360 P   0  0  1  0  0  0  0  0  0  0  0  0
  188.1510  177.0070  148.4190 O   0  0  0  0  0  1  0  0  0  0  0  0
  186.3930  179.4560  147.4250 S   0  0  0  0  0  0  0  0  0  0  0  0
  188.8590  178.2470  146.1430 O   0  0  0  0  0  0  0  0  0  0  0  0
  186.2820  177.1800  146.1670 C   0  0  0  0  0  2  0  0  0  0  0  0
  185.3210  178.3510  146.4130 C   0  0  2  0  0  3  0  0  0  0  0  0
  185.0170  178.1350  141.5430 O   0  0  0  0  0  0  0  0  0  0  0  0
  185.4200  179.0030  140.5230 C   0  0  0  0  0  1  0  0  0  0  0  0
  182.0940  177.4230  135.8350 C   0  0  0  0  0  1  0  0  0  0  0  0
  182.5190  178.2560  136.8770 O   0  0  0  0  0  0  0  0  0  0  0  0
  185.5660  176.9400  137.0380 C   0  0  0  0  0  2  0  0  0  0  0  0
  186.4020  175.6780  136.8800 C   0  0  0  0  0  2  0  0  0  0  0  0
  187.3860  175.8240  135.8120 N   0  0  0  0  0  2  0  0  0  0  0  0
  192.9380  173.3110  136.7670 O   0  0  0  0  0  0  0  0  0  0  0  0
  193.3390  174.6800  136.6640 C   0  0  1  0  0  3  0  0  0  0  0  0
  188.5800  175.0390  135.7050 C   0  0  0  0  0  0  0  0  0  0  0  0
  190.9890  174.9360  135.4740 C   0  0  0  0  0  0  0  0  0  0  0  0
  189.8180  175.6900  135.5910 C   0  0  0  0  0  3  0  0  0  0  0  0
  189.7150  172.8830  135.6330 C   0  0  0  0  0  3  0  0  0  0  0  0
  188.5310  173.6300  135.7090 C   0  0  0  0  0  3  0  0  0  0  0  0
  192.2500  172.8420  135.6250 C   0  0  0  0  0  2  0  0  0  0  0  0
  190.9410  173.5470  135.5140 C   0  0  0  0  0  0  0  0  0  0  0  0
  192.5960  175.7010  135.3130 S   0  0  0  0  0  0  0  0  0  0  0  0
  193.1010  175.3870  137.9900 C   0  0  0  0  0  2  0  0  0  0  0  0
  191.7610  176.1120  138.0390 C   0  0  0  0  0  2  0  0  0  0  0  0
  191.7090  177.1180  139.1850 C   0  0  0  0  0  2  0  0  0  0  0  0
  189.6930  177.3470  138.0280 C   0  0  0  0  0  1  0  0  0  0  0  0
  190.3900  177.7350  139.2420 N   0  0  0  0  0  0  0  0  0  0  0  0
  189.6750  177.1220  140.3570 C   0  0  0  0  0  2  0  0  0  0  0  0
  190.1310  176.0070  142.5820 C   0  0  0  0  0  2  0  0  0  0  0  0
  191.6680  177.3010  144.1900 C   0  0  1  0  0  3  0  0  0  0  0  0
  191.9320  177.3020  145.5480 F   0  0  0  0  0  0  0  0  0  0  0  0
  191.0830  175.9390  143.7830 C   0  0  0  0  0  2  0  0  0  0  0  0
  190.4900  178.5140  142.3100 C   0  0  0  0  0  2  0  0  0  0  0  0
  190.5200  177.1360  141.6280 C   0  0  2  0  0  3  0  0  0  0  0  0
  191.2330  179.6470  144.2720 F   0  0  0  0  0  0  0  0  0  0  0  0
  190.7190  178.4440  143.8270 C   0  0  2  0  0  3  0  0  0  0  0  0
  1 30  1  0  0  0  0
  2  1  1  6  0  0  0
  2  4  1  0  0  0  0
  3  4  1  0  0  0  0
  4  5  2  0  0  0  0
  6  5  1  1  0  0  0
  6 11  1  0  0  0  0
  7 10  1  0  0  0  0
  8 12  1  6  0  0  0
  8  6  1  0  0  0  0
  8  7  1  0  0  0  0
 10  9  1  1  0  0  0
 11 10  1  0  0  0  0
 11 14  1  1  0  0  0
 12 13  1  0  0  0  0
 14 15  1  0  0  0  0
 16 15  1  1  0  0  0
 16 17  1  0  0  0  0
 17 18  1  0  0  0  0
 19 17  2  0  0  0  0
 20 23  2  6  0  0  0
 20 22  1  0  0  0  0
 20 21  1  0  0  0  0
 24 25  1  0  0  0  0
 24 20  1  0  0  0  0
 25 18  1  6  0  0  0
 25 22  1  0  0  0  0
 26 16  1  0  0  0  0
 27 26  1  0  0  0  0
 28 29  1  0  0  0  0
 29  2  1  0  0  0  0
 31 30  1  0  0  0  0
 32 31  1  0  0  0  0
 34 33  1  0  0  0  0
 34 43  1  1  0  0  0
 35 39  1  0  0  0  0
 35 32  1  0  0  0  0
 36 41  2  0  0  0  0
 36 37  1  0  0  0  0
 37 35  2  0  0  0  0
 38 39  2  0  0  0  0
 40 33  1  0  0  0  0
 41 40  1  0  0  0  0
 41 38  1  0  0  0  0
 42 36  1  0  0  0  0
 42 34  1  0  0  0  0
 43 44  1  0  0  0  0
 44 45  1  0  0  0  0
 45 47  1  0  0  0  0
 46 47  1  0  0  0  0
 47 48  1  0  0  0  0
 49 52  1  0  0  0  0
 50 51  1  1  0  0  0
 52 50  1  0  0  0  0
 53 56  1  0  0  0  0
 54 48  1  6  0  0  0
 54 53  1  0  0  0  0
 54 49  1  0  0  0  0
 56 50  1  0  0  0  0
 56 55  1  6  0  0  0
M  END
>  <MODEL>
7

>  <REMARK>
 VINA RESULT:      -5.2      3.289      8.284
  Name = 
  21 active torsions:
  status: ('A' for Active; 'I' for Inactive)
    1  A    between atoms: C_3  and  C_13
    2  A    between atoms: C_4  and  N_16
    3  A    between atoms: C_7  and  C_35
    4  A    between atoms: O_8  and  C_35
    5  A    between atoms: C_13  and  C_24
    6  A    between atoms: C_14  and  C_54
    7  A    between atoms: N_16  and  C_45
    8  A    between atoms: N_17  and  C_52
    9  A    between atoms: C_22  and  C_27
   10  A    between atoms: C_24  and  C_40
   11  A    between atoms: O_25  and  C_53
   12  A    between atoms: O_29  and  C_41
   13  A    between atoms: O_29  and  C_42
   14  A    between atoms: C_35  and  C_42
   15  A    between atoms: O_38  and  C_49
   16  A    between atoms: O_38  and  C_53
   17  A    between atoms: C_40  and  N_55
   18  A    between atoms: C_45  and  C_49
   19  A    between atoms: C_46  and  C_50
   20  A    between atoms: C_46  and  N_55
   21  A    between atoms: C_48  and  C_53
                            x       y       z     vdW  Elec       q    Type
                         _______ _______ _______ _____ _____    ______ ____

>  <TORSDO>
F 21

$$$$
=
 OpenBabel11062414533D

 56 60  0  0  1  0  0  0  0  0999 V2000
  179.9410  178.1940  140.8600 O   0  0  0  0  0  0  0  0  0  0  0  0
  180.3490  178.5510  139.5640 C   0  0  2  0  0  3  0  0  0  0  0  0
  180.4360  181.1190  139.6480 C   0  0  0  0  0  1  0  0  0  0  0  0
  181.1620  179.8170  139.6080 C   0  0  0  0  0  0  0  0  0  0  0  0
  182.5010  179.8330  139.6630 C   0  0  0  0  0  3  0  0  0  0  0  0
  183.3610  178.5940  139.6770 C   0  0  1  0  0  3  0  0  0  0  0  0
  185.7520  178.8180  139.3120 N   0  0  0  0  0  2  0  0  0  0  0  0
  184.4580  178.7320  138.6330 C   0  0  1  0  0  3  0  0  0  0  0  0
  186.5150  178.2860  141.5590 C   0  0  0  0  0  1  0  0  0  0  0  0
  185.4710  179.0030  140.7280 C   0  0  2  0  0  3  0  0  0  0  0  0
  184.1060  178.4220  140.9930 C   0  0  1  0  0  3  0  0  0  0  0  0
  184.4430  177.5240  137.7140 C   0  0  0  0  0  2  0  0  0  0  0  0
  183.6920  176.3690  138.3550 C   0  0  0  0  0  1  0  0  0  0  0  0
  183.4890  179.0940  142.0530 O   0  0  0  0  0  0  0  0  0  0  0  0
  182.9010  178.0930  142.8330 C   0  0  0  0  0  2  0  0  0  0  0  0
  182.9380  178.4780  144.3060 C   0  0  1  0  0  3  0  0  0  0  0  0
  184.2500  179.1280  144.6440 C   0  0  0  0  0  0  0  0  0  0  0  0
  185.0750  178.5570  145.6580 N   0  0  0  0  0  2  0  0  0  0  0  0
  184.6410  180.1370  143.9970 O   0  0  0  0  0  0  0  0  0  0  0  0
  187.9230  177.7250  147.4560 P   0  0  1  0  0  0  0  0  0  0  0  0
  189.5100  178.1790  147.8240 O   0  0  0  0  0  0  0  0  0  0  0  0
  187.5580  177.5320  145.4050 S   0  0  0  0  0  0  0  0  0  0  0  0
  187.4180  176.5530  148.2700 O   0  0  0  0  0  1  0  0  0  0  0  0
  186.7700  179.0970  147.3290 C   0  0  0  0  0  2  0  0  0  0  0  0
  186.4640  178.9510  145.8330 C   0  0  2  0  0  3  0  0  0  0  0  0
  181.8710  179.3360  144.5970 O   0  0  0  0  0  0  0  0  0  0  0  0
  180.7210  178.6190  144.2550 C   0  0  0  0  0  1  0  0  0  0  0  0
  179.6620  178.1530  137.4900 C   0  0  0  0  0  1  0  0  0  0  0  0
  179.2470  178.7030  138.7100 O   0  0  0  0  0  0  0  0  0  0  0  0
  180.3130  176.8540  141.0380 C   0  0  0  0  0  2  0  0  0  0  0  0
  179.2670  175.9160  140.4510 C   0  0  0  0  0  2  0  0  0  0  0  0
  179.8600  174.6440  140.0520 N   0  0  0  0  0  2  0  0  0  0  0  0
  181.6310  172.1850  134.6800 O   0  0  0  0  0  0  0  0  0  0  0  0
  182.6060  173.2290  134.7670 C   0  0  1  0  0  3  0  0  0  0  0  0
  179.8980  174.1610  138.7030 C   0  0  0  0  0  0  0  0  0  0  0  0
  180.8740  174.2500  136.4890 C   0  0  0  0  0  0  0  0  0  0  0  0
  180.8350  174.7030  137.8100 C   0  0  0  0  0  3  0  0  0  0  0  0
  179.0870  172.6820  136.9440 C   0  0  0  0  0  3  0  0  0  0  0  0
  179.0110  173.1580  138.2610 C   0  0  0  0  0  3  0  0  0  0  0  0
  180.3010  172.6570  134.7190 C   0  0  0  0  0  2  0  0  0  0  0  0
  180.0230  173.2360  136.0640 C   0  0  0  0  0  0  0  0  0  0  0  0
  182.0330  174.9050  135.2960 S   0  0  0  0  0  0  0  0  0  0  0  0
  183.7420  172.7950  135.6810 C   0  0  0  0  0  2  0  0  0  0  0  0
  185.0900  173.3700  135.2590 C   0  0  0  0  0  2  0  0  0  0  0  0
  185.8910  173.8600  136.4620 C   0  0  0  0  0  2  0  0  0  0  0  0
  186.3040  175.7980  135.2230 C   0  0  0  0  0  1  0  0  0  0  0  0
  186.9450  174.7640  136.0180 N   0  0  0  0  0  0  0  0  0  0  0  0
  187.4830  175.4150  137.2080 C   0  0  0  0  0  2  0  0  0  0  0  0
  189.6330  174.0810  137.2310 C   0  0  0  0  0  2  0  0  0  0  0  0
  191.7930  175.4430  137.5450 C   0  0  1  0  0  3  0  0  0  0  0  0
  193.0940  175.1910  137.9450 F   0  0  0  0  0  0  0  0  0  0  0  0
  191.1530  174.1430  137.0350 C   0  0  0  0  0  2  0  0  0  0  0  0
  189.5670  176.4190  138.2400 C   0  0  0  0  0  2  0  0  0  0  0  0
  189.0070  175.4740  137.1640 C   0  0  2  0  0  3  0  0  0  0  0  0
  191.6230  177.1710  139.1850 F   0  0  0  0  0  0  0  0  0  0  0  0
  190.9860  176.0460  138.6950 C   0  0  2  0  0  3  0  0  0  0  0  0
  1 30  1  0  0  0  0
  2 29  1  6  0  0  0
  2  4  1  0  0  0  0
  2  1  1  0  0  0  0
  4  3  1  0  0  0  0
  4  5  2  0  0  0  0
  6  5  1  1  0  0  0
  6 11  1  0  0  0  0
  7 10  1  0  0  0  0
  8 12  1  6  0  0  0
  8  7  1  0  0  0  0
  8  6  1  0  0  0  0
 10 11  1  0  0  0  0
 10  9  1  1  0  0  0
 11 14  1  1  0  0  0
 12 13  1  0  0  0  0
 14 15  1  0  0  0  0
 16 15  1  6  0  0  0
 16 26  1  0  0  0  0
 16 17  1  0  0  0  0
 17 18  1  0  0  0  0
 19 17  2  0  0  0  0
 20 21  2  1  0  0  0
 20 23  1  0  0  0  0
 22 25  1  0  0  0  0
 22 20  1  0  0  0  0
 24 20  1  0  0  0  0
 25 18  1  1  0  0  0
 25 24  1  0  0  0  0
 27 26  1  0  0  0  0
 28 29  1  0  0  0  0
 31 30  1  0  0  0  0
 32 31  1  0  0  0  0
 33 40  1  0  0  0  0
 33 34  1  0  0  0  0
 34 42  1  0  0  0  0
 34 43  1  1  0  0  0
 35 32  1  0  0  0  0
 36 37  1  0  0  0  0
 37 35  2  0  0  0  0
 38 39  2  0  0  0  0
 39 35  1  0  0  0  0
 40 41  1  0  0  0  0
 41 36  2  0  0  0  0
 41 38  1  0  0  0  0
 42 36  1  0  0  0  0
 44 43  1  0  0  0  0
 44 45  1  0  0  0  0
 46 47  1  0  0  0  0
 47 45  1  0  0  0  0
 47 48  1  0  0  0  0
 50 51  1  1  0  0  0
 50 56  1  0  0  0  0
 52 49  1  0  0  0  0
 52 50  1  0  0  0  0
 53 56  1  0  0  0  0
 54 48  1  1  0  0  0
 54 49  1  0  0  0  0
 54 53  1  0  0  0  0
 56 55  1  6  0  0  0
M  END
>  <MODEL>
8

>  <REMARK>
 VINA RESULT:      -5.1      3.486      9.079
  Name = 
  21 active torsions:
  status: ('A' for Active; 'I' for Inactive)
    1  A    between atoms: C_3  and  C_13
    2  A    between atoms: C_4  and  N_16
    3  A    between atoms: C_7  and  C_35
    4  A    between atoms: O_8  and  C_35
    5  A    between atoms: C_13  and  C_24
    6  A    between atoms: C_14  and  C_54
    7  A    between atoms: N_16  and  C_45
    8  A    between atoms: N_17  and  C_52
    9  A    between atoms: C_22  and  C_27
   10  A    between atoms: C_24  and  C_40
   11  A    between atoms: O_25  and  C_53
   12  A    between atoms: O_29  and  C_41
   13  A    between atoms: O_29  and  C_42
   14  A    between atoms: C_35  and  C_42
   15  A    between atoms: O_38  and  C_49
   16  A    between atoms: O_38  and  C_53
   17  A    between atoms: C_40  and  N_55
   18  A    between atoms: C_45  and  C_49
   19  A    between atoms: C_46  and  C_50
   20  A    between atoms: C_46  and  N_55
   21  A    between atoms: C_48  and  C_53
                            x       y       z     vdW  Elec       q    Type
                         _______ _______ _______ _____ _____    ______ ____

>  <TORSDO>
F 21

$$$$
=
 OpenBabel11062414533D

 56 60  0  0  1  0  0  0  0  0999 V2000
  190.0010  176.3330  142.7670 O   0  0  0  0  0  0  0  0  0  0  0  0
  190.3520  176.7070  144.0740 C   0  0  2  0  0  3  0  0  0  0  0  0
  190.8990  179.1660  143.5590 C   0  0  0  0  0  1  0  0  0  0  0  0
  190.0650  178.1690  144.2900 C   0  0  0  0  0  0  0  0  0  0  0  0
  189.0690  178.6190  145.0640 C   0  0  0  0  0  3  0  0  0  0  0  0
  188.1190  177.7260  145.8230 C   0  0  1  0  0  3  0  0  0  0  0  0
  186.7370  178.6950  147.5700 N   0  0  0  0  0  2  0  0  0  0  0  0
  188.0700  178.1660  147.2780 C   0  0  1  0  0  3  0  0  0  0  0  0
  184.5800  178.5340  146.4580 C   0  0  0  0  0  1  0  0  0  0  0  0
  186.0540  178.8400  146.2920 C   0  0  2  0  0  3  0  0  0  0  0  0
  186.6840  177.8610  145.3360 C   0  0  1  0  0  3  0  0  0  0  0  0
  188.3590  176.9800  148.1800 C   0  0  0  0  0  2  0  0  0  0  0  0
  189.7960  176.5180  148.0190 C   0  0  0  0  0  1  0  0  0  0  0  0
  186.6040  178.3410  144.0250 O   0  0  0  0  0  0  0  0  0  0  0  0
  186.5140  177.2030  143.2180 C   0  0  0  0  0  2  0  0  0  0  0  0
  186.1710  177.5930  141.7860 C   0  0  1  0  0  3  0  0  0  0  0  0
  185.0210  178.5600  141.7690 C   0  0  0  0  0  0  0  0  0  0  0  0
  183.8200  178.2340  142.4670 N   0  0  0  0  0  2  0  0  0  0  0  0
  185.1380  179.6730  141.1880 O   0  0  0  0  0  0  0  0  0  0  0  0
  180.3850  178.6940  142.3010 P   0  0  1  0  0  0  0  0  0  0  0  0
  179.1280  179.8140  142.4630 O   0  0  0  0  0  1  0  0  0  0  0  0
  181.6150  178.5610  143.9880 S   0  0  0  0  0  0  0  0  0  0  0  0
  179.9390  177.3460  141.7740 O   0  0  0  0  0  0  0  0  0  0  0  0
  181.8650  179.3470  141.5190 C   0  0  0  0  0  2  0  0  0  0  0  0
  182.7920  179.2270  142.7360 C   0  0  2  0  0  3  0  0  0  0  0  0
  187.2950  178.1500  141.1650 O   0  0  0  0  0  0  0  0  0  0  0  0
  186.8410  178.6010  139.9220 C   0  0  0  0  0  1  0  0  0  0  0  0
  191.7350  176.0500  145.6840 C   0  0  0  0  0  1  0  0  0  0  0  0
  191.7030  176.4270  144.3350 O   0  0  0  0  0  0  0  0  0  0  0  0
  190.4860  177.3400  141.9220 C   0  0  0  0  0  2  0  0  0  0  0  0
  190.9280  176.7620  140.5840 C   0  0  0  0  0  2  0  0  0  0  0  0
  190.8090  177.7490  139.5150 N   0  0  0  0  0  2  0  0  0  0  0  0
  187.0360  175.5240  135.1720 O   0  0  0  0  0  0  0  0  0  0  0  0
  187.8140  174.3450  135.4020 C   0  0  1  0  0  3  0  0  0  0  0  0
  190.0870  177.5310  138.2960 C   0  0  0  0  0  0  0  0  0  0  0  0
  189.5230  176.0770  136.4440 C   0  0  0  0  0  0  0  0  0  0  0  0
  190.2120  176.2970  137.6400 C   0  0  0  0  0  3  0  0  0  0  0  0
  188.5430  178.2860  136.5690 C   0  0  0  0  0  3  0  0  0  0  0  0
  189.2610  178.5330  137.7470 C   0  0  0  0  0  3  0  0  0  0  0  0
  187.8120  176.6390  134.7860 C   0  0  0  0  0  2  0  0  0  0  0  0
  188.6820  177.0520  135.9230 C   0  0  0  0  0  0  0  0  0  0  0  0
  189.6470  174.5330  135.5500 S   0  0  0  0  0  0  0  0  0  0  0  0
  187.3000  173.6240  136.6400 C   0  0  0  0  0  2  0  0  0  0  0  0
  185.9550  172.9440  136.4100 C   0  0  0  0  0  2  0  0  0  0  0  0
  184.9980  173.1860  137.5730 C   0  0  0  0  0  2  0  0  0  0  0  0
  182.7980  173.0690  136.7950 C   0  0  0  0  0  1  0  0  0  0  0  0
  183.8690  173.9940  137.1260 N   0  0  0  0  0  0  0  0  0  0  0  0
  183.4170  174.7740  138.2720 C   0  0  0  0  0  2  0  0  0  0  0  0
  183.3130  177.2070  138.9610 C   0  0  0  0  0  2  0  0  0  0  0  0
  181.9540  178.7510  137.4160 C   0  0  1  0  0  3  0  0  0  0  0  0
  181.3430  179.9900  137.5130 F   0  0  0  0  0  0  0  0  0  0  0  0
  183.0590  178.6410  138.4780 C   0  0  0  0  0  2  0  0  0  0  0  0
  181.5710  176.2530  137.3670 C   0  0  0  0  0  2  0  0  0  0  0  0
  183.0270  176.1900  137.8560 C   0  0  2  0  0  3  0  0  0  0  0  0
  179.9030  177.7990  136.6490 F   0  0  0  0  0  0  0  0  0  0  0  0
  180.9240  177.6320  137.5660 C   0  0  2  0  0  3  0  0  0  0  0  0
  2  1  1  6  0  0  0
  2  4  1  0  0  0  0
  2 29  1  0  0  0  0
  3  4  1  0  0  0  0
  4  5  2  0  0  0  0
  6  5  1  6  0  0  0
  6  8  1  0  0  0  0
  8  7  1  0  0  0  0
  8 12  1  1  0  0  0
 10  9  1  1  0  0  0
 10  7  1  0  0  0  0
 11 14  1  6  0  0  0
 11  6  1  0  0  0  0
 11 10  1  0  0  0  0
 13 12  1  0  0  0  0
 15 14  1  0  0  0  0
 16 15  1  1  0  0  0
 17 16  1  0  0  0  0
 17 18  1  0  0  0  0
 19 17  2  0  0  0  0
 20 23  2  6  0  0  0
 20 21  1  0  0  0  0
 20 22  1  0  0  0  0
 24 20  1  0  0  0  0
 24 25  1  0  0  0  0
 25 18  1  6  0  0  0
 25 22  1  0  0  0  0
 26 16  1  0  0  0  0
 27 26  1  0  0  0  0
 29 28  1  0  0  0  0
 30  1  1  0  0  0  0
 31 30  1  0  0  0  0
 32 31  1  0  0  0  0
 33 34  1  0  0  0  0
 34 42  1  0  0  0  0
 34 43  1  1  0  0  0
 35 32  1  0  0  0  0
 36 37  1  0  0  0  0
 37 35  2  0  0  0  0
 38 39  2  0  0  0  0
 39 35  1  0  0  0  0
 40 33  1  0  0  0  0
 40 41  1  0  0  0  0
 41 36  2  0  0  0  0
 41 38  1  0  0  0  0
 42 36  1  0  0  0  0
 44 43  1  0  0  0  0
 44 45  1  0  0  0  0
 46 47  1  0  0  0  0
 47 45  1  0  0  0  0
 47 48  1  0  0  0  0
 50 51  1  1  0  0  0
 50 56  1  0  0  0  0
 50 52  1  0  0  0  0
 52 49  1  0  0  0  0
 53 56  1  0  0  0  0
 53 54  1  0  0  0  0
 54 48  1  1  0  0  0
 54 49  1  0  0  0  0
 56 55  1  6  0  0  0
M  END
>  <MODEL>
9

>  <REMARK>
 VINA RESULT:      -5.0      3.124      9.229
  Name = 
  21 active torsions:
  status: ('A' for Active; 'I' for Inactive)
    1  A    between atoms: C_3  and  C_13
    2  A    between atoms: C_4  and  N_16
    3  A    between atoms: C_7  and  C_35
    4  A    between atoms: O_8  and  C_35
    5  A    between atoms: C_13  and  C_24
    6  A    between atoms: C_14  and  C_54
    7  A    between atoms: N_16  and  C_45
    8  A    between atoms: N_17  and  C_52
    9  A    between atoms: C_22  and  C_27
   10  A    between atoms: C_24  and  C_40
   11  A    between atoms: O_25  and  C_53
   12  A    between atoms: O_29  and  C_41
   13  A    between atoms: O_29  and  C_42
   14  A    between atoms: C_35  and  C_42
   15  A    between atoms: O_38  and  C_49
   16  A    between atoms: O_38  and  C_53
   17  A    between atoms: C_40  and  N_55
   18  A    between atoms: C_45  and  C_49
   19  A    between atoms: C_46  and  C_50
   20  A    between atoms: C_46  and  N_55
   21  A    between atoms: C_48  and  C_53
                            x       y       z     vdW  Elec       q    Type
                         _______ _______ _______ _____ _____    ______ ____

>  <TORSDO>
F 21

$$$$
