=
 OpenBabel11062415023D

 31 33  0  0  1  0  0  0  0  0999 V2000
  187.7360  175.3660  136.7180 C   0  0  0  0  0  2  0  0  0  0  0  0
  186.4980  178.1780  138.6050 C   0  0  0  0  0  0  0  0  0  0  0  0
  189.2830  177.0770  137.7390 N   0  0  0  0  0  0  0  0  0  0  0  0
  187.3000  178.4150  139.4950 O   0  0  0  0  0  0  0  0  0  0  0  0
  188.4680  178.0370  136.9670 C   0  0  1  0  0  3  0  0  0  0  0  0
  186.6180  176.3640  136.9440 C   0  0  0  0  0  0  0  0  0  0  0  0
  185.3240  176.0040  136.7800 C   0  0  0  0  0  0  0  0  0  0  0  0
  184.2330  176.9990  136.8860 C   0  0  0  0  0  3  0  0  0  0  0  0
  186.9740  177.8020  137.2220 C   0  0  1  0  0  3  0  0  0  0  0  0
  185.0320  178.1190  138.9500 C   0  0  2  0  0  3  0  0  0  0  0  0
  184.1580  177.9370  137.7860 N   0  0  0  0  0  0  0  0  0  0  0  0
  188.8650  179.5080  137.0510 C   0  0  0  0  0  1  0  0  0  0  0  0
  188.9880  175.6380  137.5710 C   0  0  2  0  0  3  0  0  0  0  0  0
  189.9310  173.3540  136.9370 C   0  0  0  0  0  3  0  0  0  0  0  0
  190.6140  176.3300  135.0910 O   0  0  0  0  0  0  0  0  0  0  0  0
  190.1700  174.8670  136.9600 C   0  0  1  0  0  3  0  0  0  0  0  0
  190.3700  175.1810  135.5340 C   0  0  0  0  0  0  0  0  0  0  0  0
  189.8570  172.9380  135.4650 C   0  0  0  0  0  3  0  0  0  0  0  0
  190.2250  174.0830  134.7200 O   0  0  0  0  0  0  0  0  0  0  0  0
  184.2210  180.3620  139.0430 O   0  0  0  0  0  0  0  0  0  0  0  0
  184.6430  179.3790  141.0700 O   0  0  0  0  0  1  0  0  0  0  0  0
  184.6140  179.3470  139.6840 C   0  0  0  0  0  0  0  0  0  0  0  0
  184.7650  174.3620  134.9450 N   0  0  0  0  0  1  0  0  0  0  0  0
  184.6590  173.7650  137.1760 O   0  0  0  0  0  0  0  0  0  0  0  0
  184.9270  174.6540  136.3280 C   0  0  0  0  0  0  0  0  0  0  0  0
  190.1290  176.7860  140.0180 C   0  0  0  0  0  3  0  0  0  0  0  0
  190.1390  177.4200  138.8500 C   0  0  0  0  0  3  0  0  0  0  0  0
  192.1850  177.5410  140.8750 O   0  0  0  0  0  0  0  0  0  0  0  0
  191.0110  177.1660  141.1280 C   0  0  0  0  0  0  0  0  0  0  0  0
  190.5640  177.0830  142.5530 C   0  0  0  0  0  2  0  0  0  0  0  0
  191.7060  176.8480  143.4150 N   0  0  0  0  0  1  0  0  0  0  0  0
  1  6  1  0  0  0  0
  2 10  1  0  0  0  0
  2  4  2  0  0  0  0
  3 27  1  0  0  0  0
  5 12  1  1  0  0  0
  5  9  1  0  0  0  0
  5  3  1  0  0  0  0
  7  8  1  0  0  0  0
  7  6  2  0  0  0  0
  8 11  2  0  0  0  0
  9  6  1  1  0  0  0
  9  2  1  0  0  0  0
 10 22  1  6  0  0  0
 11 10  1  0  0  0  0
 13  1  1  6  0  0  0
 13  3  1  0  0  0  0
 15 17  2  0  0  0  0
 16 14  1  6  0  0  0
 16 13  1  0  0  0  0
 17 16  1  0  0  0  0
 18 14  2  0  0  0  0
 19 18  1  0  0  0  0
 19 17  1  0  0  0  0
 20 22  2  0  0  0  0
 22 21  1  0  0  0  0
 23 25  1  0  0  0  0
 25  7  1  0  0  0  0
 25 24  2  0  0  0  0
 26 29  1  0  0  0  0
 27 26  2  0  0  0  0
 28 29  2  0  0  0  0
 29 30  1  0  0  0  0
 30 31  1  0  0  0  0
M  END
>  <MODEL>
1

>  <REMARK>
 VINA RESULT:      -6.0      0.000      0.000
  Name = 
  6 active torsions:
  status: ('A' for Active; 'I' for Inactive)
    1  A    between atoms: C_1  and  C_20
    2  A    between atoms: N_9  and  C_11
    3  A    between atoms: C_10  and  C_20
    4  A    between atoms: C_15  and  C_30
    5  A    between atoms: C_23  and  CA_27
    6  A    between atoms: C_24  and  C_31
                            x       y       z     vdW  Elec       q    Type
                         _______ _______ _______ _____ _____    ______ ____

>  <TORSDO>
F 6

$$$$
=
 OpenBabel11062415023D

 31 33  0  0  1  0  0  0  0  0999 V2000
  188.1260  178.3090  143.3760 C   0  0  0  0  0  2  0  0  0  0  0  0
  190.8060  177.0210  145.4150 C   0  0  0  0  0  0  0  0  0  0  0  0
  190.5030  178.1870  142.5410 N   0  0  0  0  0  0  0  0  0  0  0  0
  191.5920  176.4440  144.6810 O   0  0  0  0  0  0  0  0  0  0  0  0
  190.7980  178.9760  143.7540 C   0  0  1  0  0  3  0  0  0  0  0  0
  188.6920  178.1060  144.7670 C   0  0  0  0  0  0  0  0  0  0  0  0
  187.8770  177.8550  145.8180 C   0  0  0  0  0  0  0  0  0  0  0  0
  188.4090  177.7700  147.1960 C   0  0  0  0  0  3  0  0  0  0  0  0
  190.1670  178.3210  144.9890 C   0  0  1  0  0  3  0  0  0  0  0  0
  190.3680  176.3370  146.6850 C   0  0  2  0  0  3  0  0  0  0  0  0
  189.5110  177.1670  147.5390 N   0  0  0  0  0  0  0  0  0  0  0  0
  192.2510  179.3900  143.9730 C   0  0  0  0  0  1  0  0  0  0  0  0
  189.0850  177.8830  142.2500 C   0  0  2  0  0  3  0  0  0  0  0  0
  189.0120  177.7040  139.7070 C   0  0  0  0  0  3  0  0  0  0  0  0
  186.3830  179.1480  141.6390 O   0  0  0  0  0  0  0  0  0  0  0  0
  188.6070  178.5230  140.9360 C   0  0  1  0  0  3  0  0  0  0  0  0
  187.1370  178.5560  140.8280 C   0  0  0  0  0  0  0  0  0  0  0  0
  187.7180  177.1930  139.0670 C   0  0  0  0  0  3  0  0  0  0  0  0
  186.6640  177.8360  139.7580 O   0  0  0  0  0  0  0  0  0  0  0  0
  191.8520  174.6610  147.5130 O   0  0  0  0  0  0  0  0  0  0  0  0
  192.3280  176.8090  148.1590 O   0  0  0  0  0  1  0  0  0  0  0  0
  191.5500  175.8870  147.4750 C   0  0  0  0  0  0  0  0  0  0  0  0
  185.5680  178.4620  146.6410 N   0  0  0  0  0  1  0  0  0  0  0  0
  185.8760  177.1460  144.7640 O   0  0  0  0  0  0  0  0  0  0  0  0
  186.4040  177.8170  145.6880 C   0  0  0  0  0  0  0  0  0  0  0  0
  192.0580  177.9060  140.6700 C   0  0  0  0  0  3  0  0  0  0  0  0
  191.4760  177.4460  141.7740 C   0  0  0  0  0  3  0  0  0  0  0  0
  194.2180  177.0320  140.3480 O   0  0  0  0  0  0  0  0  0  0  0  0
  193.0400  177.1220  139.9130 C   0  0  0  0  0  0  0  0  0  0  0  0
  192.6900  176.4580  138.6200 C   0  0  0  0  0  2  0  0  0  0  0  0
  193.7530  176.6640  137.6550 N   0  0  0  0  0  1  0  0  0  0  0  0
  1  6  1  0  0  0  0
  2 10  1  0  0  0  0
  3  5  1  0  0  0  0
  4  2  2  0  0  0  0
  5 12  1  1  0  0  0
  5  9  1  0  0  0  0
  6  7  2  0  0  0  0
  7  8  1  0  0  0  0
  8 11  2  0  0  0  0
  9  6  1  6  0  0  0
  9  2  1  0  0  0  0
 10 22  1  1  0  0  0
 10 11  1  0  0  0  0
 13  3  1  0  0  0  0
 13  1  1  1  0  0  0
 16 14  1  6  0  0  0
 16 13  1  0  0  0  0
 17 16  1  0  0  0  0
 17 15  2  0  0  0  0
 18 14  2  0  0  0  0
 18 19  1  0  0  0  0
 19 17  1  0  0  0  0
 22 20  2  0  0  0  0
 22 21  1  0  0  0  0
 24 25  2  0  0  0  0
 25  7  1  0  0  0  0
 25 23  1  0  0  0  0
 26 27  2  0  0  0  0
 27  3  1  0  0  0  0
 29 28  2  0  0  0  0
 29 26  1  0  0  0  0
 30 29  1  0  0  0  0
 31 30  1  0  0  0  0
M  END
>  <MODEL>
2

>  <REMARK>
 VINA RESULT:      -5.6      4.090      7.986
  Name = 
  6 active torsions:
  status: ('A' for Active; 'I' for Inactive)
    1  A    between atoms: C_1  and  C_20
    2  A    between atoms: N_9  and  C_11
    3  A    between atoms: C_10  and  C_20
    4  A    between atoms: C_15  and  C_30
    5  A    between atoms: C_23  and  CA_27
    6  A    between atoms: C_24  and  C_31
                            x       y       z     vdW  Elec       q    Type
                         _______ _______ _______ _____ _____    ______ ____

>  <TORSDO>
F 6

$$$$
=
 OpenBabel11062415023D

 31 33  0  0  1  0  0  0  0  0999 V2000
  186.8570  177.2700  138.2140 C   0  0  0  0  0  2  0  0  0  0  0  0
  183.3230  176.9900  138.8670 C   0  0  0  0  0  0  0  0  0  0  0  0
  185.6860  178.7440  139.8930 N   0  0  0  0  0  0  0  0  0  0  0  0
  183.1390  177.2290  140.0510 O   0  0  0  0  0  0  0  0  0  0  0  0
  184.8120  179.0750  138.7490 C   0  0  1  0  0  3  0  0  0  0  0  0
  185.4820  176.9220  137.6840 C   0  0  0  0  0  0  0  0  0  0  0  0
  185.3160  175.9210  136.7890 C   0  0  0  0  0  0  0  0  0  0  0  0
  183.9940  175.6490  136.1790 C   0  0  0  0  0  3  0  0  0  0  0  0
  184.3140  177.7970  138.0640 C   0  0  1  0  0  3  0  0  0  0  0  0
  182.6570  175.7800  138.2640 C   0  0  2  0  0  3  0  0  0  0  0  0
  182.8590  175.6550  136.8160 N   0  0  0  0  0  0  0  0  0  0  0  0
  183.7020  180.0920  138.9990 C   0  0  0  0  0  1  0  0  0  0  0  0
  186.8410  177.8560  139.6380 C   0  0  2  0  0  3  0  0  0  0  0  0
  189.1170  177.7330  140.7830 C   0  0  0  0  0  3  0  0  0  0  0  0
  188.5940  179.3500  137.6460 O   0  0  0  0  0  0  0  0  0  0  0  0
  188.1860  178.5580  139.8900 C   0  0  1  0  0  3  0  0  0  0  0  0
  188.9790  178.7140  138.6580 C   0  0  0  0  0  0  0  0  0  0  0  0
  190.3240  177.3430  139.9250 C   0  0  0  0  0  3  0  0  0  0  0  0
  190.1840  178.0570  138.7120 O   0  0  0  0  0  0  0  0  0  0  0  0
  180.4080  176.4340  137.8040 O   0  0  0  0  0  0  0  0  0  0  0  0
  180.6880  175.0750  139.6290 O   0  0  0  0  0  1  0  0  0  0  0  0
  181.1940  175.7860  138.5510 C   0  0  0  0  0  0  0  0  0  0  0  0
  187.0910  175.5440  135.0330 N   0  0  0  0  0  1  0  0  0  0  0  0
  186.8190  174.0890  136.8100 O   0  0  0  0  0  0  0  0  0  0  0  0
  186.4520  175.1500  136.2420 C   0  0  0  0  0  0  0  0  0  0  0  0
  185.5620  178.0770  142.2460 C   0  0  0  0  0  3  0  0  0  0  0  0
  185.3590  178.9690  141.2810 C   0  0  0  0  0  3  0  0  0  0  0  0
  185.9460  177.8740  144.5580 O   0  0  0  0  0  0  0  0  0  0  0  0
  185.2120  178.3380  143.6470 C   0  0  0  0  0  0  0  0  0  0  0  0
  183.9870  179.1090  144.0220 C   0  0  0  0  0  2  0  0  0  0  0  0
  183.7990  179.0680  145.4600 N   0  0  0  0  0  1  0  0  0  0  0  0
  2  4  2  0  0  0  0
  3 27  1  0  0  0  0
  5 12  1  1  0  0  0
  5  3  1  0  0  0  0
  6  1  1  0  0  0  0
  7  6  2  0  0  0  0
  8  7  1  0  0  0  0
  8 11  2  0  0  0  0
  9  6  1  1  0  0  0
  9  5  1  0  0  0  0
  9  2  1  0  0  0  0
 10 22  1  6  0  0  0
 10  2  1  0  0  0  0
 11 10  1  0  0  0  0
 13  1  1  6  0  0  0
 13 16  1  0  0  0  0
 13  3  1  0  0  0  0
 15 17  2  0  0  0  0
 16 14  1  1  0  0  0
 17 19  1  0  0  0  0
 17 16  1  0  0  0  0
 18 14  2  0  0  0  0
 19 18  1  0  0  0  0
 20 22  2  0  0  0  0
 22 21  1  0  0  0  0
 23 25  1  0  0  0  0
 25  7  1  0  0  0  0
 25 24  2  0  0  0  0
 26 29  1  0  0  0  0
 27 26  2  0  0  0  0
 29 30  1  0  0  0  0
 29 28  2  0  0  0  0
 30 31  1  0  0  0  0
M  END
>  <MODEL>
3

>  <REMARK>
 VINA RESULT:      -5.5      2.953      4.782
  Name = 
  6 active torsions:
  status: ('A' for Active; 'I' for Inactive)
    1  A    between atoms: C_1  and  C_20
    2  A    between atoms: N_9  and  C_11
    3  A    between atoms: C_10  and  C_20
    4  A    between atoms: C_15  and  C_30
    5  A    between atoms: C_23  and  CA_27
    6  A    between atoms: C_24  and  C_31
                            x       y       z     vdW  Elec       q    Type
                         _______ _______ _______ _____ _____    ______ ____

>  <TORSDO>
F 6

$$$$
=
 OpenBabel11062415023D

 31 33  0  0  1  0  0  0  0  0999 V2000
  185.9850  178.7450  140.5160 C   0  0  0  0  0  2  0  0  0  0  0  0
  183.6590  177.4680  138.0760 C   0  0  0  0  0  0  0  0  0  0  0  0
  183.4870  178.8930  140.8430 N   0  0  0  0  0  0  0  0  0  0  0  0
  182.6880  177.0310  138.6750 O   0  0  0  0  0  0  0  0  0  0  0  0
  183.5200  179.5750  139.5330 C   0  0  1  0  0  3  0  0  0  0  0  0
  185.6930  178.4460  139.0600 C   0  0  0  0  0  0  0  0  0  0  0  0
  186.6750  178.0280  138.2280 C   0  0  0  0  0  0  0  0  0  0  0  0
  186.4260  177.8440  136.7800 C   0  0  0  0  0  3  0  0  0  0  0  0
  184.3210  178.7510  138.5170 C   0  0  1  0  0  3  0  0  0  0  0  0
  184.2750  176.6260  136.9870 C   0  0  2  0  0  3  0  0  0  0  0  0
  185.3620  177.2960  136.2660 N   0  0  0  0  0  0  0  0  0  0  0  0
  182.1890  180.0760  138.9810 C   0  0  0  0  0  1  0  0  0  0  0  0
  184.7820  178.5110  141.4480 C   0  0  2  0  0  3  0  0  0  0  0  0
  183.7500  179.6580  143.4790 C   0  0  0  0  0  3  0  0  0  0  0  0
  186.8020  177.8160  143.6180 O   0  0  0  0  0  0  0  0  0  0  0  0
  185.0440  179.2420  142.7750 C   0  0  1  0  0  3  0  0  0  0  0  0
  185.6880  178.3740  143.7780 C   0  0  0  0  0  0  0  0  0  0  0  0
  183.6780  178.8620  144.7850 C   0  0  0  0  0  3  0  0  0  0  0  0
  184.9240  178.2030  144.9060 O   0  0  0  0  0  0  0  0  0  0  0  0
  182.7680  177.0200  135.1790 O   0  0  0  0  0  0  0  0  0  0  0  0
  182.7950  174.8770  135.9950 O   0  0  0  0  0  1  0  0  0  0  0  0
  183.2390  176.1910  136.0080 C   0  0  0  0  0  0  0  0  0  0  0  0
  188.9640  179.0040  138.6610 N   0  0  0  0  0  1  0  0  0  0  0  0
  188.5270  176.7560  138.9820 O   0  0  0  0  0  0  0  0  0  0  0  0
  188.0810  177.8890  138.6660 C   0  0  0  0  0  0  0  0  0  0  0  0
  181.0940  178.8350  141.3550 C   0  0  0  0  0  3  0  0  0  0  0  0
  182.3130  178.3110  141.4470 C   0  0  0  0  0  3  0  0  0  0  0  0
  179.4360  177.1710  141.4860 O   0  0  0  0  0  0  0  0  0  0  0  0
  179.9220  178.2180  141.9880 C   0  0  0  0  0  0  0  0  0  0  0  0
  179.2680  178.8190  143.1900 C   0  0  0  0  0  2  0  0  0  0  0  0
  179.5740  178.0280  144.3660 N   0  0  0  0  0  1  0  0  0  0  0  0
  2  4  2  0  0  0  0
  3 27  1  0  0  0  0
  3 13  1  0  0  0  0
  5 12  1  6  0  0  0
  5  3  1  0  0  0  0
  6  1  1  0  0  0  0
  7 25  1  0  0  0  0
  7  6  2  0  0  0  0
  8  7  1  0  0  0  0
  9  2  1  1  0  0  0
  9  6  1  0  0  0  0
  9  5  1  0  0  0  0
 10 22  1  6  0  0  0
 10  2  1  0  0  0  0
 11  8  2  0  0  0  0
 11 10  1  0  0  0  0
 13  1  1  6  0  0  0
 13 16  1  0  0  0  0
 14 18  2  0  0  0  0
 15 17  2  0  0  0  0
 16 14  1  1  0  0  0
 16 17  1  0  0  0  0
 17 19  1  0  0  0  0
 18 19  1  0  0  0  0
 20 22  2  0  0  0  0
 21 22  1  0  0  0  0
 23 25  1  0  0  0  0
 25 24  2  0  0  0  0
 26 27  2  0  0  0  0
 26 29  1  0  0  0  0
 28 29  2  0  0  0  0
 29 30  1  0  0  0  0
 30 31  1  0  0  0  0
M  END
>  <MODEL>
4

>  <REMARK>
 VINA RESULT:      -5.5      3.493      7.843
  Name = 
  6 active torsions:
  status: ('A' for Active; 'I' for Inactive)
    1  A    between atoms: C_1  and  C_20
    2  A    between atoms: N_9  and  C_11
    3  A    between atoms: C_10  and  C_20
    4  A    between atoms: C_15  and  C_30
    5  A    between atoms: C_23  and  CA_27
    6  A    between atoms: C_24  and  C_31
                            x       y       z     vdW  Elec       q    Type
                         _______ _______ _______ _____ _____    ______ ____

>  <TORSDO>
F 6

$$$$
=
 OpenBabel11062415023D

 31 33  0  0  1  0  0  0  0  0999 V2000
  187.2510  177.9650  144.1750 C   0  0  0  0  0  2  0  0  0  0  0  0
  190.4870  176.8960  145.3510 C   0  0  0  0  0  0  0  0  0  0  0  0
  189.2220  177.7090  142.6210 N   0  0  0  0  0  0  0  0  0  0  0  0
  191.0030  176.2220  144.4720 O   0  0  0  0  0  0  0  0  0  0  0  0
  189.8800  178.6350  143.5660 C   0  0  1  0  0  3  0  0  0  0  0  0
  188.2500  177.9240  145.3140 C   0  0  0  0  0  0  0  0  0  0  0  0
  187.8340  177.8140  146.5970 C   0  0  0  0  0  0  0  0  0  0  0  0
  188.7930  177.8880  147.7220 C   0  0  0  0  0  3  0  0  0  0  0  0
  189.7090  178.1430  145.0090 C   0  0  1  0  0  3  0  0  0  0  0  0
  190.5120  176.3770  146.7670 C   0  0  2  0  0  3  0  0  0  0  0  0
  189.9630  177.3160  147.7500 N   0  0  0  0  0  0  0  0  0  0  0  0
  191.3110  179.0520  143.2410 C   0  0  0  0  0  1  0  0  0  0  0  0
  187.7960  177.3920  142.8550 C   0  0  2  0  0  3  0  0  0  0  0  0
  185.4120  177.8750  142.0880 C   0  0  0  0  0  3  0  0  0  0  0  0
  188.2400  179.7380  140.9640 O   0  0  0  0  0  0  0  0  0  0  0  0
  186.8950  177.8740  141.7060 C   0  0  1  0  0  3  0  0  0  0  0  0
  187.1350  179.2860  141.3560 C   0  0  0  0  0  0  0  0  0  0  0  0
  184.9500  179.3350  142.0770 C   0  0  0  0  0  3  0  0  0  0  0  0
  186.0270  180.0780  141.5380 O   0  0  0  0  0  0  0  0  0  0  0  0
  192.4770  176.6460  148.0940 O   0  0  0  0  0  1  0  0  0  0  0  0
  192.5570  174.9620  146.5390 O   0  0  0  0  0  0  0  0  0  0  0  0
  191.8990  176.0090  147.1680 C   0  0  0  0  0  0  0  0  0  0  0  0
  185.7150  178.9680  147.3430 N   0  0  0  0  0  1  0  0  0  0  0  0
  185.7970  176.6800  147.0210 O   0  0  0  0  0  0  0  0  0  0  0  0
  186.4030  177.7810  146.9680 C   0  0  0  0  0  0  0  0  0  0  0  0
  190.3430  177.2860  140.4860 C   0  0  0  0  0  3  0  0  0  0  0  0
  189.9070  176.8670  141.6700 C   0  0  0  0  0  3  0  0  0  0  0  0
  190.3870  175.4650  138.9980 O   0  0  0  0  0  0  0  0  0  0  0  0
  191.0320  176.4000  139.5410 C   0  0  0  0  0  0  0  0  0  0  0  0
  192.4870  176.5540  139.2330 C   0  0  0  0  0  2  0  0  0  0  0  0
  193.0840  177.5150  140.1400 N   0  0  0  0  0  1  0  0  0  0  0  0
  1  6  1  0  0  0  0
  2 10  1  0  0  0  0
  3 13  1  0  0  0  0
  3  5  1  0  0  0  0
  4  2  2  0  0  0  0
  5 12  1  6  0  0  0
  5  9  1  0  0  0  0
  6  7  2  0  0  0  0
  7 25  1  0  0  0  0
  7  8  1  0  0  0  0
  8 11  2  0  0  0  0
  9  6  1  6  0  0  0
  9  2  1  0  0  0  0
 10 22  1  1  0  0  0
 10 11  1  0  0  0  0
 13  1  1  1  0  0  0
 15 17  2  0  0  0  0
 16 14  1  1  0  0  0
 16 13  1  0  0  0  0
 17 19  1  0  0  0  0
 17 16  1  0  0  0  0
 18 14  2  0  0  0  0
 19 18  1  0  0  0  0
 21 22  2  0  0  0  0
 22 20  1  0  0  0  0
 25 24  2  0  0  0  0
 25 23  1  0  0  0  0
 26 27  2  0  0  0  0
 27  3  1  0  0  0  0
 28 29  2  0  0  0  0
 29 26  1  0  0  0  0
 30 29  1  0  0  0  0
 30 31  1  0  0  0  0
M  END
>  <MODEL>
5

>  <REMARK>
 VINA RESULT:      -5.3      4.347      8.459
  Name = 
  6 active torsions:
  status: ('A' for Active; 'I' for Inactive)
    1  A    between atoms: C_1  and  C_20
    2  A    between atoms: N_9  and  C_11
    3  A    between atoms: C_10  and  C_20
    4  A    between atoms: C_15  and  C_30
    5  A    between atoms: C_23  and  CA_27
    6  A    between atoms: C_24  and  C_31
                            x       y       z     vdW  Elec       q    Type
                         _______ _______ _______ _____ _____    ______ ____

>  <TORSDO>
F 6

$$$$
=
 OpenBabel11062415023D

 31 33  0  0  1  0  0  0  0  0999 V2000
  185.9320  178.0320  144.3900 C   0  0  0  0  0  2  0  0  0  0  0  0
  188.3810  177.9820  141.7450 C   0  0  0  0  0  0  0  0  0  0  0  0
  188.2610  177.1270  144.7400 N   0  0  0  0  0  0  0  0  0  0  0  0
  189.4790  178.1750  142.2450 O   0  0  0  0  0  0  0  0  0  0  0  0
  187.9210  176.2620  143.5920 C   0  0  1  0  0  3  0  0  0  0  0  0
  186.2080  177.9380  142.9040 C   0  0  0  0  0  0  0  0  0  0  0  0
  185.3640  178.4950  142.0050 C   0  0  0  0  0  0  0  0  0  0  0  0
  185.5640  178.3100  140.5490 C   0  0  0  0  0  3  0  0  0  0  0  0
  187.3680  177.0990  142.4320 C   0  0  1  0  0  3  0  0  0  0  0  0
  188.0020  178.7600  140.5110 C   0  0  2  0  0  3  0  0  0  0  0  0
  186.7120  178.3660  139.9370 N   0  0  0  0  0  0  0  0  0  0  0  0
  188.9770  175.2520  143.1510 C   0  0  0  0  0  1  0  0  0  0  0  0
  187.2040  178.0240  145.2570 C   0  0  2  0  0  3  0  0  0  0  0  0
  187.9340  176.9940  147.4730 C   0  0  0  0  0  3  0  0  0  0  0  0
  185.6810  179.7510  147.2500 O   0  0  0  0  0  0  0  0  0  0  0  0
  186.8060  177.6850  146.7030 C   0  0  1  0  0  3  0  0  0  0  0  0
  186.5560  178.8900  147.5150 C   0  0  0  0  0  0  0  0  0  0  0  0
  188.3550  177.9470  148.5960 C   0  0  0  0  0  3  0  0  0  0  0  0
  187.4090  178.9990  148.5860 O   0  0  0  0  0  0  0  0  0  0  0  0
  189.0280  179.3810  138.4470 O   0  0  0  0  0  0  0  0  0  0  0  0
  190.0790  177.7070  139.6080 O   0  0  0  0  0  1  0  0  0  0  0  0
  189.0570  178.6340  139.4650 C   0  0  0  0  0  0  0  0  0  0  0  0
  182.8880  178.9120  141.7300 N   0  0  0  0  0  1  0  0  0  0  0  0
  184.1380  180.0460  143.3100 O   0  0  0  0  0  0  0  0  0  0  0  0
  184.1130  179.1730  142.4060 C   0  0  0  0  0  0  0  0  0  0  0  0
  190.4230  176.4460  145.6650 C   0  0  0  0  0  3  0  0  0  0  0  0
  189.5980  177.3880  145.2170 C   0  0  0  0  0  3  0  0  0  0  0  0
  192.4290  177.6720  145.5960 O   0  0  0  0  0  0  0  0  0  0  0  0
  191.7750  176.7490  146.1480 C   0  0  0  0  0  0  0  0  0  0  0  0
  192.4110  175.9670  147.2520 C   0  0  0  0  0  2  0  0  0  0  0  0
  192.4290  176.7560  148.4690 N   0  0  0  0  0  1  0  0  0  0  0  0
  2  4  2  0  0  0  0
  3 27  1  0  0  0  0
  3 13  1  0  0  0  0
  5 12  1  6  0  0  0
  5  3  1  0  0  0  0
  6  1  1  0  0  0  0
  7 25  1  0  0  0  0
  7  6  2  0  0  0  0
  8  7  1  0  0  0  0
  9  2  1  1  0  0  0
  9  6  1  0  0  0  0
  9  5  1  0  0  0  0
 10 22  1  6  0  0  0
 10  2  1  0  0  0  0
 11 10  1  0  0  0  0
 11  8  2  0  0  0  0
 13  1  1  6  0  0  0
 13 16  1  0  0  0  0
 14 18  2  0  0  0  0
 15 17  2  0  0  0  0
 16 14  1  1  0  0  0
 16 17  1  0  0  0  0
 17 19  1  0  0  0  0
 19 18  1  0  0  0  0
 20 22  2  0  0  0  0
 22 21  1  0  0  0  0
 23 25  1  0  0  0  0
 25 24  2  0  0  0  0
 26 29  1  0  0  0  0
 27 26  2  0  0  0  0
 28 29  2  0  0  0  0
 29 30  1  0  0  0  0
 30 31  1  0  0  0  0
M  END
>  <MODEL>
6

>  <REMARK>
 VINA RESULT:      -5.2      4.204      7.903
  Name = 
  6 active torsions:
  status: ('A' for Active; 'I' for Inactive)
    1  A    between atoms: C_1  and  C_20
    2  A    between atoms: N_9  and  C_11
    3  A    between atoms: C_10  and  C_20
    4  A    between atoms: C_15  and  C_30
    5  A    between atoms: C_23  and  CA_27
    6  A    between atoms: C_24  and  C_31
                            x       y       z     vdW  Elec       q    Type
                         _______ _______ _______ _____ _____    ______ ____

>  <TORSDO>
F 6

$$$$
=
 OpenBabel11062415023D

 31 33  0  0  1  0  0  0  0  0999 V2000
  189.0040  177.8320  145.9610 C   0  0  0  0  0  2  0  0  0  0  0  0
  187.0250  178.0110  142.9520 C   0  0  0  0  0  0  0  0  0  0  0  0
  189.9180  177.1380  143.7140 N   0  0  0  0  0  0  0  0  0  0  0  0
  187.7700  178.3010  142.0290 O   0  0  0  0  0  0  0  0  0  0  0  0
  188.7380  176.2500  143.6900 C   0  0  1  0  0  3  0  0  0  0  0  0
  187.6290  177.7690  145.3280 C   0  0  0  0  0  0  0  0  0  0  0  0
  186.5430  178.2520  145.9770 C   0  0  0  0  0  0  0  0  0  0  0  0
  185.1820  178.0910  145.4170 C   0  0  0  0  0  3  0  0  0  0  0  0
  187.4640  177.0380  144.0200 C   0  0  1  0  0  3  0  0  0  0  0  0
  185.7220  178.7570  143.0900 C   0  0  2  0  0  3  0  0  0  0  0  0
  184.8620  178.2520  144.1650 N   0  0  0  0  0  0  0  0  0  0  0  0
  188.5810  175.3410  142.4740 C   0  0  0  0  0  1  0  0  0  0  0  0
  190.1500  177.9340  144.9390 C   0  0  2  0  0  3  0  0  0  0  0  0
  191.3550  177.6380  147.1670 C   0  0  0  0  0  3  0  0  0  0  0  0
  192.0420  175.6360  144.2940 O   0  0  0  0  0  0  0  0  0  0  0  0
  191.4640  177.5560  145.6420 C   0  0  1  0  0  3  0  0  0  0  0  0
  191.8330  176.1450  145.4240 C   0  0  0  0  0  0  0  0  0  0  0  0
  191.5200  176.2120  147.7020 C   0  0  0  0  0  3  0  0  0  0  0  0
  191.8920  175.4220  146.5900 O   0  0  0  0  0  0  0  0  0  0  0  0
  184.0450  177.8790  141.6360 O   0  0  0  0  0  1  0  0  0  0  0  0
  185.2500  179.6430  140.8030 O   0  0  0  0  0  0  0  0  0  0  0  0
  184.9620  178.7300  141.8070 C   0  0  0  0  0  0  0  0  0  0  0  0
  187.3660  178.1600  148.3620 N   0  0  0  0  0  1  0  0  0  0  0  0
  185.9620  179.8450  147.6310 O   0  0  0  0  0  0  0  0  0  0  0  0
  186.6200  178.8130  147.3420 C   0  0  0  0  0  0  0  0  0  0  0  0
  190.7040  176.8390  141.4150 C   0  0  0  0  0  3  0  0  0  0  0  0
  190.6970  177.5150  142.5600 C   0  0  0  0  0  3  0  0  0  0  0  0
  192.6130  177.8290  140.4620 O   0  0  0  0  0  0  0  0  0  0  0  0
  191.5140  177.2490  140.2620 C   0  0  0  0  0  0  0  0  0  0  0  0
  191.0530  177.0310  138.8570 C   0  0  0  0  0  2  0  0  0  0  0  0
  190.6950  175.6390  138.6650 N   0  0  0  0  0  1  0  0  0  0  0  0
  2 10  1  0  0  0  0
  3 13  1  0  0  0  0
  4  2  2  0  0  0  0
  5 12  1  6  0  0  0
  5  3  1  0  0  0  0
  5  9  1  0  0  0  0
  6  1  1  0  0  0  0
  6  7  2  0  0  0  0
  7 25  1  0  0  0  0
  8  7  1  0  0  0  0
  9  2  1  6  0  0  0
  9  6  1  0  0  0  0
 10 22  1  6  0  0  0
 10 11  1  0  0  0  0
 11  8  2  0  0  0  0
 13 16  1  0  0  0  0
 13  1  1  1  0  0  0
 14 18  2  0  0  0  0
 15 17  2  0  0  0  0
 16 14  1  1  0  0  0
 17 16  1  0  0  0  0
 17 19  1  0  0  0  0
 19 18  1  0  0  0  0
 20 22  1  0  0  0  0
 21 22  2  0  0  0  0
 25 24  2  0  0  0  0
 25 23  1  0  0  0  0
 26 27  2  0  0  0  0
 27  3  1  0  0  0  0
 29 28  2  0  0  0  0
 29 26  1  0  0  0  0
 30 29  1  0  0  0  0
 31 30  1  0  0  0  0
M  END
>  <MODEL>
7

>  <REMARK>
 VINA RESULT:      -5.2      4.183      7.888
  Name = 
  6 active torsions:
  status: ('A' for Active; 'I' for Inactive)
    1  A    between atoms: C_1  and  C_20
    2  A    between atoms: N_9  and  C_11
    3  A    between atoms: C_10  and  C_20
    4  A    between atoms: C_15  and  C_30
    5  A    between atoms: C_23  and  CA_27
    6  A    between atoms: C_24  and  C_31
                            x       y       z     vdW  Elec       q    Type
                         _______ _______ _______ _____ _____    ______ ____

>  <TORSDO>
F 6

$$$$
=
 OpenBabel11062415023D

 31 33  0  0  1  0  0  0  0  0999 V2000
  181.6910  175.1810  138.5660 C   0  0  0  0  0  2  0  0  0  0  0  0
  181.6060  178.1900  140.5510 C   0  0  0  0  0  0  0  0  0  0  0  0
  183.2400  177.1210  138.1210 N   0  0  0  0  0  0  0  0  0  0  0  0
  182.7480  178.6150  140.6380 O   0  0  0  0  0  0  0  0  0  0  0  0
  181.9840  177.8930  138.0310 C   0  0  1  0  0  3  0  0  0  0  0  0
  180.8700  176.1370  139.4070 C   0  0  0  0  0  0  0  0  0  0  0  0
  179.8680  175.6820  140.1950 C   0  0  0  0  0  0  0  0  0  0  0  0
  178.9870  176.6180  140.9300 C   0  0  0  0  0  3  0  0  0  0  0  0
  181.0950  177.6190  139.2500 C   0  0  1  0  0  3  0  0  0  0  0  0
  180.7700  178.1050  141.8020 C   0  0  2  0  0  3  0  0  0  0  0  0
  179.3860  177.6850  141.5610 N   0  0  0  0  0  0  0  0  0  0  0  0
  182.1060  179.3780  137.7010 C   0  0  0  0  0  1  0  0  0  0  0  0
  183.1330  175.6590  138.3170 C   0  0  2  0  0  3  0  0  0  0  0  0
  184.3170  173.5290  137.5660 C   0  0  0  0  0  3  0  0  0  0  0  0
  181.9260  175.2470  135.5520 O   0  0  0  0  0  0  0  0  0  0  0  0
  183.7110  174.8670  137.1330 C   0  0  1  0  0  3  0  0  0  0  0  0
  182.6720  174.4510  136.1730 C   0  0  0  0  0  0  0  0  0  0  0  0
  183.4640  172.4270  136.9310 C   0  0  0  0  0  3  0  0  0  0  0  0
  182.5750  173.0860  136.0500 O   0  0  0  0  0  0  0  0  0  0  0  0
  181.4050  179.5400  143.6000 O   0  0  0  0  0  1  0  0  0  0  0  0
  180.0640  180.4920  142.0030 O   0  0  0  0  0  0  0  0  0  0  0  0
  180.7630  179.4110  142.5200 C   0  0  0  0  0  0  0  0  0  0  0  0
  179.6830  173.4840  141.4240 N   0  0  0  0  0  1  0  0  0  0  0  0
  179.0370  173.6920  139.2140 O   0  0  0  0  0  0  0  0  0  0  0  0
  179.4830  174.2560  140.2460 C   0  0  0  0  0  0  0  0  0  0  0  0
  185.5060  177.7000  137.3970 C   0  0  0  0  0  3  0  0  0  0  0  0
  184.5510  177.6900  138.3220 C   0  0  0  0  0  3  0  0  0  0  0  0
  187.2710  179.1540  136.8440 O   0  0  0  0  0  0  0  0  0  0  0  0
  186.8310  178.2830  137.6400 C   0  0  0  0  0  0  0  0  0  0  0  0
  187.6880  177.8440  138.7840 C   0  0  0  0  0  2  0  0  0  0  0  0
  188.6990  178.8470  139.0570 N   0  0  0  0  0  1  0  0  0  0  0  0
  1  6  1  0  0  0  0
  2  4  2  0  0  0  0
  2 10  1  0  0  0  0
  3 13  1  0  0  0  0
  3 27  1  0  0  0  0
  5 12  1  1  0  0  0
  5  3  1  0  0  0  0
  5  9  1  0  0  0  0
  6  7  2  0  0  0  0
  7 25  1  0  0  0  0
  7  8  1  0  0  0  0
  8 11  2  0  0  0  0
  9  6  1  1  0  0  0
  9  2  1  0  0  0  0
 10 22  1  6  0  0  0
 11 10  1  0  0  0  0
 13  1  1  6  0  0  0
 15 17  2  0  0  0  0
 16 14  1  1  0  0  0
 16 13  1  0  0  0  0
 17 16  1  0  0  0  0
 18 14  2  0  0  0  0
 19 17  1  0  0  0  0
 19 18  1  0  0  0  0
 21 22  2  0  0  0  0
 22 20  1  0  0  0  0
 24 25  2  0  0  0  0
 25 23  1  0  0  0  0
 26 29  1  0  0  0  0
 26 27  2  0  0  0  0
 28 29  2  0  0  0  0
 29 30  1  0  0  0  0
 30 31  1  0  0  0  0
M  END
>  <MODEL>
8

>  <REMARK>
 VINA RESULT:      -5.2      3.867      6.240
  Name = 
  6 active torsions:
  status: ('A' for Active; 'I' for Inactive)
    1  A    between atoms: C_1  and  C_20
    2  A    between atoms: N_9  and  C_11
    3  A    between atoms: C_10  and  C_20
    4  A    between atoms: C_15  and  C_30
    5  A    between atoms: C_23  and  CA_27
    6  A    between atoms: C_24  and  C_31
                            x       y       z     vdW  Elec       q    Type
                         _______ _______ _______ _____ _____    ______ ____

>  <TORSDO>
F 6

$$$$
=
 OpenBabel11062415023D

 31 33  0  0  1  0  0  0  0  0999 V2000
  191.6680  176.3650  139.4720 C   0  0  0  0  0  2  0  0  0  0  0  0
  188.8430  176.5330  137.2380 C   0  0  0  0  0  0  0  0  0  0  0  0
  189.5300  177.5460  140.1040 N   0  0  0  0  0  0  0  0  0  0  0  0
  187.8260  176.4930  137.9140 O   0  0  0  0  0  0  0  0  0  0  0  0
  189.7660  178.2970  138.8550 C   0  0  1  0  0  3  0  0  0  0  0  0
  191.1670  176.4010  138.0430 C   0  0  0  0  0  0  0  0  0  0  0  0
  191.7950  175.7000  137.0700 C   0  0  0  0  0  0  0  0  0  0  0  0
  191.3830  175.8180  135.6530 C   0  0  0  0  0  3  0  0  0  0  0  0
  190.0380  177.3360  137.6910 C   0  0  1  0  0  3  0  0  0  0  0  0
  188.9370  175.6440  136.0230 C   0  0  2  0  0  3  0  0  0  0  0  0
  190.1520  175.8550  135.2300 N   0  0  0  0  0  0  0  0  0  0  0  0
  188.7600  179.3910  138.5050 C   0  0  0  0  0  1  0  0  0  0  0  0
  190.5590  176.5690  140.5200 C   0  0  2  0  0  3  0  0  0  0  0  0
  190.9890  178.4150  142.2270 C   0  0  0  0  0  3  0  0  0  0  0  0
  190.5970  174.9830  143.1200 O   0  0  0  0  0  0  0  0  0  0  0  0
  191.2170  176.9470  141.8580 C   0  0  1  0  0  3  0  0  0  0  0  0
  190.6190  176.2330  143.0010 C   0  0  0  0  0  0  0  0  0  0  0  0
  190.1290  178.4270  143.4940 C   0  0  0  0  0  3  0  0  0  0  0  0
  190.0480  177.0800  143.9190 O   0  0  0  0  0  0  0  0  0  0  0  0
  186.9830  174.8470  134.9090 O   0  0  0  0  0  1  0  0  0  0  0  0
  187.4630  177.0660  134.5950 O   0  0  0  0  0  0  0  0  0  0  0  0
  187.7460  175.8250  135.1460 C   0  0  0  0  0  0  0  0  0  0  0  0
  194.2950  175.5360  137.3800 N   0  0  0  0  0  1  0  0  0  0  0  0
  192.9450  173.6590  137.4260 O   0  0  0  0  0  0  0  0  0  0  0  0
  193.0190  174.9110  137.3250 C   0  0  0  0  0  0  0  0  0  0  0  0
  187.5870  178.5250  141.2270 C   0  0  0  0  0  3  0  0  0  0  0  0
  188.2670  177.4660  140.8000 C   0  0  0  0  0  3  0  0  0  0  0  0
  186.2460  177.6920  142.9710 O   0  0  0  0  0  0  0  0  0  0  0  0
  186.3070  178.4060  141.9360 C   0  0  0  0  0  0  0  0  0  0  0  0
  185.0670  179.0790  141.4430 C   0  0  0  0  0  2  0  0  0  0  0  0
  185.1950  179.3770  140.0300 N   0  0  0  0  0  1  0  0  0  0  0  0
  2  4  2  0  0  0  0
  3 13  1  0  0  0  0
  3 27  1  0  0  0  0
  5 12  1  6  0  0  0
  5  3  1  0  0  0  0
  6  1  1  0  0  0  0
  7 25  1  0  0  0  0
  7  6  2  0  0  0  0
  8  7  1  0  0  0  0
  9  2  1  1  0  0  0
  9  6  1  0  0  0  0
  9  5  1  0  0  0  0
 10 22  1  6  0  0  0
 10  2  1  0  0  0  0
 11  8  2  0  0  0  0
 11 10  1  0  0  0  0
 13  1  1  6  0  0  0
 13 16  1  0  0  0  0
 14 18  2  0  0  0  0
 16 14  1  1  0  0  0
 16 17  1  0  0  0  0
 17 15  2  0  0  0  0
 17 19  1  0  0  0  0
 18 19  1  0  0  0  0
 20 22  1  0  0  0  0
 21 22  2  0  0  0  0
 25 23  1  0  0  0  0
 25 24  2  0  0  0  0
 26 29  1  0  0  0  0
 27 26  2  0  0  0  0
 29 28  2  0  0  0  0
 30 29  1  0  0  0  0
 31 30  1  0  0  0  0
M  END
>  <MODEL>
9

>  <REMARK>
 VINA RESULT:      -5.1      2.810      6.301
  Name = 
  6 active torsions:
  status: ('A' for Active; 'I' for Inactive)
    1  A    between atoms: C_1  and  C_20
    2  A    between atoms: N_9  and  C_11
    3  A    between atoms: C_10  and  C_20
    4  A    between atoms: C_15  and  C_30
    5  A    between atoms: C_23  and  CA_27
    6  A    between atoms: C_24  and  C_31
                            x       y       z     vdW  Elec       q    Type
                         _______ _______ _______ _____ _____    ______ ____

>  <TORSDO>
F 6

$$$$
