=
 OpenBabel11062413333D

 28 29  0  0  1  0  0  0  0  0999 V2000
  184.8480  178.2200  142.9830 C   0  0  2  0  0  3  0  0  0  0  0  0
  185.7310  179.7560  146.1980 O   0  0  0  0  0  0  0  0  0  0  0  0
  187.6230  177.7130  144.3500 N   0  0  2  0  0  0  0  0  0  0  0  0
  186.9890  177.3610  146.8070 C   0  0  0  0  0  1  0  0  0  0  0  0
  186.5510  177.6530  145.3680 C   0  0  1  0  0  3  0  0  0  0  0  0
  187.0770  177.0310  143.1710 C   0  0  0  0  0  2  0  0  0  0  0  0
  185.7090  178.8950  145.2770 C   0  0  0  0  0  0  0  0  0  0  0  0
  184.9270  179.1500  144.1080 N   0  0  0  0  0  2  0  0  0  0  0  0
  186.2130  177.9700  142.3230 C   0  0  2  0  0  3  0  0  0  0  0  0
  190.3700  178.9230  143.8850 C   0  0  2  0  0  3  0  0  0  0  0  0
  188.8920  177.0690  144.7690 C   0  0  1  0  0  3  0  0  0  0  0  0
  191.3250  179.8710  144.2450 O   0  0  0  0  0  1  0  0  0  0  0  0
  190.4870  176.0480  141.5250 O   0  0  0  0  0  1  0  0  0  0  0  0
  189.4930  176.1360  143.6950 C   0  0  0  0  0  2  0  0  0  0  0  0
  189.9300  176.9210  142.4580 C   0  0  1  0  0  3  0  0  0  0  0  0
  189.9430  178.1340  145.1210 C   0  0  0  0  0  2  0  0  0  0  0  0
  190.9550  177.9810  142.8390 C   0  0  0  0  0  2  0  0  0  0  0  0
  186.9140  179.2180  142.0440 N   0  0  0  0  0  2  0  0  0  0  0  0
  188.0110  178.9000  141.2330 N   0  0  0  0  0  2  0  0  0  0  0  0
  187.4710  178.3280  140.0100 C   0  0  0  0  0  2  0  0  0  0  0  0
  188.6030  177.9250  139.0810 C   0  0  0  0  0  2  0  0  0  0  0  0
  187.6590  177.8790  136.7730 O   0  0  0  0  0  0  0  0  0  0  0  0
  188.9750  179.6270  137.4550 O   0  0  0  0  0  1  0  0  0  0  0  0
  188.4190  178.5340  137.7330 C   0  0  0  0  0  0  0  0  0  0  0  0
  183.7850  178.6540  141.9720 C   0  0  0  0  0  2  0  0  0  0  0  0
  184.0250  178.1150  140.5670 C   0  0  0  0  0  3  0  0  0  0  0  0
  182.9200  177.1440  140.2100 C   0  0  0  0  0  1  0  0  0  0  0  0
  184.0300  179.2520  139.5630 C   0  0  0  0  0  1  0  0  0  0  0  0
  1 25  1  6  0  0  0
  1  8  1  0  0  0  0
  3  6  1  6  0  0  0
  3 11  1  0  0  0  0
  3  5  1  0  0  0  0
  5  4  1  1  0  0  0
  7  5  1  0  0  0  0
  7  2  2  0  0  0  0
  8  7  1  0  0  0  0
  9 18  1  1  0  0  0
  9  1  1  0  0  0  0
  9  6  1  0  0  0  0
 10 12  1  1  0  0  0
 10 16  1  0  0  0  0
 11 14  1  6  0  0  0
 11 16  1  0  0  0  0
 15 13  1  6  0  0  0
 15 17  1  0  0  0  0
 15 14  1  0  0  0  0
 17 10  1  0  0  0  0
 19 18  1  0  0  0  0
 20 19  1  0  0  0  0
 21 20  1  0  0  0  0
 22 24  2  0  0  0  0
 23 24  1  0  0  0  0
 24 21  1  0  0  0  0
 26 25  1  0  0  0  0
 27 26  1  0  0  0  0
 28 26  1  0  0  0  0
M  END
>  <MODEL>
1

>  <REMARK>
 VINA RESULT:      -6.8      0.000      0.000
  Name = 
  8 active torsions:
  status: ('A' for Active; 'I' for Inactive)
    1  A    between atoms: N_1  and  N_6
    2  A    between atoms: N_1  and  C_27
    3  A    between atoms: C_2  and  C_23
    4  A    between atoms: C_3  and  N_6
    5  A    between atoms: C_3  and  C_18
    6  A    between atoms: C_4  and  C_23
    7  A    between atoms: N_7  and  C_15
    8  A    between atoms: C_18  and  C_28
                            x       y       z     vdW  Elec       q    Type
                         _______ _______ _______ _____ _____    ______ ____

>  <TORSDO>
F 8

$$$$
=
 OpenBabel11062413333D

 28 29  0  0  1  0  0  0  0  0999 V2000
  183.9540  178.7520  144.1690 C   0  0  2  0  0  3  0  0  0  0  0  0
  186.0730  179.8420  146.9610 O   0  0  0  0  0  0  0  0  0  0  0  0
  186.9140  177.7700  144.4770 N   0  0  2  0  0  0  0  0  0  0  0  0
  187.0850  177.2600  146.9820 C   0  0  0  0  0  1  0  0  0  0  0  0
  186.2450  177.7450  145.7960 C   0  0  1  0  0  3  0  0  0  0  0  0
  185.9120  177.2820  143.5230 C   0  0  0  0  0  2  0  0  0  0  0  0
  185.6170  179.0850  146.0620 C   0  0  0  0  0  0  0  0  0  0  0  0
  184.5390  179.5490  145.2440 N   0  0  0  0  0  2  0  0  0  0  0  0
  184.9680  178.4000  143.0700 C   0  0  2  0  0  3  0  0  0  0  0  0
  189.6700  178.8600  143.8100 C   0  0  2  0  0  3  0  0  0  0  0  0
  188.1390  176.9360  144.4040 C   0  0  1  0  0  3  0  0  0  0  0  0
  190.7960  179.5720  144.2190 O   0  0  0  0  0  1  0  0  0  0  0  0
  188.9610  176.8800  140.7390 O   0  0  0  0  0  1  0  0  0  0  0  0
  188.4010  176.3500  142.9990 C   0  0  0  0  0  2  0  0  0  0  0  0
  188.7080  177.4510  141.9850 C   0  0  1  0  0  3  0  0  0  0  0  0
  189.3720  177.7530  144.8200 C   0  0  0  0  0  2  0  0  0  0  0  0
  189.9210  178.2570  142.4320 C   0  0  0  0  0  2  0  0  0  0  0  0
  185.7170  179.5720  142.6310 N   0  0  0  0  0  2  0  0  0  0  0  0
  185.8950  179.4520  141.2480 N   0  0  0  0  0  2  0  0  0  0  0  0
  184.6660  178.8840  140.7180 C   0  0  0  0  0  2  0  0  0  0  0  0
  184.4680  179.3230  139.2780 C   0  0  0  0  0  2  0  0  0  0  0  0
  184.6030  177.2080  137.9630 O   0  0  0  0  0  1  0  0  0  0  0  0
  186.3340  178.7100  137.9290 O   0  0  0  0  0  0  0  0  0  0  0  0
  185.1870  178.4090  138.3470 C   0  0  0  0  0  0  0  0  0  0  0  0
  182.6930  179.4120  143.6060 C   0  0  0  0  0  2  0  0  0  0  0  0
  181.6240  178.4150  143.1770 C   0  0  0  0  0  3  0  0  0  0  0  0
  180.4150  178.5640  144.0770 C   0  0  0  0  0  1  0  0  0  0  0  0
  181.2080  178.6760  141.7420 C   0  0  0  0  0  1  0  0  0  0  0  0
  1 25  1  6  0  0  0
  1  8  1  0  0  0  0
  3  6  1  6  0  0  0
  3  5  1  0  0  0  0
  5  7  1  0  0  0  0
  5  4  1  1  0  0  0
  7  2  2  0  0  0  0
  8  7  1  0  0  0  0
  9 18  1  1  0  0  0
  9  6  1  0  0  0  0
  9  1  1  0  0  0  0
 10 12  1  1  0  0  0
 10 16  1  0  0  0  0
 11 14  1  6  0  0  0
 11  3  1  0  0  0  0
 11 16  1  0  0  0  0
 15 13  1  6  0  0  0
 15 17  1  0  0  0  0
 15 14  1  0  0  0  0
 17 10  1  0  0  0  0
 19 18  1  0  0  0  0
 20 19  1  0  0  0  0
 21 20  1  0  0  0  0
 22 24  1  0  0  0  0
 23 24  2  0  0  0  0
 24 21  1  0  0  0  0
 26 25  1  0  0  0  0
 26 27  1  0  0  0  0
 28 26  1  0  0  0  0
M  END
>  <MODEL>
2

>  <REMARK>
 VINA RESULT:      -6.8      1.640      2.227
  Name = 
  8 active torsions:
  status: ('A' for Active; 'I' for Inactive)
    1  A    between atoms: N_1  and  N_6
    2  A    between atoms: N_1  and  C_27
    3  A    between atoms: C_2  and  C_23
    4  A    between atoms: C_3  and  N_6
    5  A    between atoms: C_3  and  C_18
    6  A    between atoms: C_4  and  C_23
    7  A    between atoms: N_7  and  C_15
    8  A    between atoms: C_18  and  C_28
                            x       y       z     vdW  Elec       q    Type
                         _______ _______ _______ _____ _____    ______ ____

>  <TORSDO>
F 8

$$$$
=
 OpenBabel11062413333D

 28 29  0  0  1  0  0  0  0  0999 V2000
  185.3820  178.4220  141.4930 C   0  0  2  0  0  3  0  0  0  0  0  0
  184.2080  180.6410  138.8150 O   0  0  0  0  0  0  0  0  0  0  0  0
  182.3630  178.5530  140.6600 N   0  0  2  0  0  0  0  0  0  0  0  0
  182.4830  178.5920  138.1010 C   0  0  0  0  0  1  0  0  0  0  0  0
  183.2120  178.5460  139.4480 C   0  0  1  0  0  3  0  0  0  0  0  0
  182.9900  177.5940  141.5770 C   0  0  0  0  0  2  0  0  0  0  0  0
  184.2510  179.6270  139.5620 C   0  0  0  0  0  0  0  0  0  0  0  0
  185.2600  179.5500  140.5720 N   0  0  0  0  0  2  0  0  0  0  0  0
  184.1350  178.2340  142.3700 C   0  0  2  0  0  3  0  0  0  0  0  0
  180.0050  180.4120  141.1130 C   0  0  2  0  0  3  0  0  0  0  0  0
  180.9510  178.1730  140.4110 C   0  0  1  0  0  3  0  0  0  0  0  0
  179.2540  181.5030  140.6810 O   0  0  0  0  0  1  0  0  0  0  0  0
  179.4690  177.9560  143.8570 O   0  0  0  0  0  1  0  0  0  0  0  0
  180.2580  177.5440  141.6400 C   0  0  0  0  0  2  0  0  0  0  0  0
  180.1190  178.5550  142.7790 C   0  0  1  0  0  3  0  0  0  0  0  0
  180.1340  179.4000  139.9770 C   0  0  0  0  0  2  0  0  0  0  0  0
  179.3230  179.7670  142.3140 C   0  0  0  0  0  2  0  0  0  0  0  0
  183.7110  179.4880  142.9830 N   0  0  0  0  0  2  0  0  0  0  0  0
  183.4430  179.2160  144.3300 N   0  0  0  0  0  2  0  0  0  0  0  0
  184.6730  179.4740  145.0590 C   0  0  0  0  0  2  0  0  0  0  0  0
  184.8960  178.3940  146.1030 C   0  0  0  0  0  2  0  0  0  0  0  0
  186.9950  177.9430  147.3720 O   0  0  0  0  0  0  0  0  0  0  0  0
  185.8830  179.9300  147.6350 O   0  0  0  0  0  1  0  0  0  0  0  0
  185.9520  178.8080  147.0710 C   0  0  0  0  0  0  0  0  0  0  0  0
  186.6660  178.5130  142.3210 C   0  0  0  0  0  2  0  0  0  0  0  0
  187.3530  177.1690  142.5290 C   0  0  0  0  0  3  0  0  0  0  0  0
  188.7370  177.2160  141.9160 C   0  0  0  0  0  1  0  0  0  0  0  0
  187.4760  176.8650  144.0090 C   0  0  0  0  0  1  0  0  0  0  0  0
  1 25  1  1  0  0  0
  1  9  1  0  0  0  0
  2  7  2  0  0  0  0
  3  6  1  1  0  0  0
  5  4  1  6  0  0  0
  5  7  1  0  0  0  0
  5  3  1  0  0  0  0
  6  9  1  0  0  0  0
  7  8  1  0  0  0  0
  8  1  1  0  0  0  0
  9 18  1  6  0  0  0
 10 12  1  6  0  0  0
 10 17  1  0  0  0  0
 11 16  1  1  0  0  0
 11  3  1  0  0  0  0
 11 14  1  0  0  0  0
 14 15  1  0  0  0  0
 15 13  1  1  0  0  0
 16 10  1  0  0  0  0
 17 15  1  0  0  0  0
 18 19  1  0  0  0  0
 19 20  1  0  0  0  0
 20 21  1  0  0  0  0
 21 24  1  0  0  0  0
 24 22  2  0  0  0  0
 24 23  1  0  0  0  0
 25 26  1  0  0  0  0
 26 28  1  0  0  0  0
 27 26  1  0  0  0  0
M  END
>  <MODEL>
3

>  <REMARK>
 VINA RESULT:      -6.4      3.192      8.067
  Name = 
  8 active torsions:
  status: ('A' for Active; 'I' for Inactive)
    1  A    between atoms: N_1  and  N_6
    2  A    between atoms: N_1  and  C_27
    3  A    between atoms: C_2  and  C_23
    4  A    between atoms: C_3  and  N_6
    5  A    between atoms: C_3  and  C_18
    6  A    between atoms: C_4  and  C_23
    7  A    between atoms: N_7  and  C_15
    8  A    between atoms: C_18  and  C_28
                            x       y       z     vdW  Elec       q    Type
                         _______ _______ _______ _____ _____    ______ ____

>  <TORSDO>
F 8

$$$$
=
 OpenBabel11062413333D

 28 29  0  0  1  0  0  0  0  0999 V2000
  190.4600  176.6050  141.6410 C   0  0  2  0  0  3  0  0  0  0  0  0
  193.2920  177.9910  139.7620 O   0  0  0  0  0  0  0  0  0  0  0  0
  190.3160  177.0770  138.5460 N   0  0  2  0  0  0  0  0  0  0  0  0
  192.5950  176.2290  137.7370 C   0  0  0  0  0  1  0  0  0  0  0  0
  191.6270  176.4870  138.8960 C   0  0  1  0  0  3  0  0  0  0  0  0
  189.3370  176.3740  139.3830 C   0  0  0  0  0  2  0  0  0  0  0  0
  192.2630  177.3010  139.9900 C   0  0  0  0  0  0  0  0  0  0  0  0
  191.6610  177.3580  141.2860 N   0  0  0  0  0  2  0  0  0  0  0  0
  189.2440  176.9880  140.7840 C   0  0  2  0  0  3  0  0  0  0  0  0
  188.0140  178.5590  137.2310 C   0  0  2  0  0  3  0  0  0  0  0  0
  189.9550  176.9410  137.1140 C   0  0  1  0  0  3  0  0  0  0  0  0
  187.5090  179.7520  136.7190 O   0  0  0  0  0  1  0  0  0  0  0  0
  186.6920  175.0800  137.1920 O   0  0  0  0  0  1  0  0  0  0  0  0
  188.9400  175.8090  136.8410 C   0  0  0  0  0  2  0  0  0  0  0  0
  187.5850  176.1110  137.4810 C   0  0  1  0  0  3  0  0  0  0  0  0
  189.3630  178.2550  136.5820 C   0  0  0  0  0  2  0  0  0  0  0  0
  187.0310  177.4280  136.9510 C   0  0  0  0  0  2  0  0  0  0  0  0
  189.0680  178.4340  140.7120 N   0  0  0  0  0  2  0  0  0  0  0  0
  187.7060  178.6700  140.4850 N   0  0  0  0  0  2  0  0  0  0  0  0
  187.0200  178.3810  141.7330 C   0  0  0  0  0  2  0  0  0  0  0  0
  185.8080  179.2830  141.8830 C   0  0  0  0  0  2  0  0  0  0  0  0
  184.6780  179.8070  139.7220 O   0  0  0  0  0  0  0  0  0  0  0  0
  184.0270  177.9930  140.9640 O   0  0  0  0  0  1  0  0  0  0  0  0
  184.7950  178.9810  140.8320 C   0  0  0  0  0  0  0  0  0  0  0  0
  190.1660  176.6980  143.1400 C   0  0  0  0  0  2  0  0  0  0  0  0
  191.2230  177.4680  143.9220 C   0  0  0  0  0  3  0  0  0  0  0  0
  190.7010  178.8540  144.2350 C   0  0  0  0  0  1  0  0  0  0  0  0
  191.5410  176.7530  145.2200 C   0  0  0  0  0  1  0  0  0  0  0  0
  1 25  1  1  0  0  0
  2  7  2  0  0  0  0
  3  5  1  0  0  0  0
  3  6  1  1  0  0  0
  5  4  1  6  0  0  0
  5  7  1  0  0  0  0
  6  9  1  0  0  0  0
  7  8  1  0  0  0  0
  8  1  1  0  0  0  0
  9 18  1  6  0  0  0
  9  1  1  0  0  0  0
 10 12  1  6  0  0  0
 11 16  1  1  0  0  0
 11  3  1  0  0  0  0
 14 11  1  0  0  0  0
 14 15  1  0  0  0  0
 15 13  1  6  0  0  0
 16 10  1  0  0  0  0
 17 10  1  0  0  0  0
 17 15  1  0  0  0  0
 19 18  1  0  0  0  0
 19 20  1  0  0  0  0
 20 21  1  0  0  0  0
 22 24  2  0  0  0  0
 24 23  1  0  0  0  0
 24 21  1  0  0  0  0
 25 26  1  0  0  0  0
 26 27  1  0  0  0  0
 26 28  1  0  0  0  0
M  END
>  <MODEL>
4

>  <REMARK>
 VINA RESULT:      -6.2      2.733      6.913
  Name = 
  8 active torsions:
  status: ('A' for Active; 'I' for Inactive)
    1  A    between atoms: N_1  and  N_6
    2  A    between atoms: N_1  and  C_27
    3  A    between atoms: C_2  and  C_23
    4  A    between atoms: C_3  and  N_6
    5  A    between atoms: C_3  and  C_18
    6  A    between atoms: C_4  and  C_23
    7  A    between atoms: N_7  and  C_15
    8  A    between atoms: C_18  and  C_28
                            x       y       z     vdW  Elec       q    Type
                         _______ _______ _______ _____ _____    ______ ____

>  <TORSDO>
F 8

$$$$
=
 OpenBabel11062413333D

 28 29  0  0  1  0  0  0  0  0999 V2000
  186.0830  178.3440  143.1800 C   0  0  2  0  0  3  0  0  0  0  0  0
  183.6590  177.3890  140.5950 O   0  0  0  0  0  0  0  0  0  0  0  0
  186.8260  178.3510  140.1360 N   0  0  2  0  0  0  0  0  0  0  0  0
  184.7610  179.4110  139.0510 C   0  0  0  0  0  1  0  0  0  0  0  0
  185.4790  178.9360  140.3180 C   0  0  1  0  0  3  0  0  0  0  0  0
  187.6300  178.8740  141.2460 C   0  0  0  0  0  2  0  0  0  0  0  0
  184.6320  177.9910  141.1240 C   0  0  0  0  0  0  0  0  0  0  0  0
  184.9660  177.7080  142.4860 N   0  0  0  0  0  2  0  0  0  0  0  0
  187.4390  178.0470  142.5220 C   0  0  2  0  0  3  0  0  0  0  0  0
  187.4550  176.3160  137.9700 C   0  0  2  0  0  3  0  0  0  0  0  0
  187.4620  178.6920  138.8400 C   0  0  1  0  0  3  0  0  0  0  0  0
  186.9950  175.4930  136.9460 O   0  0  0  0  0  1  0  0  0  0  0  0
  190.8920  177.1810  139.1090 O   0  0  0  0  0  1  0  0  0  0  0  0
  189.0050  178.6280  138.8770 C   0  0  0  0  0  2  0  0  0  0  0  0
  189.4980  177.1990  139.1050 C   0  0  1  0  0  3  0  0  0  0  0  0
  186.9710  177.7450  137.7340 C   0  0  0  0  0  2  0  0  0  0  0  0
  188.9790  176.2800  138.0070 C   0  0  0  0  0  2  0  0  0  0  0  0
  187.6090  176.6240  142.2550 N   0  0  0  0  0  2  0  0  0  0  0  0
  188.4740  176.1220  143.2350 N   0  0  0  0  0  2  0  0  0  0  0  0
  189.8230  176.4530  142.8080 C   0  0  0  0  0  2  0  0  0  0  0  0
  190.6870  176.7770  144.0150 C   0  0  0  0  0  2  0  0  0  0  0  0
  190.9320  179.2580  143.9670 O   0  0  0  0  0  0  0  0  0  0  0  0
  189.5930  178.2530  145.5330 O   0  0  0  0  0  1  0  0  0  0  0  0
  190.3620  178.1310  144.5450 C   0  0  0  0  0  0  0  0  0  0  0  0
  186.0760  178.0080  144.6740 C   0  0  0  0  0  2  0  0  0  0  0  0
  185.4140  179.0760  145.5350 C   0  0  0  0  0  3  0  0  0  0  0  0
  183.9120  179.0010  145.3540 C   0  0  0  0  0  1  0  0  0  0  0  0
  185.7490  178.8540  146.9970 C   0  0  0  0  0  1  0  0  0  0  0  0
  1 25  1  1  0  0  0
  2  7  2  0  0  0  0
  3  5  1  0  0  0  0
  3  6  1  1  0  0  0
  5  4  1  6  0  0  0
  5  7  1  0  0  0  0
  6  9  1  0  0  0  0
  7  8  1  0  0  0  0
  8  1  1  0  0  0  0
  9 18  1  6  0  0  0
  9  1  1  0  0  0  0
 10 12  1  6  0  0  0
 10 17  1  0  0  0  0
 11 16  1  6  0  0  0
 11 14  1  0  0  0  0
 11  3  1  0  0  0  0
 14 15  1  0  0  0  0
 15 13  1  6  0  0  0
 16 10  1  0  0  0  0
 17 15  1  0  0  0  0
 18 19  1  0  0  0  0
 20 19  1  0  0  0  0
 20 21  1  0  0  0  0
 21 24  1  0  0  0  0
 22 24  2  0  0  0  0
 24 23  1  0  0  0  0
 25 26  1  0  0  0  0
 26 28  1  0  0  0  0
 27 26  1  0  0  0  0
M  END
>  <MODEL>
5

>  <REMARK>
 VINA RESULT:      -6.0      1.926      5.650
  Name = 
  8 active torsions:
  status: ('A' for Active; 'I' for Inactive)
    1  A    between atoms: N_1  and  N_6
    2  A    between atoms: N_1  and  C_27
    3  A    between atoms: C_2  and  C_23
    4  A    between atoms: C_3  and  N_6
    5  A    between atoms: C_3  and  C_18
    6  A    between atoms: C_4  and  C_23
    7  A    between atoms: N_7  and  C_15
    8  A    between atoms: C_18  and  C_28
                            x       y       z     vdW  Elec       q    Type
                         _______ _______ _______ _____ _____    ______ ____

>  <TORSDO>
F 8

$$$$
=
 OpenBabel11062413333D

 28 29  0  0  1  0  0  0  0  0999 V2000
  188.3020  177.6070  141.5590 C   0  0  2  0  0  3  0  0  0  0  0  0
  185.6860  180.1240  142.1020 O   0  0  0  0  0  0  0  0  0  0  0  0
  186.6340  177.7100  144.2110 N   0  0  2  0  0  0  0  0  0  0  0  0
  184.2500  178.1160  143.3640 C   0  0  0  0  0  1  0  0  0  0  0  0
  185.7360  177.9150  143.0530 C   0  0  1  0  0  3  0  0  0  0  0  0
  187.5730  176.6630  143.7930 C   0  0  0  0  0  2  0  0  0  0  0  0
  186.2830  179.0170  142.1880 C   0  0  0  0  0  0  0  0  0  0  0  0
  187.5300  178.8460  141.5090 N   0  0  0  0  0  2  0  0  0  0  0  0
  188.7410  177.2380  142.9850 C   0  0  2  0  0  3  0  0  0  0  0  0
  186.5610  179.3890  146.7410 C   0  0  2  0  0  3  0  0  0  0  0  0
  185.9340  177.3030  145.4530 C   0  0  1  0  0  3  0  0  0  0  0  0
  186.0460  180.4920  147.4190 O   0  0  0  0  0  1  0  0  0  0  0  0
  188.7320  176.5780  147.8530 O   0  0  0  0  0  1  0  0  0  0  0  0
  186.8220  176.4910  146.4210 C   0  0  0  0  0  2  0  0  0  0  0  0
  187.9700  177.3390  146.9680 C   0  0  1  0  0  3  0  0  0  0  0  0
  185.4120  178.5370  146.2050 C   0  0  0  0  0  2  0  0  0  0  0  0
  187.4240  178.5650  147.6900 C   0  0  0  0  0  2  0  0  0  0  0  0
  189.3470  178.3710  143.6740 N   0  0  0  0  0  2  0  0  0  0  0  0
  190.6980  178.0570  143.8720 N   0  0  0  0  0  2  0  0  0  0  0  0
  190.8250  177.6250  145.2540 C   0  0  0  0  0  2  0  0  0  0  0  0
  191.6960  176.3840  145.3330 C   0  0  0  0  0  2  0  0  0  0  0  0
  192.0430  177.0990  147.6970 O   0  0  0  0  0  1  0  0  0  0  0  0
  192.4040  174.9220  147.0770 O   0  0  0  0  0  0  0  0  0  0  0  0
  192.0580  176.0850  146.7480 C   0  0  0  0  0  0  0  0  0  0  0  0
  189.4780  177.6410  140.5810 C   0  0  0  0  0  2  0  0  0  0  0  0
  189.0800  177.3470  139.1400 C   0  0  0  0  0  3  0  0  0  0  0  0
  189.0990  178.6350  138.3440 C   0  0  0  0  0  1  0  0  0  0  0  0
  190.0520  176.3650  138.5160 C   0  0  0  0  0  1  0  0  0  0  0  0
  1 25  1  6  0  0  0
  1  9  1  0  0  0  0
  2  7  2  0  0  0  0
  3  6  1  6  0  0  0
  3 11  1  0  0  0  0
  5  4  1  1  0  0  0
  5  3  1  0  0  0  0
  7  5  1  0  0  0  0
  8  1  1  0  0  0  0
  8  7  1  0  0  0  0
  9 18  1  1  0  0  0
  9  6  1  0  0  0  0
 10 12  1  1  0  0  0
 10 17  1  0  0  0  0
 11 16  1  1  0  0  0
 11 14  1  0  0  0  0
 14 15  1  0  0  0  0
 15 17  1  0  0  0  0
 15 13  1  1  0  0  0
 16 10  1  0  0  0  0
 18 19  1  0  0  0  0
 19 20  1  0  0  0  0
 20 21  1  0  0  0  0
 21 24  1  0  0  0  0
 24 23  2  0  0  0  0
 24 22  1  0  0  0  0
 26 25  1  0  0  0  0
 27 26  1  0  0  0  0
 28 26  1  0  0  0  0
M  END
>  <MODEL>
6

>  <REMARK>
 VINA RESULT:      -5.9      2.652      5.778
  Name = 
  8 active torsions:
  status: ('A' for Active; 'I' for Inactive)
    1  A    between atoms: N_1  and  N_6
    2  A    between atoms: N_1  and  C_27
    3  A    between atoms: C_2  and  C_23
    4  A    between atoms: C_3  and  N_6
    5  A    between atoms: C_3  and  C_18
    6  A    between atoms: C_4  and  C_23
    7  A    between atoms: N_7  and  C_15
    8  A    between atoms: C_18  and  C_28
                            x       y       z     vdW  Elec       q    Type
                         _______ _______ _______ _____ _____    ______ ____

>  <TORSDO>
F 8

$$$$
=
 OpenBabel11062413333D

 28 29  0  0  1  0  0  0  0  0999 V2000
  187.9210  178.2280  139.7150 C   0  0  2  0  0  3  0  0  0  0  0  0
  190.5030  175.6350  139.4250 O   0  0  0  0  0  0  0  0  0  0  0  0
  190.2180  177.9400  141.8280 N   0  0  2  0  0  0  0  0  0  0  0  0
  192.2850  177.5390  140.3680 C   0  0  0  0  0  1  0  0  0  0  0  0
  190.7760  177.7860  140.4670 C   0  0  1  0  0  3  0  0  0  0  0  0
  189.2380  179.0270  141.7250 C   0  0  0  0  0  2  0  0  0  0  0  0
  189.9860  176.7460  139.7210 C   0  0  0  0  0  0  0  0  0  0  0  0
  188.6120  176.9790  139.4010 N   0  0  0  0  0  2  0  0  0  0  0  0
  187.8810  178.5220  141.2230 C   0  0  2  0  0  3  0  0  0  0  0  0
  191.2500  175.9400  143.8670 C   0  0  2  0  0  3  0  0  0  0  0  0
  191.2310  178.2620  142.8630 C   0  0  1  0  0  3  0  0  0  0  0  0
  192.0580  174.8390  144.1470 O   0  0  0  0  0  1  0  0  0  0  0  0
  189.2760  178.1980  146.0710 O   0  0  0  0  0  1  0  0  0  0  0  0
  190.6180  178.7810  144.1830 C   0  0  0  0  0  2  0  0  0  0  0  0
  189.7900  177.6980  144.8760 C   0  0  1  0  0  3  0  0  0  0  0  0
  192.0820  177.0230  143.1850 C   0  0  0  0  0  2  0  0  0  0  0  0
  190.6530  176.4760  145.1640 C   0  0  0  0  0  2  0  0  0  0  0  0
  187.4380  177.3620  141.9880 N   0  0  0  0  0  2  0  0  0  0  0  0
  186.7780  177.8480  143.1240 N   0  0  0  0  0  2  0  0  0  0  0  0
  185.3750  177.9740  142.7670 C   0  0  0  0  0  2  0  0  0  0  0  0
  184.8430  179.3230  143.2180 C   0  0  0  0  0  2  0  0  0  0  0  0
  183.9730  179.0620  145.5410 O   0  0  0  0  0  1  0  0  0  0  0  0
  182.5360  179.0520  143.7550 O   0  0  0  0  0  0  0  0  0  0  0  0
  183.7170  179.1490  144.1790 C   0  0  0  0  0  0  0  0  0  0  0  0
  186.5300  178.2720  139.0780 C   0  0  0  0  0  2  0  0  0  0  0  0
  186.4770  177.6500  137.6880 C   0  0  0  0  0  3  0  0  0  0  0  0
  185.0320  177.4040  137.3070 C   0  0  0  0  0  1  0  0  0  0  0  0
  187.1060  178.5820  136.6710 C   0  0  0  0  0  1  0  0  0  0  0  0
  1 25  1  1  0  0  0
  1  9  1  0  0  0  0
  2  7  2  0  0  0  0
  3  6  1  6  0  0  0
  3 11  1  0  0  0  0
  5  4  1  1  0  0  0
  5  3  1  0  0  0  0
  7  5  1  0  0  0  0
  8  1  1  0  0  0  0
  8  7  1  0  0  0  0
  9  6  1  0  0  0  0
  9 18  1  1  0  0  0
 10 12  1  1  0  0  0
 10 17  1  0  0  0  0
 11 16  1  1  0  0  0
 11 14  1  0  0  0  0
 14 15  1  0  0  0  0
 15 17  1  0  0  0  0
 15 13  1  1  0  0  0
 16 10  1  0  0  0  0
 18 19  1  0  0  0  0
 20 19  1  0  0  0  0
 20 21  1  0  0  0  0
 21 24  1  0  0  0  0
 23 24  2  0  0  0  0
 24 22  1  0  0  0  0
 26 25  1  0  0  0  0
 27 26  1  0  0  0  0
 28 26  1  0  0  0  0
M  END
>  <MODEL>
7

>  <REMARK>
 VINA RESULT:      -5.9      2.308      5.342
  Name = 
  8 active torsions:
  status: ('A' for Active; 'I' for Inactive)
    1  A    between atoms: N_1  and  N_6
    2  A    between atoms: N_1  and  C_27
    3  A    between atoms: C_2  and  C_23
    4  A    between atoms: C_3  and  N_6
    5  A    between atoms: C_3  and  C_18
    6  A    between atoms: C_4  and  C_23
    7  A    between atoms: N_7  and  C_15
    8  A    between atoms: C_18  and  C_28
                            x       y       z     vdW  Elec       q    Type
                         _______ _______ _______ _____ _____    ______ ____

>  <TORSDO>
F 8

$$$$
=
 OpenBabel11062413333D

 28 29  0  0  1  0  0  0  0  0999 V2000
  184.2620  178.7200  139.1750 C   0  0  2  0  0  3  0  0  0  0  0  0
  182.9740  182.1200  138.6670 O   0  0  0  0  0  0  0  0  0  0  0  0
  181.2690  179.4560  139.7460 N   0  0  2  0  0  0  0  0  0  0  0  0
  180.6530  180.9220  137.7370 C   0  0  0  0  0  1  0  0  0  0  0  0
  181.7010  180.0880  138.4800 C   0  0  1  0  0  3  0  0  0  0  0  0
  181.8670  178.1150  139.7350 C   0  0  0  0  0  2  0  0  0  0  0  0
  182.9700  180.8600  138.7180 C   0  0  0  0  0  0  0  0  0  0  0  0
  184.1730  180.1750  139.0770 N   0  0  0  0  0  2  0  0  0  0  0  0
  183.3150  178.1370  140.2350 C   0  0  2  0  0  3  0  0  0  0  0  0
  179.8270  179.6830  142.4090 C   0  0  2  0  0  3  0  0  0  0  0  0
  179.7970  179.3570  139.9000 C   0  0  1  0  0  3  0  0  0  0  0  0
  179.3690  180.4940  143.4460 O   0  0  0  0  0  1  0  0  0  0  0  0
  179.3060  176.0750  141.6620 O   0  0  0  0  0  1  0  0  0  0  0  0
  179.2990  177.9140  140.1380 C   0  0  0  0  0  2  0  0  0  0  0  0
  179.7960  177.3670  141.4760 C   0  0  1  0  0  3  0  0  0  0  0  0
  179.3210  180.2260  141.0750 C   0  0  0  0  0  2  0  0  0  0  0  0
  179.3260  178.2590  142.6180 C   0  0  0  0  0  2  0  0  0  0  0  0
  183.4210  178.8480  141.5040 N   0  0  0  0  0  2  0  0  0  0  0  0
  184.1510  178.0300  142.3740 N   0  0  0  0  0  2  0  0  0  0  0  0
  185.0760  178.8990  143.0840 C   0  0  0  0  0  2  0  0  0  0  0  0
  185.5120  178.2450  144.3830 C   0  0  0  0  0  2  0  0  0  0  0  0
  185.6180  179.3670  146.6080 O   0  0  0  0  0  1  0  0  0  0  0  0
  183.5990  179.0030  145.5850 O   0  0  0  0  0  0  0  0  0  0  0  0
  184.8520  178.8990  145.5480 C   0  0  0  0  0  0  0  0  0  0  0  0
  185.7090  178.2610  139.3740 C   0  0  0  0  0  2  0  0  0  0  0  0
  186.5240  178.2470  138.0860 C   0  0  0  0  0  3  0  0  0  0  0  0
  187.9530  177.8610  138.4060 C   0  0  0  0  0  1  0  0  0  0  0  0
  185.9460  177.2420  137.1100 C   0  0  0  0  0  1  0  0  0  0  0  0
  1 25  1  1  0  0  0
  1  9  1  0  0  0  0
  2  7  2  0  0  0  0
  3  6  1  6  0  0  0
  3 11  1  0  0  0  0
  5  4  1  1  0  0  0
  5  7  1  0  0  0  0
  5  3  1  0  0  0  0
  6  9  1  0  0  0  0
  7  8  1  0  0  0  0
  8  1  1  0  0  0  0
  9 18  1  1  0  0  0
 10 17  1  0  0  0  0
 10 12  1  1  0  0  0
 11 14  1  1  0  0  0
 11 16  1  0  0  0  0
 14 15  1  0  0  0  0
 15 13  1  1  0  0  0
 15 17  1  0  0  0  0
 16 10  1  0  0  0  0
 18 19  1  0  0  0  0
 19 20  1  0  0  0  0
 20 21  1  0  0  0  0
 21 24  1  0  0  0  0
 24 23  2  0  0  0  0
 24 22  1  0  0  0  0
 26 27  1  0  0  0  0
 26 25  1  0  0  0  0
 28 26  1  0  0  0  0
M  END
>  <MODEL>
8

>  <REMARK>
 VINA RESULT:      -5.6      3.743      8.246
  Name = 
  8 active torsions:
  status: ('A' for Active; 'I' for Inactive)
    1  A    between atoms: N_1  and  N_6
    2  A    between atoms: N_1  and  C_27
    3  A    between atoms: C_2  and  C_23
    4  A    between atoms: C_3  and  N_6
    5  A    between atoms: C_3  and  C_18
    6  A    between atoms: C_4  and  C_23
    7  A    between atoms: N_7  and  C_15
    8  A    between atoms: C_18  and  C_28
                            x       y       z     vdW  Elec       q    Type
                         _______ _______ _______ _____ _____    ______ ____

>  <TORSDO>
F 8

$$$$
=
 OpenBabel11062413333D

 28 29  0  0  1  0  0  0  0  0999 V2000
  188.3400  178.4830  139.9440 C   0  0  2  0  0  3  0  0  0  0  0  0
  186.2070  176.7660  137.4990 O   0  0  0  0  0  0  0  0  0  0  0  0
  189.5420  176.9750  137.4740 N   0  0  2  0  0  0  0  0  0  0  0  0
  187.9780  177.6720  135.5680 C   0  0  0  0  0  1  0  0  0  0  0  0
  188.3550  177.7500  137.0510 C   0  0  1  0  0  3  0  0  0  0  0  0
  190.2570  177.8420  138.4170 C   0  0  0  0  0  2  0  0  0  0  0  0
  187.1950  177.4100  137.9450 C   0  0  0  0  0  0  0  0  0  0  0  0
  187.2330  177.7510  139.3330 N   0  0  0  0  0  2  0  0  0  0  0  0
  189.6780  177.7370  139.8330 C   0  0  2  0  0  3  0  0  0  0  0  0
  190.0790  174.0990  136.6550 C   0  0  2  0  0  3  0  0  0  0  0  0
  190.4400  176.5860  136.3580 C   0  0  1  0  0  3  0  0  0  0  0  0
  189.6310  172.9420  136.0210 O   0  0  0  0  0  1  0  0  0  0  0  0
  193.3860  175.0250  138.0890 O   0  0  0  0  0  1  0  0  0  0  0  0
  191.9080  176.3810  136.7930 C   0  0  0  0  0  2  0  0  0  0  0  0
  192.0470  175.1900  137.7400 C   0  0  1  0  0  3  0  0  0  0  0  0
  189.9490  175.2860  135.7020 C   0  0  0  0  0  2  0  0  0  0  0  0
  191.5340  173.9200  137.0720 C   0  0  0  0  0  2  0  0  0  0  0  0
  189.5570  176.3440  140.2470 N   0  0  0  0  0  2  0  0  0  0  0  0
  190.6550  176.0630  141.0690 N   0  0  0  0  0  2  0  0  0  0  0  0
  190.1760  176.1260  142.4390 C   0  0  0  0  0  2  0  0  0  0  0  0
  191.2480  176.7170  143.3390 C   0  0  0  0  0  2  0  0  0  0  0  0
  190.1980  177.5350  145.4480 O   0  0  0  0  0  1  0  0  0  0  0  0
  190.6240  178.9840  143.7240 O   0  0  0  0  0  0  0  0  0  0  0  0
  190.6850  177.8130  144.1770 C   0  0  0  0  0  0  0  0  0  0  0  0
  188.0170  178.8840  141.3850 C   0  0  0  0  0  2  0  0  0  0  0  0
  186.7330  178.2590  141.9170 C   0  0  0  0  0  3  0  0  0  0  0  0
  186.9890  177.6920  143.2980 C   0  0  0  0  0  1  0  0  0  0  0  0
  185.6380  179.3050  142.0070 C   0  0  0  0  0  1  0  0  0  0  0  0
  1 25  1  1  0  0  0
  2  7  2  0  0  0  0
  3  6  1  1  0  0  0
  5  4  1  6  0  0  0
  5  3  1  0  0  0  0
  5  7  1  0  0  0  0
  6  9  1  0  0  0  0
  7  8  1  0  0  0  0
  8  1  1  0  0  0  0
  9  1  1  0  0  0  0
  9 18  1  6  0  0  0
 10 12  1  6  0  0  0
 10 17  1  0  0  0  0
 11 16  1  1  0  0  0
 11 14  1  0  0  0  0
 11  3  1  0  0  0  0
 14 15  1  0  0  0  0
 15 13  1  6  0  0  0
 16 10  1  0  0  0  0
 17 15  1  0  0  0  0
 18 19  1  0  0  0  0
 19 20  1  0  0  0  0
 20 21  1  0  0  0  0
 21 24  1  0  0  0  0
 23 24  2  0  0  0  0
 24 22  1  0  0  0  0
 25 26  1  0  0  0  0
 26 28  1  0  0  0  0
 26 27  1  0  0  0  0
M  END
>  <MODEL>
9

>  <REMARK>
 VINA RESULT:      -5.5      3.026      6.888
  Name = 
  8 active torsions:
  status: ('A' for Active; 'I' for Inactive)
    1  A    between atoms: N_1  and  N_6
    2  A    between atoms: N_1  and  C_27
    3  A    between atoms: C_2  and  C_23
    4  A    between atoms: C_3  and  N_6
    5  A    between atoms: C_3  and  C_18
    6  A    between atoms: C_4  and  C_23
    7  A    between atoms: N_7  and  C_15
    8  A    between atoms: C_18  and  C_28
                            x       y       z     vdW  Elec       q    Type
                         _______ _______ _______ _____ _____    ______ ____

>  <TORSDO>
F 8

$$$$
