=
 OpenBabel11062412473D

 54 55  0  0  1  0  0  0  0  0999 V2000
  185.0420  179.1670  144.0130 C   0  0  1  0  0  0  0  0  0  0  0  0
  182.8070  180.0780  143.8510 F   0  0  0  0  0  0  0  0  0  0  0  0
  185.1720  178.9160  141.7080 C   0  0  0  0  0  2  0  0  0  0  0  0
  185.5040  179.7470  142.8010 O   0  0  0  0  0  0  0  0  0  0  0  0
  183.6620  178.7110  141.6490 C   0  0  2  0  0  3  0  0  0  0  0  0
  185.2950  180.1630  145.1370 C   0  0  0  0  0  1  0  0  0  0  0  0
  183.2030  178.0710  142.8270 O   0  0  0  0  0  0  0  0  0  0  0  0
  183.1040  178.2310  145.0870 F   0  0  0  0  0  0  0  0  0  0  0  0
  183.5140  178.8860  143.9380 C   0  0  0  0  0  0  0  0  0  0  0  0
  183.2750  178.0680  140.4450 O   0  0  0  0  0  0  0  0  0  0  0  0
  181.8700  177.9650  140.3520 C   0  0  2  0  0  3  0  0  0  0  0  0
  181.4680  176.6380  139.6970 C   0  0  1  0  0  3  0  0  0  0  0  0
  179.4130  175.8580  139.3690 C   0  0  0  0  0  1  0  0  0  0  0  0
  180.3620  176.1040  140.3660 O   0  0  0  0  0  0  0  0  0  0  0  0
  181.1170  176.8720  138.3460 O   0  0  0  0  0  0  0  0  0  0  0  0
  181.4530  175.3660  136.4470 C   0  0  0  0  0  1  0  0  0  0  0  0
  182.9510  175.5520  138.2210 F   0  0  0  0  0  0  0  0  0  0  0  0
  182.0770  176.3100  137.4660 C   0  0  2  0  0  0  0  0  0  0  0  0
  182.8810  177.3870  136.7400 C   0  0  0  0  0  2  0  0  0  0  0  0
  185.7610  174.7910  137.0500 O   0  0  0  0  0  0  0  0  0  0  0  0
  184.2310  176.9280  136.4480 N   0  0  0  0  0  0  0  0  0  0  0  0
  185.3210  175.8610  136.5660 C   0  0  0  0  0  0  0  0  0  0  0  0
  185.4360  176.9770  135.7440 C   0  0  2  0  0  3  0  0  0  0  0  0
  186.4260  177.9320  136.3980 C   0  0  0  0  0  2  0  0  0  0  0  0
  185.7000  179.1230  138.3260 O   0  0  0  0  0  1  0  0  0  0  0  0
  186.3000  177.9370  137.9100 C   0  0  2  0  0  3  0  0  0  0  0  0
  188.1320  178.7750  139.1660 O   0  0  0  0  0  0  0  0  0  0  0  0
  187.6480  177.8070  138.5310 C   0  0  0  0  0  0  0  0  0  0  0  0
  188.3770  176.5850  138.4420 N   0  0  0  0  0  1  0  0  0  0  0  0
  181.3330  179.1420  139.5280 C   0  0  0  0  0  2  0  0  0  0  0  0
  180.0800  179.7840  140.1230 C   0  0  1  0  0  3  0  0  0  0  0  0
  178.9430  179.3890  139.4130 O   0  0  0  0  0  1  0  0  0  0  0  0
  179.4980  178.2790  142.0080 F   0  0  0  0  0  0  0  0  0  0  0  0
  180.1220  180.4250  142.4510 N   0  0  0  0  0  2  0  0  0  0  0  0
  179.9260  179.4970  141.5890 C   0  0  0  0  0  0  0  0  0  0  0  0
  185.8150  177.8740  144.3350 C   0  0  0  0  0  2  0  0  0  0  0  0
  186.9190  178.1360  145.1540 O   0  0  0  0  0  0  0  0  0  0  0  0
  188.0330  177.7750  144.3930 C   0  0  1  0  0  3  0  0  0  0  0  0
  188.9440  176.8410  146.5230 O   0  0  0  0  0  1  0  0  0  0  0  0
  189.1870  177.4320  145.2890 C   0  0  0  0  0  0  0  0  0  0  0  0
  190.4470  177.6880  144.9340 C   0  0  0  0  0  3  0  0  0  0  0  0
  191.6840  179.4310  143.9120 O   0  0  0  0  0  1  0  0  0  0  0  0
  190.8440  178.3460  143.6480 C   0  0  1  0  0  3  0  0  0  0  0  0
  191.1400  176.0490  142.9570 O   0  0  0  0  0  1  0  0  0  0  0  0
  191.5030  177.3700  142.6680 C   0  0  1  0  0  3  0  0  0  0  0  0
  191.2710  177.6820  141.1950 C   0  0  0  0  0  2  0  0  0  0  0  0
  191.5820  176.5520  140.3450 N   0  0  0  0  0  2  0  0  0  0  0  0
  191.8210  177.0970  139.0160 C   0  0  0  0  0  2  0  0  0  0  0  0
  191.8370  175.9750  137.9890 C   0  0  2  0  0  3  0  0  0  0  0  0
  191.1080  174.8820  138.4680 O   0  0  0  0  0  1  0  0  0  0  0  0
  193.2800  175.5630  137.7480 C   0  0  0  0  0  2  0  0  0  0  0  0
  193.9000  176.4070  136.6590 C   0  0  0  0  0  1  0  0  0  0  0  0
  188.1100  176.8610  142.1860 O   0  0  0  0  0  1  0  0  0  0  0  0
  187.6780  176.6050  143.4880 C   0  0  0  0  0  2  0  0  0  0  0  0
  1 36  1  0  0  0  0
  1  6  1  1  0  0  0
  2  9  1  0  0  0  0
  3  4  1  0  0  0  0
  4  1  1  0  0  0  0
  5 10  1  6  0  0  0
  5  3  1  0  0  0  0
  5  7  1  0  0  0  0
  7  9  1  0  0  0  0
  9  1  1  0  0  0  0
  9  8  1  0  0  0  0
 11 30  1  6  0  0  0
 11 10  1  0  0  0  0
 12 15  1  6  0  0  0
 12 11  1  0  0  0  0
 12 14  1  0  0  0  0
 13 14  1  0  0  0  0
 18 16  1  6  0  0  0
 18 17  1  0  0  0  0
 18 15  1  0  0  0  0
 19 18  1  0  0  0  0
 21 22  1  0  0  0  0
 21 19  1  0  0  0  0
 22 20  2  0  0  0  0
 23 24  1  1  0  0  0
 23 21  1  0  0  0  0
 23 22  1  0  0  0  0
 24 26  1  0  0  0  0
 26 25  1  1  0  0  0
 26 28  1  0  0  0  0
 28 27  2  0  0  0  0
 29 28  1  0  0  0  0
 30 31  1  0  0  0  0
 31 32  1  6  0  0  0
 31 35  1  0  0  0  0
 35 33  1  0  0  0  0
 35 34  2  0  0  0  0
 36 37  1  0  0  0  0
 38 54  1  1  0  0  0
 38 37  1  0  0  0  0
 38 40  1  0  0  0  0
 40 39  1  0  0  0  0
 41 40  2  0  0  0  0
 43 42  1  1  0  0  0
 43 41  1  0  0  0  0
 45 44  1  1  0  0  0
 45 43  1  0  0  0  0
 46 45  1  0  0  0  0
 47 46  1  0  0  0  0
 48 47  1  0  0  0  0
 49 50  1  1  0  0  0
 49 48  1  0  0  0  0
 51 49  1  0  0  0  0
 52 51  1  0  0  0  0
 53 54  1  0  0  0  0
M  END
>  <MODEL>
1

>  <REMARK>
 VINA RESULT:      -5.6      0.000      0.000
  Name = 
  26 active torsions:
  status: ('A' for Active; 'I' for Inactive)
    1  A    between atoms: C_1  and  C_28
    2  A    between atoms: C_1  and  CA_52
    3  A    between atoms: C_2  and  C_36
    4  A    between atoms: C_2  and  C_39
    5  A    between atoms: C_2  and  O_53
    6  A    between atoms: C_5  and  N_15
    7  A    between atoms: C_5  and  C_54
    8  A    between atoms: C_6  and  C_13
    9  A    between atoms: C_6  and  C_38
   10  A    between atoms: C_8  and  C_12
   11  A    between atoms: C_11  and  C_27
   12  A    between atoms: C_11  and  O_30
   13  A    between atoms: C_11  and  C_34
   14  A    between atoms: C_12  and  O_30
   15  A    between atoms: C_16  and  C_39
   16  A    between atoms: C_16  and  C_44
   17  A    between atoms: O_17  and  C_36
   18  A    between atoms: O_17  and  C_54
   19  A    between atoms: C_19  and  N_21
   20  A    between atoms: C_19  and  C_47
   21  A    between atoms: N_21  and  C_38
   22  A    between atoms: C_22  and  C_28
   23  A    between atoms: C_23  and  O_53
   24  A    between atoms: O_33  and  C_36
   25  A    between atoms: C_47  and  C_48
   26  A    between atoms: C_48  and  C_50
                            x       y       z     vdW  Elec       q    Type
                         _______ _______ _______ _____ _____    ______ ____

>  <TORSDO>
F 26

$$$$
=
 OpenBabel11062412473D

 54 55  0  0  1  0  0  0  0  0999 V2000
  184.8460  179.2600  143.5490 C   0  0  1  0  0  0  0  0  0  0  0  0
  182.5120  179.7920  143.2000 F   0  0  0  0  0  0  0  0  0  0  0  0
  185.1470  178.8270  141.2880 C   0  0  0  0  0  2  0  0  0  0  0  0
  185.2840  179.7940  142.3080 O   0  0  0  0  0  0  0  0  0  0  0  0
  183.6920  178.3840  141.1820 C   0  0  2  0  0  3  0  0  0  0  0  0
  184.8780  180.3810  144.5800 C   0  0  0  0  0  1  0  0  0  0  0  0
  183.2660  177.7880  142.3960 O   0  0  0  0  0  0  0  0  0  0  0  0
  183.0120  178.1330  144.6220 F   0  0  0  0  0  0  0  0  0  0  0  0
  183.3850  178.7390  143.4340 C   0  0  0  0  0  0  0  0  0  0  0  0
  183.4780  177.5820  140.0310 O   0  0  0  0  0  0  0  0  0  0  0  0
  182.1550  177.7130  139.5580 C   0  0  2  0  0  3  0  0  0  0  0  0
  182.1310  177.7620  138.0250 C   0  0  1  0  0  3  0  0  0  0  0  0
  181.1730  179.1980  136.6260 C   0  0  0  0  0  1  0  0  0  0  0  0
  182.1690  179.0940  137.6010 O   0  0  0  0  0  0  0  0  0  0  0  0
  183.2680  177.0880  137.5200 O   0  0  0  0  0  0  0  0  0  0  0  0
  182.6400  175.9810  135.4300 C   0  0  0  0  0  1  0  0  0  0  0  0
  181.7200  175.4370  137.5000 F   0  0  0  0  0  0  0  0  0  0  0  0
  182.9060  175.8530  136.9240 C   0  0  2  0  0  0  0  0  0  0  0  0
  183.9590  174.7740  137.1660 C   0  0  0  0  0  2  0  0  0  0  0  0
  186.9010  173.6220  134.8970 O   0  0  0  0  0  0  0  0  0  0  0  0
  185.1690  175.0390  136.4020 N   0  0  0  0  0  0  0  0  0  0  0  0
  186.2860  174.5480  135.4790 C   0  0  0  0  0  0  0  0  0  0  0  0
  186.0900  175.8900  135.7870 C   0  0  2  0  0  3  0  0  0  0  0  0
  187.1930  176.3080  136.7510 C   0  0  0  0  0  2  0  0  0  0  0  0
  189.2410  177.1010  135.8320 O   0  0  0  0  0  1  0  0  0  0  0  0
  187.9720  177.5060  136.2410 C   0  0  2  0  0  3  0  0  0  0  0  0
  189.0100  179.3810  137.2630 O   0  0  0  0  0  0  0  0  0  0  0  0
  188.0910  178.5280  137.3180 C   0  0  0  0  0  0  0  0  0  0  0  0
  187.1520  178.5700  138.3910 N   0  0  0  0  0  1  0  0  0  0  0  0
  181.5390  178.9930  140.1350 C   0  0  0  0  0  2  0  0  0  0  0  0
  180.0420  178.8750  140.4250 C   0  0  1  0  0  3  0  0  0  0  0  0
  179.5310  177.6890  139.8910 O   0  0  0  0  0  1  0  0  0  0  0  0
  179.6250  180.2030  142.4800 F   0  0  0  0  0  0  0  0  0  0  0  0
  179.6360  177.9280  142.6100 N   0  0  0  0  0  2  0  0  0  0  0  0
  179.7290  178.9850  141.8910 C   0  0  0  0  0  0  0  0  0  0  0  0
  185.7850  178.1390  144.0290 C   0  0  0  0  0  2  0  0  0  0  0  0
  186.8840  178.6610  144.7210 O   0  0  0  0  0  0  0  0  0  0  0  0
  187.4860  177.5600  145.3360 C   0  0  1  0  0  3  0  0  0  0  0  0
  189.5080  178.0550  146.7160 O   0  0  0  0  0  1  0  0  0  0  0  0
  188.9650  177.7810  145.4670 C   0  0  0  0  0  0  0  0  0  0  0  0
  189.7750  177.7300  144.4090 C   0  0  0  0  0  3  0  0  0  0  0  0
  189.0210  178.6850  142.3770 O   0  0  0  0  0  1  0  0  0  0  0  0
  189.3150  177.4730  143.0060 C   0  0  1  0  0  3  0  0  0  0  0  0
  190.3380  175.3230  142.5920 O   0  0  0  0  0  1  0  0  0  0  0  0
  190.3310  176.6660  142.1920 C   0  0  1  0  0  3  0  0  0  0  0  0
  190.1800  176.7780  140.6800 C   0  0  0  0  0  2  0  0  0  0  0  0
  191.4150  177.1750  140.0400 N   0  0  0  0  0  2  0  0  0  0  0  0
  191.2980  176.7700  138.6460 C   0  0  0  0  0  2  0  0  0  0  0  0
  192.5370  175.9930  138.2250 C   0  0  2  0  0  3  0  0  0  0  0  0
  193.5640  176.8820  137.8900 O   0  0  0  0  0  1  0  0  0  0  0  0
  192.1840  175.1400  137.0170 C   0  0  0  0  0  2  0  0  0  0  0  0
  192.6810  175.7880  135.7450 C   0  0  0  0  0  1  0  0  0  0  0  0
  186.4240  178.5320  147.2430 O   0  0  0  0  0  1  0  0  0  0  0  0
  186.8470  177.3210  146.6950 C   0  0  0  0  0  2  0  0  0  0  0  0
  1 36  1  0  0  0  0
  1  6  1  1  0  0  0
  2  9  1  0  0  0  0
  3  4  1  0  0  0  0
  4  1  1  0  0  0  0
  5 10  1  6  0  0  0
  5  3  1  0  0  0  0
  5  7  1  0  0  0  0
  7  9  1  0  0  0  0
  9  1  1  0  0  0  0
  9  8  1  0  0  0  0
 11 10  1  0  0  0  0
 11 30  1  1  0  0  0
 12 15  1  6  0  0  0
 12 11  1  0  0  0  0
 13 14  1  0  0  0  0
 14 12  1  0  0  0  0
 18 16  1  6  0  0  0
 18 19  1  0  0  0  0
 18 17  1  0  0  0  0
 18 15  1  0  0  0  0
 20 22  2  0  0  0  0
 21 19  1  0  0  0  0
 22 23  1  0  0  0  0
 22 21  1  0  0  0  0
 23 21  1  0  0  0  0
 23 24  1  1  0  0  0
 26 25  1  1  0  0  0
 26 24  1  0  0  0  0
 26 28  1  0  0  0  0
 27 28  2  0  0  0  0
 28 29  1  0  0  0  0
 30 31  1  0  0  0  0
 31 32  1  1  0  0  0
 31 35  1  0  0  0  0
 35 33  1  0  0  0  0
 35 34  2  0  0  0  0
 36 37  1  0  0  0  0
 37 38  1  0  0  0  0
 38 40  1  0  0  0  0
 38 54  1  1  0  0  0
 40 39  1  0  0  0  0
 41 40  2  0  0  0  0
 43 42  1  6  0  0  0
 43 41  1  0  0  0  0
 45 44  1  1  0  0  0
 45 43  1  0  0  0  0
 46 45  1  0  0  0  0
 47 46  1  0  0  0  0
 48 47  1  0  0  0  0
 49 50  1  6  0  0  0
 49 48  1  0  0  0  0
 51 49  1  0  0  0  0
 52 51  1  0  0  0  0
 54 53  1  0  0  0  0
M  END
>  <MODEL>
2

>  <REMARK>
 VINA RESULT:      -5.4      1.645      2.065
  Name = 
  26 active torsions:
  status: ('A' for Active; 'I' for Inactive)
    1  A    between atoms: C_1  and  C_28
    2  A    between atoms: C_1  and  CA_52
    3  A    between atoms: C_2  and  C_36
    4  A    between atoms: C_2  and  C_39
    5  A    between atoms: C_2  and  O_53
    6  A    between atoms: C_5  and  N_15
    7  A    between atoms: C_5  and  C_54
    8  A    between atoms: C_6  and  C_13
    9  A    between atoms: C_6  and  C_38
   10  A    between atoms: C_8  and  C_12
   11  A    between atoms: C_11  and  C_27
   12  A    between atoms: C_11  and  O_30
   13  A    between atoms: C_11  and  C_34
   14  A    between atoms: C_12  and  O_30
   15  A    between atoms: C_16  and  C_39
   16  A    between atoms: C_16  and  C_44
   17  A    between atoms: O_17  and  C_36
   18  A    between atoms: O_17  and  C_54
   19  A    between atoms: C_19  and  N_21
   20  A    between atoms: C_19  and  C_47
   21  A    between atoms: N_21  and  C_38
   22  A    between atoms: C_22  and  C_28
   23  A    between atoms: C_23  and  O_53
   24  A    between atoms: O_33  and  C_36
   25  A    between atoms: C_47  and  C_48
   26  A    between atoms: C_48  and  C_50
                            x       y       z     vdW  Elec       q    Type
                         _______ _______ _______ _____ _____    ______ ____

>  <TORSDO>
F 26

$$$$
=
 OpenBabel11062412473D

 54 55  0  0  1  0  0  0  0  0999 V2000
  184.7000  179.2130  143.3250 C   0  0  1  0  0  0  0  0  0  0  0  0
  182.4270  179.8610  142.8080 F   0  0  0  0  0  0  0  0  0  0  0  0
  185.1450  178.7670  141.0910 C   0  0  0  0  0  2  0  0  0  0  0  0
  185.2550  179.7250  142.1220 O   0  0  0  0  0  0  0  0  0  0  0  0
  183.6820  178.3960  140.8770 C   0  0  2  0  0  3  0  0  0  0  0  0
  184.7120  180.3310  144.3610 C   0  0  0  0  0  1  0  0  0  0  0  0
  183.1390  177.8220  142.0530 O   0  0  0  0  0  0  0  0  0  0  0  0
  182.7380  178.1780  144.2560 F   0  0  0  0  0  0  0  0  0  0  0  0
  183.2270  178.7650  143.1010 C   0  0  0  0  0  0  0  0  0  0  0  0
  183.5130  177.6070  139.7090 O   0  0  0  0  0  0  0  0  0  0  0  0
  183.6690  178.3850  138.5420 C   0  0  2  0  0  3  0  0  0  0  0  0
  182.3050  178.8510  138.0180 C   0  0  1  0  0  3  0  0  0  0  0  0
  181.3240  180.5700  139.0270 C   0  0  0  0  0  1  0  0  0  0  0  0
  182.2520  180.2480  138.0320 O   0  0  0  0  0  0  0  0  0  0  0  0
  182.1390  178.4000  136.6870 O   0  0  0  0  0  0  0  0  0  0  0  0
  180.0240  179.0480  135.6390 C   0  0  0  0  0  1  0  0  0  0  0  0
  180.1590  177.9070  137.6660 F   0  0  0  0  0  0  0  0  0  0  0  0
  180.7960  178.0110  136.4440 C   0  0  2  0  0  0  0  0  0  0  0  0
  180.7150  176.6560  135.7440 C   0  0  0  0  0  2  0  0  0  0  0  0
  181.6520  175.1530  139.2070 O   0  0  0  0  0  0  0  0  0  0  0  0
  181.2750  175.6010  136.5750 N   0  0  0  0  0  0  0  0  0  0  0  0
  181.5900  175.0330  137.9600 C   0  0  0  0  0  0  0  0  0  0  0  0
  181.7500  174.3050  136.7860 C   0  0  2  0  0  3  0  0  0  0  0  0
  183.2440  174.2060  136.5050 C   0  0  0  0  0  2  0  0  0  0  0  0
  185.0120  173.4150  137.8890 O   0  0  0  0  0  1  0  0  0  0  0  0
  183.8750  173.0090  137.1930 C   0  0  2  0  0  3  0  0  0  0  0  0
  185.0960  172.2530  135.3030 O   0  0  0  0  0  0  0  0  0  0  0  0
  184.2430  171.9800  136.1820 C   0  0  0  0  0  0  0  0  0  0  0  0
  183.6650  170.6770  136.2240 N   0  0  0  0  0  1  0  0  0  0  0  0
  184.3860  177.5510  137.4740 C   0  0  0  0  0  2  0  0  0  0  0  0
  185.8070  178.0310  137.1750 C   0  0  1  0  0  3  0  0  0  0  0  0
  186.6550  177.7520  138.2500 O   0  0  0  0  0  1  0  0  0  0  0  0
  186.9370  178.2670  134.9770 F   0  0  0  0  0  0  0  0  0  0  0  0
  186.1960  176.2140  135.6310 N   0  0  0  0  0  2  0  0  0  0  0  0
  186.3520  177.4580  135.8970 C   0  0  0  0  0  0  0  0  0  0  0  0
  185.5440  178.0460  143.8690 C   0  0  0  0  0  2  0  0  0  0  0  0
  186.5160  178.5010  144.7670 O   0  0  0  0  0  0  0  0  0  0  0  0
  187.6820  177.8100  144.4250 C   0  0  1  0  0  3  0  0  0  0  0  0
  188.1580  177.5290  146.8610 O   0  0  0  0  0  1  0  0  0  0  0  0
  188.6360  177.7940  145.5830 C   0  0  0  0  0  0  0  0  0  0  0  0
  189.9370  178.0360  145.4200 C   0  0  0  0  0  3  0  0  0  0  0  0
  191.0850  179.6630  144.1370 O   0  0  0  0  0  1  0  0  0  0  0  0
  190.5750  178.3630  144.1040 C   0  0  1  0  0  3  0  0  0  0  0  0
  191.8190  176.3790  144.7020 O   0  0  0  0  0  1  0  0  0  0  0  0
  191.6630  177.3580  143.7130 C   0  0  1  0  0  3  0  0  0  0  0  0
  191.4850  176.7170  142.3420 C   0  0  0  0  0  2  0  0  0  0  0  0
  190.8710  177.6230  141.3950 N   0  0  0  0  0  2  0  0  0  0  0  0
  191.4250  177.2850  140.0920 C   0  0  0  0  0  2  0  0  0  0  0  0
  190.3350  177.3400  139.0330 C   0  0  2  0  0  3  0  0  0  0  0  0
  189.2890  176.4800  139.3820 O   0  0  0  0  0  1  0  0  0  0  0  0
  190.9320  176.9070  137.7040 C   0  0  0  0  0  2  0  0  0  0  0  0
  189.9040  176.1720  136.8740 C   0  0  0  0  0  1  0  0  0  0  0  0
  188.1980  175.9790  142.9790 O   0  0  0  0  0  1  0  0  0  0  0  0
  187.3290  176.3970  143.9880 C   0  0  0  0  0  2  0  0  0  0  0  0
  1 36  1  0  0  0  0
  1  6  1  1  0  0  0
  2  9  1  0  0  0  0
  3  4  1  0  0  0  0
  4  1  1  0  0  0  0
  5 10  1  6  0  0  0
  5  3  1  0  0  0  0
  5  7  1  0  0  0  0
  7  9  1  0  0  0  0
  9  1  1  0  0  0  0
  9  8  1  0  0  0  0
 11 30  1  6  0  0  0
 11 10  1  0  0  0  0
 12 15  1  6  0  0  0
 12 14  1  0  0  0  0
 12 11  1  0  0  0  0
 14 13  1  0  0  0  0
 18 16  1  6  0  0  0
 18 15  1  0  0  0  0
 18 17  1  0  0  0  0
 19 18  1  0  0  0  0
 19 21  1  0  0  0  0
 21 23  1  0  0  0  0
 21 22  1  0  0  0  0
 22 20  2  0  0  0  0
 23 24  1  6  0  0  0
 23 22  1  0  0  0  0
 24 26  1  0  0  0  0
 26 25  1  6  0  0  0
 27 28  2  0  0  0  0
 28 29  1  0  0  0  0
 28 26  1  0  0  0  0
 31 30  1  0  0  0  0
 31 32  1  1  0  0  0
 33 35  1  0  0  0  0
 34 35  2  0  0  0  0
 35 31  1  0  0  0  0
 36 37  1  0  0  0  0
 38 54  1  1  0  0  0
 38 37  1  0  0  0  0
 38 40  1  0  0  0  0
 40 39  1  0  0  0  0
 41 40  2  0  0  0  0
 43 42  1  1  0  0  0
 43 41  1  0  0  0  0
 45 43  1  0  0  0  0
 45 44  1  1  0  0  0
 46 45  1  0  0  0  0
 47 46  1  0  0  0  0
 48 47  1  0  0  0  0
 49 50  1  1  0  0  0
 49 48  1  0  0  0  0
 51 49  1  0  0  0  0
 52 51  1  0  0  0  0
 53 54  1  0  0  0  0
M  END
>  <MODEL>
3

>  <REMARK>
 VINA RESULT:      -5.3      2.142      4.130
  Name = 
  26 active torsions:
  status: ('A' for Active; 'I' for Inactive)
    1  A    between atoms: C_1  and  C_28
    2  A    between atoms: C_1  and  CA_52
    3  A    between atoms: C_2  and  C_36
    4  A    between atoms: C_2  and  C_39
    5  A    between atoms: C_2  and  O_53
    6  A    between atoms: C_5  and  N_15
    7  A    between atoms: C_5  and  C_54
    8  A    between atoms: C_6  and  C_13
    9  A    between atoms: C_6  and  C_38
   10  A    between atoms: C_8  and  C_12
   11  A    between atoms: C_11  and  C_27
   12  A    between atoms: C_11  and  O_30
   13  A    between atoms: C_11  and  C_34
   14  A    between atoms: C_12  and  O_30
   15  A    between atoms: C_16  and  C_39
   16  A    between atoms: C_16  and  C_44
   17  A    between atoms: O_17  and  C_36
   18  A    between atoms: O_17  and  C_54
   19  A    between atoms: C_19  and  N_21
   20  A    between atoms: C_19  and  C_47
   21  A    between atoms: N_21  and  C_38
   22  A    between atoms: C_22  and  C_28
   23  A    between atoms: C_23  and  O_53
   24  A    between atoms: O_33  and  C_36
   25  A    between atoms: C_47  and  C_48
   26  A    between atoms: C_48  and  C_50
                            x       y       z     vdW  Elec       q    Type
                         _______ _______ _______ _____ _____    ______ ____

>  <TORSDO>
F 26

$$$$
=
 OpenBabel11062412473D

 54 55  0  0  1  0  0  0  0  0999 V2000
  185.2190  179.0110  140.8230 C   0  0  1  0  0  0  0  0  0  0  0  0
  183.1140  178.9110  142.0110 F   0  0  0  0  0  0  0  0  0  0  0  0
  184.1300  179.3250  138.7970 C   0  0  0  0  0  2  0  0  0  0  0  0
  184.7820  179.9700  139.8710 O   0  0  0  0  0  0  0  0  0  0  0  0
  182.9420  178.5220  139.3150 C   0  0  2  0  0  3  0  0  0  0  0  0
  185.7830  179.7630  142.0220 C   0  0  0  0  0  1  0  0  0  0  0  0
  183.3770  177.5180  140.2150 O   0  0  0  0  0  0  0  0  0  0  0  0
  184.4890  177.1460  142.1560 F   0  0  0  0  0  0  0  0  0  0  0  0
  184.0260  178.1370  141.3060 C   0  0  0  0  0  0  0  0  0  0  0  0
  182.1380  178.0420  138.2480 O   0  0  0  0  0  0  0  0  0  0  0  0
  180.7700  178.3020  138.4850 C   0  0  2  0  0  3  0  0  0  0  0  0
  180.0920  177.0830  139.1230 C   0  0  1  0  0  3  0  0  0  0  0  0
  179.3420  176.8410  141.2000 C   0  0  0  0  0  1  0  0  0  0  0  0
  179.0920  177.5120  139.9990 O   0  0  0  0  0  0  0  0  0  0  0  0
  179.5040  176.2930  138.1070 O   0  0  0  0  0  0  0  0  0  0  0  0
  179.1470  173.9330  138.6470 C   0  0  0  0  0  1  0  0  0  0  0  0
  181.2010  175.0090  138.8770 F   0  0  0  0  0  0  0  0  0  0  0  0
  180.0760  174.9950  138.0740 C   0  0  2  0  0  0  0  0  0  0  0  0
  180.5000  174.5960  136.6620 C   0  0  0  0  0  2  0  0  0  0  0  0
  183.0280  171.6790  137.1390 O   0  0  0  0  0  0  0  0  0  0  0  0
  181.8510  174.0560  136.6520 N   0  0  0  0  0  0  0  0  0  0  0  0
  182.8040  172.8700  136.8130 C   0  0  0  0  0  0  0  0  0  0  0  0
  183.2090  174.1100  136.3330 C   0  0  2  0  0  3  0  0  0  0  0  0
  184.0140  174.7900  137.4340 C   0  0  0  0  0  2  0  0  0  0  0  0
  184.1950  176.5310  135.8200 O   0  0  0  0  0  1  0  0  0  0  0  0
  184.8460  175.9430  136.9020 C   0  0  2  0  0  3  0  0  0  0  0  0
  186.3430  175.0110  135.3120 O   0  0  0  0  0  0  0  0  0  0  0  0
  186.1850  175.4470  136.4790 C   0  0  0  0  0  0  0  0  0  0  0  0
  187.2980  175.4980  137.3700 N   0  0  0  0  0  1  0  0  0  0  0  0
  180.0870  178.6490  137.1570 C   0  0  0  0  0  2  0  0  0  0  0  0
  181.0520  179.1700  136.0910 C   0  0  1  0  0  3  0  0  0  0  0  0
  181.0070  178.3610  134.9520 O   0  0  0  0  0  1  0  0  0  0  0  0
  181.3040  181.1340  134.5940 F   0  0  0  0  0  0  0  0  0  0  0  0
  180.1710  181.3710  136.5560 N   0  0  0  0  0  2  0  0  0  0  0  0
  180.7990  180.6090  135.7390 C   0  0  0  0  0  0  0  0  0  0  0  0
  186.3370  178.1270  140.2420 C   0  0  0  0  0  2  0  0  0  0  0  0
  187.4300  178.0550  141.1140 O   0  0  0  0  0  0  0  0  0  0  0  0
  188.5540  178.2580  140.3090 C   0  0  1  0  0  3  0  0  0  0  0  0
  190.0410  176.5210  139.3020 O   0  0  0  0  0  1  0  0  0  0  0  0
  189.5060  177.1060  140.4440 C   0  0  0  0  0  0  0  0  0  0  0  0
  189.8500  176.6200  141.6380 C   0  0  0  0  0  3  0  0  0  0  0  0
  188.5030  176.1770  143.5360 O   0  0  0  0  0  1  0  0  0  0  0  0
  189.3250  177.1390  142.9420 C   0  0  1  0  0  3  0  0  0  0  0  0
  190.5940  178.9600  143.8970 O   0  0  0  0  0  1  0  0  0  0  0  0
  190.4430  177.5670  143.8970 C   0  0  1  0  0  3  0  0  0  0  0  0
  190.3120  177.0390  145.3200 C   0  0  0  0  0  2  0  0  0  0  0  0
  189.6610  177.9920  146.1940 N   0  0  0  0  0  2  0  0  0  0  0  0
  188.4520  177.3390  146.6770 C   0  0  0  0  0  2  0  0  0  0  0  0
  187.7140  178.2570  147.6390 C   0  0  2  0  0  3  0  0  0  0  0  0
  187.8270  177.7680  148.9450 O   0  0  0  0  0  1  0  0  0  0  0  0
  186.2500  178.3040  147.2350 C   0  0  0  0  0  2  0  0  0  0  0  0
  186.0920  177.9760  145.7680 C   0  0  0  0  0  1  0  0  0  0  0  0
  188.9430  179.3790  138.2350 O   0  0  0  0  0  1  0  0  0  0  0  0
  188.1210  178.4420  138.8630 C   0  0  0  0  0  2  0  0  0  0  0  0
  1  9  1  0  0  0  0
  1  6  1  1  0  0  0
  3  5  1  0  0  0  0
  3  4  1  0  0  0  0
  4  1  1  0  0  0  0
  5 10  1  6  0  0  0
  5  7  1  0  0  0  0
  7  9  1  0  0  0  0
  9  2  1  0  0  0  0
  9  8  1  0  0  0  0
 10 11  1  0  0  0  0
 11 30  1  6  0  0  0
 11 12  1  0  0  0  0
 12 15  1  6  0  0  0
 12 14  1  0  0  0  0
 14 13  1  0  0  0  0
 18 15  1  0  0  0  0
 18 16  1  1  0  0  0
 18 17  1  0  0  0  0
 19 18  1  0  0  0  0
 21 19  1  0  0  0  0
 21 22  1  0  0  0  0
 22 20  2  0  0  0  0
 23 21  1  0  0  0  0
 23 22  1  0  0  0  0
 23 24  1  1  0  0  0
 26 25  1  6  0  0  0
 26 24  1  0  0  0  0
 27 28  2  0  0  0  0
 28 26  1  0  0  0  0
 28 29  1  0  0  0  0
 31 32  1  6  0  0  0
 31 30  1  0  0  0  0
 33 35  1  0  0  0  0
 35 31  1  0  0  0  0
 35 34  2  0  0  0  0
 36  1  1  0  0  0  0
 36 37  1  0  0  0  0
 38 54  1  6  0  0  0
 38 40  1  0  0  0  0
 38 37  1  0  0  0  0
 39 40  1  0  0  0  0
 40 41  2  0  0  0  0
 41 43  1  0  0  0  0
 43 42  1  1  0  0  0
 43 45  1  0  0  0  0
 45 44  1  1  0  0  0
 45 46  1  0  0  0  0
 46 47  1  0  0  0  0
 47 48  1  0  0  0  0
 48 49  1  0  0  0  0
 49 50  1  1  0  0  0
 51 49  1  0  0  0  0
 52 51  1  0  0  0  0
 53 54  1  0  0  0  0
M  END
>  <MODEL>
4

>  <REMARK>
 VINA RESULT:      -5.3      2.571      5.024
  Name = 
  26 active torsions:
  status: ('A' for Active; 'I' for Inactive)
    1  A    between atoms: C_1  and  C_28
    2  A    between atoms: C_1  and  CA_52
    3  A    between atoms: C_2  and  C_36
    4  A    between atoms: C_2  and  C_39
    5  A    between atoms: C_2  and  O_53
    6  A    between atoms: C_5  and  N_15
    7  A    between atoms: C_5  and  C_54
    8  A    between atoms: C_6  and  C_13
    9  A    between atoms: C_6  and  C_38
   10  A    between atoms: C_8  and  C_12
   11  A    between atoms: C_11  and  C_27
   12  A    between atoms: C_11  and  O_30
   13  A    between atoms: C_11  and  C_34
   14  A    between atoms: C_12  and  O_30
   15  A    between atoms: C_16  and  C_39
   16  A    between atoms: C_16  and  C_44
   17  A    between atoms: O_17  and  C_36
   18  A    between atoms: O_17  and  C_54
   19  A    between atoms: C_19  and  N_21
   20  A    between atoms: C_19  and  C_47
   21  A    between atoms: N_21  and  C_38
   22  A    between atoms: C_22  and  C_28
   23  A    between atoms: C_23  and  O_53
   24  A    between atoms: O_33  and  C_36
   25  A    between atoms: C_47  and  C_48
   26  A    between atoms: C_48  and  C_50
                            x       y       z     vdW  Elec       q    Type
                         _______ _______ _______ _____ _____    ______ ____

>  <TORSDO>
F 26

$$$$
=
 OpenBabel11062412473D

 54 55  0  0  1  0  0  0  0  0999 V2000
  187.1970  176.9750  135.9780 C   0  0  1  0  0  0  0  0  0  0  0  0
  188.9340  175.3040  135.7750 F   0  0  0  0  0  0  0  0  0  0  0  0
  188.6460  178.4380  137.0510 C   0  0  0  0  0  2  0  0  0  0  0  0
  188.0690  178.0850  135.8110 O   0  0  0  0  0  0  0  0  0  0  0  0
  189.4130  177.2510  137.6260 C   0  0  2  0  0  3  0  0  0  0  0  0
  186.7150  176.5450  134.5980 C   0  0  0  0  0  1  0  0  0  0  0  0
  188.5370  176.1620  137.8580 O   0  0  0  0  0  0  0  0  0  0  0  0
  187.0620  174.7470  136.8760 F   0  0  0  0  0  0  0  0  0  0  0  0
  187.9510  175.7810  136.6310 C   0  0  0  0  0  0  0  0  0  0  0  0
  190.1850  177.6320  138.7540 O   0  0  0  0  0  0  0  0  0  0  0  0
  191.0890  176.6130  139.1200 C   0  0  2  0  0  3  0  0  0  0  0  0
  191.9780  177.0710  140.2830 C   0  0  1  0  0  3  0  0  0  0  0  0
  194.1650  176.7870  140.5550 C   0  0  0  0  0  1  0  0  0  0  0  0
  193.2210  177.4770  139.7880 O   0  0  0  0  0  0  0  0  0  0  0  0
  191.3640  178.1670  140.9340 O   0  0  0  0  0  0  0  0  0  0  0  0
  191.2980  178.6390  143.3350 C   0  0  0  0  0  1  0  0  0  0  0  0
  191.2360  176.4870  142.4450 F   0  0  0  0  0  0  0  0  0  0  0  0
  190.8100  177.7750  142.1800 C   0  0  2  0  0  0  0  0  0  0  0  0
  189.2830  177.7770  142.1490 C   0  0  0  0  0  2  0  0  0  0  0  0
  186.3230  177.5290  144.6600 O   0  0  0  0  0  0  0  0  0  0  0  0
  188.7300  177.4250  143.4480 N   0  0  0  0  0  0  0  0  0  0  0  0
  187.5280  177.3110  144.3880 C   0  0  0  0  0  0  0  0  0  0  0  0
  188.7830  176.7960  144.6930 C   0  0  2  0  0  3  0  0  0  0  0  0
  189.4080  177.6980  145.7490 C   0  0  0  0  0  2  0  0  0  0  0  0
  189.6320  177.7140  148.1190 O   0  0  0  0  0  1  0  0  0  0  0  0
  189.8240  176.9250  146.9870 C   0  0  2  0  0  3  0  0  0  0  0  0
  191.9950  177.1060  146.0430 O   0  0  0  0  0  0  0  0  0  0  0  0
  191.2570  176.5320  146.8810 C   0  0  0  0  0  0  0  0  0  0  0  0
  191.8080  175.5410  147.7450 N   0  0  0  0  0  1  0  0  0  0  0  0
  191.9550  176.2500  137.9080 C   0  0  0  0  0  2  0  0  0  0  0  0
  192.2660  174.7560  137.8030 C   0  0  1  0  0  3  0  0  0  0  0  0
  191.5050  174.1660  136.7900 O   0  0  0  0  0  1  0  0  0  0  0  0
  194.2270  173.2340  137.7760 F   0  0  0  0  0  0  0  0  0  0  0  0
  194.5340  175.4500  137.3430 N   0  0  0  0  0  2  0  0  0  0  0  0
  193.7310  174.4860  137.6020 C   0  0  0  0  0  0  0  0  0  0  0  0
  185.9660  177.3620  136.8180 C   0  0  0  0  0  2  0  0  0  0  0  0
  184.8070  177.3840  136.0340 O   0  0  0  0  0  0  0  0  0  0  0  0
  183.7580  177.1410  136.9260 C   0  0  1  0  0  3  0  0  0  0  0  0
  182.1940  177.8420  135.1080 O   0  0  0  0  0  1  0  0  0  0  0  0
  182.5090  177.8320  136.4620 C   0  0  0  0  0  0  0  0  0  0  0  0
  181.6930  178.4490  137.3180 C   0  0  0  0  0  3  0  0  0  0  0  0
  183.0980  179.2630  139.0420 O   0  0  0  0  0  1  0  0  0  0  0  0
  181.9300  178.5370  138.7940 C   0  0  1  0  0  3  0  0  0  0  0  0
  181.1370  179.6330  140.7970 O   0  0  0  0  0  1  0  0  0  0  0  0
  180.7410  179.1420  139.5460 C   0  0  1  0  0  3  0  0  0  0  0  0
  179.9610  180.1990  138.7740 C   0  0  0  0  0  2  0  0  0  0  0  0
  180.3700  181.5420  139.1300 N   0  0  0  0  0  2  0  0  0  0  0  0
  181.0700  182.0740  137.9700 C   0  0  0  0  0  2  0  0  0  0  0  0
  180.1380  182.1030  136.7680 C   0  0  2  0  0  3  0  0  0  0  0  0
  180.7450  181.4680  135.6790 O   0  0  0  0  0  1  0  0  0  0  0  0
  179.8460  183.5530  136.4180 C   0  0  0  0  0  2  0  0  0  0  0  0
  181.1280  184.3500  136.3430 C   0  0  0  0  0  1  0  0  0  0  0  0
  183.4450  175.2910  138.4060 O   0  0  0  0  0  1  0  0  0  0  0  0
  183.5360  175.6420  137.0580 C   0  0  0  0  0  2  0  0  0  0  0  0
  1  6  1  6  0  0  0
  1  9  1  0  0  0  0
  1 36  1  0  0  0  0
  2  9  1  0  0  0  0
  3  5  1  0  0  0  0
  4  1  1  0  0  0  0
  4  3  1  0  0  0  0
  5  7  1  0  0  0  0
  5 10  1  1  0  0  0
  9  8  1  0  0  0  0
  9  7  1  0  0  0  0
 10 11  1  0  0  0  0
 11 30  1  6  0  0  0
 11 12  1  0  0  0  0
 12 14  1  6  0  0  0
 12 15  1  0  0  0  0
 14 13  1  0  0  0  0
 15 18  1  0  0  0  0
 18 17  1  0  0  0  0
 18 16  1  1  0  0  0
 19 18  1  0  0  0  0
 19 21  1  0  0  0  0
 21 22  1  0  0  0  0
 21 23  1  0  0  0  0
 22 20  2  0  0  0  0
 22 23  1  0  0  0  0
 23 24  1  1  0  0  0
 24 26  1  0  0  0  0
 26 25  1  1  0  0  0
 27 28  2  0  0  0  0
 28 26  1  0  0  0  0
 28 29  1  0  0  0  0
 31 32  1  6  0  0  0
 31 30  1  0  0  0  0
 34 35  2  0  0  0  0
 35 33  1  0  0  0  0
 35 31  1  0  0  0  0
 37 36  1  0  0  0  0
 37 38  1  0  0  0  0
 38 54  1  6  0  0  0
 39 40  1  0  0  0  0
 40 38  1  0  0  0  0
 40 41  2  0  0  0  0
 41 43  1  0  0  0  0
 43 42  1  6  0  0  0
 43 45  1  0  0  0  0
 45 44  1  1  0  0  0
 46 47  1  0  0  0  0
 46 45  1  0  0  0  0
 48 47  1  0  0  0  0
 49 50  1  6  0  0  0
 49 48  1  0  0  0  0
 51 49  1  0  0  0  0
 52 51  1  0  0  0  0
 54 53  1  0  0  0  0
M  END
>  <MODEL>
5

>  <REMARK>
 VINA RESULT:      -5.2      3.482     10.889
  Name = 
  26 active torsions:
  status: ('A' for Active; 'I' for Inactive)
    1  A    between atoms: C_1  and  C_28
    2  A    between atoms: C_1  and  CA_52
    3  A    between atoms: C_2  and  C_36
    4  A    between atoms: C_2  and  C_39
    5  A    between atoms: C_2  and  O_53
    6  A    between atoms: C_5  and  N_15
    7  A    between atoms: C_5  and  C_54
    8  A    between atoms: C_6  and  C_13
    9  A    between atoms: C_6  and  C_38
   10  A    between atoms: C_8  and  C_12
   11  A    between atoms: C_11  and  C_27
   12  A    between atoms: C_11  and  O_30
   13  A    between atoms: C_11  and  C_34
   14  A    between atoms: C_12  and  O_30
   15  A    between atoms: C_16  and  C_39
   16  A    between atoms: C_16  and  C_44
   17  A    between atoms: O_17  and  C_36
   18  A    between atoms: O_17  and  C_54
   19  A    between atoms: C_19  and  N_21
   20  A    between atoms: C_19  and  C_47
   21  A    between atoms: N_21  and  C_38
   22  A    between atoms: C_22  and  C_28
   23  A    between atoms: C_23  and  O_53
   24  A    between atoms: O_33  and  C_36
   25  A    between atoms: C_47  and  C_48
   26  A    between atoms: C_48  and  C_50
                            x       y       z     vdW  Elec       q    Type
                         _______ _______ _______ _____ _____    ______ ____

>  <TORSDO>
F 26

$$$$
=
 OpenBabel11062412473D

 54 55  0  0  1  0  0  0  0  0999 V2000
  185.9150  176.8010  136.2480 C   0  0  1  0  0  0  0  0  0  0  0  0
  188.1930  176.5770  135.4670 F   0  0  0  0  0  0  0  0  0  0  0  0
  186.6200  177.8720  138.1840 C   0  0  0  0  0  2  0  0  0  0  0  0
  186.1190  178.0590  136.8760 O   0  0  0  0  0  0  0  0  0  0  0  0
  187.9290  177.0920  138.1340 C   0  0  2  0  0  3  0  0  0  0  0  0
  185.5140  177.0590  134.8010 C   0  0  0  0  0  1  0  0  0  0  0  0
  187.7200  175.8090  137.5690 O   0  0  0  0  0  0  0  0  0  0  0  0
  186.9820  174.7090  135.7290 F   0  0  0  0  0  0  0  0  0  0  0  0
  187.2270  175.9660  136.2550 C   0  0  0  0  0  0  0  0  0  0  0  0
  188.5700  177.0760  139.4000 O   0  0  0  0  0  0  0  0  0  0  0  0
  189.9120  176.6520  139.2870 C   0  0  2  0  0  3  0  0  0  0  0  0
  190.7210  177.0880  140.5140 C   0  0  1  0  0  3  0  0  0  0  0  0
  192.9300  177.2880  140.6450 C   0  0  0  0  0  1  0  0  0  0  0  0
  191.7900  177.8920  140.1070 O   0  0  0  0  0  0  0  0  0  0  0  0
  189.8890  177.8370  141.3790 O   0  0  0  0  0  0  0  0  0  0  0  0
  190.2020  175.8280  142.7400 C   0  0  0  0  0  1  0  0  0  0  0  0
  188.6960  177.5220  143.2770 F   0  0  0  0  0  0  0  0  0  0  0  0
  189.9380  177.3270  142.7020 C   0  0  2  0  0  0  0  0  0  0  0  0
  190.9780  178.0520  143.5530 C   0  0  0  0  0  2  0  0  0  0  0  0
  192.0850  176.1490  146.7590 O   0  0  0  0  0  0  0  0  0  0  0  0
  190.8300  177.7200  144.9610 N   0  0  0  0  0  0  0  0  0  0  0  0
  191.3250  176.9800  146.2060 C   0  0  0  0  0  0  0  0  0  0  0  0
  190.3030  177.9230  146.2380 C   0  0  2  0  0  3  0  0  0  0  0  0
  188.9910  177.1740  146.4260 C   0  0  0  0  0  2  0  0  0  0  0  0
  187.9450  177.0590  148.5620 O   0  0  0  0  0  1  0  0  0  0  0  0
  188.0810  177.8590  147.4300 C   0  0  2  0  0  3  0  0  0  0  0  0
  186.3000  177.2950  145.9650 O   0  0  0  0  0  0  0  0  0  0  0  0
  186.7450  178.1010  146.8180 C   0  0  0  0  0  0  0  0  0  0  0  0
  185.9510  179.2170  147.2170 N   0  0  0  0  0  1  0  0  0  0  0  0
  190.5220  177.2510  138.0140 C   0  0  0  0  0  2  0  0  0  0  0  0
  191.5440  176.3380  137.3360 C   0  0  1  0  0  3  0  0  0  0  0  0
  192.0870  175.4400  138.2600 O   0  0  0  0  0  1  0  0  0  0  0  0
  190.1000  174.5850  136.3340 F   0  0  0  0  0  0  0  0  0  0  0  0
  191.3620  175.9020  134.9680 N   0  0  0  0  0  2  0  0  0  0  0  0
  190.9710  175.6110  136.1530 C   0  0  0  0  0  0  0  0  0  0  0  0
  184.7740  176.0230  136.9290 C   0  0  0  0  0  2  0  0  0  0  0  0
  183.5310  176.6060  136.6570 O   0  0  0  0  0  0  0  0  0  0  0  0
  182.6750  175.5330  136.3940 C   0  0  1  0  0  3  0  0  0  0  0  0
  181.1490  174.1830  137.8390 O   0  0  0  0  0  1  0  0  0  0  0  0
  181.6230  175.4330  137.4590 C   0  0  0  0  0  0  0  0  0  0  0  0
  181.1200  176.5190  138.0490 C   0  0  0  0  0  3  0  0  0  0  0  0
  180.5410  178.5150  136.9140 O   0  0  0  0  0  1  0  0  0  0  0  0
  181.5220  177.9230  137.7130 C   0  0  1  0  0  3  0  0  0  0  0  0
  180.8450  179.7890  139.0910 O   0  0  0  0  0  1  0  0  0  0  0  0
  181.7970  178.7700  138.9600 C   0  0  1  0  0  3  0  0  0  0  0  0
  181.9270  177.9830  140.2580 C   0  0  0  0  0  2  0  0  0  0  0  0
  182.7450  178.6750  141.2320 N   0  0  0  0  0  2  0  0  0  0  0  0
  184.1200  178.2840  140.9570 C   0  0  0  0  0  2  0  0  0  0  0  0
  185.0670  179.0250  141.8890 C   0  0  2  0  0  3  0  0  0  0  0  0
  186.3920  178.7140  141.5660 O   0  0  0  0  0  1  0  0  0  0  0  0
  184.7730  178.5950  143.3170 C   0  0  0  0  0  2  0  0  0  0  0  0
  184.2840  179.7670  144.1360 C   0  0  0  0  0  1  0  0  0  0  0  0
  181.4910  174.5000  134.5940 O   0  0  0  0  0  1  0  0  0  0  0  0
  182.0460  175.7070  135.0190 C   0  0  0  0  0  2  0  0  0  0  0  0
  1  6  1  6  0  0  0
  1  9  1  0  0  0  0
  1  4  1  0  0  0  0
  1 36  1  0  0  0  0
  2  9  1  0  0  0  0
  4  3  1  0  0  0  0
  5  3  1  0  0  0  0
  5 10  1  1  0  0  0
  7  5  1  0  0  0  0
  8  9  1  0  0  0  0
  9  7  1  0  0  0  0
 11 30  1  6  0  0  0
 11 10  1  0  0  0  0
 11 12  1  0  0  0  0
 12 14  1  6  0  0  0
 12 15  1  0  0  0  0
 14 13  1  0  0  0  0
 15 18  1  0  0  0  0
 18 16  1  6  0  0  0
 18 17  1  0  0  0  0
 18 19  1  0  0  0  0
 19 21  1  0  0  0  0
 21 22  1  0  0  0  0
 21 23  1  0  0  0  0
 22 23  1  0  0  0  0
 22 20  2  0  0  0  0
 23 24  1  6  0  0  0
 24 26  1  0  0  0  0
 26 25  1  1  0  0  0
 27 28  2  0  0  0  0
 28 29  1  0  0  0  0
 28 26  1  0  0  0  0
 31 30  1  0  0  0  0
 31 32  1  1  0  0  0
 34 35  2  0  0  0  0
 35 33  1  0  0  0  0
 35 31  1  0  0  0  0
 37 36  1  0  0  0  0
 38 54  1  6  0  0  0
 38 37  1  0  0  0  0
 38 40  1  0  0  0  0
 40 39  1  0  0  0  0
 40 41  2  0  0  0  0
 43 42  1  1  0  0  0
 43 41  1  0  0  0  0
 43 45  1  0  0  0  0
 45 44  1  1  0  0  0
 45 46  1  0  0  0  0
 46 47  1  0  0  0  0
 48 47  1  0  0  0  0
 48 49  1  0  0  0  0
 49 50  1  6  0  0  0
 49 51  1  0  0  0  0
 51 52  1  0  0  0  0
 53 54  1  0  0  0  0
M  END
>  <MODEL>
6

>  <REMARK>
 VINA RESULT:      -5.2      2.821     10.211
  Name = 
  26 active torsions:
  status: ('A' for Active; 'I' for Inactive)
    1  A    between atoms: C_1  and  C_28
    2  A    between atoms: C_1  and  CA_52
    3  A    between atoms: C_2  and  C_36
    4  A    between atoms: C_2  and  C_39
    5  A    between atoms: C_2  and  O_53
    6  A    between atoms: C_5  and  N_15
    7  A    between atoms: C_5  and  C_54
    8  A    between atoms: C_6  and  C_13
    9  A    between atoms: C_6  and  C_38
   10  A    between atoms: C_8  and  C_12
   11  A    between atoms: C_11  and  C_27
   12  A    between atoms: C_11  and  O_30
   13  A    between atoms: C_11  and  C_34
   14  A    between atoms: C_12  and  O_30
   15  A    between atoms: C_16  and  C_39
   16  A    between atoms: C_16  and  C_44
   17  A    between atoms: O_17  and  C_36
   18  A    between atoms: O_17  and  C_54
   19  A    between atoms: C_19  and  N_21
   20  A    between atoms: C_19  and  C_47
   21  A    between atoms: N_21  and  C_38
   22  A    between atoms: C_22  and  C_28
   23  A    between atoms: C_23  and  O_53
   24  A    between atoms: O_33  and  C_36
   25  A    between atoms: C_47  and  C_48
   26  A    between atoms: C_48  and  C_50
                            x       y       z     vdW  Elec       q    Type
                         _______ _______ _______ _____ _____    ______ ____

>  <TORSDO>
F 26

$$$$
=
 OpenBabel11062412473D

 54 55  0  0  1  0  0  0  0  0999 V2000
  187.9300  177.7400  138.0130 C   0  0  1  0  0  0  0  0  0  0  0  0
  189.4250  179.6410  137.9830 F   0  0  0  0  0  0  0  0  0  0  0  0
  188.1160  177.5520  140.3190 C   0  0  0  0  0  2  0  0  0  0  0  0
  187.3350  178.0650  139.2610 O   0  0  0  0  0  0  0  0  0  0  0  0
  189.5290  178.1210  140.2480 C   0  0  2  0  0  3  0  0  0  0  0  0
  187.1320  178.4350  136.9160 C   0  0  0  0  0  1  0  0  0  0  0  0
  190.1550  177.7440  139.0340 O   0  0  0  0  0  0  0  0  0  0  0  0
  189.9900  177.8400  136.7740 F   0  0  0  0  0  0  0  0  0  0  0  0
  189.3970  178.2540  137.9560 C   0  0  0  0  0  0  0  0  0  0  0  0
  190.2740  177.8030  141.4130 O   0  0  0  0  0  0  0  0  0  0  0  0
  189.4450  177.2480  142.4120 C   0  0  2  0  0  3  0  0  0  0  0  0
  189.4670  178.1170  143.6750 C   0  0  1  0  0  3  0  0  0  0  0  0
  191.2070  179.4060  144.1730 C   0  0  0  0  0  1  0  0  0  0  0  0
  190.0560  179.3510  143.3830 O   0  0  0  0  0  0  0  0  0  0  0  0
  188.1400  178.3350  144.1140 O   0  0  0  0  0  0  0  0  0  0  0  0
  189.0150  177.3590  146.1800 C   0  0  0  0  0  1  0  0  0  0  0  0
  187.5270  176.2570  144.7670 F   0  0  0  0  0  0  0  0  0  0  0  0
  187.8330  177.5210  145.2350 C   0  0  2  0  0  0  0  0  0  0  0  0
  186.6270  178.0500  146.0080 C   0  0  0  0  0  2  0  0  0  0  0  0
  183.0380  179.3660  145.2900 O   0  0  0  0  0  0  0  0  0  0  0  0
  185.6050  178.5580  145.1070 N   0  0  0  0  0  0  0  0  0  0  0  0
  184.1950  179.1060  144.8780 C   0  0  0  0  0  0  0  0  0  0  0  0
  185.1720  179.0880  143.8900 C   0  0  2  0  0  3  0  0  0  0  0  0
  184.8070  177.9900  142.9000 C   0  0  0  0  0  2  0  0  0  0  0  0
  185.3960  179.7490  141.4080 O   0  0  0  0  0  1  0  0  0  0  0  0
  184.7980  178.4920  141.4680 C   0  0  2  0  0  3  0  0  0  0  0  0
  183.1770  178.5750  139.7340 O   0  0  0  0  0  0  0  0  0  0  0  0
  183.3960  178.5760  140.9700 C   0  0  0  0  0  0  0  0  0  0  0  0
  182.3000  178.6190  141.8810 N   0  0  0  0  0  1  0  0  0  0  0  0
  189.9310  175.8310  142.7390 C   0  0  0  0  0  2  0  0  0  0  0  0
  191.4490  175.7230  142.8840 C   0  0  1  0  0  3  0  0  0  0  0  0
  192.0690  176.8930  142.4360 O   0  0  0  0  0  1  0  0  0  0  0  0
  191.8860  176.3560  145.2440 F   0  0  0  0  0  0  0  0  0  0  0  0
  192.2970  174.2180  144.5720 N   0  0  0  0  0  2  0  0  0  0  0  0
  191.8720  175.3930  144.2880 C   0  0  0  0  0  0  0  0  0  0  0  0
  187.8770  176.2230  137.7560 C   0  0  0  0  0  2  0  0  0  0  0  0
  187.9610  175.9390  136.3880 O   0  0  0  0  0  0  0  0  0  0  0  0
  187.2010  174.7790  136.2080 C   0  0  1  0  0  3  0  0  0  0  0  0
  185.7530  176.2590  134.8110 O   0  0  0  0  0  1  0  0  0  0  0  0
  185.8750  175.1150  135.5920 C   0  0  0  0  0  0  0  0  0  0  0  0
  184.8020  174.3470  135.7800 C   0  0  0  0  0  3  0  0  0  0  0  0
  184.7050  173.4530  137.9720 O   0  0  0  0  0  1  0  0  0  0  0  0
  184.7910  173.1070  136.6210 C   0  0  1  0  0  3  0  0  0  0  0  0
  183.4420  171.2000  137.2430 O   0  0  0  0  0  1  0  0  0  0  0  0
  183.6660  172.1420  136.2310 C   0  0  1  0  0  3  0  0  0  0  0  0
  182.3600  172.8090  135.8170 C   0  0  0  0  0  2  0  0  0  0  0  0
  181.3600  172.7400  136.8620 N   0  0  0  0  0  2  0  0  0  0  0  0
  180.7610  174.0650  136.9380 C   0  0  0  0  0  2  0  0  0  0  0  0
  180.7200  174.5360  138.3830 C   0  0  2  0  0  3  0  0  0  0  0  0
  179.5520  174.0750  139.0010 O   0  0  0  0  0  1  0  0  0  0  0  0
  180.7420  176.0550  138.3970 C   0  0  0  0  0  2  0  0  0  0  0  0
  180.1520  176.5840  139.6840 C   0  0  0  0  0  1  0  0  0  0  0  0
  188.8390  173.0410  136.1370 O   0  0  0  0  0  1  0  0  0  0  0  0
  187.9710  173.7920  135.3440 C   0  0  0  0  0  2  0  0  0  0  0  0
  1  6  1  6  0  0  0
  1  4  1  0  0  0  0
  4  3  1  0  0  0  0
  5  3  1  0  0  0  0
  5 10  1  1  0  0  0
  7  5  1  0  0  0  0
  8  9  1  0  0  0  0
  9  2  1  0  0  0  0
  9  1  1  0  0  0  0
  9  7  1  0  0  0  0
 10 11  1  0  0  0  0
 11 30  1  1  0  0  0
 11 12  1  0  0  0  0
 12 14  1  6  0  0  0
 12 15  1  0  0  0  0
 14 13  1  0  0  0  0
 15 18  1  0  0  0  0
 17 18  1  0  0  0  0
 18 19  1  0  0  0  0
 18 16  1  1  0  0  0
 21 19  1  0  0  0  0
 22 21  1  0  0  0  0
 22 20  2  0  0  0  0
 23 24  1  6  0  0  0
 23 22  1  0  0  0  0
 23 21  1  0  0  0  0
 26 25  1  1  0  0  0
 26 24  1  0  0  0  0
 27 28  2  0  0  0  0
 28 26  1  0  0  0  0
 28 29  1  0  0  0  0
 30 31  1  0  0  0  0
 31 32  1  1  0  0  0
 31 35  1  0  0  0  0
 35 34  2  0  0  0  0
 35 33  1  0  0  0  0
 36  1  1  0  0  0  0
 37 36  1  0  0  0  0
 38 54  1  6  0  0  0
 38 37  1  0  0  0  0
 39 40  1  0  0  0  0
 40 41  2  0  0  0  0
 40 38  1  0  0  0  0
 41 43  1  0  0  0  0
 43 42  1  1  0  0  0
 45 43  1  0  0  0  0
 45 44  1  1  0  0  0
 46 45  1  0  0  0  0
 46 47  1  0  0  0  0
 47 48  1  0  0  0  0
 48 49  1  0  0  0  0
 49 51  1  0  0  0  0
 49 50  1  6  0  0  0
 51 52  1  0  0  0  0
 54 53  1  0  0  0  0
M  END
>  <MODEL>
7

>  <REMARK>
 VINA RESULT:      -5.0      3.161      9.791
  Name = 
  26 active torsions:
  status: ('A' for Active; 'I' for Inactive)
    1  A    between atoms: C_1  and  C_28
    2  A    between atoms: C_1  and  CA_52
    3  A    between atoms: C_2  and  C_36
    4  A    between atoms: C_2  and  C_39
    5  A    between atoms: C_2  and  O_53
    6  A    between atoms: C_5  and  N_15
    7  A    between atoms: C_5  and  C_54
    8  A    between atoms: C_6  and  C_13
    9  A    between atoms: C_6  and  C_38
   10  A    between atoms: C_8  and  C_12
   11  A    between atoms: C_11  and  C_27
   12  A    between atoms: C_11  and  O_30
   13  A    between atoms: C_11  and  C_34
   14  A    between atoms: C_12  and  O_30
   15  A    between atoms: C_16  and  C_39
   16  A    between atoms: C_16  and  C_44
   17  A    between atoms: O_17  and  C_36
   18  A    between atoms: O_17  and  C_54
   19  A    between atoms: C_19  and  N_21
   20  A    between atoms: C_19  and  C_47
   21  A    between atoms: N_21  and  C_38
   22  A    between atoms: C_22  and  C_28
   23  A    between atoms: C_23  and  O_53
   24  A    between atoms: O_33  and  C_36
   25  A    between atoms: C_47  and  C_48
   26  A    between atoms: C_48  and  C_50
                            x       y       z     vdW  Elec       q    Type
                         _______ _______ _______ _____ _____    ______ ____

>  <TORSDO>
F 26

$$$$
=
 OpenBabel11062412473D

 54 55  0  0  1  0  0  0  0  0999 V2000
  183.9000  178.6400  142.6660 C   0  0  1  0  0  0  0  0  0  0  0  0
  185.9750  178.8040  143.9000 F   0  0  0  0  0  0  0  0  0  0  0  0
  185.0160  177.8960  140.7710 C   0  0  0  0  0  2  0  0  0  0  0  0
  184.2900  177.4980  141.9150 O   0  0  0  0  0  0  0  0  0  0  0  0
  186.2470  178.6940  141.1870 C   0  0  2  0  0  3  0  0  0  0  0  0
  183.2500  178.1540  143.9560 C   0  0  0  0  0  1  0  0  0  0  0  0
  185.8640  179.8710  141.8790 O   0  0  0  0  0  0  0  0  0  0  0  0
  184.7320  180.6570  143.6790 F   0  0  0  0  0  0  0  0  0  0  0  0
  185.1420  179.5010  143.0350 C   0  0  0  0  0  0  0  0  0  0  0  0
  187.1130  178.9200  140.0850 O   0  0  0  0  0  0  0  0  0  0  0  0
  187.2460  177.7570  139.2960 C   0  0  2  0  0  3  0  0  0  0  0  0
  188.6810  177.2210  139.3630 C   0  0  1  0  0  3  0  0  0  0  0  0
  189.8940  175.9760  137.9790 C   0  0  0  0  0  1  0  0  0  0  0  0
  189.2330  177.2030  138.0780 O   0  0  0  0  0  0  0  0  0  0  0  0
  189.4590  178.0730  140.1830 O   0  0  0  0  0  0  0  0  0  0  0  0
  191.3520  177.8610  141.7190 C   0  0  0  0  0  1  0  0  0  0  0  0
  190.1140  176.0450  140.9460 F   0  0  0  0  0  0  0  0  0  0  0  0
  189.9700  177.3720  141.3050 C   0  0  2  0  0  0  0  0  0  0  0  0
  189.0220  177.4450  142.5010 C   0  0  0  0  0  2  0  0  0  0  0  0
  191.2910  180.0350  144.3100 O   0  0  0  0  0  0  0  0  0  0  0  0
  189.7050  177.9450  143.6840 N   0  0  0  0  0  0  0  0  0  0  0  0
  190.5700  179.0100  144.3630 C   0  0  0  0  0  0  0  0  0  0  0  0
  189.9490  177.9780  145.0580 C   0  0  2  0  0  3  0  0  0  0  0  0
  191.0260  176.9780  145.4590 C   0  0  0  0  0  2  0  0  0  0  0  0
  189.6040  176.9100  147.3670 O   0  0  0  0  0  1  0  0  0  0  0  0
  190.7150  176.3050  146.7830 C   0  0  2  0  0  3  0  0  0  0  0  0
  192.0150  177.4310  148.4190 O   0  0  0  0  0  0  0  0  0  0  0  0
  191.8880  176.4140  147.6940 C   0  0  0  0  0  0  0  0  0  0  0  0
  192.8480  175.3630  147.7780 N   0  0  0  0  0  1  0  0  0  0  0  0
  186.8750  178.0890  137.8450 C   0  0  0  0  0  2  0  0  0  0  0  0
  185.9180  177.0800  137.2120 C   0  0  1  0  0  3  0  0  0  0  0  0
  184.5930  177.3920  137.5340 O   0  0  0  0  0  1  0  0  0  0  0  0
  185.9690  175.7670  135.1060 F   0  0  0  0  0  0  0  0  0  0  0  0
  186.4540  177.9920  135.0410 N   0  0  0  0  0  2  0  0  0  0  0  0
  186.0980  176.9690  135.7250 C   0  0  0  0  0  0  0  0  0  0  0  0
  182.8670  179.4810  141.8950 C   0  0  0  0  0  2  0  0  0  0  0  0
  181.5640  179.1940  142.3190 O   0  0  0  0  0  0  0  0  0  0  0  0
  180.8190  179.0610  141.1440 C   0  0  1  0  0  3  0  0  0  0  0  0
  178.9440  177.7120  142.0970 O   0  0  0  0  0  1  0  0  0  0  0  0
  179.9940  177.8080  141.1900 C   0  0  0  0  0  0  0  0  0  0  0  0
  180.2470  176.7740  140.3860 C   0  0  0  0  0  3  0  0  0  0  0  0
  182.4380  176.0150  139.9080 O   0  0  0  0  0  1  0  0  0  0  0  0
  181.3620  176.7380  139.3870 C   0  0  1  0  0  3  0  0  0  0  0  0
  181.3540  176.9830  136.9830 O   0  0  0  0  0  1  0  0  0  0  0  0
  180.9230  176.1660  138.0350 C   0  0  1  0  0  3  0  0  0  0  0  0
  181.3190  174.7150  137.7900 C   0  0  0  0  0  2  0  0  0  0  0  0
  182.7270  174.5840  137.4770 N   0  0  0  0  0  2  0  0  0  0  0  0
  182.8120  173.6220  136.3880 C   0  0  0  0  0  2  0  0  0  0  0  0
  183.9410  172.6370  136.6500 C   0  0  2  0  0  3  0  0  0  0  0  0
  183.4320  171.4760  137.2400 O   0  0  0  0  0  1  0  0  0  0  0  0
  184.9440  173.2910  137.5870 C   0  0  0  0  0  2  0  0  0  0  0  0
  186.3540  173.0880  137.0840 C   0  0  0  0  0  1  0  0  0  0  0  0
  179.7370  180.9230  142.1780 O   0  0  0  0  0  1  0  0  0  0  0  0
  179.9400  180.2870  140.9530 C   0  0  0  0  0  2  0  0  0  0  0  0
  1  9  1  0  0  0  0
  1  6  1  1  0  0  0
  3  5  1  0  0  0  0
  3  4  1  0  0  0  0
  4  1  1  0  0  0  0
  5 10  1  6  0  0  0
  5  7  1  0  0  0  0
  7  9  1  0  0  0  0
  9  8  1  0  0  0  0
  9  2  1  0  0  0  0
 11 30  1  6  0  0  0
 11 12  1  0  0  0  0
 11 10  1  0  0  0  0
 12 14  1  6  0  0  0
 12 15  1  0  0  0  0
 13 14  1  0  0  0  0
 15 18  1  0  0  0  0
 17 18  1  0  0  0  0
 18 16  1  1  0  0  0
 18 19  1  0  0  0  0
 19 21  1  0  0  0  0
 20 22  2  0  0  0  0
 21 22  1  0  0  0  0
 21 23  1  0  0  0  0
 22 23  1  0  0  0  0
 23 24  1  6  0  0  0
 24 26  1  0  0  0  0
 26 25  1  1  0  0  0
 26 28  1  0  0  0  0
 28 29  1  0  0  0  0
 28 27  2  0  0  0  0
 31 32  1  6  0  0  0
 31 30  1  0  0  0  0
 33 35  1  0  0  0  0
 34 35  2  0  0  0  0
 35 31  1  0  0  0  0
 36 37  1  0  0  0  0
 36  1  1  0  0  0  0
 38 54  1  1  0  0  0
 38 40  1  0  0  0  0
 38 37  1  0  0  0  0
 40 39  1  0  0  0  0
 41 40  2  0  0  0  0
 43 42  1  1  0  0  0
 43 41  1  0  0  0  0
 45 44  1  6  0  0  0
 45 43  1  0  0  0  0
 46 45  1  0  0  0  0
 47 46  1  0  0  0  0
 48 49  1  0  0  0  0
 48 47  1  0  0  0  0
 49 50  1  1  0  0  0
 49 51  1  0  0  0  0
 52 51  1  0  0  0  0
 54 53  1  0  0  0  0
M  END
>  <MODEL>
8

>  <REMARK>
 VINA RESULT:      -4.9      2.555      8.523
  Name = 
  26 active torsions:
  status: ('A' for Active; 'I' for Inactive)
    1  A    between atoms: C_1  and  C_28
    2  A    between atoms: C_1  and  CA_52
    3  A    between atoms: C_2  and  C_36
    4  A    between atoms: C_2  and  C_39
    5  A    between atoms: C_2  and  O_53
    6  A    between atoms: C_5  and  N_15
    7  A    between atoms: C_5  and  C_54
    8  A    between atoms: C_6  and  C_13
    9  A    between atoms: C_6  and  C_38
   10  A    between atoms: C_8  and  C_12
   11  A    between atoms: C_11  and  C_27
   12  A    between atoms: C_11  and  O_30
   13  A    between atoms: C_11  and  C_34
   14  A    between atoms: C_12  and  O_30
   15  A    between atoms: C_16  and  C_39
   16  A    between atoms: C_16  and  C_44
   17  A    between atoms: O_17  and  C_36
   18  A    between atoms: O_17  and  C_54
   19  A    between atoms: C_19  and  N_21
   20  A    between atoms: C_19  and  C_47
   21  A    between atoms: N_21  and  C_38
   22  A    between atoms: C_22  and  C_28
   23  A    between atoms: C_23  and  O_53
   24  A    between atoms: O_33  and  C_36
   25  A    between atoms: C_47  and  C_48
   26  A    between atoms: C_48  and  C_50
                            x       y       z     vdW  Elec       q    Type
                         _______ _______ _______ _____ _____    ______ ____

>  <TORSDO>
F 26

$$$$
=
 OpenBabel11062412473D

 54 55  0  0  1  0  0  0  0  0999 V2000
  184.3380  179.0980  142.9180 C   0  0  1  0  0  0  0  0  0  0  0  0
  182.1150  179.7860  142.2550 F   0  0  0  0  0  0  0  0  0  0  0  0
  185.0010  178.8940  140.7020 C   0  0  0  0  0  2  0  0  0  0  0  0
  184.9970  179.7380  141.8340 O   0  0  0  0  0  0  0  0  0  0  0  0
  183.5700  178.5400  140.3110 C   0  0  2  0  0  3  0  0  0  0  0  0
  184.2350  180.1000  144.0610 C   0  0  0  0  0  1  0  0  0  0  0  0
  182.9270  177.8420  141.3620 O   0  0  0  0  0  0  0  0  0  0  0  0
  182.3130  177.9600  143.5420 F   0  0  0  0  0  0  0  0  0  0  0  0
  182.9010  178.6690  142.5070 C   0  0  0  0  0  0  0  0  0  0  0  0
  183.5260  177.8780  139.0560 O   0  0  0  0  0  0  0  0  0  0  0  0
  182.2060  177.5030  138.7250 C   0  0  2  0  0  3  0  0  0  0  0  0
  182.1700  176.0620  138.2010 C   0  0  1  0  0  3  0  0  0  0  0  0
  180.8120  175.5370  139.8790 C   0  0  0  0  0  1  0  0  0  0  0  0
  180.9250  175.4930  138.4870 O   0  0  0  0  0  0  0  0  0  0  0  0
  182.3580  176.0710  136.7980 O   0  0  0  0  0  0  0  0  0  0  0  0
  181.9410  173.8840  135.7830 C   0  0  0  0  0  1  0  0  0  0  0  0
  183.5220  174.2450  137.4550 F   0  0  0  0  0  0  0  0  0  0  0  0
  182.9570  174.8630  136.3570 C   0  0  2  0  0  0  0  0  0  0  0  0
  184.0590  175.1170  135.3300 C   0  0  0  0  0  2  0  0  0  0  0  0
  187.1930  173.8510  137.2550 O   0  0  0  0  0  0  0  0  0  0  0  0
  185.3410  175.3410  135.9800 N   0  0  0  0  0  0  0  0  0  0  0  0
  186.5740  174.7910  136.7010 C   0  0  0  0  0  0  0  0  0  0  0  0
  186.4670  176.1110  136.2760 C   0  0  2  0  0  3  0  0  0  0  0  0
  186.2440  176.9760  137.5100 C   0  0  0  0  0  2  0  0  0  0  0  0
  187.0210  178.6810  136.0410 O   0  0  0  0  0  1  0  0  0  0  0  0
  186.9150  178.3320  137.3860 C   0  0  2  0  0  3  0  0  0  0  0  0
  189.1150  179.1650  137.7110 O   0  0  0  0  0  0  0  0  0  0  0  0
  188.2700  178.2830  138.0030 C   0  0  0  0  0  0  0  0  0  0  0  0
  188.6060  177.2690  138.9480 N   0  0  0  0  0  1  0  0  0  0  0  0
  181.6620  178.4630  137.6600 C   0  0  0  0  0  2  0  0  0  0  0  0
  180.5750  179.4030  138.1820 C   0  0  1  0  0  3  0  0  0  0  0  0
  179.8460  178.7890  139.2050 O   0  0  0  0  0  1  0  0  0  0  0  0
  182.4060  181.0700  138.3460 F   0  0  0  0  0  0  0  0  0  0  0  0
  180.4110  181.5060  139.3590 N   0  0  0  0  0  2  0  0  0  0  0  0
  181.1240  180.7270  138.6330 C   0  0  0  0  0  0  0  0  0  0  0  0
  185.1450  177.8850  143.4150 C   0  0  0  0  0  2  0  0  0  0  0  0
  185.9730  178.2330  144.4880 O   0  0  0  0  0  0  0  0  0  0  0  0
  187.2740  178.1690  143.9810 C   0  0  1  0  0  3  0  0  0  0  0  0
  187.7850  177.4650  146.3230 O   0  0  0  0  0  1  0  0  0  0  0  0
  188.2510  177.9030  145.0880 C   0  0  0  0  0  0  0  0  0  0  0  0
  189.5620  178.0830  144.9220 C   0  0  0  0  0  3  0  0  0  0  0  0
  191.3150  179.3500  143.9560 O   0  0  0  0  0  1  0  0  0  0  0  0
  190.1910  178.5760  143.6550 C   0  0  1  0  0  3  0  0  0  0  0  0
  190.7300  177.9200  141.3920 O   0  0  0  0  0  1  0  0  0  0  0  0
  190.5520  177.4380  142.6950 C   0  0  1  0  0  3  0  0  0  0  0  0
  191.7420  176.5880  143.1230 C   0  0  0  0  0  2  0  0  0  0  0  0
  191.3340  175.4290  143.8880 N   0  0  0  0  0  2  0  0  0  0  0  0
  192.2830  175.3130  144.9860 C   0  0  0  0  0  2  0  0  0  0  0  0
  191.6800  175.8880  146.2580 C   0  0  2  0  0  3  0  0  0  0  0  0
  192.0630  177.2260  146.4030 O   0  0  0  0  0  1  0  0  0  0  0  0
  192.1860  175.0800  147.4420 C   0  0  0  0  0  2  0  0  0  0  0  0
  192.8050  175.9870  148.4800 C   0  0  0  0  0  1  0  0  0  0  0  0
  187.8150  175.8990  143.4670 O   0  0  0  0  0  1  0  0  0  0  0  0
  187.3540  177.0920  142.9100 C   0  0  0  0  0  2  0  0  0  0  0  0
  1 36  1  0  0  0  0
  1  6  1  1  0  0  0
  2  9  1  0  0  0  0
  3  4  1  0  0  0  0
  4  1  1  0  0  0  0
  5 10  1  6  0  0  0
  5  3  1  0  0  0  0
  5  7  1  0  0  0  0
  7  9  1  0  0  0  0
  9  1  1  0  0  0  0
  9  8  1  0  0  0  0
 11 30  1  6  0  0  0
 11 10  1  0  0  0  0
 12 15  1  6  0  0  0
 12 14  1  0  0  0  0
 12 11  1  0  0  0  0
 14 13  1  0  0  0  0
 18 16  1  6  0  0  0
 18 15  1  0  0  0  0
 18 17  1  0  0  0  0
 19 21  1  0  0  0  0
 19 18  1  0  0  0  0
 21 23  1  0  0  0  0
 21 22  1  0  0  0  0
 22 20  2  0  0  0  0
 23 22  1  0  0  0  0
 23 24  1  1  0  0  0
 26 25  1  6  0  0  0
 26 24  1  0  0  0  0
 26 28  1  0  0  0  0
 27 28  2  0  0  0  0
 28 29  1  0  0  0  0
 30 31  1  0  0  0  0
 31 35  1  0  0  0  0
 31 32  1  1  0  0  0
 33 35  1  0  0  0  0
 35 34  2  0  0  0  0
 36 37  1  0  0  0  0
 38 54  1  6  0  0  0
 38 37  1  0  0  0  0
 38 40  1  0  0  0  0
 40 39  1  0  0  0  0
 41 40  2  0  0  0  0
 43 42  1  1  0  0  0
 43 41  1  0  0  0  0
 45 44  1  6  0  0  0
 45 46  1  0  0  0  0
 45 43  1  0  0  0  0
 46 47  1  0  0  0  0
 47 48  1  0  0  0  0
 48 49  1  0  0  0  0
 49 50  1  1  0  0  0
 49 51  1  0  0  0  0
 51 52  1  0  0  0  0
 54 53  1  0  0  0  0
M  END
>  <MODEL>
9

>  <REMARK>
 VINA RESULT:      -4.8      2.176      3.321
  Name = 
  26 active torsions:
  status: ('A' for Active; 'I' for Inactive)
    1  A    between atoms: C_1  and  C_28
    2  A    between atoms: C_1  and  CA_52
    3  A    between atoms: C_2  and  C_36
    4  A    between atoms: C_2  and  C_39
    5  A    between atoms: C_2  and  O_53
    6  A    between atoms: C_5  and  N_15
    7  A    between atoms: C_5  and  C_54
    8  A    between atoms: C_6  and  C_13
    9  A    between atoms: C_6  and  C_38
   10  A    between atoms: C_8  and  C_12
   11  A    between atoms: C_11  and  C_27
   12  A    between atoms: C_11  and  O_30
   13  A    between atoms: C_11  and  C_34
   14  A    between atoms: C_12  and  O_30
   15  A    between atoms: C_16  and  C_39
   16  A    between atoms: C_16  and  C_44
   17  A    between atoms: O_17  and  C_36
   18  A    between atoms: O_17  and  C_54
   19  A    between atoms: C_19  and  N_21
   20  A    between atoms: C_19  and  C_47
   21  A    between atoms: N_21  and  C_38
   22  A    between atoms: C_22  and  C_28
   23  A    between atoms: C_23  and  O_53
   24  A    between atoms: O_33  and  C_36
   25  A    between atoms: C_47  and  C_48
   26  A    between atoms: C_48  and  C_50
                            x       y       z     vdW  Elec       q    Type
                         _______ _______ _______ _____ _____    ______ ____

>  <TORSDO>
F 26

$$$$
