=
 OpenBabel11062417253D

 45 50  0  0  1  0  0  0  0  0999 V2000
  185.3410  178.8470  144.7360 C   0  0  0  0  0  3  0  0  0  0  0  0
  186.7500  178.4250  146.6100 N   0  0  0  0  0  0  0  0  0  0  0  0
  187.2280  177.3340  144.5280 C   0  0  0  0  0  0  0  0  0  0  0  0
  188.6800  177.0010  146.4910 N   0  0  0  0  0  1  0  0  0  0  0  0
  185.6660  179.0440  146.0750 C   0  0  0  0  0  3  0  0  0  0  0  0
  186.1330  178.0050  143.9410 C   0  0  0  0  0  0  0  0  0  0  0  0
  187.5340  177.5870  145.8790 C   0  0  0  0  0  0  0  0  0  0  0  0
  188.0880  176.3970  143.7120 C   0  0  0  0  0  2  0  0  0  0  0  0
  189.4660  178.4970  143.4970 C   0  0  0  0  0  1  0  0  0  0  0  0
  190.5300  176.2740  143.4610 C   0  0  0  0  0  1  0  0  0  0  0  0
  189.2990  177.0550  143.0320 C   0  0  0  0  0  0  0  0  0  0  0  0
  189.1430  176.9900  141.5050 C   0  0  0  0  0  2  0  0  0  0  0  0
  188.7430  178.3190  140.8670 C   0  0  0  0  0  2  0  0  0  0  0  0
  188.8640  178.2220  139.3550 C   0  0  0  0  0  2  0  0  0  0  0  0
  189.4710  175.2730  137.1140 C   0  0  0  0  0  2  0  0  0  0  0  0
  188.5960  176.1530  138.0000 C   0  0  0  0  0  2  0  0  0  0  0  0
  191.4170  175.9000  138.1990 C   0  0  1  0  0  3  0  0  0  0  0  0
  190.7450  177.1450  138.3380 O   0  0  0  0  0  0  0  0  0  0  0  0
  190.5770  174.8040  137.8470 O   0  0  0  0  0  0  0  0  0  0  0  0
  189.5070  176.9080  138.9590 C   0  0  1  0  0  3  0  0  0  0  0  0
  192.4460  176.0220  137.2630 O   0  0  0  0  0  0  0  0  0  0  0  0
  193.6080  175.6660  137.9530 C   0  0  0  0  0  2  0  0  0  0  0  0
  194.2810  174.4920  137.2590 C   0  0  0  0  0  2  0  0  0  0  0  0
  194.8170  173.5040  138.2820 C   0  0  0  0  0  3  0  0  0  0  0  0
  195.9000  174.1820  139.0910 C   0  0  0  0  0  2  0  0  0  0  0  0
  196.2760  173.2100  137.9940 C   0  0  0  0  0  2  0  0  0  0  0  0
  185.8050  177.7870  142.4830 C   0  0  0  0  0  2  0  0  0  0  0  0
  184.4730  178.3750  142.0370 C   0  0  0  0  0  2  0  0  0  0  0  0
  184.6220  179.0050  140.6600 C   0  0  0  0  0  2  0  0  0  0  0  0
  183.3940  178.7760  139.7480 C   0  0  2  0  0  0  0  0  0  0  0  0
  181.1040  179.4810  141.9550 O   0  0  0  0  0  0  0  0  0  0  0  0
  179.6120  177.1770  139.7330 C   0  0  0  0  0  2  0  0  0  0  0  0
  181.0800  178.7420  140.9820 C   0  0  0  0  0  0  0  0  0  0  0  0
  183.3410  176.4290  139.0970 C   0  0  1  0  0  3  0  0  0  0  0  0
  185.0930  177.8020  137.9680 C   0  0  0  0  0  2  0  0  0  0  0  0
  180.8330  176.7060  138.9580 C   0  0  0  0  0  2  0  0  0  0  0  0
  182.0610  176.6450  139.8810 C   0  0  2  0  0  3  0  0  0  0  0  0
  184.6620  175.4080  137.2580 C   0  0  0  0  0  2  0  0  0  0  0  0
  183.2880  175.4410  137.9320 C   0  0  0  0  0  2  0  0  0  0  0  0
  179.8170  178.6190  140.1860 C   0  0  0  0  0  2  0  0  0  0  0  0
  185.0950  176.8090  136.8030 C   0  0  0  0  0  2  0  0  0  0  0  0
  182.3300  177.9980  140.5710 C   0  0  1  0  0  3  0  0  0  0  0  0
  183.7030  177.8050  138.5990 C   0  0  2  0  0  3  0  0  0  0  0  0
  182.8840  179.9690  139.1790 O   0  0  0  0  0  0  0  0  0  0  0  0
  183.9010  180.7810  138.9440 O   0  0  0  0  0  1  0  0  0  0  0  0
  1  5  1  0  0  0  0
  3  7  2  0  0  0  0
  5  2  2  0  0  0  0
  6  3  1  0  0  0  0
  6  1  2  0  0  0  0
  7  4  1  0  0  0  0
  7  2  1  0  0  0  0
  8  3  1  0  0  0  0
 11 10  1  0  0  0  0
 11  9  1  0  0  0  0
 11  8  1  0  0  0  0
 12 11  1  0  0  0  0
 13 12  1  0  0  0  0
 14 13  1  0  0  0  0
 15 19  1  0  0  0  0
 15 16  1  0  0  0  0
 16 20  1  0  0  0  0
 17 21  1  6  0  0  0
 17 18  1  0  0  0  0
 18 20  1  0  0  0  0
 19 17  1  0  0  0  0
 20 14  1  6  0  0  0
 21 22  1  0  0  0  0
 23 22  1  0  0  0  0
 23 24  1  0  0  0  0
 24 25  1  0  0  0  0
 26 24  1  0  0  0  0
 26 25  1  0  0  0  0
 27  6  1  0  0  0  0
 28 27  1  0  0  0  0
 29 28  1  0  0  0  0
 30 42  1  0  0  0  0
 30 29  1  1  0  0  0
 32 40  1  0  0  0  0
 33 31  2  0  0  0  0
 34 39  1  6  0  0  0
 34 37  1  0  0  0  0
 36 32  1  0  0  0  0
 37 36  1  6  0  0  0
 37 42  1  0  0  0  0
 38 39  1  0  0  0  0
 40 33  1  0  0  0  0
 41 38  1  0  0  0  0
 41 35  1  0  0  0  0
 42 33  1  6  0  0  0
 43 35  1  1  0  0  0
 43 34  1  0  0  0  0
 43 30  1  0  0  0  0
 44 30  1  0  0  0  0
 45 44  1  0  0  0  0
M  END
>  <MODEL>
1

>  <REMARK>
 VINA RESULT:      -8.0      0.000      0.000
  Name = 
  15 active torsions:
  status: ('A' for Active; 'I' for Inactive)
    1  A    between atoms: C_3  and  C_5
    2  A    between atoms: C_5  and  C_20
    3  A    between atoms: C_6  and  O_27
    4  A    between atoms: C_6  and  C_30
    5  A    between atoms: C_10  and  C_20
    6  A    between atoms: C_10  and  C_41
    7  A    between atoms: C_16  and  C_39
    8  A    between atoms: C_23  and  C_30
    9  A    between atoms: C_23  and  C_31
   10  A    between atoms: C_24  and  O_35
   11  A    between atoms: C_28  and  C_41
   12  A    between atoms: C_28  and  C_42
   13  A    between atoms: C_31  and  C_34
   14  A    between atoms: O_35  and  C_38
   15  A    between atoms: C_38  and  C_39
                            x       y       z     vdW  Elec       q    Type
                         _______ _______ _______ _____ _____    ______ ____

>  <TORSDO>
F 15

$$$$
=
 OpenBabel11062417253D

 45 50  0  0  1  0  0  0  0  0999 V2000
  185.8140  178.3510  145.2440 C   0  0  0  0  0  3  0  0  0  0  0  0
  187.3130  178.1230  147.0830 N   0  0  0  0  0  0  0  0  0  0  0  0
  187.9320  177.2010  144.9570 C   0  0  0  0  0  0  0  0  0  0  0  0
  189.4590  177.0640  146.8860 N   0  0  0  0  0  1  0  0  0  0  0  0
  186.1270  178.5590  146.5850 C   0  0  0  0  0  3  0  0  0  0  0  0
  186.7260  177.6880  144.4090 C   0  0  0  0  0  0  0  0  0  0  0  0
  188.2170  177.4600  146.3120 C   0  0  0  0  0  0  0  0  0  0  0  0
  188.9270  176.4560  144.0960 C   0  0  0  0  0  2  0  0  0  0  0  0
  190.1860  178.6380  144.1770 C   0  0  0  0  0  1  0  0  0  0  0  0
  191.2860  176.5690  143.4150 C   0  0  0  0  0  1  0  0  0  0  0  0
  189.9770  177.3410  143.4060 C   0  0  0  0  0  0  0  0  0  0  0  0
  189.5490  177.6300  141.9590 C   0  0  0  0  0  2  0  0  0  0  0  0
  190.1790  176.6950  140.9280 C   0  0  0  0  0  2  0  0  0  0  0  0
  190.9870  177.5010  139.9240 C   0  0  0  0  0  2  0  0  0  0  0  0
  192.7040  175.1950  137.5110 C   0  0  0  0  0  2  0  0  0  0  0  0
  192.6050  176.4710  138.3400 C   0  0  0  0  0  2  0  0  0  0  0  0
  190.4050  174.9340  137.4090 C   0  0  1  0  0  3  0  0  0  0  0  0
  190.4470  175.5100  138.7090 O   0  0  0  0  0  0  0  0  0  0  0  0
  191.5970  175.0980  136.6460 O   0  0  0  0  0  0  0  0  0  0  0  0
  191.1320  176.7330  138.6250 C   0  0  1  0  0  3  0  0  0  0  0  0
  190.0930  173.5760  137.5050 O   0  0  0  0  0  0  0  0  0  0  0  0
  189.0690  173.3750  136.5750 C   0  0  0  0  0  2  0  0  0  0  0  0
  187.8830  172.7050  137.2500 C   0  0  0  0  0  2  0  0  0  0  0  0
  186.5920  173.4230  136.8960 C   0  0  0  0  0  3  0  0  0  0  0  0
  185.4910  172.9200  137.8010 C   0  0  0  0  0  2  0  0  0  0  0  0
  185.5770  172.4260  136.3750 C   0  0  0  0  0  2  0  0  0  0  0  0
  186.4120  177.4630  142.9490 C   0  0  0  0  0  2  0  0  0  0  0  0
  185.9670  178.7100  142.1960 C   0  0  0  0  0  2  0  0  0  0  0  0
  185.9750  178.4380  140.6980 C   0  0  0  0  0  2  0  0  0  0  0  0
  184.6150  178.7250  140.0190 C   0  0  2  0  0  0  0  0  0  0  0  0
  182.8450  179.0050  142.7390 O   0  0  0  0  0  0  0  0  0  0  0  0
  180.6120  177.8430  140.2620 C   0  0  0  0  0  2  0  0  0  0  0  0
  182.5340  178.6470  141.6130 C   0  0  0  0  0  0  0  0  0  0  0  0
  183.9760  176.7700  138.7130 C   0  0  1  0  0  3  0  0  0  0  0  0
  185.8130  178.1450  137.7320 C   0  0  0  0  0  2  0  0  0  0  0  0
  181.5900  177.4710  139.1580 C   0  0  0  0  0  2  0  0  0  0  0  0
  182.8890  176.9110  139.7600 C   0  0  2  0  0  3  0  0  0  0  0  0
  184.7900  176.2270  136.4310 C   0  0  0  0  0  2  0  0  0  0  0  0
  183.5590  176.2490  137.3380 C   0  0  0  0  0  2  0  0  0  0  0  0
  181.1790  178.9990  141.0810 C   0  0  0  0  0  2  0  0  0  0  0  0
  185.4480  177.6120  136.3440 C   0  0  0  0  0  2  0  0  0  0  0  0
  183.5300  177.8950  140.7600 C   0  0  1  0  0  3  0  0  0  0  0  0
  184.5540  178.1570  138.5930 C   0  0  2  0  0  3  0  0  0  0  0  0
  184.2990  180.1040  139.9490 O   0  0  0  0  0  0  0  0  0  0  0  0
  184.1850  180.4350  138.6730 O   0  0  0  0  0  1  0  0  0  0  0  0
  1  5  1  0  0  0  0
  3  7  2  0  0  0  0
  5  2  2  0  0  0  0
  6  3  1  0  0  0  0
  6  1  2  0  0  0  0
  7  4  1  0  0  0  0
  7  2  1  0  0  0  0
  8  3  1  0  0  0  0
 11 10  1  0  0  0  0
 11  8  1  0  0  0  0
 11  9  1  0  0  0  0
 12 11  1  0  0  0  0
 13 12  1  0  0  0  0
 14 13  1  0  0  0  0
 15 16  1  0  0  0  0
 16 20  1  0  0  0  0
 17 21  1  1  0  0  0
 17 18  1  0  0  0  0
 19 17  1  0  0  0  0
 19 15  1  0  0  0  0
 20 18  1  0  0  0  0
 20 14  1  1  0  0  0
 22 23  1  0  0  0  0
 22 21  1  0  0  0  0
 24 23  1  0  0  0  0
 24 25  1  0  0  0  0
 26 24  1  0  0  0  0
 26 25  1  0  0  0  0
 27  6  1  0  0  0  0
 28 27  1  0  0  0  0
 29 28  1  0  0  0  0
 30 29  1  1  0  0  0
 30 42  1  0  0  0  0
 32 40  1  0  0  0  0
 33 31  2  0  0  0  0
 34 39  1  6  0  0  0
 34 37  1  0  0  0  0
 36 32  1  0  0  0  0
 37 36  1  6  0  0  0
 37 42  1  0  0  0  0
 38 39  1  0  0  0  0
 40 33  1  0  0  0  0
 41 38  1  0  0  0  0
 41 35  1  0  0  0  0
 42 33  1  6  0  0  0
 43 35  1  1  0  0  0
 43 34  1  0  0  0  0
 43 30  1  0  0  0  0
 44 30  1  0  0  0  0
 45 44  1  0  0  0  0
M  END
>  <MODEL>
2

>  <REMARK>
 VINA RESULT:      -7.9      1.478      3.227
  Name = 
  15 active torsions:
  status: ('A' for Active; 'I' for Inactive)
    1  A    between atoms: C_3  and  C_5
    2  A    between atoms: C_5  and  C_20
    3  A    between atoms: C_6  and  O_27
    4  A    between atoms: C_6  and  C_30
    5  A    between atoms: C_10  and  C_20
    6  A    between atoms: C_10  and  C_41
    7  A    between atoms: C_16  and  C_39
    8  A    between atoms: C_23  and  C_30
    9  A    between atoms: C_23  and  C_31
   10  A    between atoms: C_24  and  O_35
   11  A    between atoms: C_28  and  C_41
   12  A    between atoms: C_28  and  C_42
   13  A    between atoms: C_31  and  C_34
   14  A    between atoms: O_35  and  C_38
   15  A    between atoms: C_38  and  C_39
                            x       y       z     vdW  Elec       q    Type
                         _______ _______ _______ _____ _____    ______ ____

>  <TORSDO>
F 15

$$$$
=
 OpenBabel11062417253D

 45 50  0  0  1  0  0  0  0  0999 V2000
  183.0730  179.0280  143.2040 C   0  0  0  0  0  3  0  0  0  0  0  0
  180.8350  178.8190  142.4110 N   0  0  0  0  0  0  0  0  0  0  0  0
  182.6360  178.0370  141.0320 C   0  0  0  0  0  0  0  0  0  0  0  0
  180.2920  177.7930  140.3090 N   0  0  0  0  0  1  0  0  0  0  0  0
  181.7050  179.2260  143.3720 C   0  0  0  0  0  3  0  0  0  0  0  0
  183.5520  178.4100  142.0390 C   0  0  0  0  0  0  0  0  0  0  0  0
  181.2590  178.2330  141.2590 C   0  0  0  0  0  0  0  0  0  0  0  0
  183.1150  177.3950  139.7500 C   0  0  0  0  0  2  0  0  0  0  0  0
  183.0590  179.8040  139.0110 C   0  0  0  0  0  1  0  0  0  0  0  0
  184.8580  178.2930  138.2690 C   0  0  0  0  0  1  0  0  0  0  0  0
  183.3770  178.3730  138.5940 C   0  0  0  0  0  0  0  0  0  0  0  0
  182.5480  177.9670  137.3660 C   0  0  0  0  0  2  0  0  0  0  0  0
  183.2960  177.0680  136.3830 C   0  0  0  0  0  2  0  0  0  0  0  0
  182.8730  175.6220  136.5800 C   0  0  0  0  0  2  0  0  0  0  0  0
  184.9430  172.5400  137.1350 C   0  0  0  0  0  2  0  0  0  0  0  0
  183.6450  173.3390  137.1960 C   0  0  0  0  0  2  0  0  0  0  0  0
  186.2610  174.4430  137.1940 C   0  0  1  0  0  3  0  0  0  0  0  0
  185.1850  175.0130  136.4600 O   0  0  0  0  0  0  0  0  0  0  0  0
  185.9530  173.2140  137.8470 O   0  0  0  0  0  0  0  0  0  0  0  0
  184.0030  174.8190  137.1930 C   0  0  1  0  0  3  0  0  0  0  0  0
  187.3620  174.2640  136.3530 O   0  0  0  0  0  0  0  0  0  0  0  0
  188.3980  174.9840  136.9560 C   0  0  0  0  0  2  0  0  0  0  0  0
  187.8600  176.2920  137.5140 C   0  0  0  0  0  2  0  0  0  0  0  0
  188.2780  177.4580  136.6340 C   0  0  0  0  0  3  0  0  0  0  0  0
  189.7520  177.7210  136.8430 C   0  0  0  0  0  2  0  0  0  0  0  0
  188.7270  178.6180  137.5010 C   0  0  0  0  0  2  0  0  0  0  0  0
  185.0310  178.1750  141.8420 C   0  0  0  0  0  2  0  0  0  0  0  0
  185.8740  178.3550  143.0970 C   0  0  0  0  0  2  0  0  0  0  0  0
  187.3360  178.5420  142.7130 C   0  0  0  0  0  2  0  0  0  0  0  0
  188.2730  177.4880  143.3490 C   0  0  2  0  0  0  0  0  0  0  0  0
  187.5450  178.1120  146.4620 O   0  0  0  0  0  0  0  0  0  0  0  0
  190.8680  176.9160  146.4790 C   0  0  0  0  0  2  0  0  0  0  0  0
  188.5660  177.6800  145.9480 C   0  0  0  0  0  0  0  0  0  0  0  0
  190.5750  178.0810  142.8150 C   0  0  1  0  0  3  0  0  0  0  0  0
  189.2580  177.1300  140.9190 C   0  0  0  0  0  2  0  0  0  0  0  0
  191.1850  176.9510  144.9910 C   0  0  0  0  0  2  0  0  0  0  0  0
  190.4950  178.1540  144.3270 C   0  0  2  0  0  3  0  0  0  0  0  0
  191.7440  177.5640  140.6850 C   0  0  0  0  0  2  0  0  0  0  0  0
  191.8950  177.6050  142.2070 C   0  0  0  0  0  2  0  0  0  0  0  0
  189.3780  176.6560  146.6790 C   0  0  0  0  0  2  0  0  0  0  0  0
  190.5650  176.6750  140.2630 C   0  0  0  0  0  2  0  0  0  0  0  0
  188.9720  178.1490  144.5690 C   0  0  1  0  0  3  0  0  0  0  0  0
  189.4560  177.1450  142.4320 C   0  0  2  0  0  3  0  0  0  0  0  0
  187.6180  176.2770  143.6800 O   0  0  0  0  0  0  0  0  0  0  0  0
  188.3590  175.2740  143.2380 O   0  0  0  0  0  1  0  0  0  0  0  0
  1  5  1  0  0  0  0
  2  5  2  0  0  0  0
  3  7  2  0  0  0  0
  3  6  1  0  0  0  0
  4  7  1  0  0  0  0
  6  1  2  0  0  0  0
  7  2  1  0  0  0  0
  8  3  1  0  0  0  0
 10 11  1  0  0  0  0
 11  9  1  0  0  0  0
 11  8  1  0  0  0  0
 12 11  1  0  0  0  0
 13 14  1  0  0  0  0
 13 12  1  0  0  0  0
 15 16  1  0  0  0  0
 15 19  1  0  0  0  0
 17 21  1  6  0  0  0
 17 19  1  0  0  0  0
 18 20  1  0  0  0  0
 18 17  1  0  0  0  0
 20 14  1  6  0  0  0
 20 16  1  0  0  0  0
 21 22  1  0  0  0  0
 22 23  1  0  0  0  0
 24 25  1  0  0  0  0
 24 26  1  0  0  0  0
 24 23  1  0  0  0  0
 25 26  1  0  0  0  0
 27  6  1  0  0  0  0
 27 28  1  0  0  0  0
 29 28  1  0  0  0  0
 30 29  1  6  0  0  0
 30 44  1  0  0  0  0
 30 42  1  0  0  0  0
 32 40  1  0  0  0  0
 33 31  2  0  0  0  0
 33 40  1  0  0  0  0
 34 39  1  1  0  0  0
 34 37  1  0  0  0  0
 36 32  1  0  0  0  0
 37 42  1  0  0  0  0
 37 36  1  1  0  0  0
 38 39  1  0  0  0  0
 41 38  1  0  0  0  0
 41 35  1  0  0  0  0
 42 33  1  1  0  0  0
 43 35  1  6  0  0  0
 43 34  1  0  0  0  0
 43 30  1  0  0  0  0
 45 44  1  0  0  0  0
M  END
>  <MODEL>
3

>  <REMARK>
 VINA RESULT:      -7.8      3.518      7.398
  Name = 
  15 active torsions:
  status: ('A' for Active; 'I' for Inactive)
    1  A    between atoms: C_3  and  C_5
    2  A    between atoms: C_5  and  C_20
    3  A    between atoms: C_6  and  O_27
    4  A    between atoms: C_6  and  C_30
    5  A    between atoms: C_10  and  C_20
    6  A    between atoms: C_10  and  C_41
    7  A    between atoms: C_16  and  C_39
    8  A    between atoms: C_23  and  C_30
    9  A    between atoms: C_23  and  C_31
   10  A    between atoms: C_24  and  O_35
   11  A    between atoms: C_28  and  C_41
   12  A    between atoms: C_28  and  C_42
   13  A    between atoms: C_31  and  C_34
   14  A    between atoms: O_35  and  C_38
   15  A    between atoms: C_38  and  C_39
                            x       y       z     vdW  Elec       q    Type
                         _______ _______ _______ _____ _____    ______ ____

>  <TORSDO>
F 15

$$$$
=
 OpenBabel11062417253D

 45 50  0  0  1  0  0  0  0  0999 V2000
  185.2870  178.8500  144.9130 C   0  0  0  0  0  3  0  0  0  0  0  0
  186.8310  178.3480  146.6590 N   0  0  0  0  0  0  0  0  0  0  0  0
  187.1410  177.3370  144.5060 C   0  0  0  0  0  0  0  0  0  0  0  0
  188.7340  176.9200  146.3390 N   0  0  0  0  0  1  0  0  0  0  0  0
  185.7140  178.9930  146.2310 C   0  0  0  0  0  3  0  0  0  0  0  0
  186.0110  178.0360  144.0290 C   0  0  0  0  0  0  0  0  0  0  0  0
  187.5500  177.5350  145.8390 C   0  0  0  0  0  0  0  0  0  0  0  0
  187.9300  176.4270  143.5920 C   0  0  0  0  0  2  0  0  0  0  0  0
  189.2560  178.5520  143.3070 C   0  0  0  0  0  1  0  0  0  0  0  0
  190.3770  176.3580  143.3710 C   0  0  0  0  0  1  0  0  0  0  0  0
  189.1320  177.0890  142.8990 C   0  0  0  0  0  0  0  0  0  0  0  0
  188.9940  176.9590  141.3740 C   0  0  0  0  0  2  0  0  0  0  0  0
  188.2830  178.1380  140.7130 C   0  0  0  0  0  2  0  0  0  0  0  0
  189.0370  178.5620  139.4640 C   0  0  0  0  0  2  0  0  0  0  0  0
  188.6830  177.7730  135.8110 C   0  0  0  0  0  2  0  0  0  0  0  0
  188.4250  178.6200  137.0530 C   0  0  0  0  0  2  0  0  0  0  0  0
  189.0180  175.8420  137.0440 C   0  0  1  0  0  3  0  0  0  0  0  0
  189.5650  176.7430  137.9990 O   0  0  0  0  0  0  0  0  0  0  0  0
  188.2320  176.4570  136.0270 O   0  0  0  0  0  0  0  0  0  0  0  0
  188.6020  177.7280  138.2750 C   0  0  1  0  0  3  0  0  0  0  0  0
  190.0440  175.0960  136.4590 O   0  0  0  0  0  0  0  0  0  0  0  0
  189.3970  174.0440  135.8040 C   0  0  0  0  0  2  0  0  0  0  0  0
  188.8240  173.0750  136.8260 C   0  0  0  0  0  2  0  0  0  0  0  0
  187.6840  172.2740  136.2190 C   0  0  0  0  0  3  0  0  0  0  0  0
  186.6670  173.2340  135.6460 C   0  0  0  0  0  2  0  0  0  0  0  0
  186.4000  172.5590  136.9730 C   0  0  0  0  0  2  0  0  0  0  0  0
  185.5720  177.8760  142.5930 C   0  0  0  0  0  2  0  0  0  0  0  0
  184.3970  178.7540  142.1870 C   0  0  0  0  0  2  0  0  0  0  0  0
  184.5560  179.1920  140.7380 C   0  0  0  0  0  2  0  0  0  0  0  0
  183.2810  178.9710  139.8900 C   0  0  2  0  0  0  0  0  0  0  0  0
  181.1140  179.8010  142.1760 O   0  0  0  0  0  0  0  0  0  0  0  0
  179.4630  177.4740  140.0940 C   0  0  0  0  0  2  0  0  0  0  0  0
  181.0270  179.0350  141.2280 C   0  0  0  0  0  0  0  0  0  0  0  0
  183.1390  176.6080  139.3140 C   0  0  1  0  0  3  0  0  0  0  0  0
  184.8720  177.9000  138.0660 C   0  0  0  0  0  2  0  0  0  0  0  0
  180.6350  176.9490  139.2790 C   0  0  0  0  0  2  0  0  0  0  0  0
  181.9020  176.8810  140.1470 C   0  0  2  0  0  3  0  0  0  0  0  0
  184.3470  175.4990  137.4480 C   0  0  0  0  0  2  0  0  0  0  0  0
  183.0080  175.5880  138.1820 C   0  0  0  0  0  2  0  0  0  0  0  0
  179.7260  178.9230  140.4930 C   0  0  0  0  0  2  0  0  0  0  0  0
  184.7950  176.8740  136.9320 C   0  0  0  0  0  2  0  0  0  0  0  0
  182.2370  178.2450  140.7830 C   0  0  1  0  0  3  0  0  0  0  0  0
  183.5130  177.9590  138.7580 C   0  0  2  0  0  3  0  0  0  0  0  0
  182.7770  180.1600  139.3090 O   0  0  0  0  0  0  0  0  0  0  0  0
  182.2480  179.8520  138.1360 O   0  0  0  0  0  1  0  0  0  0  0  0
  1  5  1  0  0  0  0
  3  7  2  0  0  0  0
  5  2  2  0  0  0  0
  6  3  1  0  0  0  0
  6  1  2  0  0  0  0
  7  4  1  0  0  0  0
  7  2  1  0  0  0  0
  8  3  1  0  0  0  0
 11  9  1  0  0  0  0
 11 10  1  0  0  0  0
 11  8  1  0  0  0  0
 12 11  1  0  0  0  0
 13 12  1  0  0  0  0
 14 13  1  0  0  0  0
 15 19  1  0  0  0  0
 15 16  1  0  0  0  0
 16 20  1  0  0  0  0
 17 21  1  6  0  0  0
 17 18  1  0  0  0  0
 18 20  1  0  0  0  0
 19 17  1  0  0  0  0
 20 14  1  1  0  0  0
 22 21  1  0  0  0  0
 22 23  1  0  0  0  0
 24 23  1  0  0  0  0
 24 26  1  0  0  0  0
 25 24  1  0  0  0  0
 25 26  1  0  0  0  0
 27  6  1  0  0  0  0
 28 27  1  0  0  0  0
 29 28  1  0  0  0  0
 30 29  1  1  0  0  0
 30 42  1  0  0  0  0
 32 40  1  0  0  0  0
 33 31  2  0  0  0  0
 34 39  1  6  0  0  0
 34 37  1  0  0  0  0
 36 32  1  0  0  0  0
 37 36  1  6  0  0  0
 37 42  1  0  0  0  0
 38 39  1  0  0  0  0
 40 33  1  0  0  0  0
 41 38  1  0  0  0  0
 41 35  1  0  0  0  0
 42 33  1  6  0  0  0
 43 35  1  1  0  0  0
 43 34  1  0  0  0  0
 43 30  1  0  0  0  0
 44 30  1  0  0  0  0
 45 44  1  0  0  0  0
M  END
>  <MODEL>
4

>  <REMARK>
 VINA RESULT:      -7.6      2.195      2.841
  Name = 
  15 active torsions:
  status: ('A' for Active; 'I' for Inactive)
    1  A    between atoms: C_3  and  C_5
    2  A    between atoms: C_5  and  C_20
    3  A    between atoms: C_6  and  O_27
    4  A    between atoms: C_6  and  C_30
    5  A    between atoms: C_10  and  C_20
    6  A    between atoms: C_10  and  C_41
    7  A    between atoms: C_16  and  C_39
    8  A    between atoms: C_23  and  C_30
    9  A    between atoms: C_23  and  C_31
   10  A    between atoms: C_24  and  O_35
   11  A    between atoms: C_28  and  C_41
   12  A    between atoms: C_28  and  C_42
   13  A    between atoms: C_31  and  C_34
   14  A    between atoms: O_35  and  C_38
   15  A    between atoms: C_38  and  C_39
                            x       y       z     vdW  Elec       q    Type
                         _______ _______ _______ _____ _____    ______ ____

>  <TORSDO>
F 15

$$$$
=
 OpenBabel11062417253D

 45 50  0  0  1  0  0  0  0  0999 V2000
  183.1020  178.6890  143.4070 C   0  0  0  0  0  3  0  0  0  0  0  0
  180.7840  178.8710  142.8820 N   0  0  0  0  0  0  0  0  0  0  0  0
  182.3890  178.9310  141.1000 C   0  0  0  0  0  0  0  0  0  0  0  0
  179.9730  179.0450  140.6290 N   0  0  0  0  0  1  0  0  0  0  0  0
  181.7700  178.7500  143.8090 C   0  0  0  0  0  3  0  0  0  0  0  0
  183.4240  178.7570  142.0430 C   0  0  0  0  0  0  0  0  0  0  0  0
  181.0550  178.9590  141.5510 C   0  0  0  0  0  0  0  0  0  0  0  0
  182.6980  179.0370  139.6240 C   0  0  0  0  0  2  0  0  0  0  0  0
  182.7770  176.5240  139.8020 C   0  0  0  0  0  1  0  0  0  0  0  0
  181.2790  177.6340  138.1900 C   0  0  0  0  0  1  0  0  0  0  0  0
  182.6440  177.7090  138.8530 C   0  0  0  0  0  0  0  0  0  0  0  0
  183.7480  177.6770  137.7850 C   0  0  0  0  0  2  0  0  0  0  0  0
  185.1310  177.3320  138.3330 C   0  0  0  0  0  2  0  0  0  0  0  0
  186.1170  178.4310  137.9770 C   0  0  0  0  0  2  0  0  0  0  0  0
  189.4390  177.5290  136.4800 C   0  0  0  0  0  2  0  0  0  0  0  0
  188.4520  178.4990  137.1190 C   0  0  0  0  0  2  0  0  0  0  0  0
  187.7580  176.1810  135.6330 C   0  0  1  0  0  3  0  0  0  0  0  0
  187.0750  176.5680  136.8190 O   0  0  0  0  0  0  0  0  0  0  0  0
  188.8860  176.9870  135.3040 O   0  0  0  0  0  0  0  0  0  0  0  0
  187.0450  177.9710  136.8700 C   0  0  1  0  0  3  0  0  0  0  0  0
  188.1490  174.8430  135.7300 O   0  0  0  0  0  0  0  0  0  0  0  0
  187.5230  174.3660  136.8860 C   0  0  0  0  0  2  0  0  0  0  0  0
  186.4560  173.3510  136.5110 C   0  0  0  0  0  2  0  0  0  0  0  0
  185.5410  173.0800  137.6940 C   0  0  0  0  0  3  0  0  0  0  0  0
  184.2930  172.3870  137.1940 C   0  0  0  0  0  2  0  0  0  0  0  0
  184.2510  173.8610  137.5330 C   0  0  0  0  0  2  0  0  0  0  0  0
  184.8610  178.6810  141.5850 C   0  0  0  0  0  2  0  0  0  0  0  0
  185.8630  178.3620  142.6870 C   0  0  0  0  0  2  0  0  0  0  0  0
  187.2770  178.4030  142.1270 C   0  0  0  0  0  2  0  0  0  0  0  0
  188.2440  177.4290  142.8390 C   0  0  2  0  0  0  0  0  0  0  0  0
  187.4500  178.2180  145.8970 O   0  0  0  0  0  0  0  0  0  0  0  0
  190.8150  177.1550  146.0290 C   0  0  0  0  0  2  0  0  0  0  0  0
  188.4930  177.7940  145.4240 C   0  0  0  0  0  0  0  0  0  0  0  0
  190.5300  178.0740  142.2950 C   0  0  1  0  0  3  0  0  0  0  0  0
  189.2770  176.9560  140.4490 C   0  0  0  0  0  2  0  0  0  0  0  0
  191.1510  177.1080  144.5460 C   0  0  0  0  0  2  0  0  0  0  0  0
  190.4250  178.2390  143.7990 C   0  0  2  0  0  3  0  0  0  0  0  0
  191.7470  177.4700  140.2170 C   0  0  0  0  0  2  0  0  0  0  0  0
  191.8750  177.6120  141.7350 C   0  0  0  0  0  2  0  0  0  0  0  0
  189.3330  176.8500  146.2280 C   0  0  0  0  0  2  0  0  0  0  0  0
  190.6090  176.5110  139.8380 C   0  0  0  0  0  2  0  0  0  0  0  0
  188.9000  178.1910  144.0230 C   0  0  1  0  0  3  0  0  0  0  0  0
  189.4530  177.0740  141.9600 C   0  0  2  0  0  3  0  0  0  0  0  0
  187.6310  176.2160  143.2390 O   0  0  0  0  0  0  0  0  0  0  0  0
  188.5220  175.2450  143.1210 O   0  0  0  0  0  1  0  0  0  0  0  0
  1  5  1  0  0  0  0
  2  5  2  0  0  0  0
  3  7  2  0  0  0  0
  3  6  1  0  0  0  0
  4  7  1  0  0  0  0
  6  1  2  0  0  0  0
  7  2  1  0  0  0  0
  8  3  1  0  0  0  0
 10 11  1  0  0  0  0
 11  8  1  0  0  0  0
 11  9  1  0  0  0  0
 12 13  1  0  0  0  0
 12 11  1  0  0  0  0
 14 13  1  0  0  0  0
 15 16  1  0  0  0  0
 17 21  1  1  0  0  0
 17 18  1  0  0  0  0
 18 20  1  0  0  0  0
 19 17  1  0  0  0  0
 19 15  1  0  0  0  0
 20 16  1  0  0  0  0
 20 14  1  1  0  0  0
 21 22  1  0  0  0  0
 23 22  1  0  0  0  0
 23 24  1  0  0  0  0
 25 26  1  0  0  0  0
 25 24  1  0  0  0  0
 26 24  1  0  0  0  0
 27  6  1  0  0  0  0
 27 28  1  0  0  0  0
 29 28  1  0  0  0  0
 30 29  1  6  0  0  0
 30 44  1  0  0  0  0
 30 42  1  0  0  0  0
 32 40  1  0  0  0  0
 33 31  2  0  0  0  0
 33 40  1  0  0  0  0
 34 39  1  1  0  0  0
 34 37  1  0  0  0  0
 36 32  1  0  0  0  0
 37 42  1  0  0  0  0
 37 36  1  1  0  0  0
 38 39  1  0  0  0  0
 41 38  1  0  0  0  0
 41 35  1  0  0  0  0
 42 33  1  1  0  0  0
 43 35  1  6  0  0  0
 43 34  1  0  0  0  0
 43 30  1  0  0  0  0
 45 44  1  0  0  0  0
M  END
>  <MODEL>
5

>  <REMARK>
 VINA RESULT:      -7.5      3.339      7.381
  Name = 
  15 active torsions:
  status: ('A' for Active; 'I' for Inactive)
    1  A    between atoms: C_3  and  C_5
    2  A    between atoms: C_5  and  C_20
    3  A    between atoms: C_6  and  O_27
    4  A    between atoms: C_6  and  C_30
    5  A    between atoms: C_10  and  C_20
    6  A    between atoms: C_10  and  C_41
    7  A    between atoms: C_16  and  C_39
    8  A    between atoms: C_23  and  C_30
    9  A    between atoms: C_23  and  C_31
   10  A    between atoms: C_24  and  O_35
   11  A    between atoms: C_28  and  C_41
   12  A    between atoms: C_28  and  C_42
   13  A    between atoms: C_31  and  C_34
   14  A    between atoms: O_35  and  C_38
   15  A    between atoms: C_38  and  C_39
                            x       y       z     vdW  Elec       q    Type
                         _______ _______ _______ _____ _____    ______ ____

>  <TORSDO>
F 15

$$$$
=
 OpenBabel11062417253D

 45 50  0  0  1  0  0  0  0  0999 V2000
  186.5790  177.8510  138.2540 C   0  0  0  0  0  3  0  0  0  0  0  0
  188.8730  177.5040  137.7100 N   0  0  0  0  0  0  0  0  0  0  0  0
  188.3070  178.3210  139.8930 C   0  0  0  0  0  0  0  0  0  0  0  0
  190.6520  177.8740  139.2800 N   0  0  0  0  0  1  0  0  0  0  0  0
  187.5650  177.4790  137.3440 C   0  0  0  0  0  3  0  0  0  0  0  0
  186.9390  178.2550  139.5490 C   0  0  0  0  0  0  0  0  0  0  0  0
  189.2660  177.9080  138.9480 C   0  0  0  0  0  0  0  0  0  0  0  0
  188.7370  178.7800  141.2680 C   0  0  0  0  0  2  0  0  0  0  0  0
  187.7200  177.5250  143.2030 C   0  0  0  0  0  1  0  0  0  0  0  0
  189.0810  176.3580  141.5120 C   0  0  0  0  0  1  0  0  0  0  0  0
  188.9360  177.6530  142.2940 C   0  0  0  0  0  0  0  0  0  0  0  0
  190.2060  177.9130  143.1180 C   0  0  0  0  0  2  0  0  0  0  0  0
  189.9350  178.2930  144.5720 C   0  0  0  0  0  2  0  0  0  0  0  0
  190.2410  177.1140  145.4800 C   0  0  0  0  0  2  0  0  0  0  0  0
  189.0520  178.2540  148.8530 C   0  0  0  0  0  2  0  0  0  0  0  0
  190.0650  177.6110  147.9110 C   0  0  0  0  0  2  0  0  0  0  0  0
  187.2620  177.7470  147.4740 C   0  0  1  0  0  3  0  0  0  0  0  0
  188.2140  177.9530  146.4370 O   0  0  0  0  0  0  0  0  0  0  0  0
  187.8230  177.5710  148.7720 O   0  0  0  0  0  0  0  0  0  0  0  0
  189.3160  177.1170  146.6810 C   0  0  1  0  0  3  0  0  0  0  0  0
  186.3520  178.8060  147.4950 O   0  0  0  0  0  0  0  0  0  0  0  0
  185.9970  179.0050  146.1580 C   0  0  0  0  0  2  0  0  0  0  0  0
  184.5930  178.4760  145.9130 C   0  0  0  0  0  2  0  0  0  0  0  0
  184.2790  178.4670  144.4260 C   0  0  0  0  0  3  0  0  0  0  0  0
  184.7770  179.7580  143.8170 C   0  0  0  0  0  2  0  0  0  0  0  0
  183.3020  179.5800  144.1020 C   0  0  0  0  0  2  0  0  0  0  0  0
  185.8850  178.6520  140.5550 C   0  0  0  0  0  2  0  0  0  0  0  0
  184.5250  178.9790  139.9540 C   0  0  0  0  0  2  0  0  0  0  0  0
  183.4500  178.1280  140.6140 C   0  0  0  0  0  2  0  0  0  0  0  0
  182.1700  177.9890  139.7580 C   0  0  2  0  0  0  0  0  0  0  0  0
  183.6400  177.5080  136.8910 O   0  0  0  0  0  0  0  0  0  0  0  0
  180.5540  179.0500  136.1350 C   0  0  0  0  0  2  0  0  0  0  0  0
  182.5560  178.0020  137.1640 C   0  0  0  0  0  0  0  0  0  0  0  0
  180.9660  180.1060  139.8210 C   0  0  1  0  0  3  0  0  0  0  0  0
  180.8360  178.7510  141.9120 C   0  0  0  0  0  2  0  0  0  0  0  0
  180.1130  179.4880  137.5240 C   0  0  0  0  0  2  0  0  0  0  0  0
  181.3310  179.9090  138.3630 C   0  0  2  0  0  3  0  0  0  0  0  0
  179.4460  180.8510  141.6380 C   0  0  0  0  0  2  0  0  0  0  0  0
  179.6340  180.7950  140.1210 C   0  0  0  0  0  2  0  0  0  0  0  0
  181.3970  177.7830  136.2410 C   0  0  0  0  0  2  0  0  0  0  0  0
  179.5200  179.4510  142.2640 C   0  0  0  0  0  2  0  0  0  0  0  0
  182.3890  178.7890  138.4440 C   0  0  1  0  0  3  0  0  0  0  0  0
  180.9720  178.7110  140.3930 C   0  0  2  0  0  3  0  0  0  0  0  0
  181.7890  176.6450  139.5260 O   0  0  0  0  0  0  0  0  0  0  0  0
  180.4980  176.5310  139.7920 O   0  0  0  0  0  1  0  0  0  0  0  0
  1  6  1  0  0  0  0
  2  7  2  0  0  0  0
  3  8  1  0  0  0  0
  5  2  1  0  0  0  0
  5  1  2  0  0  0  0
  6  3  2  0  0  0  0
  6 27  1  0  0  0  0
  7  4  1  0  0  0  0
  7  3  1  0  0  0  0
  8 11  1  0  0  0  0
 10 11  1  0  0  0  0
 11 12  1  0  0  0  0
 11  9  1  0  0  0  0
 12 13  1  0  0  0  0
 13 14  1  0  0  0  0
 16 15  1  0  0  0  0
 17 21  1  1  0  0  0
 17 19  1  0  0  0  0
 18 20  1  0  0  0  0
 18 17  1  0  0  0  0
 19 15  1  0  0  0  0
 20 14  1  6  0  0  0
 20 16  1  0  0  0  0
 22 21  1  0  0  0  0
 23 22  1  0  0  0  0
 24 23  1  0  0  0  0
 25 26  1  0  0  0  0
 25 24  1  0  0  0  0
 26 24  1  0  0  0  0
 28 27  1  0  0  0  0
 28 29  1  0  0  0  0
 30 43  1  0  0  0  0
 30 29  1  1  0  0  0
 31 33  2  0  0  0  0
 32 40  1  0  0  0  0
 32 36  1  0  0  0  0
 34 39  1  6  0  0  0
 34 43  1  0  0  0  0
 35 41  1  0  0  0  0
 37 36  1  6  0  0  0
 37 42  1  0  0  0  0
 37 34  1  0  0  0  0
 38 41  1  0  0  0  0
 39 38  1  0  0  0  0
 40 33  1  0  0  0  0
 42 33  1  6  0  0  0
 42 30  1  0  0  0  0
 43 35  1  1  0  0  0
 44 30  1  0  0  0  0
 44 45  1  0  0  0  0
M  END
>  <MODEL>
6

>  <REMARK>
 VINA RESULT:      -7.1      3.928      7.554
  Name = 
  15 active torsions:
  status: ('A' for Active; 'I' for Inactive)
    1  A    between atoms: C_3  and  C_5
    2  A    between atoms: C_5  and  C_20
    3  A    between atoms: C_6  and  O_27
    4  A    between atoms: C_6  and  C_30
    5  A    between atoms: C_10  and  C_20
    6  A    between atoms: C_10  and  C_41
    7  A    between atoms: C_16  and  C_39
    8  A    between atoms: C_23  and  C_30
    9  A    between atoms: C_23  and  C_31
   10  A    between atoms: C_24  and  O_35
   11  A    between atoms: C_28  and  C_41
   12  A    between atoms: C_28  and  C_42
   13  A    between atoms: C_31  and  C_34
   14  A    between atoms: O_35  and  C_38
   15  A    between atoms: C_38  and  C_39
                            x       y       z     vdW  Elec       q    Type
                         _______ _______ _______ _____ _____    ______ ____

>  <TORSDO>
F 15

$$$$
=
 OpenBabel11062417253D

 45 50  0  0  1  0  0  0  0  0999 V2000
  187.5860  178.6170  140.1700 C   0  0  0  0  0  3  0  0  0  0  0  0
  186.5780  177.9450  142.2220 N   0  0  0  0  0  0  0  0  0  0  0  0
  188.7920  177.1780  141.7090 C   0  0  0  0  0  0  0  0  0  0  0  0
  187.7100  176.5800  143.8410 N   0  0  0  0  0  1  0  0  0  0  0  0
  186.5030  178.6200  141.0460 C   0  0  0  0  0  3  0  0  0  0  0  0
  188.7530  177.9120  140.5040 C   0  0  0  0  0  0  0  0  0  0  0  0
  187.6830  177.2340  142.5750 C   0  0  0  0  0  0  0  0  0  0  0  0
  190.0190  176.3820  142.0900 C   0  0  0  0  0  2  0  0  0  0  0  0
  192.2940  177.4410  141.8500 C   0  0  0  0  0  1  0  0  0  0  0  0
  190.5210  178.5320  143.1690 C   0  0  0  0  0  1  0  0  0  0  0  0
  191.1230  177.1890  142.7920 C   0  0  0  0  0  0  0  0  0  0  0  0
  191.5890  176.4510  144.0550 C   0  0  0  0  0  2  0  0  0  0  0  0
  191.4130  177.2540  145.3430 C   0  0  0  0  0  2  0  0  0  0  0  0
  191.1540  176.3120  146.5070 C   0  0  0  0  0  2  0  0  0  0  0  0
  189.0660  178.6340  148.5910 C   0  0  0  0  0  2  0  0  0  0  0  0
  190.2770  177.7400  148.3470 C   0  0  0  0  0  2  0  0  0  0  0  0
  187.7530  177.4830  147.0700 C   0  0  1  0  0  3  0  0  0  0  0  0
  188.9850  177.3190  146.3790 O   0  0  0  0  0  0  0  0  0  0  0  0
  187.8810  177.8900  148.4300 O   0  0  0  0  0  0  0  0  0  0  0  0
  189.9090  176.7360  147.2620 C   0  0  1  0  0  3  0  0  0  0  0  0
  186.9440  178.3900  146.3830 O   0  0  0  0  0  0  0  0  0  0  0  0
  185.8660  178.6330  147.2380 C   0  0  0  0  0  2  0  0  0  0  0  0
  184.5680  178.6310  146.4450 C   0  0  0  0  0  2  0  0  0  0  0  0
  184.8560  178.6140  144.9530 C   0  0  0  0  0  3  0  0  0  0  0  0
  184.3600  179.9070  144.3470 C   0  0  0  0  0  2  0  0  0  0  0  0
  183.5530  178.6390  144.1790 C   0  0  0  0  0  2  0  0  0  0  0  0
  189.9430  177.9050  139.5740 C   0  0  0  0  0  2  0  0  0  0  0  0
  190.0930  176.6360  138.7460 C   0  0  0  0  0  2  0  0  0  0  0  0
  190.5040  176.9940  137.3240 C   0  0  0  0  0  2  0  0  0  0  0  0
  190.0040  175.9780  136.2710 C   0  0  2  0  0  0  0  0  0  0  0  0
  186.9150  175.8110  137.2910 O   0  0  0  0  0  0  0  0  0  0  0  0
  187.6080  172.6720  135.8260 C   0  0  0  0  0  2  0  0  0  0  0  0
  187.6170  174.9890  136.7200 C   0  0  0  0  0  0  0  0  0  0  0  0
  191.1890  173.8750  136.6030 C   0  0  1  0  0  3  0  0  0  0  0  0
  192.5390  175.6990  135.5660 C   0  0  0  0  0  2  0  0  0  0  0  0
  189.1190  172.7650  135.6720 C   0  0  0  0  0  2  0  0  0  0  0  0
  189.7300  173.5430  136.8480 C   0  0  2  0  0  3  0  0  0  0  0  0
  193.4640  173.3480  135.7590 C   0  0  0  0  0  2  0  0  0  0  0  0
  192.0520  172.7930  135.9530 C   0  0  0  0  0  2  0  0  0  0  0  0
  186.9960  174.0660  135.7170 C   0  0  0  0  0  2  0  0  0  0  0  0
  193.4490  174.6420  134.9330 C   0  0  0  0  0  2  0  0  0  0  0  0
  189.1020  174.9430  137.0000 C   0  0  1  0  0  3  0  0  0  0  0  0
  191.1450  175.1030  135.7290 C   0  0  2  0  0  3  0  0  0  0  0  0
  189.3620  176.5830  135.1630 O   0  0  0  0  0  0  0  0  0  0  0  0
  189.1250  177.8490  135.4660 O   0  0  0  0  0  1  0  0  0  0  0  0
  1  6  2  0  0  0  0
  1  5  1  0  0  0  0
  2  7  1  0  0  0  0
  3  8  1  0  0  0  0
  3  7  2  0  0  0  0
  5  2  2  0  0  0  0
  6  3  1  0  0  0  0
  7  4  1  0  0  0  0
  8 11  1  0  0  0  0
  9 11  1  0  0  0  0
 11 10  1  0  0  0  0
 11 12  1  0  0  0  0
 12 13  1  0  0  0  0
 13 14  1  0  0  0  0
 16 15  1  0  0  0  0
 17 21  1  6  0  0  0
 17 19  1  0  0  0  0
 18 17  1  0  0  0  0
 18 20  1  0  0  0  0
 19 15  1  0  0  0  0
 20 14  1  6  0  0  0
 20 16  1  0  0  0  0
 21 22  1  0  0  0  0
 23 22  1  0  0  0  0
 24 23  1  0  0  0  0
 25 24  1  0  0  0  0
 26 25  1  0  0  0  0
 26 24  1  0  0  0  0
 27  6  1  0  0  0  0
 28 27  1  0  0  0  0
 29 28  1  0  0  0  0
 30 42  1  0  0  0  0
 30 29  1  1  0  0  0
 33 31  2  0  0  0  0
 34 39  1  6  0  0  0
 34 37  1  0  0  0  0
 36 32  1  0  0  0  0
 37 36  1  6  0  0  0
 37 42  1  0  0  0  0
 38 39  1  0  0  0  0
 40 32  1  0  0  0  0
 40 33  1  0  0  0  0
 41 35  1  0  0  0  0
 41 38  1  0  0  0  0
 42 33  1  6  0  0  0
 43 35  1  1  0  0  0
 43 30  1  0  0  0  0
 43 34  1  0  0  0  0
 44 45  1  0  0  0  0
 44 30  1  0  0  0  0
M  END
>  <MODEL>
7

>  <REMARK>
 VINA RESULT:      -7.1      3.433      8.518
  Name = 
  15 active torsions:
  status: ('A' for Active; 'I' for Inactive)
    1  A    between atoms: C_3  and  C_5
    2  A    between atoms: C_5  and  C_20
    3  A    between atoms: C_6  and  O_27
    4  A    between atoms: C_6  and  C_30
    5  A    between atoms: C_10  and  C_20
    6  A    between atoms: C_10  and  C_41
    7  A    between atoms: C_16  and  C_39
    8  A    between atoms: C_23  and  C_30
    9  A    between atoms: C_23  and  C_31
   10  A    between atoms: C_24  and  O_35
   11  A    between atoms: C_28  and  C_41
   12  A    between atoms: C_28  and  C_42
   13  A    between atoms: C_31  and  C_34
   14  A    between atoms: O_35  and  C_38
   15  A    between atoms: C_38  and  C_39
                            x       y       z     vdW  Elec       q    Type
                         _______ _______ _______ _____ _____    ______ ____

>  <TORSDO>
F 15

$$$$
=
 OpenBabel11062417253D

 45 50  0  0  1  0  0  0  0  0999 V2000
  191.5070  176.2130  138.6990 C   0  0  0  0  0  3  0  0  0  0  0  0
  191.5280  175.5140  136.4210 N   0  0  0  0  0  0  0  0  0  0  0  0
  189.9050  177.1330  137.1250 C   0  0  0  0  0  0  0  0  0  0  0  0
  190.0320  176.4120  134.7720 N   0  0  0  0  0  1  0  0  0  0  0  0
  192.0350  175.4270  137.6780 C   0  0  0  0  0  3  0  0  0  0  0  0
  190.4480  177.0930  138.4270 C   0  0  0  0  0  0  0  0  0  0  0  0
  190.4900  176.3400  136.1190 C   0  0  0  0  0  0  0  0  0  0  0  0
  188.7450  178.0460  136.8000 C   0  0  0  0  0  2  0  0  0  0  0  0
  186.4300  178.1900  137.7860 C   0  0  0  0  0  1  0  0  0  0  0  0
  186.7770  177.3930  135.4790 C   0  0  0  0  0  1  0  0  0  0  0  0
  187.3590  177.3870  136.8830 C   0  0  0  0  0  0  0  0  0  0  0  0
  187.4950  175.9420  137.3880 C   0  0  0  0  0  2  0  0  0  0  0  0
  187.0240  174.8900  136.3870 C   0  0  0  0  0  2  0  0  0  0  0  0
  186.1350  173.8740  137.0860 C   0  0  0  0  0  2  0  0  0  0  0  0
  182.4840  173.0370  136.8460 C   0  0  0  0  0  2  0  0  0  0  0  0
  183.9470  172.8790  136.4450 C   0  0  0  0  0  2  0  0  0  0  0  0
  182.7860  175.2180  137.5630 C   0  0  1  0  0  3  0  0  0  0  0  0
  184.0730  174.7430  137.9370 O   0  0  0  0  0  0  0  0  0  0  0  0
  182.0780  174.3720  136.6610 O   0  0  0  0  0  0  0  0  0  0  0  0
  184.6740  174.1680  136.8060 C   0  0  1  0  0  3  0  0  0  0  0  0
  182.0140  175.4360  138.7070 O   0  0  0  0  0  0  0  0  0  0  0  0
  182.7420  176.3590  139.4630 C   0  0  0  0  0  2  0  0  0  0  0  0
  182.8660  177.6680  138.7000 C   0  0  0  0  0  2  0  0  0  0  0  0
  182.4830  178.8410  139.5870 C   0  0  0  0  0  3  0  0  0  0  0  0
  181.5890  179.7730  138.8020 C   0  0  0  0  0  2  0  0  0  0  0  0
  183.0450  180.1250  139.0100 C   0  0  0  0  0  2  0  0  0  0  0  0
  189.8690  177.9630  139.5170 C   0  0  0  0  0  2  0  0  0  0  0  0
  188.8220  177.2790  140.3860 C   0  0  0  0  0  2  0  0  0  0  0  0
  189.4610  176.7920  141.6780 C   0  0  0  0  0  2  0  0  0  0  0  0
  189.1190  177.6770  142.9000 C   0  0  2  0  0  0  0  0  0  0  0  0
  191.2040  176.3100  144.9960 O   0  0  0  0  0  0  0  0  0  0  0  0
  188.5300  177.5200  146.9600 C   0  0  0  0  0  2  0  0  0  0  0  0
  190.1330  176.8700  145.1790 C   0  0  0  0  0  0  0  0  0  0  0  0
  186.8000  177.2680  143.5230 C   0  0  1  0  0  3  0  0  0  0  0  0
  187.1160  178.6250  141.4530 C   0  0  0  0  0  2  0  0  0  0  0  0
  187.5140  177.8490  145.8760 C   0  0  0  0  0  2  0  0  0  0  0  0
  187.6100  176.8310  144.7280 C   0  0  2  0  0  3  0  0  0  0  0  0
  184.8110  178.3010  142.4530 C   0  0  0  0  0  2  0  0  0  0  0  0
  185.4320  177.8970  143.7910 C   0  0  0  0  0  2  0  0  0  0  0  0
  189.9420  177.7010  146.4110 C   0  0  0  0  0  2  0  0  0  0  0  0
  185.7330  179.2460  141.6690 C   0  0  0  0  0  2  0  0  0  0  0  0
  189.0360  176.7530  144.1460 C   0  0  1  0  0  3  0  0  0  0  0  0
  187.6960  178.2500  142.8130 C   0  0  2  0  0  3  0  0  0  0  0  0
  190.0110  178.7620  143.0780 O   0  0  0  0  0  0  0  0  0  0  0  0
  191.2080  178.3850  142.6550 O   0  0  0  0  0  1  0  0  0  0  0  0
  2  5  1  0  0  0  0
  3  6  2  0  0  0  0
  4  7  1  0  0  0  0
  5  1  2  0  0  0  0
  6  1  1  0  0  0  0
  6 27  1  0  0  0  0
  7  2  2  0  0  0  0
  7  3  1  0  0  0  0
  8 11  1  0  0  0  0
  8  3  1  0  0  0  0
 10 11  1  0  0  0  0
 11 12  1  0  0  0  0
 11  9  1  0  0  0  0
 13 14  1  0  0  0  0
 13 12  1  0  0  0  0
 16 20  1  0  0  0  0
 16 15  1  0  0  0  0
 17 18  1  0  0  0  0
 17 21  1  1  0  0  0
 19 15  1  0  0  0  0
 19 17  1  0  0  0  0
 20 14  1  1  0  0  0
 20 18  1  0  0  0  0
 21 22  1  0  0  0  0
 23 22  1  0  0  0  0
 23 24  1  0  0  0  0
 25 26  1  0  0  0  0
 25 24  1  0  0  0  0
 26 24  1  0  0  0  0
 27 28  1  0  0  0  0
 28 29  1  0  0  0  0
 30 29  1  6  0  0  0
 30 44  1  0  0  0  0
 30 42  1  0  0  0  0
 31 33  2  0  0  0  0
 33 40  1  0  0  0  0
 34 39  1  1  0  0  0
 34 37  1  0  0  0  0
 35 41  1  0  0  0  0
 36 32  1  0  0  0  0
 37 36  1  1  0  0  0
 38 39  1  0  0  0  0
 40 32  1  0  0  0  0
 41 38  1  0  0  0  0
 42 37  1  0  0  0  0
 42 33  1  1  0  0  0
 43 35  1  6  0  0  0
 43 30  1  0  0  0  0
 43 34  1  0  0  0  0
 45 44  1  0  0  0  0
M  END
>  <MODEL>
8

>  <REMARK>
 VINA RESULT:      -7.0      3.489      8.819
  Name = 
  15 active torsions:
  status: ('A' for Active; 'I' for Inactive)
    1  A    between atoms: C_3  and  C_5
    2  A    between atoms: C_5  and  C_20
    3  A    between atoms: C_6  and  O_27
    4  A    between atoms: C_6  and  C_30
    5  A    between atoms: C_10  and  C_20
    6  A    between atoms: C_10  and  C_41
    7  A    between atoms: C_16  and  C_39
    8  A    between atoms: C_23  and  C_30
    9  A    between atoms: C_23  and  C_31
   10  A    between atoms: C_24  and  O_35
   11  A    between atoms: C_28  and  C_41
   12  A    between atoms: C_28  and  C_42
   13  A    between atoms: C_31  and  C_34
   14  A    between atoms: O_35  and  C_38
   15  A    between atoms: C_38  and  C_39
                            x       y       z     vdW  Elec       q    Type
                         _______ _______ _______ _____ _____    ______ ____

>  <TORSDO>
F 15

$$$$
=
 OpenBabel11062417253D

 45 50  0  0  1  0  0  0  0  0999 V2000
  192.8210  176.7470  138.6480 C   0  0  0  0  0  3  0  0  0  0  0  0
  192.4030  175.8770  136.4690 N   0  0  0  0  0  0  0  0  0  0  0  0
  190.5440  176.3540  137.9070 C   0  0  0  0  0  0  0  0  0  0  0  0
  190.1880  175.5170  135.6160 N   0  0  0  0  0  1  0  0  0  0  0  0
  193.2850  176.2720  137.4240 C   0  0  0  0  0  3  0  0  0  0  0  0
  191.4420  176.8140  138.8940 C   0  0  0  0  0  0  0  0  0  0  0  0
  191.0590  175.9080  136.6740 C   0  0  0  0  0  0  0  0  0  0  0  0
  189.0520  176.3820  138.1460 C   0  0  0  0  0  2  0  0  0  0  0  0
  187.5090  178.2710  138.7820 C   0  0  0  0  0  1  0  0  0  0  0  0
  189.4250  178.6520  137.2800 C   0  0  0  0  0  1  0  0  0  0  0  0
  188.3420  177.6580  137.6640 C   0  0  0  0  0  0  0  0  0  0  0  0
  187.4660  177.3400  136.4430 C   0  0  0  0  0  2  0  0  0  0  0  0
  186.4060  176.2720  136.7020 C   0  0  0  0  0  2  0  0  0  0  0  0
  185.1530  176.5820  135.8990 C   0  0  0  0  0  2  0  0  0  0  0  0
  182.8390  174.9180  138.3430 C   0  0  0  0  0  2  0  0  0  0  0  0
  183.5510  175.0280  136.9980 C   0  0  0  0  0  2  0  0  0  0  0  0
  182.9410  177.2000  138.7230 C   0  0  1  0  0  3  0  0  0  0  0  0
  184.1740  177.0960  138.0230 O   0  0  0  0  0  0  0  0  0  0  0  0
  182.0750  176.0770  138.5760 O   0  0  0  0  0  0  0  0  0  0  0  0
  183.9230  176.4890  136.7820 C   0  0  1  0  0  3  0  0  0  0  0  0
  183.1870  177.4290  140.0790 O   0  0  0  0  0  0  0  0  0  0  0  0
  183.8990  178.6310  140.1190 C   0  0  0  0  0  2  0  0  0  0  0  0
  184.1300  179.0450  141.5640 C   0  0  0  0  0  2  0  0  0  0  0  0
  183.2130  178.2680  142.4940 C   0  0  0  0  0  3  0  0  0  0  0  0
  181.9950  179.1130  142.7920 C   0  0  0  0  0  2  0  0  0  0  0  0
  183.0970  178.9920  143.8210 C   0  0  0  0  0  2  0  0  0  0  0  0
  190.9180  177.3370  140.2100 C   0  0  0  0  0  2  0  0  0  0  0  0
  191.8770  177.1820  141.3820 C   0  0  0  0  0  2  0  0  0  0  0  0
  191.3050  177.8720  142.6120 C   0  0  0  0  0  2  0  0  0  0  0  0
  190.1430  177.0890  143.2670 C   0  0  2  0  0  0  0  0  0  0  0  0
  187.7010  178.6950  141.8290 O   0  0  0  0  0  0  0  0  0  0  0  0
  186.4210  177.5860  144.9280 C   0  0  0  0  0  2  0  0  0  0  0  0
  187.7600  178.1230  142.9070 C   0  0  0  0  0  0  0  0  0  0  0  0
  190.2030  177.4850  145.6700 C   0  0  1  0  0  3  0  0  0  0  0  0
  191.9780  175.9590  144.8030 C   0  0  0  0  0  2  0  0  0  0  0  0
  187.7020  177.1340  145.6130 C   0  0  0  0  0  2  0  0  0  0  0  0
  188.8720  178.0490  145.2160 C   0  0  2  0  0  3  0  0  0  0  0  0
  191.6660  176.3030  147.2930 C   0  0  0  0  0  2  0  0  0  0  0  0
  190.2540  176.8420  147.0570 C   0  0  0  0  0  2  0  0  0  0  0  0
  186.5530  177.3990  143.4190 C   0  0  0  0  0  2  0  0  0  0  0  0
  192.0830  175.3200  146.1900 C   0  0  0  0  0  2  0  0  0  0  0  0
  189.0550  178.1170  143.6860 C   0  0  1  0  0  3  0  0  0  0  0  0
  190.5530  176.4690  144.6120 C   0  0  2  0  0  3  0  0  0  0  0  0
  189.6320  176.0500  142.4510 O   0  0  0  0  0  0  0  0  0  0  0  0
  189.1770  175.0920  143.2420 O   0  0  0  0  0  1  0  0  0  0  0  0
  1  6  1  0  0  0  0
  2  7  2  0  0  0  0
  2  5  1  0  0  0  0
  3  8  1  0  0  0  0
  3  6  2  0  0  0  0
  4  7  1  0  0  0  0
  5  1  2  0  0  0  0
  6 27  1  0  0  0  0
  7  3  1  0  0  0  0
 10 11  1  0  0  0  0
 11  8  1  0  0  0  0
 11  9  1  0  0  0  0
 12 13  1  0  0  0  0
 12 11  1  0  0  0  0
 14 13  1  0  0  0  0
 15 19  1  0  0  0  0
 16 15  1  0  0  0  0
 17 21  1  1  0  0  0
 18 17  1  0  0  0  0
 19 17  1  0  0  0  0
 20 14  1  6  0  0  0
 20 16  1  0  0  0  0
 20 18  1  0  0  0  0
 21 22  1  0  0  0  0
 22 23  1  0  0  0  0
 23 24  1  0  0  0  0
 24 25  1  0  0  0  0
 24 26  1  0  0  0  0
 25 26  1  0  0  0  0
 27 28  1  0  0  0  0
 28 29  1  0  0  0  0
 30 29  1  6  0  0  0
 30 42  1  0  0  0  0
 30 43  1  0  0  0  0
 31 33  2  0  0  0  0
 32 36  1  0  0  0  0
 33 40  1  0  0  0  0
 34 39  1  1  0  0  0
 35 41  1  0  0  0  0
 37 36  1  6  0  0  0
 37 34  1  0  0  0  0
 39 38  1  0  0  0  0
 40 32  1  0  0  0  0
 41 38  1  0  0  0  0
 42 33  1  6  0  0  0
 42 37  1  0  0  0  0
 43 35  1  6  0  0  0
 43 34  1  0  0  0  0
 44 45  1  0  0  0  0
 44 30  1  0  0  0  0
M  END
>  <MODEL>
9

>  <REMARK>
 VINA RESULT:      -7.0      3.324      9.089
  Name = 
  15 active torsions:
  status: ('A' for Active; 'I' for Inactive)
    1  A    between atoms: C_3  and  C_5
    2  A    between atoms: C_5  and  C_20
    3  A    between atoms: C_6  and  O_27
    4  A    between atoms: C_6  and  C_30
    5  A    between atoms: C_10  and  C_20
    6  A    between atoms: C_10  and  C_41
    7  A    between atoms: C_16  and  C_39
    8  A    between atoms: C_23  and  C_30
    9  A    between atoms: C_23  and  C_31
   10  A    between atoms: C_24  and  O_35
   11  A    between atoms: C_28  and  C_41
   12  A    between atoms: C_28  and  C_42
   13  A    between atoms: C_31  and  C_34
   14  A    between atoms: O_35  and  C_38
   15  A    between atoms: C_38  and  C_39
                            x       y       z     vdW  Elec       q    Type
                         _______ _______ _______ _____ _____    ______ ____

>  <TORSDO>
F 15

$$$$
