=
 OpenBabel11062413273D

 30 34  0  0  0  0  0  0  0  0999 V2000
  188.3270  177.4990  145.2650 C   0  0  0  0  0  0  0  0  0  0  0  0
  185.7670  178.2980  144.8520 C   0  0  0  0  0  0  0  0  0  0  0  0
  184.0970  178.8730  146.2190 N   0  0  0  0  0  0  0  0  0  0  0  0
  186.1990  178.2340  146.1150 C   0  0  0  0  0  0  0  0  0  0  0  0
  186.4850  177.9900  143.7360 C   0  0  0  0  0  0  0  0  0  0  0  0
  184.5260  178.4940  142.4550 C   0  0  0  0  0  0  0  0  0  0  0  0
  187.8150  177.5770  143.9330 C   0  0  0  0  0  3  0  0  0  0  0  0
  185.1090  178.6070  146.9660 N   0  0  0  0  0  0  0  0  0  0  0  0
  183.7990  178.7990  143.6520 C   0  0  0  0  0  3  0  0  0  0  0  0
  187.5070  177.8260  146.3860 C   0  0  0  0  0  3  0  0  0  0  0  0
  185.8510  178.0950  142.5310 N   0  0  0  0  0  0  0  0  0  0  0  0
  184.4910  178.6820  144.8560 C   0  0  0  0  0  0  0  0  0  0  0  0
  182.9710  178.6250  138.2170 C   0  0  0  0  0  3  0  0  0  0  0  0
  181.9320  179.4330  138.9020 C   0  0  0  0  0  0  0  0  0  0  0  0
  184.1850  178.3950  138.7230 C   0  0  0  0  0  3  0  0  0  0  0  0
  184.6640  179.0210  140.0000 C   0  0  0  0  0  2  0  0  0  0  0  0
  182.4530  178.2950  141.0730 C   0  0  0  0  0  2  0  0  0  0  0  0
  183.8840  178.5950  141.1710 N   0  0  0  0  0  0  0  0  0  0  0  0
  181.7200  179.2910  140.2210 C   0  0  0  0  0  3  0  0  0  0  0  0
  180.1840  179.8820  135.8620 C   0  0  0  0  0  2  0  0  0  0  0  0
  179.9560  179.7940  137.3780 C   0  0  0  0  0  2  0  0  0  0  0  0
  180.8430  182.6370  137.3380 C   0  0  0  0  0  3  0  0  0  0  0  0
  181.3020  181.7480  138.2270 C   0  0  0  0  0  3  0  0  0  0  0  0
  181.0970  180.3240  138.1310 N   0  0  0  0  0  0  0  0  0  0  0  0
  180.0740  182.2640  136.1090 C   0  0  0  0  0  2  0  0  0  0  0  0
  180.7490  181.1630  135.4290 N   0  0  0  0  0  2  0  0  0  0  0  0
  189.7310  177.0440  145.4870 C   0  0  0  0  0  2  0  0  0  0  0  0
  190.0320  176.8920  146.9720 C   0  0  0  0  0  2  0  0  0  0  0  0
  191.3990  176.2660  147.1990 C   0  0  0  0  0  2  0  0  0  0  0  0
  192.1100  177.0050  148.1450 O   0  0  0  0  0  1  0  0  0  0  0  0
  1 27  1  0  0  0  0
  1 10  1  0  0  0  0
  2 12  1  0  0  0  0
  2  4  1  0  0  0  0
  3  8  2  0  0  0  0
  4 10  2  0  0  0  0
  4  8  1  0  0  0  0
  5  7  1  0  0  0  0
  5  2  2  0  0  0  0
  6 11  2  0  0  0  0
  6  9  1  0  0  0  0
  7  1  2  0  0  0  0
  9 12  2  0  0  0  0
 11  5  1  0  0  0  0
 12  3  1  0  0  0  0
 13 15  2  0  0  0  0
 13 14  1  0  0  0  0
 14 19  2  0  0  0  0
 15 16  1  0  0  0  0
 16 18  1  0  0  0  0
 17 18  1  0  0  0  0
 18  6  1  0  0  0  0
 19 17  1  0  0  0  0
 20 21  1  0  0  0  0
 21 24  1  0  0  0  0
 22 23  2  0  0  0  0
 24 23  1  0  0  0  0
 24 14  1  0  0  0  0
 25 22  1  0  0  0  0
 26 20  1  0  0  0  0
 26 25  1  0  0  0  0
 27 28  1  0  0  0  0
 28 29  1  0  0  0  0
 29 30  1  0  0  0  0
M  END
>  <MODEL>
1

>  <REMARK>
 VINA RESULT:      -9.5      0.000      0.000
  Name = 
  5 active torsions:
  status: ('A' for Active; 'I' for Inactive)
    1  A    between atoms: C_1  and  C_5
    2  A    between atoms: C_5  and  C_11
    3  A    between atoms: C_8  and  N_26
    4  A    between atoms: C_9  and  C_11
    5  A    between atoms: C_14  and  N_20
                            x       y       z     vdW  Elec       q    Type
                         _______ _______ _______ _____ _____    ______ ____

>  <TORSDO>
F 5

$$$$
=
 OpenBabel11062413273D

 30 34  0  0  0  0  0  0  0  0999 V2000
  188.1560  177.4890  145.3320 C   0  0  0  0  0  0  0  0  0  0  0  0
  185.6280  178.3120  144.7890 C   0  0  0  0  0  0  0  0  0  0  0  0
  183.9000  178.9170  146.0690 N   0  0  0  0  0  0  0  0  0  0  0  0
  185.9970  178.2540  146.0720 C   0  0  0  0  0  0  0  0  0  0  0  0
  186.3960  177.9880  143.7110 C   0  0  0  0  0  0  0  0  0  0  0  0
  184.5070  178.5020  142.3330 C   0  0  0  0  0  0  0  0  0  0  0  0
  187.7100  177.5610  143.9760 C   0  0  0  0  0  3  0  0  0  0  0  0
  184.8730  178.6470  146.8660 N   0  0  0  0  0  0  0  0  0  0  0  0
  183.7270  178.8260  143.4910 C   0  0  0  0  0  3  0  0  0  0  0  0
  187.2860  177.8330  146.4090 C   0  0  0  0  0  3  0  0  0  0  0  0
  185.8230  178.0890  142.4760 N   0  0  0  0  0  0  0  0  0  0  0  0
  184.3590  178.7100  144.7280 C   0  0  0  0  0  0  0  0  0  0  0  0
  182.2550  178.9900  138.4490 C   0  0  0  0  0  3  0  0  0  0  0  0
  183.4000  178.1670  137.9860 C   0  0  0  0  0  0  0  0  0  0  0  0
  181.8760  179.0830  139.7260 C   0  0  0  0  0  3  0  0  0  0  0  0
  182.5100  178.2760  140.8220 C   0  0  0  0  0  2  0  0  0  0  0  0
  184.7910  178.9950  139.9000 C   0  0  0  0  0  2  0  0  0  0  0  0
  183.9300  178.6000  141.0180 N   0  0  0  0  0  0  0  0  0  0  0  0
  184.5520  178.1580  138.6760 C   0  0  0  0  0  3  0  0  0  0  0  0
  181.5100  175.8050  136.1560 C   0  0  0  0  0  2  0  0  0  0  0  0
  181.9900  177.2620  136.1020 C   0  0  0  0  0  2  0  0  0  0  0  0
  184.5310  176.0380  135.1430 C   0  0  0  0  0  3  0  0  0  0  0  0
  184.4960  176.9910  136.0820 C   0  0  0  0  0  3  0  0  0  0  0  0
  183.2950  177.4310  136.7490 N   0  0  0  0  0  0  0  0  0  0  0  0
  183.3250  175.2830  134.6790 C   0  0  0  0  0  2  0  0  0  0  0  0
  182.5590  174.8320  135.8360 N   0  0  0  0  0  2  0  0  0  0  0  0
  189.5420  177.0200  145.6250 C   0  0  0  0  0  2  0  0  0  0  0  0
  189.7750  176.8950  147.1250 C   0  0  0  0  0  2  0  0  0  0  0  0
  191.2430  176.6550  147.4400 C   0  0  0  0  0  2  0  0  0  0  0  0
  192.0060  176.7770  146.2780 O   0  0  0  0  0  1  0  0  0  0  0  0
  1 27  1  0  0  0  0
  1 10  1  0  0  0  0
  2  4  1  0  0  0  0
  3  8  2  0  0  0  0
  4 10  2  0  0  0  0
  4  8  1  0  0  0  0
  5  7  1  0  0  0  0
  5  2  2  0  0  0  0
  6 11  2  0  0  0  0
  6  9  1  0  0  0  0
  7  1  2  0  0  0  0
  9 12  2  0  0  0  0
 11  5  1  0  0  0  0
 12  2  1  0  0  0  0
 12  3  1  0  0  0  0
 13 15  2  0  0  0  0
 14 13  1  0  0  0  0
 14 19  2  0  0  0  0
 15 16  1  0  0  0  0
 16 18  1  0  0  0  0
 17 18  1  0  0  0  0
 18  6  1  0  0  0  0
 19 17  1  0  0  0  0
 21 20  1  0  0  0  0
 21 24  1  0  0  0  0
 22 23  2  0  0  0  0
 23 24  1  0  0  0  0
 24 14  1  0  0  0  0
 25 22  1  0  0  0  0
 25 26  1  0  0  0  0
 26 20  1  0  0  0  0
 27 28  1  0  0  0  0
 28 29  1  0  0  0  0
 30 29  1  0  0  0  0
M  END
>  <MODEL>
2

>  <REMARK>
 VINA RESULT:      -9.1      2.094      3.116
  Name = 
  5 active torsions:
  status: ('A' for Active; 'I' for Inactive)
    1  A    between atoms: C_1  and  C_5
    2  A    between atoms: C_5  and  C_11
    3  A    between atoms: C_8  and  N_26
    4  A    between atoms: C_9  and  C_11
    5  A    between atoms: C_14  and  N_20
                            x       y       z     vdW  Elec       q    Type
                         _______ _______ _______ _____ _____    ______ ____

>  <TORSDO>
F 5

$$$$
=
 OpenBabel11062413273D

 30 34  0  0  0  0  0  0  0  0999 V2000
  187.2170  177.6320  145.6760 C   0  0  0  0  0  0  0  0  0  0  0  0
  189.7570  177.2100  144.8220 C   0  0  0  0  0  0  0  0  0  0  0  0
  191.7100  176.9530  145.8740 N   0  0  0  0  0  0  0  0  0  0  0  0
  189.5490  177.2640  146.1400 C   0  0  0  0  0  0  0  0  0  0  0  0
  188.8150  177.3570  143.8480 C   0  0  0  0  0  0  0  0  0  0  0  0
  190.5740  177.0990  142.2440 C   0  0  0  0  0  0  0  0  0  0  0  0
  187.4930  177.5750  144.2750 C   0  0  0  0  0  3  0  0  0  0  0  0
  190.8160  177.0950  146.7870 N   0  0  0  0  0  0  0  0  0  0  0  0
  191.5380  176.9590  143.2950 C   0  0  0  0  0  3  0  0  0  0  0  0
  188.2620  177.4820  146.6360 C   0  0  0  0  0  3  0  0  0  0  0  0
  189.2360  177.2970  142.5500 N   0  0  0  0  0  0  0  0  0  0  0  0
  191.0580  177.0230  144.6010 C   0  0  0  0  0  0  0  0  0  0  0  0
  191.3550  176.9770  137.7970 C   0  0  0  0  0  3  0  0  0  0  0  0
  192.6550  176.4730  138.3050 C   0  0  0  0  0  0  0  0  0  0  0  0
  190.2270  176.9740  138.5120 C   0  0  0  0  0  3  0  0  0  0  0  0
  190.1350  176.3620  139.8800 C   0  0  0  0  0  2  0  0  0  0  0  0
  192.2720  177.6370  140.4910 C   0  0  0  0  0  2  0  0  0  0  0  0
  190.9870  177.0400  140.8660 N   0  0  0  0  0  0  0  0  0  0  0  0
  193.0540  176.7620  139.5550 C   0  0  0  0  0  3  0  0  0  0  0  0
  195.3870  174.2370  138.1220 C   0  0  0  0  0  2  0  0  0  0  0  0
  193.9010  174.3500  137.7560 C   0  0  0  0  0  2  0  0  0  0  0  0
  194.9370  175.8770  135.4180 C   0  0  0  0  0  3  0  0  0  0  0  0
  193.8990  176.2950  136.1530 C   0  0  0  0  0  3  0  0  0  0  0  0
  193.5250  175.7290  137.4250 N   0  0  0  0  0  0  0  0  0  0  0  0
  195.8630  174.7780  135.8360 C   0  0  0  0  0  2  0  0  0  0  0  0
  196.2700  174.9850  137.2220 N   0  0  0  0  0  2  0  0  0  0  0  0
  185.8200  177.8810  146.1400 C   0  0  0  0  0  2  0  0  0  0  0  0
  185.2880  179.2020  145.6000 C   0  0  0  0  0  2  0  0  0  0  0  0
  183.9310  179.0240  144.9390 C   0  0  0  0  0  2  0  0  0  0  0  0
  184.0790  178.3680  143.7160 O   0  0  0  0  0  1  0  0  0  0  0  0
  1 27  1  0  0  0  0
  1 10  1  0  0  0  0
  2  4  1  0  0  0  0
  3  8  2  0  0  0  0
  4 10  2  0  0  0  0
  4  8  1  0  0  0  0
  5  7  1  0  0  0  0
  5  2  2  0  0  0  0
  6 11  2  0  0  0  0
  6  9  1  0  0  0  0
  7  1  2  0  0  0  0
  9 12  2  0  0  0  0
 11  5  1  0  0  0  0
 12  2  1  0  0  0  0
 12  3  1  0  0  0  0
 13 14  1  0  0  0  0
 13 15  2  0  0  0  0
 14 19  2  0  0  0  0
 15 16  1  0  0  0  0
 16 18  1  0  0  0  0
 17 18  1  0  0  0  0
 18  6  1  0  0  0  0
 19 17  1  0  0  0  0
 21 20  1  0  0  0  0
 22 25  1  0  0  0  0
 22 23  2  0  0  0  0
 23 24  1  0  0  0  0
 24 21  1  0  0  0  0
 24 14  1  0  0  0  0
 25 26  1  0  0  0  0
 26 20  1  0  0  0  0
 28 27  1  0  0  0  0
 29 28  1  0  0  0  0
 30 29  1  0  0  0  0
M  END
>  <MODEL>
3

>  <REMARK>
 VINA RESULT:      -9.1      6.474      9.574
  Name = 
  5 active torsions:
  status: ('A' for Active; 'I' for Inactive)
    1  A    between atoms: C_1  and  C_5
    2  A    between atoms: C_5  and  C_11
    3  A    between atoms: C_8  and  N_26
    4  A    between atoms: C_9  and  C_11
    5  A    between atoms: C_14  and  N_20
                            x       y       z     vdW  Elec       q    Type
                         _______ _______ _______ _____ _____    ______ ____

>  <TORSDO>
F 5

$$$$
=
 OpenBabel11062413273D

 30 34  0  0  0  0  0  0  0  0999 V2000
  187.9440  177.8110  146.7800 C   0  0  0  0  0  0  0  0  0  0  0  0
  189.9760  177.0640  145.1430 C   0  0  0  0  0  0  0  0  0  0  0  0
  192.0170  176.2350  145.5080 N   0  0  0  0  0  0  0  0  0  0  0  0
  190.1530  176.9100  146.4580 C   0  0  0  0  0  0  0  0  0  0  0  0
  188.8700  177.5730  144.5310 C   0  0  0  0  0  0  0  0  0  0  0  0
  190.0090  177.2770  142.4460 C   0  0  0  0  0  0  0  0  0  0  0  0
  187.8070  177.9630  145.3660 C   0  0  0  0  0  3  0  0  0  0  0  0
  191.4670  176.3780  146.6610 N   0  0  0  0  0  0  0  0  0  0  0  0
  191.1580  176.7560  143.1260 C   0  0  0  0  0  3  0  0  0  0  0  0
  189.1410  177.2810  147.3480 C   0  0  0  0  0  3  0  0  0  0  0  0
  188.8950  177.6740  143.1690 N   0  0  0  0  0  0  0  0  0  0  0  0
  191.0810  176.6690  144.5140 C   0  0  0  0  0  0  0  0  0  0  0  0
  189.6240  178.0260  138.0090 C   0  0  0  0  0  3  0  0  0  0  0  0
  190.3940  176.7580  137.9940 C   0  0  0  0  0  0  0  0  0  0  0  0
  188.9150  178.4520  139.0570 C   0  0  0  0  0  3  0  0  0  0  0  0
  188.7400  177.6350  140.3040 C   0  0  0  0  0  2  0  0  0  0  0  0
  191.2730  177.2450  140.2900 C   0  0  0  0  0  2  0  0  0  0  0  0
  190.0060  177.3960  141.0110 N   0  0  0  0  0  0  0  0  0  0  0  0
  191.1280  176.3970  139.0590 C   0  0  0  0  0  3  0  0  0  0  0  0
  188.6460  175.8770  135.0500 C   0  0  0  0  0  2  0  0  0  0  0  0
  189.9630  176.5090  135.5220 C   0  0  0  0  0  2  0  0  0  0  0  0
  190.7850  173.6760  135.9340 C   0  0  0  0  0  3  0  0  0  0  0  0
  191.0030  174.6320  136.8450 C   0  0  0  0  0  3  0  0  0  0  0  0
  190.4090  175.9460  136.8000 N   0  0  0  0  0  0  0  0  0  0  0  0
  189.8720  173.8380  134.7590 C   0  0  0  0  0  2  0  0  0  0  0  0
  188.6090  174.4190  135.2010 N   0  0  0  0  0  2  0  0  0  0  0  0
  186.8300  178.2380  147.6760 C   0  0  0  0  0  2  0  0  0  0  0  0
  185.8270  179.1080  146.9300 C   0  0  0  0  0  2  0  0  0  0  0  0
  184.5820  178.3220  146.5550 C   0  0  0  0  0  2  0  0  0  0  0  0
  183.7780  179.0790  145.7020 O   0  0  0  0  0  1  0  0  0  0  0  0
  1 10  1  0  0  0  0
  1 27  1  0  0  0  0
  2  4  1  0  0  0  0
  3  8  2  0  0  0  0
  4  8  1  0  0  0  0
  4 10  2  0  0  0  0
  5  2  1  0  0  0  0
  5  7  1  0  0  0  0
  6  9  2  0  0  0  0
  6 11  1  0  0  0  0
  7  1  2  0  0  0  0
  9 12  1  0  0  0  0
 11  5  2  0  0  0  0
 12  2  2  0  0  0  0
 12  3  1  0  0  0  0
 13 15  2  0  0  0  0
 14 13  1  0  0  0  0
 14 19  2  0  0  0  0
 15 16  1  0  0  0  0
 16 18  1  0  0  0  0
 17 18  1  0  0  0  0
 18  6  1  0  0  0  0
 19 17  1  0  0  0  0
 20 26  1  0  0  0  0
 20 21  1  0  0  0  0
 21 24  1  0  0  0  0
 22 23  2  0  0  0  0
 24 23  1  0  0  0  0
 24 14  1  0  0  0  0
 25 26  1  0  0  0  0
 25 22  1  0  0  0  0
 28 27  1  0  0  0  0
 29 28  1  0  0  0  0
 30 29  1  0  0  0  0
M  END
>  <MODEL>
4

>  <REMARK>
 VINA RESULT:      -9.0      5.968      7.702
  Name = 
  5 active torsions:
  status: ('A' for Active; 'I' for Inactive)
    1  A    between atoms: C_1  and  C_5
    2  A    between atoms: C_5  and  C_11
    3  A    between atoms: C_8  and  N_26
    4  A    between atoms: C_9  and  C_11
    5  A    between atoms: C_14  and  N_20
                            x       y       z     vdW  Elec       q    Type
                         _______ _______ _______ _____ _____    ______ ____

>  <TORSDO>
F 5

$$$$
=
 OpenBabel11062413273D

 30 34  0  0  0  0  0  0  0  0999 V2000
  190.5810  176.9660  146.2600 C   0  0  0  0  0  0  0  0  0  0  0  0
  189.5600  177.3810  143.7800 C   0  0  0  0  0  0  0  0  0  0  0  0
  190.4510  177.3890  141.7320 N   0  0  0  0  0  0  0  0  0  0  0  0
  190.8610  177.0910  143.8730 C   0  0  0  0  0  0  0  0  0  0  0  0
  188.6830  177.5020  144.8170 C   0  0  0  0  0  0  0  0  0  0  0  0
  187.0000  178.0430  143.2020 C   0  0  0  0  0  0  0  0  0  0  0  0
  189.1970  177.2880  146.1080 C   0  0  0  0  0  3  0  0  0  0  0  0
  191.4030  177.1020  142.5480 N   0  0  0  0  0  0  0  0  0  0  0  0
  187.9530  177.9180  142.1390 C   0  0  0  0  0  3  0  0  0  0  0  0
  191.4400  176.8710  145.1240 C   0  0  0  0  0  3  0  0  0  0  0  0
  187.3930  177.8340  144.5150 N   0  0  0  0  0  0  0  0  0  0  0  0
  189.2550  177.5730  142.4980 C   0  0  0  0  0  0  0  0  0  0  0  0
  182.6720  179.2760  142.8160 C   0  0  0  0  0  3  0  0  0  0  0  0
  182.8490  178.5390  141.5410 C   0  0  0  0  0  0  0  0  0  0  0  0
  183.4760  179.1330  143.8730 C   0  0  0  0  0  3  0  0  0  0  0  0
  184.5900  178.1290  143.9160 C   0  0  0  0  0  2  0  0  0  0  0  0
  185.3160  178.9780  141.6090 C   0  0  0  0  0  2  0  0  0  0  0  0
  185.6340  178.3920  142.9150 N   0  0  0  0  0  0  0  0  0  0  0  0
  184.0730  178.3860  141.0090 C   0  0  0  0  0  3  0  0  0  0  0  0
  179.3430  178.1010  141.6490 C   0  0  0  0  0  2  0  0  0  0  0  0
  180.4410  178.8140  140.8470 C   0  0  0  0  0  2  0  0  0  0  0  0
  180.7790  176.1440  139.5730 C   0  0  0  0  0  3  0  0  0  0  0  0
  181.8140  176.8790  139.9970 C   0  0  0  0  0  3  0  0  0  0  0  0
  181.6910  178.0480  140.8340 N   0  0  0  0  0  0  0  0  0  0  0  0
  179.3540  176.4240  139.9350 C   0  0  0  0  0  2  0  0  0  0  0  0
  179.2560  176.6640  141.3720 N   0  0  0  0  0  2  0  0  0  0  0  0
  191.1410  176.7550  147.6270 C   0  0  0  0  0  2  0  0  0  0  0  0
  192.2050  175.6660  147.6240 C   0  0  0  0  0  2  0  0  0  0  0  0
  193.1720  175.8320  148.7850 C   0  0  0  0  0  2  0  0  0  0  0  0
  193.1550  177.1530  149.2350 O   0  0  0  0  0  1  0  0  0  0  0  0
  1 27  1  0  0  0  0
  2  4  2  0  0  0  0
  2  5  1  0  0  0  0
  3 12  1  0  0  0  0
  3  8  2  0  0  0  0
  4 10  1  0  0  0  0
  5  7  2  0  0  0  0
  6 11  2  0  0  0  0
  7  1  1  0  0  0  0
  8  4  1  0  0  0  0
  9 12  2  0  0  0  0
  9  6  1  0  0  0  0
 10  1  2  0  0  0  0
 11  5  1  0  0  0  0
 12  2  1  0  0  0  0
 13 15  2  0  0  0  0
 14 13  1  0  0  0  0
 15 16  1  0  0  0  0
 17 18  1  0  0  0  0
 18  6  1  0  0  0  0
 18 16  1  0  0  0  0
 19 14  2  0  0  0  0
 19 17  1  0  0  0  0
 21 20  1  0  0  0  0
 22 25  1  0  0  0  0
 22 23  2  0  0  0  0
 23 24  1  0  0  0  0
 24 21  1  0  0  0  0
 24 14  1  0  0  0  0
 25 26  1  0  0  0  0
 26 20  1  0  0  0  0
 28 27  1  0  0  0  0
 28 29  1  0  0  0  0
 29 30  1  0  0  0  0
M  END
>  <MODEL>
5

>  <REMARK>
 VINA RESULT:      -8.8      2.868      4.587
  Name = 
  5 active torsions:
  status: ('A' for Active; 'I' for Inactive)
    1  A    between atoms: C_1  and  C_5
    2  A    between atoms: C_5  and  C_11
    3  A    between atoms: C_8  and  N_26
    4  A    between atoms: C_9  and  C_11
    5  A    between atoms: C_14  and  N_20
                            x       y       z     vdW  Elec       q    Type
                         _______ _______ _______ _____ _____    ______ ____

>  <TORSDO>
F 5

$$$$
=
 OpenBabel11062413273D

 30 34  0  0  0  0  0  0  0  0999 V2000
  189.3130  177.1420  146.1780 C   0  0  0  0  0  0  0  0  0  0  0  0
  187.7430  177.7770  144.0590 C   0  0  0  0  0  0  0  0  0  0  0  0
  185.5960  178.3570  143.8550 N   0  0  0  0  0  0  0  0  0  0  0  0
  187.1890  177.8220  145.2730 C   0  0  0  0  0  0  0  0  0  0  0  0
  189.0290  177.4320  143.7690 C   0  0  0  0  0  0  0  0  0  0  0  0
  188.4890  177.7450  141.4570 C   0  0  0  0  0  0  0  0  0  0  0  0
  189.8560  177.1010  144.8570 C   0  0  0  0  0  3  0  0  0  0  0  0
  185.8170  178.1960  145.1120 N   0  0  0  0  0  0  0  0  0  0  0  0
  187.1410  178.0930  141.8000 C   0  0  0  0  0  3  0  0  0  0  0  0
  187.9500  177.5010  146.4000 C   0  0  0  0  0  3  0  0  0  0  0  0
  189.3970  177.4210  142.4530 N   0  0  0  0  0  0  0  0  0  0  0  0
  186.8170  178.0940  143.1550 C   0  0  0  0  0  0  0  0  0  0  0  0
  189.4290  178.0620  137.0510 C   0  0  0  0  0  3  0  0  0  0  0  0
  190.1350  176.7980  137.3790 C   0  0  0  0  0  0  0  0  0  0  0  0
  188.4580  178.5860  137.8030 C   0  0  0  0  0  3  0  0  0  0  0  0
  187.9070  177.8940  139.0150 C   0  0  0  0  0  2  0  0  0  0  0  0
  190.3230  177.5050  139.7760 C   0  0  0  0  0  2  0  0  0  0  0  0
  188.9060  177.7250  140.0800 N   0  0  0  0  0  0  0  0  0  0  0  0
  190.5180  176.5420  138.6410 C   0  0  0  0  0  3  0  0  0  0  0  0
  189.6160  173.5550  136.0710 C   0  0  0  0  0  2  0  0  0  0  0  0
  189.4330  175.0370  135.7160 C   0  0  0  0  0  2  0  0  0  0  0  0
  192.3330  174.8900  135.0500 C   0  0  0  0  0  3  0  0  0  0  0  0
  191.8060  175.8880  135.7690 C   0  0  0  0  0  3  0  0  0  0  0  0
  190.4730  175.8750  136.3220 N   0  0  0  0  0  0  0  0  0  0  0  0
  191.6140  173.6120  134.7470 C   0  0  0  0  0  2  0  0  0  0  0  0
  191.0040  173.0960  135.9680 N   0  0  0  0  0  2  0  0  0  0  0  0
  190.1770  176.7750  147.3390 C   0  0  0  0  0  2  0  0  0  0  0  0
  191.6300  176.6150  146.9140 C   0  0  0  0  0  2  0  0  0  0  0  0
  192.3670  175.6360  147.8140 C   0  0  0  0  0  2  0  0  0  0  0  0
  193.1570  176.3320  148.7300 O   0  0  0  0  0  1  0  0  0  0  0  0
  1 10  1  0  0  0  0
  1 27  1  0  0  0  0
  2  4  1  0  0  0  0
  3  8  2  0  0  0  0
  4 10  2  0  0  0  0
  5  2  1  0  0  0  0
  5  7  1  0  0  0  0
  6  9  2  0  0  0  0
  6 11  1  0  0  0  0
  7  1  2  0  0  0  0
  8  4  1  0  0  0  0
  9 12  1  0  0  0  0
 11  5  2  0  0  0  0
 12  3  1  0  0  0  0
 12  2  2  0  0  0  0
 13 14  1  0  0  0  0
 13 15  2  0  0  0  0
 14 19  2  0  0  0  0
 15 16  1  0  0  0  0
 16 18  1  0  0  0  0
 17 18  1  0  0  0  0
 18  6  1  0  0  0  0
 19 17  1  0  0  0  0
 21 20  1  0  0  0  0
 21 24  1  0  0  0  0
 22 23  2  0  0  0  0
 23 24  1  0  0  0  0
 24 14  1  0  0  0  0
 25 22  1  0  0  0  0
 25 26  1  0  0  0  0
 26 20  1  0  0  0  0
 28 27  1  0  0  0  0
 28 29  1  0  0  0  0
 29 30  1  0  0  0  0
M  END
>  <MODEL>
6

>  <REMARK>
 VINA RESULT:      -8.6      4.975      7.098
  Name = 
  5 active torsions:
  status: ('A' for Active; 'I' for Inactive)
    1  A    between atoms: C_1  and  C_5
    2  A    between atoms: C_5  and  C_11
    3  A    between atoms: C_8  and  N_26
    4  A    between atoms: C_9  and  C_11
    5  A    between atoms: C_14  and  N_20
                            x       y       z     vdW  Elec       q    Type
                         _______ _______ _______ _____ _____    ______ ____

>  <TORSDO>
F 5

$$$$
=
 OpenBabel11062413273D

 30 34  0  0  0  0  0  0  0  0999 V2000
  185.5430  178.2300  145.2620 C   0  0  0  0  0  0  0  0  0  0  0  0
  188.0220  177.5430  144.4000 C   0  0  0  0  0  0  0  0  0  0  0  0
  189.9050  176.9530  145.4460 N   0  0  0  0  0  0  0  0  0  0  0  0
  187.7980  177.5250  145.7160 C   0  0  0  0  0  0  0  0  0  0  0  0
  187.1250  177.8860  143.4320 C   0  0  0  0  0  0  0  0  0  0  0  0
  188.8640  177.5190  141.8280 C   0  0  0  0  0  0  0  0  0  0  0  0
  185.8350  178.2430  143.8630 C   0  0  0  0  0  3  0  0  0  0  0  0
  189.0200  177.1430  146.3590 N   0  0  0  0  0  0  0  0  0  0  0  0
  189.7820  177.1750  142.8730 C   0  0  0  0  0  3  0  0  0  0  0  0
  186.5410  177.8730  146.2160 C   0  0  0  0  0  3  0  0  0  0  0  0
  187.5590  177.8680  142.1370 N   0  0  0  0  0  0  0  0  0  0  0  0
  189.2910  177.2040  144.1770 C   0  0  0  0  0  0  0  0  0  0  0  0
  189.8470  177.8770  137.4340 C   0  0  0  0  0  3  0  0  0  0  0  0
  190.5260  176.5960  137.7510 C   0  0  0  0  0  0  0  0  0  0  0  0
  188.8800  178.4100  138.1860 C   0  0  0  0  0  3  0  0  0  0  0  0
  188.3060  177.7120  139.3830 C   0  0  0  0  0  2  0  0  0  0  0  0
  190.7070  177.2670  140.1590 C   0  0  0  0  0  2  0  0  0  0  0  0
  189.2920  177.5100  140.4530 N   0  0  0  0  0  0  0  0  0  0  0  0
  190.8940  176.3160  139.0120 C   0  0  0  0  0  3  0  0  0  0  0  0
  189.3680  175.0180  134.8070 C   0  0  0  0  0  2  0  0  0  0  0  0
  190.4540  175.9810  135.3070 C   0  0  0  0  0  2  0  0  0  0  0  0
  191.8090  173.4730  136.1710 C   0  0  0  0  0  3  0  0  0  0  0  0
  191.7080  174.5490  136.9600 C   0  0  0  0  0  3  0  0  0  0  0  0
  190.8560  175.6810  136.6840 N   0  0  0  0  0  0  0  0  0  0  0  0
  191.0280  173.2910  134.9070 C   0  0  0  0  0  2  0  0  0  0  0  0
  189.6260  173.6160  135.1500 N   0  0  0  0  0  2  0  0  0  0  0  0
  184.1820  178.6250  145.7320 C   0  0  0  0  0  2  0  0  0  0  0  0
  183.4360  179.4080  144.6600 C   0  0  0  0  0  2  0  0  0  0  0  0
  182.2390  178.6290  144.1370 C   0  0  0  0  0  2  0  0  0  0  0  0
  182.1440  178.7750  142.7520 O   0  0  0  0  0  1  0  0  0  0  0  0
  1 27  1  0  0  0  0
  1 10  1  0  0  0  0
  2  4  1  0  0  0  0
  3  8  2  0  0  0  0
  4 10  2  0  0  0  0
  4  8  1  0  0  0  0
  5  7  1  0  0  0  0
  5  2  2  0  0  0  0
  6 11  2  0  0  0  0
  6  9  1  0  0  0  0
  7  1  2  0  0  0  0
  9 12  2  0  0  0  0
 11  5  1  0  0  0  0
 12  2  1  0  0  0  0
 12  3  1  0  0  0  0
 13 14  1  0  0  0  0
 13 15  2  0  0  0  0
 14 19  2  0  0  0  0
 15 16  1  0  0  0  0
 16 18  1  0  0  0  0
 17 18  1  0  0  0  0
 18  6  1  0  0  0  0
 19 17  1  0  0  0  0
 20 26  1  0  0  0  0
 20 21  1  0  0  0  0
 21 24  1  0  0  0  0
 22 23  2  0  0  0  0
 24 23  1  0  0  0  0
 24 14  1  0  0  0  0
 25 26  1  0  0  0  0
 25 22  1  0  0  0  0
 28 27  1  0  0  0  0
 29 28  1  0  0  0  0
 30 29  1  0  0  0  0
M  END
>  <MODEL>
7

>  <REMARK>
 VINA RESULT:      -8.5      5.483      7.985
  Name = 
  5 active torsions:
  status: ('A' for Active; 'I' for Inactive)
    1  A    between atoms: C_1  and  C_5
    2  A    between atoms: C_5  and  C_11
    3  A    between atoms: C_8  and  N_26
    4  A    between atoms: C_9  and  C_11
    5  A    between atoms: C_14  and  N_20
                            x       y       z     vdW  Elec       q    Type
                         _______ _______ _______ _____ _____    ______ ____

>  <TORSDO>
F 5

$$$$
=
 OpenBabel11062413273D

 30 34  0  0  0  0  0  0  0  0999 V2000
  188.8140  177.1340  144.6170 C   0  0  0  0  0  0  0  0  0  0  0  0
  186.4560  178.2060  145.4260 C   0  0  0  0  0  0  0  0  0  0  0  0
  185.7040  178.9640  147.3870 N   0  0  0  0  0  0  0  0  0  0  0  0
  187.4300  178.0990  146.3330 C   0  0  0  0  0  0  0  0  0  0  0  0
  186.5210  177.8180  144.1210 C   0  0  0  0  0  0  0  0  0  0  0  0
  184.2460  178.5290  143.8970 C   0  0  0  0  0  0  0  0  0  0  0  0
  187.7380  177.2620  143.6860 C   0  0  0  0  0  3  0  0  0  0  0  0
  186.9200  178.5920  147.5780 N   0  0  0  0  0  0  0  0  0  0  0  0
  184.2110  178.9150  145.2770 C   0  0  0  0  0  3  0  0  0  0  0  0
  188.6630  177.5510  145.9740 C   0  0  0  0  0  3  0  0  0  0  0  0
  185.4020  177.9880  143.3570 N   0  0  0  0  0  0  0  0  0  0  0  0
  185.3800  178.7270  146.0130 C   0  0  0  0  0  0  0  0  0  0  0  0
  180.3920  179.3490  141.6900 C   0  0  0  0  0  3  0  0  0  0  0  0
  180.9380  178.2450  140.8620 C   0  0  0  0  0  0  0  0  0  0  0  0
  180.7820  179.6000  142.9420 C   0  0  0  0  0  3  0  0  0  0  0  0
  181.7470  178.7210  143.6830 C   0  0  0  0  0  2  0  0  0  0  0  0
  183.2610  178.8050  141.6170 C   0  0  0  0  0  2  0  0  0  0  0  0
  183.0820  178.6950  143.0670 N   0  0  0  0  0  0  0  0  0  0  0  0
  182.2570  177.9890  140.8560 C   0  0  0  0  0  3  0  0  0  0  0  0
  179.2210  175.1870  140.4170 C   0  0  0  0  0  2  0  0  0  0  0  0
  178.9710  176.6930  140.5840 C   0  0  0  0  0  2  0  0  0  0  0  0
  179.6460  176.7860  137.6840 C   0  0  0  0  0  3  0  0  0  0  0  0
  180.1520  177.6490  138.5730 C   0  0  0  0  0  3  0  0  0  0  0  0
  180.0550  177.4920  140.0040 N   0  0  0  0  0  0  0  0  0  0  0  0
  178.9310  175.5260  138.0620 C   0  0  0  0  0  2  0  0  0  0  0  0
  179.6980  174.8180  139.0810 N   0  0  0  0  0  2  0  0  0  0  0  0
  190.1030  176.5280  144.1710 C   0  0  0  0  0  2  0  0  0  0  0  0
  191.2580  177.5050  144.3440 C   0  0  0  0  0  2  0  0  0  0  0  0
  191.5000  178.3070  143.0750 C   0  0  0  0  0  2  0  0  0  0  0  0
  191.6210  177.4460  141.9830 O   0  0  0  0  0  1  0  0  0  0  0  0
  1 10  1  0  0  0  0
  2 12  1  0  0  0  0
  2  4  1  0  0  0  0
  3  8  2  0  0  0  0
  4  8  1  0  0  0  0
  5  2  2  0  0  0  0
  6  9  1  0  0  0  0
  7  5  1  0  0  0  0
  7  1  2  0  0  0  0
  9 12  2  0  0  0  0
 10  4  2  0  0  0  0
 11  6  2  0  0  0  0
 11  5  1  0  0  0  0
 12  3  1  0  0  0  0
 13 15  2  0  0  0  0
 14 13  1  0  0  0  0
 15 16  1  0  0  0  0
 17 18  1  0  0  0  0
 18 16  1  0  0  0  0
 18  6  1  0  0  0  0
 19 14  2  0  0  0  0
 19 17  1  0  0  0  0
 20 21  1  0  0  0  0
 22 25  1  0  0  0  0
 22 23  2  0  0  0  0
 23 24  1  0  0  0  0
 24 21  1  0  0  0  0
 24 14  1  0  0  0  0
 25 26  1  0  0  0  0
 26 20  1  0  0  0  0
 27 28  1  0  0  0  0
 27  1  1  0  0  0  0
 29 28  1  0  0  0  0
 30 29  1  0  0  0  0
M  END
>  <MODEL>
8

>  <REMARK>
 VINA RESULT:      -8.5      2.803      3.715
  Name = 
  5 active torsions:
  status: ('A' for Active; 'I' for Inactive)
    1  A    between atoms: C_1  and  C_5
    2  A    between atoms: C_5  and  C_11
    3  A    between atoms: C_8  and  N_26
    4  A    between atoms: C_9  and  C_11
    5  A    between atoms: C_14  and  N_20
                            x       y       z     vdW  Elec       q    Type
                         _______ _______ _______ _____ _____    ______ ____

>  <TORSDO>
F 5

$$$$
=
 OpenBabel11062413273D

 30 34  0  0  0  0  0  0  0  0999 V2000
  184.9950  178.4380  145.3330 C   0  0  0  0  0  0  0  0  0  0  0  0
  184.4940  178.6500  142.6750 C   0  0  0  0  0  0  0  0  0  0  0  0
  182.6270  178.9130  141.4790 N   0  0  0  0  0  0  0  0  0  0  0  0
  183.4540  178.7360  143.5090 C   0  0  0  0  0  0  0  0  0  0  0  0
  185.7970  178.4550  143.0250 C   0  0  0  0  0  0  0  0  0  0  0  0
  186.3250  178.4700  140.6890 C   0  0  0  0  0  0  0  0  0  0  0  0
  186.0730  178.3450  144.3990 C   0  0  0  0  0  3  0  0  0  0  0  0
  182.2740  178.9050  142.7150 N   0  0  0  0  0  0  0  0  0  0  0  0
  184.9440  178.6640  140.3590 C   0  0  0  0  0  3  0  0  0  0  0  0
  183.6530  178.6300  144.8870 C   0  0  0  0  0  3  0  0  0  0  0  0
  186.7140  178.3680  142.0160 N   0  0  0  0  0  0  0  0  0  0  0  0
  184.0490  178.7520  141.4240 C   0  0  0  0  0  0  0  0  0  0  0  0
  189.0600  178.3810  137.0960 C   0  0  0  0  0  3  0  0  0  0  0  0
  189.8200  177.5080  138.0250 C   0  0  0  0  0  0  0  0  0  0  0  0
  187.7590  178.6520  137.2300 C   0  0  0  0  0  3  0  0  0  0  0  0
  186.9010  178.0150  138.2840 C   0  0  0  0  0  2  0  0  0  0  0  0
  188.7200  178.6110  139.9890 C   0  0  0  0  0  2  0  0  0  0  0  0
  187.3140  178.3740  139.6480 N   0  0  0  0  0  0  0  0  0  0  0  0
  189.6360  177.6060  139.3530 C   0  0  0  0  0  3  0  0  0  0  0  0
  193.1390  176.3320  138.3370 C   0  0  0  0  0  2  0  0  0  0  0  0
  191.6820  175.8540  138.4160 C   0  0  0  0  0  2  0  0  0  0  0  0
  191.8920  175.7920  135.4450 C   0  0  0  0  0  3  0  0  0  0  0  0
  190.8450  176.3260  136.0850 C   0  0  0  0  0  3  0  0  0  0  0  0
  190.8130  176.6020  137.5010 N   0  0  0  0  0  0  0  0  0  0  0  0
  193.1820  175.4330  136.1140 C   0  0  0  0  0  2  0  0  0  0  0  0
  193.6130  176.5380  136.9650 N   0  0  0  0  0  2  0  0  0  0  0  0
  185.2740  178.3040  146.7930 C   0  0  0  0  0  2  0  0  0  0  0  0
  186.5810  178.9900  147.1680 C   0  0  0  0  0  2  0  0  0  0  0  0
  187.5610  178.0100  147.7950 C   0  0  0  0  0  2  0  0  0  0  0  0
  188.6550  177.8240  146.9500 O   0  0  0  0  0  1  0  0  0  0  0  0
  1 27  1  0  0  0  0
  2  5  1  0  0  0  0
  2  4  1  0  0  0  0
  3  8  2  0  0  0  0
  4 10  2  0  0  0  0
  5  7  1  0  0  0  0
  6 11  1  0  0  0  0
  7  1  2  0  0  0  0
  8  4  1  0  0  0  0
  9  6  2  0  0  0  0
  9 12  1  0  0  0  0
 10  1  1  0  0  0  0
 11  5  2  0  0  0  0
 12  3  1  0  0  0  0
 12  2  2  0  0  0  0
 13 15  2  0  0  0  0
 13 14  1  0  0  0  0
 14 19  2  0  0  0  0
 15 16  1  0  0  0  0
 16 18  1  0  0  0  0
 18 17  1  0  0  0  0
 18  6  1  0  0  0  0
 19 17  1  0  0  0  0
 20 21  1  0  0  0  0
 22 23  2  0  0  0  0
 22 25  1  0  0  0  0
 23 24  1  0  0  0  0
 24 14  1  0  0  0  0
 24 21  1  0  0  0  0
 25 26  1  0  0  0  0
 26 20  1  0  0  0  0
 27 28  1  0  0  0  0
 28 29  1  0  0  0  0
 30 29  1  0  0  0  0
M  END
>  <MODEL>
9

>  <REMARK>
 VINA RESULT:      -8.4      4.659      7.336
  Name = 
  5 active torsions:
  status: ('A' for Active; 'I' for Inactive)
    1  A    between atoms: C_1  and  C_5
    2  A    between atoms: C_5  and  C_11
    3  A    between atoms: C_8  and  N_26
    4  A    between atoms: C_9  and  C_11
    5  A    between atoms: C_14  and  N_20
                            x       y       z     vdW  Elec       q    Type
                         _______ _______ _______ _____ _____    ______ ____

>  <TORSDO>
F 5

$$$$
