=
 OpenBabel11062413023D

 38 43  0  0  1  0  0  0  0  0999 V2000
  188.5410  176.7070  136.5250 O   0  0  0  0  0  0  0  0  0  0  0  0
  187.5430  176.6860  135.5050 C   0  0  1  0  0  0  0  0  0  0  0  0
  187.0690  177.4820  138.1800 N   0  0  0  0  0  0  0  0  0  0  0  0
  187.5550  177.9520  134.7910 N   0  0  0  0  0  1  0  0  0  0  0  0
  185.9450  177.4720  137.2440 C   0  0  1  0  0  3  0  0  0  0  0  0
  188.2770  177.1620  137.8230 C   0  0  0  0  0  0  0  0  0  0  0  0
  187.8210  175.6560  134.6090 O   0  0  0  0  0  1  0  0  0  0  0  0
  186.1680  176.4560  136.1250 C   0  0  0  0  0  2  0  0  0  0  0  0
  184.6490  177.1570  137.9820 C   0  0  0  0  0  2  0  0  0  0  0  0
  183.5810  178.2490  137.8080 C   0  0  1  0  0  3  0  0  0  0  0  0
  181.3090  178.7920  136.9670 C   0  0  0  0  0  2  0  0  0  0  0  0
  182.2510  177.6630  137.3360 C   0  0  0  0  0  3  0  0  0  0  0  0
  182.0190  178.0180  135.8800 C   0  0  0  0  0  2  0  0  0  0  0  0
  183.4240  179.0790  139.0940 C   0  0  2  0  0  3  0  0  0  0  0  0
  184.1950  180.2450  139.0450 O   0  0  0  0  0  1  0  0  0  0  0  0
  183.7830  178.2710  140.3420 C   0  0  0  0  0  2  0  0  0  0  0  0
  183.0830  178.8110  142.5950 O   0  0  0  0  0  0  0  0  0  0  0  0
  184.3740  178.2620  142.6830 C   0  0  2  0  0  3  0  0  0  0  0  0
  185.3960  179.1800  142.0580 C   0  0  0  0  0  2  0  0  0  0  0  0
  183.9710  179.1570  141.5630 C   0  0  1  0  0  0  0  0  0  0  0  0
  189.3840  177.2480  138.8150 C   0  0  0  0  0  2  0  0  0  0  0  0
  188.8500  177.8000  140.1250 C   0  0  0  0  0  2  0  0  0  0  0  0
  188.3080  177.0100  142.4190 C   0  0  0  0  0  2  0  0  0  0  0  0
  190.2750  177.9420  143.2210 C   0  0  0  0  0  0  0  0  0  0  0  0
  189.0330  177.6560  143.5600 C   0  0  0  0  0  0  0  0  0  0  0  0
  189.3510  176.9680  141.2950 C   0  0  2  0  0  3  0  0  0  0  0  0
  191.8480  177.6150  141.2450 C   0  0  0  0  0  1  0  0  0  0  0  0
  190.5420  177.5680  141.8800 N   0  0  0  0  0  0  0  0  0  0  0  0
  186.9370  177.6360  144.9090 C   0  0  0  0  0  2  0  0  0  0  0  0
  186.4890  179.3900  147.5630 O   0  0  0  0  0  0  0  0  0  0  0  0
  186.2870  177.4170  146.2800 C   0  0  0  0  0  2  0  0  0  0  0  0
  189.3510  177.7680  147.2560 C   0  0  0  0  0  2  0  0  0  0  0  0
  189.2020  176.9960  145.9470 C   0  0  0  0  0  2  0  0  0  0  0  0
  188.4600  177.8570  144.9270 C   0  0  1  0  0  3  0  0  0  0  0  0
  188.0800  177.7280  148.1040 C   0  0  0  0  0  2  0  0  0  0  0  0
  186.9000  178.2600  147.3520 C   0  0  0  0  0  0  0  0  0  0  0  0
  191.3090  178.4920  144.1470 C   0  0  0  0  0  2  0  0  0  0  0  0
  191.2710  179.8870  144.1160 O   0  0  0  0  0  1  0  0  0  0  0  0
  1  6  1  0  0  0  0
  2  7  1  6  0  0  0
  2  8  1  0  0  0  0
  2  1  1  0  0  0  0
  4  2  1  0  0  0  0
  5  9  1  1  0  0  0
  5  3  1  0  0  0  0
  6  3  2  0  0  0  0
  6 21  1  0  0  0  0
  8  5  1  0  0  0  0
 10  9  1  1  0  0  0
 10 14  1  0  0  0  0
 11 12  1  0  0  0  0
 12 10  1  0  0  0  0
 13 11  1  0  0  0  0
 13 12  1  0  0  0  0
 14 15  1  6  0  0  0
 14 16  1  0  0  0  0
 17 18  1  0  0  0  0
 18 19  1  1  0  0  0
 20 16  1  6  0  0  0
 20 19  1  0  0  0  0
 20 17  1  0  0  0  0
 20 18  1  0  0  0  0
 21 22  1  0  0  0  0
 23 25  1  0  0  0  0
 24 25  2  0  0  0  0
 24 37  1  0  0  0  0
 26 22  1  6  0  0  0
 26 28  1  0  0  0  0
 26 23  1  0  0  0  0
 27 28  1  0  0  0  0
 28 24  1  0  0  0  0
 29 34  1  0  0  0  0
 29 31  1  0  0  0  0
 31 36  1  0  0  0  0
 32 35  1  0  0  0  0
 33 32  1  0  0  0  0
 34 25  1  6  0  0  0
 34 33  1  0  0  0  0
 36 30  2  0  0  0  0
 36 35  1  0  0  0  0
 38 37  1  0  0  0  0
M  END
>  <MODEL>
1

>  <REMARK>
 VINA RESULT:      -8.1      0.000      0.000
  Name = 
  11 active torsions:
  status: ('A' for Active; 'I' for Inactive)
    1  A    between atoms: C_4  and  C_14
    2  A    between atoms: C_4  and  C_35
    3  A    between atoms: C_10  and  C_24
    4  A    between atoms: C_10  and  C_30
    5  A    between atoms: C_14  and  C_17
    6  A    between atoms: C_15  and  C_25
    7  A    between atoms: C_16  and  C_17
    8  A    between atoms: C_17  and  C_22
    9  A    between atoms: C_18  and  C_20
   10  A    between atoms: C_22  and  C_28
   11  A    between atoms: C_30  and  C_32
                            x       y       z     vdW  Elec       q    Type
                         _______ _______ _______ _____ _____    ______ ____

>  <TORSDO>
F 11

$$$$
=
 OpenBabel11062413023D

 38 43  0  0  1  0  0  0  0  0999 V2000
  187.3850  176.0880  137.4760 O   0  0  0  0  0  0  0  0  0  0  0  0
  186.1580  176.0300  136.7480 C   0  0  1  0  0  0  0  0  0  0  0  0
  186.9010  178.1700  138.4450 N   0  0  0  0  0  0  0  0  0  0  0  0
  186.3570  176.5890  135.4210 N   0  0  0  0  0  1  0  0  0  0  0  0
  185.5970  178.2210  137.7870 C   0  0  1  0  0  3  0  0  0  0  0  0
  187.7390  177.1930  138.2620 C   0  0  0  0  0  0  0  0  0  0  0  0
  185.7580  174.7010  136.6260 O   0  0  0  0  0  1  0  0  0  0  0  0
  185.0770  176.8170  137.4830 C   0  0  0  0  0  2  0  0  0  0  0  0
  184.5940  178.9670  138.6600 C   0  0  0  0  0  2  0  0  0  0  0  0
  184.2810  178.2310  139.9730 C   0  0  1  0  0  3  0  0  0  0  0  0
  183.7780  178.7790  142.3420 C   0  0  0  0  0  2  0  0  0  0  0  0
  184.7280  179.0410  141.1890 C   0  0  0  0  0  3  0  0  0  0  0  0
  185.1300  178.1040  142.3130 C   0  0  0  0  0  2  0  0  0  0  0  0
  182.7940  177.8450  140.0500 C   0  0  2  0  0  3  0  0  0  0  0  0
  182.6140  176.4710  139.8580 O   0  0  0  0  0  1  0  0  0  0  0  0
  181.9490  178.6260  139.0430 C   0  0  0  0  0  2  0  0  0  0  0  0
  180.0860  180.1530  138.8050 O   0  0  0  0  0  0  0  0  0  0  0  0
  179.6060  179.0170  139.4790 C   0  0  2  0  0  3  0  0  0  0  0  0
  180.2140  178.9080  140.8560 C   0  0  0  0  0  2  0  0  0  0  0  0
  180.9680  179.5660  139.7270 C   0  0  1  0  0  0  0  0  0  0  0  0
  189.0730  177.2350  138.9200 C   0  0  0  0  0  2  0  0  0  0  0  0
  188.9590  177.9510  140.2540 C   0  0  0  0  0  2  0  0  0  0  0  0
  188.4170  177.0880  142.5220 C   0  0  0  0  0  2  0  0  0  0  0  0
  190.4300  177.9090  143.3310 C   0  0  0  0  0  0  0  0  0  0  0  0
  189.1820  177.6580  143.6770 C   0  0  0  0  0  0  0  0  0  0  0  0
  189.4420  177.0520  141.3810 C   0  0  2  0  0  3  0  0  0  0  0  0
  191.9620  177.6040  141.3200 C   0  0  0  0  0  1  0  0  0  0  0  0
  190.6640  177.5820  141.9720 N   0  0  0  0  0  0  0  0  0  0  0  0
  187.1010  177.7200  145.0480 C   0  0  0  0  0  2  0  0  0  0  0  0
  186.8070  179.3520  147.8000 O   0  0  0  0  0  0  0  0  0  0  0  0
  186.4460  177.4750  146.4120 C   0  0  0  0  0  2  0  0  0  0  0  0
  189.5350  177.5390  147.3700 C   0  0  0  0  0  2  0  0  0  0  0  0
  189.3190  176.8550  146.0220 C   0  0  0  0  0  2  0  0  0  0  0  0
  188.6370  177.8250  145.0600 C   0  0  1  0  0  3  0  0  0  0  0  0
  188.2720  177.5470  148.2290 C   0  0  0  0  0  2  0  0  0  0  0  0
  187.1300  178.2080  147.5210 C   0  0  0  0  0  0  0  0  0  0  0  0
  191.4980  178.3810  144.2630 C   0  0  0  0  0  2  0  0  0  0  0  0
  191.4870  179.7760  144.3210 O   0  0  0  0  0  1  0  0  0  0  0  0
  1  6  1  0  0  0  0
  2  4  1  6  0  0  0
  2  1  1  0  0  0  0
  2  8  1  0  0  0  0
  5  3  1  0  0  0  0
  5  9  1  1  0  0  0
  6  3  2  0  0  0  0
  6 21  1  0  0  0  0
  7  2  1  0  0  0  0
  8  5  1  0  0  0  0
 10  9  1  6  0  0  0
 10 14  1  0  0  0  0
 10 12  1  0  0  0  0
 12 13  1  0  0  0  0
 12 11  1  0  0  0  0
 13 11  1  0  0  0  0
 14 15  1  6  0  0  0
 16 14  1  0  0  0  0
 17 18  1  0  0  0  0
 17 20  1  0  0  0  0
 18 20  1  0  0  0  0
 18 19  1  1  0  0  0
 20 16  1  6  0  0  0
 20 19  1  0  0  0  0
 21 22  1  0  0  0  0
 23 25  1  0  0  0  0
 24 25  2  0  0  0  0
 24 37  1  0  0  0  0
 26 22  1  6  0  0  0
 26 28  1  0  0  0  0
 26 23  1  0  0  0  0
 27 28  1  0  0  0  0
 28 24  1  0  0  0  0
 29 34  1  0  0  0  0
 29 31  1  0  0  0  0
 31 36  1  0  0  0  0
 32 35  1  0  0  0  0
 33 32  1  0  0  0  0
 34 25  1  6  0  0  0
 34 33  1  0  0  0  0
 36 30  2  0  0  0  0
 36 35  1  0  0  0  0
 37 38  1  0  0  0  0
M  END
>  <MODEL>
2

>  <REMARK>
 VINA RESULT:      -8.0      1.514      2.659
  Name = 
  11 active torsions:
  status: ('A' for Active; 'I' for Inactive)
    1  A    between atoms: C_4  and  C_14
    2  A    between atoms: C_4  and  C_35
    3  A    between atoms: C_10  and  C_24
    4  A    between atoms: C_10  and  C_30
    5  A    between atoms: C_14  and  C_17
    6  A    between atoms: C_15  and  C_25
    7  A    between atoms: C_16  and  C_17
    8  A    between atoms: C_17  and  C_22
    9  A    between atoms: C_18  and  C_20
   10  A    between atoms: C_22  and  C_28
   11  A    between atoms: C_30  and  C_32
                            x       y       z     vdW  Elec       q    Type
                         _______ _______ _______ _____ _____    ______ ____

>  <TORSDO>
F 11

$$$$
=
 OpenBabel11062413023D

 38 43  0  0  1  0  0  0  0  0999 V2000
  189.4900  177.9960  140.0880 O   0  0  0  0  0  0  0  0  0  0  0  0
  190.5980  177.1960  140.4980 C   0  0  1  0  0  0  0  0  0  0  0  0
  188.0700  177.1820  141.7690 N   0  0  0  0  0  0  0  0  0  0  0  0
  190.5920  175.9450  139.7560 N   0  0  0  0  0  1  0  0  0  0  0  0
  189.1320  176.3380  142.3160 C   0  0  1  0  0  3  0  0  0  0  0  0
  188.2370  177.9170  140.7100 C   0  0  0  0  0  0  0  0  0  0  0  0
  191.7830  177.8780  140.2270 O   0  0  0  0  0  1  0  0  0  0  0  0
  190.5110  176.9100  141.9940 C   0  0  0  0  0  2  0  0  0  0  0  0
  188.9680  176.1970  143.8250 C   0  0  0  0  0  2  0  0  0  0  0  0
  188.3570  177.4470  144.4790 C   0  0  1  0  0  3  0  0  0  0  0  0
  186.4650  178.3890  145.7840 C   0  0  0  0  0  2  0  0  0  0  0  0
  186.9840  177.1490  145.0800 C   0  0  0  0  0  3  0  0  0  0  0  0
  185.9320  178.0200  144.4190 C   0  0  0  0  0  2  0  0  0  0  0  0
  189.3190  178.0590  145.5110 C   0  0  2  0  0  3  0  0  0  0  0  0
  190.3980  178.6960  144.8870 O   0  0  0  0  0  1  0  0  0  0  0  0
  189.8340  177.0140  146.5020 C   0  0  0  0  0  2  0  0  0  0  0  0
  191.8000  177.1680  147.9050 O   0  0  0  0  0  0  0  0  0  0  0  0
  191.7260  175.8430  147.4420 C   0  0  2  0  0  3  0  0  0  0  0  0
  191.9660  175.7770  145.9530 C   0  0  0  0  0  2  0  0  0  0  0  0
  191.3530  177.0020  146.5840 C   0  0  1  0  0  0  0  0  0  0  0  0
  187.0940  178.7070  140.1770 C   0  0  0  0  0  2  0  0  0  0  0  0
  186.5350  178.0230  138.9420 C   0  0  0  0  0  2  0  0  0  0  0  0
  184.4880  179.1120  139.8380 C   0  0  0  0  0  2  0  0  0  0  0  0
  183.1710  177.4680  138.8680 C   0  0  0  0  0  0  0  0  0  0  0  0
  183.2390  178.2870  139.8990 C   0  0  0  0  0  0  0  0  0  0  0  0
  185.1910  178.6250  138.5650 C   0  0  2  0  0  3  0  0  0  0  0  0
  184.4690  176.9510  136.7380 C   0  0  0  0  0  1  0  0  0  0  0  0
  184.3030  177.6030  138.0270 N   0  0  0  0  0  0  0  0  0  0  0  0
  182.7870  178.5940  142.3320 C   0  0  0  0  0  2  0  0  0  0  0  0
  180.1070  177.6060  143.8020 O   0  0  0  0  0  0  0  0  0  0  0  0
  181.8500  179.1500  143.4100 C   0  0  0  0  0  2  0  0  0  0  0  0
  179.7860  179.1880  140.9200 C   0  0  0  0  0  2  0  0  0  0  0  0
  181.2160  179.5720  140.5450 C   0  0  0  0  0  2  0  0  0  0  0  0
  182.1670  178.4410  140.9310 C   0  0  1  0  0  3  0  0  0  0  0  0
  179.4930  179.4090  142.4030 C   0  0  0  0  0  2  0  0  0  0  0  0
  180.4480  178.6510  143.2720 C   0  0  0  0  0  0  0  0  0  0  0  0
  182.0110  176.5800  138.5560 C   0  0  0  0  0  2  0  0  0  0  0  0
  181.1290  177.2440  137.7020 O   0  0  0  0  0  1  0  0  0  0  0  0
  1  2  1  0  0  0  0
  1  6  1  0  0  0  0
  2  4  1  6  0  0  0
  2  8  1  0  0  0  0
  3  5  1  0  0  0  0
  5  9  1  1  0  0  0
  6  3  2  0  0  0  0
  7  2  1  0  0  0  0
  8  5  1  0  0  0  0
 10  9  1  1  0  0  0
 10 12  1  0  0  0  0
 10 14  1  0  0  0  0
 12 11  1  0  0  0  0
 13 12  1  0  0  0  0
 13 11  1  0  0  0  0
 14 15  1  6  0  0  0
 14 16  1  0  0  0  0
 18 19  1  6  0  0  0
 18 17  1  0  0  0  0
 19 20  1  0  0  0  0
 20 16  1  6  0  0  0
 20 18  1  0  0  0  0
 20 17  1  0  0  0  0
 21  6  1  0  0  0  0
 22 21  1  0  0  0  0
 23 25  1  0  0  0  0
 24 25  2  0  0  0  0
 26 22  1  1  0  0  0
 26 23  1  0  0  0  0
 27 28  1  0  0  0  0
 28 26  1  0  0  0  0
 28 24  1  0  0  0  0
 29 31  1  0  0  0  0
 32 35  1  0  0  0  0
 33 32  1  0  0  0  0
 33 34  1  0  0  0  0
 34 25  1  6  0  0  0
 34 29  1  0  0  0  0
 35 36  1  0  0  0  0
 36 31  1  0  0  0  0
 36 30  2  0  0  0  0
 37 24  1  0  0  0  0
 38 37  1  0  0  0  0
M  END
>  <MODEL>
3

>  <REMARK>
 VINA RESULT:      -8.0      2.518      7.914
  Name = 
  11 active torsions:
  status: ('A' for Active; 'I' for Inactive)
    1  A    between atoms: C_4  and  C_14
    2  A    between atoms: C_4  and  C_35
    3  A    between atoms: C_10  and  C_24
    4  A    between atoms: C_10  and  C_30
    5  A    between atoms: C_14  and  C_17
    6  A    between atoms: C_15  and  C_25
    7  A    between atoms: C_16  and  C_17
    8  A    between atoms: C_17  and  C_22
    9  A    between atoms: C_18  and  C_20
   10  A    between atoms: C_22  and  C_28
   11  A    between atoms: C_30  and  C_32
                            x       y       z     vdW  Elec       q    Type
                         _______ _______ _______ _____ _____    ______ ____

>  <TORSDO>
F 11

$$$$
=
 OpenBabel11062413023D

 38 43  0  0  1  0  0  0  0  0999 V2000
  190.4850  178.3490  141.7410 O   0  0  0  0  0  0  0  0  0  0  0  0
  190.7750  178.0210  143.0990 C   0  0  1  0  0  0  0  0  0  0  0  0
  188.5040  177.0910  141.6900 N   0  0  0  0  0  0  0  0  0  0  0  0
  191.6310  176.8460  143.1410 N   0  0  0  0  0  1  0  0  0  0  0  0
  188.6620  176.7070  143.0920 C   0  0  1  0  0  3  0  0  0  0  0  0
  189.3780  177.8200  141.0630 C   0  0  0  0  0  0  0  0  0  0  0  0
  191.4410  179.0890  143.6980 O   0  0  0  0  0  1  0  0  0  0  0  0
  189.4810  177.7440  143.8590 C   0  0  0  0  0  2  0  0  0  0  0  0
  187.2960  176.5370  143.7490 C   0  0  0  0  0  2  0  0  0  0  0  0
  186.5240  177.8610  143.8730 C   0  0  1  0  0  3  0  0  0  0  0  0
  184.5170  179.1340  143.1530 C   0  0  0  0  0  2  0  0  0  0  0  0
  185.4300  177.9730  142.8110 C   0  0  0  0  0  3  0  0  0  0  0  0
  185.5620  179.2910  142.0720 C   0  0  0  0  0  2  0  0  0  0  0  0
  185.9710  178.0480  145.2960 C   0  0  2  0  0  3  0  0  0  0  0  0
  185.9900  179.3930  145.6780 O   0  0  0  0  0  1  0  0  0  0  0  0
  186.7320  177.2050  146.3200 C   0  0  0  0  0  2  0  0  0  0  0  0
  187.2920  178.5370  148.2610 O   0  0  0  0  0  0  0  0  0  0  0  0
  188.0150  177.3360  148.3610 C   0  0  2  0  0  3  0  0  0  0  0  0
  189.0660  177.2440  147.2820 C   0  0  0  0  0  2  0  0  0  0  0  0
  187.7890  178.0140  147.0550 C   0  0  1  0  0  0  0  0  0  0  0  0
  189.1810  178.1250  139.6200 C   0  0  0  0  0  2  0  0  0  0  0  0
  188.2260  177.1130  139.0120 C   0  0  0  0  0  2  0  0  0  0  0  0
  186.1980  178.5300  138.7760 C   0  0  0  0  0  2  0  0  0  0  0  0
  185.1990  176.9060  137.4550 C   0  0  0  0  0  0  0  0  0  0  0  0
  184.9360  177.8580  138.3290 C   0  0  0  0  0  0  0  0  0  0  0  0
  187.3020  177.7890  138.0120 C   0  0  2  0  0  3  0  0  0  0  0  0
  187.2010  175.9470  136.2070 C   0  0  0  0  0  1  0  0  0  0  0  0
  186.5910  176.7960  137.2170 N   0  0  0  0  0  0  0  0  0  0  0  0
  183.0610  177.4080  139.9100 C   0  0  0  0  0  2  0  0  0  0  0  0
  179.9750  178.0180  139.2600 O   0  0  0  0  0  0  0  0  0  0  0  0
  181.8600  177.9680  140.6810 C   0  0  0  0  0  2  0  0  0  0  0  0
  182.1930  180.3520  138.5200 C   0  0  0  0  0  2  0  0  0  0  0  0
  183.5170  179.7770  139.0160 C   0  0  0  0  0  2  0  0  0  0  0  0
  183.5590  178.2750  138.7390 C   0  0  1  0  0  3  0  0  0  0  0  0
  181.0470  180.1100  139.5020 C   0  0  0  0  0  2  0  0  0  0  0  0
  180.8710  178.6520  139.7930 C   0  0  0  0  0  0  0  0  0  0  0  0
  184.1690  176.1080  136.7240 C   0  0  0  0  0  2  0  0  0  0  0  0
  183.9460  174.9050  137.3950 O   0  0  0  0  0  1  0  0  0  0  0  0
  1  2  1  0  0  0  0
  2  4  1  1  0  0  0
  2  7  1  0  0  0  0
  2  8  1  0  0  0  0
  3  5  1  0  0  0  0
  5  9  1  1  0  0  0
  5  8  1  0  0  0  0
  6  3  2  0  0  0  0
  6  1  1  0  0  0  0
 10  9  1  1  0  0  0
 10 14  1  0  0  0  0
 12 11  1  0  0  0  0
 12 10  1  0  0  0  0
 13 12  1  0  0  0  0
 13 11  1  0  0  0  0
 14 15  1  1  0  0  0
 14 16  1  0  0  0  0
 17 18  1  0  0  0  0
 18 19  1  1  0  0  0
 20 16  1  6  0  0  0
 20 19  1  0  0  0  0
 20 17  1  0  0  0  0
 20 18  1  0  0  0  0
 21  6  1  0  0  0  0
 22 21  1  0  0  0  0
 24 25  2  0  0  0  0
 25 23  1  0  0  0  0
 26 23  1  0  0  0  0
 26 22  1  1  0  0  0
 27 28  1  0  0  0  0
 28 24  1  0  0  0  0
 28 26  1  0  0  0  0
 29 31  1  0  0  0  0
 30 36  2  0  0  0  0
 32 33  1  0  0  0  0
 32 35  1  0  0  0  0
 34 25  1  1  0  0  0
 34 33  1  0  0  0  0
 34 29  1  0  0  0  0
 35 36  1  0  0  0  0
 36 31  1  0  0  0  0
 37 38  1  0  0  0  0
 37 24  1  0  0  0  0
M  END
>  <MODEL>
4

>  <REMARK>
 VINA RESULT:      -8.0      2.010      7.562
  Name = 
  11 active torsions:
  status: ('A' for Active; 'I' for Inactive)
    1  A    between atoms: C_4  and  C_14
    2  A    between atoms: C_4  and  C_35
    3  A    between atoms: C_10  and  C_24
    4  A    between atoms: C_10  and  C_30
    5  A    between atoms: C_14  and  C_17
    6  A    between atoms: C_15  and  C_25
    7  A    between atoms: C_16  and  C_17
    8  A    between atoms: C_17  and  C_22
    9  A    between atoms: C_18  and  C_20
   10  A    between atoms: C_22  and  C_28
   11  A    between atoms: C_30  and  C_32
                            x       y       z     vdW  Elec       q    Type
                         _______ _______ _______ _____ _____    ______ ____

>  <TORSDO>
F 11

$$$$
=
 OpenBabel11062413023D

 38 43  0  0  1  0  0  0  0  0999 V2000
  187.8970  178.0970  138.1720 O   0  0  0  0  0  0  0  0  0  0  0  0
  187.1700  178.2610  136.9540 C   0  0  1  0  0  0  0  0  0  0  0  0
  186.0260  178.4870  139.5330 N   0  0  0  0  0  0  0  0  0  0  0  0
  187.2600  179.6460  136.5200 N   0  0  0  0  0  1  0  0  0  0  0  0
  185.1570  178.6420  138.3670 C   0  0  1  0  0  3  0  0  0  0  0  0
  187.3030  178.2740  139.4290 C   0  0  0  0  0  0  0  0  0  0  0  0
  187.7240  177.4410  135.9740 O   0  0  0  0  0  1  0  0  0  0  0  0
  185.7080  177.8790  137.1640 C   0  0  0  0  0  2  0  0  0  0  0  0
  183.7490  178.1550  138.6900 C   0  0  0  0  0  2  0  0  0  0  0  0
  182.8840  179.2310  139.3640 C   0  0  1  0  0  3  0  0  0  0  0  0
  180.9580  180.7700  139.0540 C   0  0  0  0  0  2  0  0  0  0  0  0
  182.0600  180.0110  138.3390 C   0  0  0  0  0  3  0  0  0  0  0  0
  182.1980  181.5000  138.5910 C   0  0  0  0  0  2  0  0  0  0  0  0
  182.0050  178.6230  140.4700 C   0  0  2  0  0  3  0  0  0  0  0  0
  182.6590  178.6390  141.7070 O   0  0  0  0  0  1  0  0  0  0  0  0
  181.5660  177.1980  140.1310 C   0  0  0  0  0  2  0  0  0  0  0  0
  179.6590  175.7950  139.6280 O   0  0  0  0  0  0  0  0  0  0  0  0
  179.4160  176.3910  140.8780 C   0  0  2  0  0  3  0  0  0  0  0  0
  179.2110  177.8790  140.7370 C   0  0  0  0  0  2  0  0  0  0  0  0
  180.0900  177.1240  139.7710 C   0  0  1  0  0  0  0  0  0  0  0  0
  188.1360  178.1830  140.6590 C   0  0  0  0  0  2  0  0  0  0  0  0
  189.2190  177.1370  140.4650 C   0  0  0  0  0  2  0  0  0  0  0  0
  188.5370  176.6790  142.8110 C   0  0  0  0  0  2  0  0  0  0  0  0
  190.2470  178.0390  143.5890 C   0  0  0  0  0  0  0  0  0  0  0  0
  189.0280  177.6200  143.8670 C   0  0  0  0  0  0  0  0  0  0  0  0
  189.6960  176.6110  141.8080 C   0  0  2  0  0  3  0  0  0  0  0  0
  192.0650  177.6320  141.8520 C   0  0  0  0  0  1  0  0  0  0  0  0
  190.7160  177.4870  142.3700 N   0  0  0  0  0  0  0  0  0  0  0  0
  186.7640  177.8330  144.8890 C   0  0  0  0  0  2  0  0  0  0  0  0
  186.0670  179.8100  147.3240 O   0  0  0  0  0  0  0  0  0  0  0  0
  185.9090  177.7610  146.1600 C   0  0  0  0  0  2  0  0  0  0  0  0
  188.8190  177.9960  147.5540 C   0  0  0  0  0  2  0  0  0  0  0  0
  188.8050  177.1370  146.2920 C   0  0  0  0  0  2  0  0  0  0  0  0
  188.2810  177.9610  145.1180 C   0  0  1  0  0  3  0  0  0  0  0  0
  187.4400  178.0990  148.2050 C   0  0  0  0  0  2  0  0  0  0  0  0
  186.4210  178.6440  147.2520 C   0  0  0  0  0  0  0  0  0  0  0  0
  191.0810  178.9000  144.4800 C   0  0  0  0  0  2  0  0  0  0  0  0
  191.9720  178.1040  145.2020 O   0  0  0  0  0  1  0  0  0  0  0  0
  1  6  1  0  0  0  0
  2  7  1  6  0  0  0
  2  8  1  0  0  0  0
  2  1  1  0  0  0  0
  4  2  1  0  0  0  0
  5  9  1  1  0  0  0
  5  3  1  0  0  0  0
  6  3  2  0  0  0  0
  6 21  1  0  0  0  0
  8  5  1  0  0  0  0
 10  9  1  6  0  0  0
 10 14  1  0  0  0  0
 12 13  1  0  0  0  0
 12 11  1  0  0  0  0
 12 10  1  0  0  0  0
 13 11  1  0  0  0  0
 14 15  1  1  0  0  0
 16 14  1  0  0  0  0
 17 20  1  0  0  0  0
 17 18  1  0  0  0  0
 18 19  1  6  0  0  0
 20 16  1  1  0  0  0
 20 19  1  0  0  0  0
 20 18  1  0  0  0  0
 22 21  1  0  0  0  0
 23 25  1  0  0  0  0
 24 25  2  0  0  0  0
 24 37  1  0  0  0  0
 26 22  1  6  0  0  0
 26 28  1  0  0  0  0
 26 23  1  0  0  0  0
 27 28  1  0  0  0  0
 28 24  1  0  0  0  0
 29 34  1  0  0  0  0
 29 31  1  0  0  0  0
 31 36  1  0  0  0  0
 32 35  1  0  0  0  0
 33 32  1  0  0  0  0
 34 25  1  6  0  0  0
 34 33  1  0  0  0  0
 36 30  2  0  0  0  0
 36 35  1  0  0  0  0
 37 38  1  0  0  0  0
M  END
>  <MODEL>
5

>  <REMARK>
 VINA RESULT:      -7.8      1.978      2.513
  Name = 
  11 active torsions:
  status: ('A' for Active; 'I' for Inactive)
    1  A    between atoms: C_4  and  C_14
    2  A    between atoms: C_4  and  C_35
    3  A    between atoms: C_10  and  C_24
    4  A    between atoms: C_10  and  C_30
    5  A    between atoms: C_14  and  C_17
    6  A    between atoms: C_15  and  C_25
    7  A    between atoms: C_16  and  C_17
    8  A    between atoms: C_17  and  C_22
    9  A    between atoms: C_18  and  C_20
   10  A    between atoms: C_22  and  C_28
   11  A    between atoms: C_30  and  C_32
                            x       y       z     vdW  Elec       q    Type
                         _______ _______ _______ _____ _____    ______ ____

>  <TORSDO>
F 11

$$$$
=
 OpenBabel11062413023D

 38 43  0  0  1  0  0  0  0  0999 V2000
  189.4000  178.6470  139.4590 O   0  0  0  0  0  0  0  0  0  0  0  0
  188.8420  178.5270  138.1510 C   0  0  1  0  0  0  0  0  0  0  0  0
  189.9340  176.3670  139.6180 N   0  0  0  0  0  0  0  0  0  0  0  0
  187.4100  178.2950  138.2550 N   0  0  0  0  0  1  0  0  0  0  0  0
  189.4280  176.1110  138.2700 C   0  0  1  0  0  3  0  0  0  0  0  0
  189.8790  177.5410  140.1740 C   0  0  0  0  0  0  0  0  0  0  0  0
  189.0600  179.7100  137.4470 O   0  0  0  0  0  1  0  0  0  0  0  0
  189.4990  177.3690  137.4060 C   0  0  0  0  0  2  0  0  0  0  0  0
  190.2200  174.9860  137.6140 C   0  0  0  0  0  2  0  0  0  0  0  0
  191.4240  175.4950  136.8060 C   0  0  1  0  0  3  0  0  0  0  0  0
  193.7750  176.2720  137.0030 C   0  0  0  0  0  2  0  0  0  0  0  0
  192.7280  175.3440  137.5890 C   0  0  0  0  0  3  0  0  0  0  0  0
  193.0670  176.6500  138.2840 C   0  0  0  0  0  2  0  0  0  0  0  0
  191.4940  174.8140  135.4290 C   0  0  2  0  0  3  0  0  0  0  0  0
  190.4550  175.2410  134.5960 O   0  0  0  0  0  1  0  0  0  0  0  0
  191.4760  173.2890  135.5450 C   0  0  0  0  0  2  0  0  0  0  0  0
  193.8420  173.3140  135.0370 O   0  0  0  0  0  0  0  0  0  0  0  0
  193.6000  172.1760  135.8250 C   0  0  2  0  0  3  0  0  0  0  0  0
  192.7630  171.1680  135.0760 C   0  0  0  0  0  2  0  0  0  0  0  0
  192.6320  172.6440  134.7950 C   0  0  1  0  0  0  0  0  0  0  0  0
  190.3630  177.7160  141.5700 C   0  0  0  0  0  2  0  0  0  0  0  0
  190.8890  176.3930  142.0960 C   0  0  0  0  0  2  0  0  0  0  0  0
  188.5880  176.3730  143.0380 C   0  0  0  0  0  2  0  0  0  0  0  0
  189.3690  177.3160  145.0070 C   0  0  0  0  0  0  0  0  0  0  0  0
  188.3170  177.2590  144.2140 C   0  0  0  0  0  0  0  0  0  0  0  0
  190.0320  175.9030  143.2530 C   0  0  2  0  0  3  0  0  0  0  0  0
  191.6850  176.2740  145.1990 C   0  0  0  0  0  1  0  0  0  0  0  0
  190.4390  176.5380  144.4990 N   0  0  0  0  0  0  0  0  0  0  0  0
  186.1450  177.9830  143.2280 C   0  0  0  0  0  2  0  0  0  0  0  0
  184.3740  180.4120  144.3630 O   0  0  0  0  0  0  0  0  0  0  0  0
  184.6520  178.2510  143.4500 C   0  0  0  0  0  2  0  0  0  0  0  0
  185.6020  178.2530  146.5420 C   0  0  0  0  0  2  0  0  0  0  0  0
  186.3120  177.2140  145.6770 C   0  0  0  0  0  2  0  0  0  0  0  0
  187.0010  177.9090  144.5050 C   0  0  1  0  0  3  0  0  0  0  0  0
  184.2530  178.6740  145.9600 C   0  0  0  0  0  2  0  0  0  0  0  0
  184.3970  179.2090  144.5690 C   0  0  0  0  0  0  0  0  0  0  0  0
  189.4110  178.0190  146.3240 C   0  0  0  0  0  2  0  0  0  0  0  0
  189.1440  177.1100  147.3500 O   0  0  0  0  0  1  0  0  0  0  0  0
  1  6  1  0  0  0  0
  2  7  1  6  0  0  0
  2  4  1  0  0  0  0
  2  1  1  0  0  0  0
  3  6  2  0  0  0  0
  5  9  1  6  0  0  0
  5  3  1  0  0  0  0
  6 21  1  0  0  0  0
  8  2  1  0  0  0  0
  8  5  1  0  0  0  0
 10 12  1  0  0  0  0
 10  9  1  1  0  0  0
 11 12  1  0  0  0  0
 11 13  1  0  0  0  0
 12 13  1  0  0  0  0
 14 15  1  6  0  0  0
 14 16  1  0  0  0  0
 14 10  1  0  0  0  0
 17 18  1  0  0  0  0
 18 19  1  6  0  0  0
 20 17  1  0  0  0  0
 20 19  1  0  0  0  0
 20 16  1  1  0  0  0
 20 18  1  0  0  0  0
 21 22  1  0  0  0  0
 23 26  1  0  0  0  0
 23 25  1  0  0  0  0
 24 37  1  0  0  0  0
 25 24  2  0  0  0  0
 26 22  1  6  0  0  0
 26 28  1  0  0  0  0
 28 24  1  0  0  0  0
 28 27  1  0  0  0  0
 29 31  1  0  0  0  0
 29 34  1  0  0  0  0
 30 36  2  0  0  0  0
 31 36  1  0  0  0  0
 33 32  1  0  0  0  0
 34 25  1  6  0  0  0
 34 33  1  0  0  0  0
 35 32  1  0  0  0  0
 36 35  1  0  0  0  0
 37 38  1  0  0  0  0
M  END
>  <MODEL>
6

>  <REMARK>
 VINA RESULT:      -7.8      3.317      6.870
  Name = 
  11 active torsions:
  status: ('A' for Active; 'I' for Inactive)
    1  A    between atoms: C_4  and  C_14
    2  A    between atoms: C_4  and  C_35
    3  A    between atoms: C_10  and  C_24
    4  A    between atoms: C_10  and  C_30
    5  A    between atoms: C_14  and  C_17
    6  A    between atoms: C_15  and  C_25
    7  A    between atoms: C_16  and  C_17
    8  A    between atoms: C_17  and  C_22
    9  A    between atoms: C_18  and  C_20
   10  A    between atoms: C_22  and  C_28
   11  A    between atoms: C_30  and  C_32
                            x       y       z     vdW  Elec       q    Type
                         _______ _______ _______ _____ _____    ______ ____

>  <TORSDO>
F 11

$$$$
=
 OpenBabel11062413023D

 38 43  0  0  1  0  0  0  0  0999 V2000
  184.5480  178.7660  144.8690 O   0  0  0  0  0  0  0  0  0  0  0  0
  185.1960  178.6110  146.1310 C   0  0  1  0  0  0  0  0  0  0  0  0
  186.4760  178.2570  143.6310 N   0  0  0  0  0  0  0  0  0  0  0  0
  185.7070  179.8990  146.5740 N   0  0  0  0  0  1  0  0  0  0  0  0
  187.2500  178.0310  144.8510 C   0  0  1  0  0  3  0  0  0  0  0  0
  185.2330  178.6370  143.6530 C   0  0  0  0  0  0  0  0  0  0  0  0
  184.2770  178.1420  147.0660 O   0  0  0  0  0  1  0  0  0  0  0  0
  186.3450  177.6150  146.0090 C   0  0  0  0  0  2  0  0  0  0  0  0
  188.3100  176.9610  144.6110 C   0  0  0  0  0  2  0  0  0  0  0  0
  189.6580  177.2960  145.2700 C   0  0  1  0  0  3  0  0  0  0  0  0
  191.2270  176.8310  147.1370 C   0  0  0  0  0  2  0  0  0  0  0  0
  189.8920  176.4560  146.5250 C   0  0  0  0  0  3  0  0  0  0  0  0
  189.9460  177.3550  147.7450 C   0  0  0  0  0  2  0  0  0  0  0  0
  190.8130  177.1680  144.2640 C   0  0  2  0  0  3  0  0  0  0  0  0
  191.4220  178.4050  144.0260 O   0  0  0  0  0  1  0  0  0  0  0  0
  190.3530  176.5520  142.9410 C   0  0  0  0  0  2  0  0  0  0  0  0
  191.5370  177.2130  140.9370 O   0  0  0  0  0  0  0  0  0  0  0  0
  190.2740  176.7430  140.5360 C   0  0  2  0  0  3  0  0  0  0  0  0
  189.1780  177.6670  141.0050 C   0  0  0  0  0  2  0  0  0  0  0  0
  190.4630  177.5320  141.7840 C   0  0  1  0  0  0  0  0  0  0  0  0
  184.5240  178.9040  142.3730 C   0  0  0  0  0  2  0  0  0  0  0  0
  183.0290  178.7310  142.5740 C   0  0  0  0  0  2  0  0  0  0  0  0
  183.5070  177.4810  140.4780 C   0  0  0  0  0  2  0  0  0  0  0  0
  182.4340  179.1210  139.2380 C   0  0  0  0  0  0  0  0  0  0  0  0
  183.4110  178.2360  139.1890 C   0  0  0  0  0  0  0  0  0  0  0  0
  182.3990  178.0910  141.3470 C   0  0  2  0  0  3  0  0  0  0  0  0
  180.5840  179.8490  140.8280 C   0  0  0  0  0  1  0  0  0  0  0  0
  181.7850  179.1020  140.4970 N   0  0  0  0  0  0  0  0  0  0  0  0
  185.7370  177.9540  138.3370 C   0  0  0  0  0  2  0  0  0  0  0  0
  186.6320  178.5700  135.3130 O   0  0  0  0  0  0  0  0  0  0  0  0
  186.6630  177.3000  137.3040 C   0  0  0  0  0  2  0  0  0  0  0  0
  183.8490  176.8500  135.7730 C   0  0  0  0  0  2  0  0  0  0  0  0
  183.7640  176.6780  137.2880 C   0  0  0  0  0  2  0  0  0  0  0  0
  184.2400  177.9560  137.9760 C   0  0  1  0  0  3  0  0  0  0  0  0
  185.2670  176.6420  135.2410 C   0  0  0  0  0  2  0  0  0  0  0  0
  186.2420  177.5710  135.8960 C   0  0  0  0  0  0  0  0  0  0  0  0
  181.9900  179.9690  138.0910 C   0  0  0  0  0  2  0  0  0  0  0  0
  182.2300  181.3130  138.3820 O   0  0  0  0  0  1  0  0  0  0  0  0
  1  2  1  0  0  0  0
  2  4  1  1  0  0  0
  2  7  1  0  0  0  0
  3  6  2  0  0  0  0
  3  5  1  0  0  0  0
  5  9  1  6  0  0  0
  5  8  1  0  0  0  0
  6  1  1  0  0  0  0
  8  2  1  0  0  0  0
 10  9  1  6  0  0  0
 10 12  1  0  0  0  0
 11 13  1  0  0  0  0
 12 11  1  0  0  0  0
 12 13  1  0  0  0  0
 14 15  1  6  0  0  0
 14 10  1  0  0  0  0
 16 14  1  0  0  0  0
 17 20  1  0  0  0  0
 18 17  1  0  0  0  0
 18 19  1  6  0  0  0
 18 20  1  0  0  0  0
 19 20  1  0  0  0  0
 20 16  1  1  0  0  0
 21 22  1  0  0  0  0
 21  6  1  0  0  0  0
 23 26  1  0  0  0  0
 24 28  1  0  0  0  0
 25 24  2  0  0  0  0
 25 23  1  0  0  0  0
 26 22  1  1  0  0  0
 28 27  1  0  0  0  0
 28 26  1  0  0  0  0
 30 36  2  0  0  0  0
 31 29  1  0  0  0  0
 32 33  1  0  0  0  0
 33 34  1  0  0  0  0
 34 29  1  0  0  0  0
 34 25  1  1  0  0  0
 35 32  1  0  0  0  0
 35 36  1  0  0  0  0
 36 31  1  0  0  0  0
 37 38  1  0  0  0  0
 37 24  1  0  0  0  0
M  END
>  <MODEL>
7

>  <REMARK>
 VINA RESULT:      -7.8      2.348      9.637
  Name = 
  11 active torsions:
  status: ('A' for Active; 'I' for Inactive)
    1  A    between atoms: C_4  and  C_14
    2  A    between atoms: C_4  and  C_35
    3  A    between atoms: C_10  and  C_24
    4  A    between atoms: C_10  and  C_30
    5  A    between atoms: C_14  and  C_17
    6  A    between atoms: C_15  and  C_25
    7  A    between atoms: C_16  and  C_17
    8  A    between atoms: C_17  and  C_22
    9  A    between atoms: C_18  and  C_20
   10  A    between atoms: C_22  and  C_28
   11  A    between atoms: C_30  and  C_32
                            x       y       z     vdW  Elec       q    Type
                         _______ _______ _______ _____ _____    ______ ____

>  <TORSDO>
F 11

$$$$
=
 OpenBabel11062413023D

 38 43  0  0  1  0  0  0  0  0999 V2000
  181.2430  178.9910  144.4910 O   0  0  0  0  0  0  0  0  0  0  0  0
  179.9520  178.7430  143.9340 C   0  0  1  0  0  0  0  0  0  0  0  0
  182.3380  178.8940  142.4180 N   0  0  0  0  0  0  0  0  0  0  0  0
  179.6800  177.3150  143.9630 N   0  0  0  0  0  1  0  0  0  0  0  0
  181.0750  178.6700  141.7140 C   0  0  1  0  0  3  0  0  0  0  0  0
  182.4070  179.0010  143.7110 C   0  0  0  0  0  0  0  0  0  0  0  0
  178.9890  179.4040  144.6930 O   0  0  0  0  0  1  0  0  0  0  0  0
  179.8980  179.2500  142.4960 C   0  0  0  0  0  2  0  0  0  0  0  0
  181.1300  179.2910  140.3230 C   0  0  0  0  0  2  0  0  0  0  0  0
  182.4040  178.9140  139.5500 C   0  0  1  0  0  3  0  0  0  0  0  0
  183.5060  177.2790  138.0410 C   0  0  0  0  0  2  0  0  0  0  0  0
  182.2000  177.6480  138.7190 C   0  0  0  0  0  3  0  0  0  0  0  0
  183.0570  176.5250  139.2720 C   0  0  0  0  0  2  0  0  0  0  0  0
  182.9020  180.0930  138.6960 C   0  0  2  0  0  3  0  0  0  0  0  0
  184.1800  180.5030  139.0900 O   0  0  0  0  0  1  0  0  0  0  0  0
  181.9380  181.2790  138.7430 C   0  0  0  0  0  2  0  0  0  0  0  0
  179.8970  180.8810  137.5050 O   0  0  0  0  0  0  0  0  0  0  0  0
  179.9700  182.2630  137.7470 C   0  0  2  0  0  3  0  0  0  0  0  0
  181.1110  182.8870  136.9810 C   0  0  0  0  0  2  0  0  0  0  0  0
  181.1790  181.4510  137.4360 C   0  0  1  0  0  0  0  0  0  0  0  0
  183.7330  179.1720  144.3640 C   0  0  0  0  0  2  0  0  0  0  0  0
  184.8000  179.3770  143.3030 C   0  0  0  0  0  2  0  0  0  0  0  0
  186.3350  177.7050  144.3180 C   0  0  0  0  0  2  0  0  0  0  0  0
  187.8590  178.0420  142.6020 C   0  0  0  0  0  0  0  0  0  0  0  0
  187.7670  177.7310  143.8800 C   0  0  0  0  0  0  0  0  0  0  0  0
  185.5550  178.0820  143.0520 C   0  0  2  0  0  3  0  0  0  0  0  0
  186.3210  178.4960  140.6230 C   0  0  0  0  0  1  0  0  0  0  0  0
  186.5810  178.2740  142.0350 N   0  0  0  0  0  0  0  0  0  0  0  0
  190.2420  177.8850  144.1410 C   0  0  0  0  0  2  0  0  0  0  0  0
  192.0230  175.7200  145.7110 O   0  0  0  0  0  0  0  0  0  0  0  0
  191.4390  177.9250  145.0990 C   0  0  0  0  0  2  0  0  0  0  0  0
  189.2300  176.7450  147.1460 C   0  0  0  0  0  2  0  0  0  0  0  0
  188.6830  177.7990  146.1860 C   0  0  0  0  0  2  0  0  0  0  0  0
  188.9280  177.3560  144.7460 C   0  0  1  0  0  3  0  0  0  0  0  0
  190.7420  176.8580  147.3380 C   0  0  0  0  0  2  0  0  0  0  0  0
  191.4710  176.7590  146.0340 C   0  0  0  0  0  0  0  0  0  0  0  0
  189.1270  178.0520  141.8120 C   0  0  0  0  0  2  0  0  0  0  0  0
  189.2170  176.8820  141.0560 O   0  0  0  0  0  1  0  0  0  0  0  0
  2  4  1  1  0  0  0
  2  1  1  0  0  0  0
  2  7  1  0  0  0  0
  3  6  2  0  0  0  0
  5  9  1  6  0  0  0
  5  3  1  0  0  0  0
  5  8  1  0  0  0  0
  6 21  1  0  0  0  0
  6  1  1  0  0  0  0
  8  2  1  0  0  0  0
 10  9  1  6  0  0  0
 11 12  1  0  0  0  0
 11 13  1  0  0  0  0
 12 13  1  0  0  0  0
 12 10  1  0  0  0  0
 14 16  1  0  0  0  0
 14 15  1  1  0  0  0
 14 10  1  0  0  0  0
 17 18  1  0  0  0  0
 18 19  1  6  0  0  0
 19 20  1  0  0  0  0
 20 17  1  0  0  0  0
 20 18  1  0  0  0  0
 20 16  1  1  0  0  0
 22 21  1  0  0  0  0
 24 25  2  0  0  0  0
 25 23  1  0  0  0  0
 26 22  1  1  0  0  0
 26 23  1  0  0  0  0
 27 28  1  0  0  0  0
 28 24  1  0  0  0  0
 28 26  1  0  0  0  0
 29 34  1  0  0  0  0
 29 31  1  0  0  0  0
 30 36  2  0  0  0  0
 31 36  1  0  0  0  0
 32 35  1  0  0  0  0
 33 32  1  0  0  0  0
 34 25  1  6  0  0  0
 34 33  1  0  0  0  0
 36 35  1  0  0  0  0
 37 24  1  0  0  0  0
 38 37  1  0  0  0  0
M  END
>  <MODEL>
8

>  <REMARK>
 VINA RESULT:      -7.8      3.170      6.143
  Name = 
  11 active torsions:
  status: ('A' for Active; 'I' for Inactive)
    1  A    between atoms: C_4  and  C_14
    2  A    between atoms: C_4  and  C_35
    3  A    between atoms: C_10  and  C_24
    4  A    between atoms: C_10  and  C_30
    5  A    between atoms: C_14  and  C_17
    6  A    between atoms: C_15  and  C_25
    7  A    between atoms: C_16  and  C_17
    8  A    between atoms: C_17  and  C_22
    9  A    between atoms: C_18  and  C_20
   10  A    between atoms: C_22  and  C_28
   11  A    between atoms: C_30  and  C_32
                            x       y       z     vdW  Elec       q    Type
                         _______ _______ _______ _____ _____    ______ ____

>  <TORSDO>
F 11

$$$$
=
 OpenBabel11062413023D

 38 43  0  0  1  0  0  0  0  0999 V2000
  188.3300  178.4250  140.6820 O   0  0  0  0  0  0  0  0  0  0  0  0
  189.4660  177.5670  140.7780 C   0  0  1  0  0  0  0  0  0  0  0  0
  187.2870  177.5300  142.5840 N   0  0  0  0  0  0  0  0  0  0  0  0
  189.2400  176.3740  139.9770 N   0  0  0  0  0  1  0  0  0  0  0  0
  188.4060  176.6190  142.8210 C   0  0  1  0  0  3  0  0  0  0  0  0
  187.2460  178.3360  141.5650 C   0  0  0  0  0  0  0  0  0  0  0  0
  190.5900  178.2330  140.2930 O   0  0  0  0  0  1  0  0  0  0  0  0
  189.7030  177.1740  142.2340 C   0  0  0  0  0  2  0  0  0  0  0  0
  188.5770  176.3730  144.3160 C   0  0  0  0  0  2  0  0  0  0  0  0
  188.2120  177.5980  145.1690 C   0  0  1  0  0  3  0  0  0  0  0  0
  186.9100  178.2850  147.1700 C   0  0  0  0  0  2  0  0  0  0  0  0
  186.9290  177.3630  145.9650 C   0  0  0  0  0  3  0  0  0  0  0  0
  186.0770  178.6190  145.9530 C   0  0  0  0  0  2  0  0  0  0  0  0
  189.3850  178.0140  146.0720 C   0  0  2  0  0  3  0  0  0  0  0  0
  190.3830  178.6670  145.3420 O   0  0  0  0  0  1  0  0  0  0  0  0
  189.9830  176.8190  146.8170 C   0  0  0  0  0  2  0  0  0  0  0  0
  192.0700  176.8730  148.0420 O   0  0  0  0  0  0  0  0  0  0  0  0
  191.9510  175.5890  147.4830 C   0  0  2  0  0  3  0  0  0  0  0  0
  192.0530  175.6420  145.9780 C   0  0  0  0  0  2  0  0  0  0  0  0
  191.5020  176.8100  146.7590 C   0  0  1  0  0  0  0  0  0  0  0  0
  186.0490  179.1950  141.3550 C   0  0  0  0  0  2  0  0  0  0  0  0
  185.2390  179.2610  142.6370 C   0  0  0  0  0  2  0  0  0  0  0  0
  183.6170  178.1370  141.1250 C   0  0  0  0  0  2  0  0  0  0  0  0
  181.8500  178.9990  142.3550 C   0  0  0  0  0  0  0  0  0  0  0  0
  182.2050  178.6340  141.1380 C   0  0  0  0  0  0  0  0  0  0  0  0
  184.0750  178.2850  142.5810 C   0  0  2  0  0  3  0  0  0  0  0  0
  182.8110  179.0010  144.7140 C   0  0  0  0  0  1  0  0  0  0  0  0
  182.9150  178.8280  143.2750 N   0  0  0  0  0  0  0  0  0  0  0  0
  181.9900  179.2220  138.7250 C   0  0  0  0  0  2  0  0  0  0  0  0
  179.2080  179.9480  137.2910 O   0  0  0  0  0  0  0  0  0  0  0  0
  181.3310  178.9150  137.3760 C   0  0  0  0  0  2  0  0  0  0  0  0
  179.2690  177.3170  139.2880 C   0  0  0  0  0  2  0  0  0  0  0  0
  180.7260  177.2200  139.7320 C   0  0  0  0  0  2  0  0  0  0  0  0
  181.2870  178.6230  139.9570 C   0  0  1  0  0  3  0  0  0  0  0  0
  179.1320  177.6420  137.8010 C   0  0  0  0  0  2  0  0  0  0  0  0
  179.8380  178.9140  137.4480 C   0  0  0  0  0  0  0  0  0  0  0  0
  180.4790  179.4400  142.7510 C   0  0  0  0  0  2  0  0  0  0  0  0
  179.6910  178.3230  143.0350 O   0  0  0  0  0  1  0  0  0  0  0  0
  1  2  1  0  0  0  0
  1  6  1  0  0  0  0
  2  4  1  6  0  0  0
  2  8  1  0  0  0  0
  3  5  1  0  0  0  0
  5  9  1  1  0  0  0
  6  3  2  0  0  0  0
  7  2  1  0  0  0  0
  8  5  1  0  0  0  0
 10  9  1  1  0  0  0
 10 12  1  0  0  0  0
 10 14  1  0  0  0  0
 12 11  1  0  0  0  0
 13 12  1  0  0  0  0
 13 11  1  0  0  0  0
 14 15  1  6  0  0  0
 14 16  1  0  0  0  0
 18 19  1  6  0  0  0
 18 17  1  0  0  0  0
 19 20  1  0  0  0  0
 20 16  1  6  0  0  0
 20 18  1  0  0  0  0
 20 17  1  0  0  0  0
 21  6  1  0  0  0  0
 21 22  1  0  0  0  0
 23 25  1  0  0  0  0
 23 26  1  0  0  0  0
 24 37  1  0  0  0  0
 24 28  1  0  0  0  0
 25 24  2  0  0  0  0
 26 22  1  6  0  0  0
 26 28  1  0  0  0  0
 28 27  1  0  0  0  0
 29 34  1  0  0  0  0
 30 36  2  0  0  0  0
 31 36  1  0  0  0  0
 31 29  1  0  0  0  0
 32 33  1  0  0  0  0
 33 34  1  0  0  0  0
 34 25  1  1  0  0  0
 35 32  1  0  0  0  0
 36 35  1  0  0  0  0
 37 38  1  0  0  0  0
M  END
>  <MODEL>
9

>  <REMARK>
 VINA RESULT:      -7.7      2.917      8.896
  Name = 
  11 active torsions:
  status: ('A' for Active; 'I' for Inactive)
    1  A    between atoms: C_4  and  C_14
    2  A    between atoms: C_4  and  C_35
    3  A    between atoms: C_10  and  C_24
    4  A    between atoms: C_10  and  C_30
    5  A    between atoms: C_14  and  C_17
    6  A    between atoms: C_15  and  C_25
    7  A    between atoms: C_16  and  C_17
    8  A    between atoms: C_17  and  C_22
    9  A    between atoms: C_18  and  C_20
   10  A    between atoms: C_22  and  C_28
   11  A    between atoms: C_30  and  C_32
                            x       y       z     vdW  Elec       q    Type
                         _______ _______ _______ _____ _____    ______ ____

>  <TORSDO>
F 11

$$$$
