=
 OpenBabel11062414193D

 45 49  0  0  1  0  0  0  0  0999 V2000
  182.5990  177.9210  141.2300 C   0  0  2  0  0  3  0  0  0  0  0  0
  184.3940  179.2140  142.4140 C   0  0  0  0  0  0  0  0  0  0  0  0
  185.3350  179.0660  141.2460 C   0  0  0  0  0  2  0  0  0  0  0  0
  183.1820  178.6370  142.4270 C   0  0  0  0  0  3  0  0  0  0  0  0
  183.6500  177.5790  140.1710 C   0  0  0  0  0  2  0  0  0  0  0  0
  184.6000  178.7500  139.9480 C   0  0  0  0  0  2  0  0  0  0  0  0
  178.9820  178.5730  140.6300 C   0  0  0  0  0  2  0  0  0  0  0  0
  178.9310  176.8860  139.0120 C   0  0  0  0  0  1  0  0  0  0  0  0
  180.9430  178.0440  139.4010 C   0  0  2  0  0  3  0  0  0  0  0  0
  180.1420  179.5250  142.4680 O   0  0  0  0  0  0  0  0  0  0  0  0
  181.4300  178.7010  140.6220 C   0  0  1  0  0  0  0  0  0  0  0  0
  180.1790  178.9880  141.3730 C   0  0  0  0  0  0  0  0  0  0  0  0
  181.6920  179.3300  139.3020 N   0  0  0  0  0  0  0  0  0  0  0  0
  179.4750  178.1990  139.3080 N   0  0  0  0  0  0  0  0  0  0  0  0
  180.8390  180.5000  139.0820 C   0  0  0  0  0  2  0  0  0  0  0  0
  183.0170  181.3300  138.5750 F   0  0  0  0  0  0  0  0  0  0  0  0
  181.6910  181.7010  138.7140 C   0  0  1  0  0  3  0  0  0  0  0  0
  181.0100  184.2160  135.9290 C   0  0  0  0  0  3  0  0  0  0  0  0
  181.4880  183.6690  137.1240 C   0  0  0  0  0  0  0  0  0  0  0  0
  182.2470  184.4330  137.9470 F   0  0  0  0  0  0  0  0  0  0  0  0
  180.4100  181.5640  136.5810 C   0  0  0  0  0  3  0  0  0  0  0  0
  181.1870  182.3330  137.4540 C   0  0  0  0  0  0  0  0  0  0  0  0
  179.9330  182.1160  135.3900 C   0  0  0  0  0  3  0  0  0  0  0  0
  180.2330  183.4400  135.0640 C   0  0  0  0  0  3  0  0  0  0  0  0
  184.8330  179.9980  143.6080 C   0  0  0  0  0  2  0  0  0  0  0  0
  184.6490  178.7200  145.7020 C   0  0  0  0  0  0  0  0  0  0  0  0
  183.4750  179.1490  145.8680 O   0  0  0  0  0  0  0  0  0  0  0  0
  186.6530  178.6250  144.4420 C   0  0  0  0  0  3  0  0  0  0  0  0
  185.3890  179.1010  144.6160 N   0  0  0  0  0  0  0  0  0  0  0  0
  186.4610  177.3750  146.4560 N   0  0  0  0  0  0  0  0  0  0  0  0
  185.2000  177.8440  146.6390 C   0  0  0  0  0  3  0  0  0  0  0  0
  187.1980  177.7390  145.3710 C   0  0  0  0  0  0  0  0  0  0  0  0
  188.6040  177.2340  145.1800 C   0  0  2  0  0  3  0  0  0  0  0  0
  189.5030  176.3970  147.3670 C   0  0  0  0  0  1  0  0  0  0  0  0
  189.5800  177.5210  146.3420 C   0  0  2  0  0  0  0  0  0  0  0  0
  189.2530  178.7160  146.9620 F   0  0  0  0  0  0  0  0  0  0  0  0
  191.8040  176.3390  146.0950 C   0  0  0  0  0  1  0  0  0  0  0  0
  191.0050  177.5960  145.7940 C   0  0  0  0  0  2  0  0  0  0  0  0
  189.1460  177.5660  143.8550 N   0  0  0  0  0  2  0  0  0  0  0  0
  189.4060  176.3590  143.0800 C   0  0  1  0  0  3  0  0  0  0  0  0
  188.2450  175.5880  143.0120 O   0  0  0  0  0  1  0  0  0  0  0  0
  189.8300  176.7220  141.7370 N   0  0  0  0  0  2  0  0  0  0  0  0
  191.1750  177.1010  141.4440 C   0  0  0  0  0  0  0  0  0  0  0  0
  192.0250  177.2050  142.3670 O   0  0  0  0  0  0  0  0  0  0  0  0
  191.5490  177.3970  140.1050 N   0  0  0  0  0  1  0  0  0  0  0  0
  1  5  1  6  0  0  0
  1  4  1  0  0  0  0
  2  4  2  0  0  0  0
  2 25  1  0  0  0  0
  3  2  1  0  0  0  0
  6  5  1  0  0  0  0
  6  3  1  0  0  0  0
  7 12  1  0  0  0  0
  8 14  1  0  0  0  0
  9 13  1  6  0  0  0
  9 11  1  0  0  0  0
 11  1  1  0  0  0  0
 11 12  1  1  0  0  0
 12 10  2  0  0  0  0
 13 11  1  0  0  0  0
 14  9  1  0  0  0  0
 14  7  1  0  0  0  0
 15 13  1  0  0  0  0
 17 16  1  6  0  0  0
 17 15  1  0  0  0  0
 18 19  1  0  0  0  0
 19 22  2  0  0  0  0
 19 20  1  0  0  0  0
 21 22  1  0  0  0  0
 22 17  1  0  0  0  0
 23 21  2  0  0  0  0
 24 23  1  0  0  0  0
 24 18  2  0  0  0  0
 25 29  1  0  0  0  0
 26 27  2  0  0  0  0
 26 31  1  0  0  0  0
 28 29  1  0  0  0  0
 28 32  2  0  0  0  0
 29 26  1  0  0  0  0
 30 31  2  0  0  0  0
 32 30  1  0  0  0  0
 33 39  1  6  0  0  0
 33 32  1  0  0  0  0
 33 35  1  0  0  0  0
 35 36  1  0  0  0  0
 35 34  1  1  0  0  0
 38 37  1  0  0  0  0
 38 35  1  0  0  0  0
 40 41  1  6  0  0  0
 40 39  1  0  0  0  0
 42 40  1  0  0  0  0
 43 42  1  0  0  0  0
 43 44  2  0  0  0  0
 45 43  1  0  0  0  0
M  END
>  <MODEL>
1

>  <REMARK>
 VINA RESULT:      -8.3      0.000      0.000
  Name = 
  12 active torsions:
  status: ('A' for Active; 'I' for Inactive)
    1  A    between atoms: C_2  and  N_25
    2  A    between atoms: C_2  and  C_34
    3  A    between atoms: C_2  and  C_36
    4  A    between atoms: C_7  and  C_33
    5  A    between atoms: N_9  and  C_31
    6  A    between atoms: C_10  and  C_31
    7  A    between atoms: N_11  and  C_38
    8  A    between atoms: C_14  and  N_37
    9  A    between atoms: C_14  and  C_41
   10  A    between atoms: C_21  and  C_41
   11  A    between atoms: N_25  and  C_38
   12  A    between atoms: C_34  and  C_42
                            x       y       z     vdW  Elec       q    Type
                         _______ _______ _______ _____ _____    ______ ____

>  <TORSDO>
F 12

$$$$
=
 OpenBabel11062414193D

 45 49  0  0  1  0  0  0  0  0999 V2000
  187.5000  176.6640  143.2410 C   0  0  2  0  0  3  0  0  0  0  0  0
  186.1310  178.6400  143.9610 C   0  0  0  0  0  0  0  0  0  0  0  0
  186.5120  178.4350  145.4050 C   0  0  0  0  0  2  0  0  0  0  0  0
  186.5280  177.7960  142.9960 C   0  0  0  0  0  3  0  0  0  0  0  0
  187.6690  176.3360  144.7270 C   0  0  0  0  0  2  0  0  0  0  0  0
  187.7850  177.6100  145.5560 C   0  0  0  0  0  2  0  0  0  0  0  0
  191.2000  177.0830  143.2590 C   0  0  0  0  0  2  0  0  0  0  0  0
  190.9640  179.2690  144.0540 C   0  0  0  0  0  1  0  0  0  0  0  0
  189.2490  178.3330  142.7390 C   0  0  2  0  0  3  0  0  0  0  0  0
  190.1780  174.9660  142.9410 O   0  0  0  0  0  0  0  0  0  0  0  0
  188.8520  176.9280  142.5720 C   0  0  1  0  0  0  0  0  0  0  0  0
  190.0870  176.1830  142.9340 C   0  0  0  0  0  0  0  0  0  0  0  0
  188.8230  177.8380  141.3990 N   0  0  0  0  0  0  0  0  0  0  0  0
  190.7170  178.4150  142.9060 N   0  0  0  0  0  0  0  0  0  0  0  0
  189.9340  177.5720  140.4810 C   0  0  0  0  0  2  0  0  0  0  0  0
  189.3460  179.0520  138.7040 F   0  0  0  0  0  0  0  0  0  0  0  0
  189.4650  177.7160  139.0440 C   0  0  1  0  0  3  0  0  0  0  0  0
  191.0100  176.1680  135.9200 C   0  0  0  0  0  3  0  0  0  0  0  0
  190.0920  176.8100  136.7590 C   0  0  0  0  0  0  0  0  0  0  0  0
  188.9110  177.2340  136.2470 F   0  0  0  0  0  0  0  0  0  0  0  0
  191.6400  176.5800  138.6130 C   0  0  0  0  0  3  0  0  0  0  0  0
  190.4080  177.0180  138.1150 C   0  0  0  0  0  0  0  0  0  0  0  0
  192.5520  175.9370  137.7720 C   0  0  0  0  0  3  0  0  0  0  0  0
  192.2370  175.7320  136.4270 C   0  0  0  0  0  3  0  0  0  0  0  0
  185.2600  179.7970  143.5940 C   0  0  0  0  0  2  0  0  0  0  0  0
  182.9730  179.0280  144.0770 C   0  0  0  0  0  0  0  0  0  0  0  0
  183.1860  179.1490  145.3130 O   0  0  0  0  0  0  0  0  0  0  0  0
  183.7070  179.1910  141.8300 C   0  0  0  0  0  3  0  0  0  0  0  0
  183.9500  179.3180  143.1640 N   0  0  0  0  0  0  0  0  0  0  0  0
  181.4910  178.4700  142.3010 N   0  0  0  0  0  0  0  0  0  0  0  0
  181.7230  178.5930  143.6330 C   0  0  0  0  0  3  0  0  0  0  0  0
  182.4530  178.7700  141.3870 C   0  0  0  0  0  0  0  0  0  0  0  0
  182.2000  178.6130  139.9110 C   0  0  2  0  0  3  0  0  0  0  0  0
  181.5130  176.6570  138.5010 C   0  0  0  0  0  1  0  0  0  0  0  0
  182.6570  177.2740  139.2930 C   0  0  2  0  0  0  0  0  0  0  0  0
  183.0420  176.3910  140.2880 F   0  0  0  0  0  0  0  0  0  0  0  0
  183.5510  177.0470  136.9360 C   0  0  0  0  0  1  0  0  0  0  0  0
  183.8320  177.5320  138.3490 C   0  0  0  0  0  2  0  0  0  0  0  0
  182.6160  179.7950  139.1410 N   0  0  0  0  0  2  0  0  0  0  0  0
  181.4810  180.3910  138.4450 C   0  0  1  0  0  3  0  0  0  0  0  0
  180.3020  180.0790  139.1220 O   0  0  0  0  0  1  0  0  0  0  0  0
  181.6450  181.8340  138.3900 N   0  0  0  0  0  2  0  0  0  0  0  0
  181.0230  182.6290  137.3800 C   0  0  0  0  0  0  0  0  0  0  0  0
  180.3690  182.0860  136.4520 O   0  0  0  0  0  0  0  0  0  0  0  0
  181.1750  184.0430  137.4020 N   0  0  0  0  0  1  0  0  0  0  0  0
  1  4  1  1  0  0  0
  1  5  1  0  0  0  0
  2  3  1  0  0  0  0
  3  6  1  0  0  0  0
  4  2  2  0  0  0  0
  5  6  1  0  0  0  0
  9 13  1  6  0  0  0
  9 14  1  0  0  0  0
 11  9  1  0  0  0  0
 11 12  1  1  0  0  0
 11  1  1  0  0  0  0
 12 10  2  0  0  0  0
 12  7  1  0  0  0  0
 13 11  1  0  0  0  0
 14  7  1  0  0  0  0
 14  8  1  0  0  0  0
 15 13  1  0  0  0  0
 17 16  1  6  0  0  0
 17 15  1  0  0  0  0
 18 24  2  0  0  0  0
 18 19  1  0  0  0  0
 19 22  2  0  0  0  0
 20 19  1  0  0  0  0
 22 21  1  0  0  0  0
 22 17  1  0  0  0  0
 23 21  2  0  0  0  0
 24 23  1  0  0  0  0
 25  2  1  0  0  0  0
 26 27  2  0  0  0  0
 28 29  1  0  0  0  0
 29 25  1  0  0  0  0
 29 26  1  0  0  0  0
 30 31  2  0  0  0  0
 31 26  1  0  0  0  0
 32 28  2  0  0  0  0
 32 30  1  0  0  0  0
 33 39  1  6  0  0  0
 33 32  1  0  0  0  0
 35 34  1  6  0  0  0
 35 33  1  0  0  0  0
 35 36  1  0  0  0  0
 37 38  1  0  0  0  0
 38 35  1  0  0  0  0
 40 41  1  1  0  0  0
 40 39  1  0  0  0  0
 42 40  1  0  0  0  0
 43 45  1  0  0  0  0
 43 42  1  0  0  0  0
 44 43  2  0  0  0  0
M  END
>  <MODEL>
2

>  <REMARK>
 VINA RESULT:      -8.0      3.087      9.422
  Name = 
  12 active torsions:
  status: ('A' for Active; 'I' for Inactive)
    1  A    between atoms: C_2  and  N_25
    2  A    between atoms: C_2  and  C_34
    3  A    between atoms: C_2  and  C_36
    4  A    between atoms: C_7  and  C_33
    5  A    between atoms: N_9  and  C_31
    6  A    between atoms: C_10  and  C_31
    7  A    between atoms: N_11  and  C_38
    8  A    between atoms: C_14  and  N_37
    9  A    between atoms: C_14  and  C_41
   10  A    between atoms: C_21  and  C_41
   11  A    between atoms: N_25  and  C_38
   12  A    between atoms: C_34  and  C_42
                            x       y       z     vdW  Elec       q    Type
                         _______ _______ _______ _____ _____    ______ ____

>  <TORSDO>
F 12

$$$$
=
 OpenBabel11062414193D

 45 49  0  0  1  0  0  0  0  0999 V2000
  190.1790  177.6160  138.0450 C   0  0  2  0  0  3  0  0  0  0  0  0
  189.6750  176.9850  140.4210 C   0  0  0  0  0  0  0  0  0  0  0  0
  188.4150  177.8150  140.4220 C   0  0  0  0  0  2  0  0  0  0  0  0
  190.5030  176.9530  139.3650 C   0  0  0  0  0  3  0  0  0  0  0  0
  189.0400  178.6340  138.1540 C   0  0  0  0  0  2  0  0  0  0  0  0
  187.9040  178.0900  139.0120 C   0  0  0  0  0  2  0  0  0  0  0  0
  188.0430  175.9960  135.4620 C   0  0  0  0  0  2  0  0  0  0  0  0
  186.9100  174.8050  137.1230 C   0  0  0  0  0  1  0  0  0  0  0  0
  189.1460  175.4430  137.4900 C   0  0  2  0  0  3  0  0  0  0  0  0
  189.4600  177.8290  134.9500 O   0  0  0  0  0  0  0  0  0  0  0  0
  189.9000  176.5830  136.9500 C   0  0  1  0  0  0  0  0  0  0  0  0
  189.1620  176.9150  135.7020 C   0  0  0  0  0  0  0  0  0  0  0  0
  190.5780  175.2720  137.1120 N   0  0  0  0  0  0  0  0  0  0  0  0
  188.1960  174.9500  136.4680 N   0  0  0  0  0  0  0  0  0  0  0  0
  190.7800  174.6040  135.8240 C   0  0  0  0  0  2  0  0  0  0  0  0
  192.3880  176.1930  135.0620 F   0  0  0  0  0  0  0  0  0  0  0  0
  192.1940  174.8490  135.3280 C   0  0  1  0  0  3  0  0  0  0  0  0
  194.6860  174.7270  138.2110 C   0  0  0  0  0  3  0  0  0  0  0  0
  193.7710  175.2270  137.2790 C   0  0  0  0  0  0  0  0  0  0  0  0
  193.4460  176.5430  137.3090 F   0  0  0  0  0  0  0  0  0  0  0  0
  193.5360  173.0060  136.3310 C   0  0  0  0  0  3  0  0  0  0  0  0
  193.1900  174.3610  136.3320 C   0  0  0  0  0  0  0  0  0  0  0  0
  194.4520  172.5120  137.2630 C   0  0  0  0  0  3  0  0  0  0  0  0
  195.0270  173.3710  138.2020 C   0  0  0  0  0  3  0  0  0  0  0  0
  190.0310  176.2010  141.6410 C   0  0  0  0  0  2  0  0  0  0  0  0
  191.2410  177.9720  142.8470 C   0  0  0  0  0  0  0  0  0  0  0  0
  192.1090  178.0110  141.9330 O   0  0  0  0  0  0  0  0  0  0  0  0
  189.2540  177.0710  143.7700 C   0  0  0  0  0  3  0  0  0  0  0  0
  190.1900  177.0980  142.7810 N   0  0  0  0  0  0  0  0  0  0  0  0
  190.4150  178.7980  144.9200 N   0  0  0  0  0  0  0  0  0  0  0  0
  191.3540  178.8340  143.9390 C   0  0  0  0  0  3  0  0  0  0  0  0
  189.3600  177.9420  144.8550 C   0  0  0  0  0  0  0  0  0  0  0  0
  188.3310  177.8890  145.9530 C   0  0  2  0  0  3  0  0  0  0  0  0
  187.7290  177.1720  148.2800 C   0  0  0  0  0  1  0  0  0  0  0  0
  188.8750  177.5790  147.3640 C   0  0  2  0  0  0  0  0  0  0  0  0
  189.4990  178.6950  147.8960 F   0  0  0  0  0  0  0  0  0  0  0  0
  191.2790  176.8470  147.6690 C   0  0  0  0  0  1  0  0  0  0  0  0
  189.8730  176.4240  147.2750 C   0  0  0  0  0  2  0  0  0  0  0  0
  187.1530  177.0920  145.5830 N   0  0  0  0  0  2  0  0  0  0  0  0
  186.0110  177.9510  145.2920 C   0  0  1  0  0  3  0  0  0  0  0  0
  186.1630  179.1700  145.9530 O   0  0  0  0  0  1  0  0  0  0  0  0
  185.9250  178.1800  143.8590 N   0  0  0  0  0  2  0  0  0  0  0  0
  184.6900  178.4970  143.2160 C   0  0  0  0  0  0  0  0  0  0  0  0
  183.6140  178.5110  143.8690 O   0  0  0  0  0  0  0  0  0  0  0  0
  184.6700  178.7610  141.8190 N   0  0  0  0  0  1  0  0  0  0  0  0
  1  5  1  1  0  0  0
  1  4  1  0  0  0  0
  2  3  1  0  0  0  0
  2 25  1  0  0  0  0
  4  2  2  0  0  0  0
  5  6  1  0  0  0  0
  6  3  1  0  0  0  0
  7 12  1  0  0  0  0
  7 14  1  0  0  0  0
  9 14  1  6  0  0  0
 10 12  2  0  0  0  0
 11 12  1  6  0  0  0
 11 13  1  0  0  0  0
 11  9  1  0  0  0  0
 11  1  1  0  0  0  0
 13  9  1  0  0  0  0
 14  8  1  0  0  0  0
 15 13  1  0  0  0  0
 17 16  1  1  0  0  0
 17 15  1  0  0  0  0
 17 22  1  0  0  0  0
 19 20  1  0  0  0  0
 19 18  2  0  0  0  0
 21 22  2  0  0  0  0
 21 23  1  0  0  0  0
 22 19  1  0  0  0  0
 23 24  2  0  0  0  0
 24 18  1  0  0  0  0
 25 29  1  0  0  0  0
 26 31  1  0  0  0  0
 27 26  2  0  0  0  0
 28 32  2  0  0  0  0
 29 26  1  0  0  0  0
 29 28  1  0  0  0  0
 31 30  2  0  0  0  0
 32 30  1  0  0  0  0
 32 33  1  0  0  0  0
 33 39  1  6  0  0  0
 33 35  1  0  0  0  0
 35 36  1  0  0  0  0
 35 34  1  1  0  0  0
 38 35  1  0  0  0  0
 38 37  1  0  0  0  0
 40 39  1  0  0  0  0
 40 41  1  1  0  0  0
 42 40  1  0  0  0  0
 43 42  1  0  0  0  0
 43 44  2  0  0  0  0
 45 43  1  0  0  0  0
M  END
>  <MODEL>
3

>  <REMARK>
 VINA RESULT:      -7.9      5.188      9.223
  Name = 
  12 active torsions:
  status: ('A' for Active; 'I' for Inactive)
    1  A    between atoms: C_2  and  N_25
    2  A    between atoms: C_2  and  C_34
    3  A    between atoms: C_2  and  C_36
    4  A    between atoms: C_7  and  C_33
    5  A    between atoms: N_9  and  C_31
    6  A    between atoms: C_10  and  C_31
    7  A    between atoms: N_11  and  C_38
    8  A    between atoms: C_14  and  N_37
    9  A    between atoms: C_14  and  C_41
   10  A    between atoms: C_21  and  C_41
   11  A    between atoms: N_25  and  C_38
   12  A    between atoms: C_34  and  C_42
                            x       y       z     vdW  Elec       q    Type
                         _______ _______ _______ _____ _____    ______ ____

>  <TORSDO>
F 12

$$$$
=
 OpenBabel11062414193D

 45 49  0  0  1  0  0  0  0  0999 V2000
  187.5370  176.6520  143.2210 C   0  0  2  0  0  3  0  0  0  0  0  0
  186.1160  178.6310  143.8200 C   0  0  0  0  0  0  0  0  0  0  0  0
  186.4770  178.5080  145.2780 C   0  0  0  0  0  2  0  0  0  0  0  0
  186.5460  177.7490  142.9040 C   0  0  0  0  0  3  0  0  0  0  0  0
  187.6890  176.4030  144.7250 C   0  0  0  0  0  2  0  0  0  0  0  0
  187.7650  177.7190  145.4900 C   0  0  0  0  0  2  0  0  0  0  0  0
  191.2380  177.0610  143.2610 C   0  0  0  0  0  2  0  0  0  0  0  0
  191.0030  179.2480  144.0520 C   0  0  0  0  0  1  0  0  0  0  0  0
  189.2950  178.3160  142.7290 C   0  0  2  0  0  3  0  0  0  0  0  0
  190.2120  174.9460  142.9390 O   0  0  0  0  0  0  0  0  0  0  0  0
  188.8940  176.9120  142.5610 C   0  0  1  0  0  0  0  0  0  0  0  0
  190.1240  176.1630  142.9300 C   0  0  0  0  0  0  0  0  0  0  0  0
  188.8750  177.8210  141.3860 N   0  0  0  0  0  0  0  0  0  0  0  0
  190.7610  178.3930  142.9040 N   0  0  0  0  0  0  0  0  0  0  0  0
  189.9900  177.5500  140.4750 C   0  0  0  0  0  2  0  0  0  0  0  0
  189.4240  179.0250  138.6870 F   0  0  0  0  0  0  0  0  0  0  0  0
  189.5300  177.6900  139.0350 C   0  0  1  0  0  3  0  0  0  0  0  0
  191.0670  176.0940  135.9320 C   0  0  0  0  0  3  0  0  0  0  0  0
  190.1510  176.7490  136.7620 C   0  0  0  0  0  0  0  0  0  0  0  0
  188.9680  177.1640  136.2480 F   0  0  0  0  0  0  0  0  0  0  0  0
  191.7040  176.5480  138.6160 C   0  0  0  0  0  3  0  0  0  0  0  0
  190.4710  176.9790  138.1140 C   0  0  0  0  0  0  0  0  0  0  0  0
  192.6140  175.8930  137.7830 C   0  0  0  0  0  3  0  0  0  0  0  0
  192.2960  175.6660  136.4420 C   0  0  0  0  0  3  0  0  0  0  0  0
  185.2260  179.7490  143.3820 C   0  0  0  0  0  2  0  0  0  0  0  0
  182.9230  179.0350  143.8670 C   0  0  0  0  0  0  0  0  0  0  0  0
  183.0910  179.2960  145.0890 O   0  0  0  0  0  0  0  0  0  0  0  0
  183.7370  178.9430  141.6440 C   0  0  0  0  0  3  0  0  0  0  0  0
  183.9320  179.2210  142.9620 N   0  0  0  0  0  0  0  0  0  0  0  0
  181.5040  178.2750  142.1140 N   0  0  0  0  0  0  0  0  0  0  0  0
  181.6880  178.5490  143.4320 C   0  0  0  0  0  3  0  0  0  0  0  0
  182.4990  178.4710  141.2070 C   0  0  0  0  0  0  0  0  0  0  0  0
  182.2990  178.1460  139.7500 C   0  0  2  0  0  3  0  0  0  0  0  0
  179.8130  178.0000  139.4540 C   0  0  0  0  0  1  0  0  0  0  0  0
  181.0620  178.7890  139.0870 C   0  0  2  0  0  0  0  0  0  0  0  0
  181.2010  178.7910  137.7090 F   0  0  0  0  0  0  0  0  0  0  0  0
  181.5840  181.2310  138.6750 C   0  0  0  0  0  1  0  0  0  0  0  0
  180.9090  180.2240  139.5920 C   0  0  0  0  0  2  0  0  0  0  0  0
  182.4440  176.7110  139.4680 N   0  0  0  0  0  2  0  0  0  0  0  0
  183.4330  176.4820  138.4210 C   0  0  1  0  0  3  0  0  0  0  0  0
  182.7830  176.2650  137.2060 O   0  0  0  0  0  1  0  0  0  0  0  0
  184.3040  177.6410  138.3090 N   0  0  0  0  0  2  0  0  0  0  0  0
  185.6000  177.5590  137.7170 C   0  0  0  0  0  0  0  0  0  0  0  0
  186.0620  176.4510  137.3390 O   0  0  0  0  0  0  0  0  0  0  0  0
  186.3910  178.7340  137.5860 N   0  0  0  0  0  1  0  0  0  0  0  0
  1  4  1  1  0  0  0
  1  5  1  0  0  0  0
  2  3  1  0  0  0  0
  3  6  1  0  0  0  0
  4  2  2  0  0  0  0
  5  6  1  0  0  0  0
  9 13  1  6  0  0  0
  9 14  1  0  0  0  0
 11  9  1  0  0  0  0
 11 12  1  1  0  0  0
 11  1  1  0  0  0  0
 12 10  2  0  0  0  0
 12  7  1  0  0  0  0
 13 11  1  0  0  0  0
 14  7  1  0  0  0  0
 14  8  1  0  0  0  0
 15 13  1  0  0  0  0
 17 16  1  6  0  0  0
 17 15  1  0  0  0  0
 18 24  2  0  0  0  0
 18 19  1  0  0  0  0
 19 22  2  0  0  0  0
 20 19  1  0  0  0  0
 22 21  1  0  0  0  0
 22 17  1  0  0  0  0
 23 21  2  0  0  0  0
 24 23  1  0  0  0  0
 25  2  1  0  0  0  0
 26 27  2  0  0  0  0
 28 29  1  0  0  0  0
 29 25  1  0  0  0  0
 29 26  1  0  0  0  0
 30 31  2  0  0  0  0
 31 26  1  0  0  0  0
 32 28  2  0  0  0  0
 32 30  1  0  0  0  0
 33 39  1  1  0  0  0
 33 32  1  0  0  0  0
 35 34  1  1  0  0  0
 35 38  1  0  0  0  0
 35 33  1  0  0  0  0
 36 35  1  0  0  0  0
 37 38  1  0  0  0  0
 40 41  1  6  0  0  0
 40 39  1  0  0  0  0
 42 40  1  0  0  0  0
 43 42  1  0  0  0  0
 44 43  2  0  0  0  0
 45 43  1  0  0  0  0
M  END
>  <MODEL>
4

>  <REMARK>
 VINA RESULT:      -7.8      3.149      9.061
  Name = 
  12 active torsions:
  status: ('A' for Active; 'I' for Inactive)
    1  A    between atoms: C_2  and  N_25
    2  A    between atoms: C_2  and  C_34
    3  A    between atoms: C_2  and  C_36
    4  A    between atoms: C_7  and  C_33
    5  A    between atoms: N_9  and  C_31
    6  A    between atoms: C_10  and  C_31
    7  A    between atoms: N_11  and  C_38
    8  A    between atoms: C_14  and  N_37
    9  A    between atoms: C_14  and  C_41
   10  A    between atoms: C_21  and  C_41
   11  A    between atoms: N_25  and  C_38
   12  A    between atoms: C_34  and  C_42
                            x       y       z     vdW  Elec       q    Type
                         _______ _______ _______ _____ _____    ______ ____

>  <TORSDO>
F 12

$$$$
=
 OpenBabel11062414193D

 45 49  0  0  1  0  0  0  0  0999 V2000
  186.8870  176.8060  136.0970 C   0  0  2  0  0  3  0  0  0  0  0  0
  189.0230  176.4540  137.3680 C   0  0  0  0  0  0  0  0  0  0  0  0
  189.1950  177.9370  137.5790 C   0  0  0  0  0  2  0  0  0  0  0  0
  188.0120  175.9530  136.6400 C   0  0  0  0  0  3  0  0  0  0  0  0
  187.2130  178.3020  136.1140 C   0  0  0  0  0  2  0  0  0  0  0  0
  187.8830  178.6990  137.4250 C   0  0  0  0  0  2  0  0  0  0  0  0
  183.6880  174.9610  136.5680 C   0  0  0  0  0  2  0  0  0  0  0  0
  182.6940  176.2180  134.8660 C   0  0  0  0  0  1  0  0  0  0  0  0
  184.4440  177.1660  136.1230 C   0  0  2  0  0  3  0  0  0  0  0  0
  185.7070  174.2540  137.5930 O   0  0  0  0  0  0  0  0  0  0  0  0
  185.5660  176.5170  136.8150 C   0  0  1  0  0  0  0  0  0  0  0  0
  185.0640  175.1360  137.0480 C   0  0  0  0  0  0  0  0  0  0  0  0
  184.9020  177.6880  137.4420 N   0  0  0  0  0  0  0  0  0  0  0  0
  183.2450  176.3040  136.2060 N   0  0  0  0  0  0  0  0  0  0  0  0
  184.0540  177.2900  138.5680 C   0  0  0  0  0  2  0  0  0  0  0  0
  182.0120  178.4520  138.9870 F   0  0  0  0  0  0  0  0  0  0  0  0
  183.3830  178.5120  139.1690 C   0  0  1  0  0  3  0  0  0  0  0  0
  185.2980  178.9850  142.4320 C   0  0  0  0  0  3  0  0  0  0  0  0
  185.0320  178.8670  141.0640 C   0  0  0  0  0  0  0  0  0  0  0  0
  186.0490  178.9950  140.1770 F   0  0  0  0  0  0  0  0  0  0  0  0
  182.6840  178.5110  141.5610 C   0  0  0  0  0  3  0  0  0  0  0  0
  183.7160  178.6280  140.6230 C   0  0  0  0  0  0  0  0  0  0  0  0
  182.9550  178.6280  142.9260 C   0  0  0  0  0  3  0  0  0  0  0  0
  184.2610  178.8650  143.3610 C   0  0  0  0  0  3  0  0  0  0  0  0
  190.0220  175.5140  137.9570 C   0  0  0  0  0  2  0  0  0  0  0  0
  192.0540  176.7530  138.5800 C   0  0  0  0  0  0  0  0  0  0  0  0
  192.4910  176.6420  137.4030 O   0  0  0  0  0  0  0  0  0  0  0  0
  190.3820  176.3450  140.2080 C   0  0  0  0  0  3  0  0  0  0  0  0
  190.8480  176.2130  138.9360 N   0  0  0  0  0  0  0  0  0  0  0  0
  192.3380  177.5620  140.8000 N   0  0  0  0  0  0  0  0  0  0  0  0
  192.8120  177.4360  139.5330 C   0  0  0  0  0  3  0  0  0  0  0  0
  191.1330  177.0400  141.1570 C   0  0  0  0  0  0  0  0  0  0  0  0
  190.6190  177.1630  142.5670 C   0  0  2  0  0  3  0  0  0  0  0  0
  188.8880  178.6080  141.4700 C   0  0  0  0  0  1  0  0  0  0  0  0
  189.5480  178.2510  142.7950 C   0  0  2  0  0  0  0  0  0  0  0  0
  190.1260  179.3910  143.3300 F   0  0  0  0  0  0  0  0  0  0  0  0
  187.9240  176.3770  143.2980 C   0  0  0  0  0  1  0  0  0  0  0  0
  188.4830  177.7150  143.7520 C   0  0  0  0  0  2  0  0  0  0  0  0
  191.7020  177.1790  143.5610 N   0  0  0  0  0  2  0  0  0  0  0  0
  191.4720  176.1820  144.6010 C   0  0  1  0  0  3  0  0  0  0  0  0
  192.0540  174.9720  144.2240 O   0  0  0  0  0  1  0  0  0  0  0  0
  192.0560  176.6370  145.8520 N   0  0  0  0  0  2  0  0  0  0  0  0
  191.2930  176.7250  147.0560 C   0  0  0  0  0  0  0  0  0  0  0  0
  190.0590  176.4800  147.0500 O   0  0  0  0  0  0  0  0  0  0  0  0
  191.9260  177.1280  148.2640 N   0  0  0  0  0  1  0  0  0  0  0  0
  1  5  1  1  0  0  0
  1  4  1  0  0  0  0
  1 11  1  0  0  0  0
  2  3  1  0  0  0  0
  2 25  1  0  0  0  0
  4  2  2  0  0  0  0
  5  6  1  0  0  0  0
  6  3  1  0  0  0  0
  7 12  1  0  0  0  0
  8 14  1  0  0  0  0
  9 14  1  1  0  0  0
  9 11  1  0  0  0  0
  9 13  1  0  0  0  0
 11 12  1  1  0  0  0
 11 13  1  0  0  0  0
 12 10  2  0  0  0  0
 13 15  1  0  0  0  0
 14  7  1  0  0  0  0
 15 17  1  0  0  0  0
 17 16  1  1  0  0  0
 17 22  1  0  0  0  0
 18 24  1  0  0  0  0
 19 18  2  0  0  0  0
 20 19  1  0  0  0  0
 21 23  1  0  0  0  0
 22 19  1  0  0  0  0
 22 21  2  0  0  0  0
 23 24  2  0  0  0  0
 25 29  1  0  0  0  0
 26 29  1  0  0  0  0
 26 31  1  0  0  0  0
 27 26  2  0  0  0  0
 28 32  2  0  0  0  0
 29 28  1  0  0  0  0
 30 32  1  0  0  0  0
 31 30  2  0  0  0  0
 32 33  1  0  0  0  0
 33 35  1  0  0  0  0
 33 39  1  1  0  0  0
 35 34  1  6  0  0  0
 35 36  1  0  0  0  0
 35 38  1  0  0  0  0
 37 38  1  0  0  0  0
 39 40  1  0  0  0  0
 40 41  1  6  0  0  0
 40 42  1  0  0  0  0
 42 43  1  0  0  0  0
 43 45  1  0  0  0  0
 44 43  2  0  0  0  0
M  END
>  <MODEL>
5

>  <REMARK>
 VINA RESULT:      -7.8      3.948      6.677
  Name = 
  12 active torsions:
  status: ('A' for Active; 'I' for Inactive)
    1  A    between atoms: C_2  and  N_25
    2  A    between atoms: C_2  and  C_34
    3  A    between atoms: C_2  and  C_36
    4  A    between atoms: C_7  and  C_33
    5  A    between atoms: N_9  and  C_31
    6  A    between atoms: C_10  and  C_31
    7  A    between atoms: N_11  and  C_38
    8  A    between atoms: C_14  and  N_37
    9  A    between atoms: C_14  and  C_41
   10  A    between atoms: C_21  and  C_41
   11  A    between atoms: N_25  and  C_38
   12  A    between atoms: C_34  and  C_42
                            x       y       z     vdW  Elec       q    Type
                         _______ _______ _______ _____ _____    ______ ____

>  <TORSDO>
F 12

$$$$
=
 OpenBabel11062414193D

 45 49  0  0  1  0  0  0  0  0999 V2000
  182.5820  177.8720  141.0270 C   0  0  2  0  0  3  0  0  0  0  0  0
  184.2590  179.2130  142.3260 C   0  0  0  0  0  0  0  0  0  0  0  0
  185.2560  179.1430  141.1980 C   0  0  0  0  0  2  0  0  0  0  0  0
  183.0760  178.5800  142.2680 C   0  0  0  0  0  3  0  0  0  0  0  0
  183.6940  177.6110  140.0070 C   0  0  0  0  0  2  0  0  0  0  0  0
  184.5950  178.8320  139.8590 C   0  0  0  0  0  2  0  0  0  0  0  0
  178.9760  178.3290  140.2170 C   0  0  0  0  0  2  0  0  0  0  0  0
  179.1450  176.7530  138.5000 C   0  0  0  0  0  1  0  0  0  0  0  0
  181.0450  178.0080  139.0980 C   0  0  2  0  0  3  0  0  0  0  0  0
  179.9450  179.2310  142.1860 O   0  0  0  0  0  0  0  0  0  0  0  0
  181.4050  178.6140  140.3880 C   0  0  1  0  0  0  0  0  0  0  0  0
  180.0900  178.7710  141.0650 C   0  0  0  0  0  0  0  0  0  0  0  0
  181.7080  179.3430  139.1300 N   0  0  0  0  0  0  0  0  0  0  0  0
  179.5790  178.0750  138.9120 N   0  0  0  0  0  0  0  0  0  0  0  0
  180.7940  180.4690  138.9220 C   0  0  0  0  0  2  0  0  0  0  0  0
  182.9410  181.4790  138.6720 F   0  0  0  0  0  0  0  0  0  0  0  0
  181.5850  181.7500  138.7240 C   0  0  1  0  0  3  0  0  0  0  0  0
  181.1570  184.3590  135.9760 C   0  0  0  0  0  3  0  0  0  0  0  0
  181.5850  183.7470  137.1590 C   0  0  0  0  0  0  0  0  0  0  0  0
  182.4340  184.4120  137.9800 F   0  0  0  0  0  0  0  0  0  0  0  0
  180.2710  181.7830  136.6060 C   0  0  0  0  0  3  0  0  0  0  0  0
  181.1400  182.4500  137.4780 C   0  0  0  0  0  0  0  0  0  0  0  0
  179.8460  182.3990  135.4270 C   0  0  0  0  0  3  0  0  0  0  0  0
  180.2890  183.6860  135.1120 C   0  0  0  0  0  3  0  0  0  0  0  0
  184.6060  179.9810  143.5590 C   0  0  0  0  0  2  0  0  0  0  0  0
  184.6090  178.6590  145.6330 C   0  0  0  0  0  0  0  0  0  0  0  0
  183.4190  179.0050  145.8640 O   0  0  0  0  0  0  0  0  0  0  0  0
  186.5510  178.7200  144.2770 C   0  0  0  0  0  3  0  0  0  0  0  0
  185.2690  179.1070  144.5210 N   0  0  0  0  0  0  0  0  0  0  0  0
  186.5420  177.4250  146.2710 N   0  0  0  0  0  0  0  0  0  0  0  0
  185.2620  177.8050  146.5240 C   0  0  0  0  0  3  0  0  0  0  0  0
  187.1990  177.8560  145.1600 C   0  0  0  0  0  0  0  0  0  0  0  0
  188.6240  177.4500  144.8930 C   0  0  2  0  0  3  0  0  0  0  0  0
  189.0510  177.9440  142.4710 C   0  0  0  0  0  1  0  0  0  0  0  0
  188.8930  176.8350  143.5030 C   0  0  2  0  0  0  0  0  0  0  0  0
  187.8400  176.0180  143.1260 F   0  0  0  0  0  0  0  0  0  0  0  0
  191.2660  176.5950  142.6560 C   0  0  0  0  0  1  0  0  0  0  0  0
  190.1860  176.0190  143.5570 C   0  0  0  0  0  2  0  0  0  0  0  0
  189.2090  176.6860  146.0040 N   0  0  0  0  0  2  0  0  0  0  0  0
  189.9610  177.5580  146.8990 C   0  0  1  0  0  3  0  0  0  0  0  0
  189.0760  178.2620  147.7160 O   0  0  0  0  0  1  0  0  0  0  0  0
  190.8560  176.7600  147.7210 N   0  0  0  0  0  2  0  0  0  0  0  0
  191.9490  176.0310  147.1620 C   0  0  0  0  0  0  0  0  0  0  0  0
  192.1250  175.9970  145.9160 O   0  0  0  0  0  0  0  0  0  0  0  0
  192.8240  175.3070  148.0170 N   0  0  0  0  0  1  0  0  0  0  0  0
  1  5  1  6  0  0  0
  1  4  1  0  0  0  0
  2 25  1  0  0  0  0
  3  2  1  0  0  0  0
  4  2  2  0  0  0  0
  6  5  1  0  0  0  0
  6  3  1  0  0  0  0
  7 12  1  0  0  0  0
  8 14  1  0  0  0  0
  9 14  1  1  0  0  0
  9 13  1  0  0  0  0
  9 11  1  0  0  0  0
 11  1  1  0  0  0  0
 11 12  1  1  0  0  0
 12 10  2  0  0  0  0
 13 11  1  0  0  0  0
 14  7  1  0  0  0  0
 15 13  1  0  0  0  0
 17 16  1  6  0  0  0
 17 15  1  0  0  0  0
 18 19  1  0  0  0  0
 19 22  2  0  0  0  0
 19 20  1  0  0  0  0
 21 22  1  0  0  0  0
 22 17  1  0  0  0  0
 23 21  2  0  0  0  0
 24 23  1  0  0  0  0
 24 18  2  0  0  0  0
 25 29  1  0  0  0  0
 26 27  2  0  0  0  0
 26 31  1  0  0  0  0
 28 29  1  0  0  0  0
 28 32  2  0  0  0  0
 29 26  1  0  0  0  0
 30 31  2  0  0  0  0
 32 30  1  0  0  0  0
 33 32  1  0  0  0  0
 33 39  1  1  0  0  0
 35 34  1  6  0  0  0
 35 38  1  0  0  0  0
 35 33  1  0  0  0  0
 36 35  1  0  0  0  0
 37 38  1  0  0  0  0
 39 40  1  0  0  0  0
 40 41  1  1  0  0  0
 40 42  1  0  0  0  0
 43 42  1  0  0  0  0
 43 45  1  0  0  0  0
 44 43  2  0  0  0  0
M  END
>  <MODEL>
6

>  <REMARK>
 VINA RESULT:      -7.8      1.753      2.529
  Name = 
  12 active torsions:
  status: ('A' for Active; 'I' for Inactive)
    1  A    between atoms: C_2  and  N_25
    2  A    between atoms: C_2  and  C_34
    3  A    between atoms: C_2  and  C_36
    4  A    between atoms: C_7  and  C_33
    5  A    between atoms: N_9  and  C_31
    6  A    between atoms: C_10  and  C_31
    7  A    between atoms: N_11  and  C_38
    8  A    between atoms: C_14  and  N_37
    9  A    between atoms: C_14  and  C_41
   10  A    between atoms: C_21  and  C_41
   11  A    between atoms: N_25  and  C_38
   12  A    between atoms: C_34  and  C_42
                            x       y       z     vdW  Elec       q    Type
                         _______ _______ _______ _____ _____    ______ ____

>  <TORSDO>
F 12

$$$$
=
 OpenBabel11062414193D

 45 49  0  0  1  0  0  0  0  0999 V2000
  189.2810  176.4240  142.8210 C   0  0  2  0  0  3  0  0  0  0  0  0
  190.5860  177.1400  140.8000 C   0  0  0  0  0  0  0  0  0  0  0  0
  189.4100  177.9140  140.2600 C   0  0  0  0  0  2  0  0  0  0  0  0
  190.5000  176.4140  141.9260 C   0  0  0  0  0  3  0  0  0  0  0  0
  188.0430  177.0070  142.1340 C   0  0  0  0  0  2  0  0  0  0  0  0
  188.3980  178.2630  141.3460 C   0  0  0  0  0  2  0  0  0  0  0  0
  191.5290  177.9280  145.3810 C   0  0  0  0  0  2  0  0  0  0  0  0
  192.0510  175.8000  146.1950 C   0  0  0  0  0  1  0  0  0  0  0  0
  189.9570  176.1600  145.1820 C   0  0  2  0  0  3  0  0  0  0  0  0
  190.6310  179.2030  143.5930 O   0  0  0  0  0  0  0  0  0  0  0  0
  189.5650  177.1300  144.1500 C   0  0  1  0  0  0  0  0  0  0  0  0
  190.5870  178.2010  144.2880 C   0  0  0  0  0  0  0  0  0  0  0  0
  188.6230  176.8240  145.2570 N   0  0  0  0  0  0  0  0  0  0  0  0
  190.9750  176.7660  146.0690 N   0  0  0  0  0  0  0  0  0  0  0  0
  188.5560  177.9180  146.2280 C   0  0  0  0  0  2  0  0  0  0  0  0
  187.2530  178.7210  148.0590 F   0  0  0  0  0  0  0  0  0  0  0  0
  187.2260  177.8810  146.9600 C   0  0  1  0  0  3  0  0  0  0  0  0
  183.7570  178.6280  145.5650 C   0  0  0  0  0  3  0  0  0  0  0  0
  184.7670  178.2530  146.4560 C   0  0  0  0  0  0  0  0  0  0  0  0
  184.4360  177.8950  147.7210 F   0  0  0  0  0  0  0  0  0  0  0  0
  186.4240  178.6420  144.7270 C   0  0  0  0  0  3  0  0  0  0  0  0
  186.1110  178.2590  146.0360 C   0  0  0  0  0  0  0  0  0  0  0  0
  185.4110  179.0150  143.8410 C   0  0  0  0  0  3  0  0  0  0  0  0
  184.0780  179.0090  144.2590 C   0  0  0  0  0  3  0  0  0  0  0  0
  191.8750  177.1530  140.0470 C   0  0  0  0  0  2  0  0  0  0  0  0
  192.7340  176.3770  137.8770 C   0  0  0  0  0  0  0  0  0  0  0  0
  193.9150  176.6130  138.2510 O   0  0  0  0  0  0  0  0  0  0  0  0
  190.4010  176.3610  138.2890 C   0  0  0  0  0  3  0  0  0  0  0  0
  191.6720  176.6270  138.7010 N   0  0  0  0  0  0  0  0  0  0  0  0
  191.2390  175.5910  136.2010 N   0  0  0  0  0  0  0  0  0  0  0  0
  192.5100  175.8520  136.6020 C   0  0  0  0  0  3  0  0  0  0  0  0
  190.1780  175.8240  137.0210 C   0  0  0  0  0  0  0  0  0  0  0  0
  188.7690  175.5520  136.5660 C   0  0  2  0  0  3  0  0  0  0  0  0
  188.7520  173.0630  136.8740 C   0  0  0  0  0  1  0  0  0  0  0  0
  188.5410  174.1910  135.8730 C   0  0  2  0  0  0  0  0  0  0  0  0
  189.4290  174.0310  134.8230 F   0  0  0  0  0  0  0  0  0  0  0  0
  186.1280  173.6470  136.4090 C   0  0  0  0  0  1  0  0  0  0  0  0
  187.1060  174.1280  135.3500 C   0  0  0  0  0  2  0  0  0  0  0  0
  188.1810  176.6900  135.8460 N   0  0  0  0  0  2  0  0  0  0  0  0
  187.5990  177.6520  136.7740 C   0  0  1  0  0  3  0  0  0  0  0  0
  187.8050  178.9460  136.2960 O   0  0  0  0  0  1  0  0  0  0  0  0
  186.1730  177.4020  136.9080 N   0  0  0  0  0  2  0  0  0  0  0  0
  185.4040  177.9550  137.9760 C   0  0  0  0  0  0  0  0  0  0  0  0
  185.9610  178.6210  138.8870 O   0  0  0  0  0  0  0  0  0  0  0  0
  184.0030  177.7200  138.0320 N   0  0  0  0  0  1  0  0  0  0  0  0
  1  4  1  6  0  0  0
  1 11  1  0  0  0  0
  2  4  2  0  0  0  0
  3  2  1  0  0  0  0
  3  6  1  0  0  0  0
  5  1  1  0  0  0  0
  6  5  1  0  0  0  0
  7 14  1  0  0  0  0
  9 13  1  1  0  0  0
  9 14  1  0  0  0  0
 10 12  2  0  0  0  0
 11 12  1  6  0  0  0
 11  9  1  0  0  0  0
 11 13  1  0  0  0  0
 12  7  1  0  0  0  0
 13 15  1  0  0  0  0
 14  8  1  0  0  0  0
 15 17  1  0  0  0  0
 17 16  1  1  0  0  0
 18 19  1  0  0  0  0
 19 20  1  0  0  0  0
 21 22  1  0  0  0  0
 22 19  2  0  0  0  0
 22 17  1  0  0  0  0
 23 24  1  0  0  0  0
 23 21  2  0  0  0  0
 24 18  2  0  0  0  0
 25  2  1  0  0  0  0
 26 27  2  0  0  0  0
 26 29  1  0  0  0  0
 28 29  1  0  0  0  0
 29 25  1  0  0  0  0
 30 31  2  0  0  0  0
 30 32  1  0  0  0  0
 31 26  1  0  0  0  0
 32 28  2  0  0  0  0
 33 39  1  6  0  0  0
 33 32  1  0  0  0  0
 35 33  1  0  0  0  0
 35 34  1  1  0  0  0
 36 35  1  0  0  0  0
 38 35  1  0  0  0  0
 38 37  1  0  0  0  0
 39 40  1  0  0  0  0
 40 41  1  6  0  0  0
 40 42  1  0  0  0  0
 42 43  1  0  0  0  0
 43 45  1  0  0  0  0
 43 44  2  0  0  0  0
M  END
>  <MODEL>
7

>  <REMARK>
 VINA RESULT:      -7.7      4.749     10.028
  Name = 
  12 active torsions:
  status: ('A' for Active; 'I' for Inactive)
    1  A    between atoms: C_2  and  N_25
    2  A    between atoms: C_2  and  C_34
    3  A    between atoms: C_2  and  C_36
    4  A    between atoms: C_7  and  C_33
    5  A    between atoms: N_9  and  C_31
    6  A    between atoms: C_10  and  C_31
    7  A    between atoms: N_11  and  C_38
    8  A    between atoms: C_14  and  N_37
    9  A    between atoms: C_14  and  C_41
   10  A    between atoms: C_21  and  C_41
   11  A    between atoms: N_25  and  C_38
   12  A    between atoms: C_34  and  C_42
                            x       y       z     vdW  Elec       q    Type
                         _______ _______ _______ _____ _____    ______ ____

>  <TORSDO>
F 12

$$$$
=
 OpenBabel11062414193D

 45 49  0  0  1  0  0  0  0  0999 V2000
  182.1020  175.9830  139.8340 C   0  0  2  0  0  3  0  0  0  0  0  0
  182.6700  174.9900  137.6000 C   0  0  0  0  0  0  0  0  0  0  0  0
  181.2390  175.0930  137.1390 C   0  0  0  0  0  2  0  0  0  0  0  0
  183.0420  175.3330  138.8440 C   0  0  0  0  0  3  0  0  0  0  0  0
  180.6300  175.8480  139.4340 C   0  0  0  0  0  2  0  0  0  0  0  0
  180.4440  176.1160  137.9440 C   0  0  0  0  0  2  0  0  0  0  0  0
  181.4230  179.6440  139.8430 C   0  0  0  0  0  2  0  0  0  0  0  0
  181.8600  179.7460  137.5490 C   0  0  0  0  0  1  0  0  0  0  0  0
  182.9210  178.0940  138.8470 C   0  0  2  0  0  3  0  0  0  0  0  0
  180.9110  178.2670  141.7060 O   0  0  0  0  0  0  0  0  0  0  0  0
  182.4780  177.4450  140.0890 C   0  0  1  0  0  0  0  0  0  0  0  0
  181.5250  178.4310  140.6640 C   0  0  0  0  0  0  0  0  0  0  0  0
  183.9140  177.7820  139.9150 N   0  0  0  0  0  0  0  0  0  0  0  0
  182.4750  179.5050  138.8410 N   0  0  0  0  0  0  0  0  0  0  0  0
  184.3010  178.9390  140.7260 C   0  0  0  0  0  2  0  0  0  0  0  0
  186.5400  179.4830  141.3430 F   0  0  0  0  0  0  0  0  0  0  0  0
  185.5080  178.5930  141.5800 C   0  0  1  0  0  3  0  0  0  0  0  0
  185.6770  178.2490  145.3740 C   0  0  0  0  0  3  0  0  0  0  0  0
  186.0590  178.2230  144.0290 C   0  0  0  0  0  0  0  0  0  0  0  0
  187.3220  177.8520  143.7060 F   0  0  0  0  0  0  0  0  0  0  0  0
  183.8430  178.9790  143.3930 C   0  0  0  0  0  3  0  0  0  0  0  0
  185.1370  178.5900  143.0300 C   0  0  0  0  0  0  0  0  0  0  0  0
  183.4660  179.0020  144.7380 C   0  0  0  0  0  3  0  0  0  0  0  0
  184.3820  178.6380  145.7280 C   0  0  0  0  0  3  0  0  0  0  0  0
  183.7020  174.4610  136.6590 C   0  0  0  0  0  2  0  0  0  0  0  0
  184.1170  176.4670  135.2970 C   0  0  0  0  0  0  0  0  0  0  0  0
  182.9540  176.3890  134.8160 O   0  0  0  0  0  0  0  0  0  0  0  0
  185.8200  175.6440  136.7230 C   0  0  0  0  0  3  0  0  0  0  0  0
  184.5650  175.5460  136.2040 N   0  0  0  0  0  0  0  0  0  0  0  0
  186.2080  177.5950  135.4200 N   0  0  0  0  0  0  0  0  0  0  0  0
  184.9580  177.5070  134.8970 C   0  0  0  0  0  3  0  0  0  0  0  0
  186.6560  176.6920  136.3340 C   0  0  0  0  0  0  0  0  0  0  0  0
  188.0490  176.7800  136.8970 C   0  0  2  0  0  3  0  0  0  0  0  0
  190.2950  176.7460  135.7820 C   0  0  0  0  0  1  0  0  0  0  0  0
  189.1070  175.8930  136.2060 C   0  0  2  0  0  0  0  0  0  0  0  0
  188.5680  175.2870  135.0840 F   0  0  0  0  0  0  0  0  0  0  0  0
  189.0530  173.4450  136.8440 C   0  0  0  0  0  1  0  0  0  0  0  0
  189.5870  174.8250  137.1890 C   0  0  0  0  0  2  0  0  0  0  0  0
  188.0690  176.6920  138.3650 N   0  0  0  0  0  2  0  0  0  0  0  0
  188.8440  177.7840  138.9430 C   0  0  1  0  0  3  0  0  0  0  0  0
  188.2060  178.9970  138.6860 O   0  0  0  0  0  1  0  0  0  0  0  0
  188.9650  177.5900  140.3790 N   0  0  0  0  0  2  0  0  0  0  0  0
  190.2170  177.3010  141.0010 C   0  0  0  0  0  0  0  0  0  0  0  0
  191.2520  177.1280  140.3050 O   0  0  0  0  0  0  0  0  0  0  0  0
  190.2890  177.1700  142.4150 N   0  0  0  0  0  1  0  0  0  0  0  0
  1  4  1  6  0  0  0
  1 11  1  0  0  0  0
  2  4  2  0  0  0  0
  3  2  1  0  0  0  0
  3  6  1  0  0  0  0
  5  1  1  0  0  0  0
  6  5  1  0  0  0  0
  7 12  1  0  0  0  0
  8 14  1  0  0  0  0
  9 14  1  1  0  0  0
  9 13  1  0  0  0  0
  9 11  1  0  0  0  0
 11 12  1  1  0  0  0
 12 10  2  0  0  0  0
 13 11  1  0  0  0  0
 13 15  1  0  0  0  0
 14  7  1  0  0  0  0
 15 17  1  0  0  0  0
 17 16  1  1  0  0  0
 17 22  1  0  0  0  0
 18 24  1  0  0  0  0
 19 18  2  0  0  0  0
 20 19  1  0  0  0  0
 21 23  1  0  0  0  0
 22 21  2  0  0  0  0
 22 19  1  0  0  0  0
 23 24  2  0  0  0  0
 25  2  1  0  0  0  0
 26 29  1  0  0  0  0
 27 26  2  0  0  0  0
 29 25  1  0  0  0  0
 29 28  1  0  0  0  0
 30 32  1  0  0  0  0
 31 26  1  0  0  0  0
 31 30  2  0  0  0  0
 32 28  2  0  0  0  0
 32 33  1  0  0  0  0
 33 39  1  1  0  0  0
 35 34  1  6  0  0  0
 35 33  1  0  0  0  0
 35 38  1  0  0  0  0
 36 35  1  0  0  0  0
 37 38  1  0  0  0  0
 39 40  1  0  0  0  0
 40 41  1  1  0  0  0
 40 42  1  0  0  0  0
 42 43  1  0  0  0  0
 43 45  1  0  0  0  0
 44 43  2  0  0  0  0
M  END
>  <MODEL>
8

>  <REMARK>
 VINA RESULT:      -7.6      3.888      7.598
  Name = 
  12 active torsions:
  status: ('A' for Active; 'I' for Inactive)
    1  A    between atoms: C_2  and  N_25
    2  A    between atoms: C_2  and  C_34
    3  A    between atoms: C_2  and  C_36
    4  A    between atoms: C_7  and  C_33
    5  A    between atoms: N_9  and  C_31
    6  A    between atoms: C_10  and  C_31
    7  A    between atoms: N_11  and  C_38
    8  A    between atoms: C_14  and  N_37
    9  A    between atoms: C_14  and  C_41
   10  A    between atoms: C_21  and  C_41
   11  A    between atoms: N_25  and  C_38
   12  A    between atoms: C_34  and  C_42
                            x       y       z     vdW  Elec       q    Type
                         _______ _______ _______ _____ _____    ______ ____

>  <TORSDO>
F 12

$$$$
=
 OpenBabel11062414193D

 45 49  0  0  1  0  0  0  0  0999 V2000
  186.9090  176.6700  135.8090 C   0  0  2  0  0  3  0  0  0  0  0  0
  189.0630  176.3760  137.0630 C   0  0  0  0  0  0  0  0  0  0  0  0
  189.1970  177.8620  137.2730 C   0  0  0  0  0  2  0  0  0  0  0  0
  188.0610  175.8470  136.3430 C   0  0  0  0  0  3  0  0  0  0  0  0
  187.1950  178.1740  135.8240 C   0  0  0  0  0  2  0  0  0  0  0  0
  187.8630  178.5890  137.1300 C   0  0  0  0  0  2  0  0  0  0  0  0
  183.8860  174.5960  136.4590 C   0  0  0  0  0  2  0  0  0  0  0  0
  182.8250  175.5300  134.5970 C   0  0  0  0  0  1  0  0  0  0  0  0
  184.4430  176.7920  135.7510 C   0  0  2  0  0  3  0  0  0  0  0  0
  185.9340  174.2200  137.5960 O   0  0  0  0  0  0  0  0  0  0  0  0
  185.6020  176.3440  136.5370 C   0  0  1  0  0  0  0  0  0  0  0  0
  185.2260  174.9620  136.9340 C   0  0  0  0  0  0  0  0  0  0  0  0
  184.8140  177.5150  137.0010 N   0  0  0  0  0  0  0  0  0  0  0  0
  183.3290  175.8340  135.9240 N   0  0  0  0  0  0  0  0  0  0  0  0
  183.9760  177.1790  138.1550 C   0  0  0  0  0  2  0  0  0  0  0  0
  184.8450  179.3200  138.7510 F   0  0  0  0  0  0  0  0  0  0  0  0
  184.1270  178.2390  139.2320 C   0  0  1  0  0  3  0  0  0  0  0  0
  180.6740  179.8440  139.4290 C   0  0  0  0  0  3  0  0  0  0  0  0
  181.9280  179.4710  138.9370 C   0  0  0  0  0  0  0  0  0  0  0  0
  182.3000  179.8720  137.6960 F   0  0  0  0  0  0  0  0  0  0  0  0
  182.3690  178.2680  140.9970 C   0  0  0  0  0  3  0  0  0  0  0  0
  182.7830  178.6770  139.7250 C   0  0  0  0  0  0  0  0  0  0  0  0
  181.1150  178.6450  141.4850 C   0  0  0  0  0  3  0  0  0  0  0  0
  180.2680  179.4330  140.7020 C   0  0  0  0  0  3  0  0  0  0  0  0
  190.0920  175.4620  137.6440 C   0  0  0  0  0  2  0  0  0  0  0  0
  192.1670  176.4780  138.4900 C   0  0  0  0  0  0  0  0  0  0  0  0
  192.7640  176.1610  137.4260 O   0  0  0  0  0  0  0  0  0  0  0  0
  190.2120  176.5140  139.8280 C   0  0  0  0  0  3  0  0  0  0  0  0
  190.8500  176.1590  138.6790 N   0  0  0  0  0  0  0  0  0  0  0  0
  192.2140  177.5140  140.6320 N   0  0  0  0  0  0  0  0  0  0  0  0
  192.8590  177.1650  139.4890 C   0  0  0  0  0  3  0  0  0  0  0  0
  190.9000  177.2120  140.8210 C   0  0  0  0  0  0  0  0  0  0  0  0
  190.1920  177.5810  142.0970 C   0  0  2  0  0  3  0  0  0  0  0  0
  191.6870  178.6470  143.8060 C   0  0  0  0  0  1  0  0  0  0  0  0
  190.9950  177.3540  143.3960 C   0  0  2  0  0  0  0  0  0  0  0  0
  191.9540  176.3730  143.2040 F   0  0  0  0  0  0  0  0  0  0  0  0
  189.7420  178.0620  145.4780 C   0  0  0  0  0  1  0  0  0  0  0  0
  190.0380  176.9280  144.5100 C   0  0  0  0  0  2  0  0  0  0  0  0
  188.8190  177.0600  142.1500 N   0  0  0  0  0  2  0  0  0  0  0  0
  187.8460  178.1370  142.0080 C   0  0  1  0  0  3  0  0  0  0  0  0
  187.4590  178.2430  140.6720 O   0  0  0  0  0  1  0  0  0  0  0  0
  186.6820  177.8560  142.8330 N   0  0  0  0  0  2  0  0  0  0  0  0
  185.5210  178.6870  142.8130 C   0  0  0  0  0  0  0  0  0  0  0  0
  185.5020  179.7430  142.1280 O   0  0  0  0  0  0  0  0  0  0  0  0
  184.3910  178.3380  143.6020 N   0  0  0  0  0  1  0  0  0  0  0  0
  1  5  1  1  0  0  0
  1  4  1  0  0  0  0
  1 11  1  0  0  0  0
  2  3  1  0  0  0  0
  2 25  1  0  0  0  0
  4  2  2  0  0  0  0
  5  6  1  0  0  0  0
  6  3  1  0  0  0  0
  7 12  1  0  0  0  0
  8 14  1  0  0  0  0
  9 14  1  1  0  0  0
  9 11  1  0  0  0  0
  9 13  1  0  0  0  0
 11 12  1  1  0  0  0
 11 13  1  0  0  0  0
 12 10  2  0  0  0  0
 13 15  1  0  0  0  0
 14  7  1  0  0  0  0
 15 17  1  0  0  0  0
 17 16  1  6  0  0  0
 17 22  1  0  0  0  0
 18 24  1  0  0  0  0
 19 18  2  0  0  0  0
 19 22  1  0  0  0  0
 20 19  1  0  0  0  0
 21 23  1  0  0  0  0
 22 21  2  0  0  0  0
 24 23  2  0  0  0  0
 25 29  1  0  0  0  0
 26 29  1  0  0  0  0
 26 31  1  0  0  0  0
 27 26  2  0  0  0  0
 28 32  2  0  0  0  0
 29 28  1  0  0  0  0
 30 32  1  0  0  0  0
 31 30  2  0  0  0  0
 32 33  1  0  0  0  0
 33 39  1  1  0  0  0
 33 35  1  0  0  0  0
 35 34  1  1  0  0  0
 35 38  1  0  0  0  0
 36 35  1  0  0  0  0
 38 37  1  0  0  0  0
 40 41  1  6  0  0  0
 40 39  1  0  0  0  0
 40 42  1  0  0  0  0
 43 42  1  0  0  0  0
 43 45  1  0  0  0  0
 44 43  2  0  0  0  0
M  END
>  <MODEL>
9

>  <REMARK>
 VINA RESULT:      -7.6      3.431      6.407
  Name = 
  12 active torsions:
  status: ('A' for Active; 'I' for Inactive)
    1  A    between atoms: C_2  and  N_25
    2  A    between atoms: C_2  and  C_34
    3  A    between atoms: C_2  and  C_36
    4  A    between atoms: C_7  and  C_33
    5  A    between atoms: N_9  and  C_31
    6  A    between atoms: C_10  and  C_31
    7  A    between atoms: N_11  and  C_38
    8  A    between atoms: C_14  and  N_37
    9  A    between atoms: C_14  and  C_41
   10  A    between atoms: C_21  and  C_41
   11  A    between atoms: N_25  and  C_38
   12  A    between atoms: C_34  and  C_42
                            x       y       z     vdW  Elec       q    Type
                         _______ _______ _______ _____ _____    ______ ____

>  <TORSDO>
F 12

$$$$
