=
 OpenBabel11062415253D

 48 52  0  0  1  0  0  0  0  0999 V2000
  189.1930  177.8000  139.9710 C   0  0  0  0  0  0  0  0  0  0  0  0
  191.5870  177.0240  139.2870 C   0  0  0  0  0  3  0  0  0  0  0  0
  190.3970  177.4160  139.6400 C   0  0  0  0  0  0  0  0  0  0  0  0
  188.2660  178.2090  138.8630 C   0  0  2  0  0  3  0  0  0  0  0  0
  187.9150  179.3820  136.7020 C   0  0  0  0  0  2  0  0  0  0  0  0
  187.5620  177.0900  138.3810 O   0  0  0  0  0  0  0  0  0  0  0  0
  186.4650  177.5940  137.6590 C   0  0  1  0  0  3  0  0  0  0  0  0
  188.9720  178.9180  137.7010 C   0  0  0  0  0  2  0  0  0  0  0  0
  186.9590  178.2370  136.3620 C   0  0  0  0  0  2  0  0  0  0  0  0
  185.5770  176.5570  137.3580 O   0  0  0  0  0  0  0  0  0  0  0  0
  184.3050  177.1160  137.5050 C   0  0  0  0  0  2  0  0  0  0  0  0
  184.2520  177.9950  138.7440 C   0  0  0  0  0  2  0  0  0  0  0  0
  183.2960  177.4090  139.7750 C   0  0  0  0  0  2  0  0  0  0  0  0
  181.8420  177.5590  139.3390 C   0  0  2  0  0  3  0  0  0  0  0  0
  181.2380  178.8630  139.7890 C   0  0  0  0  0  0  0  0  0  0  0  0
  181.0750  179.1110  141.0940 C   0  0  0  0  0  2  0  0  0  0  0  0
  181.0390  179.5990  137.3960 C   0  0  0  0  0  2  0  0  0  0  0  0
  180.4570  179.6950  138.7980 C   0  0  2  0  0  3  0  0  0  0  0  0
  182.5770  180.9170  138.6480 O   0  0  0  0  0  1  0  0  0  0  0  0
  181.2490  180.8680  138.2010 C   0  0  1  0  0  3  0  0  0  0  0  0
  181.0190  176.3770  139.8250 C   0  0  0  0  0  2  0  0  0  0  0  0
  180.2750  175.7520  138.6500 C   0  0  0  0  0  2  0  0  0  0  0  0
  181.0140  175.9330  137.4410 O   0  0  0  0  0  0  0  0  0  0  0  0
  181.2090  173.5660  136.8710 N   0  0  0  0  0  1  0  0  0  0  0  0
  181.1250  175.2190  135.2410 O   0  0  0  0  0  0  0  0  0  0  0  0
  181.1230  174.9320  136.4690 C   0  0  0  0  0  0  0  0  0  0  0  0
  191.7450  175.7650  138.5050 C   0  0  0  0  0  2  0  0  0  0  0  0
  189.8450  173.3020  134.7710 C   0  0  0  0  0  1  0  0  0  0  0  0
  189.6440  174.3750  135.7360 N   0  0  0  0  0  0  0  0  0  0  0  0
  190.1600  175.6160  135.1670 C   0  0  0  0  0  2  0  0  0  0  0  0
  190.5820  175.5900  137.5360 C   0  0  2  0  0  3  0  0  0  0  0  0
  190.3750  174.1780  136.9960 C   0  0  2  0  0  3  0  0  0  0  0  0
  190.7580  176.4390  136.3020 C   0  0  0  0  0  2  0  0  0  0  0  0
  191.7130  173.4350  136.8140 C   0  0  0  0  0  1  0  0  0  0  0  0
  188.7940  177.9390  141.4230 C   0  0  2  0  0  3  0  0  0  0  0  0
  189.8080  177.4690  142.4380 C   0  0  0  0  0  0  0  0  0  0  0  0
  190.4730  178.4190  143.2280 C   0  0  0  0  0  3  0  0  0  0  0  0
  191.0160  175.6980  143.5850 C   0  0  0  0  0  3  0  0  0  0  0  0
  191.6770  176.6540  144.3690 C   0  0  0  0  0  3  0  0  0  0  0  0
  190.0850  176.1030  142.6240 C   0  0  0  0  0  3  0  0  0  0  0  0
  191.4090  178.0130  144.1870 C   0  0  0  0  0  3  0  0  0  0  0  0
  187.4520  177.5080  141.6920 O   0  0  0  0  0  0  0  0  0  0  0  0
  184.9570  178.9200  144.7810 C   0  0  0  0  0  3  0  0  0  0  0  0
  186.8710  177.6080  144.0820 C   0  0  0  0  0  3  0  0  0  0  0  0
  185.5520  178.7970  142.4370 C   0  0  0  0  0  3  0  0  0  0  0  0
  186.6340  177.9600  142.7420 C   0  0  0  0  0  0  0  0  0  0  0  0
  184.7140  179.2740  143.4510 C   0  0  0  0  0  3  0  0  0  0  0  0
  186.0360  178.0880  145.0980 C   0  0  0  0  0  3  0  0  0  0  0  0
  2  3  2  0  0  0  0
  3  1  2  0  0  0  0
  4  1  1  1  0  0  0
  5  8  1  0  0  0  0
  6  4  1  0  0  0  0
  7 10  1  6  0  0  0
  7  6  1  0  0  0  0
  8  4  1  0  0  0  0
  9  5  1  0  0  0  0
  9  7  1  0  0  0  0
 10 11  1  0  0  0  0
 11 12  1  0  0  0  0
 12 13  1  0  0  0  0
 14 13  1  1  0  0  0
 14 15  1  0  0  0  0
 14 21  1  0  0  0  0
 15 16  2  0  0  0  0
 17 20  1  0  0  0  0
 17 18  1  0  0  0  0
 18 15  1  1  0  0  0
 20 19  1  1  0  0  0
 20 18  1  0  0  0  0
 22 21  1  0  0  0  0
 23 22  1  0  0  0  0
 25 26  2  0  0  0  0
 26 24  1  0  0  0  0
 26 23  1  0  0  0  0
 27  2  1  0  0  0  0
 28 29  1  0  0  0  0
 29 32  1  0  0  0  0
 30 29  1  0  0  0  0
 30 33  1  0  0  0  0
 31 27  1  1  0  0  0
 32 34  1  6  0  0  0
 32 31  1  0  0  0  0
 33 31  1  0  0  0  0
 35  1  1  6  0  0  0
 35 42  1  0  0  0  0
 35 36  1  0  0  0  0
 36 40  2  0  0  0  0
 36 37  1  0  0  0  0
 37 41  2  0  0  0  0
 38 39  2  0  0  0  0
 40 38  1  0  0  0  0
 41 39  1  0  0  0  0
 42 46  1  0  0  0  0
 43 48  1  0  0  0  0
 44 48  2  0  0  0  0
 45 46  2  0  0  0  0
 45 47  1  0  0  0  0
 46 44  1  0  0  0  0
 47 43  2  0  0  0  0
M  END
>  <MODEL>
1

>  <REMARK>
 VINA RESULT:      -6.8      0.000      0.000
  Name = 
  18 active torsions:
  status: ('A' for Active; 'I' for Inactive)
    1  A    between atoms: C_2  and  C_15
    2  A    between atoms: O_6  and  C_16
    3  A    between atoms: O_6  and  C_30
    4  A    between atoms: C_10  and  C_16
    5  A    between atoms: C_10  and  C_25
    6  A    between atoms: C_11  and  C_39
    7  A    between atoms: C_13  and  C_18
    8  A    between atoms: C_15  and  C_18
    9  A    between atoms: C_17  and  O_38
   10  A    between atoms: C_18  and  O_38
   11  A    between atoms: C_20  and  C_21
   12  A    between atoms: C_21  and  C_37
   13  A    between atoms: C_25  and  C_27
   14  A    between atoms: C_27  and  C_32
   15  A    between atoms: C_27  and  C_39
   16  A    between atoms: C_31  and  C_32
   17  A    between atoms: C_31  and  O_41
   18  A    between atoms: C_40  and  O_41
                            x       y       z     vdW  Elec       q    Type
                         _______ _______ _______ _____ _____    ______ ____

>  <TORSDO>
F 18

$$$$
=
 OpenBabel11062415253D

 48 52  0  0  1  0  0  0  0  0999 V2000
  188.1030  177.8730  141.1040 C   0  0  0  0  0  0  0  0  0  0  0  0
  190.3110  177.5290  139.7590 C   0  0  0  0  0  3  0  0  0  0  0  0
  189.2160  177.7070  140.4400 C   0  0  0  0  0  0  0  0  0  0  0  0
  186.8330  177.9910  140.3110 C   0  0  2  0  0  3  0  0  0  0  0  0
  184.5150  178.8640  140.1170 C   0  0  0  0  0  2  0  0  0  0  0  0
  187.1160  178.4240  139.0030 O   0  0  0  0  0  0  0  0  0  0  0  0
  185.9750  178.1290  138.2340 C   0  0  1  0  0  3  0  0  0  0  0  0
  185.7930  178.9190  140.9510 C   0  0  0  0  0  2  0  0  0  0  0  0
  184.8340  179.0650  138.6340 C   0  0  0  0  0  2  0  0  0  0  0  0
  186.2610  178.2950  136.8760 O   0  0  0  0  0  0  0  0  0  0  0  0
  186.2940  177.0000  136.3520 C   0  0  0  0  0  2  0  0  0  0  0  0
  184.8840  176.5110  136.0590 C   0  0  0  0  0  2  0  0  0  0  0  0
  184.7400  175.0420  136.4320 C   0  0  0  0  0  2  0  0  0  0  0  0
  183.4450  174.7840  137.1960 C   0  0  2  0  0  3  0  0  0  0  0  0
  182.4280  174.0400  136.3710 C   0  0  0  0  0  0  0  0  0  0  0  0
  181.5630  174.7150  135.6050 C   0  0  0  0  0  2  0  0  0  0  0  0
  183.3630  171.8290  137.1110 C   0  0  0  0  0  2  0  0  0  0  0  0
  182.1150  172.6010  136.7100 C   0  0  2  0  0  3  0  0  0  0  0  0
  183.5400  172.1730  134.7620 O   0  0  0  0  0  1  0  0  0  0  0  0
  182.7420  171.5790  135.7500 C   0  0  1  0  0  3  0  0  0  0  0  0
  182.8730  176.0900  137.7240 C   0  0  0  0  0  2  0  0  0  0  0  0
  182.1050  175.8300  139.0150 C   0  0  0  0  0  2  0  0  0  0  0  0
  181.1050  176.8310  139.2090 O   0  0  0  0  0  0  0  0  0  0  0  0
  180.9680  178.2790  141.1700 N   0  0  0  0  0  1  0  0  0  0  0  0
  179.6790  176.3570  140.9700 O   0  0  0  0  0  0  0  0  0  0  0  0
  180.5530  177.1110  140.4630 C   0  0  0  0  0  0  0  0  0  0  0  0
  190.5060  176.2630  138.9990 C   0  0  0  0  0  2  0  0  0  0  0  0
  189.5680  174.3250  134.6410 C   0  0  0  0  0  1  0  0  0  0  0  0
  189.1360  175.2750  135.6580 N   0  0  0  0  0  0  0  0  0  0  0  0
  189.7660  176.5650  135.3880 C   0  0  0  0  0  2  0  0  0  0  0  0
  189.6100  176.2360  137.7670 C   0  0  2  0  0  3  0  0  0  0  0  0
  189.5470  174.9070  137.0200 C   0  0  2  0  0  3  0  0  0  0  0  0
  190.0710  177.2270  136.7260 C   0  0  0  0  0  2  0  0  0  0  0  0
  190.8930  174.1600  137.0700 C   0  0  0  0  0  1  0  0  0  0  0  0
  188.1140  178.0580  142.6050 C   0  0  2  0  0  3  0  0  0  0  0  0
  189.4490  177.8750  143.2860 C   0  0  0  0  0  0  0  0  0  0  0  0
  189.8780  176.5780  143.6100 C   0  0  0  0  0  3  0  0  0  0  0  0
  191.5190  178.7650  144.1980 C   0  0  0  0  0  3  0  0  0  0  0  0
  191.9380  177.4670  144.5200 C   0  0  0  0  0  3  0  0  0  0  0  0
  190.2800  178.9690  143.5840 C   0  0  0  0  0  3  0  0  0  0  0  0
  191.1160  176.3750  144.2300 C   0  0  0  0  0  3  0  0  0  0  0  0
  187.0220  177.4060  143.2700 O   0  0  0  0  0  0  0  0  0  0  0  0
  185.2590  178.6350  146.8950 C   0  0  0  0  0  3  0  0  0  0  0  0
  185.1290  178.4020  144.4870 C   0  0  0  0  0  3  0  0  0  0  0  0
  187.1080  177.6640  145.6680 C   0  0  0  0  0  3  0  0  0  0  0  0
  186.4120  177.8290  144.4640 C   0  0  0  0  0  0  0  0  0  0  0  0
  186.5360  178.0670  146.8810 C   0  0  0  0  0  3  0  0  0  0  0  0
  184.5540  178.8020  145.6990 C   0  0  0  0  0  3  0  0  0  0  0  0
  2  3  2  0  0  0  0
  3  1  2  0  0  0  0
  4  8  1  0  0  0  0
  4  1  1  1  0  0  0
  5  8  1  0  0  0  0
  6  4  1  0  0  0  0
  7 10  1  6  0  0  0
  7  9  1  0  0  0  0
  7  6  1  0  0  0  0
  9  5  1  0  0  0  0
 11 10  1  0  0  0  0
 12 11  1  0  0  0  0
 12 13  1  0  0  0  0
 14 13  1  6  0  0  0
 14 21  1  0  0  0  0
 15 14  1  0  0  0  0
 16 15  2  0  0  0  0
 18 15  1  6  0  0  0
 18 17  1  0  0  0  0
 20 19  1  6  0  0  0
 20 18  1  0  0  0  0
 20 17  1  0  0  0  0
 21 22  1  0  0  0  0
 22 23  1  0  0  0  0
 23 26  1  0  0  0  0
 26 25  2  0  0  0  0
 26 24  1  0  0  0  0
 27  2  1  0  0  0  0
 28 29  1  0  0  0  0
 29 32  1  0  0  0  0
 30 29  1  0  0  0  0
 30 33  1  0  0  0  0
 31 27  1  1  0  0  0
 32 34  1  6  0  0  0
 32 31  1  0  0  0  0
 33 31  1  0  0  0  0
 35  1  1  6  0  0  0
 35 42  1  0  0  0  0
 35 36  1  0  0  0  0
 36 40  2  0  0  0  0
 36 37  1  0  0  0  0
 37 41  2  0  0  0  0
 38 39  2  0  0  0  0
 40 38  1  0  0  0  0
 41 39  1  0  0  0  0
 42 46  1  0  0  0  0
 44 48  1  0  0  0  0
 45 47  2  0  0  0  0
 46 44  2  0  0  0  0
 46 45  1  0  0  0  0
 47 43  1  0  0  0  0
 48 43  2  0  0  0  0
M  END
>  <MODEL>
2

>  <REMARK>
 VINA RESULT:      -6.7      2.035      3.870
  Name = 
  18 active torsions:
  status: ('A' for Active; 'I' for Inactive)
    1  A    between atoms: C_2  and  C_15
    2  A    between atoms: O_6  and  C_16
    3  A    between atoms: O_6  and  C_30
    4  A    between atoms: C_10  and  C_16
    5  A    between atoms: C_10  and  C_25
    6  A    between atoms: C_11  and  C_39
    7  A    between atoms: C_13  and  C_18
    8  A    between atoms: C_15  and  C_18
    9  A    between atoms: C_17  and  O_38
   10  A    between atoms: C_18  and  O_38
   11  A    between atoms: C_20  and  C_21
   12  A    between atoms: C_21  and  C_37
   13  A    between atoms: C_25  and  C_27
   14  A    between atoms: C_27  and  C_32
   15  A    between atoms: C_27  and  C_39
   16  A    between atoms: C_31  and  C_32
   17  A    between atoms: C_31  and  O_41
   18  A    between atoms: C_40  and  O_41
                            x       y       z     vdW  Elec       q    Type
                         _______ _______ _______ _____ _____    ______ ____

>  <TORSDO>
F 18

$$$$
=
 OpenBabel11062415253D

 48 52  0  0  1  0  0  0  0  0999 V2000
  188.6680  177.9300  140.3860 C   0  0  0  0  0  0  0  0  0  0  0  0
  191.0130  177.2390  139.4760 C   0  0  0  0  0  3  0  0  0  0  0  0
  189.8490  177.5880  139.9420 C   0  0  0  0  0  0  0  0  0  0  0  0
  187.6190  178.2800  139.3710 C   0  0  2  0  0  3  0  0  0  0  0  0
  186.4640  177.7590  137.2340 C   0  0  0  0  0  2  0  0  0  0  0  0
  186.3780  178.4780  140.0040 O   0  0  0  0  0  0  0  0  0  0  0  0
  185.5720  179.1730  139.0840 C   0  0  1  0  0  3  0  0  0  0  0  0
  187.4710  177.2360  138.2560 C   0  0  0  0  0  2  0  0  0  0  0  0
  185.1910  178.2400  137.9330 C   0  0  0  0  0  2  0  0  0  0  0  0
  184.4130  179.6310  139.7180 O   0  0  0  0  0  0  0  0  0  0  0  0
  183.3660  178.9420  139.1010 C   0  0  0  0  0  2  0  0  0  0  0  0
  182.0720  179.7340  139.2130 C   0  0  0  0  0  2  0  0  0  0  0  0
  180.8720  178.8390  138.9330 C   0  0  0  0  0  2  0  0  0  0  0  0
  181.2460  177.3620  139.0110 C   0  0  2  0  0  3  0  0  0  0  0  0
  180.9360  176.6210  137.7370 C   0  0  0  0  0  0  0  0  0  0  0  0
  179.8750  176.9700  137.0000 C   0  0  0  0  0  2  0  0  0  0  0  0
  183.0090  175.2200  137.9490 C   0  0  0  0  0  2  0  0  0  0  0  0
  181.5550  175.2620  137.5060 C   0  0  2  0  0  3  0  0  0  0  0  0
  182.9750  176.5320  135.9620 O   0  0  0  0  0  1  0  0  0  0  0  0
  182.6860  175.2550  136.4670 C   0  0  1  0  0  3  0  0  0  0  0  0
  180.5680  176.7070  140.2040 C   0  0  0  0  0  2  0  0  0  0  0  0
  179.3720  177.5470  140.6380 C   0  0  0  0  0  2  0  0  0  0  0  0
  179.2170  177.4950  142.0580 O   0  0  0  0  0  0  0  0  0  0  0  0
  179.5380  178.3680  144.3160 N   0  0  0  0  0  1  0  0  0  0  0  0
  180.3450  179.4800  142.4430 O   0  0  0  0  0  0  0  0  0  0  0  0
  179.7180  178.4890  142.9060 C   0  0  0  0  0  0  0  0  0  0  0  0
  191.1460  175.9730  138.7020 C   0  0  0  0  0  2  0  0  0  0  0  0
  193.2720  174.0370  134.7830 C   0  0  0  0  0  1  0  0  0  0  0  0
  193.0790  175.2420  135.5810 N   0  0  0  0  0  0  0  0  0  0  0  0
  194.1160  175.2910  136.6070 C   0  0  0  0  0  2  0  0  0  0  0  0
  192.0650  176.1740  137.5030 C   0  0  2  0  0  3  0  0  0  0  0  0
  191.8000  175.2700  136.3030 C   0  0  2  0  0  3  0  0  0  0  0  0
  193.5060  175.9060  137.8610 C   0  0  0  0  0  2  0  0  0  0  0  0
  191.3130  173.8750  136.7370 C   0  0  0  0  0  1  0  0  0  0  0  0
  188.4110  178.0800  141.8690 C   0  0  2  0  0  3  0  0  0  0  0  0
  189.5590  177.7230  142.7820 C   0  0  0  0  0  0  0  0  0  0  0  0
  189.9000  176.3720  142.9520 C   0  0  0  0  0  3  0  0  0  0  0  0
  191.3760  178.3490  144.2710 C   0  0  0  0  0  3  0  0  0  0  0  0
  191.7080  176.9980  144.4370 C   0  0  0  0  0  3  0  0  0  0  0  0
  190.3060  178.7110  143.4470 C   0  0  0  0  0  3  0  0  0  0  0  0
  190.9690  176.0100  143.7820 C   0  0  0  0  0  3  0  0  0  0  0  0
  187.1440  177.5510  142.2860 O   0  0  0  0  0  0  0  0  0  0  0  0
  185.0080  178.6510  145.7480 C   0  0  0  0  0  3  0  0  0  0  0  0
  186.8840  177.5020  144.7340 C   0  0  0  0  0  3  0  0  0  0  0  0
  185.2890  178.6760  143.3430 C   0  0  0  0  0  3  0  0  0  0  0  0
  186.4490  177.8990  143.4570 C   0  0  0  0  0  0  0  0  0  0  0  0
  184.5670  179.0490  144.4830 C   0  0  0  0  0  3  0  0  0  0  0  0
  186.1660  177.8780  145.8750 C   0  0  0  0  0  3  0  0  0  0  0  0
  2  3  2  0  0  0  0
  3  1  2  0  0  0  0
  4  6  1  0  0  0  0
  4  1  1  1  0  0  0
  5  9  1  0  0  0  0
  5  8  1  0  0  0  0
  7 10  1  1  0  0  0
  7  6  1  0  0  0  0
  8  4  1  0  0  0  0
  9  7  1  0  0  0  0
 11 12  1  0  0  0  0
 11 10  1  0  0  0  0
 13 12  1  0  0  0  0
 14 13  1  6  0  0  0
 14 21  1  0  0  0  0
 15 14  1  0  0  0  0
 16 15  2  0  0  0  0
 18 15  1  1  0  0  0
 18 17  1  0  0  0  0
 20 19  1  1  0  0  0
 20 18  1  0  0  0  0
 20 17  1  0  0  0  0
 21 22  1  0  0  0  0
 22 23  1  0  0  0  0
 23 26  1  0  0  0  0
 25 26  2  0  0  0  0
 26 24  1  0  0  0  0
 27  2  1  0  0  0  0
 28 29  1  0  0  0  0
 29 32  1  0  0  0  0
 29 30  1  0  0  0  0
 30 33  1  0  0  0  0
 31 33  1  0  0  0  0
 31 27  1  1  0  0  0
 32 34  1  1  0  0  0
 32 31  1  0  0  0  0
 35  1  1  6  0  0  0
 35 42  1  0  0  0  0
 35 36  1  0  0  0  0
 36 37  2  0  0  0  0
 36 40  1  0  0  0  0
 37 41  1  0  0  0  0
 38 39  1  0  0  0  0
 40 38  2  0  0  0  0
 41 39  2  0  0  0  0
 42 46  1  0  0  0  0
 43 48  1  0  0  0  0
 44 48  2  0  0  0  0
 45 46  2  0  0  0  0
 45 47  1  0  0  0  0
 46 44  1  0  0  0  0
 47 43  2  0  0  0  0
M  END
>  <MODEL>
3

>  <REMARK>
 VINA RESULT:      -6.7      2.183      3.367
  Name = 
  18 active torsions:
  status: ('A' for Active; 'I' for Inactive)
    1  A    between atoms: C_2  and  C_15
    2  A    between atoms: O_6  and  C_16
    3  A    between atoms: O_6  and  C_30
    4  A    between atoms: C_10  and  C_16
    5  A    between atoms: C_10  and  C_25
    6  A    between atoms: C_11  and  C_39
    7  A    between atoms: C_13  and  C_18
    8  A    between atoms: C_15  and  C_18
    9  A    between atoms: C_17  and  O_38
   10  A    between atoms: C_18  and  O_38
   11  A    between atoms: C_20  and  C_21
   12  A    between atoms: C_21  and  C_37
   13  A    between atoms: C_25  and  C_27
   14  A    between atoms: C_27  and  C_32
   15  A    between atoms: C_27  and  C_39
   16  A    between atoms: C_31  and  C_32
   17  A    between atoms: C_31  and  O_41
   18  A    between atoms: C_40  and  O_41
                            x       y       z     vdW  Elec       q    Type
                         _______ _______ _______ _____ _____    ______ ____

>  <TORSDO>
F 18

$$$$
=
 OpenBabel11062415253D

 48 52  0  0  1  0  0  0  0  0999 V2000
  183.7150  176.6600  137.6520 C   0  0  0  0  0  0  0  0  0  0  0  0
  182.2350  178.7170  138.2730 C   0  0  0  0  0  3  0  0  0  0  0  0
  182.9620  177.6840  137.9580 C   0  0  0  0  0  0  0  0  0  0  0  0
  185.1680  176.9220  137.3820 C   0  0  2  0  0  3  0  0  0  0  0  0
  186.9810  177.3930  135.7510 C   0  0  0  0  0  2  0  0  0  0  0  0
  185.6390  177.9520  138.2170 O   0  0  0  0  0  0  0  0  0  0  0  0
  187.0430  177.8650  138.1980 C   0  0  1  0  0  3  0  0  0  0  0  0
  185.4690  177.2630  135.9170 C   0  0  0  0  0  2  0  0  0  0  0  0
  187.5630  178.3080  136.8300 C   0  0  0  0  0  2  0  0  0  0  0  0
  187.5840  178.6870  139.1920 O   0  0  0  0  0  0  0  0  0  0  0  0
  188.9420  178.3600  139.2320 C   0  0  0  0  0  2  0  0  0  0  0  0
  189.3770  178.0820  140.6620 C   0  0  0  0  0  2  0  0  0  0  0  0
  188.3160  177.2710  141.3950 C   0  0  0  0  0  2  0  0  0  0  0  0
  188.4930  177.3580  142.9080 C   0  0  2  0  0  3  0  0  0  0  0  0
  189.7950  176.7600  143.3710 C   0  0  0  0  0  0  0  0  0  0  0  0
  190.1270  175.5150  143.0090 C   0  0  0  0  0  2  0  0  0  0  0  0
  190.4720  178.9020  144.4940 C   0  0  0  0  0  2  0  0  0  0  0  0
  190.5160  177.3820  144.5440 C   0  0  2  0  0  3  0  0  0  0  0  0
  191.9790  178.2380  142.7740 O   0  0  0  0  0  1  0  0  0  0  0  0
  191.7670  178.1850  144.1590 C   0  0  1  0  0  3  0  0  0  0  0  0
  187.3120  176.7140  143.6160 C   0  0  0  0  0  2  0  0  0  0  0  0
  186.2840  177.7810  143.9740 C   0  0  0  0  0  2  0  0  0  0  0  0
  186.0250  177.7710  145.3790 O   0  0  0  0  0  0  0  0  0  0  0  0
  184.4320  179.6140  145.2010 N   0  0  0  0  0  1  0  0  0  0  0  0
  184.7120  178.4190  147.1730 O   0  0  0  0  0  0  0  0  0  0  0  0
  185.0570  178.5890  145.9720 C   0  0  0  0  0  0  0  0  0  0  0  0
  182.4870  179.4290  139.5570 C   0  0  0  0  0  2  0  0  0  0  0  0
  179.3120  179.2230  143.2310 C   0  0  0  0  0  1  0  0  0  0  0  0
  180.3590  178.5210  142.5010 N   0  0  0  0  0  0  0  0  0  0  0  0
  181.6470  178.8400  143.1100 C   0  0  0  0  0  2  0  0  0  0  0  0
  181.9210  178.6350  140.7290 C   0  0  2  0  0  3  0  0  0  0  0  0
  180.4700  178.9320  141.0930 C   0  0  2  0  0  3  0  0  0  0  0  0
  182.6880  178.9030  142.0000 C   0  0  0  0  0  2  0  0  0  0  0  0
  180.1150  180.4130  140.8610 C   0  0  0  0  0  1  0  0  0  0  0  0
  183.1140  175.2860  137.4640 C   0  0  2  0  0  3  0  0  0  0  0  0
  181.6870  175.1150  137.9270 C   0  0  0  0  0  0  0  0  0  0  0  0
  181.3970  175.2180  139.2970 C   0  0  0  0  0  3  0  0  0  0  0  0
  179.3270  174.7420  137.4760 C   0  0  0  0  0  3  0  0  0  0  0  0
  179.0470  174.8450  138.8460 C   0  0  0  0  0  3  0  0  0  0  0  0
  180.6410  174.8760  137.0180 C   0  0  0  0  0  3  0  0  0  0  0  0
  180.0810  175.0780  139.7550 C   0  0  0  0  0  3  0  0  0  0  0  0
  183.9890  174.2190  137.8580 O   0  0  0  0  0  0  0  0  0  0  0  0
  184.9030  170.7910  135.5850 C   0  0  0  0  0  3  0  0  0  0  0  0
  183.3710  171.9840  137.0330 C   0  0  0  0  0  3  0  0  0  0  0  0
  185.4840  172.9890  136.4170 C   0  0  0  0  0  3  0  0  0  0  0  0
  184.2700  173.0620  137.1120 C   0  0  0  0  0  0  0  0  0  0  0  0
  185.8030  171.8580  135.6580 C   0  0  0  0  0  3  0  0  0  0  0  0
  183.6870  170.8530  136.2710 C   0  0  0  0  0  3  0  0  0  0  0  0
  1  3  2  0  0  0  0
  2 27  1  0  0  0  0
  3  2  2  0  0  0  0
  4  1  1  6  0  0  0
  4  6  1  0  0  0  0
  5  8  1  0  0  0  0
  5  9  1  0  0  0  0
  7  6  1  0  0  0  0
  7 10  1  1  0  0  0
  8  4  1  0  0  0  0
  9  7  1  0  0  0  0
 10 11  1  0  0  0  0
 11 12  1  0  0  0  0
 12 13  1  0  0  0  0
 14 13  1  6  0  0  0
 14 15  1  0  0  0  0
 14 21  1  0  0  0  0
 16 15  2  0  0  0  0
 17 18  1  0  0  0  0
 18 15  1  6  0  0  0
 20 19  1  6  0  0  0
 20 17  1  0  0  0  0
 20 18  1  0  0  0  0
 21 22  1  0  0  0  0
 22 23  1  0  0  0  0
 23 26  1  0  0  0  0
 24 26  1  0  0  0  0
 26 25  2  0  0  0  0
 29 30  1  0  0  0  0
 29 28  1  0  0  0  0
 31 27  1  6  0  0  0
 31 32  1  0  0  0  0
 31 33  1  0  0  0  0
 32 34  1  1  0  0  0
 32 29  1  0  0  0  0
 33 30  1  0  0  0  0
 35  1  1  1  0  0  0
 35 42  1  0  0  0  0
 35 36  1  0  0  0  0
 36 37  1  0  0  0  0
 37 41  2  0  0  0  0
 38 39  2  0  0  0  0
 39 41  1  0  0  0  0
 40 38  1  0  0  0  0
 40 36  2  0  0  0  0
 43 47  2  0  0  0  0
 43 48  1  0  0  0  0
 44 46  1  0  0  0  0
 45 46  2  0  0  0  0
 46 42  1  0  0  0  0
 47 45  1  0  0  0  0
 48 44  2  0  0  0  0
M  END
>  <MODEL>
4

>  <REMARK>
 VINA RESULT:      -6.6      3.107      9.625
  Name = 
  18 active torsions:
  status: ('A' for Active; 'I' for Inactive)
    1  A    between atoms: C_2  and  C_15
    2  A    between atoms: O_6  and  C_16
    3  A    between atoms: O_6  and  C_30
    4  A    between atoms: C_10  and  C_16
    5  A    between atoms: C_10  and  C_25
    6  A    between atoms: C_11  and  C_39
    7  A    between atoms: C_13  and  C_18
    8  A    between atoms: C_15  and  C_18
    9  A    between atoms: C_17  and  O_38
   10  A    between atoms: C_18  and  O_38
   11  A    between atoms: C_20  and  C_21
   12  A    between atoms: C_21  and  C_37
   13  A    between atoms: C_25  and  C_27
   14  A    between atoms: C_27  and  C_32
   15  A    between atoms: C_27  and  C_39
   16  A    between atoms: C_31  and  C_32
   17  A    between atoms: C_31  and  O_41
   18  A    between atoms: C_40  and  O_41
                            x       y       z     vdW  Elec       q    Type
                         _______ _______ _______ _____ _____    ______ ____

>  <TORSDO>
F 18

$$$$
=
 OpenBabel11062415253D

 48 52  0  0  1  0  0  0  0  0999 V2000
  182.8940  177.4120  138.4980 C   0  0  0  0  0  0  0  0  0  0  0  0
  181.4520  175.2390  138.5730 C   0  0  0  0  0  3  0  0  0  0  0  0
  182.1650  176.3280  138.5460 C   0  0  0  0  0  0  0  0  0  0  0  0
  184.2850  177.2880  137.9440 C   0  0  2  0  0  3  0  0  0  0  0  0
  185.7840  177.0800  135.9750 C   0  0  0  0  0  2  0  0  0  0  0  0
  185.1110  178.2950  138.4780 O   0  0  0  0  0  0  0  0  0  0  0  0
  186.4350  177.8850  138.2420 C   0  0  1  0  0  3  0  0  0  0  0  0
  184.3420  177.3290  136.4120 C   0  0  0  0  0  2  0  0  0  0  0  0
  186.7430  177.9870  136.7480 C   0  0  0  0  0  2  0  0  0  0  0  0
  187.3190  178.6970  138.9580 O   0  0  0  0  0  0  0  0  0  0  0  0
  188.2710  177.8210  139.4860 C   0  0  0  0  0  2  0  0  0  0  0  0
  188.7620  178.3220  140.8350 C   0  0  0  0  0  2  0  0  0  0  0  0
  188.3670  177.3530  141.9410 C   0  0  0  0  0  2  0  0  0  0  0  0
  188.3960  178.0260  143.3110 C   0  0  2  0  0  3  0  0  0  0  0  0
  189.7250  177.8690  144.0010 C   0  0  0  0  0  0  0  0  0  0  0  0
  190.5880  178.8910  144.0340 C   0  0  0  0  0  2  0  0  0  0  0  0
  191.6780  176.5090  144.8050 C   0  0  0  0  0  2  0  0  0  0  0  0
  190.2470  176.4800  144.2870 C   0  0  2  0  0  3  0  0  0  0  0  0
  191.8140  177.0530  142.4910 O   0  0  0  0  0  1  0  0  0  0  0  0
  191.4120  176.0490  143.3840 C   0  0  1  0  0  3  0  0  0  0  0  0
  187.2630  177.5050  144.1790 C   0  0  0  0  0  2  0  0  0  0  0  0
  187.5470  177.8280  145.6420 C   0  0  0  0  0  2  0  0  0  0  0  0
  186.3710  177.6350  146.4310 O   0  0  0  0  0  0  0  0  0  0  0  0
  184.1900  178.7270  146.3140 N   0  0  0  0  0  1  0  0  0  0  0  0
  185.9350  179.6020  147.5730 O   0  0  0  0  0  0  0  0  0  0  0  0
  185.5310  178.6910  146.8000 C   0  0  0  0  0  0  0  0  0  0  0  0
  181.0340  174.6020  137.2930 C   0  0  0  0  0  2  0  0  0  0  0  0
  183.8550  170.9860  135.6840 C   0  0  0  0  0  1  0  0  0  0  0  0
  182.7410  171.3550  136.5480 N   0  0  0  0  0  0  0  0  0  0  0  0
  181.5040  171.2610  135.7780 C   0  0  0  0  0  2  0  0  0  0  0  0
  181.3530  173.1120  137.3090 C   0  0  2  0  0  3  0  0  0  0  0  0
  182.8070  172.7410  137.0330 C   0  0  2  0  0  3  0  0  0  0  0  0
  180.5710  172.3680  136.2540 C   0  0  0  0  0  2  0  0  0  0  0  0
  183.4610  173.7080  136.0280 C   0  0  0  0  0  1  0  0  0  0  0  0
  182.3930  178.7110  139.0870 C   0  0  2  0  0  3  0  0  0  0  0  0
  182.4140  178.8080  140.5930 C   0  0  0  0  0  0  0  0  0  0  0  0
  181.2060  179.0140  141.2800 C   0  0  0  0  0  3  0  0  0  0  0  0
  183.5910  178.7540  142.7200 C   0  0  0  0  0  3  0  0  0  0  0  0
  182.3810  178.9620  143.3970 C   0  0  0  0  0  3  0  0  0  0  0  0
  183.6080  178.6780  141.3240 C   0  0  0  0  0  3  0  0  0  0  0  0
  181.1910  179.0960  142.6770 C   0  0  0  0  0  3  0  0  0  0  0  0
  181.1790  179.1820  138.4850 O   0  0  0  0  0  0  0  0  0  0  0  0
  180.6730  182.7830  136.3560 C   0  0  0  0  0  3  0  0  0  0  0  0
  181.2350  181.6420  138.4180 C   0  0  0  0  0  3  0  0  0  0  0  0
  180.6220  180.3640  136.4560 C   0  0  0  0  0  3  0  0  0  0  0  0
  181.0130  180.3980  137.8010 C   0  0  0  0  0  0  0  0  0  0  0  0
  180.4500  181.5500  135.7350 C   0  0  0  0  0  3  0  0  0  0  0  0
  181.0670  182.8290  137.6960 C   0  0  0  0  0  3  0  0  0  0  0  0
  1  3  2  0  0  0  0
  1 35  1  0  0  0  0
  3  2  2  0  0  0  0
  4  6  1  0  0  0  0
  4  1  1  6  0  0  0
  5  8  1  0  0  0  0
  5  9  1  0  0  0  0
  7  6  1  0  0  0  0
  7 10  1  1  0  0  0
  8  4  1  0  0  0  0
  9  7  1  0  0  0  0
 10 11  1  0  0  0  0
 11 12  1  0  0  0  0
 12 13  1  0  0  0  0
 14 13  1  6  0  0  0
 14 15  1  0  0  0  0
 14 21  1  0  0  0  0
 15 16  2  0  0  0  0
 18 15  1  6  0  0  0
 18 17  1  0  0  0  0
 20 19  1  6  0  0  0
 20 18  1  0  0  0  0
 20 17  1  0  0  0  0
 21 22  1  0  0  0  0
 22 23  1  0  0  0  0
 23 26  1  0  0  0  0
 24 26  1  0  0  0  0
 26 25  2  0  0  0  0
 27  2  1  0  0  0  0
 28 29  1  0  0  0  0
 29 32  1  0  0  0  0
 30 33  1  0  0  0  0
 30 29  1  0  0  0  0
 31 27  1  6  0  0  0
 32 34  1  6  0  0  0
 32 31  1  0  0  0  0
 33 31  1  0  0  0  0
 35 42  1  1  0  0  0
 35 36  1  0  0  0  0
 36 37  2  0  0  0  0
 36 40  1  0  0  0  0
 37 41  1  0  0  0  0
 38 39  1  0  0  0  0
 40 38  2  0  0  0  0
 41 39  2  0  0  0  0
 43 48  1  0  0  0  0
 45 46  2  0  0  0  0
 46 44  1  0  0  0  0
 46 42  1  0  0  0  0
 47 43  2  0  0  0  0
 47 45  1  0  0  0  0
 48 44  2  0  0  0  0
M  END
>  <MODEL>
5

>  <REMARK>
 VINA RESULT:      -6.5      2.737      8.713
  Name = 
  18 active torsions:
  status: ('A' for Active; 'I' for Inactive)
    1  A    between atoms: C_2  and  C_15
    2  A    between atoms: O_6  and  C_16
    3  A    between atoms: O_6  and  C_30
    4  A    between atoms: C_10  and  C_16
    5  A    between atoms: C_10  and  C_25
    6  A    between atoms: C_11  and  C_39
    7  A    between atoms: C_13  and  C_18
    8  A    between atoms: C_15  and  C_18
    9  A    between atoms: C_17  and  O_38
   10  A    between atoms: C_18  and  O_38
   11  A    between atoms: C_20  and  C_21
   12  A    between atoms: C_21  and  C_37
   13  A    between atoms: C_25  and  C_27
   14  A    between atoms: C_27  and  C_32
   15  A    between atoms: C_27  and  C_39
   16  A    between atoms: C_31  and  C_32
   17  A    between atoms: C_31  and  O_41
   18  A    between atoms: C_40  and  O_41
                            x       y       z     vdW  Elec       q    Type
                         _______ _______ _______ _____ _____    ______ ____

>  <TORSDO>
F 18

$$$$
=
 OpenBabel11062415253D

 48 52  0  0  1  0  0  0  0  0999 V2000
  188.6990  177.7170  140.2820 C   0  0  0  0  0  0  0  0  0  0  0  0
  190.5150  176.5970  141.7840 C   0  0  0  0  0  3  0  0  0  0  0  0
  189.6150  177.1510  141.0230 C   0  0  0  0  0  0  0  0  0  0  0  0
  187.3310  177.8870  140.8770 C   0  0  2  0  0  3  0  0  0  0  0  0
  185.8950  178.0870  142.8940 C   0  0  0  0  0  2  0  0  0  0  0  0
  186.6820  178.9900  140.2930 O   0  0  0  0  0  0  0  0  0  0  0  0
  185.3140  178.8460  140.5910 C   0  0  1  0  0  3  0  0  0  0  0  0
  187.3400  178.0380  142.4040 C   0  0  0  0  0  2  0  0  0  0  0  0
  185.0870  179.1010  142.0820 C   0  0  0  0  0  2  0  0  0  0  0  0
  184.5660  179.7580  139.8410 O   0  0  0  0  0  0  0  0  0  0  0  0
  184.1410  179.0420  138.7190 C   0  0  0  0  0  2  0  0  0  0  0  0
  182.9160  178.2070  139.0570 C   0  0  0  0  0  2  0  0  0  0  0  0
  181.9250  179.0200  139.8790 C   0  0  0  0  0  2  0  0  0  0  0  0
  180.6170  179.2350  139.1240 C   0  0  2  0  0  3  0  0  0  0  0  0
  180.1340  180.6590  139.2030 C   0  0  0  0  0  0  0  0  0  0  0  0
  179.5860  181.1190  140.3340 C   0  0  0  0  0  2  0  0  0  0  0  0
  180.8320  180.9850  136.8130 C   0  0  0  0  0  2  0  0  0  0  0  0
  179.8920  181.4260  137.9250 C   0  0  2  0  0  3  0  0  0  0  0  0
  182.1740  182.2140  138.3480 O   0  0  0  0  0  1  0  0  0  0  0  0
  181.0650  182.3200  137.4960 C   0  0  1  0  0  3  0  0  0  0  0  0
  179.5550  178.2680  139.6220 C   0  0  0  0  0  2  0  0  0  0  0  0
  179.9850  177.6770  140.9600 C   0  0  0  0  0  2  0  0  0  0  0  0
  179.1430  178.1560  142.0100 O   0  0  0  0  0  0  0  0  0  0  0  0
  179.6940  177.7590  144.3550 N   0  0  0  0  0  1  0  0  0  0  0  0
  180.0890  179.8060  143.3310 O   0  0  0  0  0  0  0  0  0  0  0  0
  179.6500  178.6280  143.2250 C   0  0  0  0  0  0  0  0  0  0  0  0
  190.9840  177.3100  143.0050 C   0  0  0  0  0  2  0  0  0  0  0  0
  189.3140  177.3570  147.5690 C   0  0  0  0  0  1  0  0  0  0  0  0
  189.7940  176.5320  146.4680 N   0  0  0  0  0  0  0  0  0  0  0  0
  191.2430  176.4020  146.5810 C   0  0  0  0  0  2  0  0  0  0  0  0
  190.6310  176.5140  144.2570 C   0  0  2  0  0  3  0  0  0  0  0  0
  189.5470  177.1180  145.1430 C   0  0  2  0  0  3  0  0  0  0  0  0
  191.8220  176.3670  145.1720 C   0  0  0  0  0  2  0  0  0  0  0  0
  189.5970  178.6580  145.1380 C   0  0  0  0  0  1  0  0  0  0  0  0
  188.9810  178.0760  138.8400 C   0  0  2  0  0  3  0  0  0  0  0  0
  187.9540  177.6220  137.8300 C   0  0  0  0  0  0  0  0  0  0  0  0
  187.4620  176.3100  137.9000 C   0  0  0  0  0  3  0  0  0  0  0  0
  186.5020  178.0450  135.9270 C   0  0  0  0  0  3  0  0  0  0  0  0
  186.0170  176.7320  136.0030 C   0  0  0  0  0  3  0  0  0  0  0  0
  187.4670  178.4890  136.8360 C   0  0  0  0  0  3  0  0  0  0  0  0
  186.5000  175.8640  136.9860 C   0  0  0  0  0  3  0  0  0  0  0  0
  190.3390  177.8340  138.4450 O   0  0  0  0  0  0  0  0  0  0  0  0
  191.7370  174.5630  136.1860 C   0  0  0  0  0  3  0  0  0  0  0  0
  190.7070  176.7540  136.2640 C   0  0  0  0  0  3  0  0  0  0  0  0
  191.3570  175.6500  138.3160 C   0  0  0  0  0  3  0  0  0  0  0  0
  190.7930  176.7550  137.6670 C   0  0  0  0  0  0  0  0  0  0  0  0
  191.8260  174.5550  137.5810 C   0  0  0  0  0  3  0  0  0  0  0  0
  191.1790  175.6620  135.5260 C   0  0  0  0  0  3  0  0  0  0  0  0
  1  3  2  0  0  0  0
  2 27  1  0  0  0  0
  3  2  2  0  0  0  0
  4  1  1  6  0  0  0
  4  8  1  0  0  0  0
  6  7  1  0  0  0  0
  6  4  1  0  0  0  0
  7 10  1  6  0  0  0
  7  9  1  0  0  0  0
  8  5  1  0  0  0  0
  9  5  1  0  0  0  0
 11 12  1  0  0  0  0
 11 10  1  0  0  0  0
 12 13  1  0  0  0  0
 14 15  1  0  0  0  0
 14 21  1  1  0  0  0
 14 13  1  0  0  0  0
 15 16  2  0  0  0  0
 17 20  1  0  0  0  0
 17 18  1  0  0  0  0
 18 15  1  1  0  0  0
 20 18  1  0  0  0  0
 20 19  1  1  0  0  0
 21 22  1  0  0  0  0
 22 23  1  0  0  0  0
 23 26  1  0  0  0  0
 26 25  2  0  0  0  0
 26 24  1  0  0  0  0
 29 30  1  0  0  0  0
 29 28  1  0  0  0  0
 31 27  1  6  0  0  0
 31 32  1  0  0  0  0
 31 33  1  0  0  0  0
 32 34  1  1  0  0  0
 32 29  1  0  0  0  0
 33 30  1  0  0  0  0
 35 42  1  6  0  0  0
 35  1  1  0  0  0  0
 36 37  1  0  0  0  0
 36 35  1  0  0  0  0
 38 39  2  0  0  0  0
 38 40  1  0  0  0  0
 39 41  1  0  0  0  0
 40 36  2  0  0  0  0
 41 37  2  0  0  0  0
 43 47  1  0  0  0  0
 44 46  2  0  0  0  0
 46 45  1  0  0  0  0
 46 42  1  0  0  0  0
 47 45  2  0  0  0  0
 48 43  2  0  0  0  0
 48 44  1  0  0  0  0
M  END
>  <MODEL>
6

>  <REMARK>
 VINA RESULT:      -6.4      2.923      6.743
  Name = 
  18 active torsions:
  status: ('A' for Active; 'I' for Inactive)
    1  A    between atoms: C_2  and  C_15
    2  A    between atoms: O_6  and  C_16
    3  A    between atoms: O_6  and  C_30
    4  A    between atoms: C_10  and  C_16
    5  A    between atoms: C_10  and  C_25
    6  A    between atoms: C_11  and  C_39
    7  A    between atoms: C_13  and  C_18
    8  A    between atoms: C_15  and  C_18
    9  A    between atoms: C_17  and  O_38
   10  A    between atoms: C_18  and  O_38
   11  A    between atoms: C_20  and  C_21
   12  A    between atoms: C_21  and  C_37
   13  A    between atoms: C_25  and  C_27
   14  A    between atoms: C_27  and  C_32
   15  A    between atoms: C_27  and  C_39
   16  A    between atoms: C_31  and  C_32
   17  A    between atoms: C_31  and  O_41
   18  A    between atoms: C_40  and  O_41
                            x       y       z     vdW  Elec       q    Type
                         _______ _______ _______ _____ _____    ______ ____

>  <TORSDO>
F 18

$$$$
=
 OpenBabel11062415253D

 48 52  0  0  1  0  0  0  0  0999 V2000
  187.3780  178.2630  140.8870 C   0  0  0  0  0  0  0  0  0  0  0  0
  184.9350  178.2490  139.9710 C   0  0  0  0  0  3  0  0  0  0  0  0
  186.1500  178.2490  140.4390 C   0  0  0  0  0  0  0  0  0  0  0  0
  188.4860  178.2550  139.8740 C   0  0  2  0  0  3  0  0  0  0  0  0
  190.4790  177.1340  138.9050 C   0  0  0  0  0  2  0  0  0  0  0  0
  187.9660  178.4680  138.5840 O   0  0  0  0  0  0  0  0  0  0  0  0
  189.0560  178.8410  137.7760 C   0  0  1  0  0  3  0  0  0  0  0  0
  189.3250  176.9710  139.8910 C   0  0  0  0  0  2  0  0  0  0  0  0
  189.9640  177.6310  137.5530 C   0  0  0  0  0  2  0  0  0  0  0  0
  188.5940  179.3130  136.5440 O   0  0  0  0  0  0  0  0  0  0  0  0
  187.3970  178.6280  136.3190 C   0  0  0  0  0  2  0  0  0  0  0  0
  187.4570  177.8750  134.9990 C   0  0  0  0  0  2  0  0  0  0  0  0
  186.8850  176.4720  135.1580 C   0  0  0  0  0  2  0  0  0  0  0  0
  187.6950  175.6480  136.1540 C   0  0  2  0  0  3  0  0  0  0  0  0
  188.4380  174.5160  135.4960 C   0  0  0  0  0  0  0  0  0  0  0  0
  187.8860  173.2980  135.4350 C   0  0  0  0  0  2  0  0  0  0  0  0
  190.6250  173.2890  135.3540 C   0  0  0  0  0  2  0  0  0  0  0  0
  189.9280  174.6400  135.2800 C   0  0  2  0  0  3  0  0  0  0  0  0
  190.0010  173.8210  137.5900 O   0  0  0  0  0  1  0  0  0  0  0  0
  190.7740  174.2650  136.5070 C   0  0  1  0  0  3  0  0  0  0  0  0
  186.7980  175.1390  137.2710 C   0  0  0  0  0  2  0  0  0  0  0  0
  185.3360  175.2740  136.8570 C   0  0  0  0  0  2  0  0  0  0  0  0
  184.5250  174.3550  137.5920 O   0  0  0  0  0  0  0  0  0  0  0  0
  183.9570  172.0290  137.1150 N   0  0  0  0  0  1  0  0  0  0  0  0
  182.6930  173.7950  136.2920 O   0  0  0  0  0  0  0  0  0  0  0  0
  183.6900  173.4220  136.9670 C   0  0  0  0  0  0  0  0  0  0  0  0
  184.4380  179.4320  139.2150 C   0  0  0  0  0  2  0  0  0  0  0  0
  180.1590  178.4880  137.1130 C   0  0  0  0  0  1  0  0  0  0  0  0
  180.8340  179.0330  138.2830 N   0  0  0  0  0  0  0  0  0  0  0  0
  181.0770  180.4550  138.0610 C   0  0  0  0  0  2  0  0  0  0  0  0
  182.9190  179.5160  139.2920 C   0  0  2  0  0  3  0  0  0  0  0  0
  182.1550  178.4360  138.5320 C   0  0  2  0  0  3  0  0  0  0  0  0
  182.4060  180.8120  138.7150 C   0  0  0  0  0  2  0  0  0  0  0  0
  182.8870  178.0200  137.2420 C   0  0  0  0  0  1  0  0  0  0  0  0
  187.6640  178.1700  142.3690 C   0  0  2  0  0  3  0  0  0  0  0  0
  189.0540  177.7180  142.7500 C   0  0  0  0  0  0  0  0  0  0  0  0
  189.3100  176.3440  142.8890 C   0  0  0  0  0  3  0  0  0  0  0  0
  191.3790  178.1850  143.2820 C   0  0  0  0  0  3  0  0  0  0  0  0
  191.6260  176.8120  143.4200 C   0  0  0  0  0  3  0  0  0  0  0  0
  190.0990  178.6370  142.9490 C   0  0  0  0  0  3  0  0  0  0  0  0
  190.5910  175.8940  143.2280 C   0  0  0  0  0  3  0  0  0  0  0  0
  186.6160  177.5360  143.1160 O   0  0  0  0  0  0  0  0  0  0  0  0
  185.3020  178.6270  146.9690 C   0  0  0  0  0  3  0  0  0  0  0  0
  186.9500  177.5520  145.5550 C   0  0  0  0  0  3  0  0  0  0  0  0
  185.0000  178.5900  144.5660 C   0  0  0  0  0  3  0  0  0  0  0  0
  186.2000  177.8830  144.4130 C   0  0  0  0  0  0  0  0  0  0  0  0
  184.5500  178.9600  145.8380 C   0  0  0  0  0  3  0  0  0  0  0  0
  186.5030  177.9250  146.8280 C   0  0  0  0  0  3  0  0  0  0  0  0
  2  3  2  0  0  0  0
  3  1  2  0  0  0  0
  4  8  1  0  0  0  0
  4  1  1  1  0  0  0
  5  8  1  0  0  0  0
  6  4  1  0  0  0  0
  7 10  1  6  0  0  0
  7  6  1  0  0  0  0
  9  7  1  0  0  0  0
  9  5  1  0  0  0  0
 11 10  1  0  0  0  0
 12 13  1  0  0  0  0
 12 11  1  0  0  0  0
 14 13  1  6  0  0  0
 14 21  1  0  0  0  0
 15 14  1  0  0  0  0
 16 15  2  0  0  0  0
 17 20  1  0  0  0  0
 18 17  1  0  0  0  0
 18 15  1  1  0  0  0
 18 20  1  0  0  0  0
 20 19  1  1  0  0  0
 22 21  1  0  0  0  0
 22 23  1  0  0  0  0
 25 26  2  0  0  0  0
 26 24  1  0  0  0  0
 26 23  1  0  0  0  0
 27  2  1  0  0  0  0
 28 29  1  0  0  0  0
 29 32  1  0  0  0  0
 30 29  1  0  0  0  0
 30 33  1  0  0  0  0
 31 27  1  6  0  0  0
 32 34  1  6  0  0  0
 32 31  1  0  0  0  0
 33 31  1  0  0  0  0
 35  1  1  6  0  0  0
 35 36  1  0  0  0  0
 35 42  1  0  0  0  0
 36 37  2  0  0  0  0
 36 40  1  0  0  0  0
 37 41  1  0  0  0  0
 38 39  1  0  0  0  0
 40 38  2  0  0  0  0
 41 39  2  0  0  0  0
 42 46  1  0  0  0  0
 44 48  2  0  0  0  0
 45 47  1  0  0  0  0
 46 45  2  0  0  0  0
 46 44  1  0  0  0  0
 47 43  2  0  0  0  0
 48 43  1  0  0  0  0
M  END
>  <MODEL>
7

>  <REMARK>
 VINA RESULT:      -6.3      2.021      6.295
  Name = 
  18 active torsions:
  status: ('A' for Active; 'I' for Inactive)
    1  A    between atoms: C_2  and  C_15
    2  A    between atoms: O_6  and  C_16
    3  A    between atoms: O_6  and  C_30
    4  A    between atoms: C_10  and  C_16
    5  A    between atoms: C_10  and  C_25
    6  A    between atoms: C_11  and  C_39
    7  A    between atoms: C_13  and  C_18
    8  A    between atoms: C_15  and  C_18
    9  A    between atoms: C_17  and  O_38
   10  A    between atoms: C_18  and  O_38
   11  A    between atoms: C_20  and  C_21
   12  A    between atoms: C_21  and  C_37
   13  A    between atoms: C_25  and  C_27
   14  A    between atoms: C_27  and  C_32
   15  A    between atoms: C_27  and  C_39
   16  A    between atoms: C_31  and  C_32
   17  A    between atoms: C_31  and  O_41
   18  A    between atoms: C_40  and  O_41
                            x       y       z     vdW  Elec       q    Type
                         _______ _______ _______ _____ _____    ______ ____

>  <TORSDO>
F 18

$$$$
=
 OpenBabel11062415253D

 48 52  0  0  1  0  0  0  0  0999 V2000
  187.3690  177.8890  142.4750 C   0  0  0  0  0  0  0  0  0  0  0  0
  184.9630  177.8750  141.4670 C   0  0  0  0  0  3  0  0  0  0  0  0
  186.1590  177.8750  141.9810 C   0  0  0  0  0  0  0  0  0  0  0  0
  188.5130  177.9790  141.5080 C   0  0  2  0  0  3  0  0  0  0  0  0
  190.6260  177.0280  140.6110 C   0  0  0  0  0  2  0  0  0  0  0  0
  188.0290  178.1630  140.1990 O   0  0  0  0  0  0  0  0  0  0  0  0
  189.1170  178.6290  139.4380 C   0  0  1  0  0  3  0  0  0  0  0  0
  189.4500  176.7650  141.5490 C   0  0  0  0  0  2  0  0  0  0  0  0
  190.1260  177.4960  139.2430 C   0  0  0  0  0  2  0  0  0  0  0  0
  188.6680  179.0750  138.1910 O   0  0  0  0  0  0  0  0  0  0  0  0
  189.3420  178.2820  137.2590 C   0  0  0  0  0  2  0  0  0  0  0  0
  188.5790  178.2450  135.9450 C   0  0  0  0  0  2  0  0  0  0  0  0
  188.8960  176.9680  135.1780 C   0  0  0  0  0  2  0  0  0  0  0  0
  189.5210  175.9120  136.0850 C   0  0  2  0  0  3  0  0  0  0  0  0
  190.8330  175.4000  135.5530 C   0  0  0  0  0  0  0  0  0  0  0  0
  190.8860  174.2220  134.9200 C   0  0  0  0  0  2  0  0  0  0  0  0
  193.2090  174.9380  136.2220 C   0  0  0  0  0  2  0  0  0  0  0  0
  192.1210  175.9910  136.0770 C   0  0  2  0  0  3  0  0  0  0  0  0
  191.6520  174.5050  137.9700 O   0  0  0  0  0  1  0  0  0  0  0  0
  192.5290  175.4760  137.4660 C   0  0  1  0  0  3  0  0  0  0  0  0
  188.5430  174.7730  136.3210 C   0  0  0  0  0  2  0  0  0  0  0  0
  187.2120  175.0920  135.6500 C   0  0  0  0  0  2  0  0  0  0  0  0
  186.1370  174.9350  136.5780 O   0  0  0  0  0  0  0  0  0  0  0  0
  185.7620  177.1620  137.5060 N   0  0  0  0  0  1  0  0  0  0  0  0
  184.0280  175.8910  136.6270 O   0  0  0  0  0  0  0  0  0  0  0  0
  185.2580  175.9760  136.8940 C   0  0  0  0  0  0  0  0  0  0  0  0
  184.4610  179.0940  140.7740 C   0  0  0  0  0  2  0  0  0  0  0  0
  179.7200  178.0400  140.9600 C   0  0  0  0  0  1  0  0  0  0  0  0
  180.8660  178.2980  140.0980 N   0  0  0  0  0  0  0  0  0  0  0  0
  181.5410  177.0320  139.8280 C   0  0  0  0  0  2  0  0  0  0  0  0
  183.1790  178.7850  140.0100 C   0  0  2  0  0  3  0  0  0  0  0  0
  181.8790  179.1680  140.7120 C   0  0  2  0  0  3  0  0  0  0  0  0
  183.0370  177.3070  139.7440 C   0  0  0  0  0  2  0  0  0  0  0  0
  181.9840  178.9980  142.2390 C   0  0  0  0  0  1  0  0  0  0  0  0
  187.6030  177.7020  143.9570 C   0  0  2  0  0  3  0  0  0  0  0  0
  186.4370  178.0250  144.8600 C   0  0  0  0  0  0  0  0  0  0  0  0
  186.4690  177.5960  146.1970 C   0  0  0  0  0  3  0  0  0  0  0  0
  184.2750  179.0610  145.2660 C   0  0  0  0  0  3  0  0  0  0  0  0
  184.3150  178.6270  146.5980 C   0  0  0  0  0  3  0  0  0  0  0  0
  185.3310  178.7610  144.4000 C   0  0  0  0  0  3  0  0  0  0  0  0
  185.4090  177.8920  147.0620 C   0  0  0  0  0  3  0  0  0  0  0  0
  188.8580  178.2310  144.4100 O   0  0  0  0  0  0  0  0  0  0  0  0
  191.7140  176.1790  146.7320 C   0  0  0  0  0  3  0  0  0  0  0  0
  189.6880  177.5010  146.6100 C   0  0  0  0  0  3  0  0  0  0  0  0
  190.8750  176.9160  144.5830 C   0  0  0  0  0  3  0  0  0  0  0  0
  189.7980  177.5580  145.2090 C   0  0  0  0  0  0  0  0  0  0  0  0
  191.8320  176.2310  145.3400 C   0  0  0  0  0  3  0  0  0  0  0  0
  190.6420  176.8120  147.3670 C   0  0  0  0  0  3  0  0  0  0  0  0
  2  3  2  0  0  0  0
  3  1  2  0  0  0  0
  4  8  1  0  0  0  0
  4  1  1  1  0  0  0
  5  8  1  0  0  0  0
  6  4  1  0  0  0  0
  7 10  1  6  0  0  0
  7  6  1  0  0  0  0
  9  7  1  0  0  0  0
  9  5  1  0  0  0  0
 11 10  1  0  0  0  0
 12 11  1  0  0  0  0
 13 12  1  0  0  0  0
 14 13  1  6  0  0  0
 14 21  1  0  0  0  0
 15 14  1  0  0  0  0
 16 15  2  0  0  0  0
 17 20  1  0  0  0  0
 18 15  1  6  0  0  0
 18 17  1  0  0  0  0
 18 20  1  0  0  0  0
 20 19  1  6  0  0  0
 22 21  1  0  0  0  0
 22 23  1  0  0  0  0
 23 26  1  0  0  0  0
 25 26  2  0  0  0  0
 26 24  1  0  0  0  0
 27  2  1  0  0  0  0
 29 32  1  0  0  0  0
 29 28  1  0  0  0  0
 30 29  1  0  0  0  0
 31 32  1  0  0  0  0
 31 27  1  1  0  0  0
 32 34  1  1  0  0  0
 33 30  1  0  0  0  0
 33 31  1  0  0  0  0
 35  1  1  6  0  0  0
 35 42  1  0  0  0  0
 35 36  1  0  0  0  0
 36 37  1  0  0  0  0
 37 41  2  0  0  0  0
 38 39  2  0  0  0  0
 39 41  1  0  0  0  0
 40 36  2  0  0  0  0
 40 38  1  0  0  0  0
 42 46  1  0  0  0  0
 43 48  1  0  0  0  0
 44 48  2  0  0  0  0
 45 46  2  0  0  0  0
 45 47  1  0  0  0  0
 46 44  1  0  0  0  0
 47 43  2  0  0  0  0
M  END
>  <MODEL>
8

>  <REMARK>
 VINA RESULT:      -6.2      2.187      7.644
  Name = 
  18 active torsions:
  status: ('A' for Active; 'I' for Inactive)
    1  A    between atoms: C_2  and  C_15
    2  A    between atoms: O_6  and  C_16
    3  A    between atoms: O_6  and  C_30
    4  A    between atoms: C_10  and  C_16
    5  A    between atoms: C_10  and  C_25
    6  A    between atoms: C_11  and  C_39
    7  A    between atoms: C_13  and  C_18
    8  A    between atoms: C_15  and  C_18
    9  A    between atoms: C_17  and  O_38
   10  A    between atoms: C_18  and  O_38
   11  A    between atoms: C_20  and  C_21
   12  A    between atoms: C_21  and  C_37
   13  A    between atoms: C_25  and  C_27
   14  A    between atoms: C_27  and  C_32
   15  A    between atoms: C_27  and  C_39
   16  A    between atoms: C_31  and  C_32
   17  A    between atoms: C_31  and  O_41
   18  A    between atoms: C_40  and  O_41
                            x       y       z     vdW  Elec       q    Type
                         _______ _______ _______ _____ _____    ______ ____

>  <TORSDO>
F 18

$$$$
=
 OpenBabel11062415253D

 48 52  0  0  1  0  0  0  0  0999 V2000
  187.2550  177.9820  142.3180 C   0  0  0  0  0  0  0  0  0  0  0  0
  184.9130  177.8870  141.1740 C   0  0  0  0  0  3  0  0  0  0  0  0
  186.0760  177.9270  141.7550 C   0  0  0  0  0  0  0  0  0  0  0  0
  188.4530  178.0370  141.4150 C   0  0  2  0  0  3  0  0  0  0  0  0
  190.5910  177.0310  140.6470 C   0  0  0  0  0  2  0  0  0  0  0  0
  188.0470  178.2170  140.0800 O   0  0  0  0  0  0  0  0  0  0  0  0
  189.1850  178.6520  139.3760 C   0  0  1  0  0  3  0  0  0  0  0  0
  189.3580  176.8030  141.5200 C   0  0  0  0  0  2  0  0  0  0  0  0
  190.1790  177.4960  139.2490 C   0  0  0  0  0  2  0  0  0  0  0  0
  188.8170  179.0950  138.1030 O   0  0  0  0  0  0  0  0  0  0  0  0
  189.3940  178.1790  137.2200 C   0  0  0  0  0  2  0  0  0  0  0  0
  188.3360  177.5900  136.3000 C   0  0  0  0  0  2  0  0  0  0  0  0
  187.7400  176.3280  136.9100 C   0  0  0  0  0  2  0  0  0  0  0  0
  188.2840  175.0710  136.2370 C   0  0  2  0  0  3  0  0  0  0  0  0
  187.1900  174.1390  135.7900 C   0  0  0  0  0  0  0  0  0  0  0  0
  186.2480  174.5680  134.9420 C   0  0  0  0  0  2  0  0  0  0  0  0
  185.5390  172.3140  136.2940 C   0  0  0  0  0  2  0  0  0  0  0  0
  186.9180  172.8860  136.5890 C   0  0  2  0  0  3  0  0  0  0  0  0
  185.1630  174.2860  137.5740 O   0  0  0  0  0  1  0  0  0  0  0  0
  185.7800  173.0270  137.6110 C   0  0  1  0  0  3  0  0  0  0  0  0
  189.2670  174.3630  137.1550 C   0  0  0  0  0  2  0  0  0  0  0  0
  190.6900  174.7810  136.8020 C   0  0  0  0  0  2  0  0  0  0  0  0
  191.5270  174.7210  137.9590 O   0  0  0  0  0  0  0  0  0  0  0  0
  193.8490  174.0410  137.6330 N   0  0  0  0  0  1  0  0  0  0  0  0
  193.2700  176.2360  138.1230 O   0  0  0  0  0  0  0  0  0  0  0  0
  192.8860  175.0520  137.9230 C   0  0  0  0  0  0  0  0  0  0  0  0
  184.4400  179.0630  140.3910 C   0  0  0  0  0  2  0  0  0  0  0  0
  182.3070  177.6580  136.2560 C   0  0  0  0  0  1  0  0  0  0  0  0
  182.1090  178.0220  137.6530 N   0  0  0  0  0  0  0  0  0  0  0  0
  181.9010  179.4650  137.7330 C   0  0  0  0  0  2  0  0  0  0  0  0
  183.1470  178.7320  139.6560 C   0  0  2  0  0  3  0  0  0  0  0  0
  183.2730  177.7380  138.5050 C   0  0  2  0  0  3  0  0  0  0  0  0
  182.5400  179.9600  139.0250 C   0  0  0  0  0  2  0  0  0  0  0  0
  184.6180  177.8850  137.7690 C   0  0  0  0  0  1  0  0  0  0  0  0
  187.4040  177.8730  143.8190 C   0  0  2  0  0  3  0  0  0  0  0  0
  186.1960  178.2640  144.6360 C   0  0  0  0  0  0  0  0  0  0  0  0
  185.1750  179.0130  144.0290 C   0  0  0  0  0  3  0  0  0  0  0  0
  184.9220  178.2410  146.7060 C   0  0  0  0  0  3  0  0  0  0  0  0
  183.9080  178.9910  146.0930 C   0  0  0  0  0  3  0  0  0  0  0  0
  186.0610  177.8790  145.9820 C   0  0  0  0  0  3  0  0  0  0  0  0
  184.0370  179.3800  144.7580 C   0  0  0  0  0  3  0  0  0  0  0  0
  188.6420  178.4060  144.3120 O   0  0  0  0  0  0  0  0  0  0  0  0
  191.3840  176.3870  146.7940 C   0  0  0  0  0  3  0  0  0  0  0  0
  190.7780  177.2160  144.6000 C   0  0  0  0  0  3  0  0  0  0  0  0
  189.2880  177.5570  146.4760 C   0  0  0  0  0  3  0  0  0  0  0  0
  189.5720  177.7250  145.1150 C   0  0  0  0  0  0  0  0  0  0  0  0
  190.1870  176.8880  147.3140 C   0  0  0  0  0  3  0  0  0  0  0  0
  191.6810  176.5520  145.4380 C   0  0  0  0  0  3  0  0  0  0  0  0
  2  3  2  0  0  0  0
  3  1  2  0  0  0  0
  4  8  1  0  0  0  0
  4  1  1  1  0  0  0
  5  8  1  0  0  0  0
  6  4  1  0  0  0  0
  7 10  1  6  0  0  0
  7  6  1  0  0  0  0
  9  7  1  0  0  0  0
  9  5  1  0  0  0  0
 11 10  1  0  0  0  0
 12 13  1  0  0  0  0
 12 11  1  0  0  0  0
 14 13  1  1  0  0  0
 14 21  1  0  0  0  0
 15 14  1  0  0  0  0
 16 15  2  0  0  0  0
 17 18  1  0  0  0  0
 17 20  1  0  0  0  0
 18 15  1  6  0  0  0
 18 20  1  0  0  0  0
 20 19  1  6  0  0  0
 22 21  1  0  0  0  0
 22 23  1  0  0  0  0
 24 26  1  0  0  0  0
 26 23  1  0  0  0  0
 26 25  2  0  0  0  0
 27  2  1  0  0  0  0
 28 29  1  0  0  0  0
 29 30  1  0  0  0  0
 29 32  1  0  0  0  0
 30 33  1  0  0  0  0
 31 27  1  6  0  0  0
 32 34  1  6  0  0  0
 32 31  1  0  0  0  0
 33 31  1  0  0  0  0
 35  1  1  6  0  0  0
 35 42  1  0  0  0  0
 35 36  1  0  0  0  0
 36 40  1  0  0  0  0
 37 36  2  0  0  0  0
 37 41  1  0  0  0  0
 39 38  1  0  0  0  0
 40 38  2  0  0  0  0
 41 39  2  0  0  0  0
 42 46  1  0  0  0  0
 43 47  1  0  0  0  0
 44 46  2  0  0  0  0
 44 48  1  0  0  0  0
 45 47  2  0  0  0  0
 46 45  1  0  0  0  0
 48 43  2  0  0  0  0
M  END
>  <MODEL>
9

>  <REMARK>
 VINA RESULT:      -6.2      2.428      7.391
  Name = 
  18 active torsions:
  status: ('A' for Active; 'I' for Inactive)
    1  A    between atoms: C_2  and  C_15
    2  A    between atoms: O_6  and  C_16
    3  A    between atoms: O_6  and  C_30
    4  A    between atoms: C_10  and  C_16
    5  A    between atoms: C_10  and  C_25
    6  A    between atoms: C_11  and  C_39
    7  A    between atoms: C_13  and  C_18
    8  A    between atoms: C_15  and  C_18
    9  A    between atoms: C_17  and  O_38
   10  A    between atoms: C_18  and  O_38
   11  A    between atoms: C_20  and  C_21
   12  A    between atoms: C_21  and  C_37
   13  A    between atoms: C_25  and  C_27
   14  A    between atoms: C_27  and  C_32
   15  A    between atoms: C_27  and  C_39
   16  A    between atoms: C_31  and  C_32
   17  A    between atoms: C_31  and  O_41
   18  A    between atoms: C_40  and  O_41
                            x       y       z     vdW  Elec       q    Type
                         _______ _______ _______ _____ _____    ______ ____

>  <TORSDO>
F 18

$$$$
