=
 OpenBabel11062413213D

 46 50  0  0  1  0  0  0  0  0999 V2000
  186.0800  177.2600  137.1010 C   0  0  2  0  0  3  0  0  0  0  0  0
  185.1740  175.3080  135.9410 C   0  0  0  0  0  0  0  0  0  0  0  0
  185.7470  176.4800  135.8620 C   0  0  0  0  0  3  0  0  0  0  0  0
  184.5910  174.1400  136.0160 C   0  0  0  0  0  0  0  0  0  0  0  0
  183.4680  173.8740  135.1770 N   0  0  0  0  0  1  0  0  0  0  0  0
  184.2410  172.1730  137.3680 N   0  0  0  0  0  2  0  0  0  0  0  0
  185.0350  173.1230  136.9860 C   0  0  0  0  0  0  0  0  0  0  0  0
  186.2860  173.1940  137.5090 F   0  0  0  0  0  0  0  0  0  0  0  0
  187.4470  177.0260  137.5740 N   0  0  0  0  0  2  0  0  0  0  0  0
  190.4360  174.8730  136.6330 C   0  0  0  0  0  2  0  0  0  0  0  0
  189.2240  175.5680  136.0230 C   0  0  0  0  0  2  0  0  0  0  0  0
  190.6980  175.3090  138.0800 C   0  0  0  0  0  2  0  0  0  0  0  0
  189.4380  177.0860  136.0210 C   0  0  1  0  0  3  0  0  0  0  0  0
  188.4180  177.8620  136.8550 C   0  0  2  0  0  0  0  0  0  0  0  0
  189.8610  177.6400  137.3840 C   0  0  1  0  0  0  0  0  0  0  0  0
  189.9390  176.5770  138.5090 C   0  0  2  0  0  3  0  0  0  0  0  0
  189.0600  178.8640  137.7850 C   0  0  0  0  0  2  0  0  0  0  0  0
  191.8940  177.2270  139.7550 O   0  0  0  0  0  1  0  0  0  0  0  0
  190.5000  177.1410  139.8140 C   0  0  2  0  0  3  0  0  0  0  0  0
  190.1090  176.3100  140.9040 O   0  0  0  0  0  0  0  0  0  0  0  0
  190.2560  178.4810  143.9310 C   0  0  0  0  0  2  0  0  0  0  0  0
  188.8500  176.0720  143.0410 C   0  0  0  0  0  2  0  0  0  0  0  0
  189.8480  176.8100  142.1830 C   0  0  0  0  0  0  0  0  0  0  0  0
  188.4320  176.8630  144.2810 C   0  0  0  0  0  2  0  0  0  0  0  0
  190.4940  177.8540  142.6280 N   0  0  0  0  0  0  0  0  0  0  0  0
  189.6590  177.4870  144.9230 C   0  0  0  0  0  2  0  0  0  0  0  0
  185.0550  177.0150  138.2080 C   0  0  0  0  0  2  0  0  0  0  0  0
  184.0480  178.1630  138.2890 C   0  0  2  0  0  3  0  0  0  0  0  0
  184.3600  180.3890  139.1210 O   0  0  0  0  0  0  0  0  0  0  0  0
  184.8930  178.6780  140.6080 N   0  0  0  0  0  2  0  0  0  0  0  0
  184.4300  179.1520  139.3480 C   0  0  0  0  0  0  0  0  0  0  0  0
  185.2440  179.5670  141.6310 N   0  0  0  0  0  2  0  0  0  0  0  0
  185.1900  179.1490  142.9640 N   0  0  0  0  0  0  0  0  0  0  0  0
  184.1260  179.3510  143.6670 C   0  0  0  0  0  3  0  0  0  0  0  0
  184.0660  178.9140  145.0900 C   0  0  0  0  0  2  0  0  0  0  0  0
  185.7560  178.8890  146.8970 C   0  0  0  0  0  1  0  0  0  0  0  0
  185.4050  178.3530  145.5200 C   0  0  0  0  0  2  0  0  0  0  0  0
  182.6210  177.6610  138.5190 C   0  0  2  0  0  3  0  0  0  0  0  0
  182.4530  176.3620  138.0220 O   0  0  0  0  0  1  0  0  0  0  0  0
  181.5960  178.5970  137.8930 C   0  0  0  0  0  2  0  0  0  0  0  0
  180.4920  178.8700  138.9020 C   0  0  0  0  0  2  0  0  0  0  0  0
  179.9220  180.4840  141.0620 C   0  0  0  0  0  1  0  0  0  0  0  0
  180.8650  178.3370  140.2950 C   0  0  2  0  0  3  0  0  0  0  0  0
  179.8420  177.3570  140.8350 C   0  0  0  0  0  2  0  0  0  0  0  0
  179.6930  178.3440  141.9750 C   0  0  0  0  0  2  0  0  0  0  0  0
  180.6680  179.2780  141.4170 N   0  0  0  0  0  0  0  0  0  0  0  0
  1  3  1  6  0  0  0
  1  9  1  0  0  0  0
  1 27  1  0  0  0  0
  2  4  2  0  0  0  0
  3  2  2  0  0  0  0
  4  7  1  0  0  0  0
  5  4  1  0  0  0  0
  7  6  2  0  0  0  0
  7  8  1  0  0  0  0
 10 12  1  0  0  0  0
 11 10  1  0  0  0  0
 12 16  1  0  0  0  0
 13 11  1  1  0  0  0
 13 14  1  0  0  0  0
 13 15  1  0  0  0  0
 14 15  1  0  0  0  0
 14  9  1  1  0  0  0
 14 17  1  0  0  0  0
 15 17  1  1  0  0  0
 15 16  1  0  0  0  0
 16 19  1  1  0  0  0
 19 18  1  6  0  0  0
 19 20  1  0  0  0  0
 20 23  1  0  0  0  0
 21 26  1  0  0  0  0
 22 24  1  0  0  0  0
 23 25  2  0  0  0  0
 23 22  1  0  0  0  0
 24 26  1  0  0  0  0
 25 21  1  0  0  0  0
 28 27  1  1  0  0  0
 28 38  1  0  0  0  0
 28 31  1  0  0  0  0
 29 31  2  0  0  0  0
 30 32  1  0  0  0  0
 31 30  1  0  0  0  0
 32 33  1  0  0  0  0
 33 34  2  0  0  0  0
 34 35  1  0  0  0  0
 35 37  1  0  0  0  0
 37 36  1  0  0  0  0
 38 39  1  6  0  0  0
 40 38  1  0  0  0  0
 40 41  1  0  0  0  0
 42 46  1  0  0  0  0
 43 41  1  6  0  0  0
 43 44  1  0  0  0  0
 43 46  1  0  0  0  0
 44 45  1  0  0  0  0
 46 45  1  0  0  0  0
M  END
>  <MODEL>
1

>  <REMARK>
 VINA RESULT:      -7.2      0.000      0.000
  Name = 
  18 active torsions:
  status: ('A' for Active; 'I' for Inactive)
    1  A    between atoms: C_3  and  C_8
    2  A    between atoms: C_3  and  C_14
    3  A    between atoms: C_3  and  C_35
    4  A    between atoms: N_7  and  N_20
    5  A    between atoms: N_7  and  N_22
    6  A    between atoms: C_8  and  C_43
    7  A    between atoms: N_12  and  C_19
    8  A    between atoms: N_12  and  C_43
    9  A    between atoms: C_14  and  C_42
   10  A    between atoms: C_15  and  O_32
   11  A    between atoms: C_16  and  C_36
   12  A    between atoms: C_21  and  C_39
   13  A    between atoms: C_23  and  C_43
   14  A    between atoms: O_32  and  C_41
   15  A    between atoms: C_34  and  C_37
   16  A    between atoms: C_36  and  C_42
   17  A    between atoms: C_38  and  C_39
   18  A    between atoms: C_41  and  C_45
                            x       y       z     vdW  Elec       q    Type
                         _______ _______ _______ _____ _____    ______ ____

>  <TORSDO>
F 18

$$$$
=
 OpenBabel11062413213D

 46 50  0  0  1  0  0  0  0  0999 V2000
  185.8700  177.3620  136.6290 C   0  0  2  0  0  3  0  0  0  0  0  0
  185.5290  175.2820  135.3910 C   0  0  0  0  0  0  0  0  0  0  0  0
  185.6090  176.5860  135.3700 C   0  0  0  0  0  3  0  0  0  0  0  0
  185.4390  173.9770  135.4100 C   0  0  0  0  0  0  0  0  0  0  0  0
  184.3500  173.3510  134.7350 N   0  0  0  0  0  1  0  0  0  0  0  0
  186.6970  171.9510  135.7750 N   0  0  0  0  0  2  0  0  0  0  0  0
  186.4030  173.1530  136.1610 C   0  0  0  0  0  0  0  0  0  0  0  0
  186.9760  173.6480  137.2890 F   0  0  0  0  0  0  0  0  0  0  0  0
  187.2050  177.1210  137.1830 N   0  0  0  0  0  2  0  0  0  0  0  0
  190.3780  175.0910  136.6680 C   0  0  0  0  0  2  0  0  0  0  0  0
  189.2160  175.7070  135.8980 C   0  0  0  0  0  2  0  0  0  0  0  0
  190.4490  175.5790  138.1190 C   0  0  0  0  0  2  0  0  0  0  0  0
  189.3600  177.2340  135.8700 C   0  0  1  0  0  3  0  0  0  0  0  0
  188.2150  177.9820  136.5530 C   0  0  2  0  0  0  0  0  0  0  0  0
  189.5940  177.8450  137.2530 C   0  0  1  0  0  0  0  0  0  0  0  0
  189.5880  176.8210  138.4150 C   0  0  2  0  0  3  0  0  0  0  0  0
  188.6980  179.0400  137.5170 C   0  0  0  0  0  2  0  0  0  0  0  0
  191.1530  176.8920  140.2440 O   0  0  0  0  0  1  0  0  0  0  0  0
  189.9660  177.4480  139.7560 C   0  0  2  0  0  3  0  0  0  0  0  0
  188.9130  177.2460  140.6950 O   0  0  0  0  0  0  0  0  0  0  0  0
  190.1920  178.4880  143.9690 C   0  0  0  0  0  2  0  0  0  0  0  0
  188.2740  176.5050  142.9870 C   0  0  0  0  0  2  0  0  0  0  0  0
  189.0880  177.3890  142.0740 C   0  0  0  0  0  0  0  0  0  0  0  0
  188.3290  176.9490  144.4490 C   0  0  0  0  0  2  0  0  0  0  0  0
  189.9700  178.2300  142.5430 N   0  0  0  0  0  0  0  0  0  0  0  0
  189.7600  177.2980  144.8200 C   0  0  0  0  0  2  0  0  0  0  0  0
  184.7790  177.1200  137.6720 C   0  0  0  0  0  2  0  0  0  0  0  0
  183.9520  178.3840  137.9060 C   0  0  2  0  0  3  0  0  0  0  0  0
  184.3160  180.4840  139.0020 O   0  0  0  0  0  0  0  0  0  0  0  0
  185.4490  178.6660  139.9170 N   0  0  0  0  0  2  0  0  0  0  0  0
  184.5650  179.2500  138.9650 C   0  0  0  0  0  0  0  0  0  0  0  0
  186.0300  179.4340  140.9320 N   0  0  0  0  0  2  0  0  0  0  0  0
  185.6000  179.2800  142.2530 N   0  0  0  0  0  0  0  0  0  0  0  0
  184.4500  178.7500  142.5060 C   0  0  0  0  0  3  0  0  0  0  0  0
  183.9850  178.5900  143.9130 C   0  0  0  0  0  2  0  0  0  0  0  0
  184.6660  178.5330  146.2910 C   0  0  0  0  0  1  0  0  0  0  0  0
  185.1650  178.6380  144.8600 C   0  0  0  0  0  2  0  0  0  0  0  0
  182.4980  178.0640  138.2570 C   0  0  2  0  0  3  0  0  0  0  0  0
  182.3870  176.8050  138.8620 O   0  0  0  0  0  1  0  0  0  0  0  0
  181.6020  178.1340  137.0280 C   0  0  0  0  0  2  0  0  0  0  0  0
  180.5550  179.2160  137.2380 C   0  0  0  0  0  2  0  0  0  0  0  0
  180.6620  181.9560  136.9680 C   0  0  0  0  0  1  0  0  0  0  0  0
  180.8470  180.0350  138.5060 C   0  0  2  0  0  3  0  0  0  0  0  0
  179.6160  180.2300  139.3680 C   0  0  0  0  0  2  0  0  0  0  0  0
  179.8570  181.7100  139.1490 C   0  0  0  0  0  2  0  0  0  0  0  0
  181.0280  181.4890  138.3030 N   0  0  0  0  0  0  0  0  0  0  0  0
  1  3  1  6  0  0  0
  1  9  1  0  0  0  0
  1 27  1  0  0  0  0
  2  4  2  0  0  0  0
  3  2  2  0  0  0  0
  4  7  1  0  0  0  0
  5  4  1  0  0  0  0
  6  7  2  0  0  0  0
  7  8  1  0  0  0  0
 10 12  1  0  0  0  0
 11 10  1  0  0  0  0
 12 16  1  0  0  0  0
 13 11  1  1  0  0  0
 13 14  1  0  0  0  0
 13 15  1  0  0  0  0
 14  9  1  1  0  0  0
 14 15  1  0  0  0  0
 14 17  1  0  0  0  0
 15 17  1  1  0  0  0
 15 16  1  0  0  0  0
 16 19  1  1  0  0  0
 19 18  1  1  0  0  0
 19 20  1  0  0  0  0
 20 23  1  0  0  0  0
 21 26  1  0  0  0  0
 22 24  1  0  0  0  0
 23 25  2  0  0  0  0
 23 22  1  0  0  0  0
 24 26  1  0  0  0  0
 25 21  1  0  0  0  0
 28 27  1  1  0  0  0
 28 38  1  0  0  0  0
 28 31  1  0  0  0  0
 30 32  1  0  0  0  0
 31 29  2  0  0  0  0
 31 30  1  0  0  0  0
 32 33  1  0  0  0  0
 33 34  2  0  0  0  0
 34 35  1  0  0  0  0
 35 37  1  0  0  0  0
 37 36  1  0  0  0  0
 38 39  1  6  0  0  0
 40 41  1  0  0  0  0
 40 38  1  0  0  0  0
 42 46  1  0  0  0  0
 43 41  1  6  0  0  0
 43 44  1  0  0  0  0
 45 44  1  0  0  0  0
 46 43  1  0  0  0  0
 46 45  1  0  0  0  0
M  END
>  <MODEL>
2

>  <REMARK>
 VINA RESULT:      -7.0      1.291      1.519
  Name = 
  18 active torsions:
  status: ('A' for Active; 'I' for Inactive)
    1  A    between atoms: C_3  and  C_8
    2  A    between atoms: C_3  and  C_14
    3  A    between atoms: C_3  and  C_35
    4  A    between atoms: N_7  and  N_20
    5  A    between atoms: N_7  and  N_22
    6  A    between atoms: C_8  and  C_43
    7  A    between atoms: N_12  and  C_19
    8  A    between atoms: N_12  and  C_43
    9  A    between atoms: C_14  and  C_42
   10  A    between atoms: C_15  and  O_32
   11  A    between atoms: C_16  and  C_36
   12  A    between atoms: C_21  and  C_39
   13  A    between atoms: C_23  and  C_43
   14  A    between atoms: O_32  and  C_41
   15  A    between atoms: C_34  and  C_37
   16  A    between atoms: C_36  and  C_42
   17  A    between atoms: C_38  and  C_39
   18  A    between atoms: C_41  and  C_45
                            x       y       z     vdW  Elec       q    Type
                         _______ _______ _______ _____ _____    ______ ____

>  <TORSDO>
F 18

$$$$
=
 OpenBabel11062413213D

 46 50  0  0  1  0  0  0  0  0999 V2000
  185.9030  177.1660  136.7450 C   0  0  2  0  0  3  0  0  0  0  0  0
  185.0850  175.0650  135.8000 C   0  0  0  0  0  0  0  0  0  0  0  0
  185.6210  176.2400  135.5970 C   0  0  0  0  0  3  0  0  0  0  0  0
  184.5390  173.8940  135.9980 C   0  0  0  0  0  0  0  0  0  0  0  0
  183.4430  173.4950  135.1770 N   0  0  0  0  0  1  0  0  0  0  0  0
  186.2040  173.0910  137.5490 N   0  0  0  0  0  2  0  0  0  0  0  0
  184.9970  173.0090  137.0850 C   0  0  0  0  0  0  0  0  0  0  0  0
  184.1510  172.0750  137.5930 F   0  0  0  0  0  0  0  0  0  0  0  0
  187.2540  177.0060  137.2900 N   0  0  0  0  0  2  0  0  0  0  0  0
  190.4100  174.9580  136.7440 C   0  0  0  0  0  2  0  0  0  0  0  0
  189.2110  175.5290  135.9950 C   0  0  0  0  0  2  0  0  0  0  0  0
  190.5440  175.5260  138.1620 C   0  0  0  0  0  2  0  0  0  0  0  0
  189.3460  177.0510  135.8760 C   0  0  1  0  0  3  0  0  0  0  0  0
  188.2290  177.8340  136.5680 C   0  0  2  0  0  0  0  0  0  0  0  0
  189.6400  177.7400  137.2120 C   0  0  1  0  0  0  0  0  0  0  0  0
  189.6920  176.7810  138.4270 C   0  0  2  0  0  3  0  0  0  0  0  0
  188.7500  178.9450  137.4490 C   0  0  0  0  0  2  0  0  0  0  0  0
  191.5200  177.4830  139.8270 O   0  0  0  0  0  1  0  0  0  0  0  0
  190.1270  177.4820  139.7130 C   0  0  2  0  0  3  0  0  0  0  0  0
  189.5470  176.8270  140.8380 O   0  0  0  0  0  0  0  0  0  0  0  0
  191.3300  176.2220  144.0550 C   0  0  0  0  0  2  0  0  0  0  0  0
  189.5740  178.2510  142.8830 C   0  0  0  0  0  2  0  0  0  0  0  0
  190.0100  177.0090  142.1440 C   0  0  0  0  0  0  0  0  0  0  0  0
  190.3670  178.4860  144.1690 C   0  0  0  0  0  2  0  0  0  0  0  0
  190.7560  176.1000  142.7120 N   0  0  0  0  0  0  0  0  0  0  0  0
  190.5130  177.1750  144.9220 C   0  0  0  0  0  2  0  0  0  0  0  0
  184.8400  177.0440  137.8360 C   0  0  0  0  0  2  0  0  0  0  0  0
  184.0140  178.3270  137.9450 C   0  0  2  0  0  3  0  0  0  0  0  0
  184.2580  180.4360  139.0560 O   0  0  0  0  0  0  0  0  0  0  0  0
  185.2680  178.6220  140.1120 N   0  0  0  0  0  2  0  0  0  0  0  0
  184.5030  179.2010  139.0590 C   0  0  0  0  0  0  0  0  0  0  0  0
  185.7310  179.3990  141.1800 N   0  0  0  0  0  2  0  0  0  0  0  0
  185.0370  179.3970  142.3940 N   0  0  0  0  0  0  0  0  0  0  0  0
  185.4460  178.6650  143.3770 C   0  0  0  0  0  3  0  0  0  0  0  0
  184.7050  178.6550  144.6700 C   0  0  0  0  0  2  0  0  0  0  0  0
  186.7940  177.4990  145.3180 C   0  0  0  0  0  1  0  0  0  0  0  0
  185.6570  178.3760  145.8130 C   0  0  0  0  0  2  0  0  0  0  0  0
  182.5210  178.0360  138.1130 C   0  0  2  0  0  3  0  0  0  0  0  0
  181.7780  179.2220  138.1800 O   0  0  0  0  0  1  0  0  0  0  0  0
  182.2570  177.1810  139.3440 C   0  0  0  0  0  2  0  0  0  0  0  0
  180.7760  176.8470  139.4090 C   0  0  0  0  0  2  0  0  0  0  0  0
  179.0260  176.3870  137.3300 C   0  0  0  0  0  1  0  0  0  0  0  0
  180.5180  175.3820  139.0200 C   0  0  2  0  0  3  0  0  0  0  0  0
  181.6140  174.8140  138.1410 C   0  0  0  0  0  2  0  0  0  0  0  0
  180.5090  174.5910  137.1290 C   0  0  0  0  0  2  0  0  0  0  0  0
  179.4770  175.1650  137.9920 N   0  0  0  0  0  0  0  0  0  0  0  0
  1  3  1  6  0  0  0
  1  9  1  0  0  0  0
  1 27  1  0  0  0  0
  2  4  2  0  0  0  0
  3  2  2  0  0  0  0
  4  7  1  0  0  0  0
  5  4  1  0  0  0  0
  7  6  2  0  0  0  0
  7  8  1  0  0  0  0
 10 12  1  0  0  0  0
 11 10  1  0  0  0  0
 12 16  1  0  0  0  0
 13 11  1  1  0  0  0
 13 14  1  0  0  0  0
 13 15  1  0  0  0  0
 14 15  1  0  0  0  0
 14  9  1  1  0  0  0
 14 17  1  0  0  0  0
 15 17  1  1  0  0  0
 15 16  1  0  0  0  0
 16 19  1  1  0  0  0
 19 18  1  1  0  0  0
 19 20  1  0  0  0  0
 20 23  1  0  0  0  0
 21 26  1  0  0  0  0
 22 24  1  0  0  0  0
 23 25  2  0  0  0  0
 23 22  1  0  0  0  0
 24 26  1  0  0  0  0
 25 21  1  0  0  0  0
 28 27  1  1  0  0  0
 28 38  1  0  0  0  0
 28 31  1  0  0  0  0
 29 31  2  0  0  0  0
 30 32  1  0  0  0  0
 31 30  1  0  0  0  0
 32 33  1  0  0  0  0
 33 34  2  0  0  0  0
 34 35  1  0  0  0  0
 35 37  1  0  0  0  0
 36 37  1  0  0  0  0
 38 39  1  1  0  0  0
 38 40  1  0  0  0  0
 40 41  1  0  0  0  0
 42 46  1  0  0  0  0
 43 41  1  6  0  0  0
 44 43  1  0  0  0  0
 45 46  1  0  0  0  0
 45 44  1  0  0  0  0
 46 43  1  0  0  0  0
M  END
>  <MODEL>
3

>  <REMARK>
 VINA RESULT:      -6.9      1.571      2.035
  Name = 
  18 active torsions:
  status: ('A' for Active; 'I' for Inactive)
    1  A    between atoms: C_3  and  C_8
    2  A    between atoms: C_3  and  C_14
    3  A    between atoms: C_3  and  C_35
    4  A    between atoms: N_7  and  N_20
    5  A    between atoms: N_7  and  N_22
    6  A    between atoms: C_8  and  C_43
    7  A    between atoms: N_12  and  C_19
    8  A    between atoms: N_12  and  C_43
    9  A    between atoms: C_14  and  C_42
   10  A    between atoms: C_15  and  O_32
   11  A    between atoms: C_16  and  C_36
   12  A    between atoms: C_21  and  C_39
   13  A    between atoms: C_23  and  C_43
   14  A    between atoms: O_32  and  C_41
   15  A    between atoms: C_34  and  C_37
   16  A    between atoms: C_36  and  C_42
   17  A    between atoms: C_38  and  C_39
   18  A    between atoms: C_41  and  C_45
                            x       y       z     vdW  Elec       q    Type
                         _______ _______ _______ _____ _____    ______ ____

>  <TORSDO>
F 18

$$$$
=
 OpenBabel11062413213D

 46 50  0  0  1  0  0  0  0  0999 V2000
  191.4070  176.1300  138.5930 C   0  0  2  0  0  3  0  0  0  0  0  0
  193.5750  175.5800  137.6070 C   0  0  0  0  0  0  0  0  0  0  0  0
  192.5490  176.3890  137.6540 C   0  0  0  0  0  3  0  0  0  0  0  0
  194.5980  174.7670  137.5490 C   0  0  0  0  0  0  0  0  0  0  0  0
  195.0650  174.3340  136.2730 N   0  0  0  0  0  1  0  0  0  0  0  0
  195.7900  175.0510  139.6280 N   0  0  0  0  0  2  0  0  0  0  0  0
  195.2350  174.2500  138.7740 C   0  0  0  0  0  0  0  0  0  0  0  0
  195.2660  172.9110  139.0010 F   0  0  0  0  0  0  0  0  0  0  0  0
  190.2180  175.6050  137.9160 N   0  0  0  0  0  2  0  0  0  0  0  0
  187.9330  177.3670  135.4410 C   0  0  0  0  0  2  0  0  0  0  0  0
  189.3830  177.3280  135.9100 C   0  0  0  0  0  2  0  0  0  0  0  0
  187.1080  176.1920  135.9780 C   0  0  0  0  0  2  0  0  0  0  0  0
  190.0510  176.0330  135.4330 C   0  0  1  0  0  3  0  0  0  0  0  0
  190.5340  175.1250  136.5640 C   0  0  2  0  0  0  0  0  0  0  0  0
  189.2450  174.7760  135.7710 C   0  0  1  0  0  0  0  0  0  0  0  0
  187.9460  175.0450  136.5700 C   0  0  2  0  0  3  0  0  0  0  0  0
  190.1020  173.6880  136.3890 C   0  0  0  0  0  2  0  0  0  0  0  0
  186.7860  173.2100  135.5290 O   0  0  0  0  0  1  0  0  0  0  0  0
  187.1010  173.7860  136.7630 C   0  0  2  0  0  3  0  0  0  0  0  0
  185.9050  174.1130  137.4660 O   0  0  0  0  0  0  0  0  0  0  0  0
  182.4580  174.0730  136.0490 C   0  0  0  0  0  2  0  0  0  0  0  0
  184.3020  172.2080  137.3500 C   0  0  0  0  0  2  0  0  0  0  0  0
  184.6460  173.6520  137.0750 C   0  0  0  0  0  0  0  0  0  0  0  0
  183.0370  171.7500  136.6250 C   0  0  0  0  0  2  0  0  0  0  0  0
  183.7820  174.4710  136.5360 N   0  0  0  0  0  0  0  0  0  0  0  0
  181.9630  172.8150  136.7550 C   0  0  0  0  0  2  0  0  0  0  0  0
  191.0770  177.3670  139.4270 C   0  0  0  0  0  2  0  0  0  0  0  0
  189.9770  177.0660  140.4460 C   0  0  2  0  0  3  0  0  0  0  0  0
  188.5350  178.8570  141.1210 O   0  0  0  0  0  0  0  0  0  0  0  0
  187.9670  177.8140  139.1180 N   0  0  0  0  0  2  0  0  0  0  0  0
  188.7990  177.9740  140.2630 C   0  0  0  0  0  0  0  0  0  0  0  0
  186.8670  178.6500  138.9000 N   0  0  0  0  0  2  0  0  0  0  0  0
  185.8470  178.7210  139.8550 N   0  0  0  0  0  0  0  0  0  0  0  0
  184.6110  178.7780  139.4840 C   0  0  0  0  0  3  0  0  0  0  0  0
  183.5220  178.8600  140.4980 C   0  0  0  0  0  2  0  0  0  0  0  0
  183.9660  178.8890  142.9320 C   0  0  0  0  0  1  0  0  0  0  0  0
  183.8630  178.0050  141.7000 C   0  0  0  0  0  2  0  0  0  0  0  0
  190.4900  177.1430  141.8850 C   0  0  2  0  0  3  0  0  0  0  0  0
  191.8760  177.3450  141.9200 O   0  0  0  0  0  1  0  0  0  0  0  0
  190.1230  175.8930  142.6720 C   0  0  0  0  0  2  0  0  0  0  0  0
  188.9080  176.1890  143.5370 C   0  0  0  0  0  2  0  0  0  0  0  0
  186.7130  177.2970  144.7810 C   0  0  0  0  0  1  0  0  0  0  0  0
  189.1560  177.4030  144.4470 C   0  0  2  0  0  3  0  0  0  0  0  0
  189.6570  177.0070  145.8210 C   0  0  0  0  0  2  0  0  0  0  0  0
  188.4130  177.7050  146.3330 C   0  0  0  0  0  2  0  0  0  0  0  0
  187.9450  178.0540  144.9920 N   0  0  0  0  0  0  0  0  0  0  0  0
  1  3  1  6  0  0  0
  1 27  1  0  0  0  0
  2  3  2  0  0  0  0
  4  2  2  0  0  0  0
  4  7  1  0  0  0  0
  5  4  1  0  0  0  0
  7  8  1  0  0  0  0
  7  6  2  0  0  0  0
  9  1  1  0  0  0  0
 10 11  1  0  0  0  0
 10 12  1  0  0  0  0
 12 16  1  0  0  0  0
 13 15  1  0  0  0  0
 13 11  1  1  0  0  0
 13 14  1  0  0  0  0
 14  9  1  1  0  0  0
 15 17  1  6  0  0  0
 15 14  1  0  0  0  0
 15 16  1  0  0  0  0
 16 19  1  6  0  0  0
 17 14  1  0  0  0  0
 19 18  1  6  0  0  0
 19 20  1  0  0  0  0
 21 25  1  0  0  0  0
 21 26  1  0  0  0  0
 23 22  1  0  0  0  0
 23 20  1  0  0  0  0
 24 26  1  0  0  0  0
 24 22  1  0  0  0  0
 25 23  2  0  0  0  0
 28 27  1  6  0  0  0
 28 38  1  0  0  0  0
 30 31  1  0  0  0  0
 31 28  1  0  0  0  0
 31 29  2  0  0  0  0
 32 30  1  0  0  0  0
 32 33  1  0  0  0  0
 34 33  2  0  0  0  0
 34 35  1  0  0  0  0
 35 37  1  0  0  0  0
 37 36  1  0  0  0  0
 38 39  1  6  0  0  0
 38 40  1  0  0  0  0
 40 41  1  0  0  0  0
 42 46  1  0  0  0  0
 43 41  1  6  0  0  0
 43 46  1  0  0  0  0
 43 44  1  0  0  0  0
 44 45  1  0  0  0  0
 46 45  1  0  0  0  0
M  END
>  <MODEL>
4

>  <REMARK>
 VINA RESULT:      -6.7      2.980      7.593
  Name = 
  18 active torsions:
  status: ('A' for Active; 'I' for Inactive)
    1  A    between atoms: C_3  and  C_8
    2  A    between atoms: C_3  and  C_14
    3  A    between atoms: C_3  and  C_35
    4  A    between atoms: N_7  and  N_20
    5  A    between atoms: N_7  and  N_22
    6  A    between atoms: C_8  and  C_43
    7  A    between atoms: N_12  and  C_19
    8  A    between atoms: N_12  and  C_43
    9  A    between atoms: C_14  and  C_42
   10  A    between atoms: C_15  and  O_32
   11  A    between atoms: C_16  and  C_36
   12  A    between atoms: C_21  and  C_39
   13  A    between atoms: C_23  and  C_43
   14  A    between atoms: O_32  and  C_41
   15  A    between atoms: C_34  and  C_37
   16  A    between atoms: C_36  and  C_42
   17  A    between atoms: C_38  and  C_39
   18  A    between atoms: C_41  and  C_45
                            x       y       z     vdW  Elec       q    Type
                         _______ _______ _______ _____ _____    ______ ____

>  <TORSDO>
F 18

$$$$
=
 OpenBabel11062413213D

 46 50  0  0  1  0  0  0  0  0999 V2000
  185.4900  178.7020  141.4810 C   0  0  2  0  0  3  0  0  0  0  0  0
  184.2880  179.3290  143.5150 C   0  0  0  0  0  0  0  0  0  0  0  0
  185.3080  179.5270  142.7230 C   0  0  0  0  0  3  0  0  0  0  0  0
  183.2740  179.1270  144.3160 C   0  0  0  0  0  0  0  0  0  0  0  0
  183.5110  179.0310  145.7190 N   0  0  0  0  0  1  0  0  0  0  0  0
  181.3780  179.8050  142.9870 N   0  0  0  0  0  2  0  0  0  0  0  0
  181.9090  178.9390  143.7920 C   0  0  0  0  0  0  0  0  0  0  0  0
  181.1840  177.8570  144.1760 F   0  0  0  0  0  0  0  0  0  0  0  0
  184.2250  178.1950  140.9410 N   0  0  0  0  0  2  0  0  0  0  0  0
  181.3980  176.5260  139.0250 C   0  0  0  0  0  2  0  0  0  0  0  0
  181.6560  177.4580  140.2030 C   0  0  0  0  0  2  0  0  0  0  0  0
  182.6480  176.3010  138.1660 C   0  0  0  0  0  2  0  0  0  0  0  0
  182.1220  178.8270  139.6930 C   0  0  1  0  0  3  0  0  0  0  0  0
  183.5280  179.2180  140.1510 C   0  0  2  0  0  0  0  0  0  0  0  0
  183.2790  178.7390  138.6940 C   0  0  1  0  0  0  0  0  0  0  0  0
  183.7900  177.3000  138.4320 C   0  0  2  0  0  3  0  0  0  0  0  0
  184.3980  179.7100  139.0180 C   0  0  0  0  0  2  0  0  0  0  0  0
  184.4110  176.4280  136.2760 O   0  0  0  0  0  1  0  0  0  0  0  0
  184.8440  177.2400  137.3270 C   0  0  2  0  0  3  0  0  0  0  0  0
  186.0680  176.7390  137.8580 O   0  0  0  0  0  0  0  0  0  0  0  0
  188.9750  176.8040  135.5250 C   0  0  0  0  0  2  0  0  0  0  0  0
  187.3770  174.8150  136.9630 C   0  0  0  0  0  2  0  0  0  0  0  0
  187.1210  176.3010  137.0510 C   0  0  0  0  0  0  0  0  0  0  0  0
  188.7130  174.4800  136.3010 C   0  0  0  0  0  2  0  0  0  0  0  0
  187.8220  177.1580  136.3590 N   0  0  0  0  0  0  0  0  0  0  0  0
  188.9020  175.3490  135.0690 C   0  0  0  0  0  2  0  0  0  0  0  0
  186.4970  177.5740  141.7020 C   0  0  0  0  0  2  0  0  0  0  0  0
  187.9280  178.1110  141.7290 C   0  0  2  0  0  3  0  0  0  0  0  0
  188.2050  178.7450  139.4350 O   0  0  0  0  0  0  0  0  0  0  0  0
  189.6090  177.0430  140.1820 N   0  0  0  0  0  0  0  0  0  0  0  0
  188.5780  178.0050  140.3830 C   0  0  0  0  0  0  0  0  0  0  0  0
  190.2540  176.9220  138.9460 N   0  0  0  0  0  0  0  0  0  0  0  0
  191.0090  175.7790  138.6650 N   0  0  0  0  0  0  0  0  0  0  0  0
  191.8950  175.8000  137.7250 C   0  0  0  0  0  3  0  0  0  0  0  0
  192.6980  174.5830  137.4180 C   0  0  0  0  0  2  0  0  0  0  0  0
  194.7840  173.4780  138.1580 C   0  0  0  0  0  1  0  0  0  0  0  0
  194.1480  174.8080  137.7890 C   0  0  0  0  0  2  0  0  0  0  0  0
  188.7840  177.4150  142.7900 C   0  0  2  0  0  3  0  0  0  0  0  0
  188.3550  176.0990  143.0040 O   0  0  0  0  0  1  0  0  0  0  0  0
  188.7790  178.1880  144.1020 C   0  0  0  0  0  2  0  0  0  0  0  0
  188.6610  177.2060  145.2560 C   0  0  0  0  0  2  0  0  0  0  0  0
  186.5430  177.9470  146.8560 C   0  0  0  0  0  1  0  0  0  0  0  0
  188.9960  177.8790  146.5970 C   0  0  2  0  0  3  0  0  0  0  0  0
  189.3770  176.8780  147.6700 C   0  0  0  0  0  2  0  0  0  0  0  0
  188.1950  177.4430  148.4320 C   0  0  0  0  0  2  0  0  0  0  0  0
  187.8400  178.3820  147.3690 N   0  0  0  0  0  0  0  0  0  0  0  0
  1 27  1  1  0  0  0
  1  3  1  0  0  0  0
  2  4  2  0  0  0  0
  3  2  2  0  0  0  0
  4  5  1  0  0  0  0
  6  7  2  0  0  0  0
  7  8  1  0  0  0  0
  7  4  1  0  0  0  0
  9  1  1  0  0  0  0
 10 11  1  0  0  0  0
 12 16  1  0  0  0  0
 12 10  1  0  0  0  0
 13 14  1  0  0  0  0
 13 11  1  1  0  0  0
 14  9  1  1  0  0  0
 15 17  1  6  0  0  0
 15 13  1  0  0  0  0
 15 14  1  0  0  0  0
 16 19  1  6  0  0  0
 16 15  1  0  0  0  0
 17 14  1  0  0  0  0
 19 18  1  6  0  0  0
 19 20  1  0  0  0  0
 21 25  1  0  0  0  0
 22 23  1  0  0  0  0
 23 20  1  0  0  0  0
 24 22  1  0  0  0  0
 25 23  2  0  0  0  0
 26 21  1  0  0  0  0
 26 24  1  0  0  0  0
 28 27  1  6  0  0  0
 28 38  1  0  0  0  0
 29 31  2  0  0  0  0
 30 31  1  0  0  0  0
 31 28  1  0  0  0  0
 32 30  2  0  0  0  0
 33 32  1  0  0  0  0
 34 33  2  0  0  0  0
 35 34  1  0  0  0  0
 35 37  1  0  0  0  0
 37 36  1  0  0  0  0
 38 39  1  1  0  0  0
 38 40  1  0  0  0  0
 40 41  1  0  0  0  0
 42 46  1  0  0  0  0
 43 41  1  6  0  0  0
 43 46  1  0  0  0  0
 43 44  1  0  0  0  0
 44 45  1  0  0  0  0
 46 45  1  0  0  0  0
M  END
>  <MODEL>
5

>  <REMARK>
 VINA RESULT:      -6.6      2.719      8.456
  Name = 
  18 active torsions:
  status: ('A' for Active; 'I' for Inactive)
    1  A    between atoms: C_3  and  C_8
    2  A    between atoms: C_3  and  C_14
    3  A    between atoms: C_3  and  C_35
    4  A    between atoms: N_7  and  N_20
    5  A    between atoms: N_7  and  N_22
    6  A    between atoms: C_8  and  C_43
    7  A    between atoms: N_12  and  C_19
    8  A    between atoms: N_12  and  C_43
    9  A    between atoms: C_14  and  C_42
   10  A    between atoms: C_15  and  O_32
   11  A    between atoms: C_16  and  C_36
   12  A    between atoms: C_21  and  C_39
   13  A    between atoms: C_23  and  C_43
   14  A    between atoms: O_32  and  C_41
   15  A    between atoms: C_34  and  C_37
   16  A    between atoms: C_36  and  C_42
   17  A    between atoms: C_38  and  C_39
   18  A    between atoms: C_41  and  C_45
                            x       y       z     vdW  Elec       q    Type
                         _______ _______ _______ _____ _____    ______ ____

>  <TORSDO>
F 18

$$$$
=
 OpenBabel11062413213D

 46 50  0  0  1  0  0  0  0  0999 V2000
  185.7500  177.4660  137.2520 C   0  0  2  0  0  3  0  0  0  0  0  0
  183.8040  176.0920  136.7020 C   0  0  0  0  0  0  0  0  0  0  0  0
  184.8870  176.2480  137.4170 C   0  0  0  0  0  3  0  0  0  0  0  0
  182.7250  175.9270  135.9820 C   0  0  0  0  0  0  0  0  0  0  0  0
  182.5030  174.6690  135.3490 N   0  0  0  0  0  1  0  0  0  0  0  0
  180.5910  176.8080  135.2840 N   0  0  0  0  0  2  0  0  0  0  0  0
  181.7720  177.0310  135.7670 C   0  0  0  0  0  0  0  0  0  0  0  0
  182.1420  178.3050  136.0550 F   0  0  0  0  0  0  0  0  0  0  0  0
  187.1450  177.2350  137.6390 N   0  0  0  0  0  2  0  0  0  0  0  0
  190.0420  174.9820  136.6460 C   0  0  0  0  0  2  0  0  0  0  0  0
  188.7980  175.6520  136.0730 C   0  0  0  0  0  2  0  0  0  0  0  0
  190.4060  175.5080  138.0390 C   0  0  0  0  0  2  0  0  0  0  0  0
  189.0260  177.1630  135.9550 C   0  0  1  0  0  3  0  0  0  0  0  0
  188.0720  178.0070  136.8020 C   0  0  2  0  0  0  0  0  0  0  0  0
  189.5460  177.8000  137.2470 C   0  0  1  0  0  0  0  0  0  0  0  0
  189.6900  176.8130  138.4330 C   0  0  2  0  0  3  0  0  0  0  0  0
  188.7860  179.0590  137.6170 C   0  0  0  0  0  2  0  0  0  0  0  0
  191.7100  177.1600  139.6960 O   0  0  0  0  0  1  0  0  0  0  0  0
  190.3440  177.4550  139.6560 C   0  0  2  0  0  3  0  0  0  0  0  0
  189.7100  176.9830  140.8420 O   0  0  0  0  0  0  0  0  0  0  0  0
  191.3730  175.6510  143.9000 C   0  0  0  0  0  2  0  0  0  0  0  0
  190.6310  178.2520  142.7790 C   0  0  0  0  0  2  0  0  0  0  0  0
  190.3540  176.9420  142.0810 C   0  0  0  0  0  0  0  0  0  0  0  0
  191.5860  178.1040  143.9630 C   0  0  0  0  0  2  0  0  0  0  0  0
  190.6540  175.7960  142.6310 N   0  0  0  0  0  0  0  0  0  0  0  0
  191.1970  176.8840  144.7810 C   0  0  0  0  0  2  0  0  0  0  0  0
  185.1590  178.6720  137.9810 C   0  0  0  0  0  2  0  0  0  0  0  0
  184.4960  178.2510  139.2930 C   0  0  2  0  0  3  0  0  0  0  0  0
  182.1850  177.6200  139.3600 O   0  0  0  0  0  0  0  0  0  0  0  0
  182.5960  179.9050  139.1730 N   0  0  0  0  0  2  0  0  0  0  0  0
  183.0280  178.5520  139.2860 C   0  0  0  0  0  0  0  0  0  0  0  0
  181.2350  180.2320  139.1780 N   0  0  0  0  0  2  0  0  0  0  0  0
  180.6600  180.8340  138.0550 N   0  0  0  0  0  0  0  0  0  0  0  0
  181.1800  181.9040  137.5510 C   0  0  0  0  0  3  0  0  0  0  0  0
  180.5670  182.5520  136.3580 C   0  0  0  0  0  2  0  0  0  0  0  0
  181.5230  184.6700  137.2070 C   0  0  0  0  0  1  0  0  0  0  0  0
  180.2740  184.0080  136.6490 C   0  0  0  0  0  2  0  0  0  0  0  0
  185.1650  178.8960  140.5080 C   0  0  2  0  0  3  0  0  0  0  0  0
  186.5600  178.7890  140.4360 O   0  0  0  0  0  1  0  0  0  0  0  0
  184.6610  178.2860  141.8090 C   0  0  0  0  0  2  0  0  0  0  0  0
  185.7190  178.4660  142.8850 C   0  0  0  0  0  2  0  0  0  0  0  0
  187.5000  177.5190  144.7630 C   0  0  0  0  0  1  0  0  0  0  0  0
  185.1590  178.1310  144.2770 C   0  0  2  0  0  3  0  0  0  0  0  0
  184.9910  179.3610  145.1470 C   0  0  0  0  0  2  0  0  0  0  0  0
  185.9540  178.6660  146.0890 C   0  0  0  0  0  2  0  0  0  0  0  0
  186.1110  177.5020  145.2180 N   0  0  0  0  0  0  0  0  0  0  0  0
  1  3  1  1  0  0  0
  1  9  1  0  0  0  0
  1 27  1  0  0  0  0
  2  3  2  0  0  0  0
  4  2  2  0  0  0  0
  5  4  1  0  0  0  0
  6  7  2  0  0  0  0
  7  4  1  0  0  0  0
  7  8  1  0  0  0  0
 10 12  1  0  0  0  0
 11 10  1  0  0  0  0
 12 16  1  0  0  0  0
 13 11  1  1  0  0  0
 13 14  1  0  0  0  0
 13 15  1  0  0  0  0
 14 15  1  0  0  0  0
 14 17  1  0  0  0  0
 14  9  1  1  0  0  0
 15 17  1  6  0  0  0
 15 16  1  0  0  0  0
 16 19  1  1  0  0  0
 19 18  1  1  0  0  0
 19 20  1  0  0  0  0
 20 23  1  0  0  0  0
 21 26  1  0  0  0  0
 22 24  1  0  0  0  0
 23 25  2  0  0  0  0
 23 22  1  0  0  0  0
 24 26  1  0  0  0  0
 25 21  1  0  0  0  0
 28 27  1  6  0  0  0
 28 38  1  0  0  0  0
 30 32  1  0  0  0  0
 30 31  1  0  0  0  0
 31 28  1  0  0  0  0
 31 29  2  0  0  0  0
 33 32  1  0  0  0  0
 34 33  2  0  0  0  0
 35 37  1  0  0  0  0
 35 34  1  0  0  0  0
 37 36  1  0  0  0  0
 38 39  1  6  0  0  0
 38 40  1  0  0  0  0
 40 41  1  0  0  0  0
 42 46  1  0  0  0  0
 43 41  1  6  0  0  0
 43 44  1  0  0  0  0
 43 46  1  0  0  0  0
 44 45  1  0  0  0  0
 46 45  1  0  0  0  0
M  END
>  <MODEL>
6

>  <REMARK>
 VINA RESULT:      -6.5      2.413      4.834
  Name = 
  18 active torsions:
  status: ('A' for Active; 'I' for Inactive)
    1  A    between atoms: C_3  and  C_8
    2  A    between atoms: C_3  and  C_14
    3  A    between atoms: C_3  and  C_35
    4  A    between atoms: N_7  and  N_20
    5  A    between atoms: N_7  and  N_22
    6  A    between atoms: C_8  and  C_43
    7  A    between atoms: N_12  and  C_19
    8  A    between atoms: N_12  and  C_43
    9  A    between atoms: C_14  and  C_42
   10  A    between atoms: C_15  and  O_32
   11  A    between atoms: C_16  and  C_36
   12  A    between atoms: C_21  and  C_39
   13  A    between atoms: C_23  and  C_43
   14  A    between atoms: O_32  and  C_41
   15  A    between atoms: C_34  and  C_37
   16  A    between atoms: C_36  and  C_42
   17  A    between atoms: C_38  and  C_39
   18  A    between atoms: C_41  and  C_45
                            x       y       z     vdW  Elec       q    Type
                         _______ _______ _______ _____ _____    ______ ____

>  <TORSDO>
F 18

$$$$
=
 OpenBabel11062413213D

 46 50  0  0  1  0  0  0  0  0999 V2000
  187.1560  177.5350  143.6580 C   0  0  2  0  0  3  0  0  0  0  0  0
  188.1660  177.2020  145.8590 C   0  0  0  0  0  0  0  0  0  0  0  0
  187.1390  177.0230  145.0700 C   0  0  0  0  0  3  0  0  0  0  0  0
  189.1860  177.3880  146.6560 C   0  0  0  0  0  0  0  0  0  0  0  0
  188.9520  177.8730  147.9770 N   0  0  0  0  0  1  0  0  0  0  0  0
  191.4840  176.7440  147.0100 N   0  0  0  0  0  2  0  0  0  0  0  0
  190.5680  177.1630  146.1950 C   0  0  0  0  0  0  0  0  0  0  0  0
  190.8970  177.4210  144.9030 F   0  0  0  0  0  0  0  0  0  0  0  0
  185.8140  177.8080  143.1340 N   0  0  0  0  0  2  0  0  0  0  0  0
  182.5460  178.9200  144.7260 C   0  0  0  0  0  2  0  0  0  0  0  0
  184.0570  179.0430  144.8880 C   0  0  0  0  0  2  0  0  0  0  0  0
  182.1450  178.3120  143.3770 C   0  0  0  0  0  2  0  0  0  0  0  0
  184.6280  179.9410  143.7840 C   0  0  1  0  0  3  0  0  0  0  0  0
  185.6230  179.2390  142.8590 C   0  0  2  0  0  0  0  0  0  0  0  0
  184.1760  179.5350  142.3790 C   0  0  1  0  0  0  0  0  0  0  0  0
  183.2780  178.2730  142.3350 C   0  0  2  0  0  3  0  0  0  0  0  0
  185.3290  179.4710  141.3960 C   0  0  0  0  0  2  0  0  0  0  0  0
  181.3450  177.8290  140.9710 O   0  0  0  0  0  1  0  0  0  0  0  0
  182.7330  177.9860  140.9370 C   0  0  2  0  0  3  0  0  0  0  0  0
  183.3430  176.8080  140.4170 O   0  0  0  0  0  0  0  0  0  0  0  0
  182.7780  174.8480  137.2960 C   0  0  0  0  0  2  0  0  0  0  0  0
  183.7900  177.4880  138.0610 C   0  0  0  0  0  2  0  0  0  0  0  0
  183.3030  176.4680  139.0620 C   0  0  0  0  0  0  0  0  0  0  0  0
  183.4270  177.1260  136.6200 C   0  0  0  0  0  2  0  0  0  0  0  0
  182.9030  175.2810  138.6910 N   0  0  0  0  0  0  0  0  0  0  0  0
  183.7000  175.6510  136.3830 C   0  0  0  0  0  2  0  0  0  0  0  0
  187.9390  176.6040  142.7350 C   0  0  0  0  0  2  0  0  0  0  0  0
  189.0900  177.3450  142.0540 C   0  0  2  0  0  3  0  0  0  0  0  0
  188.6800  179.4550  140.9940 O   0  0  0  0  0  0  0  0  0  0  0  0
  188.0200  177.5790  139.7820 N   0  0  0  0  0  2  0  0  0  0  0  0
  188.5990  178.2000  140.9260 C   0  0  0  0  0  0  0  0  0  0  0  0
  187.5630  178.3380  138.7000 N   0  0  0  0  0  2  0  0  0  0  0  0
  187.4460  177.7490  137.4370 N   0  0  0  0  0  0  0  0  0  0  0  0
  186.9750  178.4270  136.4430 C   0  0  0  0  0  3  0  0  0  0  0  0
  186.8420  177.8020  135.0980 C   0  0  0  0  0  2  0  0  0  0  0  0
  186.9600  175.3520  134.7770 C   0  0  0  0  0  1  0  0  0  0  0  0
  187.7770  176.6170  134.9790 C   0  0  0  0  0  2  0  0  0  0  0  0
  190.1790  176.3890  141.5620 C   0  0  2  0  0  3  0  0  0  0  0  0
  190.5750  175.5070  142.5750 O   0  0  0  0  0  1  0  0  0  0  0  0
  191.3850  177.1490  141.0280 C   0  0  0  0  0  2  0  0  0  0  0  0
  191.3390  177.1510  139.5090 C   0  0  0  0  0  2  0  0  0  0  0  0
  190.1750  175.4060  137.7210 C   0  0  0  0  0  1  0  0  0  0  0  0
  192.2330  176.0450  138.9240 C   0  0  2  0  0  3  0  0  0  0  0  0
  193.0970  176.5420  137.7810 C   0  0  0  0  0  2  0  0  0  0  0  0
  192.3830  175.4900  136.9560 C   0  0  0  0  0  2  0  0  0  0  0  0
  191.5480  175.0490  138.0730 N   0  0  0  0  0  0  0  0  0  0  0  0
  1 27  1  6  0  0  0
  1  3  1  0  0  0  0
  2  4  2  0  0  0  0
  3  2  2  0  0  0  0
  4  5  1  0  0  0  0
  7  4  1  0  0  0  0
  7  6  2  0  0  0  0
  8  7  1  0  0  0  0
  9  1  1  0  0  0  0
 10 11  1  0  0  0  0
 12 10  1  0  0  0  0
 13 11  1  1  0  0  0
 14  9  1  1  0  0  0
 14 13  1  0  0  0  0
 15 17  1  6  0  0  0
 15 14  1  0  0  0  0
 15 13  1  0  0  0  0
 16 19  1  6  0  0  0
 16 15  1  0  0  0  0
 16 12  1  0  0  0  0
 17 14  1  0  0  0  0
 19 18  1  1  0  0  0
 20 19  1  0  0  0  0
 21 25  1  0  0  0  0
 22 23  1  0  0  0  0
 23 20  1  0  0  0  0
 24 22  1  0  0  0  0
 25 23  2  0  0  0  0
 26 24  1  0  0  0  0
 26 21  1  0  0  0  0
 28 27  1  6  0  0  0
 30 31  1  0  0  0  0
 31 29  2  0  0  0  0
 31 28  1  0  0  0  0
 32 30  1  0  0  0  0
 33 32  1  0  0  0  0
 34 33  2  0  0  0  0
 35 34  1  0  0  0  0
 36 37  1  0  0  0  0
 37 35  1  0  0  0  0
 38 28  1  0  0  0  0
 38 39  1  1  0  0  0
 40 38  1  0  0  0  0
 41 40  1  0  0  0  0
 42 46  1  0  0  0  0
 43 41  1  6  0  0  0
 44 43  1  0  0  0  0
 45 44  1  0  0  0  0
 45 46  1  0  0  0  0
 46 43  1  0  0  0  0
M  END
>  <MODEL>
7

>  <REMARK>
 VINA RESULT:      -6.4      2.755      9.573
  Name = 
  18 active torsions:
  status: ('A' for Active; 'I' for Inactive)
    1  A    between atoms: C_3  and  C_8
    2  A    between atoms: C_3  and  C_14
    3  A    between atoms: C_3  and  C_35
    4  A    between atoms: N_7  and  N_20
    5  A    between atoms: N_7  and  N_22
    6  A    between atoms: C_8  and  C_43
    7  A    between atoms: N_12  and  C_19
    8  A    between atoms: N_12  and  C_43
    9  A    between atoms: C_14  and  C_42
   10  A    between atoms: C_15  and  O_32
   11  A    between atoms: C_16  and  C_36
   12  A    between atoms: C_21  and  C_39
   13  A    between atoms: C_23  and  C_43
   14  A    between atoms: O_32  and  C_41
   15  A    between atoms: C_34  and  C_37
   16  A    between atoms: C_36  and  C_42
   17  A    between atoms: C_38  and  C_39
   18  A    between atoms: C_41  and  C_45
                            x       y       z     vdW  Elec       q    Type
                         _______ _______ _______ _____ _____    ______ ____

>  <TORSDO>
F 18

$$$$
=
 OpenBabel11062413213D

 46 50  0  0  1  0  0  0  0  0999 V2000
  186.9130  178.4610  142.0440 C   0  0  2  0  0  3  0  0  0  0  0  0
  185.9980  178.3070  139.7820 C   0  0  0  0  0  0  0  0  0  0  0  0
  186.7980  177.8170  140.6920 C   0  0  0  0  0  3  0  0  0  0  0  0
  185.2070  178.8010  138.8650 C   0  0  0  0  0  0  0  0  0  0  0  0
  185.7080  178.9740  137.5410 N   0  0  0  0  0  1  0  0  0  0  0  0
  182.9890  178.4140  139.7320 N   0  0  0  0  0  2  0  0  0  0  0  0
  183.8350  179.2310  139.1880 C   0  0  0  0  0  0  0  0  0  0  0  0
  183.4390  180.4960  138.8900 F   0  0  0  0  0  0  0  0  0  0  0  0
  188.2730  178.4110  142.5870 N   0  0  0  0  0  2  0  0  0  0  0  0
  191.6230  178.7130  144.3600 C   0  0  0  0  0  2  0  0  0  0  0  0
  190.1220  178.7430  144.6270 C   0  0  0  0  0  2  0  0  0  0  0  0
  191.9610  178.2070  142.9530 C   0  0  0  0  0  2  0  0  0  0  0  0
  189.5390  177.3320  144.4870 C   0  0  1  0  0  3  0  0  0  0  0  0
  188.4950  177.1940  143.3790 C   0  0  2  0  0  0  0  0  0  0  0  0
  189.9320  176.6410  143.1790 C   0  0  1  0  0  0  0  0  0  0  0  0
  190.7930  177.5120  142.2300 C   0  0  2  0  0  3  0  0  0  0  0  0
  188.7450  176.0060  142.4800 C   0  0  0  0  0  2  0  0  0  0  0  0
  192.1810  177.5130  140.2620 O   0  0  0  0  0  1  0  0  0  0  0  0
  191.2830  176.7410  141.0050 C   0  0  2  0  0  3  0  0  0  0  0  0
  190.1710  176.3730  140.1920 O   0  0  0  0  0  0  0  0  0  0  0  0
  189.2910  178.8280  137.5290 C   0  0  0  0  0  2  0  0  0  0  0  0
  190.1470  176.0350  137.7230 C   0  0  0  0  0  2  0  0  0  0  0  0
  189.9410  176.9210  138.9280 C   0  0  0  0  0  0  0  0  0  0  0  0
  190.1550  176.8130  136.4070 C   0  0  0  0  0  2  0  0  0  0  0  0
  189.5120  178.1490  138.8090 N   0  0  0  0  0  0  0  0  0  0  0  0
  189.0240  177.8270  136.4090 C   0  0  0  0  0  2  0  0  0  0  0  0
  185.8960  177.8830  143.0270 C   0  0  0  0  0  2  0  0  0  0  0  0
  185.7320  178.7920  144.2460 C   0  0  2  0  0  3  0  0  0  0  0  0
  186.0230  176.8410  145.6070 O   0  0  0  0  0  0  0  0  0  0  0  0
  186.6230  178.8580  146.6040 N   0  0  0  0  0  2  0  0  0  0  0  0
  186.1340  178.0910  145.5080 C   0  0  0  0  0  0  0  0  0  0  0  0
  187.0250  178.2440  147.7950 N   0  0  0  0  0  2  0  0  0  0  0  0
  188.2600  177.5910  147.8590 N   0  0  0  0  0  0  0  0  0  0  0  0
  189.3340  178.2550  148.1280 C   0  0  0  0  0  3  0  0  0  0  0  0
  190.6530  177.5650  148.1910 C   0  0  0  0  0  2  0  0  0  0  0  0
  192.0540  175.9380  146.9610 C   0  0  0  0  0  1  0  0  0  0  0  0
  190.6310  176.3190  147.3310 C   0  0  0  0  0  2  0  0  0  0  0  0
  184.3080  179.3360  144.3700 C   0  0  2  0  0  3  0  0  0  0  0  0
  183.7700  179.0690  145.6360 O   0  0  0  0  0  1  0  0  0  0  0  0
  183.4010  178.7700  143.2860 C   0  0  0  0  0  2  0  0  0  0  0  0
  181.9510  179.0190  143.6700 C   0  0  0  0  0  2  0  0  0  0  0  0
  179.3090  178.6270  144.3480 C   0  0  0  0  0  1  0  0  0  0  0  0
  180.9950  178.5880  142.5460 C   0  0  2  0  0  3  0  0  0  0  0  0
  180.5390  179.7550  141.6930 C   0  0  0  0  0  2  0  0  0  0  0  0
  179.1430  179.3640  142.1350 C   0  0  0  0  0  2  0  0  0  0  0  0
  179.6170  178.2590  142.9670 N   0  0  0  0  0  0  0  0  0  0  0  0
  1  3  1  6  0  0  0
  1  9  1  0  0  0  0
  1 27  1  0  0  0  0
  2  3  2  0  0  0  0
  4  7  1  0  0  0  0
  4  2  2  0  0  0  0
  5  4  1  0  0  0  0
  7  6  2  0  0  0  0
  8  7  1  0  0  0  0
 10 11  1  0  0  0  0
 12 10  1  0  0  0  0
 13 11  1  6  0  0  0
 14  9  1  6  0  0  0
 14 13  1  0  0  0  0
 15 17  1  1  0  0  0
 15 14  1  0  0  0  0
 15 13  1  0  0  0  0
 16 19  1  6  0  0  0
 16 12  1  0  0  0  0
 16 15  1  0  0  0  0
 17 14  1  0  0  0  0
 19 18  1  6  0  0  0
 20 19  1  0  0  0  0
 21 25  1  0  0  0  0
 22 23  1  0  0  0  0
 23 20  1  0  0  0  0
 24 26  1  0  0  0  0
 24 22  1  0  0  0  0
 25 23  2  0  0  0  0
 26 21  1  0  0  0  0
 28 27  1  6  0  0  0
 28 38  1  0  0  0  0
 28 31  1  0  0  0  0
 30 32  1  0  0  0  0
 31 29  2  0  0  0  0
 31 30  1  0  0  0  0
 32 33  1  0  0  0  0
 33 34  2  0  0  0  0
 34 35  1  0  0  0  0
 36 37  1  0  0  0  0
 37 35  1  0  0  0  0
 38 39  1  1  0  0  0
 40 41  1  0  0  0  0
 40 38  1  0  0  0  0
 43 46  1  0  0  0  0
 43 41  1  1  0  0  0
 44 45  1  0  0  0  0
 44 43  1  0  0  0  0
 45 46  1  0  0  0  0
 46 42  1  0  0  0  0
M  END
>  <MODEL>
8

>  <REMARK>
 VINA RESULT:      -6.3      3.160      5.929
  Name = 
  18 active torsions:
  status: ('A' for Active; 'I' for Inactive)
    1  A    between atoms: C_3  and  C_8
    2  A    between atoms: C_3  and  C_14
    3  A    between atoms: C_3  and  C_35
    4  A    between atoms: N_7  and  N_20
    5  A    between atoms: N_7  and  N_22
    6  A    between atoms: C_8  and  C_43
    7  A    between atoms: N_12  and  C_19
    8  A    between atoms: N_12  and  C_43
    9  A    between atoms: C_14  and  C_42
   10  A    between atoms: C_15  and  O_32
   11  A    between atoms: C_16  and  C_36
   12  A    between atoms: C_21  and  C_39
   13  A    between atoms: C_23  and  C_43
   14  A    between atoms: O_32  and  C_41
   15  A    between atoms: C_34  and  C_37
   16  A    between atoms: C_36  and  C_42
   17  A    between atoms: C_38  and  C_39
   18  A    between atoms: C_41  and  C_45
                            x       y       z     vdW  Elec       q    Type
                         _______ _______ _______ _____ _____    ______ ____

>  <TORSDO>
F 18

$$$$
=
 OpenBabel11062413213D

 46 50  0  0  1  0  0  0  0  0999 V2000
  185.4710  178.6190  142.2610 C   0  0  2  0  0  3  0  0  0  0  0  0
  185.2350  178.8710  144.6810 C   0  0  0  0  0  0  0  0  0  0  0  0
  184.7100  179.0150  143.4930 C   0  0  0  0  0  3  0  0  0  0  0  0
  185.7610  178.7380  145.8700 C   0  0  0  0  0  0  0  0  0  0  0  0
  185.6820  179.8280  146.7860 N   0  0  0  0  0  1  0  0  0  0  0  0
  187.2780  177.4970  147.2790 N   0  0  0  0  0  2  0  0  0  0  0  0
  186.4810  177.5100  146.2570 C   0  0  0  0  0  0  0  0  0  0  0  0
  186.3280  176.3810  145.5190 F   0  0  0  0  0  0  0  0  0  0  0  0
  184.6010  178.1760  141.1680 N   0  0  0  0  0  2  0  0  0  0  0  0
  180.9520  177.3910  140.4410 C   0  0  0  0  0  2  0  0  0  0  0  0
  181.8340  178.2650  141.3260 C   0  0  0  0  0  2  0  0  0  0  0  0
  181.7380  176.7170  139.3100 C   0  0  0  0  0  2  0  0  0  0  0  0
  182.4830  179.3720  140.4870 C   0  0  1  0  0  3  0  0  0  0  0  0
  184.0100  179.3160  140.4530 C   0  0  2  0  0  0  0  0  0  0  0  0
  183.1780  178.8470  139.2280 C   0  0  1  0  0  0  0  0  0  0  0  0
  183.1400  177.3070  139.0710 C   0  0  2  0  0  3  0  0  0  0  0  0
  184.5710  179.4230  139.0540 C   0  0  0  0  0  2  0  0  0  0  0  0
  182.9140  177.2610  136.6740 O   0  0  0  0  0  1  0  0  0  0  0  0
  183.7170  176.8360  137.7370 C   0  0  2  0  0  3  0  0  0  0  0  0
  183.8180  175.4140  137.7320 O   0  0  0  0  0  0  0  0  0  0  0  0
  187.2540  174.7820  136.4330 C   0  0  0  0  0  2  0  0  0  0  0  0
  184.9870  173.2310  137.4480 C   0  0  0  0  0  2  0  0  0  0  0  0
  184.9730  174.7370  137.3330 C   0  0  0  0  0  0  0  0  0  0  0  0
  186.3830  172.6350  137.2670 C   0  0  0  0  0  2  0  0  0  0  0  0
  185.9830  175.3950  136.8310 N   0  0  0  0  0  0  0  0  0  0  0  0
  187.0740  173.3060  136.0930 C   0  0  0  0  0  2  0  0  0  0  0  0
  186.5450  177.5790  142.5770 C   0  0  0  0  0  2  0  0  0  0  0  0
  187.9440  178.1310  142.2980 C   0  0  2  0  0  3  0  0  0  0  0  0
  187.6520  178.6290  139.9730 O   0  0  0  0  0  0  0  0  0  0  0  0
  189.3790  177.1490  140.4720 N   0  0  0  0  0  0  0  0  0  0  0  0
  188.3040  178.0030  140.8490 C   0  0  0  0  0  0  0  0  0  0  0  0
  189.7590  177.0130  139.1320 N   0  0  0  0  0  0  0  0  0  0  0  0
  190.5770  175.9460  138.7460 N   0  0  0  0  0  0  0  0  0  0  0  0
  191.6170  176.1570  138.0100 C   0  0  0  0  0  3  0  0  0  0  0  0
  192.4880  175.0220  137.5910 C   0  0  0  0  0  2  0  0  0  0  0  0
  194.0830  175.8260  135.8790 C   0  0  0  0  0  1  0  0  0  0  0  0
  193.9010  175.5100  137.3540 C   0  0  0  0  0  2  0  0  0  0  0  0
  189.0090  177.4650  143.1720 C   0  0  2  0  0  3  0  0  0  0  0  0
  188.6490  176.1520  143.5000 O   0  0  0  0  0  1  0  0  0  0  0  0
  189.2700  178.2690  144.4380 C   0  0  0  0  0  2  0  0  0  0  0  0
  190.6410  177.9050  144.9850 C   0  0  0  0  0  2  0  0  0  0  0  0
  192.0500  175.5890  144.4880 C   0  0  0  0  0  1  0  0  0  0  0  0
  190.5430  176.7850  146.0330 C   0  0  2  0  0  3  0  0  0  0  0  0
  191.4610  177.0160  147.2170 C   0  0  0  0  0  2  0  0  0  0  0  0
  192.0880  175.6940  146.8230 C   0  0  0  0  0  2  0  0  0  0  0  0
  191.2010  175.5110  145.6750 N   0  0  0  0  0  0  0  0  0  0  0  0
  1 27  1  1  0  0  0
  1  3  1  0  0  0  0
  2  4  2  0  0  0  0
  3  2  2  0  0  0  0
  4  7  1  0  0  0  0
  4  5  1  0  0  0  0
  7  6  2  0  0  0  0
  8  7  1  0  0  0  0
  9  1  1  0  0  0  0
 10 11  1  0  0  0  0
 12 10  1  0  0  0  0
 13 11  1  1  0  0  0
 14 13  1  0  0  0  0
 14  9  1  1  0  0  0
 15 17  1  6  0  0  0
 15 14  1  0  0  0  0
 15 13  1  0  0  0  0
 16 19  1  6  0  0  0
 16 15  1  0  0  0  0
 16 12  1  0  0  0  0
 17 14  1  0  0  0  0
 19 18  1  6  0  0  0
 20 19  1  0  0  0  0
 21 25  1  0  0  0  0
 23 22  1  0  0  0  0
 23 20  1  0  0  0  0
 24 22  1  0  0  0  0
 25 23  2  0  0  0  0
 26 21  1  0  0  0  0
 26 24  1  0  0  0  0
 28 27  1  6  0  0  0
 28 38  1  0  0  0  0
 29 31  2  0  0  0  0
 30 31  1  0  0  0  0
 31 28  1  0  0  0  0
 32 30  2  0  0  0  0
 33 32  1  0  0  0  0
 34 33  2  0  0  0  0
 35 34  1  0  0  0  0
 36 37  1  0  0  0  0
 37 35  1  0  0  0  0
 38 39  1  1  0  0  0
 38 40  1  0  0  0  0
 40 41  1  0  0  0  0
 42 46  1  0  0  0  0
 43 41  1  6  0  0  0
 43 44  1  0  0  0  0
 45 44  1  0  0  0  0
 46 43  1  0  0  0  0
 46 45  1  0  0  0  0
M  END
>  <MODEL>
9

>  <REMARK>
 VINA RESULT:      -6.2      2.613      9.224
  Name = 
  18 active torsions:
  status: ('A' for Active; 'I' for Inactive)
    1  A    between atoms: C_3  and  C_8
    2  A    between atoms: C_3  and  C_14
    3  A    between atoms: C_3  and  C_35
    4  A    between atoms: N_7  and  N_20
    5  A    between atoms: N_7  and  N_22
    6  A    between atoms: C_8  and  C_43
    7  A    between atoms: N_12  and  C_19
    8  A    between atoms: N_12  and  C_43
    9  A    between atoms: C_14  and  C_42
   10  A    between atoms: C_15  and  O_32
   11  A    between atoms: C_16  and  C_36
   12  A    between atoms: C_21  and  C_39
   13  A    between atoms: C_23  and  C_43
   14  A    between atoms: O_32  and  C_41
   15  A    between atoms: C_34  and  C_37
   16  A    between atoms: C_36  and  C_42
   17  A    between atoms: C_38  and  C_39
   18  A    between atoms: C_41  and  C_45
                            x       y       z     vdW  Elec       q    Type
                         _______ _______ _______ _____ _____    ______ ____

>  <TORSDO>
F 18

$$$$
