=
 OpenBabel11062413063D

 40 45  0  0  1  0  0  0  0  0999 V2000
  186.5440  178.7680  140.1460 C   0  0  0  0  0  2  0  0  0  0  0  0
  188.7780  178.5790  141.1120 O   0  0  0  0  0  0  0  0  0  0  0  0
  184.3240  177.7960  139.5230 C   0  0  0  0  0  3  0  0  0  0  0  0
  187.0380  177.5400  142.4720 C   0  0  0  0  0  2  0  0  0  0  0  0
  186.4770  178.6570  143.3680 C   0  0  1  0  0  3  0  0  0  0  0  0
  188.6720  177.2920  140.5370 C   0  0  1  0  0  3  0  0  0  0  0  0
  187.4930  178.0120  141.0890 C   0  0  1  0  0  0  0  0  0  0  0  0
  182.4490  177.8500  141.0560 C   0  0  0  0  0  3  0  0  0  0  0  0
  185.1100  178.4740  140.4580 C   0  0  0  0  0  0  0  0  0  0  0  0
  182.9930  177.4870  139.8200 C   0  0  0  0  0  0  0  0  0  0  0  0
  184.5610  178.8410  141.7020 C   0  0  0  0  0  0  0  0  0  0  0  0
  183.2320  178.5240  141.9980 C   0  0  0  0  0  3  0  0  0  0  0  0
  185.4060  179.5490  142.7190 C   0  0  0  0  0  2  0  0  0  0  0  0
  182.0120  176.6380  138.6470 Cl  0  0  0  0  0  0  0  0  0  0  0  0
  185.9460  178.0750  144.5890 N   0  0  0  0  0  2  0  0  0  0  0  0
  186.8740  177.1210  145.0280 N   0  0  0  0  0  2  0  0  0  0  0  0
  187.7880  177.8650  148.6400 C   0  0  0  0  0  2  0  0  0  0  0  0
  191.3520  178.9440  143.3600 O   0  0  0  0  0  0  0  0  0  0  0  0
  191.3910  176.5810  146.0830 C   0  0  0  0  0  0  0  0  0  0  0  0
  191.8500  177.3350  144.9640 N   0  0  0  0  0  2  0  0  0  0  0  0
  192.1210  175.6820  146.5730 O   0  0  0  0  0  0  0  0  0  0  0  0
  187.3110  177.0730  147.4170 C   0  0  0  0  0  2  0  0  0  0  0  0
  189.1440  178.5560  148.4630 C   0  0  0  0  0  2  0  0  0  0  0  0
  189.5800  178.2780  144.7200 N   0  0  0  0  0  0  0  0  0  0  0  0
  187.6560  177.7420  146.0840 C   0  0  1  0  0  3  0  0  0  0  0  0
  189.1270  177.6400  145.7600 C   0  0  0  0  0  0  0  0  0  0  0  0
  190.2740  177.6080  148.0480 C   0  0  0  0  0  2  0  0  0  0  0  0
  190.0610  176.8900  146.7040 C   0  0  2  0  0  3  0  0  0  0  0  0
  190.9500  178.2280  144.3140 C   0  0  0  0  0  0  0  0  0  0  0  0
  188.7960  177.3850  139.0110 C   0  0  1  0  0  3  0  0  0  0  0  0
  187.6940  178.8080  136.6090 C   0  0  0  0  0  1  0  0  0  0  0  0
  189.0940  180.6040  137.2820 O   0  0  0  0  0  0  0  0  0  0  0  0
  188.7020  179.4320  137.5140 C   0  0  0  0  0  0  0  0  0  0  0  0
  189.2430  178.7160  138.6270 N   0  0  0  0  0  2  0  0  0  0  0  0
  190.5590  175.6730  139.3230 O   0  0  0  0  0  0  0  0  0  0  0  0
  189.7230  176.3240  138.3950 C   0  0  2  0  0  0  0  0  0  0  0  0
  191.1810  176.5760  138.4300 C   0  0  0  0  0  2  0  0  0  0  0  0
  189.1630  175.3970  137.3050 C   0  0  0  0  0  3  0  0  0  0  0  0
  187.6480  175.3440  137.3750 C   0  0  0  0  0  1  0  0  0  0  0  0
  189.5940  175.7640  135.8910 C   0  0  0  0  0  1  0  0  0  0  0  0
  1  9  1  0  0  0  0
  3 10  2  0  0  0  0
  3  9  1  0  0  0  0
  4  5  1  0  0  0  0
  5 15  1  1  0  0  0
  6 30  1  6  0  0  0
  6  7  1  0  0  0  0
  6  2  1  0  0  0  0
  7  1  1  6  0  0  0
  7  2  1  0  0  0  0
  7  4  1  0  0  0  0
  8 12  2  0  0  0  0
  9 11  2  0  0  0  0
 10  8  1  0  0  0  0
 11 12  1  0  0  0  0
 11 13  1  0  0  0  0
 13  5  1  0  0  0  0
 14 10  1  0  0  0  0
 15 16  1  0  0  0  0
 18 29  2  0  0  0  0
 19 21  2  0  0  0  0
 19 28  1  0  0  0  0
 20 19  1  0  0  0  0
 22 17  1  0  0  0  0
 23 17  1  0  0  0  0
 24 26  2  0  0  0  0
 25 16  1  6  0  0  0
 25 22  1  0  0  0  0
 26 25  1  0  0  0  0
 26 28  1  0  0  0  0
 27 23  1  0  0  0  0
 28 27  1  1  0  0  0
 29 24  1  0  0  0  0
 29 20  1  0  0  0  0
 30 34  1  1  0  0  0
 31 33  1  0  0  0  0
 32 33  2  0  0  0  0
 33 34  1  0  0  0  0
 36 38  1  6  0  0  0
 36 37  1  0  0  0  0
 36 30  1  0  0  0  0
 36 35  1  0  0  0  0
 37 35  1  0  0  0  0
 38 39  1  0  0  0  0
 40 38  1  0  0  0  0
M  END
>  <MODEL>
1

>  <REMARK>
 VINA RESULT:      -8.0      0.000      0.000
  Name = 
  7 active torsions:
  status: ('A' for Active; 'I' for Inactive)
    1  A    between atoms: N_1  and  C_13
    2  A    between atoms: N_1  and  N_34
    3  A    between atoms: C_6  and  C_12
    4  A    between atoms: C_6  and  C_17
    5  A    between atoms: C_6  and  N_38
    6  A    between atoms: C_7  and  C_12
    7  A    between atoms: C_30  and  N_34
                            x       y       z     vdW  Elec       q    Type
                         _______ _______ _______ _____ _____    ______ ____

>  <TORSDO>
F 7

$$$$
=
 OpenBabel11062413063D

 40 45  0  0  1  0  0  0  0  0999 V2000
  188.1230  176.8800  143.0480 C   0  0  0  0  0  2  0  0  0  0  0  0
  188.7840  177.3030  140.7360 O   0  0  0  0  0  0  0  0  0  0  0  0
  187.7550  177.6320  145.4070 C   0  0  0  0  0  3  0  0  0  0  0  0
  187.3330  179.0320  141.6670 C   0  0  0  0  0  2  0  0  0  0  0  0
  185.8920  178.5500  141.4260 C   0  0  1  0  0  3  0  0  0  0  0  0
  189.7040  178.1520  141.3920 C   0  0  1  0  0  3  0  0  0  0  0  0
  188.3370  177.9070  141.9240 C   0  0  1  0  0  0  0  0  0  0  0  0
  185.6160  178.5080  146.1320 C   0  0  0  0  0  3  0  0  0  0  0  0
  187.2370  177.4230  144.1260 C   0  0  0  0  0  0  0  0  0  0  0  0
  186.9440  178.1710  146.4110 C   0  0  0  0  0  0  0  0  0  0  0  0
  185.8990  177.7610  143.8460 C   0  0  0  0  0  0  0  0  0  0  0  0
  185.0930  178.3060  144.8510 C   0  0  0  0  0  3  0  0  0  0  0  0
  185.3440  177.5610  142.4680 C   0  0  0  0  0  2  0  0  0  0  0  0
  187.5960  178.4310  148.0130 Cl  0  0  0  0  0  0  0  0  0  0  0  0
  185.0070  179.6990  141.3390 N   0  0  0  0  0  2  0  0  0  0  0  0
  184.4780  179.7140  140.0410 N   0  0  0  0  0  2  0  0  0  0  0  0
  181.2590  177.7810  140.6200 C   0  0  0  0  0  2  0  0  0  0  0  0
  185.9660  176.4450  136.4010 O   0  0  0  0  0  0  0  0  0  0  0  0
  182.6180  177.7700  136.2240 C   0  0  0  0  0  0  0  0  0  0  0  0
  183.8440  177.1830  135.7980 N   0  0  0  0  0  2  0  0  0  0  0  0
  181.7380  178.0660  135.3760 O   0  0  0  0  0  0  0  0  0  0  0  0
  182.1860  178.9720  140.3520 C   0  0  0  0  0  2  0  0  0  0  0  0
  181.4550  176.5940  139.6710 C   0  0  0  0  0  2  0  0  0  0  0  0
  184.7500  177.5230  138.0720 N   0  0  0  0  0  0  0  0  0  0  0  0
  183.5980  178.5630  139.9270 C   0  0  1  0  0  3  0  0  0  0  0  0
  183.6350  178.0280  138.5150 C   0  0  0  0  0  0  0  0  0  0  0  0
  181.3320  176.9590  138.1880 C   0  0  0  0  0  2  0  0  0  0  0  0
  182.3570  177.9920  137.6850 C   0  0  2  0  0  3  0  0  0  0  0  0
  184.8960  177.0120  136.7440 C   0  0  0  0  0  0  0  0  0  0  0  0
  190.7940  177.3170  142.0760 C   0  0  1  0  0  3  0  0  0  0  0  0
  191.0490  176.3290  139.2540 C   0  0  0  0  0  1  0  0  0  0  0  0
  193.2660  177.1690  139.3730 O   0  0  0  0  0  0  0  0  0  0  0  0
  192.1740  176.9930  139.9720 C   0  0  0  0  0  0  0  0  0  0  0  0
  192.0410  177.4150  141.3310 N   0  0  0  0  0  2  0  0  0  0  0  0
  190.4200  178.8950  143.9500 O   0  0  0  0  0  0  0  0  0  0  0  0
  191.0340  177.6920  143.5480 C   0  0  2  0  0  0  0  0  0  0  0  0
  191.8290  178.9090  143.8300 C   0  0  0  0  0  2  0  0  0  0  0  0
  190.9850  176.5840  144.6110 C   0  0  0  0  0  3  0  0  0  0  0  0
  191.8070  175.3860  144.1730 C   0  0  0  0  0  1  0  0  0  0  0  0
  191.4330  177.0280  145.9980 C   0  0  0  0  0  1  0  0  0  0  0  0
  1  9  1  0  0  0  0
  2  6  1  0  0  0  0
  2  7  1  0  0  0  0
  3 10  1  0  0  0  0
  5 15  1  1  0  0  0
  5  4  1  0  0  0  0
  5 13  1  0  0  0  0
  6  7  1  0  0  0  0
  6 30  1  1  0  0  0
  7  4  1  6  0  0  0
  7  1  1  0  0  0  0
  8 10  2  0  0  0  0
  9  3  2  0  0  0  0
 10 14  1  0  0  0  0
 11  9  1  0  0  0  0
 11 12  2  0  0  0  0
 12  8  1  0  0  0  0
 13 11  1  0  0  0  0
 16 15  1  0  0  0  0
 18 29  2  0  0  0  0
 19 28  1  0  0  0  0
 20 19  1  0  0  0  0
 20 29  1  0  0  0  0
 21 19  2  0  0  0  0
 22 17  1  0  0  0  0
 23 17  1  0  0  0  0
 24 26  2  0  0  0  0
 25 16  1  6  0  0  0
 25 22  1  0  0  0  0
 26 25  1  0  0  0  0
 27 23  1  0  0  0  0
 28 27  1  1  0  0  0
 28 26  1  0  0  0  0
 29 24  1  0  0  0  0
 30 34  1  6  0  0  0
 30 36  1  0  0  0  0
 31 33  1  0  0  0  0
 32 33  2  0  0  0  0
 33 34  1  0  0  0  0
 36 37  1  0  0  0  0
 36 35  1  0  0  0  0
 36 38  1  1  0  0  0
 37 35  1  0  0  0  0
 38 40  1  0  0  0  0
 39 38  1  0  0  0  0
M  END
>  <MODEL>
2

>  <REMARK>
 VINA RESULT:      -7.8      3.277      7.774
  Name = 
  7 active torsions:
  status: ('A' for Active; 'I' for Inactive)
    1  A    between atoms: N_1  and  C_13
    2  A    between atoms: N_1  and  N_34
    3  A    between atoms: C_6  and  C_12
    4  A    between atoms: C_6  and  C_17
    5  A    between atoms: C_6  and  N_38
    6  A    between atoms: C_7  and  C_12
    7  A    between atoms: C_30  and  N_34
                            x       y       z     vdW  Elec       q    Type
                         _______ _______ _______ _____ _____    ______ ____

>  <TORSDO>
F 7

$$$$
=
 OpenBabel11062413063D

 40 45  0  0  1  0  0  0  0  0999 V2000
  183.7160  179.5610  141.0160 C   0  0  0  0  0  2  0  0  0  0  0  0
  186.0910  179.2670  140.5320 O   0  0  0  0  0  0  0  0  0  0  0  0
  181.4380  178.6470  141.5070 C   0  0  0  0  0  3  0  0  0  0  0  0
  185.2830  177.8450  142.3440 C   0  0  0  0  0  2  0  0  0  0  0  0
  185.3970  178.6890  143.6260 C   0  0  1  0  0  3  0  0  0  0  0  0
  185.5800  178.1490  139.8360 C   0  0  1  0  0  3  0  0  0  0  0  0
  184.9550  178.6540  141.0870 C   0  0  1  0  0  0  0  0  0  0  0  0
  180.7070  178.2380  143.7800 C   0  0  0  0  0  3  0  0  0  0  0  0
  182.6610  179.1260  141.9850 C   0  0  0  0  0  0  0  0  0  0  0  0
  180.4600  178.2060  142.4040 C   0  0  0  0  0  0  0  0  0  0  0  0
  182.9080  179.1590  143.3710 C   0  0  0  0  0  0  0  0  0  0  0  0
  181.9300  178.7110  144.2640 C   0  0  0  0  0  3  0  0  0  0  0  0
  184.2260  179.6500  143.8900 C   0  0  0  0  0  2  0  0  0  0  0  0
  178.9310  177.6070  141.8010 Cl  0  0  0  0  0  0  0  0  0  0  0  0
  185.5650  177.8070  144.7690 N   0  0  0  0  0  2  0  0  0  0  0  0
  186.8700  177.3010  144.7110 N   0  0  0  0  0  2  0  0  0  0  0  0
  187.5710  177.9170  148.3950 C   0  0  0  0  0  2  0  0  0  0  0  0
  191.4850  179.0590  143.3830 O   0  0  0  0  0  0  0  0  0  0  0  0
  191.2980  176.6170  146.0290 C   0  0  0  0  0  0  0  0  0  0  0  0
  191.8440  177.3920  144.9650 N   0  0  0  0  0  2  0  0  0  0  0  0
  191.9740  175.6860  146.5360 O   0  0  0  0  0  0  0  0  0  0  0  0
  187.1550  177.1730  147.1200 C   0  0  0  0  0  2  0  0  0  0  0  0
  188.9510  178.5780  148.3240 C   0  0  0  0  0  2  0  0  0  0  0  0
  189.6160  178.3990  144.6080 N   0  0  0  0  0  0  0  0  0  0  0  0
  187.5980  177.8710  145.8330 C   0  0  1  0  0  3  0  0  0  0  0  0
  189.0840  177.7420  145.5980 C   0  0  0  0  0  0  0  0  0  0  0  0
  190.0830  177.6140  147.9520 C   0  0  0  0  0  2  0  0  0  0  0  0
  189.9380  176.9410  146.5750 C   0  0  2  0  0  3  0  0  0  0  0  0
  191.0080  178.3260  144.2880 C   0  0  0  0  0  0  0  0  0  0  0  0
  184.8640  178.6060  138.5580 C   0  0  1  0  0  3  0  0  0  0  0  0
  187.2980  176.9380  138.0120 C   0  0  0  0  0  1  0  0  0  0  0  0
  187.7470  178.5160  136.2960 O   0  0  0  0  0  0  0  0  0  0  0  0
  186.9830  178.1690  137.2320 C   0  0  0  0  0  0  0  0  0  0  0  0
  185.8400  178.9700  137.5410 N   0  0  0  0  0  2  0  0  0  0  0  0
  183.7530  177.5960  136.5880 O   0  0  0  0  0  0  0  0  0  0  0  0
  183.8790  177.5710  137.9910 C   0  0  2  0  0  0  0  0  0  0  0  0
  182.6510  178.0730  137.3340 C   0  0  0  0  0  2  0  0  0  0  0  0
  183.8650  176.1570  138.5910 C   0  0  0  0  0  3  0  0  0  0  0  0
  182.6110  175.9390  139.4170 C   0  0  0  0  0  1  0  0  0  0  0  0
  183.9960  175.0410  137.5630 C   0  0  0  0  0  1  0  0  0  0  0  0
  1  9  1  0  0  0  0
  2  7  1  0  0  0  0
  3  9  2  0  0  0  0
  3 10  1  0  0  0  0
  4  5  1  0  0  0  0
  5 13  1  0  0  0  0
  5 15  1  1  0  0  0
  6 30  1  6  0  0  0
  6  2  1  0  0  0  0
  6  7  1  0  0  0  0
  7  1  1  6  0  0  0
  7  4  1  0  0  0  0
  8 12  1  0  0  0  0
  9 11  1  0  0  0  0
 10  8  2  0  0  0  0
 11 13  1  0  0  0  0
 11 12  2  0  0  0  0
 14 10  1  0  0  0  0
 16 15  1  0  0  0  0
 18 29  2  0  0  0  0
 19 21  2  0  0  0  0
 19 28  1  0  0  0  0
 20 19  1  0  0  0  0
 22 17  1  0  0  0  0
 23 17  1  0  0  0  0
 24 26  2  0  0  0  0
 25 16  1  6  0  0  0
 25 22  1  0  0  0  0
 26 25  1  0  0  0  0
 26 28  1  0  0  0  0
 27 23  1  0  0  0  0
 28 27  1  1  0  0  0
 29 24  1  0  0  0  0
 29 20  1  0  0  0  0
 30 34  1  6  0  0  0
 32 33  2  0  0  0  0
 33 34  1  0  0  0  0
 33 31  1  0  0  0  0
 35 37  1  0  0  0  0
 35 36  1  0  0  0  0
 36 30  1  0  0  0  0
 36 38  1  1  0  0  0
 37 36  1  0  0  0  0
 38 39  1  0  0  0  0
 40 38  1  0  0  0  0
M  END
>  <MODEL>
3

>  <REMARK>
 VINA RESULT:      -7.7      1.982      3.293
  Name = 
  7 active torsions:
  status: ('A' for Active; 'I' for Inactive)
    1  A    between atoms: N_1  and  C_13
    2  A    between atoms: N_1  and  N_34
    3  A    between atoms: C_6  and  C_12
    4  A    between atoms: C_6  and  C_17
    5  A    between atoms: C_6  and  N_38
    6  A    between atoms: C_7  and  C_12
    7  A    between atoms: C_30  and  N_34
                            x       y       z     vdW  Elec       q    Type
                         _______ _______ _______ _____ _____    ______ ____

>  <TORSDO>
F 7

$$$$
=
 OpenBabel11062413063D

 40 45  0  0  1  0  0  0  0  0999 V2000
  186.4670  178.6740  138.5190 C   0  0  0  0  0  2  0  0  0  0  0  0
  188.7540  178.6970  139.3720 O   0  0  0  0  0  0  0  0  0  0  0  0
  184.3160  177.5000  138.0140 C   0  0  0  0  0  3  0  0  0  0  0  0
  187.1850  177.5170  140.8230 C   0  0  0  0  0  2  0  0  0  0  0  0
  186.5710  178.5880  141.7410 C   0  0  1  0  0  3  0  0  0  0  0  0
  188.7370  177.4000  138.8100 C   0  0  1  0  0  3  0  0  0  0  0  0
  187.5260  178.0150  139.4170 C   0  0  1  0  0  0  0  0  0  0  0  0
  182.5220  177.3990  139.6390 C   0  0  0  0  0  3  0  0  0  0  0  0
  185.0820  178.2550  138.9050 C   0  0  0  0  0  0  0  0  0  0  0  0
  183.0350  177.0740  138.3790 C   0  0  0  0  0  0  0  0  0  0  0  0
  184.5650  178.5820  140.1730 C   0  0  0  0  0  0  0  0  0  0  0  0
  183.2870  178.1500  140.5370 C   0  0  0  0  0  3  0  0  0  0  0  0
  185.3920  179.3740  141.1420 C   0  0  0  0  0  2  0  0  0  0  0  0
  182.0780  176.1290  137.2610 Cl  0  0  0  0  0  0  0  0  0  0  0  0
  186.1560  177.9720  142.9900 N   0  0  0  0  0  2  0  0  0  0  0  0
  187.2860  177.3500  143.5370 N   0  0  0  0  0  2  0  0  0  0  0  0
  186.4640  178.1100  147.1690 C   0  0  0  0  0  2  0  0  0  0  0  0
  192.0970  178.9820  144.1250 O   0  0  0  0  0  0  0  0  0  0  0  0
  190.7870  176.6570  146.5500 C   0  0  0  0  0  0  0  0  0  0  0  0
  191.7380  177.3790  145.7720 N   0  0  0  0  0  2  0  0  0  0  0  0
  191.1730  175.7390  147.3170 O   0  0  0  0  0  0  0  0  0  0  0  0
  186.5730  177.3190  145.8590 C   0  0  0  0  0  2  0  0  0  0  0  0
  187.7760  178.7470  147.6380 C   0  0  0  0  0  2  0  0  0  0  0  0
  189.8730  178.4010  144.5140 N   0  0  0  0  0  0  0  0  0  0  0  0
  187.5180  177.9560  144.8380 C   0  0  1  0  0  3  0  0  0  0  0  0
  188.9680  177.7950  145.2270 C   0  0  0  0  0  0  0  0  0  0  0  0
  188.9320  177.7520  147.7860 C   0  0  0  0  0  2  0  0  0  0  0  0
  189.3330  177.0240  146.4910 C   0  0  2  0  0  3  0  0  0  0  0  0
  191.2730  178.2950  144.7850 C   0  0  0  0  0  0  0  0  0  0  0  0
  188.7760  177.4900  137.2790 C   0  0  1  0  0  3  0  0  0  0  0  0
  190.9180  175.9390  138.6970 C   0  0  0  0  0  1  0  0  0  0  0  0
  192.3360  176.6830  136.9440 O   0  0  0  0  0  0  0  0  0  0  0  0
  191.1820  176.7020  137.4440 C   0  0  0  0  0  0  0  0  0  0  0  0
  190.1540  177.4680  136.8120 N   0  0  0  0  0  2  0  0  0  0  0  0
  188.2580  176.2480  135.1990 O   0  0  0  0  0  0  0  0  0  0  0  0
  187.9660  176.3910  136.5700 C   0  0  2  0  0  0  0  0  0  0  0  0
  187.0020  176.8090  135.5270 C   0  0  0  0  0  2  0  0  0  0  0  0
  187.7290  175.0600  137.2980 C   0  0  0  0  0  3  0  0  0  0  0  0
  186.2660  174.6640  137.2260 C   0  0  0  0  0  1  0  0  0  0  0  0
  188.5920  173.9100  136.7940 C   0  0  0  0  0  1  0  0  0  0  0  0
  1  9  1  0  0  0  0
  2  7  1  0  0  0  0
  3 10  2  0  0  0  0
  3  9  1  0  0  0  0
  4  5  1  0  0  0  0
  5 15  1  1  0  0  0
  6 30  1  6  0  0  0
  6  2  1  0  0  0  0
  6  7  1  0  0  0  0
  7  1  1  6  0  0  0
  7  4  1  0  0  0  0
  8 12  2  0  0  0  0
  9 11  2  0  0  0  0
 10  8  1  0  0  0  0
 11 12  1  0  0  0  0
 11 13  1  0  0  0  0
 13  5  1  0  0  0  0
 14 10  1  0  0  0  0
 15 16  1  0  0  0  0
 17 23  1  0  0  0  0
 18 29  2  0  0  0  0
 19 21  2  0  0  0  0
 20 19  1  0  0  0  0
 22 17  1  0  0  0  0
 23 27  1  0  0  0  0
 24 29  1  0  0  0  0
 24 26  2  0  0  0  0
 25 16  1  6  0  0  0
 25 26  1  0  0  0  0
 25 22  1  0  0  0  0
 26 28  1  0  0  0  0
 28 19  1  0  0  0  0
 28 27  1  1  0  0  0
 29 20  1  0  0  0  0
 30 34  1  6  0  0  0
 32 33  2  0  0  0  0
 33 31  1  0  0  0  0
 34 33  1  0  0  0  0
 35 37  1  0  0  0  0
 35 36  1  0  0  0  0
 36 30  1  0  0  0  0
 36 38  1  1  0  0  0
 37 36  1  0  0  0  0
 39 38  1  0  0  0  0
 40 38  1  0  0  0  0
M  END
>  <MODEL>
4

>  <REMARK>
 VINA RESULT:      -7.5      1.536      2.209
  Name = 
  7 active torsions:
  status: ('A' for Active; 'I' for Inactive)
    1  A    between atoms: N_1  and  C_13
    2  A    between atoms: N_1  and  N_34
    3  A    between atoms: C_6  and  C_12
    4  A    between atoms: C_6  and  C_17
    5  A    between atoms: C_6  and  N_38
    6  A    between atoms: C_7  and  C_12
    7  A    between atoms: C_30  and  N_34
                            x       y       z     vdW  Elec       q    Type
                         _______ _______ _______ _____ _____    ______ ____

>  <TORSDO>
F 7

$$$$
=
 OpenBabel11062413063D

 40 45  0  0  1  0  0  0  0  0999 V2000
  188.3140  176.8910  143.3540 C   0  0  0  0  0  2  0  0  0  0  0  0
  188.9280  177.3990  141.0460 O   0  0  0  0  0  0  0  0  0  0  0  0
  187.9510  177.5660  145.7370 C   0  0  0  0  0  3  0  0  0  0  0  0
  187.4290  179.0490  142.0420 C   0  0  0  0  0  2  0  0  0  0  0  0
  186.0030  178.5220  141.8060 C   0  0  1  0  0  3  0  0  0  0  0  0
  189.8260  178.2620  141.7130 C   0  0  1  0  0  3  0  0  0  0  0  0
  188.4760  177.9540  142.2560 C   0  0  1  0  0  0  0  0  0  0  0  0
  185.7910  178.3440  146.5120 C   0  0  0  0  0  3  0  0  0  0  0  0
  187.4230  177.3720  144.4570 C   0  0  0  0  0  0  0  0  0  0  0  0
  187.1350  178.0480  146.7650 C   0  0  0  0  0  0  0  0  0  0  0  0
  186.0710  177.6700  144.2030 C   0  0  0  0  0  0  0  0  0  0  0  0
  185.2600  178.1580  145.2320 C   0  0  0  0  0  3  0  0  0  0  0  0
  185.5040  177.4860  142.8270 C   0  0  0  0  0  2  0  0  0  0  0  0
  187.7980  178.2880  148.3650 Cl  0  0  0  0  0  0  0  0  0  0  0  0
  185.0770  179.6410  141.7610 N   0  0  0  0  0  2  0  0  0  0  0  0
  183.8220  179.1530  142.1480 N   0  0  0  0  0  2  0  0  0  0  0  0
  182.8390  179.7580  138.5280 C   0  0  0  0  0  2  0  0  0  0  0  0
  178.9310  178.6330  143.5490 O   0  0  0  0  0  0  0  0  0  0  0  0
  180.0820  176.7710  140.6840 C   0  0  0  0  0  0  0  0  0  0  0  0
  179.2820  177.1320  141.8070 N   0  0  0  0  0  2  0  0  0  0  0  0
  179.8560  175.6930  140.0760 O   0  0  0  0  0  0  0  0  0  0  0  0
  183.5630  179.1460  139.7330 C   0  0  0  0  0  2  0  0  0  0  0  0
  181.3110  179.7550  138.6350 C   0  0  0  0  0  2  0  0  0  0  0  0
  180.8740  178.9550  142.3020 N   0  0  0  0  0  0  0  0  0  0  0  0
  182.8940  179.4610  141.0720 C   0  0  1  0  0  3  0  0  0  0  0  0
  181.6120  178.6870  141.2640 C   0  0  0  0  0  0  0  0  0  0  0  0
  180.7080  178.3690  138.8900 C   0  0  0  0  0  2  0  0  0  0  0  0
  181.1590  177.6950  140.1980 C   0  0  2  0  0  3  0  0  0  0  0  0
  179.6550  178.2640  142.5870 C   0  0  0  0  0  0  0  0  0  0  0  0
  190.9540  177.4490  142.3610 C   0  0  1  0  0  3  0  0  0  0  0  0
  190.9580  176.4390  139.5350 C   0  0  0  0  0  1  0  0  0  0  0  0
  193.2110  177.1860  139.4840 O   0  0  0  0  0  0  0  0  0  0  0  0
  192.1600  177.0580  140.1620 C   0  0  0  0  0  0  0  0  0  0  0  0
  192.1450  177.4920  141.5240 N   0  0  0  0  0  2  0  0  0  0  0  0
  190.4520  178.8890  144.3140 O   0  0  0  0  0  0  0  0  0  0  0  0
  191.3030  177.8960  143.7910 C   0  0  2  0  0  0  0  0  0  0  0  0
  191.7670  179.2880  143.9850 C   0  0  0  0  0  2  0  0  0  0  0  0
  191.7210  176.8320  144.8170 C   0  0  0  0  0  3  0  0  0  0  0  0
  190.8760  176.9390  146.0720 C   0  0  0  0  0  1  0  0  0  0  0  0
  191.6720  175.4030  144.2900 C   0  0  0  0  0  1  0  0  0  0  0  0
  1  9  1  0  0  0  0
  2  6  1  0  0  0  0
  2  7  1  0  0  0  0
  3 10  1  0  0  0  0
  5 15  1  1  0  0  0
  5  4  1  0  0  0  0
  5 13  1  0  0  0  0
  6  7  1  0  0  0  0
  6 30  1  1  0  0  0
  7  4  1  6  0  0  0
  7  1  1  0  0  0  0
  8 10  2  0  0  0  0
  9  3  2  0  0  0  0
 10 14  1  0  0  0  0
 11  9  1  0  0  0  0
 11 12  2  0  0  0  0
 12  8  1  0  0  0  0
 13 11  1  0  0  0  0
 15 16  1  0  0  0  0
 17 23  1  0  0  0  0
 17 22  1  0  0  0  0
 19 20  1  0  0  0  0
 20 29  1  0  0  0  0
 21 19  2  0  0  0  0
 22 25  1  0  0  0  0
 23 27  1  0  0  0  0
 24 29  1  0  0  0  0
 25 26  1  0  0  0  0
 25 16  1  1  0  0  0
 26 24  2  0  0  0  0
 28 27  1  6  0  0  0
 28 19  1  0  0  0  0
 28 26  1  0  0  0  0
 29 18  2  0  0  0  0
 30 34  1  6  0  0  0
 30 36  1  0  0  0  0
 31 33  1  0  0  0  0
 32 33  2  0  0  0  0
 33 34  1  0  0  0  0
 36 37  1  0  0  0  0
 36 35  1  0  0  0  0
 36 38  1  1  0  0  0
 37 35  1  0  0  0  0
 38 39  1  0  0  0  0
 40 38  1  0  0  0  0
M  END
>  <MODEL>
5

>  <REMARK>
 VINA RESULT:      -7.5      3.717      7.962
  Name = 
  7 active torsions:
  status: ('A' for Active; 'I' for Inactive)
    1  A    between atoms: N_1  and  C_13
    2  A    between atoms: N_1  and  N_34
    3  A    between atoms: C_6  and  C_12
    4  A    between atoms: C_6  and  C_17
    5  A    between atoms: C_6  and  N_38
    6  A    between atoms: C_7  and  C_12
    7  A    between atoms: C_30  and  N_34
                            x       y       z     vdW  Elec       q    Type
                         _______ _______ _______ _____ _____    ______ ____

>  <TORSDO>
F 7

$$$$
=
 OpenBabel11062413063D

 40 45  0  0  1  0  0  0  0  0999 V2000
  189.0900  178.2720  138.5560 C   0  0  0  0  0  2  0  0  0  0  0  0
  191.2420  177.1310  138.7250 O   0  0  0  0  0  0  0  0  0  0  0  0
  186.5870  178.2700  138.5900 C   0  0  0  0  0  3  0  0  0  0  0  0
  189.6560  176.4820  140.4630 C   0  0  0  0  0  2  0  0  0  0  0  0
  189.8310  177.5050  141.5990 C   0  0  1  0  0  3  0  0  0  0  0  0
  190.4960  176.1120  138.0900 C   0  0  1  0  0  3  0  0  0  0  0  0
  189.8800  177.0540  139.0620 C   0  0  1  0  0  0  0  0  0  0  0  0
  185.3540  178.6310  140.6440 C   0  0  0  0  0  3  0  0  0  0  0  0
  187.7900  178.4240  139.2840 C   0  0  0  0  0  0  0  0  0  0  0  0
  185.3690  178.3770  139.2690 C   0  0  0  0  0  0  0  0  0  0  0  0
  187.7740  178.6810  140.6680 C   0  0  0  0  0  0  0  0  0  0  0  0
  186.5550  178.7810  141.3440 C   0  0  0  0  0  3  0  0  0  0  0  0
  189.0630  178.8250  141.4230 C   0  0  0  0  0  2  0  0  0  0  0  0
  183.8650  178.1840  138.3980 Cl  0  0  0  0  0  0  0  0  0  0  0  0
  189.4560  176.8920  142.8620 N   0  0  0  0  0  2  0  0  0  0  0  0
  189.3110  177.9270  143.7950 N   0  0  0  0  0  2  0  0  0  0  0  0
  189.7700  176.6310  147.3380 C   0  0  0  0  0  2  0  0  0  0  0  0
  184.2200  177.9000  144.2830 O   0  0  0  0  0  0  0  0  0  0  0  0
  186.1650  179.4550  146.8900 C   0  0  0  0  0  0  0  0  0  0  0  0
  185.0470  179.1520  146.0600 N   0  0  0  0  0  2  0  0  0  0  0  0
  186.0820  180.3800  147.7380 O   0  0  0  0  0  0  0  0  0  0  0  0
  189.9500  177.5240  146.1040 C   0  0  0  0  0  2  0  0  0  0  0  0
  188.3140  176.4160  147.7620 C   0  0  0  0  0  2  0  0  0  0  0  0
  186.5040  177.6920  144.7000 N   0  0  0  0  0  0  0  0  0  0  0  0
  188.8700  177.3190  145.0400 C   0  0  1  0  0  3  0  0  0  0  0  0
  187.5420  177.9080  145.4550 C   0  0  0  0  0  0  0  0  0  0  0  0
  187.5400  177.7160  148.0080 C   0  0  0  0  0  2  0  0  0  0  0  0
  187.4230  178.6430  146.7850 C   0  0  2  0  0  3  0  0  0  0  0  0
  185.2090  178.2230  144.9920 C   0  0  0  0  0  0  0  0  0  0  0  0
  190.2420  176.4810  136.6230 C   0  0  1  0  0  3  0  0  0  0  0  0
  191.8750  174.0300  137.2020 C   0  0  0  0  0  1  0  0  0  0  0  0
  193.0870  174.6220  135.2480 O   0  0  0  0  0  0  0  0  0  0  0  0
  192.1520  174.9160  136.0360 C   0  0  0  0  0  0  0  0  0  0  0  0
  191.3870  176.1020  135.8070 N   0  0  0  0  0  2  0  0  0  0  0  0
  188.9390  175.7880  134.6340 O   0  0  0  0  0  0  0  0  0  0  0  0
  188.9580  175.8680  136.0400 C   0  0  2  0  0  0  0  0  0  0  0  0
  188.0820  176.7430  135.2280 C   0  0  0  0  0  2  0  0  0  0  0  0
  188.3350  174.6500  136.7400 C   0  0  0  0  0  3  0  0  0  0  0  0
  186.8650  174.8930  137.0260 C   0  0  0  0  0  1  0  0  0  0  0  0
  188.4950  173.3420  135.9770 C   0  0  0  0  0  1  0  0  0  0  0  0
  1  9  1  0  0  0  0
  2  7  1  0  0  0  0
  3 10  2  0  0  0  0
  3  9  1  0  0  0  0
  4  5  1  0  0  0  0
  5 15  1  1  0  0  0
  6 30  1  6  0  0  0
  6  2  1  0  0  0  0
  6  7  1  0  0  0  0
  7  1  1  6  0  0  0
  7  4  1  0  0  0  0
  8 12  2  0  0  0  0
  9 11  2  0  0  0  0
 10  8  1  0  0  0  0
 11 12  1  0  0  0  0
 11 13  1  0  0  0  0
 13  5  1  0  0  0  0
 14 10  1  0  0  0  0
 15 16  1  0  0  0  0
 17 23  1  0  0  0  0
 18 29  2  0  0  0  0
 19 21  2  0  0  0  0
 20 19  1  0  0  0  0
 22 17  1  0  0  0  0
 23 27  1  0  0  0  0
 24 29  1  0  0  0  0
 24 26  2  0  0  0  0
 25 16  1  6  0  0  0
 25 26  1  0  0  0  0
 25 22  1  0  0  0  0
 26 28  1  0  0  0  0
 28 19  1  0  0  0  0
 28 27  1  1  0  0  0
 29 20  1  0  0  0  0
 30 34  1  6  0  0  0
 32 33  2  0  0  0  0
 33 31  1  0  0  0  0
 34 33  1  0  0  0  0
 35 37  1  0  0  0  0
 35 36  1  0  0  0  0
 36 30  1  0  0  0  0
 36 38  1  1  0  0  0
 37 36  1  0  0  0  0
 38 39  1  0  0  0  0
 40 38  1  0  0  0  0
M  END
>  <MODEL>
6

>  <REMARK>
 VINA RESULT:      -7.5      2.415      4.121
  Name = 
  7 active torsions:
  status: ('A' for Active; 'I' for Inactive)
    1  A    between atoms: N_1  and  C_13
    2  A    between atoms: N_1  and  N_34
    3  A    between atoms: C_6  and  C_12
    4  A    between atoms: C_6  and  C_17
    5  A    between atoms: C_6  and  N_38
    6  A    between atoms: C_7  and  C_12
    7  A    between atoms: C_30  and  N_34
                            x       y       z     vdW  Elec       q    Type
                         _______ _______ _______ _____ _____    ______ ____

>  <TORSDO>
F 7

$$$$
=
 OpenBabel11062413063D

 40 45  0  0  1  0  0  0  0  0999 V2000
  188.4560  176.7960  143.5840 C   0  0  0  0  0  2  0  0  0  0  0  0
  188.8570  177.2930  141.2270 O   0  0  0  0  0  0  0  0  0  0  0  0
  188.2600  177.4930  145.9790 C   0  0  0  0  0  3  0  0  0  0  0  0
  187.3760  178.8950  142.3220 C   0  0  0  0  0  2  0  0  0  0  0  0
  185.9590  178.3060  142.2100 C   0  0  1  0  0  3  0  0  0  0  0  0
  189.7690  178.2030  141.8070 C   0  0  1  0  0  3  0  0  0  0  0  0
  188.4820  177.8480  142.4620 C   0  0  1  0  0  0  0  0  0  0  0  0
  186.1400  178.1940  146.9200 C   0  0  0  0  0  3  0  0  0  0  0  0
  187.6380  177.2580  144.7500 C   0  0  0  0  0  0  0  0  0  0  0  0
  187.5110  177.9580  147.0650 C   0  0  0  0  0  0  0  0  0  0  0  0
  186.2590  177.4960  144.6050 C   0  0  0  0  0  0  0  0  0  0  0  0
  185.5140  177.9660  145.6910 C   0  0  0  0  0  3  0  0  0  0  0  0
  185.5890  177.2670  143.2820 C   0  0  0  0  0  2  0  0  0  0  0  0
  188.2920  178.2500  148.6020 Cl  0  0  0  0  0  0  0  0  0  0  0  0
  184.9860  179.3850  142.2280 N   0  0  0  0  0  2  0  0  0  0  0  0
  184.0240  179.0890  141.2520 N   0  0  0  0  0  2  0  0  0  0  0  0
  181.7850  178.6900  144.2960 C   0  0  0  0  0  2  0  0  0  0  0  0
  180.1570  178.0270  138.0790 O   0  0  0  0  0  0  0  0  0  0  0  0
  179.6070  180.4820  140.6610 C   0  0  0  0  0  0  0  0  0  0  0  0
  179.4360  179.7720  139.4380 N   0  0  0  0  0  2  0  0  0  0  0  0
  178.9310  181.5200  140.8810 O   0  0  0  0  0  0  0  0  0  0  0  0
  182.7970  179.3260  143.3350 C   0  0  0  0  0  2  0  0  0  0  0  0
  180.4740  178.2480  143.6400 C   0  0  0  0  0  2  0  0  0  0  0  0
  181.4330  178.4250  139.9890 N   0  0  0  0  0  0  0  0  0  0  0  0
  182.8220  178.6690  141.9540 C   0  0  1  0  0  3  0  0  0  0  0  0
  181.6030  179.0190  141.1340 C   0  0  0  0  0  0  0  0  0  0  0  0
  179.7560  179.3640  142.8730 C   0  0  0  0  0  2  0  0  0  0  0  0
  180.5540  179.9680  141.7050 C   0  0  2  0  0  3  0  0  0  0  0  0
  180.3250  178.7020  139.1280 C   0  0  0  0  0  0  0  0  0  0  0  0
  190.9800  177.4470  142.3700 C   0  0  1  0  0  3  0  0  0  0  0  0
  190.8900  176.3470  139.5790 C   0  0  0  0  0  1  0  0  0  0  0  0
  193.0650  177.2730  139.3590 O   0  0  0  0  0  0  0  0  0  0  0  0
  192.0730  177.0830  140.1090 C   0  0  0  0  0  0  0  0  0  0  0  0
  192.1080  177.5590  141.4560 N   0  0  0  0  0  2  0  0  0  0  0  0
  190.5670  178.8880  144.3420 O   0  0  0  0  0  0  0  0  0  0  0  0
  191.4000  177.9020  143.7770 C   0  0  2  0  0  0  0  0  0  0  0  0
  191.8590  179.3000  143.9430 C   0  0  0  0  0  2  0  0  0  0  0  0
  191.8830  176.8460  144.7830 C   0  0  0  0  0  3  0  0  0  0  0  0
  191.2150  177.0460  146.1310 C   0  0  0  0  0  1  0  0  0  0  0  0
  191.6810  175.4080  144.3230 C   0  0  0  0  0  1  0  0  0  0  0  0
  1  9  1  0  0  0  0
  2  6  1  0  0  0  0
  2  7  1  0  0  0  0
  3 10  1  0  0  0  0
  5 15  1  1  0  0  0
  5  4  1  0  0  0  0
  5 13  1  0  0  0  0
  6 30  1  1  0  0  0
  6  7  1  0  0  0  0
  7  4  1  6  0  0  0
  7  1  1  0  0  0  0
  8 10  2  0  0  0  0
  9  3  2  0  0  0  0
 10 14  1  0  0  0  0
 11  9  1  0  0  0  0
 11 12  2  0  0  0  0
 12  8  1  0  0  0  0
 13 11  1  0  0  0  0
 16 15  1  0  0  0  0
 18 29  2  0  0  0  0
 19 21  2  0  0  0  0
 19 28  1  0  0  0  0
 20 19  1  0  0  0  0
 22 17  1  0  0  0  0
 23 17  1  0  0  0  0
 24 26  2  0  0  0  0
 25 16  1  6  0  0  0
 25 22  1  0  0  0  0
 26 28  1  0  0  0  0
 26 25  1  0  0  0  0
 27 23  1  0  0  0  0
 28 27  1  1  0  0  0
 29 20  1  0  0  0  0
 29 24  1  0  0  0  0
 30 34  1  6  0  0  0
 30 36  1  0  0  0  0
 31 33  1  0  0  0  0
 32 33  2  0  0  0  0
 33 34  1  0  0  0  0
 36 37  1  0  0  0  0
 36 35  1  0  0  0  0
 36 38  1  1  0  0  0
 37 35  1  0  0  0  0
 38 39  1  0  0  0  0
 40 38  1  0  0  0  0
M  END
>  <MODEL>
7

>  <REMARK>
 VINA RESULT:      -7.4      3.905      7.881
  Name = 
  7 active torsions:
  status: ('A' for Active; 'I' for Inactive)
    1  A    between atoms: N_1  and  C_13
    2  A    between atoms: N_1  and  N_34
    3  A    between atoms: C_6  and  C_12
    4  A    between atoms: C_6  and  C_17
    5  A    between atoms: C_6  and  N_38
    6  A    between atoms: C_7  and  C_12
    7  A    between atoms: C_30  and  N_34
                            x       y       z     vdW  Elec       q    Type
                         _______ _______ _______ _____ _____    ______ ____

>  <TORSDO>
F 7

$$$$
=
 OpenBabel11062413063D

 40 45  0  0  1  0  0  0  0  0999 V2000
  183.9250  179.3830  139.2120 C   0  0  0  0  0  2  0  0  0  0  0  0
  182.7390  178.6190  137.2190 O   0  0  0  0  0  0  0  0  0  0  0  0
  184.8830  178.9910  141.4910 C   0  0  0  0  0  3  0  0  0  0  0  0
  184.4360  177.0490  138.0050 C   0  0  0  0  0  2  0  0  0  0  0  0
  185.7560  177.4900  137.3500 C   0  0  1  0  0  3  0  0  0  0  0  0
  182.0380  177.8770  138.1960 C   0  0  1  0  0  3  0  0  0  0  0  0
  183.4830  178.2000  138.3350 C   0  0  1  0  0  0  0  0  0  0  0  0
  187.1650  178.2340  141.7870 C   0  0  0  0  0  3  0  0  0  0  0  0
  185.0660  179.0070  140.1060 C   0  0  0  0  0  0  0  0  0  0  0  0
  185.9320  178.6080  142.3320 C   0  0  0  0  0  0  0  0  0  0  0  0
  186.3070  178.6310  139.5580 C   0  0  0  0  0  0  0  0  0  0  0  0
  187.3530  178.2430  140.4020 C   0  0  0  0  0  3  0  0  0  0  0  0
  186.5040  178.6240  138.0710 C   0  0  0  0  0  2  0  0  0  0  0  0
  185.6990  178.5900  144.0650 Cl  0  0  0  0  0  0  0  0  0  0  0  0
  186.6350  176.3410  137.2160 N   0  0  0  0  0  2  0  0  0  0  0  0
  187.9350  176.8340  137.0390 N   0  0  0  0  0  2  0  0  0  0  0  0
  189.8650  173.8500  135.6960 C   0  0  0  0  0  2  0  0  0  0  0  0
  190.7480  176.9250  141.3090 O   0  0  0  0  0  0  0  0  0  0  0  0
  192.4700  176.7440  138.1470 C   0  0  0  0  0  0  0  0  0  0  0  0
  192.2450  177.0000  139.5310 N   0  0  0  0  0  2  0  0  0  0  0  0
  193.5550  177.0930  137.6150 O   0  0  0  0  0  0  0  0  0  0  0  0
  189.2190  175.2400  135.7320 C   0  0  0  0  0  2  0  0  0  0  0  0
  190.7990  173.5510  136.8730 C   0  0  0  0  0  2  0  0  0  0  0  0
  189.8770  176.3650  139.2210 N   0  0  0  0  0  0  0  0  0  0  0  0
  188.8380  175.7000  137.1400 C   0  0  1  0  0  3  0  0  0  0  0  0
  190.0470  176.0790  137.9620 C   0  0  0  0  0  0  0  0  0  0  0  0
  191.9160  174.5830  137.0570 C   0  0  0  0  0  2  0  0  0  0  0  0
  191.4360  176.0180  137.3380 C   0  0  2  0  0  3  0  0  0  0  0  0
  190.9520  176.7580  140.0780 C   0  0  0  0  0  0  0  0  0  0  0  0
  181.1160  178.8040  138.9990 C   0  0  1  0  0  3  0  0  0  0  0  0
  181.3180  181.7260  138.3420 C   0  0  0  0  0  1  0  0  0  0  0  0
  179.4590  181.3290  136.9200 O   0  0  0  0  0  0  0  0  0  0  0  0
  180.2750  180.8440  137.7450 C   0  0  0  0  0  0  0  0  0  0  0  0
  180.1730  179.4650  138.1080 N   0  0  0  0  0  2  0  0  0  0  0  0
  180.6310  176.7210  140.2480 O   0  0  0  0  0  0  0  0  0  0  0  0
  180.3570  178.0980  140.1340 C   0  0  2  0  0  0  0  0  0  0  0  0
  179.3520  177.0770  139.7620 C   0  0  0  0  0  2  0  0  0  0  0  0
  180.2090  178.8160  141.4840 C   0  0  0  0  0  3  0  0  0  0  0  0
  181.5380  178.8590  142.2150 C   0  0  0  0  0  1  0  0  0  0  0  0
  179.6390  180.2260  141.3820 C   0  0  0  0  0  1  0  0  0  0  0  0
  1  9  1  0  0  0  0
  2  6  1  0  0  0  0
  2  7  1  0  0  0  0
  3 10  1  0  0  0  0
  5 15  1  1  0  0  0
  5  4  1  0  0  0  0
  5 13  1  0  0  0  0
  6  7  1  0  0  0  0
  6 30  1  1  0  0  0
  7  4  1  6  0  0  0
  7  1  1  0  0  0  0
  8 10  2  0  0  0  0
  9  3  2  0  0  0  0
 10 14  1  0  0  0  0
 11  9  1  0  0  0  0
 11 12  2  0  0  0  0
 12  8  1  0  0  0  0
 13 11  1  0  0  0  0
 16 15  1  0  0  0  0
 17 22  1  0  0  0  0
 17 23  1  0  0  0  0
 19 20  1  0  0  0  0
 20 29  1  0  0  0  0
 21 19  2  0  0  0  0
 22 25  1  0  0  0  0
 23 27  1  0  0  0  0
 24 29  1  0  0  0  0
 25 16  1  6  0  0  0
 25 26  1  0  0  0  0
 26 24  2  0  0  0  0
 28 27  1  1  0  0  0
 28 26  1  0  0  0  0
 28 19  1  0  0  0  0
 29 18  2  0  0  0  0
 30 34  1  6  0  0  0
 30 36  1  0  0  0  0
 32 33  2  0  0  0  0
 33 34  1  0  0  0  0
 33 31  1  0  0  0  0
 36 35  1  0  0  0  0
 36 38  1  1  0  0  0
 37 36  1  0  0  0  0
 37 35  1  0  0  0  0
 38 39  1  0  0  0  0
 40 38  1  0  0  0  0
M  END
>  <MODEL>
8

>  <REMARK>
 VINA RESULT:      -7.2      3.964      8.066
  Name = 
  7 active torsions:
  status: ('A' for Active; 'I' for Inactive)
    1  A    between atoms: N_1  and  C_13
    2  A    between atoms: N_1  and  N_34
    3  A    between atoms: C_6  and  C_12
    4  A    between atoms: C_6  and  C_17
    5  A    between atoms: C_6  and  N_38
    6  A    between atoms: C_7  and  C_12
    7  A    between atoms: C_30  and  N_34
                            x       y       z     vdW  Elec       q    Type
                         _______ _______ _______ _____ _____    ______ ____

>  <TORSDO>
F 7

$$$$
=
 OpenBabel11062413063D

 40 45  0  0  1  0  0  0  0  0999 V2000
  183.7550  178.1750  137.6630 C   0  0  0  0  0  2  0  0  0  0  0  0
  186.0720  178.9350  137.7800 O   0  0  0  0  0  0  0  0  0  0  0  0
  181.9610  176.4950  138.1370 C   0  0  0  0  0  3  0  0  0  0  0  0
  185.2410  178.0170  139.8830 C   0  0  0  0  0  2  0  0  0  0  0  0
  184.5620  179.1870  140.6160 C   0  0  1  0  0  3  0  0  0  0  0  0
  186.2980  177.5500  137.6170 C   0  0  1  0  0  3  0  0  0  0  0  0
  185.1220  178.0770  138.3590 C   0  0  1  0  0  0  0  0  0  0  0  0
  180.6560  176.5850  140.1760 C   0  0  0  0  0  3  0  0  0  0  0  0
  182.6570  177.6410  138.5310 C   0  0  0  0  0  0  0  0  0  0  0  0
  180.9580  175.9690  138.9570 C   0  0  0  0  0  0  0  0  0  0  0  0
  182.3520  178.2610  139.7570 C   0  0  0  0  0  0  0  0  0  0  0  0
  181.3530  177.7280  140.5770 C   0  0  0  0  0  3  0  0  0  0  0  0
  183.1120  179.4770  140.1960 C   0  0  0  0  0  2  0  0  0  0  0  0
  180.0880  174.5360  138.4600 Cl  0  0  0  0  0  0  0  0  0  0  0  0
  184.6120  178.9520  142.0500 N   0  0  0  0  0  2  0  0  0  0  0  0
  185.3430  177.7730  142.2490 N   0  0  0  0  0  2  0  0  0  0  0  0
  186.9780  177.9930  145.6720 C   0  0  0  0  0  2  0  0  0  0  0  0
  189.8280  178.4770  139.8940 O   0  0  0  0  0  0  0  0  0  0  0  0
  189.6550  175.9970  142.5050 C   0  0  0  0  0  0  0  0  0  0  0  0
  190.1190  176.6840  141.3460 N   0  0  0  0  0  2  0  0  0  0  0  0
  190.1830  174.9060  142.8400 O   0  0  0  0  0  0  0  0  0  0  0  0
  186.1200  177.4420  144.5260 C   0  0  0  0  0  2  0  0  0  0  0  0
  188.4240  178.3160  145.2860 C   0  0  0  0  0  2  0  0  0  0  0  0
  188.1780  178.2020  141.5170 N   0  0  0  0  0  0  0  0  0  0  0  0
  186.4190  178.0910  143.1730 C   0  0  1  0  0  3  0  0  0  0  0  0
  187.7390  177.6320  142.6010 C   0  0  0  0  0  0  0  0  0  0  0  0
  189.1780  177.1370  144.6600 C   0  0  0  0  0  2  0  0  0  0  0  0
  188.5710  176.5980  143.3520 C   0  0  2  0  0  3  0  0  0  0  0  0
  189.4030  177.8250  140.8830 C   0  0  0  0  0  0  0  0  0  0  0  0
  185.9830  177.1310  136.1750 C   0  0  1  0  0  3  0  0  0  0  0  0
  188.8870  176.8280  136.8690 C   0  0  0  0  0  1  0  0  0  0  0  0
  189.2900  177.7550  134.7210 O   0  0  0  0  0  0  0  0  0  0  0  0
  188.4330  177.4030  135.5710 C   0  0  0  0  0  0  0  0  0  0  0  0
  187.0430  177.5760  135.2820 N   0  0  0  0  0  2  0  0  0  0  0  0
  186.2700  175.0880  134.8030 O   0  0  0  0  0  0  0  0  0  0  0  0
  185.7530  175.6200  136.0000 C   0  0  2  0  0  0  0  0  0  0  0  0
  184.8630  175.1800  134.9030 C   0  0  0  0  0  2  0  0  0  0  0  0
  185.9300  174.7000  137.2180 C   0  0  0  0  0  3  0  0  0  0  0  0
  184.6100  174.0520  137.5940 C   0  0  0  0  0  1  0  0  0  0  0  0
  186.9910  173.6230  137.0370 C   0  0  0  0  0  1  0  0  0  0  0  0
  1  9  1  0  0  0  0
  2  7  1  0  0  0  0
  3  9  2  0  0  0  0
  3 10  1  0  0  0  0
  4  5  1  0  0  0  0
  5 15  1  1  0  0  0
  6 30  1  6  0  0  0
  6  2  1  0  0  0  0
  6  7  1  0  0  0  0
  7  1  1  6  0  0  0
  7  4  1  0  0  0  0
  8 12  1  0  0  0  0
  9 11  1  0  0  0  0
 10  8  2  0  0  0  0
 11 13  1  0  0  0  0
 11 12  2  0  0  0  0
 13  5  1  0  0  0  0
 14 10  1  0  0  0  0
 15 16  1  0  0  0  0
 18 29  2  0  0  0  0
 19 21  2  0  0  0  0
 19 28  1  0  0  0  0
 20 19  1  0  0  0  0
 22 17  1  0  0  0  0
 23 17  1  0  0  0  0
 24 26  2  0  0  0  0
 25 16  1  6  0  0  0
 25 22  1  0  0  0  0
 26 25  1  0  0  0  0
 26 28  1  0  0  0  0
 27 23  1  0  0  0  0
 28 27  1  1  0  0  0
 29 20  1  0  0  0  0
 29 24  1  0  0  0  0
 30 34  1  6  0  0  0
 32 33  2  0  0  0  0
 33 31  1  0  0  0  0
 34 33  1  0  0  0  0
 35 37  1  0  0  0  0
 35 36  1  0  0  0  0
 36 30  1  0  0  0  0
 36 38  1  1  0  0  0
 37 36  1  0  0  0  0
 38 39  1  0  0  0  0
 40 38  1  0  0  0  0
M  END
>  <MODEL>
9

>  <REMARK>
 VINA RESULT:      -7.2      2.498      3.711
  Name = 
  7 active torsions:
  status: ('A' for Active; 'I' for Inactive)
    1  A    between atoms: N_1  and  C_13
    2  A    between atoms: N_1  and  N_34
    3  A    between atoms: C_6  and  C_12
    4  A    between atoms: C_6  and  C_17
    5  A    between atoms: C_6  and  N_38
    6  A    between atoms: C_7  and  C_12
    7  A    between atoms: C_30  and  N_34
                            x       y       z     vdW  Elec       q    Type
                         _______ _______ _______ _____ _____    ______ ____

>  <TORSDO>
F 7

$$$$
