=
 OpenBabel11062417003D

 26 27  0  0  0  0  0  0  0  0999 V2000
  190.9900  177.0460  144.1850 O   0  0  0  0  0  0  0  0  0  0  0  0
  187.8640  177.6550  145.9700 C   0  0  0  0  0  0  0  0  0  0  0  0
  190.6450  176.9610  146.5120 C   0  0  0  0  0  0  0  0  0  0  0  0
  186.8650  177.7250  143.3630 C   0  0  0  0  0  3  0  0  0  0  0  0
  186.1130  178.1570  144.4000 N   0  0  0  0  0  0  0  0  0  0  0  0
  187.5310  177.2780  148.3430 N   0  0  0  0  0  2  0  0  0  0  0  0
  189.7330  177.1100  147.5920 N   0  0  0  0  0  2  0  0  0  0  0  0
  191.8950  176.7530  146.7530 N   0  0  0  0  0  2  0  0  0  0  0  0
  190.1600  177.0760  145.1310 C   0  0  0  0  0  0  0  0  0  0  0  0
  188.3580  177.4220  147.3640 C   0  0  0  0  0  0  0  0  0  0  0  0
  188.1660  177.2820  143.5710 C   0  0  0  0  0  0  0  0  0  0  0  0
  186.5620  178.1510  145.6830 C   0  0  0  0  0  0  0  0  0  0  0  0
  188.7090  177.3130  144.8790 C   0  0  0  0  0  0  0  0  0  0  0  0
  186.0430  179.9480  147.3290 O   0  0  0  0  0  1  0  0  0  0  0  0
  184.5580  178.2520  146.9400 O   0  0  0  0  0  0  0  0  0  0  0  0
  185.6850  178.7610  146.7010 C   0  0  0  0  0  0  0  0  0  0  0  0
  188.8840  176.7820  142.4420 N   0  0  0  0  0  2  0  0  0  0  0  0
  189.3400  177.6610  141.3750 C   0  0  0  0  0  2  0  0  0  0  0  0
  188.8950  177.1220  140.0220 C   0  0  0  0  0  2  0  0  0  0  0  0
  189.2110  178.7910  138.2290 C   0  0  0  0  0  3  0  0  0  0  0  0
  188.3510  178.1930  139.1920 N   0  0  0  0  0  0  0  0  0  0  0  0
  188.7680  179.6260  137.3980 O   0  0  0  0  0  0  0  0  0  0  0  0
  186.2390  177.0380  137.2810 C   0  0  0  0  0  1  0  0  0  0  0  0
  185.9810  178.0910  138.2950 C   0  0  0  0  0  0  0  0  0  0  0  0
  184.8300  178.5860  138.3630 O   0  0  0  0  0  0  0  0  0  0  0  0
  186.9870  178.5480  139.2130 N   0  0  0  0  0  2  0  0  0  0  0  0
  1  9  2  0  0  0  0
  2 10  1  0  0  0  0
  3  8  2  0  0  0  0
  3  7  1  0  0  0  0
  4 11  2  0  0  0  0
  4  5  1  0  0  0  0
  5 12  2  0  0  0  0
  9  3  1  0  0  0  0
 10  7  1  0  0  0  0
 10  6  2  0  0  0  0
 11 13  1  0  0  0  0
 12  2  1  0  0  0  0
 12 16  1  0  0  0  0
 13  9  1  0  0  0  0
 13  2  2  0  0  0  0
 16 15  2  0  0  0  0
 16 14  1  0  0  0  0
 17 11  1  0  0  0  0
 18 17  1  0  0  0  0
 19 18  1  0  0  0  0
 20 21  1  0  0  0  0
 21 26  1  0  0  0  0
 21 19  1  0  0  0  0
 22 20  2  0  0  0  0
 23 24  1  0  0  0  0
 24 25  2  0  0  0  0
 24 26  1  0  0  0  0
M  END
>  <MODEL>
1

>  <REMARK>
 VINA RESULT:      -8.5      0.000      0.000
  Name = 
  6 active torsions:
  status: ('A' for Active; 'I' for Inactive)
    1  A    between atoms: N_13  and  N_22
    2  A    between atoms: C_18  and  N_22
    3  A    between atoms: C_18  and  C_24
    4  A    between atoms: C_19  and  N_26
    5  A    between atoms: CA_20  and  C_21
    6  A    between atoms: C_24  and  N_26
                            x       y       z     vdW  Elec       q    Type
                         _______ _______ _______ _____ _____    ______ ____

>  <TORSDO>
F 6

$$$$
=
 OpenBabel11062417003D

 26 27  0  0  0  0  0  0  0  0999 V2000
  190.9410  176.9820  144.1580 O   0  0  0  0  0  0  0  0  0  0  0  0
  187.8590  177.6410  146.0000 C   0  0  0  0  0  0  0  0  0  0  0  0
  190.6560  176.9790  146.4950 C   0  0  0  0  0  0  0  0  0  0  0  0
  186.7930  177.6150  143.4190 C   0  0  0  0  0  3  0  0  0  0  0  0
  186.0650  178.0810  144.4590 N   0  0  0  0  0  0  0  0  0  0  0  0
  187.5890  177.3490  148.3930 N   0  0  0  0  0  2  0  0  0  0  0  0
  189.7710  177.1630  147.5910 N   0  0  0  0  0  2  0  0  0  0  0  0
  191.9120  176.7840  146.7100 N   0  0  0  0  0  2  0  0  0  0  0  0
  190.1350  177.0420  145.1230 C   0  0  0  0  0  0  0  0  0  0  0  0
  188.3900  177.4610  147.3880 C   0  0  0  0  0  0  0  0  0  0  0  0
  188.1000  177.1850  143.6090 C   0  0  0  0  0  0  0  0  0  0  0  0
  186.5470  178.1220  145.7300 C   0  0  0  0  0  0  0  0  0  0  0  0
  188.6770  177.2640  144.9010 C   0  0  0  0  0  0  0  0  0  0  0  0
  186.0610  179.9750  147.3220 O   0  0  0  0  0  1  0  0  0  0  0  0
  184.5770  178.2590  147.0350 O   0  0  0  0  0  0  0  0  0  0  0  0
  185.6930  178.7640  146.7480 C   0  0  0  0  0  0  0  0  0  0  0  0
  188.7920  176.6480  142.4800 N   0  0  0  0  0  2  0  0  0  0  0  0
  189.0280  177.4380  141.2810 C   0  0  0  0  0  2  0  0  0  0  0  0
  190.3450  177.0330  140.6330 C   0  0  0  0  0  2  0  0  0  0  0  0
  189.5970  177.7910  138.4040 C   0  0  0  0  0  3  0  0  0  0  0  0
  190.1600  176.7620  139.2100 N   0  0  0  0  0  0  0  0  0  0  0  0
  189.5330  177.6680  137.1530 O   0  0  0  0  0  0  0  0  0  0  0  0
  193.0050  176.4550  138.0900 C   0  0  0  0  0  1  0  0  0  0  0  0
  191.9390  175.4260  137.9920 C   0  0  0  0  0  0  0  0  0  0  0  0
  192.1890  174.3640  137.3740 O   0  0  0  0  0  0  0  0  0  0  0  0
  190.6450  175.5910  138.5940 N   0  0  0  0  0  2  0  0  0  0  0  0
  1  9  2  0  0  0  0
  2 10  1  0  0  0  0
  3  8  2  0  0  0  0
  3  7  1  0  0  0  0
  4 11  2  0  0  0  0
  4  5  1  0  0  0  0
  5 12  2  0  0  0  0
  9  3  1  0  0  0  0
 10  7  1  0  0  0  0
 10  6  2  0  0  0  0
 11 13  1  0  0  0  0
 12  2  1  0  0  0  0
 12 16  1  0  0  0  0
 13  9  1  0  0  0  0
 13  2  2  0  0  0  0
 16 15  2  0  0  0  0
 16 14  1  0  0  0  0
 17 11  1  0  0  0  0
 18 17  1  0  0  0  0
 19 18  1  0  0  0  0
 20 21  1  0  0  0  0
 21 19  1  0  0  0  0
 22 20  2  0  0  0  0
 24 23  1  0  0  0  0
 24 26  1  0  0  0  0
 25 24  2  0  0  0  0
 26 21  1  0  0  0  0
M  END
>  <MODEL>
2

>  <REMARK>
 VINA RESULT:      -8.4      1.972      2.764
  Name = 
  6 active torsions:
  status: ('A' for Active; 'I' for Inactive)
    1  A    between atoms: N_13  and  N_22
    2  A    between atoms: C_18  and  N_22
    3  A    between atoms: C_18  and  C_24
    4  A    between atoms: C_19  and  N_26
    5  A    between atoms: CA_20  and  C_21
    6  A    between atoms: C_24  and  N_26
                            x       y       z     vdW  Elec       q    Type
                         _______ _______ _______ _____ _____    ______ ____

>  <TORSDO>
F 6

$$$$
=
 OpenBabel11062417003D

 26 27  0  0  0  0  0  0  0  0999 V2000
  186.4000  178.7260  144.9750 O   0  0  0  0  0  0  0  0  0  0  0  0
  184.8790  178.6880  141.6570 C   0  0  0  0  0  0  0  0  0  0  0  0
  184.1010  178.7490  144.4670 C   0  0  0  0  0  0  0  0  0  0  0  0
  187.5350  178.2970  140.8910 C   0  0  0  0  0  3  0  0  0  0  0  0
  186.5940  178.6130  139.9730 N   0  0  0  0  0  0  0  0  0  0  0  0
  182.5040  178.4350  141.2270 N   0  0  0  0  0  2  0  0  0  0  0  0
  183.0990  178.7550  143.4600 N   0  0  0  0  0  2  0  0  0  0  0  0
  183.7640  178.8760  145.7060 N   0  0  0  0  0  2  0  0  0  0  0  0
  185.5140  178.6270  144.0860 C   0  0  0  0  0  0  0  0  0  0  0  0
  183.4410  178.6990  142.0740 C   0  0  0  0  0  0  0  0  0  0  0  0
  187.2060  178.2070  142.2380 C   0  0  0  0  0  0  0  0  0  0  0  0
  185.2920  178.8220  140.3020 C   0  0  0  0  0  0  0  0  0  0  0  0
  185.8760  178.4780  142.6470 C   0  0  0  0  0  0  0  0  0  0  0  0
  183.7440  178.3590  138.4060 O   0  0  0  0  0  0  0  0  0  0  0  0
  184.1440  180.5030  139.0930 O   0  0  0  0  0  1  0  0  0  0  0  0
  184.3950  179.2770  139.2220 C   0  0  0  0  0  0  0  0  0  0  0  0
  188.2330  177.8100  143.1470 N   0  0  0  0  0  2  0  0  0  0  0  0
  189.6380  178.0790  142.8790 C   0  0  0  0  0  2  0  0  0  0  0  0
  190.3780  178.3670  144.1780 C   0  0  0  0  0  2  0  0  0  0  0  0
  191.3190  176.1370  143.6890 C   0  0  0  0  0  3  0  0  0  0  0  0
  191.1180  177.1900  144.6240 N   0  0  0  0  0  0  0  0  0  0  0  0
  192.0570  175.1560  143.9700 O   0  0  0  0  0  0  0  0  0  0  0  0
  189.6410  176.7530  147.2840 C   0  0  0  0  0  1  0  0  0  0  0  0
  191.1000  176.9990  147.1530 C   0  0  0  0  0  0  0  0  0  0  0  0
  191.7880  177.0780  148.1990 O   0  0  0  0  0  0  0  0  0  0  0  0
  191.7530  177.1280  145.8810 N   0  0  0  0  0  2  0  0  0  0  0  0
  2 10  1  0  0  0  0
  2 13  1  0  0  0  0
  3  8  2  0  0  0  0
  4 11  1  0  0  0  0
  5 12  1  0  0  0  0
  5  4  2  0  0  0  0
  6 10  2  0  0  0  0
  7  3  1  0  0  0  0
  9  3  1  0  0  0  0
  9  1  2  0  0  0  0
 10  7  1  0  0  0  0
 11 13  2  0  0  0  0
 11 17  1  0  0  0  0
 12  2  2  0  0  0  0
 13  9  1  0  0  0  0
 14 16  2  0  0  0  0
 15 16  1  0  0  0  0
 16 12  1  0  0  0  0
 18 17  1  0  0  0  0
 18 19  1  0  0  0  0
 19 21  1  0  0  0  0
 20 22  2  0  0  0  0
 20 21  1  0  0  0  0
 21 26  1  0  0  0  0
 24 23  1  0  0  0  0
 24 25  2  0  0  0  0
 26 24  1  0  0  0  0
M  END
>  <MODEL>
3

>  <REMARK>
 VINA RESULT:      -8.2      2.439      7.060
  Name = 
  6 active torsions:
  status: ('A' for Active; 'I' for Inactive)
    1  A    between atoms: N_13  and  N_22
    2  A    between atoms: C_18  and  N_22
    3  A    between atoms: C_18  and  C_24
    4  A    between atoms: C_19  and  N_26
    5  A    between atoms: CA_20  and  C_21
    6  A    between atoms: C_24  and  N_26
                            x       y       z     vdW  Elec       q    Type
                         _______ _______ _______ _____ _____    ______ ____

>  <TORSDO>
F 6

$$$$
=
 OpenBabel11062417003D

 26 27  0  0  0  0  0  0  0  0999 V2000
  186.9520  177.7060  143.4700 O   0  0  0  0  0  0  0  0  0  0  0  0
  189.5460  177.3680  146.0180 C   0  0  0  0  0  0  0  0  0  0  0  0
  186.7060  177.9950  145.7940 C   0  0  0  0  0  0  0  0  0  0  0  0
  191.1630  177.1230  143.7550 C   0  0  0  0  0  3  0  0  0  0  0  0
  191.6410  176.8070  144.9800 N   0  0  0  0  0  0  0  0  0  0  0  0
  189.2700  177.9510  148.3570 N   0  0  0  0  0  2  0  0  0  0  0  0
  187.3230  177.9710  147.0730 N   0  0  0  0  0  2  0  0  0  0  0  0
  185.4320  178.1740  145.7000 N   0  0  0  0  0  2  0  0  0  0  0  0
  187.5210  177.7860  144.5910 C   0  0  0  0  0  0  0  0  0  0  0  0
  188.7160  177.6950  147.2200 C   0  0  0  0  0  0  0  0  0  0  0  0
  189.8440  177.5300  143.5950 C   0  0  0  0  0  0  0  0  0  0  0  0
  190.8860  176.9010  146.1070 C   0  0  0  0  0  0  0  0  0  0  0  0
  188.9930  177.5860  144.7260 C   0  0  0  0  0  0  0  0  0  0  0  0
  191.4270  175.0660  147.7030 O   0  0  0  0  0  0  0  0  0  0  0  0
  192.1560  177.2000  148.0820 O   0  0  0  0  0  1  0  0  0  0  0  0
  191.4930  176.4120  147.3600 C   0  0  0  0  0  0  0  0  0  0  0  0
  189.4210  177.9070  142.2840 N   0  0  0  0  0  2  0  0  0  0  0  0
  190.1030  177.4260  141.0920 C   0  0  0  0  0  2  0  0  0  0  0  0
  189.0890  176.9960  140.0410 C   0  0  0  0  0  2  0  0  0  0  0  0
  189.3850  178.7250  138.3020 C   0  0  0  0  0  3  0  0  0  0  0  0
  188.5700  178.1540  139.3190 N   0  0  0  0  0  0  0  0  0  0  0  0
  188.9440  179.6390  137.5580 O   0  0  0  0  0  0  0  0  0  0  0  0
  186.1990  177.3510  137.5350 C   0  0  0  0  0  1  0  0  0  0  0  0
  186.1320  178.3370  138.6430 C   0  0  0  0  0  0  0  0  0  0  0  0
  185.0440  178.9260  138.8540 O   0  0  0  0  0  0  0  0  0  0  0  0
  187.2530  178.6260  139.4930 N   0  0  0  0  0  2  0  0  0  0  0  0
  1  9  2  0  0  0  0
  2 12  1  0  0  0  0
  2 10  1  0  0  0  0
  3  7  1  0  0  0  0
  4  5  1  0  0  0  0
  5 12  2  0  0  0  0
  7 10  1  0  0  0  0
  8  3  2  0  0  0  0
  9 13  1  0  0  0  0
  9  3  1  0  0  0  0
 10  6  2  0  0  0  0
 11  4  2  0  0  0  0
 11 13  1  0  0  0  0
 12 16  1  0  0  0  0
 13  2  2  0  0  0  0
 16 14  2  0  0  0  0
 16 15  1  0  0  0  0
 17 11  1  0  0  0  0
 18 17  1  0  0  0  0
 19 18  1  0  0  0  0
 20 21  1  0  0  0  0
 21 26  1  0  0  0  0
 21 19  1  0  0  0  0
 22 20  2  0  0  0  0
 23 24  1  0  0  0  0
 24 25  2  0  0  0  0
 24 26  1  0  0  0  0
M  END
>  <MODEL>
4

>  <REMARK>
 VINA RESULT:      -8.0      1.724      3.573
  Name = 
  6 active torsions:
  status: ('A' for Active; 'I' for Inactive)
    1  A    between atoms: N_13  and  N_22
    2  A    between atoms: C_18  and  N_22
    3  A    between atoms: C_18  and  C_24
    4  A    between atoms: C_19  and  N_26
    5  A    between atoms: CA_20  and  C_21
    6  A    between atoms: C_24  and  N_26
                            x       y       z     vdW  Elec       q    Type
                         _______ _______ _______ _____ _____    ______ ____

>  <TORSDO>
F 6

$$$$
=
 OpenBabel11062417003D

 26 27  0  0  0  0  0  0  0  0999 V2000
  184.7860  177.8880  142.5070 O   0  0  0  0  0  0  0  0  0  0  0  0
  186.7030  178.2190  145.5960 C   0  0  0  0  0  0  0  0  0  0  0  0
  184.0210  178.7290  144.5690 C   0  0  0  0  0  0  0  0  0  0  0  0
  188.7880  177.4560  143.9030 C   0  0  0  0  0  3  0  0  0  0  0  0
  188.9560  177.4550  145.2450 N   0  0  0  0  0  0  0  0  0  0  0  0
  185.9190  179.3480  147.5950 N   0  0  0  0  0  2  0  0  0  0  0  0
  184.3240  179.0260  145.9250 N   0  0  0  0  0  2  0  0  0  0  0  0
  182.8120  178.8590  144.1380 N   0  0  0  0  0  2  0  0  0  0  0  0
  185.0830  178.2470  143.6770 C   0  0  0  0  0  0  0  0  0  0  0  0
  185.6320  178.8150  146.4560 C   0  0  0  0  0  0  0  0  0  0  0  0
  187.5610  177.7920  143.3450 C   0  0  0  0  0  0  0  0  0  0  0  0
  187.9650  177.8080  146.1070 C   0  0  0  0  0  0  0  0  0  0  0  0
  186.4730  178.1080  144.1980 C   0  0  0  0  0  0  0  0  0  0  0  0
  187.7780  176.5380  148.2410 O   0  0  0  0  0  1  0  0  0  0  0  0
  188.9890  178.4750  148.1350 O   0  0  0  0  0  0  0  0  0  0  0  0
  188.2450  177.6480  147.5470 C   0  0  0  0  0  0  0  0  0  0  0  0
  187.4680  177.8330  141.9210 N   0  0  0  0  0  2  0  0  0  0  0  0
  188.5980  178.2280  141.0920 C   0  0  0  0  0  2  0  0  0  0  0  0
  188.8000  177.2270  139.9630 C   0  0  0  0  0  2  0  0  0  0  0  0
  189.0840  179.0390  138.3100 C   0  0  0  0  0  3  0  0  0  0  0  0
  188.4490  177.8200  138.6760 N   0  0  0  0  0  0  0  0  0  0  0  0
  188.9240  179.5320  137.1630 O   0  0  0  0  0  0  0  0  0  0  0  0
  185.4320  178.3240  138.3750 C   0  0  0  0  0  1  0  0  0  0  0  0
  186.2040  177.3110  137.6120 C   0  0  0  0  0  0  0  0  0  0  0  0
  185.5870  176.5700  136.8090 O   0  0  0  0  0  0  0  0  0  0  0  0
  187.6260  177.1630  137.7390 N   0  0  0  0  0  2  0  0  0  0  0  0
  1  9  2  0  0  0  0
  2 12  1  0  0  0  0
  2 10  1  0  0  0  0
  3  7  1  0  0  0  0
  4  5  1  0  0  0  0
  5 12  2  0  0  0  0
  7 10  1  0  0  0  0
  8  3  2  0  0  0  0
  9 13  1  0  0  0  0
  9  3  1  0  0  0  0
 10  6  2  0  0  0  0
 11  4  2  0  0  0  0
 11 13  1  0  0  0  0
 12 16  1  0  0  0  0
 13  2  2  0  0  0  0
 16 15  2  0  0  0  0
 16 14  1  0  0  0  0
 17 11  1  0  0  0  0
 18 17  1  0  0  0  0
 19 18  1  0  0  0  0
 20 21  1  0  0  0  0
 21 19  1  0  0  0  0
 22 20  2  0  0  0  0
 24 26  1  0  0  0  0
 24 23  1  0  0  0  0
 25 24  2  0  0  0  0
 26 21  1  0  0  0  0
M  END
>  <MODEL>
5

>  <REMARK>
 VINA RESULT:      -7.8      2.039      3.719
  Name = 
  6 active torsions:
  status: ('A' for Active; 'I' for Inactive)
    1  A    between atoms: N_13  and  N_22
    2  A    between atoms: C_18  and  N_22
    3  A    between atoms: C_18  and  C_24
    4  A    between atoms: C_19  and  N_26
    5  A    between atoms: CA_20  and  C_21
    6  A    between atoms: C_24  and  N_26
                            x       y       z     vdW  Elec       q    Type
                         _______ _______ _______ _____ _____    ______ ____

>  <TORSDO>
F 6

$$$$
=
 OpenBabel11062417003D

 26 27  0  0  0  0  0  0  0  0999 V2000
  184.8720  177.9040  142.6010 O   0  0  0  0  0  0  0  0  0  0  0  0
  186.8130  178.2210  145.6760 C   0  0  0  0  0  0  0  0  0  0  0  0
  184.1180  178.7170  144.6770 C   0  0  0  0  0  0  0  0  0  0  0  0
  188.8900  177.4940  143.9570 C   0  0  0  0  0  3  0  0  0  0  0  0
  189.0700  177.4800  145.2970 N   0  0  0  0  0  0  0  0  0  0  0  0
  186.0370  179.3230  147.6940 N   0  0  0  0  0  2  0  0  0  0  0  0
  184.4290  179.0030  146.0340 N   0  0  0  0  0  2  0  0  0  0  0  0
  182.9040  178.8410  144.2590 N   0  0  0  0  0  2  0  0  0  0  0  0
  185.1760  178.2530  143.7710 C   0  0  0  0  0  0  0  0  0  0  0  0
  185.7450  178.7990  146.5510 C   0  0  0  0  0  0  0  0  0  0  0  0
  187.6540  177.8250  143.4140 C   0  0  0  0  0  0  0  0  0  0  0  0
  188.0830  177.8170  146.1720 C   0  0  0  0  0  0  0  0  0  0  0  0
  186.5720  178.1220  144.2790 C   0  0  0  0  0  0  0  0  0  0  0  0
  189.0560  178.6270  148.3160 O   0  0  0  0  0  1  0  0  0  0  0  0
  187.9310  176.6390  148.2200 O   0  0  0  0  0  0  0  0  0  0  0  0
  188.3770  177.6440  147.6070 C   0  0  0  0  0  0  0  0  0  0  0  0
  187.5490  177.8790  141.9900 N   0  0  0  0  0  2  0  0  0  0  0  0
  188.6370  177.4440  141.1260 C   0  0  0  0  0  2  0  0  0  0  0  0
  189.0060  178.5490  140.1460 C   0  0  0  0  0  2  0  0  0  0  0  0
  189.0180  178.9760  137.7140 C   0  0  0  0  0  3  0  0  0  0  0  0
  189.0520  178.0350  138.7800 N   0  0  0  0  0  0  0  0  0  0  0  0
  189.1860  178.6080  136.5220 O   0  0  0  0  0  0  0  0  0  0  0  0
  191.8290  176.7220  138.6750 C   0  0  0  0  0  1  0  0  0  0  0  0
  190.5510  176.0340  138.3590 C   0  0  0  0  0  0  0  0  0  0  0  0
  190.5950  174.8380  137.9800 O   0  0  0  0  0  0  0  0  0  0  0  0
  189.2730  176.6730  138.4910 N   0  0  0  0  0  2  0  0  0  0  0  0
  1  9  2  0  0  0  0
  2 12  1  0  0  0  0
  2 10  1  0  0  0  0
  3  7  1  0  0  0  0
  4  5  1  0  0  0  0
  5 12  2  0  0  0  0
  7 10  1  0  0  0  0
  8  3  2  0  0  0  0
  9 13  1  0  0  0  0
  9  3  1  0  0  0  0
 10  6  2  0  0  0  0
 11  4  2  0  0  0  0
 11 13  1  0  0  0  0
 12 16  1  0  0  0  0
 13  2  2  0  0  0  0
 16 15  2  0  0  0  0
 16 14  1  0  0  0  0
 17 11  1  0  0  0  0
 18 17  1  0  0  0  0
 19 18  1  0  0  0  0
 20 21  1  0  0  0  0
 21 19  1  0  0  0  0
 22 20  2  0  0  0  0
 24 26  1  0  0  0  0
 24 23  1  0  0  0  0
 25 24  2  0  0  0  0
 26 21  1  0  0  0  0
M  END
>  <MODEL>
6

>  <REMARK>
 VINA RESULT:      -7.8      2.370      4.138
  Name = 
  6 active torsions:
  status: ('A' for Active; 'I' for Inactive)
    1  A    between atoms: N_13  and  N_22
    2  A    between atoms: C_18  and  N_22
    3  A    between atoms: C_18  and  C_24
    4  A    between atoms: C_19  and  N_26
    5  A    between atoms: CA_20  and  C_21
    6  A    between atoms: C_24  and  N_26
                            x       y       z     vdW  Elec       q    Type
                         _______ _______ _______ _____ _____    ______ ____

>  <TORSDO>
F 6

$$$$
=
 OpenBabel11062417003D

 26 27  0  0  0  0  0  0  0  0999 V2000
  186.4790  177.8380  143.9580 O   0  0  0  0  0  0  0  0  0  0  0  0
  189.3080  177.4500  146.2330 C   0  0  0  0  0  0  0  0  0  0  0  0
  186.4660  178.1030  146.2970 C   0  0  0  0  0  0  0  0  0  0  0  0
  190.6920  177.2150  143.8190 C   0  0  0  0  0  3  0  0  0  0  0  0
  191.2850  176.8820  144.9880 N   0  0  0  0  0  0  0  0  0  0  0  0
  189.2710  178.0100  148.5940 N   0  0  0  0  0  2  0  0  0  0  0  0
  187.2060  178.0600  147.5100 N   0  0  0  0  0  2  0  0  0  0  0  0
  185.1910  178.2940  146.3310 N   0  0  0  0  0  2  0  0  0  0  0  0
  187.1570  177.9010  145.0170 C   0  0  0  0  0  0  0  0  0  0  0  0
  188.6040  177.7710  147.5150 C   0  0  0  0  0  0  0  0  0  0  0  0
  189.3680  177.6360  143.7950 C   0  0  0  0  0  0  0  0  0  0  0  0
  190.6460  176.9700  146.1850 C   0  0  0  0  0  0  0  0  0  0  0  0
  188.6320  177.6860  145.0050 C   0  0  0  0  0  0  0  0  0  0  0  0
  191.3220  175.1150  147.7030 O   0  0  0  0  0  0  0  0  0  0  0  0
  192.1100  177.2370  148.0260 O   0  0  0  0  0  1  0  0  0  0  0  0
  191.3690  176.4620  147.3670 C   0  0  0  0  0  0  0  0  0  0  0  0
  188.8210  178.0300  142.5360 N   0  0  0  0  0  2  0  0  0  0  0  0
  189.3510  177.5230  141.2790 C   0  0  0  0  0  2  0  0  0  0  0  0
  188.4810  177.9820  140.1160 C   0  0  0  0  0  2  0  0  0  0  0  0
  188.8300  178.7010  137.7800 C   0  0  0  0  0  3  0  0  0  0  0  0
  189.1920  177.8360  138.8490 N   0  0  0  0  0  0  0  0  0  0  0  0
  189.4900  178.7150  136.7080 O   0  0  0  0  0  0  0  0  0  0  0  0
  189.1190  175.1540  137.3500 C   0  0  0  0  0  1  0  0  0  0  0  0
  190.2990  175.6910  138.0730 C   0  0  0  0  0  0  0  0  0  0  0  0
  191.3400  174.9910  138.1200 O   0  0  0  0  0  0  0  0  0  0  0  0
  190.3040  176.9830  138.6990 N   0  0  0  0  0  2  0  0  0  0  0  0
  1  9  2  0  0  0  0
  2 10  1  0  0  0  0
  3  8  2  0  0  0  0
  3  7  1  0  0  0  0
  4  5  1  0  0  0  0
  5 12  2  0  0  0  0
  7 10  1  0  0  0  0
  9  3  1  0  0  0  0
 10  6  2  0  0  0  0
 11  4  2  0  0  0  0
 11 13  1  0  0  0  0
 12  2  1  0  0  0  0
 12 16  1  0  0  0  0
 13  9  1  0  0  0  0
 13  2  2  0  0  0  0
 16 14  2  0  0  0  0
 16 15  1  0  0  0  0
 17 11  1  0  0  0  0
 18 17  1  0  0  0  0
 19 18  1  0  0  0  0
 20 21  1  0  0  0  0
 21 19  1  0  0  0  0
 22 20  2  0  0  0  0
 23 24  1  0  0  0  0
 24 25  2  0  0  0  0
 24 26  1  0  0  0  0
 26 21  1  0  0  0  0
M  END
>  <MODEL>
7

>  <REMARK>
 VINA RESULT:      -7.8      2.185      4.086
  Name = 
  6 active torsions:
  status: ('A' for Active; 'I' for Inactive)
    1  A    between atoms: N_13  and  N_22
    2  A    between atoms: C_18  and  N_22
    3  A    between atoms: C_18  and  C_24
    4  A    between atoms: C_19  and  N_26
    5  A    between atoms: CA_20  and  C_21
    6  A    between atoms: C_24  and  N_26
                            x       y       z     vdW  Elec       q    Type
                         _______ _______ _______ _____ _____    ______ ____

>  <TORSDO>
F 6

$$$$
=
 OpenBabel11062417003D

 26 27  0  0  0  0  0  0  0  0999 V2000
  186.0220  179.0460  145.1170 O   0  0  0  0  0  0  0  0  0  0  0  0
  184.8030  178.7040  141.6930 C   0  0  0  0  0  0  0  0  0  0  0  0
  183.7790  178.8940  144.4180 C   0  0  0  0  0  0  0  0  0  0  0  0
  187.5350  178.4310  141.1820 C   0  0  0  0  0  3  0  0  0  0  0  0
  186.6620  178.6290  140.1690 N   0  0  0  0  0  0  0  0  0  0  0  0
  182.4940  178.2780  141.0840 N   0  0  0  0  0  2  0  0  0  0  0  0
  182.8720  178.7750  143.3310 N   0  0  0  0  0  2  0  0  0  0  0  0
  183.3290  179.0780  145.6120 N   0  0  0  0  0  2  0  0  0  0  0  0
  185.2250  178.8370  144.1660 C   0  0  0  0  0  0  0  0  0  0  0  0
  183.3360  178.6520  141.9860 C   0  0  0  0  0  0  0  0  0  0  0  0
  187.0930  178.4060  142.5000 C   0  0  0  0  0  0  0  0  0  0  0  0
  185.3250  178.7780  140.3720 C   0  0  0  0  0  0  0  0  0  0  0  0
  185.7200  178.6190  142.7760 C   0  0  0  0  0  0  0  0  0  0  0  0
  184.0770  180.4100  138.9640 O   0  0  0  0  0  1  0  0  0  0  0  0
  184.2600  178.2190  138.3330 O   0  0  0  0  0  0  0  0  0  0  0  0
  184.5030  179.1070  139.1920 C   0  0  0  0  0  0  0  0  0  0  0  0
  188.0580  178.1320  143.5170 N   0  0  0  0  0  2  0  0  0  0  0  0
  188.2200  176.7990  144.0780 C   0  0  0  0  0  2  0  0  0  0  0  0
  188.7510  176.8870  145.5020 C   0  0  0  0  0  2  0  0  0  0  0  0
  190.8620  176.7980  146.7810 C   0  0  0  0  0  3  0  0  0  0  0  0
  190.2090  176.8040  145.5170 N   0  0  0  0  0  0  0  0  0  0  0  0
  192.1020  176.5980  146.8660 O   0  0  0  0  0  0  0  0  0  0  0  0
  191.5430  179.0400  143.8840 C   0  0  0  0  0  1  0  0  0  0  0  0
  191.5440  177.6020  143.5140 C   0  0  0  0  0  0  0  0  0  0  0  0
  192.0910  177.2630  142.4370 O   0  0  0  0  0  0  0  0  0  0  0  0
  190.9660  176.5860  144.3480 N   0  0  0  0  0  2  0  0  0  0  0  0
  2 10  1  0  0  0  0
  2 13  1  0  0  0  0
  3  8  2  0  0  0  0
  4 11  1  0  0  0  0
  5 12  1  0  0  0  0
  5  4  2  0  0  0  0
  6 10  2  0  0  0  0
  7  3  1  0  0  0  0
  9  3  1  0  0  0  0
  9  1  2  0  0  0  0
 10  7  1  0  0  0  0
 11 13  2  0  0  0  0
 11 17  1  0  0  0  0
 12  2  2  0  0  0  0
 13  9  1  0  0  0  0
 14 16  1  0  0  0  0
 15 16  2  0  0  0  0
 16 12  1  0  0  0  0
 17 18  1  0  0  0  0
 18 19  1  0  0  0  0
 19 21  1  0  0  0  0
 20 22  2  0  0  0  0
 21 20  1  0  0  0  0
 24 23  1  0  0  0  0
 24 26  1  0  0  0  0
 25 24  2  0  0  0  0
 26 21  1  0  0  0  0
M  END
>  <MODEL>
8

>  <REMARK>
 VINA RESULT:      -7.8      2.416      6.887
  Name = 
  6 active torsions:
  status: ('A' for Active; 'I' for Inactive)
    1  A    between atoms: N_13  and  N_22
    2  A    between atoms: C_18  and  N_22
    3  A    between atoms: C_18  and  C_24
    4  A    between atoms: C_19  and  N_26
    5  A    between atoms: CA_20  and  C_21
    6  A    between atoms: C_24  and  N_26
                            x       y       z     vdW  Elec       q    Type
                         _______ _______ _______ _____ _____    ______ ____

>  <TORSDO>
F 6

$$$$
=
 OpenBabel11062417003D

 26 27  0  0  0  0  0  0  0  0999 V2000
  186.2690  177.8440  147.0350 O   0  0  0  0  0  0  0  0  0  0  0  0
  189.0530  177.2720  144.7440 C   0  0  0  0  0  0  0  0  0  0  0  0
  188.5560  177.7390  147.5800 C   0  0  0  0  0  0  0  0  0  0  0  0
  187.0110  177.5010  142.8530 C   0  0  0  0  0  3  0  0  0  0  0  0
  188.2250  177.0240  142.4990 N   0  0  0  0  0  0  0  0  0  0  0  0
  191.3970  177.4520  145.3440 N   0  0  0  0  0  2  0  0  0  0  0  0
  189.8870  177.5500  147.1200 N   0  0  0  0  0  2  0  0  0  0  0  0
  188.3240  177.8470  148.8440 N   0  0  0  0  0  2  0  0  0  0  0  0
  187.4530  177.7810  146.6120 C   0  0  0  0  0  0  0  0  0  0  0  0
  190.1720  177.3460  145.7350 C   0  0  0  0  0  0  0  0  0  0  0  0
  186.7430  177.8410  144.1740 C   0  0  0  0  0  0  0  0  0  0  0  0
  189.2450  176.8860  143.3880 C   0  0  0  0  0  0  0  0  0  0  0  0
  187.7480  177.6580  145.1560 C   0  0  0  0  0  0  0  0  0  0  0  0
  190.7900  174.9360  143.2540 O   0  0  0  0  0  1  0  0  0  0  0  0
  191.2100  176.8460  142.0690 O   0  0  0  0  0  0  0  0  0  0  0  0
  190.4780  176.2420  142.8950 C   0  0  0  0  0  0  0  0  0  0  0  0
  185.4600  178.3950  144.4680 N   0  0  0  0  0  2  0  0  0  0  0  0
  184.8800  179.4550  143.6570 C   0  0  0  0  0  2  0  0  0  0  0  0
  183.4520  179.7400  144.1040 C   0  0  0  0  0  2  0  0  0  0  0  0
  182.8530  178.7420  141.9250 C   0  0  0  0  0  3  0  0  0  0  0  0
  182.4960  179.0100  143.2760 N   0  0  0  0  0  0  0  0  0  0  0  0
  182.1330  178.0080  141.2000 O   0  0  0  0  0  0  0  0  0  0  0  0
  179.6990  180.2420  142.9510 C   0  0  0  0  0  1  0  0  0  0  0  0
  180.0030  179.0200  143.7390 C   0  0  0  0  0  0  0  0  0  0  0  0
  179.0660  178.4610  144.3580 O   0  0  0  0  0  0  0  0  0  0  0  0
  181.3170  178.4450  143.8030 N   0  0  0  0  0  2  0  0  0  0  0  0
  2 13  1  0  0  0  0
  2 10  1  0  0  0  0
  3  8  2  0  0  0  0
  4 11  1  0  0  0  0
  5  4  2  0  0  0  0
  5 12  1  0  0  0  0
  6 10  2  0  0  0  0
  7  3  1  0  0  0  0
  9  1  2  0  0  0  0
  9  3  1  0  0  0  0
 10  7  1  0  0  0  0
 11 17  1  0  0  0  0
 11 13  2  0  0  0  0
 12  2  2  0  0  0  0
 13  9  1  0  0  0  0
 15 16  2  0  0  0  0
 16 14  1  0  0  0  0
 16 12  1  0  0  0  0
 18 19  1  0  0  0  0
 18 17  1  0  0  0  0
 20 21  1  0  0  0  0
 21 26  1  0  0  0  0
 21 19  1  0  0  0  0
 22 20  2  0  0  0  0
 23 24  1  0  0  0  0
 24 26  1  0  0  0  0
 24 25  2  0  0  0  0
M  END
>  <MODEL>
9

>  <REMARK>
 VINA RESULT:      -7.5      3.110      5.701
  Name = 
  6 active torsions:
  status: ('A' for Active; 'I' for Inactive)
    1  A    between atoms: N_13  and  N_22
    2  A    between atoms: C_18  and  N_22
    3  A    between atoms: C_18  and  C_24
    4  A    between atoms: C_19  and  N_26
    5  A    between atoms: CA_20  and  C_21
    6  A    between atoms: C_24  and  N_26
                            x       y       z     vdW  Elec       q    Type
                         _______ _______ _______ _____ _____    ______ ____

>  <TORSDO>
F 6

$$$$
