=
 OpenBabel11062416473D

 28 30  0  0  1  0  0  0  0  0999 V2000
  188.4860  177.5020  143.6390 C   0  0  2  0  0  3  0  0  0  0  0  0
  186.9530  177.5090  143.6960 C   0  0  2  0  0  3  0  0  0  0  0  0
  184.6850  180.3840  144.3060 O   0  0  0  0  0  0  0  0  0  0  0  0
  186.2950  177.9110  142.3710 C   0  0  0  0  0  2  0  0  0  0  0  0
  183.7160  178.2500  145.0970 O   0  0  0  0  0  0  0  0  0  0  0  0
  186.4190  178.3810  144.8240 C   0  0  1  0  0  3  0  0  0  0  0  0
  184.8130  178.8870  144.2910 S   0  0  0  0  0  0  0  0  0  0  0  0
  186.3280  177.6330  145.9990 O   0  0  0  0  0  1  0  0  0  0  0  0
  184.8410  178.2620  142.6410 C   0  0  0  0  0  2  0  0  0  0  0  0
  190.1430  179.2700  144.1450 N   0  0  0  0  0  0  0  0  0  0  0  0
  191.0730  176.8060  145.2090 C   0  0  2  0  0  3  0  0  0  0  0  0
  189.1600  178.3550  144.7330 C   0  0  2  0  0  3  0  0  0  0  0  0
  192.0010  177.7990  144.5660 C   0  0  0  0  0  2  0  0  0  0  0  0
  191.5360  178.9380  144.0510 C   0  0  0  0  0  3  0  0  0  0  0  0
  189.8390  177.4910  145.8020 C   0  0  0  0  0  2  0  0  0  0  0  0
  192.4190  174.9980  145.9080 O   0  0  0  0  0  0  0  0  0  0  0  0
  191.7870  175.9860  146.2460 C   0  0  0  0  0  0  0  0  0  0  0  0
  191.7440  176.3520  147.7010 C   0  0  0  0  0  2  0  0  0  0  0  0
  192.9730  175.9800  148.3860 N   0  0  0  0  0  1  0  0  0  0  0  0
  188.9100  177.9430  142.3170 N   0  0  0  0  0  2  0  0  0  0  0  0
  189.6670  177.1180  141.4220 C   0  0  0  0  0  0  0  0  0  0  0  0
  187.9950  178.0050  138.3310 C   0  0  0  0  0  2  0  0  0  0  0  0
  189.6160  177.3450  140.1010 C   0  0  0  0  0  0  0  0  0  0  0  0
  190.4990  176.0000  141.9740 C   0  0  0  0  0  1  0  0  0  0  0  0
  190.4050  176.5020  139.1290 C   0  0  0  0  0  2  0  0  0  0  0  0
  188.7880  178.4750  139.5530 C   0  0  0  0  0  2  0  0  0  0  0  0
  190.3010  177.0520  137.7070 C   0  0  0  0  0  2  0  0  0  0  0  0
  188.8380  177.2390  137.2960 C   0  0  0  0  0  2  0  0  0  0  0  0
  1 20  1  6  0  0  0
  2  1  1  6  0  0  0
  2  6  1  0  0  0  0
  4  9  1  0  0  0  0
  4  2  1  0  0  0  0
  6  8  1  1  0  0  0
  7  3  2  0  0  0  0
  7  6  1  0  0  0  0
  7  5  2  0  0  0  0
  9  7  1  0  0  0  0
 10 12  1  0  0  0  0
 11 15  1  0  0  0  0
 11 17  1  1  0  0  0
 12  1  1  6  0  0  0
 12 15  1  0  0  0  0
 13 11  1  0  0  0  0
 14 10  2  0  0  0  0
 14 13  1  0  0  0  0
 16 17  2  0  0  0  0
 17 18  1  0  0  0  0
 18 19  1  0  0  0  0
 21 24  1  0  0  0  0
 21 20  1  0  0  0  0
 22 26  1  0  0  0  0
 23 21  2  0  0  0  0
 25 23  1  0  0  0  0
 26 23  1  0  0  0  0
 27 25  1  0  0  0  0
 28 27  1  0  0  0  0
 28 22  1  0  0  0  0
M  END
>  <MODEL>
1

>  <REMARK>
 VINA RESULT:      -7.3      0.000      0.000
  Name = 
  6 active torsions:
  status: ('A' for Active; 'I' for Inactive)
    1  A    between atoms: C_1  and  C_2
    2  A    between atoms: C_2  and  C_12
    3  A    between atoms: C_2  and  N_20
    4  A    between atoms: C_4  and  C_11
    5  A    between atoms: C_4  and  C_18
    6  A    between atoms: C_7  and  N_20
                            x       y       z     vdW  Elec       q    Type
                         _______ _______ _______ _____ _____    ______ ____

>  <TORSDO>
F 6

$$$$
=
 OpenBabel11062416473D

 28 30  0  0  1  0  0  0  0  0999 V2000
  187.9350  177.8940  145.3130 C   0  0  2  0  0  3  0  0  0  0  0  0
  189.0930  177.5330  144.3740 C   0  0  2  0  0  3  0  0  0  0  0  0
  189.3400  178.0700  140.7090 O   0  0  0  0  0  0  0  0  0  0  0  0
  190.0480  178.7030  144.1070 C   0  0  0  0  0  2  0  0  0  0  0  0
  190.6360  176.0970  141.4500 O   0  0  0  0  0  0  0  0  0  0  0  0
  188.6100  176.9490  143.0540 C   0  0  1  0  0  3  0  0  0  0  0  0
  189.8870  177.3230  141.8930 S   0  0  0  0  0  0  0  0  0  0  0  0
  188.4550  175.5680  143.1760 O   0  0  0  0  0  1  0  0  0  0  0  0
  190.9000  178.3640  142.8950 C   0  0  0  0  0  2  0  0  0  0  0  0
  187.4810  177.8550  147.7460 N   0  0  0  0  0  0  0  0  0  0  0  0
  190.2510  177.3930  147.3200 C   0  0  2  0  0  3  0  0  0  0  0  0
  187.8760  177.0380  146.5950 C   0  0  2  0  0  3  0  0  0  0  0  0
  189.7480  178.2360  148.4590 C   0  0  0  0  0  2  0  0  0  0  0  0
  188.4430  178.4590  148.6240 C   0  0  0  0  0  3  0  0  0  0  0  0
  189.2140  176.3510  146.8910 C   0  0  0  0  0  2  0  0  0  0  0  0
  192.2080  177.1470  148.6150 O   0  0  0  0  0  0  0  0  0  0  0  0
  191.5620  176.7440  147.6610 C   0  0  0  0  0  0  0  0  0  0  0  0
  192.1060  175.6030  146.8520 C   0  0  0  0  0  2  0  0  0  0  0  0
  192.0710  175.8890  145.4260 N   0  0  0  0  0  1  0  0  0  0  0  0
  186.6820  177.7900  144.5760 N   0  0  0  0  0  2  0  0  0  0  0  0
  185.5060  178.5330  144.9250 C   0  0  0  0  0  0  0  0  0  0  0  0
  183.9260  178.6000  141.6640 C   0  0  0  0  0  2  0  0  0  0  0  0
  184.4510  178.5400  144.0960 C   0  0  0  0  0  0  0  0  0  0  0  0
  185.4740  179.3040  146.2100 C   0  0  0  0  0  1  0  0  0  0  0  0
  183.1940  179.3040  144.4340 C   0  0  0  0  0  2  0  0  0  0  0  0
  184.4850  177.7570  142.8120 C   0  0  0  0  0  2  0  0  0  0  0  0
  182.0900  179.0330  143.4120 C   0  0  0  0  0  2  0  0  0  0  0  0
  182.5870  179.2870  141.9860 C   0  0  0  0  0  2  0  0  0  0  0  0
  1 20  1  6  0  0  0
  2  1  1  1  0  0  0
  3  7  2  0  0  0  0
  4  2  1  0  0  0  0
  5  7  2  0  0  0  0
  6  8  1  1  0  0  0
  6  2  1  0  0  0  0
  7  9  1  0  0  0  0
  7  6  1  0  0  0  0
  9  4  1  0  0  0  0
 10 14  2  0  0  0  0
 11 17  1  1  0  0  0
 11 13  1  0  0  0  0
 12  1  1  6  0  0  0
 12 15  1  0  0  0  0
 12 10  1  0  0  0  0
 13 14  1  0  0  0  0
 15 11  1  0  0  0  0
 17 16  2  0  0  0  0
 18 17  1  0  0  0  0
 19 18  1  0  0  0  0
 20 21  1  0  0  0  0
 21 24  1  0  0  0  0
 22 28  1  0  0  0  0
 22 26  1  0  0  0  0
 23 25  1  0  0  0  0
 23 21  2  0  0  0  0
 26 23  1  0  0  0  0
 27 25  1  0  0  0  0
 28 27  1  0  0  0  0
M  END
>  <MODEL>
2

>  <REMARK>
 VINA RESULT:      -7.1      3.440      5.339
  Name = 
  6 active torsions:
  status: ('A' for Active; 'I' for Inactive)
    1  A    between atoms: C_1  and  C_2
    2  A    between atoms: C_2  and  C_12
    3  A    between atoms: C_2  and  N_20
    4  A    between atoms: C_4  and  C_11
    5  A    between atoms: C_4  and  C_18
    6  A    between atoms: C_7  and  N_20
                            x       y       z     vdW  Elec       q    Type
                         _______ _______ _______ _____ _____    ______ ____

>  <TORSDO>
F 6

$$$$
=
 OpenBabel11062416473D

 28 30  0  0  1  0  0  0  0  0999 V2000
  188.4890  177.8130  140.7480 C   0  0  2  0  0  3  0  0  0  0  0  0
  189.2080  177.1770  141.9440 C   0  0  2  0  0  3  0  0  0  0  0  0
  189.5910  178.5220  145.3840 O   0  0  0  0  0  0  0  0  0  0  0  0
  188.2690  176.4110  142.8830 C   0  0  0  0  0  2  0  0  0  0  0  0
  191.4830  177.0650  144.7380 O   0  0  0  0  0  0  0  0  0  0  0  0
  190.0210  178.1900  142.7390 C   0  0  1  0  0  3  0  0  0  0  0  0
  190.1010  177.5310  144.3750 S   0  0  0  0  0  0  0  0  0  0  0  0
  191.3020  178.3000  142.1960 O   0  0  0  0  0  1  0  0  0  0  0  0
  188.9930  176.1690  144.1980 C   0  0  0  0  0  2  0  0  0  0  0  0
  188.6800  178.9770  138.5710 N   0  0  0  0  0  2  0  0  0  0  0  0
  189.5070  176.2800  138.2470 C   0  0  2  0  0  3  0  0  0  0  0  0
  189.4390  178.3520  139.6580 C   0  0  2  0  0  3  0  0  0  0  0  0
  188.7060  177.0010  137.1980 C   0  0  0  0  0  3  0  0  0  0  0  0
  188.3080  178.2600  137.3850 C   0  0  0  0  0  3  0  0  0  0  0  0
  190.3410  177.2520  139.0850 C   0  0  0  0  0  2  0  0  0  0  0  0
  189.9870  174.0560  137.6180 O   0  0  0  0  0  0  0  0  0  0  0  0
  190.3720  175.2150  137.6340 C   0  0  0  0  0  0  0  0  0  0  0  0
  191.7090  175.5390  137.0350 C   0  0  0  0  0  2  0  0  0  0  0  0
  192.7820  174.8000  137.6820 N   0  0  0  0  0  1  0  0  0  0  0  0
  187.6180  178.8760  141.2320 N   0  0  0  0  0  2  0  0  0  0  0  0
  186.1870  178.7870  141.2080 C   0  0  0  0  0  0  0  0  0  0  0  0
  185.6220  178.2690  144.7510 C   0  0  0  0  0  2  0  0  0  0  0  0
  185.4920  178.9100  142.3490 C   0  0  0  0  0  0  0  0  0  0  0  0
  185.4850  178.5450  139.9070 C   0  0  0  0  0  1  0  0  0  0  0  0
  183.9850  178.8290  142.3610 C   0  0  0  0  0  2  0  0  0  0  0  0
  186.2020  179.1630  143.6510 C   0  0  0  0  0  2  0  0  0  0  0  0
  183.4240  179.1500  143.7460 C   0  0  0  0  0  2  0  0  0  0  0  0
  184.0850  178.2820  144.8210 C   0  0  0  0  0  2  0  0  0  0  0  0
  1 20  1  1  0  0  0
  2  1  1  6  0  0  0
  2  6  1  0  0  0  0
  2  4  1  0  0  0  0
  4  9  1  0  0  0  0
  6  8  1  6  0  0  0
  6  7  1  0  0  0  0
  7  5  2  0  0  0  0
  7  3  2  0  0  0  0
  9  7  1  0  0  0  0
 10 12  1  0  0  0  0
 11 17  1  6  0  0  0
 11 15  1  0  0  0  0
 12  1  1  1  0  0  0
 13 14  2  0  0  0  0
 13 11  1  0  0  0  0
 14 10  1  0  0  0  0
 15 12  1  0  0  0  0
 16 17  2  0  0  0  0
 18 17  1  0  0  0  0
 18 19  1  0  0  0  0
 21 20  1  0  0  0  0
 21 23  2  0  0  0  0
 22 28  1  0  0  0  0
 23 25  1  0  0  0  0
 23 26  1  0  0  0  0
 24 21  1  0  0  0  0
 25 27  1  0  0  0  0
 26 22  1  0  0  0  0
 27 28  1  0  0  0  0
M  END
>  <MODEL>
3

>  <REMARK>
 VINA RESULT:      -6.9      3.244      6.707
  Name = 
  6 active torsions:
  status: ('A' for Active; 'I' for Inactive)
    1  A    between atoms: C_1  and  C_2
    2  A    between atoms: C_2  and  C_12
    3  A    between atoms: C_2  and  N_20
    4  A    between atoms: C_4  and  C_11
    5  A    between atoms: C_4  and  C_18
    6  A    between atoms: C_7  and  N_20
                            x       y       z     vdW  Elec       q    Type
                         _______ _______ _______ _____ _____    ______ ____

>  <TORSDO>
F 6

$$$$
=
 OpenBabel11062416473D

 28 30  0  0  1  0  0  0  0  0999 V2000
  188.3140  177.9980  140.7000 C   0  0  2  0  0  3  0  0  0  0  0  0
  188.7530  177.9830  142.1700 C   0  0  2  0  0  3  0  0  0  0  0  0
  191.3670  175.8900  143.7730 O   0  0  0  0  0  0  0  0  0  0  0  0
  189.9840  178.8540  142.4480 C   0  0  0  0  0  2  0  0  0  0  0  0
  189.5580  176.4890  145.3500 O   0  0  0  0  0  0  0  0  0  0  0  0
  188.9890  176.5730  142.6910 C   0  0  1  0  0  3  0  0  0  0  0  0
  190.1610  176.7580  144.0000 S   0  0  0  0  0  0  0  0  0  0  0  0
  187.7950  176.0420  143.1800 O   0  0  0  0  0  1  0  0  0  0  0  0
  190.5540  178.4670  143.8030 C   0  0  0  0  0  2  0  0  0  0  0  0
  189.0180  179.1220  138.6100 N   0  0  0  0  0  2  0  0  0  0  0  0
  189.0050  176.3140  138.1840 C   0  0  2  0  0  3  0  0  0  0  0  0
  189.4640  178.2550  139.7040 C   0  0  2  0  0  3  0  0  0  0  0  0
  188.5450  177.2830  137.1300 C   0  0  0  0  0  3  0  0  0  0  0  0
  188.5370  178.5970  137.3640 C   0  0  0  0  0  3  0  0  0  0  0  0
  190.0290  176.9520  139.1270 C   0  0  0  0  0  2  0  0  0  0  0  0
  190.6190  174.6090  137.9430 O   0  0  0  0  0  0  0  0  0  0  0  0
  189.5470  175.0560  137.5670 C   0  0  0  0  0  0  0  0  0  0  0  0
  188.8000  174.3260  136.4890 C   0  0  0  0  0  2  0  0  0  0  0  0
  188.5360  172.9440  136.8580 N   0  0  0  0  0  1  0  0  0  0  0  0
  187.2640  178.9930  140.5310 N   0  0  0  0  0  2  0  0  0  0  0  0
  185.8760  178.6540  140.4110 C   0  0  0  0  0  0  0  0  0  0  0  0
  185.0040  178.7030  143.9280 C   0  0  0  0  0  2  0  0  0  0  0  0
  185.0460  178.8600  141.4440 C   0  0  0  0  0  0  0  0  0  0  0  0
  185.3700  178.0580  139.1310 C   0  0  0  0  0  1  0  0  0  0  0  0
  183.5790  178.5220  141.3510 C   0  0  0  0  0  2  0  0  0  0  0  0
  185.5570  179.4670  142.7230 C   0  0  0  0  0  2  0  0  0  0  0  0
  182.8230  178.9880  142.5950 C   0  0  0  0  0  2  0  0  0  0  0  0
  183.4850  178.4600  143.8710 C   0  0  0  0  0  2  0  0  0  0  0  0
  1 20  1  1  0  0  0
  2  1  1  6  0  0  0
  2  4  1  0  0  0  0
  2  6  1  0  0  0  0
  3  7  2  0  0  0  0
  4  9  1  0  0  0  0
  6  8  1  1  0  0  0
  6  7  1  0  0  0  0
  7  5  2  0  0  0  0
  9  7  1  0  0  0  0
 10 12  1  0  0  0  0
 11 17  1  6  0  0  0
 11 15  1  0  0  0  0
 12  1  1  1  0  0  0
 13 14  2  0  0  0  0
 13 11  1  0  0  0  0
 14 10  1  0  0  0  0
 15 12  1  0  0  0  0
 17 16  2  0  0  0  0
 18 19  1  0  0  0  0
 18 17  1  0  0  0  0
 21 20  1  0  0  0  0
 21 23  2  0  0  0  0
 23 26  1  0  0  0  0
 24 21  1  0  0  0  0
 25 23  1  0  0  0  0
 25 27  1  0  0  0  0
 26 22  1  0  0  0  0
 27 28  1  0  0  0  0
 28 22  1  0  0  0  0
M  END
>  <MODEL>
4

>  <REMARK>
 VINA RESULT:      -6.8      3.365      6.853
  Name = 
  6 active torsions:
  status: ('A' for Active; 'I' for Inactive)
    1  A    between atoms: C_1  and  C_2
    2  A    between atoms: C_2  and  C_12
    3  A    between atoms: C_2  and  N_20
    4  A    between atoms: C_4  and  C_11
    5  A    between atoms: C_4  and  C_18
    6  A    between atoms: C_7  and  N_20
                            x       y       z     vdW  Elec       q    Type
                         _______ _______ _______ _____ _____    ______ ____

>  <TORSDO>
F 6

$$$$
=
 OpenBabel11062416473D

 28 30  0  0  1  0  0  0  0  0999 V2000
  186.6350  178.1930  143.2600 C   0  0  2  0  0  3  0  0  0  0  0  0
  187.6090  177.4870  142.3090 C   0  0  2  0  0  3  0  0  0  0  0  0
  191.2790  177.9620  142.0010 O   0  0  0  0  0  0  0  0  0  0  0  0
  188.3200  176.2860  142.9450 C   0  0  0  0  0  2  0  0  0  0  0  0
  190.2470  177.2740  139.8610 O   0  0  0  0  0  0  0  0  0  0  0  0
  188.6370  178.4410  141.7170 C   0  0  1  0  0  3  0  0  0  0  0  0
  190.0370  177.4330  141.3410 S   0  0  0  0  0  0  0  0  0  0  0  0
  188.1300  179.0220  140.5540 O   0  0  0  0  0  1  0  0  0  0  0  0
  189.5140  175.9170  142.0790 C   0  0  0  0  0  2  0  0  0  0  0  0
  184.9730  179.9980  143.5880 N   0  0  0  0  0  2  0  0  0  0  0  0
  183.8350  177.9910  141.9330 C   0  0  2  0  0  3  0  0  0  0  0  0
  185.8390  179.3400  142.6050 C   0  0  2  0  0  3  0  0  0  0  0  0
  183.0340  178.7060  142.9860 C   0  0  0  0  0  3  0  0  0  0  0  0
  183.5980  179.6280  143.7680 C   0  0  0  0  0  3  0  0  0  0  0  0
  184.9920  178.8530  141.4230 C   0  0  0  0  0  2  0  0  0  0  0  0
  183.3790  176.7090  140.0050 O   0  0  0  0  0  0  0  0  0  0  0  0
  182.9600  177.5350  140.8000 C   0  0  0  0  0  0  0  0  0  0  0  0
  181.5700  178.0710  140.6180 C   0  0  0  0  0  2  0  0  0  0  0  0
  180.6120  177.0080  140.3560 N   0  0  0  0  0  1  0  0  0  0  0  0
  187.3750  178.6830  144.4150 N   0  0  0  0  0  2  0  0  0  0  0  0
  187.5630  177.9120  145.6090 C   0  0  0  0  0  0  0  0  0  0  0  0
  191.0930  177.1860  145.2310 C   0  0  0  0  0  2  0  0  0  0  0  0
  188.8020  177.6830  146.0680 C   0  0  0  0  0  0  0  0  0  0  0  0
  186.3680  177.3590  146.3260 C   0  0  0  0  0  1  0  0  0  0  0  0
  189.0380  176.8820  147.3250 C   0  0  0  0  0  2  0  0  0  0  0  0
  189.9970  178.2480  145.3500 C   0  0  0  0  0  2  0  0  0  0  0  0
  190.5140  176.8910  147.7200 C   0  0  0  0  0  2  0  0  0  0  0  0
  191.3980  176.4520  146.5490 C   0  0  0  0  0  2  0  0  0  0  0  0
  1 20  1  1  0  0  0
  2  4  1  0  0  0  0
  2  1  1  1  0  0  0
  5  7  2  0  0  0  0
  6  8  1  6  0  0  0
  6  2  1  0  0  0  0
  7  6  1  0  0  0  0
  7  3  2  0  0  0  0
  7  9  1  0  0  0  0
  9  4  1  0  0  0  0
 10 14  1  0  0  0  0
 11 17  1  6  0  0  0
 11 13  1  0  0  0  0
 12  1  1  1  0  0  0
 12 10  1  0  0  0  0
 13 14  2  0  0  0  0
 15 11  1  0  0  0  0
 15 12  1  0  0  0  0
 16 17  2  0  0  0  0
 18 17  1  0  0  0  0
 19 18  1  0  0  0  0
 20 21  1  0  0  0  0
 21 23  2  0  0  0  0
 21 24  1  0  0  0  0
 22 26  1  0  0  0  0
 22 28  1  0  0  0  0
 23 25  1  0  0  0  0
 25 27  1  0  0  0  0
 26 23  1  0  0  0  0
 28 27  1  0  0  0  0
M  END
>  <MODEL>
5

>  <REMARK>
 VINA RESULT:      -6.7      3.413      7.603
  Name = 
  6 active torsions:
  status: ('A' for Active; 'I' for Inactive)
    1  A    between atoms: C_1  and  C_2
    2  A    between atoms: C_2  and  C_12
    3  A    between atoms: C_2  and  N_20
    4  A    between atoms: C_4  and  C_11
    5  A    between atoms: C_4  and  C_18
    6  A    between atoms: C_7  and  N_20
                            x       y       z     vdW  Elec       q    Type
                         _______ _______ _______ _____ _____    ______ ____

>  <TORSDO>
F 6

$$$$
=
 OpenBabel11062416473D

 28 30  0  0  1  0  0  0  0  0999 V2000
  185.1090  178.5770  140.2530 C   0  0  2  0  0  3  0  0  0  0  0  0
  183.6420  179.0180  140.3270 C   0  0  2  0  0  3  0  0  0  0  0  0
  180.9780  178.5980  137.7750 O   0  0  0  0  0  0  0  0  0  0  0  0
  182.6920  177.9040  140.7810 C   0  0  0  0  0  2  0  0  0  0  0  0
  180.6210  180.6090  139.1700 O   0  0  0  0  0  0  0  0  0  0  0  0
  183.1490  179.6160  139.0160 C   0  0  1  0  0  3  0  0  0  0  0  0
  181.4050  179.3360  139.0120 S   0  0  0  0  0  0  0  0  0  0  0  0
  183.4220  180.9840  138.9860 O   0  0  0  0  0  1  0  0  0  0  0  0
  181.2670  178.3180  140.4460 C   0  0  0  0  0  2  0  0  0  0  0  0
  187.3030  178.6110  141.3990 N   0  0  0  0  0  0  0  0  0  0  0  0
  185.2590  178.2560  143.3380 C   0  0  2  0  0  3  0  0  0  0  0  0
  186.0440  179.3370  141.2160 C   0  0  2  0  0  3  0  0  0  0  0  0
  186.5760  177.5360  143.4260 C   0  0  0  0  0  2  0  0  0  0  0  0
  187.5110  177.7010  142.4890 C   0  0  0  0  0  3  0  0  0  0  0  0
  185.3900  179.5800  142.5810 C   0  0  0  0  0  2  0  0  0  0  0  0
  183.5200  178.8860  144.8030 O   0  0  0  0  0  0  0  0  0  0  0  0
  184.6620  178.4670  144.7000 C   0  0  0  0  0  0  0  0  0  0  0  0
  185.4380  178.1730  145.9510 C   0  0  0  0  0  2  0  0  0  0  0  0
  185.5280  179.3400  146.8140 N   0  0  0  0  0  1  0  0  0  0  0  0
  185.5750  178.7150  138.8790 N   0  0  0  0  0  2  0  0  0  0  0  0
  185.8230  177.5940  138.0200 C   0  0  0  0  0  0  0  0  0  0  0  0
  189.1420  178.5090  136.8880 C   0  0  0  0  0  2  0  0  0  0  0  0
  187.0730  177.3300  137.6130 C   0  0  0  0  0  0  0  0  0  0  0  0
  184.6760  176.7360  137.5770 C   0  0  0  0  0  1  0  0  0  0  0  0
  187.3730  176.1540  136.7150 C   0  0  0  0  0  2  0  0  0  0  0  0
  188.2210  178.1880  138.0680 C   0  0  0  0  0  2  0  0  0  0  0  0
  188.8780  175.9770  136.5180 C   0  0  0  0  0  2  0  0  0  0  0  0
  189.5270  177.2810  136.0440 C   0  0  0  0  0  2  0  0  0  0  0  0
  1 20  1  6  0  0  0
  2  1  1  6  0  0  0
  2  4  1  0  0  0  0
  3  7  2  0  0  0  0
  6  8  1  1  0  0  0
  6  2  1  0  0  0  0
  7  6  1  0  0  0  0
  7  5  2  0  0  0  0
  7  9  1  0  0  0  0
  9  4  1  0  0  0  0
 10 14  2  0  0  0  0
 11 13  1  0  0  0  0
 11 17  1  1  0  0  0
 12  1  1  6  0  0  0
 12 10  1  0  0  0  0
 12 15  1  0  0  0  0
 14 13  1  0  0  0  0
 15 11  1  0  0  0  0
 17 16  2  0  0  0  0
 17 18  1  0  0  0  0
 18 19  1  0  0  0  0
 21 20  1  0  0  0  0
 22 26  1  0  0  0  0
 23 21  2  0  0  0  0
 23 26  1  0  0  0  0
 24 21  1  0  0  0  0
 25 23  1  0  0  0  0
 27 25  1  0  0  0  0
 28 27  1  0  0  0  0
 28 22  1  0  0  0  0
M  END
>  <MODEL>
6

>  <REMARK>
 VINA RESULT:      -6.4      4.052      5.747
  Name = 
  6 active torsions:
  status: ('A' for Active; 'I' for Inactive)
    1  A    between atoms: C_1  and  C_2
    2  A    between atoms: C_2  and  C_12
    3  A    between atoms: C_2  and  N_20
    4  A    between atoms: C_4  and  C_11
    5  A    between atoms: C_4  and  C_18
    6  A    between atoms: C_7  and  N_20
                            x       y       z     vdW  Elec       q    Type
                         _______ _______ _______ _____ _____    ______ ____

>  <TORSDO>
F 6

$$$$
=
 OpenBabel11062416473D

 28 30  0  0  1  0  0  0  0  0999 V2000
  187.1510  177.9960  141.5420 C   0  0  2  0  0  3  0  0  0  0  0  0
  187.9660  177.6030  140.3040 C   0  0  2  0  0  3  0  0  0  0  0  0
  189.0560  179.7590  137.4840 O   0  0  0  0  0  0  0  0  0  0  0  0
  189.4660  177.8850  140.4460 C   0  0  0  0  0  2  0  0  0  0  0  0
  188.7180  177.4110  136.7840 O   0  0  0  0  0  0  0  0  0  0  0  0
  187.4370  178.2510  139.0320 C   0  0  1  0  0  3  0  0  0  0  0  0
  188.8320  178.3490  137.9530 S   0  0  0  0  0  0  0  0  0  0  0  0
  186.4430  177.4480  138.4690 O   0  0  0  0  0  1  0  0  0  0  0  0
  190.1010  177.8340  139.0660 C   0  0  0  0  0  2  0  0  0  0  0  0
  185.8010  179.7810  142.6000 N   0  0  0  0  0  0  0  0  0  0  0  0
  184.0510  177.9210  141.3580 C   0  0  2  0  0  3  0  0  0  0  0  0
  186.2090  179.1980  141.3190 C   0  0  2  0  0  3  0  0  0  0  0  0
  183.7310  178.5560  142.6830 C   0  0  0  0  0  2  0  0  0  0  0  0
  184.5820  179.4080  143.2580 C   0  0  0  0  0  3  0  0  0  0  0  0
  184.9640  178.8130  140.5120 C   0  0  0  0  0  2  0  0  0  0  0  0
  182.8000  176.6100  139.8470 O   0  0  0  0  0  0  0  0  0  0  0  0
  182.7990  177.5630  140.6100 C   0  0  0  0  0  0  0  0  0  0  0  0
  181.5330  178.3520  140.7760 C   0  0  0  0  0  2  0  0  0  0  0  0
  180.3640  177.4890  140.8290 N   0  0  0  0  0  1  0  0  0  0  0  0
  188.0660  178.2650  142.6430 N   0  0  0  0  0  2  0  0  0  0  0  0
  188.0350  177.5420  143.8810 C   0  0  0  0  0  0  0  0  0  0  0  0
  191.6000  177.4190  144.5210 C   0  0  0  0  0  2  0  0  0  0  0  0
  189.1180  177.5270  144.6720 C   0  0  0  0  0  0  0  0  0  0  0  0
  186.7920  176.8000  144.2710 C   0  0  0  0  0  1  0  0  0  0  0  0
  189.1190  176.7840  145.9850 C   0  0  0  0  0  2  0  0  0  0  0  0
  190.3590  178.2820  144.2810 C   0  0  0  0  0  2  0  0  0  0  0  0
  190.4060  177.0430  146.7680 C   0  0  0  0  0  2  0  0  0  0  0  0
  191.6400  176.7530  145.9080 C   0  0  0  0  0  2  0  0  0  0  0  0
  1 20  1  1  0  0  0
  2  4  1  0  0  0  0
  2  1  1  1  0  0  0
  3  7  2  0  0  0  0
  5  7  2  0  0  0  0
  6  8  1  6  0  0  0
  6  2  1  0  0  0  0
  7  6  1  0  0  0  0
  7  9  1  0  0  0  0
  9  4  1  0  0  0  0
 10 14  2  0  0  0  0
 11 17  1  6  0  0  0
 11 13  1  0  0  0  0
 12  1  1  1  0  0  0
 12 10  1  0  0  0  0
 13 14  1  0  0  0  0
 15 12  1  0  0  0  0
 15 11  1  0  0  0  0
 16 17  2  0  0  0  0
 17 18  1  0  0  0  0
 18 19  1  0  0  0  0
 20 21  1  0  0  0  0
 21 24  1  0  0  0  0
 21 23  2  0  0  0  0
 22 28  1  0  0  0  0
 23 25  1  0  0  0  0
 25 27  1  0  0  0  0
 26 22  1  0  0  0  0
 26 23  1  0  0  0  0
 28 27  1  0  0  0  0
M  END
>  <MODEL>
7

>  <REMARK>
 VINA RESULT:      -6.4      3.874      7.623
  Name = 
  6 active torsions:
  status: ('A' for Active; 'I' for Inactive)
    1  A    between atoms: C_1  and  C_2
    2  A    between atoms: C_2  and  C_12
    3  A    between atoms: C_2  and  N_20
    4  A    between atoms: C_4  and  C_11
    5  A    between atoms: C_4  and  C_18
    6  A    between atoms: C_7  and  N_20
                            x       y       z     vdW  Elec       q    Type
                         _______ _______ _______ _____ _____    ______ ____

>  <TORSDO>
F 6

$$$$
=
 OpenBabel11062416473D

 28 30  0  0  1  0  0  0  0  0999 V2000
  186.4370  177.8860  139.1400 C   0  0  2  0  0  3  0  0  0  0  0  0
  187.6550  177.5010  138.2910 C   0  0  2  0  0  3  0  0  0  0  0  0
  187.9030  177.2620  134.5940 O   0  0  0  0  0  0  0  0  0  0  0  0
  188.4400  178.7100  137.7670 C   0  0  0  0  0  2  0  0  0  0  0  0
  189.4480  175.7020  135.7330 O   0  0  0  0  0  0  0  0  0  0  0  0
  187.2880  176.5820  137.1330 C   0  0  1  0  0  3  0  0  0  0  0  0
  188.5240  176.8750  135.9060 S   0  0  0  0  0  0  0  0  0  0  0  0
  187.3270  175.2520  137.5540 O   0  0  0  0  0  1  0  0  0  0  0  0
  189.3580  178.2420  136.6490 C   0  0  0  0  0  2  0  0  0  0  0  0
  184.6690  179.6200  139.1320 N   0  0  0  0  0  0  0  0  0  0  0  0
  183.4440  177.0580  139.1000 C   0  0  2  0  0  3  0  0  0  0  0  0
  185.3020  178.5610  138.3410 C   0  0  2  0  0  3  0  0  0  0  0  0
  182.8830  178.2020  139.8990 C   0  0  0  0  0  2  0  0  0  0  0  0
  183.4910  179.3890  139.9180 C   0  0  0  0  0  3  0  0  0  0  0  0
  184.2380  177.5550  137.8890 C   0  0  0  0  0  2  0  0  0  0  0  0
  182.6410  175.1320  137.9980 O   0  0  0  0  0  0  0  0  0  0  0  0
  182.3620  176.1030  138.6830 C   0  0  0  0  0  0  0  0  0  0  0  0
  180.9330  176.3100  139.0920 C   0  0  0  0  0  2  0  0  0  0  0  0
  180.4670  175.2540  139.9770 N   0  0  0  0  0  1  0  0  0  0  0  0
  186.8750  178.7510  140.2280 N   0  0  0  0  0  2  0  0  0  0  0  0
  187.5750  178.2640  141.3800 C   0  0  0  0  0  0  0  0  0  0  0  0
  185.0690  179.0160  143.8880 C   0  0  0  0  0  2  0  0  0  0  0  0
  186.9070  178.0410  142.5220 C   0  0  0  0  0  0  0  0  0  0  0  0
  189.0520  178.0210  141.2980 C   0  0  0  0  0  1  0  0  0  0  0  0
  187.6090  177.5210  143.7530 C   0  0  0  0  0  2  0  0  0  0  0  0
  185.4230  178.2770  142.5960 C   0  0  0  0  0  2  0  0  0  0  0  0
  186.6120  177.2070  144.8680 C   0  0  0  0  0  2  0  0  0  0  0  0
  185.7070  178.4090  145.1510 C   0  0  0  0  0  2  0  0  0  0  0  0
  1 20  1  1  0  0  0
  2  1  1  6  0  0  0
  3  7  2  0  0  0  0
  4  2  1  0  0  0  0
  5  7  2  0  0  0  0
  6  8  1  1  0  0  0
  6  2  1  0  0  0  0
  7  9  1  0  0  0  0
  7  6  1  0  0  0  0
  9  4  1  0  0  0  0
 10 14  2  0  0  0  0
 11 17  1  6  0  0  0
 11 13  1  0  0  0  0
 12 10  1  0  0  0  0
 12  1  1  1  0  0  0
 13 14  1  0  0  0  0
 15 12  1  0  0  0  0
 15 11  1  0  0  0  0
 16 17  2  0  0  0  0
 17 18  1  0  0  0  0
 18 19  1  0  0  0  0
 20 21  1  0  0  0  0
 21 23  2  0  0  0  0
 22 28  1  0  0  0  0
 23 26  1  0  0  0  0
 23 25  1  0  0  0  0
 24 21  1  0  0  0  0
 25 27  1  0  0  0  0
 26 22  1  0  0  0  0
 27 28  1  0  0  0  0
M  END
>  <MODEL>
8

>  <REMARK>
 VINA RESULT:      -6.4      5.054      8.624
  Name = 
  6 active torsions:
  status: ('A' for Active; 'I' for Inactive)
    1  A    between atoms: C_1  and  C_2
    2  A    between atoms: C_2  and  C_12
    3  A    between atoms: C_2  and  N_20
    4  A    between atoms: C_4  and  C_11
    5  A    between atoms: C_4  and  C_18
    6  A    between atoms: C_7  and  N_20
                            x       y       z     vdW  Elec       q    Type
                         _______ _______ _______ _____ _____    ______ ____

>  <TORSDO>
F 6

$$$$
=
 OpenBabel11062416473D

 28 30  0  0  1  0  0  0  0  0999 V2000
  185.8050  178.3310  140.2270 C   0  0  2  0  0  3  0  0  0  0  0  0
  184.3100  178.6740  140.2040 C   0  0  2  0  0  3  0  0  0  0  0  0
  181.9310  178.4220  137.3640 O   0  0  0  0  0  0  0  0  0  0  0  0
  183.4020  177.4590  140.4240 C   0  0  0  0  0  2  0  0  0  0  0  0
  181.3060  180.2190  138.9450 O   0  0  0  0  0  0  0  0  0  0  0  0
  183.9010  179.4010  138.9310 C   0  0  1  0  0  3  0  0  0  0  0  0
  182.1880  179.0230  138.7170 S   0  0  0  0  0  0  0  0  0  0  0  0
  184.0780  180.7760  139.0920 O   0  0  0  0  0  1  0  0  0  0  0  0
  181.9890  177.8270  139.9990 C   0  0  0  0  0  2  0  0  0  0  0  0
  187.7270  178.2720  141.7860 N   0  0  0  0  0  0  0  0  0  0  0  0
  185.3200  178.2540  143.2930 C   0  0  2  0  0  3  0  0  0  0  0  0
  186.6060  179.0860  141.3080 C   0  0  2  0  0  3  0  0  0  0  0  0
  186.5160  177.4340  143.6900 C   0  0  0  0  0  2  0  0  0  0  0  0
  187.6270  177.4400  142.9520 C   0  0  0  0  0  3  0  0  0  0  0  0
  185.7270  179.4950  142.4960 C   0  0  0  0  0  2  0  0  0  0  0  0
  183.2760  178.6300  144.4110 O   0  0  0  0  0  0  0  0  0  0  0  0
  184.4940  178.6270  144.4910 C   0  0  0  0  0  0  0  0  0  0  0  0
  185.1310  178.9990  145.7980 C   0  0  0  0  0  2  0  0  0  0  0  0
  184.5570  178.2550  146.9090 N   0  0  0  0  0  1  0  0  0  0  0  0
  186.3670  178.5870  138.9070 N   0  0  0  0  0  2  0  0  0  0  0  0
  187.2370  177.6660  138.2360 C   0  0  0  0  0  0  0  0  0  0  0  0
  184.7400  175.3000  137.0970 C   0  0  0  0  0  2  0  0  0  0  0  0
  186.7270  176.7720  137.3760 C   0  0  0  0  0  0  0  0  0  0  0  0
  188.7100  177.7050  138.5150 C   0  0  0  0  0  1  0  0  0  0  0  0
  187.6130  175.7920  136.6460 C   0  0  0  0  0  2  0  0  0  0  0  0
  185.2500  176.7420  137.0940 C   0  0  0  0  0  2  0  0  0  0  0  0
  186.8200  174.9880  135.6170 C   0  0  0  0  0  2  0  0  0  0  0  0
  185.5940  174.3320  136.2590 C   0  0  0  0  0  2  0  0  0  0  0  0
  1 20  1  6  0  0  0
  2  1  1  6  0  0  0
  2  4  1  0  0  0  0
  3  7  2  0  0  0  0
  6  8  1  1  0  0  0
  6  2  1  0  0  0  0
  7  6  1  0  0  0  0
  7  5  2  0  0  0  0
  7  9  1  0  0  0  0
  9  4  1  0  0  0  0
 10 14  2  0  0  0  0
 11 13  1  0  0  0  0
 11 17  1  1  0  0  0
 12  1  1  6  0  0  0
 12 10  1  0  0  0  0
 12 15  1  0  0  0  0
 14 13  1  0  0  0  0
 15 11  1  0  0  0  0
 16 17  2  0  0  0  0
 17 18  1  0  0  0  0
 18 19  1  0  0  0  0
 21 24  1  0  0  0  0
 21 20  1  0  0  0  0
 23 21  2  0  0  0  0
 25 23  1  0  0  0  0
 26 22  1  0  0  0  0
 26 23  1  0  0  0  0
 27 28  1  0  0  0  0
 27 25  1  0  0  0  0
 28 22  1  0  0  0  0
M  END
>  <MODEL>
9

>  <REMARK>
 VINA RESULT:      -6.3      3.939      5.761
  Name = 
  6 active torsions:
  status: ('A' for Active; 'I' for Inactive)
    1  A    between atoms: C_1  and  C_2
    2  A    between atoms: C_2  and  C_12
    3  A    between atoms: C_2  and  N_20
    4  A    between atoms: C_4  and  C_11
    5  A    between atoms: C_4  and  C_18
    6  A    between atoms: C_7  and  N_20
                            x       y       z     vdW  Elec       q    Type
                         _______ _______ _______ _____ _____    ______ ____

>  <TORSDO>
F 6

$$$$
