=
 OpenBabel11062417553D

 39 48  0  0  1  0  0  0  0  0999 V2000
  184.4910  179.0270  143.1910 C   0  0  1  0  0  3  0  0  0  0  0  0
  179.4190  179.0860  142.4240 C   0  0  0  0  0  2  0  0  0  0  0  0
  182.5970  179.1320  141.9190 C   0  0  1  0  0  3  0  0  0  0  0  0
  179.6490  178.8030  140.9270 C   0  0  2  0  0  3  0  0  0  0  0  0
  182.0650  178.0430  141.0240 C   0  0  0  0  0  0  0  0  0  0  0  0
  180.5360  178.6010  143.3450 C   0  0  0  0  0  2  0  0  0  0  0  0
  180.7600  176.7610  139.7200 C   0  0  0  0  0  3  0  0  0  0  0  0
  181.9250  176.2080  139.6340 N   0  0  0  0  0  0  0  0  0  0  0  0
  180.8190  177.9180  140.5900 C   0  0  1  0  0  3  0  0  0  0  0  0
  181.8010  179.4350  143.1490 C   0  0  1  0  0  3  0  0  0  0  0  0
  183.0360  178.5310  143.2670 C   0  0  1  0  0  0  0  0  0  0  0  0
  182.8900  176.9460  140.4410 C   0  0  0  0  0  3  0  0  0  0  0  0
  183.7050  179.3280  144.4020 C   0  0  0  0  0  2  0  0  0  0  0  0
  187.9210  178.7020  145.9270 O   0  0  0  0  0  1  0  0  0  0  0  0
  187.1080  176.7180  144.8560 C   0  0  1  0  0  3  0  0  0  0  0  0
  185.5040  177.8820  143.3820 C   0  0  2  0  0  3  0  0  0  0  0  0
  190.3430  177.5460  146.1180 C   0  0  2  0  0  3  0  0  0  0  0  0
  189.3300  176.9360  145.2830 N   0  0  2  0  0  0  0  0  0  0  0  0
  185.7670  177.4380  144.8180 C   0  0  0  0  0  2  0  0  0  0  0  0
  189.2550  177.3970  143.9610 N   0  0  0  0  0  2  0  0  0  0  0  0
  187.8980  176.9880  143.5590 C   0  0  2  0  0  3  0  0  0  0  0  0
  191.6940  176.9200  145.8320 C   0  0  0  0  0  1  0  0  0  0  0  0
  189.9130  177.2050  147.5550 C   0  0  1  0  0  3  0  0  0  0  0  0
  187.0940  178.3280  142.6350 S   0  0  0  0  0  0  0  0  0  0  0  0
  190.0600  178.4260  148.4390 C   0  0  0  0  0  1  0  0  0  0  0  0
  188.0680  177.3000  145.8630 C   0  0  1  0  0  0  0  0  0  0  0  0
  188.1450  176.6490  147.5350 S   0  0  0  0  0  0  0  0  0  0  0  0
  179.6730  183.3280  137.6410 N   0  0  0  0  0  0  0  0  0  0  0  0
  180.1920  181.2200  138.0910 C   0  0  0  0  0  0  0  0  0  0  0  0
  180.2400  180.0480  138.8380 C   0  0  0  0  0  3  0  0  0  0  0  0
  178.9600  181.2200  140.5650 C   0  0  0  0  0  3  0  0  0  0  0  0
  179.5670  182.3420  138.5430 C   0  0  0  0  0  0  0  0  0  0  0  0
  180.7240  181.4420  136.8810 N   0  0  0  0  0  2  0  0  0  0  0  0
  178.9350  182.3880  139.7820 C   0  0  0  0  0  3  0  0  0  0  0  0
  179.6100  180.0490  140.0980 C   0  0  0  0  0  0  0  0  0  0  0  0
  180.3760  182.7340  136.6400 C   0  0  0  0  0  0  0  0  0  0  0  0
  179.6430  184.3390  134.9200 C   0  0  0  0  0  2  0  0  0  0  0  0
  180.7840  183.4600  135.3990 C   0  0  0  0  0  3  0  0  0  0  0  0
  180.8080  184.9550  135.6600 C   0  0  0  0  0  2  0  0  0  0  0  0
  1 11  1  0  0  0  0
  1 16  1  0  0  0  0
  1 13  1  1  0  0  0
  2  6  1  0  0  0  0
  3  5  1  6  0  0  0
  3 10  1  0  0  0  0
  3 11  1  0  0  0  0
  4 35  1  6  0  0  0
  4  2  1  0  0  0  0
  8  7  2  0  0  0  0
  8 12  1  0  0  0  0
  9  7  1  1  0  0  0
  9  4  1  0  0  0  0
  9  5  1  0  0  0  0
 10 11  1  0  0  0  0
 10  6  1  6  0  0  0
 11 13  1  6  0  0  0
 12  5  2  0  0  0  0
 15 19  1  6  0  0  0
 15 26  1  0  0  0  0
 16 19  1  1  0  0  0
 17 22  1  6  0  0  0
 17 23  1  0  0  0  0
 18 20  1  6  0  0  0
 18 26  1  0  0  0  0
 18 17  1  0  0  0  0
 21 24  1  1  0  0  0
 21 20  1  0  0  0  0
 21 15  1  0  0  0  0
 23 25  1  1  0  0  0
 24 16  1  0  0  0  0
 26 14  1  1  0  0  0
 26 27  1  0  0  0  0
 27 23  1  0  0  0  0
 28 32  1  0  0  0  0
 29 32  2  0  0  0  0
 29 30  1  0  0  0  0
 30 35  2  0  0  0  0
 32 34  1  0  0  0  0
 33 29  1  0  0  0  0
 34 31  2  0  0  0  0
 35 31  1  0  0  0  0
 36 33  1  0  0  0  0
 36 28  2  0  0  0  0
 37 38  1  0  0  0  0
 37 39  1  0  0  0  0
 38 39  1  0  0  0  0
 38 36  1  0  0  0  0
M  END
>  <MODEL>
1

>  <REMARK>
 VINA RESULT:      -9.0      0.000      0.000
  Name = 
  3 active torsions:
  status: ('A' for Active; 'I' for Inactive)
    1  A    between atoms: C_1  and  C_8
    2  A    between atoms: C_4  and  C_34
    3  A    between atoms: C_27  and  C_39
                            x       y       z     vdW  Elec       q    Type
                         _______ _______ _______ _____ _____    ______ ____

>  <TORSDO>
F 3

$$$$
=
 OpenBabel11062417553D

 39 48  0  0  1  0  0  0  0  0999 V2000
  185.0520  176.0530  137.0590 C   0  0  1  0  0  3  0  0  0  0  0  0
  189.1260  179.1140  137.6550 C   0  0  0  0  0  2  0  0  0  0  0  0
  187.1880  176.5450  137.7030 C   0  0  1  0  0  3  0  0  0  0  0  0
  190.0110  177.8770  137.8980 C   0  0  2  0  0  3  0  0  0  0  0  0
  188.4500  176.0820  137.0230 C   0  0  0  0  0  0  0  0  0  0  0  0
  187.8750  178.8500  136.8190 C   0  0  0  0  0  2  0  0  0  0  0  0
  190.5790  175.8440  136.3480 C   0  0  0  0  0  3  0  0  0  0  0  0
  189.9660  174.8490  135.7970 N   0  0  0  0  0  0  0  0  0  0  0  0
  189.6490  176.6380  137.1240 C   0  0  1  0  0  3  0  0  0  0  0  0
  186.8700  178.0030  137.6010 C   0  0  1  0  0  3  0  0  0  0  0  0
  186.1730  177.0230  136.6460 C   0  0  1  0  0  0  0  0  0  0  0  0
  188.5520  174.8740  136.1550 C   0  0  0  0  0  3  0  0  0  0  0  0
  184.7410  177.4910  136.9610 C   0  0  0  0  0  2  0  0  0  0  0  0
  181.7730  173.1280  136.8490 O   0  0  0  0  0  1  0  0  0  0  0  0
  182.6620  174.0110  134.8070 C   0  0  1  0  0  3  0  0  0  0  0  0
  184.5330  175.2270  135.8670 C   0  0  2  0  0  3  0  0  0  0  0  0
  181.0210  170.9200  135.5080 C   0  0  2  0  0  3  0  0  0  0  0  0
  181.9130  171.8660  134.8720 N   0  0  2  0  0  0  0  0  0  0  0  0
  183.0240  175.2330  135.6390 C   0  0  0  0  0  2  0  0  0  0  0  0
  183.2810  171.6900  135.1160 N   0  0  0  0  0  2  0  0  0  0  0  0
  183.8370  173.0130  134.7820 C   0  0  2  0  0  3  0  0  0  0  0  0
  180.9870  169.6290  134.7140 C   0  0  0  0  0  1  0  0  0  0  0  0
  179.6400  171.5940  135.4500 C   0  0  1  0  0  3  0  0  0  0  0  0
  185.0660  173.5020  136.0270 S   0  0  0  0  0  0  0  0  0  0  0  0
  178.9310  171.4310  136.7790 C   0  0  0  0  0  1  0  0  0  0  0  0
  181.6070  173.1460  135.4480 C   0  0  1  0  0  0  0  0  0  0  0  0
  179.8680  173.3950  135.0740 S   0  0  0  0  0  0  0  0  0  0  0  0
  190.5270  176.9000  143.3800 N   0  0  0  0  0  0  0  0  0  0  0  0
  189.3300  177.2870  141.5550 C   0  0  0  0  0  0  0  0  0  0  0  0
  189.1030  177.5370  140.2050 C   0  0  0  0  0  3  0  0  0  0  0  0
  191.5270  177.4270  139.8840 C   0  0  0  0  0  3  0  0  0  0  0  0
  190.5840  177.1160  142.0580 C   0  0  0  0  0  0  0  0  0  0  0  0
  188.4200  177.1880  142.5330 N   0  0  0  0  0  2  0  0  0  0  0  0
  191.7190  177.1790  141.2550 C   0  0  0  0  0  3  0  0  0  0  0  0
  190.2240  177.6060  139.3550 C   0  0  0  0  0  0  0  0  0  0  0  0
  189.1900  176.9410  143.6260 C   0  0  0  0  0  0  0  0  0  0  0  0
  188.8920  178.0370  145.8120 C   0  0  0  0  0  2  0  0  0  0  0  0
  188.6160  176.7870  144.9970 C   0  0  0  0  0  3  0  0  0  0  0  0
  187.5210  177.8140  145.2170 C   0  0  0  0  0  2  0  0  0  0  0  0
  1 13  1  6  0  0  0
  2  4  1  0  0  0  0
  3  5  1  6  0  0  0
  4 35  1  1  0  0  0
  5  9  1  0  0  0  0
  6  2  1  0  0  0  0
  8 12  1  0  0  0  0
  8  7  2  0  0  0  0
  9  7  1  6  0  0  0
  9  4  1  0  0  0  0
 10  6  1  6  0  0  0
 10  3  1  0  0  0  0
 11 13  1  1  0  0  0
 11  1  1  0  0  0  0
 11 10  1  0  0  0  0
 11  3  1  0  0  0  0
 12  5  2  0  0  0  0
 15 26  1  0  0  0  0
 15 19  1  1  0  0  0
 16 19  1  1  0  0  0
 16 24  1  0  0  0  0
 16  1  1  0  0  0  0
 17 22  1  6  0  0  0
 18 20  1  1  0  0  0
 18 26  1  0  0  0  0
 18 17  1  0  0  0  0
 21 15  1  0  0  0  0
 21 20  1  1  0  0  0
 21 24  1  0  0  0  0
 23 17  1  0  0  0  0
 23 25  1  1  0  0  0
 26 14  1  1  0  0  0
 27 26  1  0  0  0  0
 27 23  1  0  0  0  0
 28 36  2  0  0  0  0
 29 32  1  0  0  0  0
 29 33  1  0  0  0  0
 30 29  2  0  0  0  0
 31 34  1  0  0  0  0
 32 28  1  0  0  0  0
 33 36  1  0  0  0  0
 34 32  2  0  0  0  0
 35 31  2  0  0  0  0
 35 30  1  0  0  0  0
 36 38  1  0  0  0  0
 38 39  1  0  0  0  0
 38 37  1  0  0  0  0
 39 37  1  0  0  0  0
M  END
>  <MODEL>
2

>  <REMARK>
 VINA RESULT:      -8.2      6.432     11.782
  Name = 
  3 active torsions:
  status: ('A' for Active; 'I' for Inactive)
    1  A    between atoms: C_1  and  C_8
    2  A    between atoms: C_4  and  C_34
    3  A    between atoms: C_27  and  C_39
                            x       y       z     vdW  Elec       q    Type
                         _______ _______ _______ _____ _____    ______ ____

>  <TORSDO>
F 3

$$$$
=
 OpenBabel11062417553D

 39 48  0  0  1  0  0  0  0  0999 V2000
  184.7650  178.9340  141.6430 C   0  0  1  0  0  3  0  0  0  0  0  0
  180.1030  178.4260  139.5630 C   0  0  0  0  0  2  0  0  0  0  0  0
  183.2560  178.9550  139.9280 C   0  0  1  0  0  3  0  0  0  0  0  0
  180.7410  178.3720  138.1620 C   0  0  2  0  0  3  0  0  0  0  0  0
  183.1470  177.9310  138.8280 C   0  0  0  0  0  0  0  0  0  0  0  0
  181.0180  177.9750  140.7000 C   0  0  0  0  0  2  0  0  0  0  0  0
  182.4320  176.6700  137.1120 C   0  0  0  0  0  3  0  0  0  0  0  0
  183.6550  176.2910  137.2880 N   0  0  0  0  0  0  0  0  0  0  0  0
  182.0850  177.7010  138.0690 C   0  0  0  0  0  0  0  0  0  0  0  0
  182.1420  178.9870  140.9250 C   0  0  1  0  0  3  0  0  0  0  0  0
  183.4370  178.2450  141.2830 C   0  0  1  0  0  0  0  0  0  0  0  0
  184.2560  177.0370  138.3870 C   0  0  0  0  0  2  0  0  0  0  0  0
  183.6650  178.9690  142.6240 C   0  0  0  0  0  2  0  0  0  0  0  0
  187.4700  178.7580  145.1070 O   0  0  0  0  0  1  0  0  0  0  0  0
  187.2450  176.8170  143.7210 C   0  0  1  0  0  3  0  0  0  0  0  0
  185.8700  177.9180  141.9900 C   0  0  2  0  0  3  0  0  0  0  0  0
  189.9290  177.9150  145.8020 C   0  0  2  0  0  3  0  0  0  0  0  0
  189.2450  177.2750  144.6990 N   0  0  2  0  0  0  0  0  0  0  0  0
  185.8560  177.3550  143.4080 C   0  0  0  0  0  2  0  0  0  0  0  0
  189.4110  177.8660  143.4390 N   0  0  0  0  0  2  0  0  0  0  0  0
  188.2640  177.3300  142.6840 C   0  0  2  0  0  3  0  0  0  0  0  0
  191.3890  177.5070  145.8120 C   0  0  0  0  0  1  0  0  0  0  0  0
  189.2340  177.3630  147.0580 C   0  0  1  0  0  3  0  0  0  0  0  0
  187.5020  178.6480  141.6950 S   0  0  0  0  0  0  0  0  0  0  0  0
  188.9800  178.4870  148.0420 C   0  0  0  0  0  1  0  0  0  0  0  0
  187.8420  177.4040  144.9750 C   0  0  1  0  0  0  0  0  0  0  0  0
  187.6260  176.5860  146.5600 S   0  0  0  0  0  0  0  0  0  0  0  0
  180.5870  183.4550  135.8350 N   0  0  0  0  0  0  0  0  0  0  0  0
  180.5900  182.0910  137.5810 C   0  0  0  0  0  0  0  0  0  0  0  0
  180.6200  180.8700  138.2500 C   0  0  0  0  0  3  0  0  0  0  0  0
  180.7630  179.7920  136.0570 C   0  0  0  0  0  3  0  0  0  0  0  0
  180.6410  182.1730  136.2230 C   0  0  0  0  0  0  0  0  0  0  0  0
  180.5010  183.3150  138.1180 N   0  0  0  0  0  2  0  0  0  0  0  0
  180.7270  181.0430  135.4160 C   0  0  0  0  0  3  0  0  0  0  0  0
  180.7100  179.7010  137.4710 C   0  0  0  0  0  0  0  0  0  0  0  0
  180.5140  184.1180  137.0200 C   0  0  0  0  0  0  0  0  0  0  0  0
  178.9310  186.0050  137.0840 C   0  0  0  0  0  2  0  0  0  0  0  0
  180.3960  185.6050  137.1080 C   0  0  0  0  0  3  0  0  0  0  0  0
  179.6870  185.9910  138.3930 C   0  0  0  0  0  2  0  0  0  0  0  0
  1 16  1  0  0  0  0
  1 13  1  1  0  0  0
  2  6  1  0  0  0  0
  3  5  1  6  0  0  0
  3 10  1  0  0  0  0
  3 11  1  0  0  0  0
  4 35  1  1  0  0  0
  4  2  1  0  0  0  0
  7  8  2  0  0  0  0
  7  9  1  0  0  0  0
  8 12  1  0  0  0  0
  9  4  1  0  0  0  0
  9  5  2  0  0  0  0
 10  6  1  6  0  0  0
 10 11  1  0  0  0  0
 11  1  1  0  0  0  0
 11 13  1  6  0  0  0
 12  5  1  0  0  0  0
 15 19  1  6  0  0  0
 15 26  1  0  0  0  0
 16 19  1  1  0  0  0
 17 22  1  1  0  0  0
 17 23  1  0  0  0  0
 18 20  1  6  0  0  0
 18 26  1  0  0  0  0
 18 17  1  0  0  0  0
 21 24  1  1  0  0  0
 21 20  1  0  0  0  0
 21 15  1  0  0  0  0
 23 25  1  1  0  0  0
 24 16  1  0  0  0  0
 26 14  1  1  0  0  0
 26 27  1  0  0  0  0
 27 23  1  0  0  0  0
 28 32  1  0  0  0  0
 28 36  2  0  0  0  0
 29 33  1  0  0  0  0
 29 30  1  0  0  0  0
 31 35  1  0  0  0  0
 32 29  2  0  0  0  0
 34 31  2  0  0  0  0
 34 32  1  0  0  0  0
 35 30  2  0  0  0  0
 36 38  1  0  0  0  0
 36 33  1  0  0  0  0
 37 38  1  0  0  0  0
 37 39  1  0  0  0  0
 38 39  1  0  0  0  0
M  END
>  <MODEL>
3

>  <REMARK>
 VINA RESULT:      -8.1      1.616      2.273
  Name = 
  3 active torsions:
  status: ('A' for Active; 'I' for Inactive)
    1  A    between atoms: C_1  and  C_8
    2  A    between atoms: C_4  and  C_34
    3  A    between atoms: C_27  and  C_39
                            x       y       z     vdW  Elec       q    Type
                         _______ _______ _______ _____ _____    ______ ____

>  <TORSDO>
F 3

$$$$
=
 OpenBabel11062417553D

 39 48  0  0  1  0  0  0  0  0999 V2000
  190.5870  173.7520  136.7310 C   0  0  1  0  0  3  0  0  0  0  0  0
  189.1950  178.3260  138.5920 C   0  0  0  0  0  2  0  0  0  0  0  0
  190.4540  175.3760  138.3320 C   0  0  1  0  0  3  0  0  0  0  0  0
  190.1970  178.1520  139.7490 C   0  0  2  0  0  3  0  0  0  0  0  0
  191.5850  176.2530  138.8040 C   0  0  0  0  0  0  0  0  0  0  0  0
  189.5410  177.5470  137.3240 C   0  0  0  0  0  2  0  0  0  0  0  0
  192.8030  177.8940  139.7360 C   0  0  0  0  0  3  0  0  0  0  0  0
  193.6870  177.0470  139.3220 N   0  0  0  0  0  0  0  0  0  0  0  0
  191.4710  177.4200  139.4220 C   0  0  1  0  0  3  0  0  0  0  0  0
  189.3710  176.0440  137.5480 C   0  0  1  0  0  3  0  0  0  0  0  0
  190.4720  175.2850  136.7950 C   0  0  1  0  0  0  0  0  0  0  0  0
  193.0310  175.9100  138.6860 C   0  0  0  0  0  3  0  0  0  0  0  0
  189.5170  174.4120  135.9610 C   0  0  0  0  0  2  0  0  0  0  0  0
  194.9040  174.3940  137.2840 O   0  0  0  0  0  1  0  0  0  0  0  0
  194.1770  172.7250  135.7260 C   0  0  1  0  0  3  0  0  0  0  0  0
  191.7780  173.2950  135.8670 C   0  0  2  0  0  3  0  0  0  0  0  0
  197.1790  174.6490  135.8720 C   0  0  2  0  0  3  0  0  0  0  0  0
  196.0740  173.9040  135.3080 N   0  0  2  0  0  0  0  0  0  0  0  0
  192.9360  172.6260  136.6020 C   0  0  0  0  0  2  0  0  0  0  0  0
  195.1240  174.6470  134.5950 N   0  0  0  0  0  2  0  0  0  0  0  0
  193.9550  173.7500  134.5960 C   0  0  2  0  0  3  0  0  0  0  0  0
  198.2140  174.9300  134.8000 C   0  0  0  0  0  1  0  0  0  0  0  0
  197.7780  173.7080  136.9310 C   0  0  1  0  0  3  0  0  0  0  0  0
  192.4450  174.6990  134.9360 S   0  0  0  0  0  0  0  0  0  0  0  0
  198.0860  174.4840  138.1950 C   0  0  0  0  0  1  0  0  0  0  0  0
  195.3490  173.3680  136.4240 C   0  0  1  0  0  0  0  0  0  0  0  0
  196.5560  172.3640  137.2960 S   0  0  0  0  0  0  0  0  0  0  0  0
  187.5850  176.4780  144.4020 N   0  0  0  0  0  0  0  0  0  0  0  0
  187.8370  177.8340  142.6670 C   0  0  0  0  0  0  0  0  0  0  0  0
  188.4210  178.3260  141.5040 C   0  0  0  0  0  3  0  0  0  0  0  0
  190.0420  176.4990  141.6700 C   0  0  0  0  0  3  0  0  0  0  0  0
  188.3190  176.7350  143.3100 C   0  0  0  0  0  0  0  0  0  0  0  0
  186.7760  178.3260  143.3210 N   0  0  0  0  0  2  0  0  0  0  0  0
  189.4270  176.0320  142.8460 C   0  0  0  0  0  3  0  0  0  0  0  0
  189.5440  177.6430  140.9970 C   0  0  0  0  0  0  0  0  0  0  0  0
  186.6500  177.4640  144.3650 C   0  0  0  0  0  0  0  0  0  0  0  0
  186.0610  178.6460  146.4460 C   0  0  0  0  0  2  0  0  0  0  0  0
  185.6030  177.6250  145.4200 C   0  0  0  0  0  3  0  0  0  0  0  0
  185.0530  179.0390  145.3900 C   0  0  0  0  0  2  0  0  0  0  0  0
  1 13  1  6  0  0  0
  1 11  1  0  0  0  0
  2  4  1  0  0  0  0
  3  5  1  6  0  0  0
  4 35  1  1  0  0  0
  5  9  1  0  0  0  0
  6  2  1  0  0  0  0
  8  7  2  0  0  0  0
  9  7  1  6  0  0  0
  9  4  1  0  0  0  0
 10  6  1  6  0  0  0
 10  3  1  0  0  0  0
 11 13  1  1  0  0  0
 11 10  1  0  0  0  0
 11  3  1  0  0  0  0
 12  5  2  0  0  0  0
 12  8  1  0  0  0  0
 15 26  1  0  0  0  0
 15 19  1  1  0  0  0
 16 19  1  1  0  0  0
 16  1  1  0  0  0  0
 17 22  1  6  0  0  0
 17 23  1  0  0  0  0
 18 20  1  1  0  0  0
 18 17  1  0  0  0  0
 18 26  1  0  0  0  0
 21 20  1  1  0  0  0
 21 24  1  0  0  0  0
 21 15  1  0  0  0  0
 23 27  1  0  0  0  0
 23 25  1  1  0  0  0
 24 16  1  0  0  0  0
 26 14  1  1  0  0  0
 26 27  1  0  0  0  0
 29 32  1  0  0  0  0
 29 33  1  0  0  0  0
 30 29  2  0  0  0  0
 31 34  1  0  0  0  0
 32 28  1  0  0  0  0
 33 36  1  0  0  0  0
 34 32  2  0  0  0  0
 35 30  1  0  0  0  0
 35 31  2  0  0  0  0
 36 28  2  0  0  0  0
 36 38  1  0  0  0  0
 38 37  1  0  0  0  0
 39 38  1  0  0  0  0
 39 37  1  0  0  0  0
M  END
>  <MODEL>
4

>  <REMARK>
 VINA RESULT:      -7.8      7.742     11.533
  Name = 
  3 active torsions:
  status: ('A' for Active; 'I' for Inactive)
    1  A    between atoms: C_1  and  C_8
    2  A    between atoms: C_4  and  C_34
    3  A    between atoms: C_27  and  C_39
                            x       y       z     vdW  Elec       q    Type
                         _______ _______ _______ _____ _____    ______ ____

>  <TORSDO>
F 3

$$$$
=
 OpenBabel11062417553D

 39 48  0  0  1  0  0  0  0  0999 V2000
  185.8620  177.9600  140.9170 C   0  0  1  0  0  3  0  0  0  0  0  0
  181.5120  179.4270  138.6270 C   0  0  0  0  0  2  0  0  0  0  0  0
  183.6040  177.9470  140.5750 C   0  0  1  0  0  3  0  0  0  0  0  0
  180.7030  178.8100  139.7830 C   0  0  2  0  0  3  0  0  0  0  0  0
  182.5630  178.5460  141.4860 C   0  0  0  0  0  0  0  0  0  0  0  0
  182.9330  179.8510  138.9960 C   0  0  0  0  0  2  0  0  0  0  0  0
  180.6600  179.3780  142.3400 C   0  0  0  0  0  3  0  0  0  0  0  0
  181.4600  179.3290  143.3530 N   0  0  0  0  0  0  0  0  0  0  0  0
  181.3280  178.8910  141.1510 C   0  0  0  0  0  0  0  0  0  0  0  0
  183.8110  178.6280  139.2590 C   0  0  1  0  0  3  0  0  0  0  0  0
  184.7790  178.9290  140.4120 C   0  0  1  0  0  0  0  0  0  0  0  0
  182.7550  178.7990  142.9420 C   0  0  0  0  0  2  0  0  0  0  0  0
  186.0650  178.6280  139.6190 C   0  0  0  0  0  2  0  0  0  0  0  0
  189.2140  176.2550  143.2000 O   0  0  0  0  0  1  0  0  0  0  0  0
  188.8220  178.6170  143.3180 C   0  0  1  0  0  3  0  0  0  0  0  0
  186.6960  178.5680  142.0610 C   0  0  2  0  0  3  0  0  0  0  0  0
  190.3700  176.3780  145.6270 C   0  0  2  0  0  3  0  0  0  0  0  0
  189.6230  177.5180  145.1390 N   0  0  2  0  0  0  0  0  0  0  0  0
  188.2120  178.4570  141.9320 C   0  0  0  0  0  2  0  0  0  0  0  0
  188.2460  177.5140  145.3970 N   0  0  0  0  0  2  0  0  0  0  0  0
  187.7340  178.4720  144.4010 C   0  0  2  0  0  3  0  0  0  0  0  0
  190.6560  176.5420  147.1070 C   0  0  0  0  0  1  0  0  0  0  0  0
  191.6920  176.4180  144.8410 C   0  0  1  0  0  3  0  0  0  0  0  0
  186.2150  177.8270  143.6430 S   0  0  0  0  0  0  0  0  0  0  0  0
  192.0550  175.0250  144.3730 C   0  0  0  0  0  1  0  0  0  0  0  0
  189.7210  177.4700  143.7070 C   0  0  1  0  0  0  0  0  0  0  0  0
  191.4860  177.5420  143.3810 S   0  0  0  0  0  0  0  0  0  0  0  0
  178.9450  173.7090  138.3120 N   0  0  0  0  0  0  0  0  0  0  0  0
  180.0470  175.5950  137.9350 C   0  0  0  0  0  0  0  0  0  0  0  0
  180.5280  176.8710  138.2110 C   0  0  0  0  0  3  0  0  0  0  0  0
  179.4070  176.7100  140.3810 C   0  0  0  0  0  3  0  0  0  0  0  0
  179.2830  174.9010  138.8240 C   0  0  0  0  0  0  0  0  0  0  0  0
  180.2280  174.8760  136.8190 N   0  0  0  0  0  2  0  0  0  0  0  0
  178.9350  175.4230  140.0660 C   0  0  0  0  0  3  0  0  0  0  0  0
  180.2020  177.4360  139.4590 C   0  0  0  0  0  0  0  0  0  0  0  0
  179.5500  173.7300  137.0950 C   0  0  0  0  0  0  0  0  0  0  0  0
  180.5250  171.5890  136.3640 C   0  0  0  0  0  2  0  0  0  0  0  0
  179.4290  172.6090  136.1140 C   0  0  0  0  0  3  0  0  0  0  0  0
  179.1180  171.3150  136.8440 C   0  0  0  0  0  2  0  0  0  0  0  0
  1 13  1  6  0  0  0
  1 16  1  0  0  0  0
  2  6  1  0  0  0  0
  2  4  1  0  0  0  0
  3  5  1  1  0  0  0
  4 35  1  6  0  0  0
  4  9  1  0  0  0  0
  5 12  1  0  0  0  0
  7  8  2  0  0  0  0
  9  5  2  0  0  0  0
  9  7  1  0  0  0  0
 10  6  1  1  0  0  0
 10 11  1  0  0  0  0
 10  3  1  0  0  0  0
 11 13  1  6  0  0  0
 11  3  1  0  0  0  0
 11  1  1  0  0  0  0
 12  8  1  0  0  0  0
 15 19  1  6  0  0  0
 15 26  1  0  0  0  0
 15 21  1  0  0  0  0
 16 19  1  6  0  0  0
 16 24  1  0  0  0  0
 17 22  1  1  0  0  0
 18 20  1  6  0  0  0
 18 17  1  0  0  0  0
 21 24  1  6  0  0  0
 21 20  1  0  0  0  0
 23 25  1  6  0  0  0
 23 17  1  0  0  0  0
 26 14  1  6  0  0  0
 26 18  1  0  0  0  0
 27 26  1  0  0  0  0
 27 23  1  0  0  0  0
 28 32  1  0  0  0  0
 29 30  2  0  0  0  0
 29 32  1  0  0  0  0
 30 35  1  0  0  0  0
 32 34  2  0  0  0  0
 33 36  1  0  0  0  0
 33 29  1  0  0  0  0
 34 31  1  0  0  0  0
 35 31  2  0  0  0  0
 36 28  2  0  0  0  0
 37 39  1  0  0  0  0
 38 37  1  0  0  0  0
 38 39  1  0  0  0  0
 38 36  1  0  0  0  0
M  END
>  <MODEL>
5

>  <REMARK>
 VINA RESULT:      -7.5      3.068      5.488
  Name = 
  3 active torsions:
  status: ('A' for Active; 'I' for Inactive)
    1  A    between atoms: C_1  and  C_8
    2  A    between atoms: C_4  and  C_34
    3  A    between atoms: C_27  and  C_39
                            x       y       z     vdW  Elec       q    Type
                         _______ _______ _______ _____ _____    ______ ____

>  <TORSDO>
F 3

$$$$
=
 OpenBabel11062417553D

 39 48  0  0  1  0  0  0  0  0999 V2000
  190.2360  176.4490  139.7220 C   0  0  1  0  0  3  0  0  0  0  0  0
  189.3170  176.4010  134.6750 C   0  0  0  0  0  2  0  0  0  0  0  0
  189.0090  175.9880  137.8520 C   0  0  1  0  0  3  0  0  0  0  0  0
  187.8330  176.0950  134.9550 C   0  0  2  0  0  3  0  0  0  0  0  0
  187.7520  176.6960  137.4160 C   0  0  0  0  0  0  0  0  0  0  0  0
  190.0430  177.1290  135.8040 C   0  0  0  0  0  2  0  0  0  0  0  0
  186.0090  177.4750  136.2320 C   0  0  0  0  0  3  0  0  0  0  0  0
  185.7770  177.8880  137.4340 N   0  0  0  0  0  0  0  0  0  0  0  0
  187.2460  176.7220  136.1910 C   0  0  0  0  0  0  0  0  0  0  0  0
  190.2260  176.2100  137.0120 C   0  0  1  0  0  3  0  0  0  0  0  0
  190.0580  177.0210  138.3040 C   0  0  1  0  0  0  0  0  0  0  0  0
  186.8430  177.4490  138.3280 C   0  0  0  0  0  2  0  0  0  0  0  0
  191.4360  176.6650  138.8920 C   0  0  0  0  0  2  0  0  0  0  0  0
  190.0990  176.0590  144.1010 O   0  0  0  0  0  1  0  0  0  0  0  0
  190.3870  178.2380  143.1470 C   0  0  1  0  0  3  0  0  0  0  0  0
  190.0370  177.5220  140.8090 C   0  0  2  0  0  3  0  0  0  0  0  0
  189.0020  177.2100  146.2720 C   0  0  2  0  0  3  0  0  0  0  0  0
  189.2150  178.0020  145.0800 N   0  0  2  0  0  0  0  0  0  0  0  0
  191.0220  177.5030  141.9740 C   0  0  0  0  0  2  0  0  0  0  0  0
  188.1870  177.9790  144.1270 N   0  0  0  0  0  2  0  0  0  0  0  0
  188.8770  178.4290  142.9050 C   0  0  2  0  0  3  0  0  0  0  0  0
  188.1030  177.9570  147.2360 C   0  0  0  0  0  1  0  0  0  0  0  0
  190.4030  177.0590  146.8880 C   0  0  1  0  0  3  0  0  0  0  0  0
  188.3620  177.4110  141.4920 S   0  0  0  0  0  0  0  0  0  0  0  0
  190.6140  175.6290  147.3440 C   0  0  0  0  0  1  0  0  0  0  0  0
  190.3400  177.4140  144.4090 C   0  0  1  0  0  0  0  0  0  0  0  0
  191.6700  177.5070  145.6120 S   0  0  0  0  0  0  0  0  0  0  0  0
  186.3970  170.7020  134.5940 N   0  0  0  0  0  0  0  0  0  0  0  0
  185.9160  172.8570  134.7940 C   0  0  0  0  0  0  0  0  0  0  0  0
  186.1770  174.2200  134.8940 C   0  0  0  0  0  3  0  0  0  0  0  0
  188.5550  173.6730  134.7040 C   0  0  0  0  0  3  0  0  0  0  0  0
  186.9120  171.9380  134.6580 C   0  0  0  0  0  0  0  0  0  0  0  0
  184.7240  172.2480  134.8230 N   0  0  0  0  0  2  0  0  0  0  0  0
  188.2540  172.3030  134.6090 C   0  0  0  0  0  3  0  0  0  0  0  0
  187.5220  174.6340  134.8460 C   0  0  0  0  0  0  0  0  0  0  0  0
  185.0610  170.9370  134.6870 C   0  0  0  0  0  0  0  0  0  0  0  0
  183.4630  169.6960  136.0930 C   0  0  0  0  0  2  0  0  0  0  0  0
  184.0470  169.8390  134.6990 C   0  0  0  0  0  3  0  0  0  0  0  0
  182.6750  170.4070  135.0160 C   0  0  0  0  0  2  0  0  0  0  0  0
  1 13  1  6  0  0  0
  1 16  1  0  0  0  0
  2  4  1  0  0  0  0
  2  6  1  0  0  0  0
  3  5  1  6  0  0  0
  3 11  1  0  0  0  0
  4 35  1  1  0  0  0
  4  9  1  0  0  0  0
  5 12  1  0  0  0  0
  7  8  2  0  0  0  0
  8 12  1  0  0  0  0
  9  7  1  0  0  0  0
  9  5  2  0  0  0  0
 10  6  1  6  0  0  0
 10  3  1  0  0  0  0
 10 11  1  0  0  0  0
 11 13  1  1  0  0  0
 11  1  1  0  0  0  0
 15 19  1  6  0  0  0
 15 26  1  0  0  0  0
 16 24  1  0  0  0  0
 16 19  1  1  0  0  0
 17 23  1  0  0  0  0
 17 22  1  1  0  0  0
 18 20  1  6  0  0  0
 18 17  1  0  0  0  0
 21 24  1  6  0  0  0
 21 15  1  0  0  0  0
 21 20  1  0  0  0  0
 23 25  1  6  0  0  0
 26 14  1  6  0  0  0
 26 18  1  0  0  0  0
 26 27  1  0  0  0  0
 27 23  1  0  0  0  0
 28 32  1  0  0  0  0
 28 36  2  0  0  0  0
 29 33  1  0  0  0  0
 29 30  1  0  0  0  0
 31 35  1  0  0  0  0
 32 29  2  0  0  0  0
 34 32  1  0  0  0  0
 34 31  2  0  0  0  0
 35 30  2  0  0  0  0
 36 38  1  0  0  0  0
 36 33  1  0  0  0  0
 38 39  1  0  0  0  0
 38 37  1  0  0  0  0
 39 37  1  0  0  0  0
M  END
>  <MODEL>
6

>  <REMARK>
 VINA RESULT:      -7.3      6.007      9.065
  Name = 
  3 active torsions:
  status: ('A' for Active; 'I' for Inactive)
    1  A    between atoms: C_1  and  C_8
    2  A    between atoms: C_4  and  C_34
    3  A    between atoms: C_27  and  C_39
                            x       y       z     vdW  Elec       q    Type
                         _______ _______ _______ _____ _____    ______ ____

>  <TORSDO>
F 3

$$$$
=
 OpenBabel11062417553D

 39 48  0  0  1  0  0  0  0  0999 V2000
  189.3060  177.1190  140.2850 C   0  0  1  0  0  3  0  0  0  0  0  0
  187.9520  177.9060  135.4000 C   0  0  0  0  0  2  0  0  0  0  0  0
  187.9280  176.9480  138.4720 C   0  0  1  0  0  3  0  0  0  0  0  0
  186.5040  177.5140  135.7450 C   0  0  2  0  0  3  0  0  0  0  0  0
  186.6270  177.6830  138.2720 C   0  0  0  0  0  0  0  0  0  0  0  0
  188.7640  178.4520  136.5740 C   0  0  0  0  0  2  0  0  0  0  0  0
  184.7780  178.6010  137.3880 C   0  0  0  0  0  3  0  0  0  0  0  0
  184.6450  178.7960  138.6590 N   0  0  0  0  0  0  0  0  0  0  0  0
  186.0170  177.9030  137.1160 C   0  0  0  0  0  0  0  0  0  0  0  0
  189.0640  177.3460  137.5850 C   0  0  1  0  0  3  0  0  0  0  0  0
  188.9970  177.9190  139.0080 C   0  0  1  0  0  0  0  0  0  0  0  0
  185.7910  178.2420  139.3720 C   0  0  0  0  0  2  0  0  0  0  0  0
  190.4260  177.5090  139.4090 C   0  0  0  0  0  2  0  0  0  0  0  0
  190.0500  176.0950  144.4990 O   0  0  0  0  0  1  0  0  0  0  0  0
  189.8830  178.4060  143.8860 C   0  0  1  0  0  3  0  0  0  0  0  0
  189.1860  177.9850  141.5540 C   0  0  2  0  0  3  0  0  0  0  0  0
  189.2500  176.7480  146.9830 C   0  0  2  0  0  3  0  0  0  0  0  0
  189.1350  177.7240  145.9220 N   0  0  2  0  0  0  0  0  0  0  0  0
  190.3690  177.9490  142.5180 C   0  0  0  0  0  2  0  0  0  0  0  0
  187.9560  177.6820  145.1650 N   0  0  0  0  0  2  0  0  0  0  0  0
  188.3420  178.3990  143.9370 C   0  0  2  0  0  3  0  0  0  0  0  0
  188.4650  177.2070  148.1960 C   0  0  0  0  0  1  0  0  0  0  0  0
  190.7510  176.7230  147.3220 C   0  0  1  0  0  3  0  0  0  0  0  0
  187.6980  177.5270  142.4800 S   0  0  0  0  0  0  0  0  0  0  0  0
  191.2170  175.2920  147.4910 C   0  0  0  0  0  1  0  0  0  0  0  0
  190.1760  177.4130  144.9840 C   0  0  1  0  0  0  0  0  0  0  0  0
  191.6890  177.5340  145.9450 S   0  0  0  0  0  0  0  0  0  0  0  0
  185.1240  172.2180  134.5940 N   0  0  0  0  0  0  0  0  0  0  0  0
  184.6400  174.2790  135.2500 C   0  0  0  0  0  0  0  0  0  0  0  0
  184.8880  175.6120  135.5640 C   0  0  0  0  0  3  0  0  0  0  0  0
  187.2250  175.2100  134.9580 C   0  0  0  0  0  3  0  0  0  0  0  0
  185.6220  173.4430  134.8150 C   0  0  0  0  0  0  0  0  0  0  0  0
  183.4730  173.6240  135.3260 N   0  0  0  0  0  2  0  0  0  0  0  0
  186.9380  173.8670  134.6540 C   0  0  0  0  0  3  0  0  0  0  0  0
  186.2050  176.0840  135.4120 C   0  0  0  0  0  0  0  0  0  0  0  0
  183.8110  172.3750  134.9070 C   0  0  0  0  0  0  0  0  0  0  0  0
  182.1330  171.1110  136.1950 C   0  0  0  0  0  2  0  0  0  0  0  0
  182.8270  171.2510  134.8520 C   0  0  0  0  0  3  0  0  0  0  0  0
  181.4200  171.7860  135.0460 C   0  0  0  0  0  2  0  0  0  0  0  0
  1 13  1  6  0  0  0
  1 16  1  0  0  0  0
  2  4  1  0  0  0  0
  2  6  1  0  0  0  0
  3  5  1  6  0  0  0
  3 11  1  0  0  0  0
  4 35  1  1  0  0  0
  4  9  1  0  0  0  0
  5 12  1  0  0  0  0
  7  8  2  0  0  0  0
  8 12  1  0  0  0  0
  9  7  1  0  0  0  0
  9  5  2  0  0  0  0
 10  6  1  6  0  0  0
 10  3  1  0  0  0  0
 10 11  1  0  0  0  0
 11 13  1  6  0  0  0
 11  1  1  0  0  0  0
 15 19  1  6  0  0  0
 15 21  1  0  0  0  0
 15 26  1  0  0  0  0
 16 24  1  0  0  0  0
 16 19  1  1  0  0  0
 17 23  1  0  0  0  0
 17 22  1  1  0  0  0
 18 20  1  6  0  0  0
 18 17  1  0  0  0  0
 21 24  1  6  0  0  0
 21 20  1  0  0  0  0
 23 25  1  6  0  0  0
 26 14  1  6  0  0  0
 26 18  1  0  0  0  0
 26 27  1  0  0  0  0
 27 23  1  0  0  0  0
 28 32  1  0  0  0  0
 28 36  2  0  0  0  0
 29 33  1  0  0  0  0
 29 30  1  0  0  0  0
 31 35  1  0  0  0  0
 32 29  2  0  0  0  0
 34 32  1  0  0  0  0
 34 31  2  0  0  0  0
 35 30  2  0  0  0  0
 36 33  1  0  0  0  0
 38 36  1  0  0  0  0
 38 39  1  0  0  0  0
 38 37  1  0  0  0  0
 39 37  1  0  0  0  0
M  END
>  <MODEL>
7

>  <REMARK>
 VINA RESULT:      -6.8      4.965      7.779
  Name = 
  3 active torsions:
  status: ('A' for Active; 'I' for Inactive)
    1  A    between atoms: C_1  and  C_8
    2  A    between atoms: C_4  and  C_34
    3  A    between atoms: C_27  and  C_39
                            x       y       z     vdW  Elec       q    Type
                         _______ _______ _______ _____ _____    ______ ____

>  <TORSDO>
F 3

$$$$
=
 OpenBabel11062417553D

 39 48  0  0  1  0  0  0  0  0999 V2000
  187.1820  177.9220  138.3050 C   0  0  1  0  0  3  0  0  0  0  0  0
  182.6450  179.0890  140.3970 C   0  0  0  0  0  2  0  0  0  0  0  0
  184.9220  178.2550  138.2810 C   0  0  1  0  0  3  0  0  0  0  0  0
  181.9330  178.4860  139.1720 C   0  0  2  0  0  3  0  0  0  0  0  0
  183.8670  177.1840  138.1760 C   0  0  0  0  0  0  0  0  0  0  0  0
  184.0360  178.5210  140.6710 C   0  0  0  0  0  2  0  0  0  0  0  0
  181.9300  176.0470  138.2180 C   0  0  0  0  0  3  0  0  0  0  0  0
  182.7670  175.2170  137.6870 N   0  0  0  0  0  0  0  0  0  0  0  0
  182.5960  177.2930  138.5360 C   0  0  1  0  0  3  0  0  0  0  0  0
  185.0250  178.9660  139.5930 C   0  0  1  0  0  3  0  0  0  0  0  0
  186.0030  177.8220  139.2900 C   0  0  1  0  0  0  0  0  0  0  0  0
  184.0880  175.8300  137.5940 C   0  0  0  0  0  3  0  0  0  0  0  0
  187.2810  178.6250  139.5970 C   0  0  0  0  0  2  0  0  0  0  0  0
  191.1250  177.1240  136.5260 O   0  0  0  0  0  1  0  0  0  0  0  0
  190.2090  175.5280  138.0610 C   0  0  1  0  0  3  0  0  0  0  0  0
  188.0000  176.6170  138.2480 C   0  0  2  0  0  3  0  0  0  0  0  0
  192.5470  175.1410  135.3920 C   0  0  2  0  0  3  0  0  0  0  0  0
  191.4930  174.8120  136.3280 N   0  0  2  0  0  0  0  0  0  0  0  0
  189.4670  176.7160  138.6580 C   0  0  0  0  0  2  0  0  0  0  0  0
  190.2050  174.6830  135.7910 N   0  0  0  0  0  2  0  0  0  0  0  0
  189.3480  174.8480  136.9790 C   0  0  2  0  0  3  0  0  0  0  0  0
  192.9890  173.8940  134.6530 C   0  0  0  0  0  1  0  0  0  0  0  0
  193.6990  175.6500  136.2740 C   0  0  1  0  0  3  0  0  0  0  0  0
  187.9330  175.9140  136.5800 S   0  0  0  0  0  0  0  0  0  0  0  0
  194.3110  176.8910  135.6560 C   0  0  0  0  0  1  0  0  0  0  0  0
  191.3980  175.9290  137.2250 C   0  0  1  0  0  0  0  0  0  0  0  0
  193.0330  176.0470  137.9580 S   0  0  0  0  0  0  0  0  0  0  0  0
  180.4890  182.5740  135.6400 N   0  0  0  0  0  0  0  0  0  0  0  0
  181.1740  181.8290  137.6120 C   0  0  0  0  0  0  0  0  0  0  0  0
  181.5460  180.8820  138.5610 C   0  0  0  0  0  3  0  0  0  0  0  0
  181.1590  179.1720  136.8520 C   0  0  0  0  0  3  0  0  0  0  0  0
  180.8080  181.4810  136.3470 C   0  0  0  0  0  0  0  0  0  0  0  0
  181.1020  183.1570  137.7670 N   0  0  0  0  0  2  0  0  0  0  0  0
  180.7850  180.1560  135.9210 C   0  0  0  0  0  3  0  0  0  0  0  0
  181.5400  179.5280  138.1710 C   0  0  0  0  0  0  0  0  0  0  0  0
  180.6920  183.5740  136.5390 C   0  0  0  0  0  0  0  0  0  0  0  0
  178.9350  185.2790  136.2610 C   0  0  0  0  0  2  0  0  0  0  0  0
  180.4290  185.0110  136.2220 C   0  0  0  0  0  3  0  0  0  0  0  0
  179.8060  185.6990  137.4230 C   0  0  0  0  0  2  0  0  0  0  0  0
  1 11  1  0  0  0  0
  1 13  1  1  0  0  0
  2  6  1  0  0  0  0
  3  5  1  1  0  0  0
  3 11  1  0  0  0  0
  3 10  1  0  0  0  0
  4 35  1  6  0  0  0
  4  2  1  0  0  0  0
  5  9  1  0  0  0  0
  8  7  2  0  0  0  0
  9  7  1  1  0  0  0
  9  4  1  0  0  0  0
 10  6  1  1  0  0  0
 11 10  1  0  0  0  0
 11 13  1  6  0  0  0
 12  8  1  0  0  0  0
 12  5  2  0  0  0  0
 15 19  1  6  0  0  0
 16  1  1  0  0  0  0
 16 19  1  6  0  0  0
 17 22  1  1  0  0  0
 17 23  1  0  0  0  0
 17 18  1  0  0  0  0
 18 20  1  6  0  0  0
 18 26  1  0  0  0  0
 21 20  1  6  0  0  0
 21 15  1  0  0  0  0
 23 25  1  6  0  0  0
 23 27  1  0  0  0  0
 24 21  1  0  0  0  0
 24 16  1  0  0  0  0
 26 14  1  6  0  0  0
 26 27  1  0  0  0  0
 26 15  1  0  0  0  0
 28 32  1  0  0  0  0
 28 36  2  0  0  0  0
 29 33  1  0  0  0  0
 29 30  1  0  0  0  0
 31 35  1  0  0  0  0
 32 29  2  0  0  0  0
 34 32  1  0  0  0  0
 34 31  2  0  0  0  0
 35 30  2  0  0  0  0
 36 33  1  0  0  0  0
 37 39  1  0  0  0  0
 38 37  1  0  0  0  0
 38 36  1  0  0  0  0
 38 39  1  0  0  0  0
M  END
>  <MODEL>
8

>  <REMARK>
 VINA RESULT:      -6.6      5.295      6.406
  Name = 
  3 active torsions:
  status: ('A' for Active; 'I' for Inactive)
    1  A    between atoms: C_1  and  C_8
    2  A    between atoms: C_4  and  C_34
    3  A    between atoms: C_27  and  C_39
                            x       y       z     vdW  Elec       q    Type
                         _______ _______ _______ _____ _____    ______ ____

>  <TORSDO>
F 3

$$$$
=
 OpenBabel11062417553D

 39 48  0  0  1  0  0  0  0  0999 V2000
  185.8150  177.0680  136.1630 C   0  0  1  0  0  3  0  0  0  0  0  0
  190.9340  176.8730  135.8790 C   0  0  0  0  0  2  0  0  0  0  0  0
  187.9030  176.4990  136.8940 C   0  0  1  0  0  3  0  0  0  0  0  0
  190.9450  175.7750  136.9590 C   0  0  2  0  0  3  0  0  0  0  0  0
  188.4980  175.1140  136.8930 C   0  0  0  0  0  0  0  0  0  0  0  0
  189.6420  176.9600  135.0700 C   0  0  0  0  0  2  0  0  0  0  0  0
  189.9100  173.3690  136.9690 C   0  0  0  0  0  3  0  0  0  0  0  0
  188.7400  172.8210  136.9370 N   0  0  0  0  0  0  0  0  0  0  0  0
  189.7880  174.8120  136.9410 C   0  0  1  0  0  3  0  0  0  0  0  0
  188.4940  177.4820  135.9350 C   0  0  1  0  0  3  0  0  0  0  0  0
  187.1940  176.7610  135.5520 C   0  0  1  0  0  0  0  0  0  0  0  0
  187.7070  173.8510  136.8870 C   0  0  0  0  0  3  0  0  0  0  0  0
  186.4000  178.0380  135.2200 C   0  0  0  0  0  2  0  0  0  0  0  0
  181.9790  175.7430  137.8610 O   0  0  0  0  0  1  0  0  0  0  0  0
  182.3160  175.5630  135.4950 C   0  0  1  0  0  3  0  0  0  0  0  0
  184.7020  176.2000  135.5450 C   0  0  2  0  0  3  0  0  0  0  0  0
  180.2120  173.7200  137.7130 C   0  0  2  0  0  3  0  0  0  0  0  0
  181.0580  174.0070  136.5740 N   0  0  2  0  0  0  0  0  0  0  0  0
  183.2770  176.7310  135.6700 C   0  0  0  0  0  2  0  0  0  0  0  0
  182.3150  173.3880  136.5630 N   0  0  0  0  0  2  0  0  0  0  0  0
  183.0720  174.2250  135.6150 C   0  0  2  0  0  3  0  0  0  0  0  0
  179.5380  172.3740  137.5290 C   0  0  0  0  0  1  0  0  0  0  0  0
  179.1500  174.8320  137.6940 C   0  0  1  0  0  3  0  0  0  0  0  0
  184.7420  174.5360  136.2590 S   0  0  0  0  0  0  0  0  0  0  0  0
  178.9320  175.3590  139.0980 C   0  0  0  0  0  1  0  0  0  0  0  0
  181.3490  175.4120  136.6430 C   0  0  1  0  0  0  0  0  0  0  0  0
  179.7370  176.2010  136.5910 S   0  0  0  0  0  0  0  0  0  0  0  0
  191.6870  177.8080  142.1160 N   0  0  0  0  0  0  0  0  0  0  0  0
  190.4320  176.9620  140.4960 C   0  0  0  0  0  0  0  0  0  0  0  0
  190.1500  176.4480  139.2340 C   0  0  0  0  0  3  0  0  0  0  0  0
  192.5260  176.7160  138.7100 C   0  0  0  0  0  3  0  0  0  0  0  0
  191.6880  177.3400  140.8600 C   0  0  0  0  0  0  0  0  0  0  0  0
  189.5740  177.1730  141.5040 N   0  0  0  0  0  2  0  0  0  0  0  0
  192.7730  177.2350  139.9930 C   0  0  0  0  0  3  0  0  0  0  0  0
  191.2190  176.3220  138.3260 C   0  0  0  0  0  0  0  0  0  0  0  0
  190.3820  177.6780  142.4750 C   0  0  0  0  0  0  0  0  0  0  0  0
  189.3830  176.9010  144.5890 C   0  0  0  0  0  2  0  0  0  0  0  0
  189.8640  178.1110  143.8080 C   0  0  0  0  0  3  0  0  0  0  0  0
  190.7230  177.5210  144.9120 C   0  0  0  0  0  2  0  0  0  0  0  0
  1 13  1  6  0  0  0
  2  4  1  0  0  0  0
  3  5  1  6  0  0  0
  4 35  1  1  0  0  0
  5  9  1  0  0  0  0
  6  2  1  0  0  0  0
  8  7  2  0  0  0  0
  9  4  1  0  0  0  0
  9  7  1  6  0  0  0
 10  6  1  6  0  0  0
 10  3  1  0  0  0  0
 11 13  1  1  0  0  0
 11 10  1  0  0  0  0
 11  1  1  0  0  0  0
 11  3  1  0  0  0  0
 12  5  2  0  0  0  0
 12  8  1  0  0  0  0
 15 21  1  0  0  0  0
 15 19  1  1  0  0  0
 15 26  1  0  0  0  0
 16 19  1  1  0  0  0
 16  1  1  0  0  0  0
 16 24  1  0  0  0  0
 17 22  1  6  0  0  0
 18 20  1  1  0  0  0
 18 26  1  0  0  0  0
 18 17  1  0  0  0  0
 21 24  1  1  0  0  0
 21 20  1  0  0  0  0
 23 17  1  0  0  0  0
 23 25  1  1  0  0  0
 26 14  1  1  0  0  0
 27 26  1  0  0  0  0
 27 23  1  0  0  0  0
 28 36  2  0  0  0  0
 29 32  1  0  0  0  0
 29 33  1  0  0  0  0
 30 29  2  0  0  0  0
 31 34  1  0  0  0  0
 32 28  1  0  0  0  0
 33 36  1  0  0  0  0
 34 32  2  0  0  0  0
 35 31  2  0  0  0  0
 35 30  1  0  0  0  0
 36 38  1  0  0  0  0
 37 39  1  0  0  0  0
 38 37  1  0  0  0  0
 38 39  1  0  0  0  0
M  END
>  <MODEL>
9

>  <REMARK>
 VINA RESULT:      -6.5      5.877     11.749
  Name = 
  3 active torsions:
  status: ('A' for Active; 'I' for Inactive)
    1  A    between atoms: C_1  and  C_8
    2  A    between atoms: C_4  and  C_34
    3  A    between atoms: C_27  and  C_39
                            x       y       z     vdW  Elec       q    Type
                         _______ _______ _______ _____ _____    ______ ____

>  <TORSDO>
F 3

$$$$
