=
 OpenBabel11062412353D

 51 59  0  0  1  0  0  0  0  0999 V2000
  193.9290  176.1070  139.4910 N   0  0  0  0  0  0  0  0  0  0  0  0
  187.0240  177.4360  139.5250 C   0  0  2  0  0  3  0  0  0  0  0  0
  186.1260  177.6200  136.6970 C   0  0  0  0  0  2  0  0  0  0  0  0
  185.7290  178.9970  144.7550 C   0  0  2  0  0  0  0  0  0  0  0  0
  191.8730  176.5030  135.4650 C   0  0  0  0  0  2  0  0  0  0  0  0
  187.9390  176.9840  138.3710 C   0  0  0  0  0  2  0  0  0  0  0  0
  180.9600  178.0510  140.3460 C   0  0  0  0  0  1  0  0  0  0  0  0
  189.6040  173.6700  136.1560 C   0  0  0  0  0  0  0  0  0  0  0  0
  186.1920  178.2860  143.4990 C   0  0  1  0  0  3  0  0  0  0  0  0
  187.3290  174.7930  136.2090 C   0  0  1  0  0  3  0  0  0  0  0  0
  182.3050  178.2730  139.6960 C   0  0  2  0  0  3  0  0  0  0  0  0
  184.4490  178.4300  144.6940 O   0  0  0  0  0  0  0  0  0  0  0  0
  193.4770  175.1340  138.7580 C   0  0  0  0  0  3  0  0  0  0  0  0
  188.9630  178.6790  140.3610 O   0  0  0  0  0  0  0  0  0  0  0  0
  189.6030  177.2240  142.1380 C   0  0  1  0  0  3  0  0  0  0  0  0
  184.4570  177.9070  140.9780 C   0  0  2  0  0  3  0  0  0  0  0  0
  186.0170  178.5160  139.0460 C   0  0  1  0  0  3  0  0  0  0  0  0
  187.1560  177.1410  143.7890 C   0  0  0  0  0  2  0  0  0  0  0  0
  185.6810  180.5060  144.5880 C   0  0  0  0  0  1  0  0  0  0  0  0
  192.9750  176.3170  136.5180 C   0  0  0  0  0  2  0  0  0  0  0  0
  185.2130  177.9810  137.8520 C   0  0  0  0  0  2  0  0  0  0  0  0
  191.5000  174.5700  137.4970 C   0  0  0  0  0  3  0  0  0  0  0  0
  185.0560  179.0790  140.1310 C   0  0  1  0  0  0  0  0  0  0  0  0
  187.1350  176.5660  137.1350 C   0  0  1  0  0  0  0  0  0  0  0  0
  190.5290  174.8210  136.3840 C   0  0  1  0  0  3  0  0  0  0  0  0
  186.5590  175.2930  137.2810 O   0  0  0  0  0  0  0  0  0  0  0  0
  191.2260  175.2240  135.1660 N   0  0  0  0  0  2  0  0  0  0  0  0
  183.3080  177.2420  140.2250 C   0  0  0  0  0  2  0  0  0  0  0  0
  190.5570  176.1100  142.5510 C   0  0  0  0  0  1  0  0  0  0  0  0
  188.0010  176.1350  135.9940 C   0  0  0  0  0  2  0  0  0  0  0  0
  186.3980  178.6280  145.9300 O   0  0  0  0  0  1  0  0  0  0  0  0
  190.8900  176.2790  139.7990 F   0  0  0  0  0  0  0  0  0  0  0  0
  192.9000  177.4270  141.6470 F   0  0  0  0  0  0  0  0  0  0  0  0
  190.0930  178.1940  141.0600 C   0  0  1  0  0  3  0  0  0  0  0  0
  182.7720  179.7060  139.9320 C   0  0  0  0  0  2  0  0  0  0  0  0
  192.5490  177.9400  140.4130 C   0  0  2  0  0  3  0  0  0  0  0  0
  183.9620  178.3680  142.3550 C   0  0  0  0  0  2  0  0  0  0  0  0
  190.0720  172.5610  135.6670 N   0  0  0  0  0  2  0  0  0  0  0  0
  184.0900  179.8920  139.4550 O   0  0  0  0  0  0  0  0  0  0  0  0
  187.3260  176.2110  142.5820 C   0  0  0  0  0  2  0  0  0  0  0  0
  188.3390  176.6990  141.5420 C   0  0  1  0  0  3  0  0  0  0  0  0
  185.8050  179.9140  140.9690 O   0  0  0  0  0  1  0  0  0  0  0  0
  192.5880  175.3370  137.6080 C   0  0  0  0  0  0  0  0  0  0  0  0
  188.2470  173.7290  136.6710 N   0  0  0  0  0  0  0  0  0  0  0  0
  187.8530  177.8830  140.7370 C   0  0  2  0  0  3  0  0  0  0  0  0
  191.1000  177.6240  140.0430 C   0  0  1  0  0  3  0  0  0  0  0  0
  184.7730  177.7630  143.4930 C   0  0  1  0  0  3  0  0  0  0  0  0
  193.5480  177.5120  139.3340 C   0  0  0  0  0  2  0  0  0  0  0  0
  187.6540  172.4740  137.1450 C   0  0  0  0  0  3  0  0  0  0  0  0
  186.7550  171.8430  136.0940 C   0  0  0  0  0  2  0  0  0  0  0  0
  186.1450  172.6280  137.2280 C   0  0  0  0  0  2  0  0  0  0  0  0
  2  6  1  6  0  0  0
  2 45  1  0  0  0  0
  3 24  1  0  0  0  0
  3 21  1  0  0  0  0
  4 19  1  6  0  0  0
  4 31  1  0  0  0  0
  5 20  1  0  0  0  0
  8 25  1  0  0  0  0
  8 44  1  0  0  0  0
  9 18  1  1  0  0  0
  9  4  1  0  0  0  0
 10 30  1  1  0  0  0
 10 44  1  0  0  0  0
 10 26  1  0  0  0  0
 11 35  1  0  0  0  0
 11 28  1  0  0  0  0
 11  7  1  1  0  0  0
 12  4  1  0  0  0  0
 13  1  2  0  0  0  0
 15 29  1  6  0  0  0
 16 28  1  6  0  0  0
 16 37  1  0  0  0  0
 17 21  1  6  0  0  0
 17  2  1  0  0  0  0
 17 23  1  0  0  0  0
 20 43  1  0  0  0  0
 22 43  2  0  0  0  0
 23 42  1  1  0  0  0
 23 16  1  0  0  0  0
 24 30  1  6  0  0  0
 24 26  1  0  0  0  0
 24  6  1  0  0  0  0
 25 22  1  1  0  0  0
 27  5  1  0  0  0  0
 27 25  1  0  0  0  0
 34 14  1  6  0  0  0
 34 15  1  0  0  0  0
 36 33  1  1  0  0  0
 38  8  2  0  0  0  0
 39 35  1  0  0  0  0
 39 23  1  0  0  0  0
 40 18  1  0  0  0  0
 41 15  1  0  0  0  0
 41 40  1  1  0  0  0
 43 13  1  0  0  0  0
 44 49  1  0  0  0  0
 45 14  1  6  0  0  0
 45 41  1  0  0  0  0
 46 32  1  1  0  0  0
 46 36  1  0  0  0  0
 46 34  1  0  0  0  0
 47 37  1  6  0  0  0
 47  9  1  0  0  0  0
 47 12  1  0  0  0  0
 48  1  1  0  0  0  0
 48 36  1  0  0  0  0
 49 51  1  0  0  0  0
 50 49  1  0  0  0  0
 50 51  1  0  0  0  0
M  END
>  <MODEL>
1

>  <REMARK>
 VINA RESULT:      -2.6      0.000      0.000
  Name = 
  1 active torsions:
  status: ('A' for Active; 'I' for Inactive)
    1  A    between atoms: C_38  and  N_47
                            x       y       z     vdW  Elec       q    Type
                         _______ _______ _______ _____ _____    ______ ____

>  <TORSDO>
F 1

$$$$
=
 OpenBabel11062412353D

 51 59  0  0  1  0  0  0  0  0999 V2000
  189.8290  177.8880  141.8490 N   0  0  0  0  0  0  0  0  0  0  0  0
  184.2420  177.5300  137.5930 C   0  0  2  0  0  3  0  0  0  0  0  0
  185.2440  177.2690  134.8070 C   0  0  0  0  0  2  0  0  0  0  0  0
  179.8160  179.1470  140.6370 C   0  0  2  0  0  0  0  0  0  0  0  0
  190.6310  177.4610  137.4030 C   0  0  0  0  0  2  0  0  0  0  0  0
  185.7240  177.2190  137.3100 C   0  0  0  0  0  2  0  0  0  0  0  0
  178.9310  176.7440  134.5940 C   0  0  0  0  0  1  0  0  0  0  0  0
  188.8440  174.2330  137.2180 C   0  0  0  0  0  0  0  0  0  0  0  0
  181.0460  178.4690  140.0640 C   0  0  1  0  0  3  0  0  0  0  0  0
  186.8810  174.7820  135.7070 C   0  0  1  0  0  3  0  0  0  0  0  0
  180.3440  177.2280  134.8160 C   0  0  2  0  0  3  0  0  0  0  0  0
  178.9370  178.2880  139.9640 O   0  0  0  0  0  0  0  0  0  0  0  0
  190.0630  176.7800  141.2110 C   0  0  0  0  0  3  0  0  0  0  0  0
  185.0650  179.2610  139.1190 O   0  0  0  0  0  0  0  0  0  0  0  0
  184.6840  178.1470  141.1920 C   0  0  1  0  0  3  0  0  0  0  0  0
  181.2880  177.4890  137.1500 C   0  0  2  0  0  3  0  0  0  0  0  0
  183.5970  178.2970  136.4080 C   0  0  1  0  0  3  0  0  0  0  0  0
  181.7810  177.6140  141.0900 C   0  0  0  0  0  2  0  0  0  0  0  0
  179.6670  180.5830  140.1640 C   0  0  0  0  0  1  0  0  0  0  0  0
  190.8730  177.6280  138.9100 C   0  0  0  0  0  2  0  0  0  0  0  0
  183.7760  177.4930  135.1120 C   0  0  0  0  0  2  0  0  0  0  0  0
  189.3730  175.6630  139.1880 C   0  0  0  0  0  3  0  0  0  0  0  0
  182.1060  178.7000  136.5880 C   0  0  1  0  0  0  0  0  0  0  0  0
  185.9130  176.5250  135.9560 C   0  0  1  0  0  0  0  0  0  0  0  0
  189.2620  175.5860  137.6960 C   0  0  1  0  0  3  0  0  0  0  0  0
  185.5550  175.1670  136.0010 O   0  0  0  0  0  0  0  0  0  0  0  0
  190.4920  176.0450  137.0570 N   0  0  0  0  0  2  0  0  0  0  0  0
  180.9480  176.5110  136.0290 C   0  0  0  0  0  2  0  0  0  0  0  0
  185.3330  177.3290  142.3020 C   0  0  0  0  0  1  0  0  0  0  0  0
  187.3450  176.2240  135.6490 C   0  0  0  0  0  2  0  0  0  0  0  0
  179.6720  179.0420  142.0270 O   0  0  0  0  0  1  0  0  0  0  0  0
  187.2500  177.3540  140.2930 F   0  0  0  0  0  0  0  0  0  0  0  0
  187.5230  179.0910  142.6760 F   0  0  0  0  0  0  0  0  0  0  0  0
  185.5870  179.1170  140.4250 C   0  0  1  0  0  3  0  0  0  0  0  0
  180.3600  178.7460  134.9760 C   0  0  0  0  0  2  0  0  0  0  0  0
  187.9310  179.4060  141.3940 C   0  0  2  0  0  3  0  0  0  0  0  0
  179.9960  177.9270  137.8520 C   0  0  0  0  0  2  0  0  0  0  0  0
  189.6650  173.2330  137.3350 N   0  0  0  0  0  2  0  0  0  0  0  0
  181.6510  179.2020  135.3260 O   0  0  0  0  0  0  0  0  0  0  0  0
  182.7820  176.6590  140.4300 C   0  0  0  0  0  2  0  0  0  0  0  0
  184.1380  177.2900  140.0980 C   0  0  1  0  0  3  0  0  0  0  0  0
  182.0590  179.7520  137.5090 O   0  0  0  0  0  1  0  0  0  0  0  0
  190.0440  176.6740  139.7470 C   0  0  0  0  0  0  0  0  0  0  0  0
  187.4640  174.0080  136.8250 N   0  0  0  0  0  0  0  0  0  0  0  0
  184.0840  178.2570  138.9370 C   0  0  2  0  0  3  0  0  0  0  0  0
  187.0730  178.7250  140.3270 C   0  0  1  0  0  3  0  0  0  0  0  0
  180.0180  177.6240  139.3450 C   0  0  1  0  0  3  0  0  0  0  0  0
  189.4290  179.1440  141.2130 C   0  0  0  0  0  2  0  0  0  0  0  0
  186.8900  172.6890  137.1140 C   0  0  0  0  0  3  0  0  0  0  0  0
  187.1850  171.6900  136.0060 C   0  0  0  0  0  2  0  0  0  0  0  0
  185.8340  172.3570  136.0730 C   0  0  0  0  0  2  0  0  0  0  0  0
  2  6  1  6  0  0  0
  2 45  1  0  0  0  0
  3 21  1  0  0  0  0
  4 19  1  6  0  0  0
  4 31  1  0  0  0  0
  5 20  1  0  0  0  0
  8 38  2  0  0  0  0
  8 25  1  0  0  0  0
  9  4  1  0  0  0  0
  9 18  1  1  0  0  0
 10 30  1  1  0  0  0
 10 26  1  0  0  0  0
 10 44  1  0  0  0  0
 11  7  1  1  0  0  0
 11 35  1  0  0  0  0
 11 28  1  0  0  0  0
 12  4  1  0  0  0  0
 13  1  2  0  0  0  0
 15 29  1  1  0  0  0
 16 28  1  6  0  0  0
 16 37  1  0  0  0  0
 17 21  1  6  0  0  0
 17 23  1  0  0  0  0
 17  2  1  0  0  0  0
 20 43  1  0  0  0  0
 22 43  2  0  0  0  0
 23 16  1  0  0  0  0
 23 42  1  1  0  0  0
 24  3  1  6  0  0  0
 24 26  1  0  0  0  0
 24  6  1  0  0  0  0
 25 22  1  1  0  0  0
 27  5  1  0  0  0  0
 27 25  1  0  0  0  0
 30 24  1  0  0  0  0
 34 14  1  6  0  0  0
 34 15  1  0  0  0  0
 35 39  1  0  0  0  0
 36 33  1  1  0  0  0
 39 23  1  0  0  0  0
 40 18  1  0  0  0  0
 41 40  1  1  0  0  0
 41 15  1  0  0  0  0
 43 13  1  0  0  0  0
 44 49  1  0  0  0  0
 44  8  1  0  0  0  0
 45 14  1  1  0  0  0
 45 41  1  0  0  0  0
 46 32  1  1  0  0  0
 46 34  1  0  0  0  0
 46 36  1  0  0  0  0
 47 37  1  6  0  0  0
 47 12  1  0  0  0  0
 47  9  1  0  0  0  0
 48 36  1  0  0  0  0
 48  1  1  0  0  0  0
 50 51  1  0  0  0  0
 50 49  1  0  0  0  0
 51 49  1  0  0  0  0
M  END
>  <MODEL>
2

>  <REMARK>
 VINA RESULT:      -0.2      2.718      4.457
  Name = 
  1 active torsions:
  status: ('A' for Active; 'I' for Inactive)
    1  A    between atoms: C_38  and  N_47
                            x       y       z     vdW  Elec       q    Type
                         _______ _______ _______ _____ _____    ______ ____

>  <TORSDO>
F 1

$$$$
=
 OpenBabel11062412353D

 51 59  0  0  1  0  0  0  0  0999 V2000
  192.0830  176.2790  138.8530 N   0  0  0  0  0  0  0  0  0  0  0  0
  185.8070  178.0940  141.4570 C   0  0  2  0  0  3  0  0  0  0  0  0
  184.1490  179.0940  139.2020 C   0  0  0  0  0  2  0  0  0  0  0  0
  186.3970  178.3040  147.0320 C   0  0  2  0  0  0  0  0  0  0  0  0
  189.0110  177.8940  135.9290 C   0  0  0  0  0  2  0  0  0  0  0  0
  186.2520  177.8940  139.9960 C   0  0  0  0  0  2  0  0  0  0  0  0
  180.4440  178.9460  144.3430 C   0  0  0  0  0  1  0  0  0  0  0  0
  186.6280  175.1680  136.6660 C   0  0  0  0  0  0  0  0  0  0  0  0
  186.3450  177.9180  145.5660 C   0  0  1  0  0  3  0  0  0  0  0  0
  184.6830  176.4130  137.7170 C   0  0  1  0  0  3  0  0  0  0  0  0
  181.5520  179.2260  143.3550 C   0  0  2  0  0  3  0  0  0  0  0  0
  185.0840  177.8770  147.2680 O   0  0  0  0  0  0  0  0  0  0  0  0
  191.2830  175.5760  138.1090 C   0  0  0  0  0  3  0  0  0  0  0  0
  188.0800  178.9110  141.8680 O   0  0  0  0  0  0  0  0  0  0  0  0
  188.9790  176.9900  142.9560 C   0  0  1  0  0  3  0  0  0  0  0  0
  183.9000  178.3630  143.7400 C   0  0  2  0  0  3  0  0  0  0  0  0
  184.8900  179.3380  141.5940 C   0  0  1  0  0  3  0  0  0  0  0  0
  187.1550  176.6650  145.2550 C   0  0  0  0  0  2  0  0  0  0  0  0
  186.5440  179.8020  147.2360 C   0  0  0  0  0  1  0  0  0  0  0  0
  190.3320  177.3480  136.4890 C   0  0  0  0  0  2  0  0  0  0  0  0
  183.6920  179.2060  140.6430 C   0  0  0  0  0  2  0  0  0  0  0  0
  188.9570  175.5260  137.4760 C   0  0  0  0  0  3  0  0  0  0  0  0
  184.4000  179.6670  143.0320 C   0  0  1  0  0  0  0  0  0  0  0  0
  185.0610  177.8850  139.0320 C   0  0  1  0  0  0  0  0  0  0  0  0
  187.7510  176.1400  136.8320 C   0  0  1  0  0  3  0  0  0  0  0  0
  184.3580  176.6690  139.0670 O   0  0  0  0  0  0  0  0  0  0  0  0
  188.1080  176.7960  135.5770 N   0  0  0  0  0  2  0  0  0  0  0  0
  182.4880  178.0150  143.2770 C   0  0  0  0  0  2  0  0  0  0  0  0
  189.8220  175.7340  142.7680 C   0  0  0  0  0  1  0  0  0  0  0  0
  185.4660  177.7060  137.6030 C   0  0  0  0  0  2  0  0  0  0  0  0
  187.3180  177.5840  147.8050 O   0  0  0  0  0  1  0  0  0  0  0  0
  189.3420  176.6030  140.1740 F   0  0  0  0  0  0  0  0  0  0  0  0
  191.9680  177.0550  141.4680 F   0  0  0  0  0  0  0  0  0  0  0  0
  189.2740  178.1710  142.0260 C   0  0  1  0  0  3  0  0  0  0  0  0
  182.2910  180.5030  143.7440 C   0  0  0  0  0  2  0  0  0  0  0  0
  191.3520  177.9040  140.5680 C   0  0  2  0  0  3  0  0  0  0  0  0
  183.9190  178.4790  145.2690 C   0  0  0  0  0  2  0  0  0  0  0  0
  186.7460  174.1960  135.8120 N   0  0  0  0  0  2  0  0  0  0  0  0
  183.4190  180.7040  142.9150 O   0  0  0  0  0  0  0  0  0  0  0  0
  186.8060  176.0790  143.8830 C   0  0  0  0  0  2  0  0  0  0  0  0
  187.5280  176.7440  142.7060 C   0  0  1  0  0  3  0  0  0  0  0  0
  185.4880  180.1870  143.7430 O   0  0  0  0  0  1  0  0  0  0  0  0
  190.1360  176.1470  137.3940 C   0  0  0  0  0  0  0  0  0  0  0  0
  185.5150  175.1950  137.5980 N   0  0  0  0  0  0  0  0  0  0  0  0
  187.0210  178.1350  142.3970 C   0  0  2  0  0  3  0  0  0  0  0  0
  189.8270  177.8130  140.6330 C   0  0  1  0  0  3  0  0  0  0  0  0
  184.9250  177.5300  145.9090 C   0  0  1  0  0  3  0  0  0  0  0  0
  191.9020  177.7010  139.1530 C   0  0  0  0  0  2  0  0  0  0  0  0
  184.8970  173.9100  137.9430 C   0  0  0  0  0  3  0  0  0  0  0  0
  184.0480  173.3690  136.8030 C   0  0  0  0  0  2  0  0  0  0  0  0
  183.3850  174.0660  137.9650 C   0  0  0  0  0  2  0  0  0  0  0  0
  1 48  1  0  0  0  0
  2  6  1  6  0  0  0
  2 17  1  0  0  0  0
  2 45  1  0  0  0  0
  3 21  1  0  0  0  0
  4 19  1  1  0  0  0
  4 12  1  0  0  0  0
  4 31  1  0  0  0  0
  5 20  1  0  0  0  0
  8 25  1  0  0  0  0
  8 44  1  0  0  0  0
  9 18  1  1  0  0  0
  9 47  1  0  0  0  0
  9  4  1  0  0  0  0
 10 30  1  1  0  0  0
 10 26  1  0  0  0  0
 11 35  1  0  0  0  0
 11  7  1  1  0  0  0
 13  1  2  0  0  0  0
 15 29  1  6  0  0  0
 16 28  1  6  0  0  0
 16 37  1  0  0  0  0
 17 21  1  6  0  0  0
 17 23  1  0  0  0  0
 20 43  1  0  0  0  0
 23 16  1  0  0  0  0
 23 42  1  1  0  0  0
 24 30  1  6  0  0  0
 24 26  1  0  0  0  0
 24  3  1  0  0  0  0
 24  6  1  0  0  0  0
 25 22  1  6  0  0  0
 27  5  1  0  0  0  0
 27 25  1  0  0  0  0
 28 11  1  0  0  0  0
 34 14  1  6  0  0  0
 34 15  1  0  0  0  0
 36 46  1  0  0  0  0
 36 33  1  1  0  0  0
 38  8  2  0  0  0  0
 39 23  1  0  0  0  0
 39 35  1  0  0  0  0
 40 18  1  0  0  0  0
 41 15  1  0  0  0  0
 41 40  1  1  0  0  0
 43 22  2  0  0  0  0
 43 13  1  0  0  0  0
 44 10  1  0  0  0  0
 44 49  1  0  0  0  0
 45 14  1  6  0  0  0
 45 41  1  0  0  0  0
 46 32  1  1  0  0  0
 46 34  1  0  0  0  0
 47 37  1  6  0  0  0
 47 12  1  0  0  0  0
 48 36  1  0  0  0  0
 49 51  1  0  0  0  0
 50 49  1  0  0  0  0
 50 51  1  0  0  0  0
M  END
>  <MODEL>
3

>  <REMARK>
 VINA RESULT:      -0.1      1.947      2.751
  Name = 
  1 active torsions:
  status: ('A' for Active; 'I' for Inactive)
    1  A    between atoms: C_38  and  N_47
                            x       y       z     vdW  Elec       q    Type
                         _______ _______ _______ _____ _____    ______ ____

>  <TORSDO>
F 1

$$$$
