=
 OpenBabel11062414233D

 45 51  0  0  1  0  0  0  0  0999 V2000
  185.6710  179.0010  140.4940 C   0  0  0  0  0  2  0  0  0  0  0  0
  183.4350  178.0340  140.4550 C   0  0  0  0  0  3  0  0  0  0  0  0
  182.8050  180.2160  138.4510 N   0  0  0  0  0  0  0  0  0  0  0  0
  181.5900  180.1110  139.2150 C   0  0  0  0  0  0  0  0  0  0  0  0
  180.4230  175.9750  139.6230 N   0  0  0  0  0  2  0  0  0  0  0  0
  187.1470  177.9010  138.8870 C   0  0  2  0  0  3  0  0  0  0  0  0
  185.1990  175.5410  136.6830 C   0  0  2  0  0  3  0  0  0  0  0  0
  181.4850  176.5220  140.4630 C   0  0  0  0  0  2  0  0  0  0  0  0
  187.3500  176.6400  138.3180 O   0  0  0  0  0  0  0  0  0  0  0  0
  178.9310  179.7850  139.9950 N   0  0  0  0  0  0  0  0  0  0  0  0
  184.5060  174.8710  135.4820 C   0  0  0  0  0  2  0  0  0  0  0  0
  179.6350  174.9400  137.7010 O   0  0  0  0  0  0  0  0  0  0  0  0
  188.9110  176.9470  140.9750 O   0  0  0  0  0  0  0  0  0  0  0  0
  184.2340  176.0450  137.7620 C   0  0  0  0  0  2  0  0  0  0  0  0
  181.2390  179.0010  139.9010 C   0  0  0  0  0  0  0  0  0  0  0  0
  180.5820  175.5520  138.2630 C   0  0  0  0  0  0  0  0  0  0  0  0
  185.6830  177.6110  135.4190 C   0  0  0  0  0  2  0  0  0  0  0  0
  181.7980  175.9140  137.4620 C   0  0  1  0  0  3  0  0  0  0  0  0
  188.4620  179.4550  140.9460 O   0  0  0  0  0  0  0  0  0  0  0  0
  180.6610  181.2980  139.2130 C   0  0  0  0  0  2  0  0  0  0  0  0
  184.2940  178.9050  139.9250 C   0  0  0  0  0  0  0  0  0  0  0  0
  188.2590  178.1150  140.2940 S   0  0  0  0  0  0  0  0  0  0  0  0
  186.1180  176.6590  136.2480 C   0  0  0  0  0  0  0  0  0  0  0  0
  183.0270  175.2280  135.4030 C   0  0  0  0  0  2  0  0  0  0  0  0
  182.1000  177.7750  139.8500 C   0  0  1  0  0  3  0  0  0  0  0  0
  183.0100  175.1440  137.9560 C   0  0  1  0  0  3  0  0  0  0  0  0
  186.4910  177.7580  140.1780 C   0  0  1  0  0  3  0  0  0  0  0  0
  179.9470  179.0180  140.6870 C   0  0  0  0  0  2  0  0  0  0  0  0
  183.9780  179.7160  138.7310 C   0  0  0  0  0  3  0  0  0  0  0  0
  187.4370  176.8780  136.9380 C   0  0  2  0  0  3  0  0  0  0  0  0
  182.3080  174.7320  136.6570 C   0  0  1  0  0  3  0  0  0  0  0  0
  179.2290  180.8420  139.3180 C   0  0  0  0  0  3  0  0  0  0  0  0
  188.5910  176.1040  136.2870 C   0  0  1  0  0  3  0  0  0  0  0  0
  191.7450  175.4170  135.6510 C   0  0  0  0  0  2  0  0  0  0  0  0
  190.5190  177.3800  137.4800 C   0  0  0  0  0  2  0  0  0  0  0  0
  192.4560  175.8930  136.9170 C   0  0  1  0  0  3  0  0  0  0  0  0
  190.8320  176.5140  135.1040 C   0  0  0  0  0  2  0  0  0  0  0  0
  189.8330  177.0030  136.1580 C   0  0  1  0  0  3  0  0  0  0  0  0
  191.4350  176.2700  137.9880 C   0  0  0  0  0  2  0  0  0  0  0  0
  193.3660  174.8270  137.4310 C   0  0  0  0  0  0  0  0  0  0  0  0
  194.5500  175.1680  138.1490 N   0  0  0  0  0  1  0  0  0  0  0  0
  193.0960  173.6190  137.2120 O   0  0  0  0  0  0  0  0  0  0  0  0
  188.8780  174.7680  136.9740 C   0  0  0  0  0  2  0  0  0  0  0  0
  188.4370  173.3770  135.8910 S   0  0  0  0  0  0  0  0  0  0  0  0
  187.3630  172.6110  137.1370 C   0  0  0  0  0  1  0  0  0  0  0  0
  3 29  2  0  0  0  0
  3  4  1  0  0  0  0
  4 15  2  0  0  0  0
  5  8  1  0  0  0  0
  6  9  1  6  0  0  0
  6 27  1  0  0  0  0
  6 22  1  0  0  0  0
  7 11  1  6  0  0  0
  7 14  1  0  0  0  0
 10 28  1  0  0  0  0
 12 16  2  0  0  0  0
 15 28  1  0  0  0  0
 16  5  1  0  0  0  0
 17 23  2  0  0  0  0
 18 26  1  0  0  0  0
 18 16  1  1  0  0  0
 20  4  1  0  0  0  0
 20 32  1  0  0  0  0
 21  2  2  0  0  0  0
 21  1  1  0  0  0  0
 22 19  2  0  0  0  0
 22 13  2  0  0  0  0
 23  7  1  0  0  0  0
 23 30  1  0  0  0  0
 24 11  1  0  0  0  0
 25 15  1  0  0  0  0
 25  2  1  1  0  0  0
 25  8  1  0  0  0  0
 26 14  1  6  0  0  0
 27 22  1  0  0  0  0
 27  1  1  1  0  0  0
 29 21  1  0  0  0  0
 30 33  1  6  0  0  0
 30  9  1  0  0  0  0
 31 24  1  6  0  0  0
 31 18  1  0  0  0  0
 31 26  1  0  0  0  0
 32 10  2  0  0  0  0
 33 43  1  1  0  0  0
 34 36  1  0  0  0  0
 35 39  1  0  0  0  0
 36 40  1  1  0  0  0
 36 39  1  0  0  0  0
 37 34  1  0  0  0  0
 37 38  1  0  0  0  0
 38 33  1  1  0  0  0
 38 35  1  0  0  0  0
 40 41  1  0  0  0  0
 42 40  2  0  0  0  0
 44 43  1  0  0  0  0
 44 45  1  0  0  0  0
M  END
>  <MODEL>
1

>  <REMARK>
 VINA RESULT:      -5.1      0.000      0.000
  Name = 
  5 active torsions:
  status: ('A' for Active; 'I' for Inactive)
    1  A    between atoms: C_10  and  C_12
    2  A    between atoms: C_20  and  C_37
    3  A    between atoms: C_20  and  C_39
    4  A    between atoms: C_20  and  C_41
    5  A    between atoms: S_28  and  C_39
                            x       y       z     vdW  Elec       q    Type
                         _______ _______ _______ _____ _____    ______ ____

>  <TORSDO>
F 5

$$$$
=
 OpenBabel11062414233D

 45 51  0  0  1  0  0  0  0  0999 V2000
  185.5820  179.0320  141.0490 C   0  0  0  0  0  2  0  0  0  0  0  0
  183.4190  178.0380  140.5280 C   0  0  0  0  0  3  0  0  0  0  0  0
  183.1150  180.3460  138.5900 N   0  0  0  0  0  0  0  0  0  0  0  0
  181.7820  180.1720  139.1040 C   0  0  0  0  0  0  0  0  0  0  0  0
  180.6710  176.0010  139.0120 N   0  0  0  0  0  2  0  0  0  0  0  0
  187.3600  178.0680  139.6770 C   0  0  2  0  0  3  0  0  0  0  0  0
  185.9200  175.8410  136.9960 C   0  0  2  0  0  3  0  0  0  0  0  0
  181.5430  176.5030  140.0700 C   0  0  0  0  0  2  0  0  0  0  0  0
  187.7000  176.8530  139.0740 O   0  0  0  0  0  0  0  0  0  0  0  0
  179.0330  179.7550  139.3490 N   0  0  0  0  0  0  0  0  0  0  0  0
  185.4800  175.2470  135.6450 C   0  0  0  0  0  2  0  0  0  0  0  0
  180.2820  175.0920  136.9110 O   0  0  0  0  0  0  0  0  0  0  0  0
  188.7300  176.9940  141.9910 O   0  0  0  0  0  0  0  0  0  0  0  0
  184.7580  176.2540  137.9060 C   0  0  0  0  0  2  0  0  0  0  0  0
  181.3400  179.0110  139.6370 C   0  0  0  0  0  0  0  0  0  0  0  0
  181.0910  175.6760  137.6800 C   0  0  0  0  0  0  0  0  0  0  0  0
  186.5740  178.0000  135.9850 C   0  0  0  0  0  2  0  0  0  0  0  0
  182.4240  176.1100  137.1470 C   0  0  1  0  0  3  0  0  0  0  0  0
  188.2280  179.4910  142.0450 O   0  0  0  0  0  0  0  0  0  0  0  0
  180.8370  181.3430  139.0060 C   0  0  0  0  0  2  0  0  0  0  0  0
  184.3380  178.9560  140.2260 C   0  0  0  0  0  0  0  0  0  0  0  0
  188.1860  178.1980  141.2780 S   0  0  0  0  0  0  0  0  0  0  0  0
  186.8730  176.9990  136.8160 C   0  0  0  0  0  0  0  0  0  0  0  0
  184.0330  175.5880  135.3140 C   0  0  0  0  0  2  0  0  0  0  0  0
  182.2280  177.8040  139.6680 C   0  0  1  0  0  3  0  0  0  0  0  0
  183.5440  175.3250  137.8070 C   0  0  1  0  0  3  0  0  0  0  0  0
  186.4790  177.8250  140.8100 C   0  0  1  0  0  3  0  0  0  0  0  0
  179.9240  178.9540  140.1670 C   0  0  0  0  0  2  0  0  0  0  0  0
  184.2270  179.8440  139.0510 C   0  0  0  0  0  3  0  0  0  0  0  0
  188.0340  177.1870  137.7540 C   0  0  2  0  0  3  0  0  0  0  0  0
  183.1070  174.9950  136.3750 C   0  0  1  0  0  3  0  0  0  0  0  0
  179.4250  180.8610  138.8110 C   0  0  0  0  0  3  0  0  0  0  0  0
  189.3100  176.4770  137.2800 C   0  0  1  0  0  3  0  0  0  0  0  0
  190.4220  173.7900  135.7420 C   0  0  0  0  0  2  0  0  0  0  0  0
  190.1110  176.5700  134.8070 C   0  0  0  0  0  2  0  0  0  0  0  0
  191.3050  174.3730  134.6400 C   0  0  1  0  0  3  0  0  0  0  0  0
  189.0430  174.4490  135.7290 C   0  0  0  0  0  2  0  0  0  0  0  0
  189.1380  175.9740  135.8360 C   0  0  1  0  0  3  0  0  0  0  0  0
  191.4720  175.8780  134.8350 C   0  0  0  0  0  2  0  0  0  0  0  0
  192.6400  173.7070  134.6410 C   0  0  0  0  0  0  0  0  0  0  0  0
  193.8370  174.4820  134.6700 N   0  0  0  0  0  1  0  0  0  0  0  0
  192.7110  172.4520  134.5950 O   0  0  0  0  0  0  0  0  0  0  0  0
  190.5720  177.3160  137.4850 C   0  0  0  0  0  2  0  0  0  0  0  0
  191.4530  176.8010  138.9880 S   0  0  0  0  0  0  0  0  0  0  0  0
  192.9870  176.4340  138.0900 C   0  0  0  0  0  1  0  0  0  0  0  0
  3 29  2  0  0  0  0
  3  4  1  0  0  0  0
  4 15  2  0  0  0  0
  5  8  1  0  0  0  0
  6  9  1  6  0  0  0
  6 27  1  0  0  0  0
  6 22  1  0  0  0  0
  7 11  1  6  0  0  0
  7 14  1  0  0  0  0
 10 28  1  0  0  0  0
 12 16  2  0  0  0  0
 15 25  1  0  0  0  0
 15 28  1  0  0  0  0
 16  5  1  0  0  0  0
 17 23  2  0  0  0  0
 18 16  1  1  0  0  0
 18 26  1  0  0  0  0
 20  4  1  0  0  0  0
 21  2  2  0  0  0  0
 21  1  1  0  0  0  0
 22 13  2  0  0  0  0
 22 19  2  0  0  0  0
 23  7  1  0  0  0  0
 23 30  1  0  0  0  0
 24 11  1  0  0  0  0
 25  8  1  1  0  0  0
 25  2  1  0  0  0  0
 26 14  1  6  0  0  0
 27  1  1  1  0  0  0
 27 22  1  0  0  0  0
 29 21  1  0  0  0  0
 30 33  1  6  0  0  0
 30  9  1  0  0  0  0
 31 24  1  6  0  0  0
 31 18  1  0  0  0  0
 31 26  1  0  0  0  0
 32 20  1  0  0  0  0
 32 10  2  0  0  0  0
 33 43  1  6  0  0  0
 35 39  1  0  0  0  0
 35 38  1  0  0  0  0
 36 40  1  1  0  0  0
 36 39  1  0  0  0  0
 36 34  1  0  0  0  0
 37 34  1  0  0  0  0
 37 38  1  0  0  0  0
 38 33  1  1  0  0  0
 40 41  1  0  0  0  0
 42 40  2  0  0  0  0
 43 44  1  0  0  0  0
 45 44  1  0  0  0  0
M  END
>  <MODEL>
2

>  <REMARK>
 VINA RESULT:      -4.8      1.408      1.991
  Name = 
  5 active torsions:
  status: ('A' for Active; 'I' for Inactive)
    1  A    between atoms: C_10  and  C_12
    2  A    between atoms: C_20  and  C_37
    3  A    between atoms: C_20  and  C_39
    4  A    between atoms: C_20  and  C_41
    5  A    between atoms: S_28  and  C_39
                            x       y       z     vdW  Elec       q    Type
                         _______ _______ _______ _____ _____    ______ ____

>  <TORSDO>
F 5

$$$$
=
 OpenBabel11062414233D

 45 51  0  0  1  0  0  0  0  0999 V2000
  185.2030  178.4520  142.0050 C   0  0  0  0  0  2  0  0  0  0  0  0
  183.7980  177.6640  140.1770 C   0  0  0  0  0  3  0  0  0  0  0  0
  184.1780  180.4420  139.0300 N   0  0  0  0  0  0  0  0  0  0  0  0
  182.8150  180.1290  138.6860 C   0  0  0  0  0  0  0  0  0  0  0  0
  182.5710  176.1750  136.9710 N   0  0  0  0  0  2  0  0  0  0  0  0
  187.5570  177.9290  141.6100 C   0  0  2  0  0  3  0  0  0  0  0  0
  188.0610  176.5950  138.1180 C   0  0  2  0  0  3  0  0  0  0  0  0
  182.6860  176.3390  138.4180 C   0  0  0  0  0  2  0  0  0  0  0  0
  188.3410  176.9440  141.0010 O   0  0  0  0  0  0  0  0  0  0  0  0
  180.4340  179.6690  137.3060 N   0  0  0  0  0  0  0  0  0  0  0  0
  188.4750  176.4270  136.6450 C   0  0  0  0  0  2  0  0  0  0  0  0
  183.4600  175.9260  134.8410 O   0  0  0  0  0  0  0  0  0  0  0  0
  187.6930  176.2160  143.9400 O   0  0  0  0  0  0  0  0  0  0  0  0
  186.5490  176.7260  138.3330 C   0  0  0  0  0  2  0  0  0  0  0  0
  182.3480  178.8650  138.5880 C   0  0  0  0  0  0  0  0  0  0  0  0
  183.6590  176.2550  136.0410 C   0  0  0  0  0  0  0  0  0  0  0  0
  188.7980  178.9540  138.1950 C   0  0  0  0  0  2  0  0  0  0  0  0
  184.9910  176.8220  136.4350 C   0  0  1  0  0  3  0  0  0  0  0  0
  186.8550  178.5880  144.3410 O   0  0  0  0  0  0  0  0  0  0  0  0
  181.8870  181.2800  138.3950 C   0  0  0  0  0  2  0  0  0  0  0  0
  184.5860  178.6270  140.6560 C   0  0  0  0  0  0  0  0  0  0  0  0
  187.4130  177.5780  143.3760 S   0  0  0  0  0  0  0  0  0  0  0  0
  188.7790  177.7520  138.7740 C   0  0  0  0  0  0  0  0  0  0  0  0
  187.3700  176.8560  135.6880 C   0  0  0  0  0  2  0  0  0  0  0  0
  183.2700  177.6980  138.7860 C   0  0  1  0  0  3  0  0  0  0  0  0
  185.7190  175.8730  137.3700 C   0  0  1  0  0  3  0  0  0  0  0  0
  186.2700  177.3670  141.9910 C   0  0  1  0  0  3  0  0  0  0  0  0
  180.8900  178.6600  138.2430 C   0  0  0  0  0  2  0  0  0  0  0  0
  184.9580  179.8220  139.8720 C   0  0  0  0  0  3  0  0  0  0  0  0
  189.2490  177.6510  140.2000 C   0  0  2  0  0  3  0  0  0  0  0  0
  186.1350  175.9810  135.8990 C   0  0  1  0  0  3  0  0  0  0  0  0
  180.8690  180.8820  137.3590 C   0  0  0  0  0  3  0  0  0  0  0  0
  190.6790  177.1070  140.3240 C   0  0  1  0  0  3  0  0  0  0  0  0
  192.3100  175.3140  138.0990 C   0  0  0  0  0  2  0  0  0  0  0  0
  192.9730  177.8880  139.3770 C   0  0  0  0  0  2  0  0  0  0  0  0
  193.7550  175.7680  138.2920 C   0  0  1  0  0  3  0  0  0  0  0  0
  191.3870  176.5200  137.9260 C   0  0  0  0  0  2  0  0  0  0  0  0
  191.5120  177.5060  139.0930 C   0  0  1  0  0  3  0  0  0  0  0  0
  193.8690  176.6600  139.5260 C   0  0  0  0  0  2  0  0  0  0  0  0
  194.6540  174.5860  138.4330 C   0  0  0  0  0  0  0  0  0  0  0  0
  195.8540  174.6740  139.2010 N   0  0  0  0  0  1  0  0  0  0  0  0
  194.3630  173.5080  137.8540 O   0  0  0  0  0  0  0  0  0  0  0  0
  191.3450  177.4720  141.6510 C   0  0  0  0  0  2  0  0  0  0  0  0
  191.0520  176.1810  142.8970 S   0  0  0  0  0  0  0  0  0  0  0  0
  191.2220  177.3360  144.2860 C   0  0  0  0  0  1  0  0  0  0  0  0
  2 21  2  0  0  0  0
  3 29  2  0  0  0  0
  4  3  1  0  0  0  0
  5  8  1  0  0  0  0
  6  9  1  6  0  0  0
  6 27  1  0  0  0  0
  6 22  1  0  0  0  0
  7 11  1  6  0  0  0
  7 14  1  0  0  0  0
  7 23  1  0  0  0  0
 10 32  2  0  0  0  0
 10 28  1  0  0  0  0
 12 16  2  0  0  0  0
 15  4  2  0  0  0  0
 15 25  1  0  0  0  0
 16  5  1  0  0  0  0
 17 23  2  0  0  0  0
 18 16  1  6  0  0  0
 18 26  1  0  0  0  0
 20  4  1  0  0  0  0
 21  1  1  0  0  0  0
 22 13  2  0  0  0  0
 22 19  2  0  0  0  0
 23 30  1  0  0  0  0
 24 11  1  0  0  0  0
 25  8  1  1  0  0  0
 25  2  1  0  0  0  0
 26 14  1  1  0  0  0
 27  1  1  1  0  0  0
 27 22  1  0  0  0  0
 28 15  1  0  0  0  0
 29 21  1  0  0  0  0
 30 33  1  6  0  0  0
 30  9  1  0  0  0  0
 31 24  1  1  0  0  0
 31 18  1  0  0  0  0
 31 26  1  0  0  0  0
 32 20  1  0  0  0  0
 33 43  1  1  0  0  0
 34 36  1  0  0  0  0
 35 39  1  0  0  0  0
 36 40  1  1  0  0  0
 36 39  1  0  0  0  0
 37 34  1  0  0  0  0
 37 38  1  0  0  0  0
 38 35  1  0  0  0  0
 38 33  1  1  0  0  0
 40 41  1  0  0  0  0
 42 40  2  0  0  0  0
 43 44  1  0  0  0  0
 44 45  1  0  0  0  0
M  END
>  <MODEL>
3

>  <REMARK>
 VINA RESULT:      -4.3      2.325      3.532
  Name = 
  5 active torsions:
  status: ('A' for Active; 'I' for Inactive)
    1  A    between atoms: C_10  and  C_12
    2  A    between atoms: C_20  and  C_37
    3  A    between atoms: C_20  and  C_39
    4  A    between atoms: C_20  and  C_41
    5  A    between atoms: S_28  and  C_39
                            x       y       z     vdW  Elec       q    Type
                         _______ _______ _______ _____ _____    ______ ____

>  <TORSDO>
F 5

$$$$
=
 OpenBabel11062414233D

 45 51  0  0  1  0  0  0  0  0999 V2000
  183.2590  179.0550  141.1010 C   0  0  0  0  0  2  0  0  0  0  0  0
  182.1830  177.6850  139.3970 C   0  0  0  0  0  3  0  0  0  0  0  0
  182.3240  180.1740  137.6750 N   0  0  0  0  0  0  0  0  0  0  0  0
  181.0610  179.5900  137.3050 C   0  0  0  0  0  0  0  0  0  0  0  0
  181.5280  175.3690  136.5320 N   0  0  0  0  0  2  0  0  0  0  0  0
  185.6910  178.8220  141.0270 C   0  0  2  0  0  3  0  0  0  0  0  0
  186.7530  176.8580  137.9880 C   0  0  2  0  0  3  0  0  0  0  0  0
  181.4590  175.8570  137.9070 C   0  0  0  0  0  2  0  0  0  0  0  0
  186.6590  177.8610  140.7270 O   0  0  0  0  0  0  0  0  0  0  0  0
  178.9310  178.4850  135.8810 N   0  0  0  0  0  0  0  0  0  0  0  0
  187.3490  176.4410  136.6310 C   0  0  0  0  0  2  0  0  0  0  0  0
  182.6760  174.8040  134.5950 O   0  0  0  0  0  0  0  0  0  0  0  0
  185.7850  177.6950  143.6920 O   0  0  0  0  0  0  0  0  0  0  0  0
  185.2230  176.8010  138.0450 C   0  0  0  0  0  2  0  0  0  0  0  0
  180.7770  178.2790  137.4630 C   0  0  0  0  0  0  0  0  0  0  0  0
  182.6950  175.4110  135.6990 C   0  0  0  0  0  0  0  0  0  0  0  0
  187.1630  179.2620  137.5790 C   0  0  0  0  0  2  0  0  0  0  0  0
  183.8890  176.2450  136.0570 C   0  0  1  0  0  3  0  0  0  0  0  0
  184.6060  179.9420  143.4670 O   0  0  0  0  0  0  0  0  0  0  0  0
  180.0300  180.4960  136.6830 C   0  0  0  0  0  2  0  0  0  0  0  0
  182.7800  178.8380  139.7030 C   0  0  0  0  0  0  0  0  0  0  0  0
  185.3950  178.8450  142.8090 S   0  0  0  0  0  0  0  0  0  0  0  0
  187.2360  178.2250  138.4160 C   0  0  0  0  0  0  0  0  0  0  0  0
  186.3120  176.4790  135.5160 C   0  0  0  0  0  2  0  0  0  0  0  0
  181.8140  177.3370  137.9970 C   0  0  1  0  0  3  0  0  0  0  0  0
  184.6240  175.6430  137.2410 C   0  0  1  0  0  3  0  0  0  0  0  0
  184.4530  178.1670  141.4220 C   0  0  1  0  0  3  0  0  0  0  0  0
  179.4070  177.7840  137.0580 C   0  0  0  0  0  2  0  0  0  0  0  0
  183.0790  179.8770  138.6970 C   0  0  0  0  0  3  0  0  0  0  0  0
  187.5520  178.5080  139.8590 C   0  0  2  0  0  3  0  0  0  0  0  0
  185.1860  175.4920  135.8220 C   0  0  1  0  0  3  0  0  0  0  0  0
  179.1950  179.7330  135.6880 C   0  0  0  0  0  3  0  0  0  0  0  0
  189.0170  178.2280  140.2190 C   0  0  1  0  0  3  0  0  0  0  0  0
  189.2430  177.9000  143.4860 C   0  0  0  0  0  2  0  0  0  0  0  0
  190.5310  176.4040  141.2940 C   0  0  0  0  0  2  0  0  0  0  0  0
  190.5970  177.2160  143.6640 C   0  0  1  0  0  3  0  0  0  0  0  0
  188.3920  177.1470  142.4630 C   0  0  0  0  0  2  0  0  0  0  0  0
  189.1190  176.9860  141.1240 C   0  0  1  0  0  3  0  0  0  0  0  0
  191.3460  177.1690  142.3340 C   0  0  0  0  0  2  0  0  0  0  0  0
  191.4130  177.9400  144.6820 C   0  0  0  0  0  0  0  0  0  0  0  0
  192.0790  179.1560  144.3470 N   0  0  0  0  0  1  0  0  0  0  0  0
  191.5300  177.4640  145.8400 O   0  0  0  0  0  0  0  0  0  0  0  0
  189.9320  178.1630  138.9950 C   0  0  0  0  0  2  0  0  0  0  0  0
  190.6040  176.4880  138.7790 S   0  0  0  0  0  0  0  0  0  0  0  0
  190.9860  176.7550  137.0250 C   0  0  0  0  0  1  0  0  0  0  0  0
  2 21  2  0  0  0  0
  3 29  2  0  0  0  0
  4 15  2  0  0  0  0
  4  3  1  0  0  0  0
  5  8  1  0  0  0  0
  6  9  1  1  0  0  0
  6 27  1  0  0  0  0
  6 22  1  0  0  0  0
  7 11  1  6  0  0  0
  7 14  1  0  0  0  0
  7 23  1  0  0  0  0
 10 28  1  0  0  0  0
 12 16  2  0  0  0  0
 15 25  1  0  0  0  0
 16  5  1  0  0  0  0
 17 23  2  0  0  0  0
 18 16  1  6  0  0  0
 18 26  1  0  0  0  0
 20  4  1  0  0  0  0
 21  1  1  0  0  0  0
 22 19  2  0  0  0  0
 22 13  2  0  0  0  0
 23 30  1  0  0  0  0
 24 11  1  0  0  0  0
 25  8  1  1  0  0  0
 25  2  1  0  0  0  0
 26 14  1  1  0  0  0
 27  1  1  6  0  0  0
 27 22  1  0  0  0  0
 28 15  1  0  0  0  0
 29 21  1  0  0  0  0
 30 33  1  1  0  0  0
 30  9  1  0  0  0  0
 31 24  1  1  0  0  0
 31 18  1  0  0  0  0
 31 26  1  0  0  0  0
 32 10  2  0  0  0  0
 32 20  1  0  0  0  0
 33 43  1  6  0  0  0
 34 36  1  0  0  0  0
 35 39  1  0  0  0  0
 36 40  1  1  0  0  0
 37 34  1  0  0  0  0
 38 33  1  1  0  0  0
 38 35  1  0  0  0  0
 38 37  1  0  0  0  0
 39 36  1  0  0  0  0
 40 42  2  0  0  0  0
 41 40  1  0  0  0  0
 44 43  1  0  0  0  0
 45 44  1  0  0  0  0
M  END
>  <MODEL>
4

>  <REMARK>
 VINA RESULT:      -3.9      3.073      4.321
  Name = 
  5 active torsions:
  status: ('A' for Active; 'I' for Inactive)
    1  A    between atoms: C_10  and  C_12
    2  A    between atoms: C_20  and  C_37
    3  A    between atoms: C_20  and  C_39
    4  A    between atoms: C_20  and  C_41
    5  A    between atoms: S_28  and  C_39
                            x       y       z     vdW  Elec       q    Type
                         _______ _______ _______ _____ _____    ______ ____

>  <TORSDO>
F 5

$$$$
=
 OpenBabel11062414233D

 45 51  0  0  1  0  0  0  0  0999 V2000
  183.8620  178.6280  141.8960 C   0  0  0  0  0  2  0  0  0  0  0  0
  183.1670  177.5470  139.8260 C   0  0  0  0  0  3  0  0  0  0  0  0
  183.4020  180.3100  138.6070 N   0  0  0  0  0  0  0  0  0  0  0  0
  182.2580  179.7510  137.9350 C   0  0  0  0  0  0  0  0  0  0  0  0
  183.1360  175.7630  136.5370 N   0  0  0  0  0  2  0  0  0  0  0  0
  186.2850  178.5130  142.1920 C   0  0  2  0  0  3  0  0  0  0  0  0
  187.9490  177.1780  139.0820 C   0  0  2  0  0  3  0  0  0  0  0  0
  182.8170  175.9910  137.9440 C   0  0  0  0  0  2  0  0  0  0  0  0
  187.3550  177.6620  141.8970 O   0  0  0  0  0  0  0  0  0  0  0  0
  180.4610  178.8360  136.0060 N   0  0  0  0  0  0  0  0  0  0  0  0
  188.7780  177.0380  137.7930 C   0  0  0  0  0  2  0  0  0  0  0  0
  184.6120  175.6060  134.7520 O   0  0  0  0  0  0  0  0  0  0  0  0
  186.0380  176.9270  144.6010 O   0  0  0  0  0  0  0  0  0  0  0  0
  186.4360  177.0480  138.8710 C   0  0  0  0  0  2  0  0  0  0  0  0
  182.0450  178.4220  137.8160 C   0  0  0  0  0  0  0  0  0  0  0  0
  184.4130  176.0030  135.9310 C   0  0  0  0  0  0  0  0  0  0  0  0
  188.2480  179.6310  139.1670 C   0  0  0  0  0  2  0  0  0  0  0  0
  185.4740  176.8080  136.6220 C   0  0  1  0  0  3  0  0  0  0  0  0
  184.7530  179.1260  144.5720 O   0  0  0  0  0  0  0  0  0  0  0  0
  181.2760  180.7120  137.3140 C   0  0  0  0  0  2  0  0  0  0  0  0
  183.6260  178.6480  140.4220 C   0  0  0  0  0  0  0  0  0  0  0  0
  185.7120  178.2000  143.8760 S   0  0  0  0  0  0  0  0  0  0  0  0
  188.2610  178.4630  139.8130 C   0  0  0  0  0  0  0  0  0  0  0  0
  187.9300  177.2350  136.5430 C   0  0  0  0  0  2  0  0  0  0  0  0
  183.0490  177.4430  138.3460 C   0  0  1  0  0  3  0  0  0  0  0  0
  186.0550  176.0310  137.7910 C   0  0  1  0  0  3  0  0  0  0  0  0
  185.0500  177.7460  142.2560 C   0  0  1  0  0  3  0  0  0  0  0  0
  180.7930  177.9530  137.1080 C   0  0  0  0  0  2  0  0  0  0  0  0
  184.0060  179.8640  139.6740 C   0  0  0  0  0  3  0  0  0  0  0  0
  188.3250  178.4930  141.3160 C   0  0  2  0  0  3  0  0  0  0  0  0
  186.8420  176.1640  136.4820 C   0  0  1  0  0  3  0  0  0  0  0  0
  180.6640  180.1080  136.0780 C   0  0  0  0  0  3  0  0  0  0  0  0
  189.7310  178.2120  141.8630 C   0  0  1  0  0  3  0  0  0  0  0  0
  192.0330  177.8220  144.1810 C   0  0  0  0  0  2  0  0  0  0  0  0
  189.1070  178.1320  144.3870 C   0  0  0  0  0  2  0  0  0  0  0  0
  191.2410  177.2350  145.3480 C   0  0  1  0  0  3  0  0  0  0  0  0
  191.3530  179.0840  143.6520 C   0  0  0  0  0  2  0  0  0  0  0  0
  189.8930  178.8270  143.2640 C   0  0  1  0  0  3  0  0  0  0  0  0
  189.8230  176.8860  144.9030 C   0  0  0  0  0  2  0  0  0  0  0  0
  191.9240  176.0180  145.8770 C   0  0  0  0  0  0  0  0  0  0  0  0
  192.3530  175.9600  147.2360 N   0  0  0  0  0  1  0  0  0  0  0  0
  192.1410  175.0440  145.1130 O   0  0  0  0  0  0  0  0  0  0  0  0
  190.1130  176.7330  141.8010 C   0  0  0  0  0  2  0  0  0  0  0  0
  191.0100  176.3610  140.2640 S   0  0  0  0  0  0  0  0  0  0  0  0
  192.2990  177.5950  140.5950 C   0  0  0  0  0  1  0  0  0  0  0  0
  2 21  2  0  0  0  0
  3 29  2  0  0  0  0
  4  3  1  0  0  0  0
  5  8  1  0  0  0  0
  6  9  1  1  0  0  0
  6 27  1  0  0  0  0
  6 22  1  0  0  0  0
  7 11  1  6  0  0  0
  7 23  1  0  0  0  0
 10 32  2  0  0  0  0
 10 28  1  0  0  0  0
 12 16  2  0  0  0  0
 14  7  1  0  0  0  0
 15  4  2  0  0  0  0
 15 25  1  0  0  0  0
 16  5  1  0  0  0  0
 17 23  2  0  0  0  0
 18 16  1  6  0  0  0
 18 26  1  0  0  0  0
 20  4  1  0  0  0  0
 21  1  1  0  0  0  0
 22 19  2  0  0  0  0
 22 13  2  0  0  0  0
 23 30  1  0  0  0  0
 24 11  1  0  0  0  0
 25  8  1  1  0  0  0
 25  2  1  0  0  0  0
 26 14  1  1  0  0  0
 27  1  1  6  0  0  0
 27 22  1  0  0  0  0
 28 15  1  0  0  0  0
 29 21  1  0  0  0  0
 30 33  1  6  0  0  0
 30  9  1  0  0  0  0
 31 24  1  1  0  0  0
 31 18  1  0  0  0  0
 31 26  1  0  0  0  0
 32 20  1  0  0  0  0
 33 43  1  1  0  0  0
 34 36  1  0  0  0  0
 35 39  1  0  0  0  0
 36 40  1  6  0  0  0
 37 34  1  0  0  0  0
 38 33  1  6  0  0  0
 38 37  1  0  0  0  0
 38 35  1  0  0  0  0
 39 36  1  0  0  0  0
 40 41  1  0  0  0  0
 42 40  2  0  0  0  0
 44 45  1  0  0  0  0
 44 43  1  0  0  0  0
M  END
>  <MODEL>
5

>  <REMARK>
 VINA RESULT:      -3.6      3.745      5.214
  Name = 
  5 active torsions:
  status: ('A' for Active; 'I' for Inactive)
    1  A    between atoms: C_10  and  C_12
    2  A    between atoms: C_20  and  C_37
    3  A    between atoms: C_20  and  C_39
    4  A    between atoms: C_20  and  C_41
    5  A    between atoms: S_28  and  C_39
                            x       y       z     vdW  Elec       q    Type
                         _______ _______ _______ _____ _____    ______ ____

>  <TORSDO>
F 5

$$$$
=
 OpenBabel11062414233D

 45 51  0  0  1  0  0  0  0  0999 V2000
  185.5080  177.6950  137.6130 C   0  0  0  0  0  2  0  0  0  0  0  0
  183.4190  178.4890  138.5850 C   0  0  0  0  0  3  0  0  0  0  0  0
  182.9740  175.5930  139.3530 N   0  0  0  0  0  0  0  0  0  0  0  0
  181.6520  176.0480  139.0100 C   0  0  0  0  0  0  0  0  0  0  0  0
  180.8230  179.8280  140.9230 N   0  0  0  0  0  2  0  0  0  0  0  0
  187.3550  177.8700  139.2040 C   0  0  2  0  0  3  0  0  0  0  0  0
  186.0840  178.8030  142.6290 C   0  0  2  0  0  3  0  0  0  0  0  0
  181.6530  179.7830  139.7220 C   0  0  0  0  0  2  0  0  0  0  0  0
  187.7780  178.6850  140.2570 O   0  0  0  0  0  0  0  0  0  0  0  0
  178.9360  176.6870  139.0630 N   0  0  0  0  0  0  0  0  0  0  0  0
  185.6940  178.7810  144.1190 C   0  0  0  0  0  2  0  0  0  0  0  0
  180.5090  179.7640  143.2220 O   0  0  0  0  0  0  0  0  0  0  0  0
  188.7780  179.7550  137.5290 O   0  0  0  0  0  0  0  0  0  0  0  0
  184.8910  178.8900  141.6700 C   0  0  0  0  0  2  0  0  0  0  0  0
  181.2850  177.3480  139.0420 C   0  0  0  0  0  0  0  0  0  0  0  0
  181.2730  179.5230  142.2500 C   0  0  0  0  0  0  0  0  0  0  0  0
  186.5990  176.3850  142.5910 C   0  0  0  0  0  2  0  0  0  0  0  0
  182.5770  178.8250  142.4980 C   0  0  1  0  0  3  0  0  0  0  0  0
  188.1100  177.5580  136.4250 O   0  0  0  0  0  0  0  0  0  0  0  0
  180.6330  175.0060  138.6280 C   0  0  0  0  0  2  0  0  0  0  0  0
  184.2770  177.4800  138.4300 C   0  0  0  0  0  0  0  0  0  0  0  0
  188.1590  178.3950  137.6740 S   0  0  0  0  0  0  0  0  0  0  0  0
  186.9590  177.6270  142.2610 C   0  0  0  0  0  0  0  0  0  0  0  0
  184.2290  178.4140  144.3210 C   0  0  0  0  0  2  0  0  0  0  0  0
  182.2520  178.3980  139.5030 C   0  0  1  0  0  3  0  0  0  0  0  0
  183.7420  179.7530  142.2010 C   0  0  1  0  0  3  0  0  0  0  0  0
  186.4850  178.6270  138.3160 C   0  0  1  0  0  3  0  0  0  0  0  0
  179.8730  177.7090  138.6380 C   0  0  0  0  0  2  0  0  0  0  0  0
  184.1150  176.1800  139.1140 C   0  0  0  0  0  3  0  0  0  0  0  0
  188.0990  177.7950  141.2940 C   0  0  2  0  0  3  0  0  0  0  0  0
  183.3380  179.4580  143.6500 C   0  0  1  0  0  3  0  0  0  0  0  0
  179.2560  175.4370  139.0600 C   0  0  0  0  0  3  0  0  0  0  0  0
  189.4220  178.1570  141.9810 C   0  0  1  0  0  3  0  0  0  0  0  0
  191.3760  178.2970  144.6250 C   0  0  0  0  0  2  0  0  0  0  0  0
  188.5300  177.5730  144.3550 C   0  0  0  0  0  2  0  0  0  0  0  0
  190.6910  177.3440  145.6020 C   0  0  1  0  0  3  0  0  0  0  0  0
  190.3730  179.3090  144.0700 C   0  0  0  0  0  2  0  0  0  0  0  0
  189.1650  178.6200  143.4270 C   0  0  1  0  0  3  0  0  0  0  0  0
  189.5610  176.5910  144.9040 C   0  0  0  0  0  2  0  0  0  0  0  0
  191.6800  176.3760  146.1600 C   0  0  0  0  0  0  0  0  0  0  0  0
  192.1250  176.4910  147.5110 N   0  0  0  0  0  1  0  0  0  0  0  0
  192.1420  175.4640  145.4280 O   0  0  0  0  0  0  0  0  0  0  0  0
  190.4730  177.0520  141.8760 C   0  0  0  0  0  2  0  0  0  0  0  0
  191.7670  177.5020  140.6820 S   0  0  0  0  0  0  0  0  0  0  0  0
  190.9730  176.6000  139.3220 C   0  0  0  0  0  1  0  0  0  0  0  0
  1 21  1  0  0  0  0
  4 15  2  0  0  0  0
  4  3  1  0  0  0  0
  5 16  1  0  0  0  0
  6  9  1  1  0  0  0
  7 14  1  6  0  0  0
  7 11  1  0  0  0  0
  8  5  1  0  0  0  0
  9 30  1  0  0  0  0
 11 24  1  0  0  0  0
 13 22  2  0  0  0  0
 15 25  1  0  0  0  0
 16 12  2  0  0  0  0
 18 16  1  6  0  0  0
 18 31  1  0  0  0  0
 19 22  2  0  0  0  0
 20  4  1  0  0  0  0
 20 32  1  0  0  0  0
 21  2  2  0  0  0  0
 21 29  1  0  0  0  0
 22 27  1  0  0  0  0
 22  6  1  0  0  0  0
 23 17  2  0  0  0  0
 23  7  1  0  0  0  0
 25  2  1  6  0  0  0
 25  8  1  0  0  0  0
 26 14  1  1  0  0  0
 26 18  1  0  0  0  0
 26 31  1  0  0  0  0
 27  1  1  6  0  0  0
 27  6  1  0  0  0  0
 28 15  1  0  0  0  0
 28 10  1  0  0  0  0
 29  3  2  0  0  0  0
 30 33  1  1  0  0  0
 30 23  1  0  0  0  0
 31 24  1  1  0  0  0
 32 10  2  0  0  0  0
 33 43  1  1  0  0  0
 34 36  1  0  0  0  0
 35 39  1  0  0  0  0
 36 40  1  6  0  0  0
 37 34  1  0  0  0  0
 38 33  1  6  0  0  0
 38 37  1  0  0  0  0
 38 35  1  0  0  0  0
 39 36  1  0  0  0  0
 40 41  1  0  0  0  0
 42 40  2  0  0  0  0
 44 43  1  0  0  0  0
 45 44  1  0  0  0  0
M  END
>  <MODEL>
6

>  <REMARK>
 VINA RESULT:      -3.0      3.743      6.087
  Name = 
  5 active torsions:
  status: ('A' for Active; 'I' for Inactive)
    1  A    between atoms: C_10  and  C_12
    2  A    between atoms: C_20  and  C_37
    3  A    between atoms: C_20  and  C_39
    4  A    between atoms: C_20  and  C_41
    5  A    between atoms: S_28  and  C_39
                            x       y       z     vdW  Elec       q    Type
                         _______ _______ _______ _____ _____    ______ ____

>  <TORSDO>
F 5

$$$$
=
 OpenBabel11062414233D

 45 51  0  0  1  0  0  0  0  0999 V2000
  183.7280  179.8910  140.3870 C   0  0  0  0  0  2  0  0  0  0  0  0
  186.0830  179.3200  140.1390 C   0  0  0  0  0  3  0  0  0  0  0  0
  185.5210  177.1920  142.2200 N   0  0  0  0  0  0  0  0  0  0  0  0
  186.8480  177.6370  142.5560 C   0  0  0  0  0  0  0  0  0  0  0  0
  189.3160  177.8040  139.0180 N   0  0  0  0  0  2  0  0  0  0  0  0
  182.3470  178.7090  138.7540 C   0  0  2  0  0  3  0  0  0  0  0  0
  184.3800  176.1290  136.9030 C   0  0  2  0  0  3  0  0  0  0  0  0
  188.3570  178.8710  139.2920 C   0  0  0  0  0  2  0  0  0  0  0  0
  182.4250  178.2250  137.4450 O   0  0  0  0  0  0  0  0  0  0  0  0
  189.5800  177.7470  143.1180 N   0  0  0  0  0  0  0  0  0  0  0  0
  184.9550  174.8040  136.3680 C   0  0  0  0  0  2  0  0  0  0  0  0
  189.9290  175.7620  138.1000 O   0  0  0  0  0  0  0  0  0  0  0  0
  181.4970  181.1790  137.5040 O   0  0  0  0  0  0  0  0  0  0  0  0
  185.3580  176.9320  137.7680 C   0  0  0  0  0  2  0  0  0  0  0  0
  187.6770  178.2310  141.6690 C   0  0  0  0  0  0  0  0  0  0  0  0
  188.9920  176.5300  138.4460 C   0  0  0  0  0  0  0  0  0  0  0  0
  182.9960  174.9930  138.6080 C   0  0  0  0  0  2  0  0  0  0  0  0
  187.5750  176.0460  138.3510 C   0  0  1  0  0  3  0  0  0  0  0  0
  181.1160  181.0060  140.0170 O   0  0  0  0  0  0  0  0  0  0  0  0
  187.3320  177.3900  143.9630 C   0  0  0  0  0  2  0  0  0  0  0  0
  184.8970  179.0030  140.6600 C   0  0  0  0  0  0  0  0  0  0  0  0
  181.5750  180.3420  138.7480 S   0  0  0  0  0  0  0  0  0  0  0  0
  183.0830  175.9170  137.6480 C   0  0  0  0  0  0  0  0  0  0  0  0
  186.1880  174.3610  137.1450 C   0  0  0  0  0  2  0  0  0  0  0  0
  187.2570  178.4100  140.2410 C   0  0  1  0  0  3  0  0  0  0  0  0
  186.8120  176.8330  137.3000 C   0  0  1  0  0  3  0  0  0  0  0  0
  183.2910  179.8020  138.9320 C   0  0  1  0  0  3  0  0  0  0  0  0
  189.0420  178.6770  142.1440 C   0  0  0  0  0  2  0  0  0  0  0  0
  184.6620  177.7570  141.4180 C   0  0  0  0  0  3  0  0  0  0  0  0
  181.9560  176.9050  137.5200 C   0  0  2  0  0  3  0  0  0  0  0  0
  187.2930  175.4070  137.0030 C   0  0  1  0  0  3  0  0  0  0  0  0
  188.8180  177.1480  143.9700 C   0  0  0  0  0  3  0  0  0  0  0  0
  180.9870  176.5670  136.3800 C   0  0  1  0  0  3  0  0  0  0  0  0
  179.7670  176.4520  139.4330 C   0  0  0  0  0  2  0  0  0  0  0  0
  178.9310  175.0820  136.9590 C   0  0  0  0  0  2  0  0  0  0  0  0
  179.0550  175.1000  139.4620 C   0  0  1  0  0  3  0  0  0  0  0  0
  179.3310  177.2630  138.2140 C   0  0  0  0  0  2  0  0  0  0  0  0
  179.5440  176.4900  136.9080 C   0  0  1  0  0  3  0  0  0  0  0  0
  179.3740  174.3070  138.1970 C   0  0  0  0  0  2  0  0  0  0  0  0
  179.4650  174.3240  140.6680 C   0  0  0  0  0  0  0  0  0  0  0  0
  179.1770  174.8120  141.9770 N   0  0  0  0  0  1  0  0  0  0  0  0
  180.0880  173.2410  140.5300 O   0  0  0  0  0  0  0  0  0  0  0  0
  181.1420  177.4900  135.1700 C   0  0  0  0  0  2  0  0  0  0  0  0
  179.5220  178.0780  134.5940 S   0  0  0  0  0  0  0  0  0  0  0  0
  179.9030  179.8130  134.9630 C   0  0  0  0  0  1  0  0  0  0  0  0
  1 21  1  0  0  0  0
  2 25  1  0  0  0  0
  2 21  2  0  0  0  0
  3  4  1  0  0  0  0
  4 20  1  0  0  0  0
  5  8  1  0  0  0  0
  6  9  1  6  0  0  0
  6 27  1  0  0  0  0
  7 11  1  1  0  0  0
  7 23  1  0  0  0  0
  7 14  1  0  0  0  0
  9 30  1  0  0  0  0
 10 32  2  0  0  0  0
 11 24  1  0  0  0  0
 12 16  2  0  0  0  0
 13 22  2  0  0  0  0
 15 28  1  0  0  0  0
 15  4  2  0  0  0  0
 16  5  1  0  0  0  0
 18 16  1  6  0  0  0
 20 32  1  0  0  0  0
 21 29  1  0  0  0  0
 22  6  1  0  0  0  0
 22 27  1  0  0  0  0
 22 19  2  0  0  0  0
 23 17  2  0  0  0  0
 25  8  1  6  0  0  0
 25 15  1  0  0  0  0
 26 14  1  1  0  0  0
 26 18  1  0  0  0  0
 27  1  1  1  0  0  0
 28 10  1  0  0  0  0
 29  3  2  0  0  0  0
 30 33  1  6  0  0  0
 30 23  1  0  0  0  0
 31 24  1  1  0  0  0
 31 26  1  0  0  0  0
 31 18  1  0  0  0  0
 33 43  1  6  0  0  0
 34 36  1  0  0  0  0
 35 39  1  0  0  0  0
 36 40  1  1  0  0  0
 37 34  1  0  0  0  0
 38 33  1  1  0  0  0
 38 35  1  0  0  0  0
 38 37  1  0  0  0  0
 39 36  1  0  0  0  0
 40 41  1  0  0  0  0
 42 40  2  0  0  0  0
 44 45  1  0  0  0  0
 44 43  1  0  0  0  0
M  END
>  <MODEL>
7

>  <REMARK>
 VINA RESULT:      -2.7      3.518      8.429
  Name = 
  5 active torsions:
  status: ('A' for Active; 'I' for Inactive)
    1  A    between atoms: C_10  and  C_12
    2  A    between atoms: C_20  and  C_37
    3  A    between atoms: C_20  and  C_39
    4  A    between atoms: C_20  and  C_41
    5  A    between atoms: S_28  and  C_39
                            x       y       z     vdW  Elec       q    Type
                         _______ _______ _______ _____ _____    ______ ____

>  <TORSDO>
F 5

$$$$
=
 OpenBabel11062414233D

 45 51  0  0  1  0  0  0  0  0999 V2000
  183.3320  179.4070  141.3640 C   0  0  0  0  0  2  0  0  0  0  0  0
  182.0170  178.3280  139.6200 C   0  0  0  0  0  3  0  0  0  0  0  0
  182.5830  180.8260  138.0040 N   0  0  0  0  0  0  0  0  0  0  0  0
  181.2340  180.4920  137.6290 C   0  0  0  0  0  0  0  0  0  0  0  0
  180.9390  176.2940  136.6690 N   0  0  0  0  0  2  0  0  0  0  0  0
  185.6830  178.7520  141.2420 C   0  0  2  0  0  3  0  0  0  0  0  0
  186.3560  176.7690  138.1060 C   0  0  2  0  0  3  0  0  0  0  0  0
  180.9680  176.7250  138.0640 C   0  0  0  0  0  2  0  0  0  0  0  0
  186.4630  177.6490  140.8860 O   0  0  0  0  0  0  0  0  0  0  0  0
  178.9310  179.8470  136.1930 N   0  0  0  0  0  0  0  0  0  0  0  0
  186.8580  176.3140  136.7230 C   0  0  0  0  0  2  0  0  0  0  0  0
  181.9540  175.6220  134.6920 O   0  0  0  0  0  0  0  0  0  0  0  0
  185.5970  177.5080  143.8550 O   0  0  0  0  0  0  0  0  0  0  0  0
  184.8400  176.9810  138.1840 C   0  0  0  0  0  2  0  0  0  0  0  0
  180.7230  179.2460  137.7360 C   0  0  0  0  0  0  0  0  0  0  0  0
  182.0880  176.1660  135.8210 C   0  0  0  0  0  0  0  0  0  0  0  0
  187.1830  179.0790  137.7930 C   0  0  0  0  0  2  0  0  0  0  0  0
  183.4140  176.7600  136.1950 C   0  0  1  0  0  3  0  0  0  0  0  0
  184.8330  179.9360  143.7450 O   0  0  0  0  0  0  0  0  0  0  0  0
  180.3750  181.5940  137.0620 C   0  0  0  0  0  2  0  0  0  0  0  0
  182.8110  179.3420  139.9660 C   0  0  0  0  0  0  0  0  0  0  0  0
  185.4100  178.7460  143.0280 S   0  0  0  0  0  0  0  0  0  0  0  0
  187.0770  178.0080  138.5840 C   0  0  0  0  0  0  0  0  0  0  0  0
  185.8350  176.5850  135.6270 C   0  0  0  0  0  2  0  0  0  0  0  0
  181.5810  178.1130  138.2130 C   0  0  1  0  0  3  0  0  0  0  0  0
  184.0400  175.9840  137.3410 C   0  0  1  0  0  3  0  0  0  0  0  0
  184.3520  178.3090  141.6280 C   0  0  1  0  0  3  0  0  0  0  0  0
  179.2830  179.0210  137.3310 C   0  0  0  0  0  2  0  0  0  0  0  0
  183.2820  180.3560  139.0000 C   0  0  0  0  0  3  0  0  0  0  0  0
  187.4500  178.1660  140.0330 C   0  0  2  0  0  3  0  0  0  0  0  0
  184.5550  175.8000  135.9080 C   0  0  1  0  0  3  0  0  0  0  0  0
  179.4110  181.0360  136.0490 C   0  0  0  0  0  3  0  0  0  0  0  0
  188.8450  177.6150  140.3580 C   0  0  1  0  0  3  0  0  0  0  0  0
  190.0820  176.5530  137.5000 C   0  0  0  0  0  2  0  0  0  0  0  0
  191.3590  177.9360  139.7710 C   0  0  0  0  0  2  0  0  0  0  0  0
  191.5660  176.3780  137.8180 C   0  0  1  0  0  3  0  0  0  0  0  0
  189.6020  177.9400  137.9260 C   0  0  0  0  0  2  0  0  0  0  0  0
  189.8930  178.2160  139.4050 C   0  0  1  0  0  3  0  0  0  0  0  0
  191.8100  176.5500  139.3150 C   0  0  0  0  0  2  0  0  0  0  0  0
  192.0340  175.0330  137.3750 C   0  0  0  0  0  0  0  0  0  0  0  0
  191.2070  173.8830  137.5480 N   0  0  0  0  0  1  0  0  0  0  0  0
  193.1770  174.9070  136.8640 O   0  0  0  0  0  0  0  0  0  0  0  0
  189.2150  177.7580  141.8350 C   0  0  0  0  0  2  0  0  0  0  0  0
  189.0020  176.1790  142.7090 S   0  0  0  0  0  0  0  0  0  0  0  0
  190.7290  176.1320  143.2640 C   0  0  0  0  0  1  0  0  0  0  0  0
  2 21  2  0  0  0  0
  3 29  2  0  0  0  0
  4 15  2  0  0  0  0
  4  3  1  0  0  0  0
  5  8  1  0  0  0  0
  6  9  1  1  0  0  0
  6 27  1  0  0  0  0
  6 22  1  0  0  0  0
  7 11  1  6  0  0  0
  7 14  1  0  0  0  0
  7 23  1  0  0  0  0
 10 28  1  0  0  0  0
 12 16  2  0  0  0  0
 15 25  1  0  0  0  0
 16  5  1  0  0  0  0
 17 23  2  0  0  0  0
 18 16  1  6  0  0  0
 18 26  1  0  0  0  0
 20  4  1  0  0  0  0
 21  1  1  0  0  0  0
 22 19  2  0  0  0  0
 22 13  2  0  0  0  0
 23 30  1  0  0  0  0
 24 11  1  0  0  0  0
 25  8  1  1  0  0  0
 25  2  1  0  0  0  0
 26 14  1  1  0  0  0
 27  1  1  6  0  0  0
 27 22  1  0  0  0  0
 28 15  1  0  0  0  0
 29 21  1  0  0  0  0
 30 33  1  6  0  0  0
 30  9  1  0  0  0  0
 31 24  1  1  0  0  0
 31 18  1  0  0  0  0
 31 26  1  0  0  0  0
 32 10  2  0  0  0  0
 32 20  1  0  0  0  0
 33 43  1  1  0  0  0
 34 36  1  0  0  0  0
 34 37  1  0  0  0  0
 36 40  1  1  0  0  0
 36 39  1  0  0  0  0
 37 38  1  0  0  0  0
 38 35  1  0  0  0  0
 38 33  1  1  0  0  0
 39 35  1  0  0  0  0
 40 41  1  0  0  0  0
 42 40  2  0  0  0  0
 43 44  1  0  0  0  0
 44 45  1  0  0  0  0
M  END
>  <MODEL>
8

>  <REMARK>
 VINA RESULT:      -2.6      2.337      3.262
  Name = 
  5 active torsions:
  status: ('A' for Active; 'I' for Inactive)
    1  A    between atoms: C_10  and  C_12
    2  A    between atoms: C_20  and  C_37
    3  A    between atoms: C_20  and  C_39
    4  A    between atoms: C_20  and  C_41
    5  A    between atoms: S_28  and  C_39
                            x       y       z     vdW  Elec       q    Type
                         _______ _______ _______ _____ _____    ______ ____

>  <TORSDO>
F 5

$$$$
=
 OpenBabel11062414233D

 45 51  0  0  1  0  0  0  0  0999 V2000
  185.6750  177.7480  138.0170 C   0  0  0  0  0  2  0  0  0  0  0  0
  183.5000  178.6180  138.6850 C   0  0  0  0  0  3  0  0  0  0  0  0
  182.8400  175.7380  139.3530 N   0  0  0  0  0  0  0  0  0  0  0  0
  181.6000  176.2450  138.8270 C   0  0  0  0  0  0  0  0  0  0  0  0
  180.6440  180.0450  140.6380 N   0  0  0  0  0  2  0  0  0  0  0  0
  187.2780  177.8450  139.8590 C   0  0  2  0  0  3  0  0  0  0  0  0
  185.5620  178.8120  143.0740 C   0  0  2  0  0  3  0  0  0  0  0  0
  181.6370  179.9730  139.5690 C   0  0  0  0  0  2  0  0  0  0  0  0
  187.5760  178.6390  140.9710 O   0  0  0  0  0  0  0  0  0  0  0  0
  178.9310  176.9870  138.4950 N   0  0  0  0  0  0  0  0  0  0  0  0
  184.9600  178.7990  144.4920 C   0  0  0  0  0  2  0  0  0  0  0  0
  179.9990  179.9840  142.8670 O   0  0  0  0  0  0  0  0  0  0  0  0
  188.9980  179.6820  138.4260 O   0  0  0  0  0  0  0  0  0  0  0  0
  184.5240  178.9490  141.9550 C   0  0  0  0  0  2  0  0  0  0  0  0
  181.2810  177.5580  138.8190 C   0  0  0  0  0  0  0  0  0  0  0  0
  180.8860  179.7180  142.0120 C   0  0  0  0  0  0  0  0  0  0  0  0
  185.9870  176.3760  143.0880 C   0  0  0  0  0  2  0  0  0  0  0  0
  182.1140  178.9700  142.4400 C   0  0  1  0  0  3  0  0  0  0  0  0
  188.4150  177.5170  137.2160 O   0  0  0  0  0  0  0  0  0  0  0  0
  180.6080  175.2430  138.2930 C   0  0  0  0  0  2  0  0  0  0  0  0
  184.3320  177.5760  138.6470 C   0  0  0  0  0  0  0  0  0  0  0  0
  188.3150  178.3460  138.4670 S   0  0  0  0  0  0  0  0  0  0  0  0
  186.4360  177.6060  142.8250 C   0  0  0  0  0  0  0  0  0  0  0  0
  183.4690  178.4880  144.4770 C   0  0  0  0  0  2  0  0  0  0  0  0
  182.2090  178.5680  139.4250 C   0  0  1  0  0  3  0  0  0  0  0  0
  183.3440  179.8530  142.3220 C   0  0  1  0  0  3  0  0  0  0  0  0
  186.5750  178.6390  138.8620 C   0  0  1  0  0  3  0  0  0  0  0  0
  179.9560  177.9740  138.2190 C   0  0  0  0  0  2  0  0  0  0  0  0
  184.0250  176.2810  139.2870 C   0  0  0  0  0  3  0  0  0  0  0  0
  187.7100  177.7330  142.0340 C   0  0  2  0  0  3  0  0  0  0  0  0
  182.7230  179.5680  143.6950 C   0  0  1  0  0  3  0  0  0  0  0  0
  179.2010  175.7250  138.5260 C   0  0  0  0  0  3  0  0  0  0  0  0
  188.9320  178.0420  142.9090 C   0  0  1  0  0  3  0  0  0  0  0  0
  187.9150  177.3340  145.9570 C   0  0  0  0  0  2  0  0  0  0  0  0
  190.5360  176.9680  144.6530 C   0  0  0  0  0  2  0  0  0  0  0  0
  189.2180  177.3280  146.7550 C   0  0  1  0  0  3  0  0  0  0  0  0
  188.0410  176.4510  144.7160 C   0  0  0  0  0  2  0  0  0  0  0  0
  189.2340  176.8580  143.8440 C   0  0  1  0  0  3  0  0  0  0  0  0
  190.3690  177.8430  145.8930 C   0  0  0  0  0  2  0  0  0  0  0  0
  189.0800  178.1700  147.9780 C   0  0  0  0  0  0  0  0  0  0  0  0
  187.7910  178.5550  148.4530 N   0  0  0  0  0  1  0  0  0  0  0  0
  190.1100  178.5630  148.5850 O   0  0  0  0  0  0  0  0  0  0  0  0
  190.1460  178.5010  142.1000 C   0  0  0  0  0  2  0  0  0  0  0  0
  190.7110  177.1860  140.9800 S   0  0  0  0  0  0  0  0  0  0  0  0
  192.4580  177.6440  141.1540 C   0  0  0  0  0  1  0  0  0  0  0  0
  1 21  1  0  0  0  0
  4  3  1  0  0  0  0
  5 16  1  0  0  0  0
  6  9  1  1  0  0  0
  7 14  1  6  0  0  0
  7 11  1  0  0  0  0
  8  5  1  0  0  0  0
  9 30  1  0  0  0  0
 10 32  2  0  0  0  0
 13 22  2  0  0  0  0
 15  4  2  0  0  0  0
 15 25  1  0  0  0  0
 16 12  2  0  0  0  0
 18 16  1  6  0  0  0
 18 31  1  0  0  0  0
 19 22  2  0  0  0  0
 20 32  1  0  0  0  0
 20  4  1  0  0  0  0
 21  2  2  0  0  0  0
 21 29  1  0  0  0  0
 22 27  1  0  0  0  0
 22  6  1  0  0  0  0
 23  7  1  0  0  0  0
 23 17  2  0  0  0  0
 24 11  1  0  0  0  0
 25  2  1  6  0  0  0
 25  8  1  0  0  0  0
 26 14  1  1  0  0  0
 26 18  1  0  0  0  0
 26 31  1  0  0  0  0
 27  1  1  6  0  0  0
 27  6  1  0  0  0  0
 28 10  1  0  0  0  0
 28 15  1  0  0  0  0
 29  3  2  0  0  0  0
 30 23  1  0  0  0  0
 30 33  1  1  0  0  0
 31 24  1  1  0  0  0
 33 43  1  6  0  0  0
 34 36  1  0  0  0  0
 35 39  1  0  0  0  0
 36 40  1  1  0  0  0
 37 34  1  0  0  0  0
 38 33  1  1  0  0  0
 38 35  1  0  0  0  0
 38 37  1  0  0  0  0
 39 36  1  0  0  0  0
 40 41  1  0  0  0  0
 40 42  2  0  0  0  0
 44 45  1  0  0  0  0
 44 43  1  0  0  0  0
M  END
>  <MODEL>
9

>  <REMARK>
 VINA RESULT:      -2.3      4.018      6.734
  Name = 
  5 active torsions:
  status: ('A' for Active; 'I' for Inactive)
    1  A    between atoms: C_10  and  C_12
    2  A    between atoms: C_20  and  C_37
    3  A    between atoms: C_20  and  C_39
    4  A    between atoms: C_20  and  C_41
    5  A    between atoms: S_28  and  C_39
                            x       y       z     vdW  Elec       q    Type
                         _______ _______ _______ _____ _____    ______ ____

>  <TORSDO>
F 5

$$$$
