=
 OpenBabel11062414503D

 33 37  0  0  1  0  0  0  0  0999 V2000
  193.5230  177.0680  139.2570 C   0  0  0  0  0  3  0  0  0  0  0  0
  190.9600  173.3390  137.2000 N   0  0  0  0  0  2  0  0  0  0  0  0
  189.7240  176.4490  141.5720 N   0  0  0  0  0  0  0  0  0  0  0  0
  189.2360  177.8640  138.2650 C   0  0  2  0  0  3  0  0  0  0  0  0
  189.3530  176.4760  136.2470 C   0  0  0  0  0  0  0  0  0  0  0  0
  189.7370  176.7350  139.1560 C   0  0  1  0  0  3  0  0  0  0  0  0
  192.9760  175.2960  137.8210 N   0  0  0  0  0  0  0  0  0  0  0  0
  191.2050  176.4950  138.8890 C   0  0  0  0  0  0  0  0  0  0  0  0
  193.8860  176.0600  138.4270 N   0  0  0  0  0  0  0  0  0  0  0  0
  189.4450  177.1920  140.5380 C   0  0  0  0  0  0  0  0  0  0  0  0
  190.7020  174.6030  137.2690 C   0  0  0  0  0  0  0  0  0  0  0  0
  188.4990  178.8780  139.1360 C   0  0  0  0  0  3  0  0  0  0  0  0
  188.7670  178.5130  140.5870 C   0  0  0  0  0  3  0  0  0  0  0  0
  188.4370  177.3540  137.0510 C   0  0  1  0  0  3  0  0  0  0  0  0
  191.6390  175.4880  137.9960 C   0  0  0  0  0  0  0  0  0  0  0  0
  190.0400  176.9750  135.3170 O   0  0  0  0  0  0  0  0  0  0  0  0
  189.5340  175.1040  136.6090 N   0  0  0  0  0  2  0  0  0  0  0  0
  192.1740  177.3020  139.4980 C   0  0  0  0  0  3  0  0  0  0  0  0
  190.2510  176.9800  145.2610 C   0  0  0  0  0  3  0  0  0  0  0  0
  188.1960  177.0390  143.3740 C   0  0  0  0  0  3  0  0  0  0  0  0
  188.9490  177.2890  145.6590 C   0  0  0  0  0  3  0  0  0  0  0  0
  189.4970  176.7290  142.9630 C   0  0  0  0  0  0  0  0  0  0  0  0
  190.5240  176.6990  143.9210 C   0  0  0  0  0  3  0  0  0  0  0  0
  187.9080  177.3050  144.7210 C   0  0  0  0  0  0  0  0  0  0  0  0
  186.0730  176.8600  146.1570 F   0  0  0  0  0  0  0  0  0  0  0  0
  186.5200  177.6880  145.1410 C   0  0  0  0  0  0  0  0  0  0  0  0
  186.4990  178.9960  145.5970 F   0  0  0  0  0  0  0  0  0  0  0  0
  185.6670  177.5730  144.0590 F   0  0  0  0  0  0  0  0  0  0  0  0
  185.9700  176.4160  135.4400 N   0  0  0  0  0  2  0  0  0  0  0  0
  184.9790  177.1780  136.1750 C   0  0  0  0  0  2  0  0  0  0  0  0
  185.7630  177.8190  137.6690 S   0  0  0  0  0  0  0  0  0  0  0  0
  187.1200  176.6350  137.4300 C   0  0  1  0  0  3  0  0  0  0  0  0
  186.7060  175.6930  136.3930 N   0  0  0  0  0  2  0  0  0  0  0  0
  1 18  1  0  0  0  0
  2 11  2  0  0  0  0
  3 22  1  0  0  0  0
  4 12  1  1  0  0  0
  4  6  1  0  0  0  0
  5 17  1  0  0  0  0
  6  8  1  1  0  0  0
  6 10  1  0  0  0  0
  7 15  2  0  0  0  0
  7  9  1  0  0  0  0
  8 18  2  0  0  0  0
  9  1  2  0  0  0  0
 10 13  1  0  0  0  0
 10  3  2  0  0  0  0
 11 15  1  0  0  0  0
 12 13  2  0  0  0  0
 14  5  1  1  0  0  0
 14 32  1  0  0  0  0
 14  4  1  0  0  0  0
 15  8  1  0  0  0  0
 16  5  2  0  0  0  0
 17 11  1  0  0  0  0
 19 21  1  0  0  0  0
 20 24  1  0  0  0  0
 22 20  2  0  0  0  0
 22 23  1  0  0  0  0
 23 19  2  0  0  0  0
 24 26  1  0  0  0  0
 24 21  2  0  0  0  0
 26 27  1  0  0  0  0
 26 25  1  0  0  0  0
 28 26  1  0  0  0  0
 29 30  1  0  0  0  0
 29 33  1  0  0  0  0
 30 31  1  0  0  0  0
 32 33  1  6  0  0  0
 32 31  1  0  0  0  0
M  END
>  <MODEL>
1

>  <REMARK>
 VINA RESULT:      -8.8      0.000      0.000
  Name = 
  3 active torsions:
  status: ('A' for Active; 'I' for Inactive)
    1  A    between atoms: N_5  and  C_18
    2  A    between atoms: C_16  and  C_32
    3  A    between atoms: C_24  and  C_27
                            x       y       z     vdW  Elec       q    Type
                         _______ _______ _______ _____ _____    ______ ____

>  <TORSDO>
F 3

$$$$
=
 OpenBabel11062414503D

 33 37  0  0  1  0  0  0  0  0999 V2000
  193.5590  176.8340  138.9010 C   0  0  0  0  0  3  0  0  0  0  0  0
  191.0530  173.1410  136.7130 N   0  0  0  0  0  2  0  0  0  0  0  0
  189.6610  176.2350  141.0490 N   0  0  0  0  0  0  0  0  0  0  0  0
  189.3260  177.6740  137.7330 C   0  0  2  0  0  3  0  0  0  0  0  0
  189.5160  176.2980  135.7130 C   0  0  0  0  0  0  0  0  0  0  0  0
  189.7790  176.5350  138.6370 C   0  0  1  0  0  3  0  0  0  0  0  0
  193.0590  175.0760  137.4310 N   0  0  0  0  0  0  0  0  0  0  0  0
  191.2540  176.2840  138.4310 C   0  0  0  0  0  0  0  0  0  0  0  0
  193.9490  175.8280  138.0810 N   0  0  0  0  0  0  0  0  0  0  0  0
  189.4320  176.9870  140.0090 C   0  0  0  0  0  0  0  0  0  0  0  0
  190.8040  174.4060  136.7790 C   0  0  0  0  0  0  0  0  0  0  0  0
  188.5610  178.6900  138.5790 C   0  0  0  0  0  3  0  0  0  0  0  0
  188.7640  178.3130  140.0380 C   0  0  0  0  0  3  0  0  0  0  0  0
  188.5750  177.1790  136.4830 C   0  0  1  0  0  3  0  0  0  0  0  0
  191.7170  175.2790  137.5510 C   0  0  0  0  0  0  0  0  0  0  0  0
  190.2460  176.7970  134.8160 O   0  0  0  0  0  0  0  0  0  0  0  0
  189.6700  174.9220  136.0740 N   0  0  0  0  0  2  0  0  0  0  0  0
  192.2030  177.0790  139.0860 C   0  0  0  0  0  3  0  0  0  0  0  0
  187.8480  176.8810  144.2840 C   0  0  0  0  0  3  0  0  0  0  0  0
  190.4550  176.6800  143.3080 C   0  0  0  0  0  3  0  0  0  0  0  0
  188.9310  177.0490  145.1500 C   0  0  0  0  0  3  0  0  0  0  0  0
  189.3780  176.5090  142.4310 C   0  0  0  0  0  0  0  0  0  0  0  0
  188.0700  176.6150  142.9320 C   0  0  0  0  0  3  0  0  0  0  0  0
  190.2430  176.9650  144.6650 C   0  0  0  0  0  0  0  0  0  0  0  0
  192.2610  178.0990  145.1870 F   0  0  0  0  0  0  0  0  0  0  0  0
  191.4050  177.0930  145.6060 C   0  0  0  0  0  0  0  0  0  0  0  0
  190.9590  177.3960  146.8810 F   0  0  0  0  0  0  0  0  0  0  0  0
  192.0980  175.8980  145.6410 F   0  0  0  0  0  0  0  0  0  0  0  0
  186.0520  176.5190  134.8200 N   0  0  0  0  0  2  0  0  0  0  0  0
  185.1000  177.2280  135.6540 C   0  0  0  0  0  2  0  0  0  0  0  0
  185.9280  177.6670  137.1960 S   0  0  0  0  0  0  0  0  0  0  0  0
  187.2360  176.4700  136.8020 C   0  0  1  0  0  3  0  0  0  0  0  0
  186.7730  175.6670  135.6720 N   0  0  0  0  0  2  0  0  0  0  0  0
  1 18  1  0  0  0  0
  2 11  2  0  0  0  0
  3 22  1  0  0  0  0
  4 12  1  1  0  0  0
  4  6  1  0  0  0  0
  5 17  1  0  0  0  0
  6  8  1  1  0  0  0
  6 10  1  0  0  0  0
  7 15  2  0  0  0  0
  7  9  1  0  0  0  0
  8 18  2  0  0  0  0
  9  1  2  0  0  0  0
 10 13  1  0  0  0  0
 10  3  2  0  0  0  0
 11 15  1  0  0  0  0
 12 13  2  0  0  0  0
 14  5  1  1  0  0  0
 14 32  1  0  0  0  0
 14  4  1  0  0  0  0
 15  8  1  0  0  0  0
 16  5  2  0  0  0  0
 17 11  1  0  0  0  0
 19 21  1  0  0  0  0
 20 24  1  0  0  0  0
 22 23  1  0  0  0  0
 22 20  2  0  0  0  0
 23 19  2  0  0  0  0
 24 21  2  0  0  0  0
 24 26  1  0  0  0  0
 25 26  1  0  0  0  0
 26 28  1  0  0  0  0
 26 27  1  0  0  0  0
 29 30  1  0  0  0  0
 29 33  1  0  0  0  0
 30 31  1  0  0  0  0
 32 33  1  6  0  0  0
 32 31  1  0  0  0  0
M  END
>  <MODEL>
2

>  <REMARK>
 VINA RESULT:      -8.3      1.797      2.259
  Name = 
  3 active torsions:
  status: ('A' for Active; 'I' for Inactive)
    1  A    between atoms: N_5  and  C_18
    2  A    between atoms: C_16  and  C_32
    3  A    between atoms: C_24  and  C_27
                            x       y       z     vdW  Elec       q    Type
                         _______ _______ _______ _____ _____    ______ ____

>  <TORSDO>
F 3

$$$$
=
 OpenBabel11062414503D

 33 37  0  0  1  0  0  0  0  0999 V2000
  179.6360  180.3380  142.0170 C   0  0  0  0  0  3  0  0  0  0  0  0
  181.0880  182.3840  137.7260 N   0  0  0  0  0  2  0  0  0  0  0  0
  183.8440  179.0440  141.1280 N   0  0  0  0  0  0  0  0  0  0  0  0
  181.3440  177.5830  138.9370 C   0  0  2  0  0  3  0  0  0  0  0  0
  180.3390  178.8650  137.1050 C   0  0  0  0  0  0  0  0  0  0  0  0
  182.0460  178.8110  139.5050 C   0  0  1  0  0  3  0  0  0  0  0  0
  179.5850  181.6350  140.0640 N   0  0  0  0  0  0  0  0  0  0  0  0
  181.0250  179.7280  140.1370 C   0  0  0  0  0  0  0  0  0  0  0  0
  179.1770  181.4000  141.3120 N   0  0  0  0  0  0  0  0  0  0  0  0
  183.0380  178.2640  140.4650 C   0  0  0  0  0  0  0  0  0  0  0  0
  180.8590  181.1520  138.0390 C   0  0  0  0  0  0  0  0  0  0  0  0
  182.0650  176.3360  139.4450 C   0  0  0  0  0  3  0  0  0  0  0  0
  183.0390  176.7790  140.5240 C   0  0  0  0  0  3  0  0  0  0  0  0
  181.1700  177.6510  137.4090 C   0  0  1  0  0  3  0  0  0  0  0  0
  180.4770  180.8230  139.4310 C   0  0  0  0  0  0  0  0  0  0  0  0
  179.0860  178.7610  137.0300 O   0  0  0  0  0  0  0  0  0  0  0  0
  180.9540  180.1540  137.0170 N   0  0  0  0  0  2  0  0  0  0  0  0
  180.5660  179.4820  141.4380 C   0  0  0  0  0  3  0  0  0  0  0  0
  187.0950  177.9100  142.6480 C   0  0  0  0  0  3  0  0  0  0  0  0
  184.5600  178.7700  143.4390 C   0  0  0  0  0  3  0  0  0  0  0  0
  186.7830  178.0010  144.0060 C   0  0  0  0  0  3  0  0  0  0  0  0
  184.8620  178.6840  142.0750 C   0  0  0  0  0  0  0  0  0  0  0  0
  186.1390  178.2470  141.6880 C   0  0  0  0  0  3  0  0  0  0  0  0
  185.5070  178.4160  144.4120 C   0  0  0  0  0  0  0  0  0  0  0  0
  185.7420  179.7310  146.3720 F   0  0  0  0  0  0  0  0  0  0  0  0
  185.1900  178.5640  145.8710 C   0  0  0  0  0  0  0  0  0  0  0  0
  183.8190  178.6060  146.0630 F   0  0  0  0  0  0  0  0  0  0  0  0
  185.7100  177.4860  146.5630 F   0  0  0  0  0  0  0  0  0  0  0  0
  182.0040  176.6810  134.5940 N   0  0  0  0  0  2  0  0  0  0  0  0
  183.0270  175.7470  135.0240 C   0  0  0  0  0  2  0  0  0  0  0  0
  183.3540  176.0460  136.7740 S   0  0  0  0  0  0  0  0  0  0  0  0
  182.5080  177.6470  136.6290 C   0  0  1  0  0  3  0  0  0  0  0  0
  182.3000  177.9090  135.2070 N   0  0  0  0  0  2  0  0  0  0  0  0
  2 11  2  0  0  0  0
  3 22  1  0  0  0  0
  4 12  1  6  0  0  0
  4  6  1  0  0  0  0
  6  8  1  1  0  0  0
  6 10  1  0  0  0  0
  7  9  1  0  0  0  0
  8 18  2  0  0  0  0
  9  1  2  0  0  0  0
 10 13  1  0  0  0  0
 10  3  2  0  0  0  0
 11 15  1  0  0  0  0
 12 13  2  0  0  0  0
 14  5  1  1  0  0  0
 14  4  1  0  0  0  0
 15  7  2  0  0  0  0
 15  8  1  0  0  0  0
 16  5  2  0  0  0  0
 17  5  1  0  0  0  0
 17 11  1  0  0  0  0
 18  1  1  0  0  0  0
 19 21  1  0  0  0  0
 20 24  1  0  0  0  0
 21 24  2  0  0  0  0
 22 20  2  0  0  0  0
 23 22  1  0  0  0  0
 23 19  2  0  0  0  0
 24 26  1  0  0  0  0
 26 27  1  0  0  0  0
 26 25  1  0  0  0  0
 26 28  1  0  0  0  0
 29 30  1  0  0  0  0
 29 33  1  0  0  0  0
 30 31  1  0  0  0  0
 32 33  1  6  0  0  0
 32 31  1  0  0  0  0
 32 14  1  0  0  0  0
M  END
>  <MODEL>
3

>  <REMARK>
 VINA RESULT:      -7.7      5.663      8.334
  Name = 
  3 active torsions:
  status: ('A' for Active; 'I' for Inactive)
    1  A    between atoms: N_5  and  C_18
    2  A    between atoms: C_16  and  C_32
    3  A    between atoms: C_24  and  C_27
                            x       y       z     vdW  Elec       q    Type
                         _______ _______ _______ _____ _____    ______ ____

>  <TORSDO>
F 3

$$$$
=
 OpenBabel11062414503D

 33 37  0  0  1  0  0  0  0  0999 V2000
  189.3010  178.8680  137.2460 C   0  0  0  0  0  3  0  0  0  0  0  0
  186.9630  174.5220  136.6590 N   0  0  0  0  0  2  0  0  0  0  0  0
  187.8460  177.4370  141.2460 N   0  0  0  0  0  0  0  0  0  0  0  0
  185.2050  178.5210  139.0040 C   0  0  2  0  0  3  0  0  0  0  0  0
  184.4340  177.1090  137.1540 C   0  0  0  0  0  0  0  0  0  0  0  0
  186.3760  177.5970  139.3140 C   0  0  1  0  0  3  0  0  0  0  0  0
  188.4430  176.9480  136.2080 N   0  0  0  0  0  0  0  0  0  0  0  0
  187.4160  177.7180  138.2240 C   0  0  0  0  0  0  0  0  0  0  0  0
  189.3300  177.9430  136.2560 N   0  0  0  0  0  0  0  0  0  0  0  0
  186.8530  178.0340  140.6510 C   0  0  0  0  0  0  0  0  0  0  0  0
  186.5120  175.6840  137.0000 C   0  0  0  0  0  0  0  0  0  0  0  0
  184.9090  179.3610  140.2450 C   0  0  0  0  0  3  0  0  0  0  0  0
  186.0510  179.1450  141.2240 C   0  0  0  0  0  3  0  0  0  0  0  0
  183.9910  177.7690  138.4280 C   0  0  1  0  0  3  0  0  0  0  0  0
  187.4630  176.8090  137.1430 C   0  0  0  0  0  0  0  0  0  0  0  0
  184.3090  177.7180  136.0580 O   0  0  0  0  0  0  0  0  0  0  0  0
  185.1020  175.8450  137.1940 N   0  0  0  0  0  2  0  0  0  0  0  0
  188.3400  178.7710  138.2450 C   0  0  0  0  0  3  0  0  0  0  0  0
  190.2480  178.4370  143.9660 C   0  0  0  0  0  3  0  0  0  0  0  0
  187.6280  177.5230  143.6700 C   0  0  0  0  0  3  0  0  0  0  0  0
  189.4480  178.2390  145.0930 C   0  0  0  0  0  3  0  0  0  0  0  0
  188.4200  177.7190  142.5330 C   0  0  0  0  0  0  0  0  0  0  0  0
  189.7380  178.1760  142.6940 C   0  0  0  0  0  3  0  0  0  0  0  0
  188.1370  177.7640  144.9550 C   0  0  0  0  0  0  0  0  0  0  0  0
  186.9190  178.8390  146.6840 F   0  0  0  0  0  0  0  0  0  0  0  0
  187.2610  177.6020  146.1630 C   0  0  0  0  0  0  0  0  0  0  0  0
  186.0990  176.9280  145.8270 F   0  0  0  0  0  0  0  0  0  0  0  0
  187.9410  176.8800  147.1260 F   0  0  0  0  0  0  0  0  0  0  0  0
  181.3960  176.0870  138.3990 N   0  0  0  0  0  2  0  0  0  0  0  0
  180.8260  176.6210  139.6210 C   0  0  0  0  0  2  0  0  0  0  0  0
  182.1080  177.5670  140.4690 S   0  0  0  0  0  0  0  0  0  0  0  0
  183.3540  176.7640  139.4190 C   0  0  1  0  0  3  0  0  0  0  0  0
  182.6970  175.6640  138.7160 N   0  0  0  0  0  2  0  0  0  0  0  0
  1 18  1  0  0  0  0
  2 11  2  0  0  0  0
  3 22  1  0  0  0  0
  4  6  1  0  0  0  0
  4 12  1  1  0  0  0
  5 17  1  0  0  0  0
  6  8  1  6  0  0  0
  6 10  1  0  0  0  0
  7  9  1  0  0  0  0
  7 15  2  0  0  0  0
  8 18  2  0  0  0  0
  9  1  2  0  0  0  0
 10 13  1  0  0  0  0
 10  3  2  0  0  0  0
 11 15  1  0  0  0  0
 11 17  1  0  0  0  0
 12 13  2  0  0  0  0
 14  5  1  6  0  0  0
 14  4  1  0  0  0  0
 14 32  1  0  0  0  0
 15  8  1  0  0  0  0
 16  5  2  0  0  0  0
 19 21  1  0  0  0  0
 20 24  1  0  0  0  0
 22 23  1  0  0  0  0
 22 20  2  0  0  0  0
 23 19  2  0  0  0  0
 24 21  2  0  0  0  0
 24 26  1  0  0  0  0
 26 25  1  0  0  0  0
 26 28  1  0  0  0  0
 27 26  1  0  0  0  0
 29 33  1  0  0  0  0
 29 30  1  0  0  0  0
 30 31  1  0  0  0  0
 32 33  1  6  0  0  0
 32 31  1  0  0  0  0
M  END
>  <MODEL>
4

>  <REMARK>
 VINA RESULT:      -6.9      2.849      3.876
  Name = 
  3 active torsions:
  status: ('A' for Active; 'I' for Inactive)
    1  A    between atoms: N_5  and  C_18
    2  A    between atoms: C_16  and  C_32
    3  A    between atoms: C_24  and  C_27
                            x       y       z     vdW  Elec       q    Type
                         _______ _______ _______ _____ _____    ______ ____

>  <TORSDO>
F 3

$$$$
=
 OpenBabel11062414503D

 33 37  0  0  1  0  0  0  0  0999 V2000
  183.9350  179.2290  138.7170 C   0  0  0  0  0  3  0  0  0  0  0  0
  187.9930  177.8890  141.2550 N   0  0  0  0  0  2  0  0  0  0  0  0
  184.8920  174.9400  137.7900 N   0  0  0  0  0  0  0  0  0  0  0  0
  187.2420  177.3250  136.3870 C   0  0  2  0  0  3  0  0  0  0  0  0
  188.9560  178.4020  137.7710 C   0  0  0  0  0  0  0  0  0  0  0  0
  186.5510  176.7090  137.5970 C   0  0  1  0  0  3  0  0  0  0  0  0
  185.7560  179.3540  140.1890 N   0  0  0  0  0  0  0  0  0  0  0  0
  185.8470  177.7920  138.3810 C   0  0  0  0  0  0  0  0  0  0  0  0
  184.5410  179.7530  139.8100 N   0  0  0  0  0  0  0  0  0  0  0  0
  185.6350  175.6890  137.0260 C   0  0  0  0  0  0  0  0  0  0  0  0
  187.8020  178.0380  139.9860 C   0  0  0  0  0  0  0  0  0  0  0  0
  186.8470  176.5270  135.1460 C   0  0  0  0  0  3  0  0  0  0  0  0
  185.7180  175.5910  135.5460 C   0  0  0  0  0  3  0  0  0  0  0  0
  188.7590  177.4940  136.5900 C   0  0  1  0  0  3  0  0  0  0  0  0
  186.4530  178.4060  139.5020 C   0  0  0  0  0  0  0  0  0  0  0  0
  189.0560  179.6440  137.5930 O   0  0  0  0  0  0  0  0  0  0  0  0
  188.9130  177.8720  139.0990 N   0  0  0  0  0  2  0  0  0  0  0  0
  184.5820  178.2410  137.9830 C   0  0  0  0  0  3  0  0  0  0  0  0
  183.4300  171.6030  136.8430 C   0  0  0  0  0  3  0  0  0  0  0  0
  182.6280  174.2500  137.2190 C   0  0  0  0  0  3  0  0  0  0  0  0
  182.0930  171.9580  136.6570 C   0  0  0  0  0  3  0  0  0  0  0  0
  183.9710  173.9050  137.4080 C   0  0  0  0  0  0  0  0  0  0  0  0
  184.3650  172.5720  137.2130 C   0  0  0  0  0  3  0  0  0  0  0  0
  181.6840  173.2880  136.8280 C   0  0  0  0  0  0  0  0  0  0  0  0
  179.7580  173.2580  135.4440 F   0  0  0  0  0  0  0  0  0  0  0  0
  180.2370  173.6580  136.6800 C   0  0  0  0  0  0  0  0  0  0  0  0
  179.4820  173.0460  137.6660 F   0  0  0  0  0  0  0  0  0  0  0  0
  180.1030  175.0290  136.7930 F   0  0  0  0  0  0  0  0  0  0  0  0
  191.7400  176.7530  136.9440 N   0  0  0  0  0  2  0  0  0  0  0  0
  191.8520  175.9050  135.7730 C   0  0  0  0  0  2  0  0  0  0  0  0
  190.1870  175.5800  135.1580 S   0  0  0  0  0  0  0  0  0  0  0  0
  189.5190  176.1540  136.7470 C   0  0  1  0  0  3  0  0  0  0  0  0
  190.6390  176.2800  137.6770 N   0  0  0  0  0  2  0  0  0  0  0  0
  1  9  1  0  0  0  0
  4 12  1  6  0  0  0
  4 14  1  0  0  0  0
  4  6  1  0  0  0  0
  5 17  1  0  0  0  0
  6 10  1  6  0  0  0
  6  8  1  0  0  0  0
  8 15  2  0  0  0  0
  9  7  2  0  0  0  0
 10  3  2  0  0  0  0
 11  2  2  0  0  0  0
 12 13  2  0  0  0  0
 13 10  1  0  0  0  0
 14 32  1  0  0  0  0
 14  5  1  1  0  0  0
 15 11  1  0  0  0  0
 15  7  1  0  0  0  0
 16  5  2  0  0  0  0
 17 11  1  0  0  0  0
 18  8  1  0  0  0  0
 18  1  2  0  0  0  0
 19 23  1  0  0  0  0
 20 22  1  0  0  0  0
 21 24  1  0  0  0  0
 21 19  2  0  0  0  0
 22  3  1  0  0  0  0
 23 22  2  0  0  0  0
 24 20  2  0  0  0  0
 25 26  1  0  0  0  0
 26 28  1  0  0  0  0
 26 24  1  0  0  0  0
 26 27  1  0  0  0  0
 29 33  1  0  0  0  0
 30 29  1  0  0  0  0
 31 30  1  0  0  0  0
 32 31  1  6  0  0  0
 32 33  1  0  0  0  0
M  END
>  <MODEL>
5

>  <REMARK>
 VINA RESULT:      -6.5      4.529      7.796
  Name = 
  3 active torsions:
  status: ('A' for Active; 'I' for Inactive)
    1  A    between atoms: N_5  and  C_18
    2  A    between atoms: C_16  and  C_32
    3  A    between atoms: C_24  and  C_27
                            x       y       z     vdW  Elec       q    Type
                         _______ _______ _______ _____ _____    ______ ____

>  <TORSDO>
F 3

$$$$
=
 OpenBabel11062414503D

 33 37  0  0  1  0  0  0  0  0999 V2000
  184.0470  179.3560  139.1280 C   0  0  0  0  0  3  0  0  0  0  0  0
  188.2600  177.5890  141.0860 N   0  0  0  0  0  2  0  0  0  0  0  0
  184.6760  175.1470  137.6940 N   0  0  0  0  0  0  0  0  0  0  0  0
  186.9990  177.5590  136.2910 C   0  0  2  0  0  3  0  0  0  0  0  0
  188.8980  178.4130  137.5860 C   0  0  0  0  0  0  0  0  0  0  0  0
  186.4000  176.8530  137.5010 C   0  0  1  0  0  3  0  0  0  0  0  0
  186.0100  179.2510  140.4070 N   0  0  0  0  0  0  0  0  0  0  0  0
  185.8370  177.8800  138.4560 C   0  0  0  0  0  0  0  0  0  0  0  0
  184.7860  179.7390  140.1970 N   0  0  0  0  0  0  0  0  0  0  0  0
  185.3790  175.9370  136.9320 C   0  0  0  0  0  0  0  0  0  0  0  0
  187.9520  177.8750  139.8640 C   0  0  0  0  0  0  0  0  0  0  0  0
  186.4400  176.9100  135.0270 C   0  0  0  0  0  3  0  0  0  0  0  0
  185.3080  175.9880  135.4490 C   0  0  0  0  0  3  0  0  0  0  0  0
  188.5360  177.6400  136.3500 C   0  0  1  0  0  3  0  0  0  0  0  0
  186.5830  178.3490  139.5620 C   0  0  0  0  0  0  0  0  0  0  0  0
  189.0450  179.6620  137.5210 O   0  0  0  0  0  0  0  0  0  0  0  0
  188.9590  177.7520  138.8540 N   0  0  0  0  0  2  0  0  0  0  0  0
  184.5640  178.4210  138.2380 C   0  0  0  0  0  3  0  0  0  0  0  0
  181.3520  173.5230  136.9960 C   0  0  0  0  0  3  0  0  0  0  0  0
  184.0790  172.9410  136.8530 C   0  0  0  0  0  3  0  0  0  0  0  0
  181.7750  172.2730  136.5410 C   0  0  0  0  0  3  0  0  0  0  0  0
  183.6670  174.1980  137.3110 C   0  0  0  0  0  0  0  0  0  0  0  0
  182.2930  174.4790  137.3820 C   0  0  0  0  0  3  0  0  0  0  0  0
  183.1410  171.9660  136.4800 C   0  0  0  0  0  0  0  0  0  0  0  0
  184.9270  170.7010  135.5650 F   0  0  0  0  0  0  0  0  0  0  0  0
  183.5950  170.6420  135.9400 C   0  0  0  0  0  0  0  0  0  0  0  0
  183.4500  169.6560  136.9010 F   0  0  0  0  0  0  0  0  0  0  0  0
  182.8310  170.3130  134.8360 F   0  0  0  0  0  0  0  0  0  0  0  0
  191.4930  176.7400  136.2760 N   0  0  0  0  0  2  0  0  0  0  0  0
  191.4220  176.0020  135.0300 C   0  0  0  0  0  2  0  0  0  0  0  0
  189.6810  175.8090  134.5940 S   0  0  0  0  0  0  0  0  0  0  0  0
  189.2340  176.2600  136.2960 C   0  0  1  0  0  3  0  0  0  0  0  0
  190.4600  176.2490  137.0910 N   0  0  0  0  0  2  0  0  0  0  0  0
  1  9  1  0  0  0  0
  4 12  1  6  0  0  0
  4 14  1  0  0  0  0
  4  6  1  0  0  0  0
  5 17  1  0  0  0  0
  6 10  1  6  0  0  0
  6  8  1  0  0  0  0
  8 15  2  0  0  0  0
  9  7  2  0  0  0  0
 10  3  2  0  0  0  0
 11  2  2  0  0  0  0
 12 13  2  0  0  0  0
 13 10  1  0  0  0  0
 14  5  1  1  0  0  0
 15 11  1  0  0  0  0
 15  7  1  0  0  0  0
 16  5  2  0  0  0  0
 17 11  1  0  0  0  0
 18  8  1  0  0  0  0
 18  1  2  0  0  0  0
 19 23  1  0  0  0  0
 20 22  1  0  0  0  0
 21 19  2  0  0  0  0
 22 23  2  0  0  0  0
 22  3  1  0  0  0  0
 24 21  1  0  0  0  0
 24 20  2  0  0  0  0
 25 26  1  0  0  0  0
 26 24  1  0  0  0  0
 26 27  1  0  0  0  0
 28 26  1  0  0  0  0
 29 33  1  0  0  0  0
 30 29  1  0  0  0  0
 31 30  1  0  0  0  0
 32 31  1  6  0  0  0
 32 14  1  0  0  0  0
 32 33  1  0  0  0  0
M  END
>  <MODEL>
6

>  <REMARK>
 VINA RESULT:      -6.4      4.859      7.970
  Name = 
  3 active torsions:
  status: ('A' for Active; 'I' for Inactive)
    1  A    between atoms: N_5  and  C_18
    2  A    between atoms: C_16  and  C_32
    3  A    between atoms: C_24  and  C_27
                            x       y       z     vdW  Elec       q    Type
                         _______ _______ _______ _____ _____    ______ ____

>  <TORSDO>
F 3

$$$$
=
 OpenBabel11062414503D

 33 37  0  0  1  0  0  0  0  0999 V2000
  189.4290  178.6940  137.5300 C   0  0  0  0  0  3  0  0  0  0  0  0
  186.8930  174.4960  136.7230 N   0  0  0  0  0  2  0  0  0  0  0  0
  187.6700  177.2760  141.4110 N   0  0  0  0  0  0  0  0  0  0  0  0
  185.2250  178.5450  139.0470 C   0  0  2  0  0  3  0  0  0  0  0  0
  184.4860  177.2110  137.1270 C   0  0  0  0  0  0  0  0  0  0  0  0
  186.3240  177.5520  139.4030 C   0  0  1  0  0  3  0  0  0  0  0  0
  188.5280  176.8430  136.4060 N   0  0  0  0  0  0  0  0  0  0  0  0
  187.4300  177.6340  138.3770 C   0  0  0  0  0  0  0  0  0  0  0  0
  189.4640  177.7860  136.5240 N   0  0  0  0  0  0  0  0  0  0  0  0
  186.7470  177.9380  140.7730 C   0  0  0  0  0  0  0  0  0  0  0  0
  186.4880  175.6740  137.0610 C   0  0  0  0  0  0  0  0  0  0  0  0
  184.9050  179.3780  140.2860 C   0  0  0  0  0  3  0  0  0  0  0  0
  185.9750  179.0820  141.3240 C   0  0  0  0  0  3  0  0  0  0  0  0
  184.0070  177.8720  138.3880 C   0  0  1  0  0  3  0  0  0  0  0  0
  187.4890  176.7420  137.2810 C   0  0  0  0  0  0  0  0  0  0  0  0
  184.4570  177.8440  136.0390 O   0  0  0  0  0  0  0  0  0  0  0  0
  185.0800  175.9100  137.1790 N   0  0  0  0  0  2  0  0  0  0  0  0
  188.4070  178.6330  138.4710 C   0  0  0  0  0  3  0  0  0  0  0  0
  187.9310  177.6400  145.1490 C   0  0  0  0  0  3  0  0  0  0  0  0
  189.5360  177.8340  142.8730 C   0  0  0  0  0  3  0  0  0  0  0  0
  189.2820  177.9690  145.2750 C   0  0  0  0  0  3  0  0  0  0  0  0
  188.1830  177.5030  142.7340 C   0  0  0  0  0  0  0  0  0  0  0  0
  187.3840  177.4110  143.8850 C   0  0  0  0  0  3  0  0  0  0  0  0
  190.0910  178.0840  144.1370 C   0  0  0  0  0  0  0  0  0  0  0  0
  191.7650  179.7520  144.3440 F   0  0  0  0  0  0  0  0  0  0  0  0
  191.5550  178.3850  144.2780 C   0  0  0  0  0  0  0  0  0  0  0  0
  192.0550  177.8060  145.4310 F   0  0  0  0  0  0  0  0  0  0  0  0
  192.2330  177.8770  143.1860 F   0  0  0  0  0  0  0  0  0  0  0  0
  181.2990  176.3890  138.2070 N   0  0  0  0  0  2  0  0  0  0  0  0
  180.7220  176.9260  139.4250 C   0  0  0  0  0  2  0  0  0  0  0  0
  182.0360  177.7470  140.3500 S   0  0  0  0  0  0  0  0  0  0  0  0
  183.2600  176.8870  139.3200 C   0  0  1  0  0  3  0  0  0  0  0  0
  182.5520  175.8610  138.5570 N   0  0  0  0  0  2  0  0  0  0  0  0
  1 18  1  0  0  0  0
  2 11  2  0  0  0  0
  3 22  1  0  0  0  0
  4  6  1  0  0  0  0
  4 12  1  1  0  0  0
  5 17  1  0  0  0  0
  6  8  1  6  0  0  0
  6 10  1  0  0  0  0
  7  9  1  0  0  0  0
  7 15  2  0  0  0  0
  8 18  2  0  0  0  0
  9  1  2  0  0  0  0
 10 13  1  0  0  0  0
 10  3  2  0  0  0  0
 11 17  1  0  0  0  0
 11 15  1  0  0  0  0
 12 13  2  0  0  0  0
 14  5  1  6  0  0  0
 14  4  1  0  0  0  0
 14 32  1  0  0  0  0
 15  8  1  0  0  0  0
 16  5  2  0  0  0  0
 19 21  1  0  0  0  0
 20 24  1  0  0  0  0
 22 20  2  0  0  0  0
 22 23  1  0  0  0  0
 23 19  2  0  0  0  0
 24 26  1  0  0  0  0
 24 21  2  0  0  0  0
 26 25  1  0  0  0  0
 26 27  1  0  0  0  0
 28 26  1  0  0  0  0
 29 33  1  0  0  0  0
 29 30  1  0  0  0  0
 30 31  1  0  0  0  0
 32 33  1  6  0  0  0
 32 31  1  0  0  0  0
M  END
>  <MODEL>
7

>  <REMARK>
 VINA RESULT:      -6.4      3.265      4.341
  Name = 
  3 active torsions:
  status: ('A' for Active; 'I' for Inactive)
    1  A    between atoms: N_5  and  C_18
    2  A    between atoms: C_16  and  C_32
    3  A    between atoms: C_24  and  C_27
                            x       y       z     vdW  Elec       q    Type
                         _______ _______ _______ _____ _____    ______ ____

>  <TORSDO>
F 3

$$$$
=
 OpenBabel11062414503D

 33 37  0  0  1  0  0  0  0  0999 V2000
  180.3690  180.5240  140.0260 C   0  0  0  0  0  3  0  0  0  0  0  0
  180.5150  178.0370  144.3280 N   0  0  0  0  0  2  0  0  0  0  0  0
  182.6910  176.7240  139.4440 N   0  0  0  0  0  0  0  0  0  0  0  0
  184.3920  179.2110  141.4700 C   0  0  2  0  0  3  0  0  0  0  0  0
  183.7760  179.5960  143.8120 C   0  0  0  0  0  0  0  0  0  0  0  0
  183.2000  178.2920  141.2340 C   0  0  1  0  0  3  0  0  0  0  0  0
  179.9710  179.9770  142.2720 N   0  0  0  0  0  0  0  0  0  0  0  0
  181.9290  179.1100  141.2100 C   0  0  0  0  0  0  0  0  0  0  0  0
  179.6070  180.5920  141.1450 N   0  0  0  0  0  0  0  0  0  0  0  0
  183.5000  177.6130  139.9470 C   0  0  0  0  0  0  0  0  0  0  0  0
  181.4520  178.6200  143.6580 C   0  0  0  0  0  0  0  0  0  0  0  0
  185.4480  178.9160  140.4070 C   0  0  0  0  0  3  0  0  0  0  0  0
  184.8090  178.0100  139.3680 C   0  0  0  0  0  3  0  0  0  0  0  0
  184.9040  179.1590  142.9210 C   0  0  1  0  0  3  0  0  0  0  0  0
  181.1210  179.2540  142.3620 C   0  0  0  0  0  0  0  0  0  0  0  0
  183.6580  180.8110  144.1200 O   0  0  0  0  0  0  0  0  0  0  0  0
  182.7720  178.6580  144.2120 N   0  0  0  0  0  2  0  0  0  0  0  0
  181.5450  179.7830  140.0440 C   0  0  0  0  0  3  0  0  0  0  0  0
  182.5120  175.6480  135.8410 C   0  0  0  0  0  3  0  0  0  0  0  0
  183.4840  174.7300  138.2920 C   0  0  0  0  0  3  0  0  0  0  0  0
  183.1620  174.4150  135.9150 C   0  0  0  0  0  3  0  0  0  0  0  0
  182.8340  175.9690  138.2300 C   0  0  0  0  0  0  0  0  0  0  0  0
  182.3460  176.4200  136.9930 C   0  0  0  0  0  3  0  0  0  0  0  0
  183.6390  173.9390  137.1440 C   0  0  0  0  0  0  0  0  0  0  0  0
  183.5120  171.5920  137.4630 F   0  0  0  0  0  0  0  0  0  0  0  0
  184.3840  172.6380  137.2120 C   0  0  0  0  0  0  0  0  0  0  0  0
  185.0330  172.3930  136.0140 F   0  0  0  0  0  0  0  0  0  0  0  0
  185.3180  172.6990  138.2290 F   0  0  0  0  0  0  0  0  0  0  0  0
  186.6900  178.1890  145.2510 N   0  0  0  0  0  2  0  0  0  0  0  0
  187.7570  177.6360  144.4380 C   0  0  0  0  0  2  0  0  0  0  0  0
  187.1750  177.5600  142.7310 S   0  0  0  0  0  0  0  0  0  0  0  0
  185.4740  177.7800  143.3310 C   0  0  1  0  0  3  0  0  0  0  0  0
  185.4950  177.6200  144.7840 N   0  0  0  0  0  2  0  0  0  0  0  0
  1 18  2  0  0  0  0
  1  9  1  0  0  0  0
  3 10  2  0  0  0  0
  4 12  1  6  0  0  0
  4 14  1  0  0  0  0
  5 16  2  0  0  0  0
  5 17  1  0  0  0  0
  6 10  1  6  0  0  0
  6  4  1  0  0  0  0
  7 15  1  0  0  0  0
  8  6  1  0  0  0  0
  8 15  2  0  0  0  0
  9  7  2  0  0  0  0
 11 17  1  0  0  0  0
 11  2  2  0  0  0  0
 13 10  1  0  0  0  0
 13 12  2  0  0  0  0
 14 32  1  0  0  0  0
 14  5  1  1  0  0  0
 15 11  1  0  0  0  0
 18  8  1  0  0  0  0
 19 21  2  0  0  0  0
 19 23  1  0  0  0  0
 21 24  1  0  0  0  0
 22 20  1  0  0  0  0
 22  3  1  0  0  0  0
 23 22  2  0  0  0  0
 24 26  1  0  0  0  0
 24 20  2  0  0  0  0
 26 25  1  0  0  0  0
 26 28  1  0  0  0  0
 27 26  1  0  0  0  0
 30 29  1  0  0  0  0
 31 30  1  0  0  0  0
 32 31  1  1  0  0  0
 32 33  1  0  0  0  0
 33 29  1  0  0  0  0
M  END
>  <MODEL>
8

>  <REMARK>
 VINA RESULT:      -6.3      6.158      9.911
  Name = 
  3 active torsions:
  status: ('A' for Active; 'I' for Inactive)
    1  A    between atoms: N_5  and  C_18
    2  A    between atoms: C_16  and  C_32
    3  A    between atoms: C_24  and  C_27
                            x       y       z     vdW  Elec       q    Type
                         _______ _______ _______ _____ _____    ______ ____

>  <TORSDO>
F 3

$$$$
=
 OpenBabel11062414503D

 33 37  0  0  1  0  0  0  0  0999 V2000
  179.5090  178.2960  140.0370 C   0  0  0  0  0  3  0  0  0  0  0  0
  183.9080  177.9240  142.3220 N   0  0  0  0  0  2  0  0  0  0  0  0
  181.7550  174.8030  138.3290 N   0  0  0  0  0  0  0  0  0  0  0  0
  183.1300  178.0390  137.4270 C   0  0  2  0  0  3  0  0  0  0  0  0
  184.4720  179.3480  139.0070 C   0  0  0  0  0  0  0  0  0  0  0  0
  182.7390  177.0220  138.4920 C   0  0  1  0  0  3  0  0  0  0  0  0
  181.2650  178.7420  141.5270 N   0  0  0  0  0  0  0  0  0  0  0  0
  181.7640  177.6520  139.4580 C   0  0  0  0  0  0  0  0  0  0  0  0
  179.9690  178.7820  141.2160 N   0  0  0  0  0  0  0  0  0  0  0  0
  182.1750  175.8800  137.7280 C   0  0  0  0  0  0  0  0  0  0  0  0
  183.6140  178.2300  141.1020 C   0  0  0  0  0  0  0  0  0  0  0  0
  182.9510  177.3950  136.0540 C   0  0  0  0  0  3  0  0  0  0  0  0
  182.2090  176.0850  136.2570 C   0  0  0  0  0  3  0  0  0  0  0  0
  184.5180  178.6560  137.6740 C   0  0  1  0  0  3  0  0  0  0  0  0
  182.1950  178.2170  140.6810 C   0  0  0  0  0  0  0  0  0  0  0  0
  184.1540  180.5650  139.0690 O   0  0  0  0  0  0  0  0  0  0  0  0
  184.6720  178.6010  140.2110 N   0  0  0  0  0  2  0  0  0  0  0  0
  180.4020  177.7260  139.1380 C   0  0  0  0  0  3  0  0  0  0  0  0
  179.3460  172.1190  137.2500 C   0  0  0  0  0  3  0  0  0  0  0  0
  182.0620  172.7370  137.0770 C   0  0  0  0  0  3  0  0  0  0  0  0
  180.2150  171.2550  136.5820 C   0  0  0  0  0  3  0  0  0  0  0  0
  181.2000  173.6110  137.7490 C   0  0  0  0  0  0  0  0  0  0  0  0
  179.8360  173.2890  137.8330 C   0  0  0  0  0  3  0  0  0  0  0  0
  181.5840  171.5500  136.5040 C   0  0  0  0  0  0  0  0  0  0  0  0
  183.1630  171.3530  134.7440 F   0  0  0  0  0  0  0  0  0  0  0  0
  182.5080  170.6470  135.7400 C   0  0  0  0  0  0  0  0  0  0  0  0
  183.4540  170.0990  136.5880 F   0  0  0  0  0  0  0  0  0  0  0  0
  181.7750  169.6280  135.1600 F   0  0  0  0  0  0  0  0  0  0  0  0
  187.5610  178.9100  137.1830 N   0  0  0  0  0  2  0  0  0  0  0  0
  187.6210  178.0670  136.0050 C   0  0  0  0  0  2  0  0  0  0  0  0
  186.0450  177.1990  135.8600 S   0  0  0  0  0  0  0  0  0  0  0  0
  185.6780  177.6350  137.5850 C   0  0  1  0  0  3  0  0  0  0  0  0
  186.9050  178.1650  138.1760 N   0  0  0  0  0  2  0  0  0  0  0  0
  1  9  1  0  0  0  0
  4 12  1  6  0  0  0
  4 14  1  0  0  0  0
  4  6  1  0  0  0  0
  5 16  2  0  0  0  0
  5 17  1  0  0  0  0
  6 10  1  6  0  0  0
  6  8  1  0  0  0  0
  8 15  2  0  0  0  0
  9  7  2  0  0  0  0
 10  3  2  0  0  0  0
 11  2  2  0  0  0  0
 12 13  2  0  0  0  0
 13 10  1  0  0  0  0
 14  5  1  1  0  0  0
 15 11  1  0  0  0  0
 15  7  1  0  0  0  0
 17 11  1  0  0  0  0
 18  8  1  0  0  0  0
 18  1  2  0  0  0  0
 19 23  1  0  0  0  0
 20 22  1  0  0  0  0
 21 19  2  0  0  0  0
 22 23  2  0  0  0  0
 22  3  1  0  0  0  0
 24 21  1  0  0  0  0
 24 20  2  0  0  0  0
 25 26  1  0  0  0  0
 26 24  1  0  0  0  0
 26 27  1  0  0  0  0
 28 26  1  0  0  0  0
 29 33  1  0  0  0  0
 30 29  1  0  0  0  0
 31 30  1  0  0  0  0
 32 31  1  6  0  0  0
 32 14  1  0  0  0  0
 32 33  1  0  0  0  0
M  END
>  <MODEL>
9

>  <REMARK>
 VINA RESULT:      -6.1      6.157      9.810
  Name = 
  3 active torsions:
  status: ('A' for Active; 'I' for Inactive)
    1  A    between atoms: N_5  and  C_18
    2  A    between atoms: C_16  and  C_32
    3  A    between atoms: C_24  and  C_27
                            x       y       z     vdW  Elec       q    Type
                         _______ _______ _______ _____ _____    ______ ____

>  <TORSDO>
F 3

$$$$
