=
 OpenBabel11062415413D

 34 34  0  0  1  0  0  0  0  0999 V2000
  185.0100  179.3540  142.8640 C   0  0  0  0  0  2  0  0  0  0  0  0
  185.7630  178.1030  142.4600 C   0  0  1  0  0  3  0  0  0  0  0  0
  184.7630  178.7290  141.5090 C   0  0  1  0  0  3  0  0  0  0  0  0
  183.4780  177.9210  141.5460 C   0  0  0  0  0  2  0  0  0  0  0  0
  184.3550  178.4460  138.0870 C   0  0  0  0  0  3  0  0  0  0  0  0
  183.6860  178.0150  139.1250 C   0  0  0  0  0  0  0  0  0  0  0  0
  183.0200  177.5800  140.1610 C   0  0  0  0  0  0  0  0  0  0  0  0
  185.6530  177.8830  137.6870 C   0  0  0  0  0  3  0  0  0  0  0  0
  186.7390  177.9540  138.4540 C   0  0  0  0  0  3  0  0  0  0  0  0
  187.8940  176.8870  136.7160 F   0  0  0  0  0  0  0  0  0  0  0  0
  188.0380  177.3680  138.0050 C   0  0  1  0  0  3  0  0  0  0  0  0
  189.1750  178.3910  138.0540 C   0  0  0  0  0  0  0  0  0  0  0  0
  190.3350  177.8370  137.5390 F   0  0  0  0  0  0  0  0  0  0  0  0
  188.8310  179.5030  137.2880 O   0  0  0  0  0  1  0  0  0  0  0  0
  189.4020  178.7910  139.3580 F   0  0  0  0  0  0  0  0  0  0  0  0
  182.2420  175.5510  139.2240 O   0  0  0  0  0  1  0  0  0  0  0  0
  181.8480  176.6770  139.9480 C   0  0  2  0  0  3  0  0  0  0  0  0
  180.7260  177.3920  139.2100 C   0  0  0  0  0  2  0  0  0  0  0  0
  179.4890  176.9670  139.6950 O   0  0  0  0  0  1  0  0  0  0  0  0
  187.1610  178.4810  142.0050 C   0  0  0  0  0  2  0  0  0  0  0  0
  188.1220  177.3150  142.1890 C   0  0  0  0  0  2  0  0  0  0  0  0
  189.2700  177.6710  143.1260 C   0  0  2  0  0  3  0  0  0  0  0  0
  190.3390  178.1710  142.3790 O   0  0  0  0  0  0  0  0  0  0  0  0
  190.8930  177.0530  141.7540 C   0  0  0  0  0  1  0  0  0  0  0  0
  189.7170  176.4370  143.8980 C   0  0  0  0  0  2  0  0  0  0  0  0
  190.0080  176.7710  145.3570 C   0  0  1  0  0  3  0  0  0  0  0  0
  191.4680  177.1610  145.5260 C   0  0  0  0  0  2  0  0  0  0  0  0
  191.8880  176.8890  146.8280 O   0  0  0  0  0  1  0  0  0  0  0  0
  189.1370  177.9340  145.8000 C   0  0  0  0  0  2  0  0  0  0  0  0
  187.8590  177.4390  146.4600 C   0  0  1  0  0  3  0  0  0  0  0  0
  189.1140  178.3980  148.2550 O   0  0  0  0  0  1  0  0  0  0  0  0
  187.9810  177.6380  147.9620 C   0  0  0  0  0  2  0  0  0  0  0  0
  186.6630  178.2110  145.9220 C   0  0  0  0  0  2  0  0  0  0  0  0
  185.7310  178.6010  147.0530 C   0  0  0  0  0  1  0  0  0  0  0  0
  2 20  1  6  0  0  0
  2  1  1  0  0  0  0
  3  4  1  1  0  0  0
  3  2  1  0  0  0  0
  3  1  1  0  0  0  0
  5  6  2  0  0  0  0
  6  7  2  0  0  0  0
  7  4  1  0  0  0  0
  8  5  1  0  0  0  0
  8  9  2  0  0  0  0
 11 10  1  6  0  0  0
 11 12  1  0  0  0  0
 11  9  1  0  0  0  0
 12 15  1  0  0  0  0
 13 12  1  0  0  0  0
 14 12  1  0  0  0  0
 17 16  1  6  0  0  0
 17  7  1  0  0  0  0
 18 19  1  0  0  0  0
 18 17  1  0  0  0  0
 20 21  1  0  0  0  0
 22 21  1  6  0  0  0
 22 25  1  0  0  0  0
 23 22  1  0  0  0  0
 24 23  1  0  0  0  0
 26 25  1  6  0  0  0
 26 27  1  0  0  0  0
 26 29  1  0  0  0  0
 27 28  1  0  0  0  0
 30 29  1  6  0  0  0
 30 32  1  0  0  0  0
 32 31  1  0  0  0  0
 33 30  1  0  0  0  0
 33 34  1  0  0  0  0
M  END
>  <MODEL>
1

>  <REMARK>
 VINA RESULT:      -6.5      0.000      0.000
  Name = 
  18 active torsions:
  status: ('A' for Active; 'I' for Inactive)
    1  A    between atoms: C_1  and  C_13
    2  A    between atoms: C_2  and  C_15
    3  A    between atoms: C_2  and  C_24
    4  A    between atoms: O_4  and  C_25
    5  A    between atoms: C_5  and  C_7
    6  A    between atoms: C_5  and  C_33
    7  A    between atoms: C_6  and  C_7
    8  A    between atoms: C_7  and  C_32
    9  A    between atoms: C_8  and  C_18
   10  A    between atoms: C_17  and  C_27
   11  A    between atoms: C_18  and  C_23
   12  A    between atoms: C_19  and  C_33
   13  A    between atoms: C_21  and  C_31
   14  A    between atoms: C_24  and  C_25
   15  A    between atoms: C_25  and  C_32
   16  A    between atoms: C_27  and  C_34
   17  A    between atoms: C_29  and  C_33
   18  A    between atoms: C_31  and  C_34
                            x       y       z     vdW  Elec       q    Type
                         _______ _______ _______ _____ _____    ______ ____

>  <TORSDO>
F 18

$$$$
=
 OpenBabel11062415413D

 34 34  0  0  1  0  0  0  0  0999 V2000
  185.3120  178.4880  146.8590 C   0  0  0  0  0  2  0  0  0  0  0  0
  185.4240  179.0410  145.4540 C   0  0  1  0  0  3  0  0  0  0  0  0
  186.2430  177.8340  145.8620 C   0  0  1  0  0  3  0  0  0  0  0  0
  187.6710  178.2770  146.1300 C   0  0  0  0  0  2  0  0  0  0  0  0
  188.6590  176.5140  143.1430 C   0  0  0  0  0  3  0  0  0  0  0  0
  188.6520  176.8810  144.3980 C   0  0  0  0  0  0  0  0  0  0  0  0
  188.6490  177.2490  145.6520 C   0  0  0  0  0  0  0  0  0  0  0  0
  189.1850  177.3690  142.0680 C   0  0  0  0  0  3  0  0  0  0  0  0
  189.6840  176.8800  140.9350 C   0  0  0  0  0  3  0  0  0  0  0  0
  191.5190  177.4390  139.5890 F   0  0  0  0  0  0  0  0  0  0  0  0
  190.2090  177.7860  139.8710 C   0  0  1  0  0  3  0  0  0  0  0  0
  189.3690  177.7190  138.5940 C   0  0  0  0  0  0  0  0  0  0  0  0
  188.3030  176.8540  138.7700 F   0  0  0  0  0  0  0  0  0  0  0  0
  188.8720  178.9890  138.2990 O   0  0  0  0  0  1  0  0  0  0  0  0
  190.1430  177.2790  137.5350 F   0  0  0  0  0  0  0  0  0  0  0  0
  189.3960  177.0690  147.8900 O   0  0  0  0  0  1  0  0  0  0  0  0
  189.6830  176.6930  146.5780 C   0  0  2  0  0  3  0  0  0  0  0  0
  191.0770  177.1710  146.2010 C   0  0  0  0  0  2  0  0  0  0  0  0
  191.8330  176.1030  145.7180 O   0  0  0  0  0  1  0  0  0  0  0  0
  184.2430  178.5650  144.6280 C   0  0  0  0  0  2  0  0  0  0  0  0
  184.1330  179.3580  143.3340 C   0  0  0  0  0  2  0  0  0  0  0  0
  184.7520  178.6110  142.1600 C   0  0  2  0  0  3  0  0  0  0  0  0
  185.4100  179.5200  141.3280 O   0  0  0  0  0  0  0  0  0  0  0  0
  186.1720  178.7300  140.4650 C   0  0  0  0  0  1  0  0  0  0  0  0
  183.6690  177.8850  141.3710 C   0  0  0  0  0  2  0  0  0  0  0  0
  182.5760  178.8460  140.9180 C   0  0  1  0  0  3  0  0  0  0  0  0
  182.5620  178.9520  139.4020 C   0  0  0  0  0  2  0  0  0  0  0  0
  182.4950  180.2910  139.0160 O   0  0  0  0  0  1  0  0  0  0  0  0
  181.2220  178.3390  141.3850 C   0  0  0  0  0  2  0  0  0  0  0  0
  180.5670  179.3280  142.3380 C   0  0  1  0  0  3  0  0  0  0  0  0
  179.1220  179.3250  140.4330 O   0  0  0  0  0  1  0  0  0  0  0  0
  179.2190  179.7340  141.7630 C   0  0  0  0  0  2  0  0  0  0  0  0
  180.3850  178.6880  143.7070 C   0  0  0  0  0  2  0  0  0  0  0  0
  179.0720  179.1250  144.3260 C   0  0  0  0  0  1  0  0  0  0  0  0
  2 20  1  6  0  0  0
  2  3  1  0  0  0  0
  2  1  1  0  0  0  0
  3  4  1  1  0  0  0
  3  1  1  0  0  0  0
  5  6  2  0  0  0  0
  6  7  2  0  0  0  0
  7  4  1  0  0  0  0
  7 17  1  0  0  0  0
  8  5  1  0  0  0  0
  9  8  2  0  0  0  0
 11 10  1  6  0  0  0
 11  9  1  0  0  0  0
 12 13  1  0  0  0  0
 12 11  1  0  0  0  0
 14 12  1  0  0  0  0
 15 12  1  0  0  0  0
 17 16  1  1  0  0  0
 18 17  1  0  0  0  0
 19 18  1  0  0  0  0
 21 20  1  0  0  0  0
 22 25  1  6  0  0  0
 22 21  1  0  0  0  0
 23 22  1  0  0  0  0
 24 23  1  0  0  0  0
 26 27  1  6  0  0  0
 26 25  1  0  0  0  0
 26 29  1  0  0  0  0
 28 27  1  0  0  0  0
 30 29  1  6  0  0  0
 30 33  1  0  0  0  0
 31 32  1  0  0  0  0
 32 30  1  0  0  0  0
 33 34  1  0  0  0  0
M  END
>  <MODEL>
2

>  <REMARK>
 VINA RESULT:      -6.5      2.272      7.622
  Name = 
  18 active torsions:
  status: ('A' for Active; 'I' for Inactive)
    1  A    between atoms: C_1  and  C_13
    2  A    between atoms: C_2  and  C_15
    3  A    between atoms: C_2  and  C_24
    4  A    between atoms: O_4  and  C_25
    5  A    between atoms: C_5  and  C_7
    6  A    between atoms: C_5  and  C_33
    7  A    between atoms: C_6  and  C_7
    8  A    between atoms: C_7  and  C_32
    9  A    between atoms: C_8  and  C_18
   10  A    between atoms: C_17  and  C_27
   11  A    between atoms: C_18  and  C_23
   12  A    between atoms: C_19  and  C_33
   13  A    between atoms: C_21  and  C_31
   14  A    between atoms: C_24  and  C_25
   15  A    between atoms: C_25  and  C_32
   16  A    between atoms: C_27  and  C_34
   17  A    between atoms: C_29  and  C_33
   18  A    between atoms: C_31  and  C_34
                            x       y       z     vdW  Elec       q    Type
                         _______ _______ _______ _____ _____    ______ ____

>  <TORSDO>
F 18

$$$$
=
 OpenBabel11062415413D

 34 34  0  0  1  0  0  0  0  0999 V2000
  185.0430  178.3530  146.2180 C   0  0  0  0  0  2  0  0  0  0  0  0
  185.4910  178.8970  144.8770 C   0  0  1  0  0  3  0  0  0  0  0  0
  186.2030  177.7090  145.4910 C   0  0  1  0  0  3  0  0  0  0  0  0
  187.5120  178.1810  146.0990 C   0  0  0  0  0  2  0  0  0  0  0  0
  188.8860  176.3860  143.2890 C   0  0  0  0  0  3  0  0  0  0  0  0
  188.7580  176.8200  144.5160 C   0  0  0  0  0  0  0  0  0  0  0  0
  188.6330  177.2550  145.7420 C   0  0  0  0  0  0  0  0  0  0  0  0
  189.3740  177.2360  142.1930 C   0  0  0  0  0  3  0  0  0  0  0  0
  190.0400  176.7550  141.1460 C   0  0  0  0  0  3  0  0  0  0  0  0
  191.7250  177.1820  139.5740 F   0  0  0  0  0  0  0  0  0  0  0  0
  190.5170  177.6570  140.0550 C   0  0  1  0  0  3  0  0  0  0  0  0
  189.5070  177.7580  138.9110 C   0  0  0  0  0  0  0  0  0  0  0  0
  188.5380  176.7790  139.0430 F   0  0  0  0  0  0  0  0  0  0  0  0
  188.8900  179.0080  138.9470 O   0  0  0  0  0  1  0  0  0  0  0  0
  190.1470  177.6040  137.6940 F   0  0  0  0  0  0  0  0  0  0  0  0
  189.5860  177.7420  147.8520 O   0  0  0  0  0  1  0  0  0  0  0  0
  189.6650  176.8820  146.7570 C   0  0  2  0  0  3  0  0  0  0  0  0
  191.0660  176.9350  146.1650 C   0  0  0  0  0  2  0  0  0  0  0  0
  192.0110  176.6430  147.1490 O   0  0  0  0  0  1  0  0  0  0  0  0
  184.5590  178.3910  143.7910 C   0  0  0  0  0  2  0  0  0  0  0  0
  183.1460  178.9120  144.0050 C   0  0  0  0  0  2  0  0  0  0  0  0
  182.4020  179.0870  142.6870 C   0  0  2  0  0  3  0  0  0  0  0  0
  181.1130  178.5640  142.8100 O   0  0  0  0  0  0  0  0  0  0  0  0
  180.2750  179.6800  142.8420 C   0  0  0  0  0  1  0  0  0  0  0  0
  183.1430  178.3650  141.5690 C   0  0  0  0  0  2  0  0  0  0  0  0
  182.7240  178.8880  140.2000 C   0  0  1  0  0  3  0  0  0  0  0  0
  183.9270  179.4440  139.4560 C   0  0  0  0  0  2  0  0  0  0  0  0
  184.9860  179.6480  140.3410 O   0  0  0  0  0  1  0  0  0  0  0  0
  182.1230  177.7570  139.3810 C   0  0  0  0  0  2  0  0  0  0  0  0
  182.2740  178.0220  137.8910 C   0  0  1  0  0  3  0  0  0  0  0  0
  184.0060  177.0440  136.5630 O   0  0  0  0  0  1  0  0  0  0  0  0
  182.8110  176.7640  137.2270 C   0  0  0  0  0  2  0  0  0  0  0  0
  180.9260  178.4000  137.2910 C   0  0  0  0  0  2  0  0  0  0  0  0
  181.0580  179.6390  136.4290 C   0  0  0  0  0  1  0  0  0  0  0  0
  2 20  1  6  0  0  0
  2  3  1  0  0  0  0
  2  1  1  0  0  0  0
  3  4  1  1  0  0  0
  3  1  1  0  0  0  0
  5  6  2  0  0  0  0
  6  7  2  0  0  0  0
  7  4  1  0  0  0  0
  7 17  1  0  0  0  0
  8  5  1  0  0  0  0
  9  8  2  0  0  0  0
 11 10  1  6  0  0  0
 11  9  1  0  0  0  0
 12 14  1  0  0  0  0
 12 13  1  0  0  0  0
 12 11  1  0  0  0  0
 15 12  1  0  0  0  0
 17 16  1  1  0  0  0
 18 17  1  0  0  0  0
 18 19  1  0  0  0  0
 20 21  1  0  0  0  0
 22 25  1  6  0  0  0
 22 23  1  0  0  0  0
 22 21  1  0  0  0  0
 23 24  1  0  0  0  0
 26 29  1  6  0  0  0
 26 25  1  0  0  0  0
 27 26  1  0  0  0  0
 27 28  1  0  0  0  0
 30 32  1  6  0  0  0
 30 29  1  0  0  0  0
 31 32  1  0  0  0  0
 33 30  1  0  0  0  0
 34 33  1  0  0  0  0
M  END
>  <MODEL>
3

>  <REMARK>
 VINA RESULT:      -6.4      2.058      8.283
  Name = 
  18 active torsions:
  status: ('A' for Active; 'I' for Inactive)
    1  A    between atoms: C_1  and  C_13
    2  A    between atoms: C_2  and  C_15
    3  A    between atoms: C_2  and  C_24
    4  A    between atoms: O_4  and  C_25
    5  A    between atoms: C_5  and  C_7
    6  A    between atoms: C_5  and  C_33
    7  A    between atoms: C_6  and  C_7
    8  A    between atoms: C_7  and  C_32
    9  A    between atoms: C_8  and  C_18
   10  A    between atoms: C_17  and  C_27
   11  A    between atoms: C_18  and  C_23
   12  A    between atoms: C_19  and  C_33
   13  A    between atoms: C_21  and  C_31
   14  A    between atoms: C_24  and  C_25
   15  A    between atoms: C_25  and  C_32
   16  A    between atoms: C_27  and  C_34
   17  A    between atoms: C_29  and  C_33
   18  A    between atoms: C_31  and  C_34
                            x       y       z     vdW  Elec       q    Type
                         _______ _______ _______ _____ _____    ______ ____

>  <TORSDO>
F 18

$$$$
=
 OpenBabel11062415413D

 34 34  0  0  1  0  0  0  0  0999 V2000
  184.9510  179.2260  144.1030 C   0  0  0  0  0  2  0  0  0  0  0  0
  185.4160  178.0190  143.3150 C   0  0  1  0  0  3  0  0  0  0  0  0
  184.5220  179.0530  142.6630 C   0  0  1  0  0  3  0  0  0  0  0  0
  183.1030  178.5150  142.6140 C   0  0  0  0  0  2  0  0  0  0  0  0
  183.9590  179.4690  139.2420 C   0  0  0  0  0  3  0  0  0  0  0  0
  183.2160  179.1300  140.2640 C   0  0  0  0  0  0  0  0  0  0  0  0
  182.4730  178.7880  141.2830 C   0  0  0  0  0  0  0  0  0  0  0  0
  184.8140  178.5090  138.5280 C   0  0  0  0  0  3  0  0  0  0  0  0
  186.1300  178.4360  138.7130 C   0  0  0  0  0  3  0  0  0  0  0  0
  186.1240  176.5140  137.3720 F   0  0  0  0  0  0  0  0  0  0  0  0
  186.9590  177.4450  137.9640 C   0  0  1  0  0  3  0  0  0  0  0  0
  187.8280  178.1150  136.8970 C   0  0  0  0  0  0  0  0  0  0  0  0
  187.0930  178.3160  135.7410 F   0  0  0  0  0  0  0  0  0  0  0  0
  188.2710  179.3500  137.3680 O   0  0  0  0  0  1  0  0  0  0  0  0
  188.9230  177.3210  136.6060 F   0  0  0  0  0  0  0  0  0  0  0  0
  180.7810  177.7260  140.0130 O   0  0  0  0  0  1  0  0  0  0  0  0
  181.0040  178.5940  141.0820 C   0  0  2  0  0  3  0  0  0  0  0  0
  180.3040  179.9190  140.8190 C   0  0  0  0  0  2  0  0  0  0  0  0
  180.1120  180.6040  142.0190 O   0  0  0  0  0  1  0  0  0  0  0  0
  186.8400  178.2450  142.8400 C   0  0  0  0  0  2  0  0  0  0  0  0
  187.6370  176.9490  142.8860 C   0  0  0  0  0  2  0  0  0  0  0  0
  189.0970  177.1700  142.5090 C   0  0  2  0  0  3  0  0  0  0  0  0
  189.3090  176.7260  141.2020 O   0  0  0  0  0  0  0  0  0  0  0  0
  189.6110  177.8810  140.4770 C   0  0  0  0  0  1  0  0  0  0  0  0
  190.0050  176.4060  143.4640 C   0  0  0  0  0  2  0  0  0  0  0  0
  190.7430  177.3540  144.4030 C   0  0  1  0  0  3  0  0  0  0  0  0
  191.5650  178.3530  143.6050 C   0  0  0  0  0  2  0  0  0  0  0  0
  191.1970  179.6550  143.9430 O   0  0  0  0  0  1  0  0  0  0  0  0
  189.7410  178.1150  145.2550 C   0  0  0  0  0  2  0  0  0  0  0  0
  189.0990  177.2030  146.2890 C   0  0  1  0  0  3  0  0  0  0  0  0
  190.9720  176.4720  147.5830 O   0  0  0  0  0  1  0  0  0  0  0  0
  189.8710  177.3290  147.5920 C   0  0  0  0  0  2  0  0  0  0  0  0
  187.6440  177.5980  146.4980 C   0  0  0  0  0  2  0  0  0  0  0  0
  187.4370  178.1380  147.9000 C   0  0  0  0  0  1  0  0  0  0  0  0
  2 20  1  6  0  0  0
  2  1  1  0  0  0  0
  3  4  1  1  0  0  0
  3  2  1  0  0  0  0
  3  1  1  0  0  0  0
  5  6  2  0  0  0  0
  6  7  2  0  0  0  0
  7  4  1  0  0  0  0
  8  9  2  0  0  0  0
  8  5  1  0  0  0  0
 11 10  1  6  0  0  0
 11  9  1  0  0  0  0
 12 14  1  0  0  0  0
 12 11  1  0  0  0  0
 13 12  1  0  0  0  0
 15 12  1  0  0  0  0
 17 16  1  6  0  0  0
 17  7  1  0  0  0  0
 18 17  1  0  0  0  0
 18 19  1  0  0  0  0
 20 21  1  0  0  0  0
 22 21  1  1  0  0  0
 22 25  1  0  0  0  0
 23 22  1  0  0  0  0
 24 23  1  0  0  0  0
 26 25  1  6  0  0  0
 26 29  1  0  0  0  0
 27 28  1  0  0  0  0
 27 26  1  0  0  0  0
 30 29  1  6  0  0  0
 30 33  1  0  0  0  0
 30 32  1  0  0  0  0
 31 32  1  0  0  0  0
 33 34  1  0  0  0  0
M  END
>  <MODEL>
4

>  <REMARK>
 VINA RESULT:      -6.3      1.625      2.056
  Name = 
  18 active torsions:
  status: ('A' for Active; 'I' for Inactive)
    1  A    between atoms: C_1  and  C_13
    2  A    between atoms: C_2  and  C_15
    3  A    between atoms: C_2  and  C_24
    4  A    between atoms: O_4  and  C_25
    5  A    between atoms: C_5  and  C_7
    6  A    between atoms: C_5  and  C_33
    7  A    between atoms: C_6  and  C_7
    8  A    between atoms: C_7  and  C_32
    9  A    between atoms: C_8  and  C_18
   10  A    between atoms: C_17  and  C_27
   11  A    between atoms: C_18  and  C_23
   12  A    between atoms: C_19  and  C_33
   13  A    between atoms: C_21  and  C_31
   14  A    between atoms: C_24  and  C_25
   15  A    between atoms: C_25  and  C_32
   16  A    between atoms: C_27  and  C_34
   17  A    between atoms: C_29  and  C_33
   18  A    between atoms: C_31  and  C_34
                            x       y       z     vdW  Elec       q    Type
                         _______ _______ _______ _____ _____    ______ ____

>  <TORSDO>
F 18

$$$$
=
 OpenBabel11062415413D

 34 34  0  0  1  0  0  0  0  0999 V2000
  184.8410  179.8540  143.7240 C   0  0  0  0  0  2  0  0  0  0  0  0
  184.5850  178.6270  144.5740 C   0  0  1  0  0  3  0  0  0  0  0  0
  184.2760  178.6010  143.0910 C   0  0  1  0  0  3  0  0  0  0  0  0
  182.7780  178.7570  142.8990 C   0  0  0  0  0  2  0  0  0  0  0  0
  184.1080  179.3500  139.5990 C   0  0  0  0  0  3  0  0  0  0  0  0
  183.2570  178.9940  140.5270 C   0  0  0  0  0  0  0  0  0  0  0  0
  182.4080  178.6350  141.4530 C   0  0  0  0  0  0  0  0  0  0  0  0
  185.2940  178.5500  139.2590 C   0  0  0  0  0  3  0  0  0  0  0  0
  185.6300  178.2510  138.0070 C   0  0  0  0  0  3  0  0  0  0  0  0
  186.5830  176.6200  136.6210 F   0  0  0  0  0  0  0  0  0  0  0  0
  186.8440  177.4340  137.7090 C   0  0  1  0  0  3  0  0  0  0  0  0
  188.0670  178.3080  137.4210 C   0  0  0  0  0  0  0  0  0  0  0  0
  188.8980  177.6780  136.5110 F   0  0  0  0  0  0  0  0  0  0  0  0
  187.6510  179.5250  136.8830 O   0  0  0  0  0  1  0  0  0  0  0  0
  188.7680  178.5460  138.5890 F   0  0  0  0  0  0  0  0  0  0  0  0
  181.3230  176.9760  140.1610 O   0  0  0  0  0  1  0  0  0  0  0  0
  181.1030  178.0290  141.0490 C   0  0  2  0  0  3  0  0  0  0  0  0
  180.1910  179.0610  140.4030 C   0  0  0  0  0  2  0  0  0  0  0  0
  180.0130  178.7620  139.0520 O   0  0  0  0  0  1  0  0  0  0  0  0
  185.8930  177.8920  144.8060 C   0  0  0  0  0  2  0  0  0  0  0  0
  186.2740  177.9190  146.2800 C   0  0  0  0  0  2  0  0  0  0  0  0
  187.6660  177.3470  146.5140 C   0  0  2  0  0  3  0  0  0  0  0  0
  187.8140  177.0250  147.8650 O   0  0  0  0  0  0  0  0  0  0  0  0
  187.9950  178.2520  148.5070 C   0  0  0  0  0  1  0  0  0  0  0  0
  188.7250  178.3650  146.1100 C   0  0  0  0  0  2  0  0  0  0  0  0
  189.8970  177.6950  145.4030 C   0  0  1  0  0  3  0  0  0  0  0  0
  190.7210  176.8900  146.3950 C   0  0  0  0  0  2  0  0  0  0  0  0
  192.0460  176.8120  145.9660 O   0  0  0  0  0  1  0  0  0  0  0  0
  189.3790  176.7590  144.3250 C   0  0  0  0  0  2  0  0  0  0  0  0
  189.5940  177.3490  142.9390 C   0  0  1  0  0  3  0  0  0  0  0  0
  191.9590  177.2290  142.6060 O   0  0  0  0  0  1  0  0  0  0  0  0
  190.7500  176.6170  142.2760 C   0  0  0  0  0  2  0  0  0  0  0  0
  188.3280  177.1980  142.1070 C   0  0  0  0  0  2  0  0  0  0  0  0
  187.7750  178.5580  141.7310 C   0  0  0  0  0  1  0  0  0  0  0  0
  1  2  1  0  0  0  0
  2 20  1  6  0  0  0
  3  4  1  1  0  0  0
  3  1  1  0  0  0  0
  3  2  1  0  0  0  0
  5  6  2  0  0  0  0
  6  7  2  0  0  0  0
  7  4  1  0  0  0  0
  8  5  1  0  0  0  0
  9  8  2  0  0  0  0
 11 10  1  6  0  0  0
 11  9  1  0  0  0  0
 12 11  1  0  0  0  0
 12 15  1  0  0  0  0
 13 12  1  0  0  0  0
 14 12  1  0  0  0  0
 17 16  1  6  0  0  0
 17  7  1  0  0  0  0
 18 17  1  0  0  0  0
 19 18  1  0  0  0  0
 20 21  1  0  0  0  0
 21 22  1  0  0  0  0
 22 25  1  1  0  0  0
 22 23  1  0  0  0  0
 23 24  1  0  0  0  0
 26 29  1  6  0  0  0
 26 25  1  0  0  0  0
 26 27  1  0  0  0  0
 28 27  1  0  0  0  0
 30 33  1  6  0  0  0
 30 29  1  0  0  0  0
 32 31  1  0  0  0  0
 32 30  1  0  0  0  0
 34 33  1  0  0  0  0
M  END
>  <MODEL>
5

>  <REMARK>
 VINA RESULT:      -6.3      1.289      3.236
  Name = 
  18 active torsions:
  status: ('A' for Active; 'I' for Inactive)
    1  A    between atoms: C_1  and  C_13
    2  A    between atoms: C_2  and  C_15
    3  A    between atoms: C_2  and  C_24
    4  A    between atoms: O_4  and  C_25
    5  A    between atoms: C_5  and  C_7
    6  A    between atoms: C_5  and  C_33
    7  A    between atoms: C_6  and  C_7
    8  A    between atoms: C_7  and  C_32
    9  A    between atoms: C_8  and  C_18
   10  A    between atoms: C_17  and  C_27
   11  A    between atoms: C_18  and  C_23
   12  A    between atoms: C_19  and  C_33
   13  A    between atoms: C_21  and  C_31
   14  A    between atoms: C_24  and  C_25
   15  A    between atoms: C_25  and  C_32
   16  A    between atoms: C_27  and  C_34
   17  A    between atoms: C_29  and  C_33
   18  A    between atoms: C_31  and  C_34
                            x       y       z     vdW  Elec       q    Type
                         _______ _______ _______ _____ _____    ______ ____

>  <TORSDO>
F 18

$$$$
=
 OpenBabel11062415413D

 34 34  0  0  1  0  0  0  0  0999 V2000
  186.4920  178.0080  145.6520 C   0  0  0  0  0  2  0  0  0  0  0  0
  187.0780  178.2680  144.2790 C   0  0  1  0  0  3  0  0  0  0  0  0
  187.6450  177.1670  145.1510 C   0  0  1  0  0  3  0  0  0  0  0  0
  188.9410  177.6530  145.7760 C   0  0  0  0  0  2  0  0  0  0  0  0
  189.9930  176.1410  142.6750 C   0  0  0  0  0  3  0  0  0  0  0  0
  190.0570  176.5610  143.9120 C   0  0  0  0  0  0  0  0  0  0  0  0
  190.1230  176.9820  145.1470 C   0  0  0  0  0  0  0  0  0  0  0  0
  190.0260  177.0550  141.5230 C   0  0  0  0  0  3  0  0  0  0  0  0
  190.4970  176.6980  140.3310 C   0  0  0  0  0  3  0  0  0  0  0  0
  191.3590  177.1810  138.2060 F   0  0  0  0  0  0  0  0  0  0  0  0
  190.5120  177.6610  139.1890 C   0  0  1  0  0  3  0  0  0  0  0  0
  189.1150  177.8830  138.6070 C   0  0  0  0  0  0  0  0  0  0  0  0
  188.3000  176.8020  138.8980 F   0  0  0  0  0  0  0  0  0  0  0  0
  188.5560  179.0300  139.1680 O   0  0  0  0  0  1  0  0  0  0  0  0
  189.1890  178.0400  137.2340 F   0  0  0  0  0  0  0  0  0  0  0  0
  192.0890  175.7090  145.4830 O   0  0  0  0  0  1  0  0  0  0  0  0
  191.4140  176.8600  145.8910 C   0  0  2  0  0  3  0  0  0  0  0  0
  191.1820  176.8110  147.3940 C   0  0  0  0  0  2  0  0  0  0  0  0
  192.3330  176.3590  148.0400 O   0  0  0  0  0  1  0  0  0  0  0  0
  186.1880  177.6360  143.2240 C   0  0  0  0  0  2  0  0  0  0  0  0
  186.4190  178.2830  141.8650 C   0  0  0  0  0  2  0  0  0  0  0  0
  185.1070  178.6170  141.1680 C   0  0  2  0  0  3  0  0  0  0  0  0
  185.3620  179.4400  140.0690 O   0  0  0  0  0  0  0  0  0  0  0  0
  184.9760  178.6860  138.9590 C   0  0  0  0  0  1  0  0  0  0  0  0
  184.1680  179.3280  142.1340 C   0  0  0  0  0  2  0  0  0  0  0  0
  182.8590  178.5640  142.2980 C   0  0  1  0  0  3  0  0  0  0  0  0
  182.1170  179.0470  143.5340 C   0  0  0  0  0  2  0  0  0  0  0  0
  182.8310  178.7080  144.6840 O   0  0  0  0  0  1  0  0  0  0  0  0
  181.9780  178.7880  141.0800 C   0  0  0  0  0  2  0  0  0  0  0  0
  180.8960  177.7220  140.9860 C   0  0  1  0  0  3  0  0  0  0  0  0
  178.9310  177.9570  142.3270 O   0  0  0  0  0  1  0  0  0  0  0  0
  179.5410  178.3920  141.1500 C   0  0  0  0  0  2  0  0  0  0  0  0
  180.9760  177.0190  139.6380 C   0  0  0  0  0  2  0  0  0  0  0  0
  182.2800  176.2560  139.5140 C   0  0  0  0  0  1  0  0  0  0  0  0
  2 20  1  6  0  0  0
  2  3  1  0  0  0  0
  2  1  1  0  0  0  0
  3  1  1  0  0  0  0
  3  4  1  1  0  0  0
  5  6  2  0  0  0  0
  6  7  2  0  0  0  0
  7  4  1  0  0  0  0
  7 17  1  0  0  0  0
  8  5  1  0  0  0  0
  9  8  2  0  0  0  0
 11 10  1  6  0  0  0
 11  9  1  0  0  0  0
 12 13  1  0  0  0  0
 12 14  1  0  0  0  0
 12 11  1  0  0  0  0
 15 12  1  0  0  0  0
 17 16  1  6  0  0  0
 17 18  1  0  0  0  0
 18 19  1  0  0  0  0
 21 20  1  0  0  0  0
 22 21  1  1  0  0  0
 22 25  1  0  0  0  0
 23 22  1  0  0  0  0
 24 23  1  0  0  0  0
 25 26  1  0  0  0  0
 26 29  1  6  0  0  0
 26 27  1  0  0  0  0
 27 28  1  0  0  0  0
 30 33  1  6  0  0  0
 30 29  1  0  0  0  0
 30 32  1  0  0  0  0
 32 31  1  0  0  0  0
 34 33  1  0  0  0  0
M  END
>  <MODEL>
6

>  <REMARK>
 VINA RESULT:      -6.2      1.944      7.688
  Name = 
  18 active torsions:
  status: ('A' for Active; 'I' for Inactive)
    1  A    between atoms: C_1  and  C_13
    2  A    between atoms: C_2  and  C_15
    3  A    between atoms: C_2  and  C_24
    4  A    between atoms: O_4  and  C_25
    5  A    between atoms: C_5  and  C_7
    6  A    between atoms: C_5  and  C_33
    7  A    between atoms: C_6  and  C_7
    8  A    between atoms: C_7  and  C_32
    9  A    between atoms: C_8  and  C_18
   10  A    between atoms: C_17  and  C_27
   11  A    between atoms: C_18  and  C_23
   12  A    between atoms: C_19  and  C_33
   13  A    between atoms: C_21  and  C_31
   14  A    between atoms: C_24  and  C_25
   15  A    between atoms: C_25  and  C_32
   16  A    between atoms: C_27  and  C_34
   17  A    between atoms: C_29  and  C_33
   18  A    between atoms: C_31  and  C_34
                            x       y       z     vdW  Elec       q    Type
                         _______ _______ _______ _____ _____    ______ ____

>  <TORSDO>
F 18

$$$$
=
 OpenBabel11062415413D

 34 34  0  0  1  0  0  0  0  0999 V2000
  184.4940  178.5820  145.4490 C   0  0  0  0  0  2  0  0  0  0  0  0
  185.2940  178.9620  144.2200 C   0  0  1  0  0  3  0  0  0  0  0  0
  185.8070  177.8880  145.1580 C   0  0  1  0  0  3  0  0  0  0  0  0
  186.9010  178.4780  146.0300 C   0  0  0  0  0  2  0  0  0  0  0  0
  188.7370  176.4770  143.6570 C   0  0  0  0  0  3  0  0  0  0  0  0
  188.4520  177.0840  144.7800 C   0  0  0  0  0  0  0  0  0  0  0  0
  188.1700  177.6940  145.9000 C   0  0  0  0  0  0  0  0  0  0  0  0
  189.1770  177.1960  142.4530 C   0  0  0  0  0  3  0  0  0  0  0  0
  190.1170  176.7290  141.6340 C   0  0  0  0  0  3  0  0  0  0  0  0
  191.5130  176.7830  139.7530 F   0  0  0  0  0  0  0  0  0  0  0  0
  190.5330  177.4960  140.4230 C   0  0  1  0  0  3  0  0  0  0  0  0
  189.3560  177.7680  139.4830 C   0  0  0  0  0  0  0  0  0  0  0  0
  188.6760  178.9030  139.8900 F   0  0  0  0  0  0  0  0  0  0  0  0
  189.8340  177.9710  138.1890 O   0  0  0  0  0  1  0  0  0  0  0  0
  188.4870  176.6920  139.4820 F   0  0  0  0  0  0  0  0  0  0  0  0
  189.5510  176.3500  147.2740 O   0  0  0  0  0  1  0  0  0  0  0  0
  189.1640  177.6650  147.0160 C   0  0  2  0  0  3  0  0  0  0  0  0
  188.5930  178.2870  148.2820 C   0  0  0  0  0  2  0  0  0  0  0  0
  187.8920  177.3270  149.0110 O   0  0  0  0  0  1  0  0  0  0  0  0
  184.6940  178.2890  143.0000 C   0  0  0  0  0  2  0  0  0  0  0  0
  184.8470  179.1680  141.7670 C   0  0  0  0  0  2  0  0  0  0  0  0
  184.6610  178.3750  140.4800 C   0  0  2  0  0  3  0  0  0  0  0  0
  185.0710  179.1520  139.3940 O   0  0  0  0  0  0  0  0  0  0  0  0
  185.6710  178.2490  138.5140 C   0  0  0  0  0  1  0  0  0  0  0  0
  183.1970  177.9880  140.3110 C   0  0  0  0  0  2  0  0  0  0  0  0
  182.4150  179.0810  139.5920 C   0  0  1  0  0  3  0  0  0  0  0  0
  181.9470  178.5870  138.2320 C   0  0  0  0  0  2  0  0  0  0  0  0
  180.5800  178.8210  138.0830 O   0  0  0  0  0  1  0  0  0  0  0  0
  181.1990  179.4700  140.4160 C   0  0  0  0  0  2  0  0  0  0  0  0
  181.0390  178.5510  141.6180 C   0  0  1  0  0  3  0  0  0  0  0  0
  180.3490  180.4980  142.8240 O   0  0  0  0  0  1  0  0  0  0  0  0
  181.1840  179.3810  142.8840 C   0  0  0  0  0  2  0  0  0  0  0  0
  179.6730  177.8810  141.5820 C   0  0  0  0  0  2  0  0  0  0  0  0
  179.7180  176.6310  140.7250 C   0  0  0  0  0  1  0  0  0  0  0  0
  2 20  1  6  0  0  0
  2  3  1  0  0  0  0
  2  1  1  0  0  0  0
  3  1  1  0  0  0  0
  3  4  1  1  0  0  0
  5  6  2  0  0  0  0
  6  7  2  0  0  0  0
  7  4  1  0  0  0  0
  7 17  1  0  0  0  0
  8  5  1  0  0  0  0
  9  8  2  0  0  0  0
 11 10  1  6  0  0  0
 11  9  1  0  0  0  0
 12 13  1  0  0  0  0
 12 11  1  0  0  0  0
 14 12  1  0  0  0  0
 15 12  1  0  0  0  0
 17 16  1  1  0  0  0
 17 18  1  0  0  0  0
 18 19  1  0  0  0  0
 21 20  1  0  0  0  0
 22 25  1  6  0  0  0
 22 21  1  0  0  0  0
 23 22  1  0  0  0  0
 24 23  1  0  0  0  0
 26 27  1  6  0  0  0
 26 25  1  0  0  0  0
 26 29  1  0  0  0  0
 28 27  1  0  0  0  0
 30 29  1  6  0  0  0
 30 32  1  0  0  0  0
 31 32  1  0  0  0  0
 33 30  1  0  0  0  0
 34 33  1  0  0  0  0
M  END
>  <MODEL>
7

>  <REMARK>
 VINA RESULT:      -6.2      2.014      7.674
  Name = 
  18 active torsions:
  status: ('A' for Active; 'I' for Inactive)
    1  A    between atoms: C_1  and  C_13
    2  A    between atoms: C_2  and  C_15
    3  A    between atoms: C_2  and  C_24
    4  A    between atoms: O_4  and  C_25
    5  A    between atoms: C_5  and  C_7
    6  A    between atoms: C_5  and  C_33
    7  A    between atoms: C_6  and  C_7
    8  A    between atoms: C_7  and  C_32
    9  A    between atoms: C_8  and  C_18
   10  A    between atoms: C_17  and  C_27
   11  A    between atoms: C_18  and  C_23
   12  A    between atoms: C_19  and  C_33
   13  A    between atoms: C_21  and  C_31
   14  A    between atoms: C_24  and  C_25
   15  A    between atoms: C_25  and  C_32
   16  A    between atoms: C_27  and  C_34
   17  A    between atoms: C_29  and  C_33
   18  A    between atoms: C_31  and  C_34
                            x       y       z     vdW  Elec       q    Type
                         _______ _______ _______ _____ _____    ______ ____

>  <TORSDO>
F 18

$$$$
=
 OpenBabel11062415413D

 34 34  0  0  1  0  0  0  0  0999 V2000
  184.6560  179.7290  143.8830 C   0  0  0  0  0  2  0  0  0  0  0  0
  183.9130  178.8490  144.8670 C   0  0  1  0  0  3  0  0  0  0  0  0
  183.8410  178.5570  143.3830 C   0  0  1  0  0  3  0  0  0  0  0  0
  182.5080  179.0520  142.8490 C   0  0  0  0  0  2  0  0  0  0  0  0
  184.2160  179.2550  139.6790 C   0  0  0  0  0  3  0  0  0  0  0  0
  183.2760  178.9720  140.5440 C   0  0  0  0  0  0  0  0  0  0  0  0
  182.3390  178.6850  141.4070 C   0  0  0  0  0  0  0  0  0  0  0  0
  185.4860  178.5170  139.6130 C   0  0  0  0  0  3  0  0  0  0  0  0
  186.0850  178.2100  138.4660 C   0  0  0  0  0  3  0  0  0  0  0  0
  187.3870  176.6110  137.3530 F   0  0  0  0  0  0  0  0  0  0  0  0
  187.3740  177.4560  138.4480 C   0  0  1  0  0  3  0  0  0  0  0  0
  188.5850  178.3910  138.3950 C   0  0  0  0  0  0  0  0  0  0  0  0
  189.7170  177.6840  138.0280 F   0  0  0  0  0  0  0  0  0  0  0  0
  188.3560  179.3920  137.4520 O   0  0  0  0  0  1  0  0  0  0  0  0
  188.7920  178.9740  139.6320 F   0  0  0  0  0  0  0  0  0  0  0  0
  180.9890  178.0450  139.5720 O   0  0  0  0  0  1  0  0  0  0  0  0
  181.1390  177.9170  140.9530 C   0  0  2  0  0  3  0  0  0  0  0  0
  179.8770  178.4000  141.6520 C   0  0  0  0  0  2  0  0  0  0  0  0
  179.6050  177.5930  142.7560 O   0  0  0  0  0  1  0  0  0  0  0  0
  184.8850  177.8720  145.5030 C   0  0  0  0  0  2  0  0  0  0  0  0
  185.7490  178.5690  146.5440 C   0  0  0  0  0  2  0  0  0  0  0  0
  187.1410  177.9560  146.6260 C   0  0  2  0  0  3  0  0  0  0  0  0
  187.8180  178.4880  147.7260 O   0  0  0  0  0  0  0  0  0  0  0  0
  188.2820  177.3780  148.4330 C   0  0  0  0  0  1  0  0  0  0  0  0
  187.9200  178.2540  145.3520 C   0  0  0  0  0  2  0  0  0  0  0  0
  188.1850  176.9820  144.5550 C   0  0  1  0  0  3  0  0  0  0  0  0
  187.6200  177.1120  143.1500 C   0  0  0  0  0  2  0  0  0  0  0  0
  188.5950  176.7850  142.2080 O   0  0  0  0  0  1  0  0  0  0  0  0
  189.6820  176.7390  144.4580 C   0  0  0  0  0  2  0  0  0  0  0  0
  190.4580  177.8010  145.2220 C   0  0  1  0  0  3  0  0  0  0  0  0
  191.6700  175.8140  145.7700 O   0  0  0  0  0  1  0  0  0  0  0  0
  191.3860  177.1080  146.2070 C   0  0  0  0  0  2  0  0  0  0  0  0
  191.2620  178.6560  144.2530 C   0  0  0  0  0  2  0  0  0  0  0  0
  191.6600  177.8460  143.0350 C   0  0  0  0  0  1  0  0  0  0  0  0
  1  2  1  0  0  0  0
  2 20  1  1  0  0  0
  3  4  1  6  0  0  0
  3  1  1  0  0  0  0
  3  2  1  0  0  0  0
  5  6  2  0  0  0  0
  6  7  2  0  0  0  0
  7  4  1  0  0  0  0
  8  5  1  0  0  0  0
  9  8  2  0  0  0  0
 11 10  1  6  0  0  0
 11  9  1  0  0  0  0
 12 11  1  0  0  0  0
 12 15  1  0  0  0  0
 13 12  1  0  0  0  0
 14 12  1  0  0  0  0
 17 16  1  6  0  0  0
 17  7  1  0  0  0  0
 17 18  1  0  0  0  0
 18 19  1  0  0  0  0
 20 21  1  0  0  0  0
 21 22  1  0  0  0  0
 22 25  1  6  0  0  0
 22 23  1  0  0  0  0
 23 24  1  0  0  0  0
 26 27  1  6  0  0  0
 26 25  1  0  0  0  0
 28 27  1  0  0  0  0
 29 26  1  0  0  0  0
 29 30  1  0  0  0  0
 30 33  1  6  0  0  0
 30 32  1  0  0  0  0
 31 32  1  0  0  0  0
 34 33  1  0  0  0  0
M  END
>  <MODEL>
8

>  <REMARK>
 VINA RESULT:      -6.1      1.526      3.431
  Name = 
  18 active torsions:
  status: ('A' for Active; 'I' for Inactive)
    1  A    between atoms: C_1  and  C_13
    2  A    between atoms: C_2  and  C_15
    3  A    between atoms: C_2  and  C_24
    4  A    between atoms: O_4  and  C_25
    5  A    between atoms: C_5  and  C_7
    6  A    between atoms: C_5  and  C_33
    7  A    between atoms: C_6  and  C_7
    8  A    between atoms: C_7  and  C_32
    9  A    between atoms: C_8  and  C_18
   10  A    between atoms: C_17  and  C_27
   11  A    between atoms: C_18  and  C_23
   12  A    between atoms: C_19  and  C_33
   13  A    between atoms: C_21  and  C_31
   14  A    between atoms: C_24  and  C_25
   15  A    between atoms: C_25  and  C_32
   16  A    between atoms: C_27  and  C_34
   17  A    between atoms: C_29  and  C_33
   18  A    between atoms: C_31  and  C_34
                            x       y       z     vdW  Elec       q    Type
                         _______ _______ _______ _____ _____    ______ ____

>  <TORSDO>
F 18

$$$$
=
 OpenBabel11062415413D

 34 34  0  0  1  0  0  0  0  0999 V2000
  187.9690  177.0220  142.4480 C   0  0  0  0  0  2  0  0  0  0  0  0
  187.2730  177.7890  141.3430 C   0  0  1  0  0  3  0  0  0  0  0  0
  187.2180  178.2960  142.7700 C   0  0  1  0  0  3  0  0  0  0  0  0
  185.8620  177.9540  143.3610 C   0  0  0  0  0  2  0  0  0  0  0  0
  187.4630  176.9730  146.4400 C   0  0  0  0  0  3  0  0  0  0  0  0
  186.6470  177.6030  145.6350 C   0  0  0  0  0  0  0  0  0  0  0  0
  185.8330  178.2350  144.8320 C   0  0  0  0  0  0  0  0  0  0  0  0
  188.9000  177.2780  146.5130 C   0  0  0  0  0  3  0  0  0  0  0  0
  189.7290  176.6590  147.3500 C   0  0  0  0  0  3  0  0  0  0  0  0
  191.4100  177.8730  148.4410 F   0  0  0  0  0  0  0  0  0  0  0  0
  191.1820  177.0030  147.3900 C   0  0  1  0  0  3  0  0  0  0  0  0
  192.0610  175.7600  147.5450 C   0  0  0  0  0  0  0  0  0  0  0  0
  192.6830  175.4640  146.3440 F   0  0  0  0  0  0  0  0  0  0  0  0
  193.0390  176.0020  148.5090 O   0  0  0  0  0  1  0  0  0  0  0  0
  191.2940  174.6780  147.9380 F   0  0  0  0  0  0  0  0  0  0  0  0
  185.1080  179.3850  146.7690 O   0  0  0  0  0  1  0  0  0  0  0  0
  184.9360  179.2930  145.3870 C   0  0  2  0  0  3  0  0  0  0  0  0
  183.4760  179.0010  145.0730 C   0  0  0  0  0  2  0  0  0  0  0  0
  183.1390  179.5370  143.8290 O   0  0  0  0  0  1  0  0  0  0  0  0
  188.2950  178.6110  140.5790 C   0  0  0  0  0  2  0  0  0  0  0  0
  188.4920  178.0590  139.1750 C   0  0  0  0  0  2  0  0  0  0  0  0
  189.8930  177.4920  138.9820 C   0  0  2  0  0  3  0  0  0  0  0  0
  189.8170  176.1030  138.8550 O   0  0  0  0  0  0  0  0  0  0  0  0
  189.8100  175.8690  137.4780 C   0  0  0  0  0  1  0  0  0  0  0  0
  190.7710  177.8500  140.1740 C   0  0  0  0  0  2  0  0  0  0  0  0
  191.9280  176.8690  140.3250 C   0  0  1  0  0  3  0  0  0  0  0  0
  193.0420  177.2130  139.3500 C   0  0  0  0  0  2  0  0  0  0  0  0
  194.2840  176.9850  139.9420 O   0  0  0  0  0  1  0  0  0  0  0  0
  192.4780  176.9380  141.7400 C   0  0  0  0  0  2  0  0  0  0  0  0
  191.3730  177.2410  142.7410 C   0  0  1  0  0  3  0  0  0  0  0  0
  190.5170  175.0150  142.9240 O   0  0  0  0  0  1  0  0  0  0  0  0
  191.1770  176.0220  143.6290 C   0  0  0  0  0  2  0  0  0  0  0  0
  191.7520  178.4510  143.5830 C   0  0  0  0  0  2  0  0  0  0  0  0
  190.5180  179.0680  144.2110 C   0  0  0  0  0  1  0  0  0  0  0  0
  1  3  1  0  0  0  0
  2 20  1  6  0  0  0
  2  1  1  0  0  0  0
  2  3  1  0  0  0  0
  3  4  1  1  0  0  0
  4  7  1  0  0  0  0
  5  8  1  0  0  0  0
  6  5  2  0  0  0  0
  7 17  1  0  0  0  0
  7  6  2  0  0  0  0
  8  9  2  0  0  0  0
  9 11  1  0  0  0  0
 11 12  1  0  0  0  0
 11 10  1  1  0  0  0
 12 15  1  0  0  0  0
 12 14  1  0  0  0  0
 13 12  1  0  0  0  0
 17 16  1  1  0  0  0
 18 17  1  0  0  0  0
 19 18  1  0  0  0  0
 21 20  1  0  0  0  0
 22 21  1  1  0  0  0
 22 25  1  0  0  0  0
 23 22  1  0  0  0  0
 24 23  1  0  0  0  0
 25 26  1  0  0  0  0
 26 27  1  6  0  0  0
 26 29  1  0  0  0  0
 27 28  1  0  0  0  0
 30 29  1  6  0  0  0
 30 33  1  0  0  0  0
 30 32  1  0  0  0  0
 31 32  1  0  0  0  0
 33 34  1  0  0  0  0
M  END
>  <MODEL>
9

>  <REMARK>
 VINA RESULT:      -6.1      4.156      7.021
  Name = 
  18 active torsions:
  status: ('A' for Active; 'I' for Inactive)
    1  A    between atoms: C_1  and  C_13
    2  A    between atoms: C_2  and  C_15
    3  A    between atoms: C_2  and  C_24
    4  A    between atoms: O_4  and  C_25
    5  A    between atoms: C_5  and  C_7
    6  A    between atoms: C_5  and  C_33
    7  A    between atoms: C_6  and  C_7
    8  A    between atoms: C_7  and  C_32
    9  A    between atoms: C_8  and  C_18
   10  A    between atoms: C_17  and  C_27
   11  A    between atoms: C_18  and  C_23
   12  A    between atoms: C_19  and  C_33
   13  A    between atoms: C_21  and  C_31
   14  A    between atoms: C_24  and  C_25
   15  A    between atoms: C_25  and  C_32
   16  A    between atoms: C_27  and  C_34
   17  A    between atoms: C_29  and  C_33
   18  A    between atoms: C_31  and  C_34
                            x       y       z     vdW  Elec       q    Type
                         _______ _______ _______ _____ _____    ______ ____

>  <TORSDO>
F 18

$$$$
