=
 OpenBabel11062412563D

 50 54  0  0  1  0  0  0  0  0999 V2000
  185.4980  173.3850  136.8670 C   0  0  0  0  0  0  0  0  0  0  0  0
  184.4530  172.9590  136.3420 N   0  0  0  0  0  0  0  0  0  0  0  0
  183.3030  175.1810  136.6080 C   0  0  1  0  0  3  0  0  0  0  0  0
  186.6980  172.6570  136.8360 N   0  0  0  0  0  1  0  0  0  0  0  0
  185.5990  174.7480  137.3680 N   0  0  0  0  0  0  0  0  0  0  0  0
  184.6850  175.6360  137.2660 C   0  0  0  0  0  0  0  0  0  0  0  0
  183.1710  173.6640  136.4110 C   0  0  0  0  0  2  0  0  0  0  0  0
  184.9600  177.0390  137.6380 N   0  0  0  0  0  0  0  0  0  0  0  0
  184.7860  178.4590  142.4050 N   0  0  0  0  0  2  0  0  0  0  0  0
  182.5000  178.5670  142.8940 O   0  0  0  0  0  0  0  0  0  0  0  0
  183.0940  178.3670  140.5920 N   0  0  0  0  0  0  0  0  0  0  0  0
  183.7450  180.1010  138.8840 C   0  0  0  0  0  2  0  0  0  0  0  0
  183.4570  178.4740  142.0010 C   0  0  0  0  0  0  0  0  0  0  0  0
  182.7200  179.6440  139.9580 C   0  0  0  0  0  2  0  0  0  0  0  0
  184.7300  179.1790  138.5450 O   0  0  0  0  0  0  0  0  0  0  0  0
  184.0600  177.8930  138.4170 C   0  0  2  0  0  3  0  0  0  0  0  0
  183.7100  177.3360  139.7550 C   0  0  0  0  0  2  0  0  0  0  0  0
  184.8270  179.1070  144.7780 C   0  0  0  0  0  3  0  0  0  0  0  0
  185.3770  179.1240  146.0780 C   0  0  0  0  0  3  0  0  0  0  0  0
  187.2820  178.2970  147.9130 Cl  0  0  0  0  0  0  0  0  0  0  0  0
  187.0490  177.6010  145.3290 C   0  0  0  0  0  3  0  0  0  0  0  0
  187.2210  176.8760  143.0760 O   0  0  0  0  0  1  0  0  0  0  0  0
  186.5330  177.5840  144.0280 C   0  0  0  0  0  0  0  0  0  0  0  0
  185.3540  178.3440  143.7610 C   0  0  0  0  0  0  0  0  0  0  0  0
  186.4800  178.3320  146.3530 C   0  0  0  0  0  0  0  0  0  0  0  0
  182.1610  175.6120  137.3580 O   0  0  0  0  0  0  0  0  0  0  0  0
  181.5240  174.5450  137.7160 O   0  0  0  0  0  1  0  0  0  0  0  0
  186.2850  177.1930  138.0080 O   0  0  0  0  0  0  0  0  0  0  0  0
  187.3800  178.7660  136.5590 C   0  0  0  0  0  1  0  0  0  0  0  0
  187.1560  177.3060  136.9050 C   0  0  1  0  0  3  0  0  0  0  0  0
  188.5410  176.8370  137.2050 C   0  0  2  0  0  3  0  0  0  0  0  0
  188.9380  178.6890  138.7040 O   0  0  0  0  0  0  0  0  0  0  0  0
  189.1500  177.4470  138.4860 C   0  0  0  0  0  0  0  0  0  0  0  0
  189.7170  176.6090  139.5710 N   0  0  0  0  0  2  0  0  0  0  0  0
  191.5520  177.5300  140.7620 C   0  0  0  0  0  2  0  0  0  0  0  0
  190.0740  177.2370  140.7930 C   0  0  2  0  0  3  0  0  0  0  0  0
  190.8490  176.9500  143.0300 C   0  0  1  0  0  3  0  0  0  0  0  0
  191.9100  177.6650  142.2600 C   0  0  0  0  0  2  0  0  0  0  0  0
  189.8890  176.3630  142.0690 C   0  0  0  0  0  2  0  0  0  0  0  0
  191.4840  176.8590  145.4310 C   0  0  0  0  0  1  0  0  0  0  0  0
  191.4730  176.2100  144.1340 C   0  0  0  0  0  0  0  0  0  0  0  0
  192.0280  175.1870  143.9170 O   0  0  0  0  0  0  0  0  0  0  0  0
  189.5910  176.5530  136.1370 C   0  0  2  0  0  3  0  0  0  0  0  0
  189.1510  176.0910  134.8370 C   0  0  0  0  0  1  0  0  0  0  0  0
  190.6720  175.6170  136.5030 N   0  0  0  0  0  0  0  0  0  0  0  0
  191.9930  176.2070  136.7750 C   0  0  0  0  0  2  0  0  0  0  0  0
  192.8090  173.8220  136.9150 C   0  0  0  0  0  2  0  0  0  0  0  0
  191.5020  173.4060  136.3440 C   0  0  0  0  0  2  0  0  0  0  0  0
  192.7350  175.1450  137.6630 C   0  0  0  0  0  2  0  0  0  0  0  0
  190.8310  174.4890  135.5690 C   0  0  0  0  0  2  0  0  0  0  0  0
  1  5  1  0  0  0  0
  2  7  1  0  0  0  0
  2  1  2  0  0  0  0
  3  6  1  0  0  0  0
  3 26  1  1  0  0  0
  4  1  1  0  0  0  0
  6  5  2  0  0  0  0
  6  8  1  0  0  0  0
  7  3  1  0  0  0  0
  8 28  1  0  0  0  0
  9 24  1  0  0  0  0
 11 13  1  0  0  0  0
 12 14  1  0  0  0  0
 13  9  1  0  0  0  0
 13 10  2  0  0  0  0
 14 11  1  0  0  0  0
 15 12  1  0  0  0  0
 16  8  1  1  0  0  0
 16 15  1  0  0  0  0
 16 17  1  0  0  0  0
 17 11  1  0  0  0  0
 18 19  1  0  0  0  0
 19 25  2  0  0  0  0
 21 25  1  0  0  0  0
 22 23  1  0  0  0  0
 23 21  2  0  0  0  0
 24 23  1  0  0  0  0
 24 18  2  0  0  0  0
 25 20  1  0  0  0  0
 26 27  1  0  0  0  0
 30 29  1  1  0  0  0
 30 31  1  0  0  0  0
 30 28  1  0  0  0  0
 31 33  1  1  0  0  0
 33 32  2  0  0  0  0
 33 34  1  0  0  0  0
 35 36  1  0  0  0  0
 35 38  1  0  0  0  0
 36 34  1  6  0  0  0
 36 39  1  0  0  0  0
 37 41  1  6  0  0  0
 38 37  1  0  0  0  0
 39 37  1  0  0  0  0
 41 40  1  0  0  0  0
 42 41  2  0  0  0  0
 43 44  1  6  0  0  0
 43 45  1  0  0  0  0
 43 31  1  0  0  0  0
 45 46  1  0  0  0  0
 46 49  1  0  0  0  0
 47 49  1  0  0  0  0
 48 47  1  0  0  0  0
 50 48  1  0  0  0  0
 50 45  1  0  0  0  0
M  END
>  <MODEL>
1

>  <REMARK>
 VINA RESULT:      -8.7      0.000      0.000
  Name = 
  11 active torsions:
  status: ('A' for Active; 'I' for Inactive)
    1  A    between atoms: N_1  and  C_42
    2  A    between atoms: O_2  and  C_18
    3  A    between atoms: C_10  and  C_31
    4  A    between atoms: N_11  and  C_14
    5  A    between atoms: C_14  and  C_44
    6  A    between atoms: O_17  and  C_49
    7  A    between atoms: O_17  and  N_50
    8  A    between atoms: C_24  and  N_40
    9  A    between atoms: C_25  and  C_44
   10  A    between atoms: C_44  and  C_49
   11  A    between atoms: C_46  and  N_50
                            x       y       z     vdW  Elec       q    Type
                         _______ _______ _______ _____ _____    ______ ____

>  <TORSDO>
F 11

$$$$
=
 OpenBabel11062412563D

 50 54  0  0  1  0  0  0  0  0999 V2000
  193.5980  175.7530  137.8430 C   0  0  0  0  0  0  0  0  0  0  0  0
  194.1400  175.9220  136.7350 N   0  0  0  0  0  0  0  0  0  0  0  0
  191.9270  176.3430  135.6130 C   0  0  1  0  0  3  0  0  0  0  0  0
  194.3400  175.6840  139.0330 N   0  0  0  0  0  1  0  0  0  0  0  0
  192.1530  175.8210  138.0040 N   0  0  0  0  0  0  0  0  0  0  0  0
  191.3250  176.1140  137.0740 C   0  0  0  0  0  0  0  0  0  0  0  0
  193.4010  175.9370  135.4710 C   0  0  0  0  0  2  0  0  0  0  0  0
  189.8990  176.3380  137.3860 N   0  0  0  0  0  0  0  0  0  0  0  0
  184.9690  177.0090  137.5150 N   0  0  0  0  0  2  0  0  0  0  0  0
  184.0840  174.9170  136.9540 O   0  0  0  0  0  0  0  0  0  0  0  0
  186.4220  175.2250  136.5860 N   0  0  0  0  0  0  0  0  0  0  0  0
  187.6830  176.2320  134.6510 C   0  0  0  0  0  2  0  0  0  0  0  0
  185.1190  175.7200  137.0210 C   0  0  0  0  0  0  0  0  0  0  0  0
  186.6140  175.2100  135.1240 C   0  0  0  0  0  2  0  0  0  0  0  0
  188.4220  176.8540  135.6520 O   0  0  0  0  0  0  0  0  0  0  0  0
  188.7760  175.8130  136.6060 C   0  0  2  0  0  3  0  0  0  0  0  0
  187.5980  175.4220  137.4340 C   0  0  0  0  0  2  0  0  0  0  0  0
  183.8000  177.7040  139.5660 C   0  0  0  0  0  3  0  0  0  0  0  0
  182.6900  178.1910  140.2900 C   0  0  0  0  0  3  0  0  0  0  0  0
  180.1150  179.2090  140.3780 Cl  0  0  0  0  0  0  0  0  0  0  0  0
  181.5520  178.5040  138.2210 C   0  0  0  0  0  3  0  0  0  0  0  0
  182.4740  177.8680  136.1280 O   0  0  0  0  0  1  0  0  0  0  0  0
  182.6330  178.0060  137.4840 C   0  0  0  0  0  0  0  0  0  0  0  0
  183.8130  177.6260  138.1920 C   0  0  0  0  0  0  0  0  0  0  0  0
  181.5720  178.6240  139.5960 C   0  0  0  0  0  0  0  0  0  0  0  0
  191.1960  175.6520  134.5940 O   0  0  0  0  0  0  0  0  0  0  0  0
  191.2330  174.3940  134.8940 O   0  0  0  0  0  1  0  0  0  0  0  0
  189.6800  176.2500  138.7500 O   0  0  0  0  0  0  0  0  0  0  0  0
  189.0400  178.5200  139.2090 C   0  0  0  0  0  1  0  0  0  0  0  0
  190.0550  177.4190  139.4460 C   0  0  1  0  0  3  0  0  0  0  0  0
  190.0060  177.2560  140.9290 C   0  0  2  0  0  3  0  0  0  0  0  0
  188.2780  175.9910  142.0470 O   0  0  0  0  0  0  0  0  0  0  0  0
  188.5790  177.1060  141.4990 C   0  0  0  0  0  0  0  0  0  0  0  0
  187.6690  178.2660  141.6730 N   0  0  0  0  0  2  0  0  0  0  0  0
  185.6560  179.3460  142.3170 C   0  0  0  0  0  2  0  0  0  0  0  0
  186.4560  178.0710  142.3830 C   0  0  2  0  0  3  0  0  0  0  0  0
  185.3190  178.2440  144.4720 C   0  0  1  0  0  3  0  0  0  0  0  0
  184.7000  179.2200  143.5260 C   0  0  0  0  0  2  0  0  0  0  0  0
  186.6150  177.8040  143.9100 C   0  0  0  0  0  2  0  0  0  0  0  0
  186.3000  178.7040  146.7090 C   0  0  0  0  0  1  0  0  0  0  0  0
  185.1340  178.7260  145.8470 C   0  0  0  0  0  0  0  0  0  0  0  0
  184.0500  179.0060  146.2310 O   0  0  0  0  0  0  0  0  0  0  0  0
  190.9490  177.9670  141.8920 C   0  0  2  0  0  3  0  0  0  0  0  0
  192.3760  177.8480  141.6800 C   0  0  0  0  0  1  0  0  0  0  0  0
  190.7740  177.6740  143.3280 N   0  0  0  0  0  0  0  0  0  0  0  0
  190.5450  178.8260  144.2150 C   0  0  0  0  0  2  0  0  0  0  0  0
  190.7290  177.1590  146.1010 C   0  0  0  0  0  2  0  0  0  0  0  0
  191.2370  176.1810  145.1050 C   0  0  0  0  0  2  0  0  0  0  0  0
  189.8390  178.2260  145.4830 C   0  0  0  0  0  2  0  0  0  0  0  0
  191.8350  176.8280  143.9010 C   0  0  0  0  0  2  0  0  0  0  0  0
  1  5  1  0  0  0  0
  1  4  1  0  0  0  0
  2  1  2  0  0  0  0
  3 26  1  6  0  0  0
  3  6  1  0  0  0  0
  6  8  1  0  0  0  0
  6  5  2  0  0  0  0
  7  3  1  0  0  0  0
  7  2  1  0  0  0  0
  8 28  1  0  0  0  0
  9 24  1  0  0  0  0
 10 13  2  0  0  0  0
 11 13  1  0  0  0  0
 11 17  1  0  0  0  0
 12 14  1  0  0  0  0
 12 15  1  0  0  0  0
 13  9  1  0  0  0  0
 14 11  1  0  0  0  0
 15 16  1  0  0  0  0
 16  8  1  1  0  0  0
 16 17  1  0  0  0  0
 18 19  1  0  0  0  0
 21 25  1  0  0  0  0
 22 23  1  0  0  0  0
 23 24  1  0  0  0  0
 23 21  2  0  0  0  0
 24 18  2  0  0  0  0
 25 19  2  0  0  0  0
 25 20  1  0  0  0  0
 26 27  1  0  0  0  0
 28 30  1  0  0  0  0
 30 29  1  1  0  0  0
 30 31  1  0  0  0  0
 31 33  1  1  0  0  0
 31 43  1  0  0  0  0
 33 34  1  0  0  0  0
 33 32  2  0  0  0  0
 35 36  1  0  0  0  0
 35 38  1  0  0  0  0
 36 34  1  1  0  0  0
 36 39  1  0  0  0  0
 37 41  1  1  0  0  0
 38 37  1  0  0  0  0
 39 37  1  0  0  0  0
 41 42  2  0  0  0  0
 41 40  1  0  0  0  0
 43 44  1  6  0  0  0
 43 45  1  0  0  0  0
 45 50  1  0  0  0  0
 45 46  1  0  0  0  0
 46 49  1  0  0  0  0
 48 47  1  0  0  0  0
 49 47  1  0  0  0  0
 50 48  1  0  0  0  0
M  END
>  <MODEL>
2

>  <REMARK>
 VINA RESULT:      -8.5      2.649      7.137
  Name = 
  11 active torsions:
  status: ('A' for Active; 'I' for Inactive)
    1  A    between atoms: N_1  and  C_42
    2  A    between atoms: O_2  and  C_18
    3  A    between atoms: C_10  and  C_31
    4  A    between atoms: N_11  and  C_14
    5  A    between atoms: C_14  and  C_44
    6  A    between atoms: O_17  and  C_49
    7  A    between atoms: O_17  and  N_50
    8  A    between atoms: C_24  and  N_40
    9  A    between atoms: C_25  and  C_44
   10  A    between atoms: C_44  and  C_49
   11  A    between atoms: C_46  and  N_50
                            x       y       z     vdW  Elec       q    Type
                         _______ _______ _______ _____ _____    ______ ____

>  <TORSDO>
F 11

$$$$
=
 OpenBabel11062412563D

 50 54  0  0  1  0  0  0  0  0999 V2000
  183.5510  174.2560  135.4120 C   0  0  0  0  0  0  0  0  0  0  0  0
  182.6160  174.3380  134.5940 N   0  0  0  0  0  0  0  0  0  0  0  0
  181.9030  176.5770  135.4950 C   0  0  1  0  0  3  0  0  0  0  0  0
  184.5480  173.2730  135.3080 N   0  0  0  0  0  1  0  0  0  0  0  0
  183.7880  175.2910  136.4080 N   0  0  0  0  0  0  0  0  0  0  0  0
  183.1270  176.3820  136.5010 C   0  0  0  0  0  0  0  0  0  0  0  0
  181.5290  175.3120  134.7100 C   0  0  0  0  0  2  0  0  0  0  0  0
  183.5690  177.4470  137.4250 N   0  0  0  0  0  0  0  0  0  0  0  0
  183.6860  178.6580  142.2510 N   0  0  0  0  0  2  0  0  0  0  0  0
  181.4420  178.6080  142.9160 O   0  0  0  0  0  0  0  0  0  0  0  0
  181.8660  178.5380  140.5680 N   0  0  0  0  0  0  0  0  0  0  0  0
  182.2820  180.3760  138.8970 C   0  0  0  0  0  2  0  0  0  0  0  0
  182.3310  178.6090  141.9500 C   0  0  0  0  0  0  0  0  0  0  0  0
  181.3720  179.8150  140.0220 C   0  0  0  0  0  2  0  0  0  0  0  0
  183.2880  179.5300  138.4430 O   0  0  0  0  0  0  0  0  0  0  0  0
  182.6860  178.2120  138.3080 C   0  0  2  0  0  3  0  0  0  0  0  0
  182.4730  177.5810  139.6420 C   0  0  0  0  0  2  0  0  0  0  0  0
  183.7710  179.0500  144.6780 C   0  0  0  0  0  3  0  0  0  0  0  0
  184.4000  179.0450  145.9420 C   0  0  0  0  0  3  0  0  0  0  0  0
  186.5610  178.4430  147.5690 Cl  0  0  0  0  0  0  0  0  0  0  0  0
  186.2820  177.9860  144.9370 C   0  0  0  0  0  3  0  0  0  0  0  0
  186.4300  177.5500  142.6090 O   0  0  0  0  0  1  0  0  0  0  0  0
  185.6860  177.9990  143.6700 C   0  0  0  0  0  0  0  0  0  0  0  0
  184.3630  178.5220  143.5540 C   0  0  0  0  0  0  0  0  0  0  0  0
  185.6560  178.4740  146.0670 C   0  0  0  0  0  0  0  0  0  0  0  0
  180.7140  177.0390  136.1470 O   0  0  0  0  0  0  0  0  0  0  0  0
  179.7130  176.5330  135.5020 O   0  0  0  0  0  1  0  0  0  0  0  0
  184.7540  177.0910  138.0460 O   0  0  0  0  0  0  0  0  0  0  0  0
  186.0560  178.6160  139.3700 C   0  0  0  0  0  1  0  0  0  0  0  0
  185.7360  178.1020  137.9800 C   0  0  1  0  0  3  0  0  0  0  0  0
  187.0620  177.5980  137.5160 C   0  0  2  0  0  3  0  0  0  0  0  0
  188.7200  179.2220  138.1890 O   0  0  0  0  0  0  0  0  0  0  0  0
  188.2500  178.0500  138.3930 C   0  0  0  0  0  0  0  0  0  0  0  0
  188.6690  177.3050  139.6050 N   0  0  0  0  0  2  0  0  0  0  0  0
  190.8740  177.0310  140.4420 C   0  0  0  0  0  2  0  0  0  0  0  0
  189.6390  177.8940  140.4580 C   0  0  2  0  0  3  0  0  0  0  0  0
  190.5510  178.0080  142.6580 C   0  0  1  0  0  3  0  0  0  0  0  0
  191.5870  177.4200  141.7580 C   0  0  0  0  0  2  0  0  0  0  0  0
  189.2460  177.9610  141.9640 C   0  0  0  0  0  2  0  0  0  0  0  0
  189.7520  176.6810  144.6020 C   0  0  0  0  0  1  0  0  0  0  0  0
  190.7790  177.5290  144.0270 C   0  0  0  0  0  0  0  0  0  0  0  0
  191.7100  177.9260  144.6430 O   0  0  0  0  0  0  0  0  0  0  0  0
  187.4450  177.4420  136.0490 C   0  0  2  0  0  3  0  0  0  0  0  0
  186.3930  177.4480  135.0540 C   0  0  0  0  0  1  0  0  0  0  0  0
  188.2630  176.2630  135.6990 N   0  0  0  0  0  0  0  0  0  0  0  0
  189.4800  176.5140  134.9110 C   0  0  0  0  0  2  0  0  0  0  0  0
  189.6740  174.0010  134.7790 C   0  0  0  0  0  2  0  0  0  0  0  0
  188.2920  173.9280  135.3180 C   0  0  0  0  0  2  0  0  0  0  0  0
  190.4030  175.2730  135.1860 C   0  0  0  0  0  2  0  0  0  0  0  0
  187.5010  175.1680  135.0740 C   0  0  0  0  0  2  0  0  0  0  0  0
  1  5  1  0  0  0  0
  2  7  1  0  0  0  0
  2  1  2  0  0  0  0
  3 26  1  1  0  0  0
  3  6  1  0  0  0  0
  4  1  1  0  0  0  0
  5  6  2  0  0  0  0
  6  8  1  0  0  0  0
  7  3  1  0  0  0  0
  8 28  1  0  0  0  0
  9 24  1  0  0  0  0
 11 13  1  0  0  0  0
 12 14  1  0  0  0  0
 13  9  1  0  0  0  0
 13 10  2  0  0  0  0
 14 11  1  0  0  0  0
 15 12  1  0  0  0  0
 16  8  1  6  0  0  0
 16 15  1  0  0  0  0
 16 17  1  0  0  0  0
 17 11  1  0  0  0  0
 18 19  1  0  0  0  0
 19 25  2  0  0  0  0
 21 25  1  0  0  0  0
 22 23  1  0  0  0  0
 23 21  2  0  0  0  0
 24 23  1  0  0  0  0
 24 18  2  0  0  0  0
 25 20  1  0  0  0  0
 27 26  1  0  0  0  0
 30 28  1  0  0  0  0
 30 29  1  1  0  0  0
 31 30  1  0  0  0  0
 31 33  1  6  0  0  0
 32 33  2  0  0  0  0
 33 34  1  0  0  0  0
 35 36  1  0  0  0  0
 35 38  1  0  0  0  0
 36 34  1  6  0  0  0
 36 39  1  0  0  0  0
 37 41  1  1  0  0  0
 38 37  1  0  0  0  0
 39 37  1  0  0  0  0
 41 40  1  0  0  0  0
 41 42  2  0  0  0  0
 43 44  1  6  0  0  0
 43 31  1  0  0  0  0
 45 43  1  0  0  0  0
 46 49  1  0  0  0  0
 46 45  1  0  0  0  0
 47 49  1  0  0  0  0
 47 48  1  0  0  0  0
 50 48  1  0  0  0  0
 50 45  1  0  0  0  0
M  END
>  <MODEL>
3

>  <REMARK>
 VINA RESULT:      -7.7      1.671      2.050
  Name = 
  11 active torsions:
  status: ('A' for Active; 'I' for Inactive)
    1  A    between atoms: N_1  and  C_42
    2  A    between atoms: O_2  and  C_18
    3  A    between atoms: C_10  and  C_31
    4  A    between atoms: N_11  and  C_14
    5  A    between atoms: C_14  and  C_44
    6  A    between atoms: O_17  and  C_49
    7  A    between atoms: O_17  and  N_50
    8  A    between atoms: C_24  and  N_40
    9  A    between atoms: C_25  and  C_44
   10  A    between atoms: C_44  and  C_49
   11  A    between atoms: C_46  and  N_50
                            x       y       z     vdW  Elec       q    Type
                         _______ _______ _______ _____ _____    ______ ____

>  <TORSDO>
F 11

$$$$
=
 OpenBabel11062412563D

 50 54  0  0  1  0  0  0  0  0999 V2000
  189.9870  177.5160  141.3710 C   0  0  0  0  0  0  0  0  0  0  0  0
  191.2240  177.6460  141.3310 N   0  0  0  0  0  0  0  0  0  0  0  0
  191.3030  177.0280  138.8930 C   0  0  1  0  0  3  0  0  0  0  0  0
  189.2270  177.9480  142.4700 N   0  0  0  0  0  1  0  0  0  0  0  0
  189.2250  177.0970  140.2030 N   0  0  0  0  0  0  0  0  0  0  0  0
  189.7190  176.8910  139.0420 C   0  0  0  0  0  0  0  0  0  0  0  0
  192.0500  177.1500  140.2280 C   0  0  0  0  0  2  0  0  0  0  0  0
  188.8330  176.6530  137.8840 N   0  0  0  0  0  0  0  0  0  0  0  0
  185.9480  173.1440  135.8490 N   0  0  0  0  0  2  0  0  0  0  0  0
  187.3960  171.3420  135.4870 O   0  0  0  0  0  0  0  0  0  0  0  0
  188.4060  173.4330  136.0330 N   0  0  0  0  0  0  0  0  0  0  0  0
  189.0270  175.4070  134.5950 C   0  0  0  0  0  2  0  0  0  0  0  0
  187.2280  172.6110  135.7760 C   0  0  0  0  0  0  0  0  0  0  0  0
  189.1220  173.8740  134.8220 C   0  0  0  0  0  2  0  0  0  0  0  0
  188.4700  176.1460  135.6330 O   0  0  0  0  0  0  0  0  0  0  0  0
  189.0430  175.6220  136.8640 C   0  0  2  0  0  3  0  0  0  0  0  0
  188.4470  174.3000  137.2120 C   0  0  0  0  0  2  0  0  0  0  0  0
  184.5870  171.1130  136.1230 C   0  0  0  0  0  3  0  0  0  0  0  0
  183.3920  170.3660  136.0360 C   0  0  0  0  0  3  0  0  0  0  0  0
  180.6840  170.1860  135.4780 Cl  0  0  0  0  0  0  0  0  0  0  0  0
  182.2740  172.3460  135.3250 C   0  0  0  0  0  3  0  0  0  0  0  0
  183.3980  174.4040  134.9580 O   0  0  0  0  0  1  0  0  0  0  0  0
  183.4510  173.1010  135.3840 C   0  0  0  0  0  0  0  0  0  0  0  0
  184.6430  172.4580  135.8360 C   0  0  0  0  0  0  0  0  0  0  0  0
  182.2230  171.0080  135.6650 C   0  0  0  0  0  0  0  0  0  0  0  0
  191.8920  175.9380  138.1750 O   0  0  0  0  0  0  0  0  0  0  0  0
  193.1380  176.2370  137.9960 O   0  0  0  0  0  1  0  0  0  0  0  0
  187.5050  176.7610  138.2580 O   0  0  0  0  0  0  0  0  0  0  0  0
  187.6170  178.8890  137.1470 C   0  0  0  0  0  1  0  0  0  0  0  0
  187.0540  178.0970  138.3120 C   0  0  1  0  0  3  0  0  0  0  0  0
  185.5830  178.2250  138.1000 C   0  0  2  0  0  3  0  0  0  0  0  0
  184.1420  179.9780  138.9300 O   0  0  0  0  0  0  0  0  0  0  0  0
  184.8430  178.9550  139.2420 C   0  0  0  0  0  0  0  0  0  0  0  0
  184.7010  178.3670  140.5970 N   0  0  0  0  0  2  0  0  0  0  0  0
  183.9770  178.3190  142.8570 C   0  0  0  0  0  2  0  0  0  0  0  0
  183.8430  179.0120  141.5260 C   0  0  2  0  0  3  0  0  0  0  0  0
  181.6780  179.0790  142.5240 C   0  0  1  0  0  3  0  0  0  0  0  0
  182.6630  178.6980  143.5800 C   0  0  0  0  0  2  0  0  0  0  0  0
  182.3210  178.9150  141.2020 C   0  0  0  0  0  2  0  0  0  0  0  0
  179.6930  179.1280  144.0180 C   0  0  0  0  0  1  0  0  0  0  0  0
  180.3620  178.5330  142.8770 C   0  0  0  0  0  0  0  0  0  0  0  0
  179.9460  177.5820  142.3080 O   0  0  0  0  0  0  0  0  0  0  0  0
  184.7240  177.1540  137.4390 C   0  0  2  0  0  3  0  0  0  0  0  0
  184.5720  177.1770  135.9990 C   0  0  0  0  0  1  0  0  0  0  0  0
  183.3440  177.0060  137.9420 N   0  0  0  0  0  0  0  0  0  0  0  0
  182.9570  175.6720  138.4300 C   0  0  0  0  0  2  0  0  0  0  0  0
  180.6340  176.6370  138.6310 C   0  0  0  0  0  2  0  0  0  0  0  0
  181.1180  177.8070  137.8540 C   0  0  0  0  0  2  0  0  0  0  0  0
  181.7440  175.9310  139.3940 C   0  0  0  0  0  2  0  0  0  0  0  0
  182.3110  177.4980  137.0130 C   0  0  0  0  0  2  0  0  0  0  0  0
  1  4  1  0  0  0  0
  2  1  2  0  0  0  0
  3 26  1  1  0  0  0
  3  6  1  0  0  0  0
  3  7  1  0  0  0  0
  5  1  1  0  0  0  0
  6  5  2  0  0  0  0
  7  2  1  0  0  0  0
  8 28  1  0  0  0  0
  8  6  1  0  0  0  0
 10 13  2  0  0  0  0
 11 17  1  0  0  0  0
 12 14  1  0  0  0  0
 12 15  1  0  0  0  0
 13  9  1  0  0  0  0
 13 11  1  0  0  0  0
 14 11  1  0  0  0  0
 15 16  1  0  0  0  0
 16 17  1  0  0  0  0
 16  8  1  1  0  0  0
 19 18  1  0  0  0  0
 20 25  1  0  0  0  0
 21 23  2  0  0  0  0
 21 25  1  0  0  0  0
 22 23  1  0  0  0  0
 23 24  1  0  0  0  0
 24  9  1  0  0  0  0
 24 18  2  0  0  0  0
 25 19  2  0  0  0  0
 27 26  1  0  0  0  0
 28 30  1  0  0  0  0
 30 29  1  6  0  0  0
 31 30  1  0  0  0  0
 31 33  1  1  0  0  0
 32 33  2  0  0  0  0
 33 34  1  0  0  0  0
 35 38  1  0  0  0  0
 36 34  1  6  0  0  0
 36 35  1  0  0  0  0
 37 41  1  6  0  0  0
 37 38  1  0  0  0  0
 39 36  1  0  0  0  0
 39 37  1  0  0  0  0
 41 40  1  0  0  0  0
 42 41  2  0  0  0  0
 43 44  1  6  0  0  0
 43 45  1  0  0  0  0
 43 31  1  0  0  0  0
 45 46  1  0  0  0  0
 46 49  1  0  0  0  0
 47 49  1  0  0  0  0
 48 47  1  0  0  0  0
 50 48  1  0  0  0  0
 50 45  1  0  0  0  0
M  END
>  <MODEL>
4

>  <REMARK>
 VINA RESULT:      -7.3      3.344      9.058
  Name = 
  11 active torsions:
  status: ('A' for Active; 'I' for Inactive)
    1  A    between atoms: N_1  and  C_42
    2  A    between atoms: O_2  and  C_18
    3  A    between atoms: C_10  and  C_31
    4  A    between atoms: N_11  and  C_14
    5  A    between atoms: C_14  and  C_44
    6  A    between atoms: O_17  and  C_49
    7  A    between atoms: O_17  and  N_50
    8  A    between atoms: C_24  and  N_40
    9  A    between atoms: C_25  and  C_44
   10  A    between atoms: C_44  and  C_49
   11  A    between atoms: C_46  and  N_50
                            x       y       z     vdW  Elec       q    Type
                         _______ _______ _______ _____ _____    ______ ____

>  <TORSDO>
F 11

$$$$
=
 OpenBabel11062412563D

 50 54  0  0  1  0  0  0  0  0999 V2000
  193.1340  176.3960  138.0460 C   0  0  0  0  0  0  0  0  0  0  0  0
  193.7070  176.5570  136.9520 N   0  0  0  0  0  0  0  0  0  0  0  0
  191.5390  176.3850  135.6860 C   0  0  1  0  0  3  0  0  0  0  0  0
  193.7880  176.6090  139.2690 N   0  0  0  0  0  1  0  0  0  0  0  0
  191.6970  176.1750  138.1290 N   0  0  0  0  0  0  0  0  0  0  0  0
  190.8950  176.1890  137.1340 C   0  0  0  0  0  0  0  0  0  0  0  0
  193.0710  176.2830  135.6620 C   0  0  0  0  0  2  0  0  0  0  0  0
  189.4340  176.1420  137.3500 N   0  0  0  0  0  0  0  0  0  0  0  0
  184.4900  175.5650  137.3730 N   0  0  0  0  0  2  0  0  0  0  0  0
  184.1700  173.2920  136.9170 O   0  0  0  0  0  0  0  0  0  0  0  0
  186.3660  174.1560  136.5650 N   0  0  0  0  0  0  0  0  0  0  0  0
  187.3900  175.3460  134.5940 C   0  0  0  0  0  2  0  0  0  0  0  0
  184.9700  174.3310  136.9530 C   0  0  0  0  0  0  0  0  0  0  0  0
  186.5960  174.1150  135.1090 C   0  0  0  0  0  2  0  0  0  0  0  0
  187.9230  176.1830  135.5690 O   0  0  0  0  0  0  0  0  0  0  0  0
  188.4980  175.3140  136.5850 C   0  0  2  0  0  3  0  0  0  0  0  0
  187.4330  174.6830  137.4160 C   0  0  0  0  0  2  0  0  0  0  0  0
  182.2240  174.9410  138.0990 C   0  0  0  0  0  3  0  0  0  0  0  0
  180.9310  175.2150  138.5960 C   0  0  0  0  0  3  0  0  0  0  0  0
  179.0500  176.9780  139.6090 Cl  0  0  0  0  0  0  0  0  0  0  0  0
  181.5810  177.4900  138.8710 C   0  0  0  0  0  3  0  0  0  0  0  0
  183.7020  178.3180  138.2010 O   0  0  0  0  0  1  0  0  0  0  0  0
  182.8630  177.2460  138.3620 C   0  0  0  0  0  0  0  0  0  0  0  0
  183.1990  175.9070  137.9980 C   0  0  0  0  0  0  0  0  0  0  0  0
  180.6290  176.5000  139.0140 C   0  0  0  0  0  0  0  0  0  0  0  0
  191.0370  175.4520  134.7220 O   0  0  0  0  0  0  0  0  0  0  0  0
  191.5860  174.3100  134.9840 O   0  0  0  0  0  1  0  0  0  0  0  0
  189.1420  176.1540  138.7030 O   0  0  0  0  0  0  0  0  0  0  0  0
  187.4720  177.8770  138.8200 C   0  0  0  0  0  1  0  0  0  0  0  0
  188.8760  177.4470  139.1980 C   0  0  1  0  0  3  0  0  0  0  0  0
  188.8340  177.5040  140.6890 C   0  0  2  0  0  3  0  0  0  0  0  0
  187.8510  179.6900  140.9910 O   0  0  0  0  0  0  0  0  0  0  0  0
  187.7470  178.4430  141.2540 C   0  0  0  0  0  0  0  0  0  0  0  0
  186.4820  177.9300  141.8360 N   0  0  0  0  0  2  0  0  0  0  0  0
  185.4120  179.0310  143.6470 C   0  0  0  0  0  2  0  0  0  0  0  0
  185.4570  178.8620  142.1500 C   0  0  2  0  0  3  0  0  0  0  0  0
  183.1610  179.1860  142.7070 C   0  0  1  0  0  3  0  0  0  0  0  0
  183.9840  179.5720  143.8920 C   0  0  0  0  0  2  0  0  0  0  0  0
  184.0130  178.4110  141.7780 C   0  0  0  0  0  2  0  0  0  0  0  0
  180.7890  178.6890  142.1600 C   0  0  0  0  0  1  0  0  0  0  0  0
  181.8330  178.7590  143.1640 C   0  0  0  0  0  0  0  0  0  0  0  0
  181.6320  178.5970  144.3190 O   0  0  0  0  0  0  0  0  0  0  0  0
  190.0720  177.4440  141.5760 C   0  0  2  0  0  3  0  0  0  0  0  0
  190.9700  176.3160  141.4380 C   0  0  0  0  0  1  0  0  0  0  0  0
  189.8510  177.5510  143.0320 N   0  0  0  0  0  0  0  0  0  0  0  0
  191.0460  177.7400  143.8700 C   0  0  0  0  0  2  0  0  0  0  0  0
  189.4750  177.4640  145.8260 C   0  0  0  0  0  2  0  0  0  0  0  0
  188.4480  177.0010  144.8570 C   0  0  0  0  0  2  0  0  0  0  0  0
  190.5100  178.3850  145.1980 C   0  0  0  0  0  2  0  0  0  0  0  0
  189.0340  176.4620  143.5950 C   0  0  0  0  0  2  0  0  0  0  0  0
  1  5  1  0  0  0  0
  1  4  1  0  0  0  0
  2  1  2  0  0  0  0
  3 26  1  6  0  0  0
  3  6  1  0  0  0  0
  6  8  1  0  0  0  0
  6  5  2  0  0  0  0
  7  3  1  0  0  0  0
  7  2  1  0  0  0  0
  8 28  1  0  0  0  0
  9 24  1  0  0  0  0
 10 13  2  0  0  0  0
 11 13  1  0  0  0  0
 11 17  1  0  0  0  0
 12 14  1  0  0  0  0
 12 15  1  0  0  0  0
 13  9  1  0  0  0  0
 14 11  1  0  0  0  0
 15 16  1  0  0  0  0
 16  8  1  1  0  0  0
 16 17  1  0  0  0  0
 18 19  1  0  0  0  0
 19 25  2  0  0  0  0
 21 25  1  0  0  0  0
 22 23  1  0  0  0  0
 23 21  2  0  0  0  0
 24 18  2  0  0  0  0
 24 23  1  0  0  0  0
 25 20  1  0  0  0  0
 26 27  1  0  0  0  0
 28 30  1  0  0  0  0
 30 29  1  6  0  0  0
 30 31  1  0  0  0  0
 31 33  1  6  0  0  0
 31 43  1  0  0  0  0
 32 33  2  0  0  0  0
 33 34  1  0  0  0  0
 35 38  1  0  0  0  0
 36 34  1  1  0  0  0
 36 35  1  0  0  0  0
 37 41  1  1  0  0  0
 37 38  1  0  0  0  0
 39 36  1  0  0  0  0
 39 37  1  0  0  0  0
 40 41  1  0  0  0  0
 41 42  2  0  0  0  0
 43 44  1  1  0  0  0
 43 45  1  0  0  0  0
 45 50  1  0  0  0  0
 45 46  1  0  0  0  0
 46 49  1  0  0  0  0
 48 47  1  0  0  0  0
 49 47  1  0  0  0  0
 50 48  1  0  0  0  0
M  END
>  <MODEL>
5

>  <REMARK>
 VINA RESULT:      -7.3      2.849      7.593
  Name = 
  11 active torsions:
  status: ('A' for Active; 'I' for Inactive)
    1  A    between atoms: N_1  and  C_42
    2  A    between atoms: O_2  and  C_18
    3  A    between atoms: C_10  and  C_31
    4  A    between atoms: N_11  and  C_14
    5  A    between atoms: C_14  and  C_44
    6  A    between atoms: O_17  and  C_49
    7  A    between atoms: O_17  and  N_50
    8  A    between atoms: C_24  and  N_40
    9  A    between atoms: C_25  and  C_44
   10  A    between atoms: C_44  and  C_49
   11  A    between atoms: C_46  and  N_50
                            x       y       z     vdW  Elec       q    Type
                         _______ _______ _______ _____ _____    ______ ____

>  <TORSDO>
F 11

$$$$
=
 OpenBabel11062412563D

 50 54  0  0  1  0  0  0  0  0999 V2000
  193.0450  176.7170  138.8240 C   0  0  0  0  0  0  0  0  0  0  0  0
  193.7710  176.8090  137.8170 N   0  0  0  0  0  0  0  0  0  0  0  0
  191.8560  176.2790  136.2740 C   0  0  1  0  0  3  0  0  0  0  0  0
  193.4750  177.1310  140.0950 N   0  0  0  0  0  1  0  0  0  0  0  0
  191.6350  176.3650  138.7200 N   0  0  0  0  0  0  0  0  0  0  0  0
  191.0050  176.1860  137.6220 C   0  0  0  0  0  0  0  0  0  0  0  0
  193.3740  176.3290  136.4920 C   0  0  0  0  0  2  0  0  0  0  0  0
  189.5370  176.0190  137.6210 N   0  0  0  0  0  0  0  0  0  0  0  0
  184.7230  174.8830  137.0710 N   0  0  0  0  0  2  0  0  0  0  0  0
  184.7010  172.5550  136.8280 O   0  0  0  0  0  0  0  0  0  0  0  0
  186.8260  173.6290  136.6680 N   0  0  0  0  0  0  0  0  0  0  0  0
  187.9880  174.7390  134.7280 C   0  0  0  0  0  2  0  0  0  0  0  0
  185.3790  173.6780  136.8530 C   0  0  0  0  0  0  0  0  0  0  0  0
  187.2590  173.4780  135.2670 C   0  0  0  0  0  2  0  0  0  0  0  0
  188.2930  175.7190  135.6670 O   0  0  0  0  0  0  0  0  0  0  0  0
  188.8060  175.0210  136.8370 C   0  0  2  0  0  3  0  0  0  0  0  0
  187.7040  174.3530  137.5880 C   0  0  0  0  0  2  0  0  0  0  0  0
  183.0650  175.4640  138.7930 C   0  0  0  0  0  3  0  0  0  0  0  0
  181.7510  175.6220  139.2870 C   0  0  0  0  0  3  0  0  0  0  0  0
  179.0050  175.5770  138.9210 Cl  0  0  0  0  0  0  0  0  0  0  0  0
  180.9310  175.0680  137.1200 C   0  0  0  0  0  3  0  0  0  0  0  0
  182.3490  174.4370  135.3240 O   0  0  0  0  0  1  0  0  0  0  0  0
  182.2240  174.8860  136.6140 C   0  0  0  0  0  0  0  0  0  0  0  0
  183.3290  175.1310  137.4840 C   0  0  0  0  0  0  0  0  0  0  0  0
  180.6820  175.4520  138.4230 C   0  0  0  0  0  0  0  0  0  0  0  0
  191.5910  175.1980  135.3720 O   0  0  0  0  0  0  0  0  0  0  0  0
  192.6220  175.0960  134.5970 O   0  0  0  0  0  1  0  0  0  0  0  0
  189.0320  176.1550  138.9020 O   0  0  0  0  0  0  0  0  0  0  0  0
  187.7850  178.1790  138.5500 C   0  0  0  0  0  1  0  0  0  0  0  0
  188.9110  177.5010  139.3070 C   0  0  1  0  0  3  0  0  0  0  0  0
  188.4690  177.6460  140.7260 C   0  0  2  0  0  3  0  0  0  0  0  0
  187.3820  179.7720  141.0950 O   0  0  0  0  0  0  0  0  0  0  0  0
  187.2090  178.5180  140.9080 C   0  0  0  0  0  0  0  0  0  0  0  0
  185.8460  178.0140  140.6080 N   0  0  0  0  0  2  0  0  0  0  0  0
  183.5490  178.2410  141.1620 C   0  0  0  0  0  2  0  0  0  0  0  0
  184.7680  178.9370  140.6140 C   0  0  2  0  0  3  0  0  0  0  0  0
  182.9060  179.8350  139.4240 C   0  0  1  0  0  3  0  0  0  0  0  0
  182.3840  179.0980  140.6130 C   0  0  0  0  0  2  0  0  0  0  0  0
  184.3160  179.4400  139.2100 C   0  0  0  0  0  2  0  0  0  0  0  0
  181.8960  178.7340  137.4380 C   0  0  0  0  0  1  0  0  0  0  0  0
  181.8800  179.8420  138.3750 C   0  0  0  0  0  0  0  0  0  0  0  0
  181.1610  180.7760  138.2600 O   0  0  0  0  0  0  0  0  0  0  0  0
  189.4280  177.7510  141.9060 C   0  0  2  0  0  3  0  0  0  0  0  0
  190.5190  176.8030  142.0000 C   0  0  0  0  0  1  0  0  0  0  0  0
  188.8250  177.7390  143.2530 N   0  0  0  0  0  0  0  0  0  0  0  0
  189.7530  177.6690  144.3930 C   0  0  0  0  0  2  0  0  0  0  0  0
  187.6810  177.4220  145.8120 C   0  0  0  0  0  2  0  0  0  0  0  0
  186.9190  177.2120  144.5540 C   0  0  0  0  0  2  0  0  0  0  0  0
  188.9440  178.2450  145.6100 C   0  0  0  0  0  2  0  0  0  0  0  0
  187.7690  176.7260  143.4280 C   0  0  0  0  0  2  0  0  0  0  0  0
  1  4  1  0  0  0  0
  2  1  2  0  0  0  0
  3 26  1  6  0  0  0
  3  7  1  0  0  0  0
  3  6  1  0  0  0  0
  5  1  1  0  0  0  0
  6  5  2  0  0  0  0
  7  2  1  0  0  0  0
  8  6  1  0  0  0  0
  8 28  1  0  0  0  0
  9 24  1  0  0  0  0
 10 13  2  0  0  0  0
 11 13  1  0  0  0  0
 11 17  1  0  0  0  0
 12 14  1  0  0  0  0
 12 15  1  0  0  0  0
 13  9  1  0  0  0  0
 14 11  1  0  0  0  0
 15 16  1  0  0  0  0
 16 17  1  0  0  0  0
 16  8  1  1  0  0  0
 18 19  1  0  0  0  0
 21 25  1  0  0  0  0
 22 23  1  0  0  0  0
 23 21  2  0  0  0  0
 23 24  1  0  0  0  0
 24 18  2  0  0  0  0
 25 20  1  0  0  0  0
 25 19  2  0  0  0  0
 27 26  1  0  0  0  0
 28 30  1  0  0  0  0
 30 29  1  6  0  0  0
 30 31  1  0  0  0  0
 31 33  1  6  0  0  0
 31 43  1  0  0  0  0
 33 32  2  0  0  0  0
 34 33  1  0  0  0  0
 36 34  1  6  0  0  0
 36 35  1  0  0  0  0
 37 41  1  6  0  0  0
 37 38  1  0  0  0  0
 38 35  1  0  0  0  0
 39 37  1  0  0  0  0
 39 36  1  0  0  0  0
 40 41  1  0  0  0  0
 42 41  2  0  0  0  0
 43 44  1  1  0  0  0
 43 45  1  0  0  0  0
 45 50  1  0  0  0  0
 45 46  1  0  0  0  0
 46 49  1  0  0  0  0
 48 47  1  0  0  0  0
 49 47  1  0  0  0  0
 50 48  1  0  0  0  0
M  END
>  <MODEL>
6

>  <REMARK>
 VINA RESULT:      -7.2      3.010      8.273
  Name = 
  11 active torsions:
  status: ('A' for Active; 'I' for Inactive)
    1  A    between atoms: N_1  and  C_42
    2  A    between atoms: O_2  and  C_18
    3  A    between atoms: C_10  and  C_31
    4  A    between atoms: N_11  and  C_14
    5  A    between atoms: C_14  and  C_44
    6  A    between atoms: O_17  and  C_49
    7  A    between atoms: O_17  and  N_50
    8  A    between atoms: C_24  and  N_40
    9  A    between atoms: C_25  and  C_44
   10  A    between atoms: C_44  and  C_49
   11  A    between atoms: C_46  and  N_50
                            x       y       z     vdW  Elec       q    Type
                         _______ _______ _______ _____ _____    ______ ____

>  <TORSDO>
F 11

$$$$
=
 OpenBabel11062412563D

 50 54  0  0  1  0  0  0  0  0999 V2000
  189.7420  177.4280  141.3310 C   0  0  0  0  0  0  0  0  0  0  0  0
  190.9540  177.5350  141.0660 N   0  0  0  0  0  0  0  0  0  0  0  0
  190.5380  177.2180  138.6050 C   0  0  1  0  0  3  0  0  0  0  0  0
  189.2260  177.7390  142.5990 N   0  0  0  0  0  1  0  0  0  0  0  0
  188.7540  177.1710  140.2930 N   0  0  0  0  0  0  0  0  0  0  0  0
  189.0070  177.0970  139.0430 C   0  0  0  0  0  0  0  0  0  0  0  0
  191.5310  177.1600  139.7740 C   0  0  0  0  0  2  0  0  0  0  0  0
  187.9070  177.0210  138.0590 N   0  0  0  0  0  0  0  0  0  0  0  0
  184.4890  173.9380  136.1660 N   0  0  0  0  0  2  0  0  0  0  0  0
  185.7290  172.1280  135.3510 O   0  0  0  0  0  0  0  0  0  0  0  0
  186.9570  174.0840  135.9510 N   0  0  0  0  0  0  0  0  0  0  0  0
  187.4640  176.1900  134.6650 C   0  0  0  0  0  2  0  0  0  0  0  0
  185.7000  173.3570  135.8090 C   0  0  0  0  0  0  0  0  0  0  0  0
  187.4890  174.6380  134.6930 C   0  0  0  0  0  2  0  0  0  0  0  0
  187.1390  176.8200  135.8630 O   0  0  0  0  0  0  0  0  0  0  0  0
  187.8720  176.1180  136.9060 C   0  0  2  0  0  3  0  0  0  0  0  0
  187.2540  174.7930  137.1970 C   0  0  0  0  0  2  0  0  0  0  0  0
  183.0100  172.2010  137.0870 C   0  0  0  0  0  3  0  0  0  0  0  0
  181.7890  171.4990  137.1890 C   0  0  0  0  0  3  0  0  0  0  0  0
  179.1290  171.1530  136.4940 Cl  0  0  0  0  0  0  0  0  0  0  0  0
  180.8340  173.0510  135.6550 C   0  0  0  0  0  3  0  0  0  0  0  0
  182.0860  174.7790  134.6150 O   0  0  0  0  0  1  0  0  0  0  0  0
  182.0400  173.7510  135.5220 C   0  0  0  0  0  0  0  0  0  0  0  0
  183.1570  173.3210  136.3010 C   0  0  0  0  0  0  0  0  0  0  0  0
  180.6870  171.9590  136.4860 C   0  0  0  0  0  0  0  0  0  0  0  0
  190.9300  176.2100  137.6650 O   0  0  0  0  0  0  0  0  0  0  0  0
  191.2580  175.1640  138.3520 O   0  0  0  0  0  1  0  0  0  0  0  0
  186.6810  177.1110  138.6940 O   0  0  0  0  0  0  0  0  0  0  0  0
  186.3640  179.2530  137.6530 C   0  0  0  0  0  1  0  0  0  0  0  0
  186.2800  178.4430  138.9320 C   0  0  1  0  0  3  0  0  0  0  0  0
  184.8350  178.5620  139.2880 C   0  0  2  0  0  3  0  0  0  0  0  0
  183.5050  177.6440  141.0830 O   0  0  0  0  0  0  0  0  0  0  0  0
  184.5350  178.3420  140.7860 C   0  0  0  0  0  0  0  0  0  0  0  0
  185.5180  178.6680  141.8480 N   0  0  0  0  0  2  0  0  0  0  0  0
  184.9220  179.4760  143.9990 C   0  0  0  0  0  2  0  0  0  0  0  0
  185.2390  178.2540  143.1770 C   0  0  2  0  0  3  0  0  0  0  0  0
  186.1100  177.8250  145.3550 C   0  0  1  0  0  3  0  0  0  0  0  0
  185.1930  179.0010  145.4450 C   0  0  0  0  0  2  0  0  0  0  0  0
  186.4310  177.5900  143.9300 C   0  0  0  0  0  2  0  0  0  0  0  0
  188.4610  177.5000  146.0940 C   0  0  0  0  0  1  0  0  0  0  0  0
  187.1100  177.9140  146.4250 C   0  0  0  0  0  0  0  0  0  0  0  0
  186.7750  178.2060  147.5220 O   0  0  0  0  0  0  0  0  0  0  0  0
  183.6990  178.0910  138.3880 C   0  0  2  0  0  3  0  0  0  0  0  0
  184.0280  177.4440  137.1350 C   0  0  0  0  0  1  0  0  0  0  0  0
  182.6870  179.1000  138.0160 N   0  0  0  0  0  0  0  0  0  0  0  0
  182.3810  180.1330  139.0190 C   0  0  0  0  0  2  0  0  0  0  0  0
  180.5550  180.8530  137.4330 C   0  0  0  0  0  2  0  0  0  0  0  0
  180.7930  179.5930  136.6830 C   0  0  0  0  0  2  0  0  0  0  0  0
  181.7800  181.3290  138.1980 C   0  0  0  0  0  2  0  0  0  0  0  0
  181.4250  178.5270  137.5140 C   0  0  0  0  0  2  0  0  0  0  0  0
  1  4  1  0  0  0  0
  2  1  2  0  0  0  0
  3 26  1  6  0  0  0
  3  6  1  0  0  0  0
  3  7  1  0  0  0  0
  5  1  1  0  0  0  0
  6  5  2  0  0  0  0
  7  2  1  0  0  0  0
  8 28  1  0  0  0  0
  8  6  1  0  0  0  0
  9 24  1  0  0  0  0
 10 13  2  0  0  0  0
 11 17  1  0  0  0  0
 12 14  1  0  0  0  0
 12 15  1  0  0  0  0
 13 11  1  0  0  0  0
 13  9  1  0  0  0  0
 14 11  1  0  0  0  0
 15 16  1  0  0  0  0
 16 17  1  0  0  0  0
 16  8  1  1  0  0  0
 18 19  1  0  0  0  0
 21 25  1  0  0  0  0
 22 23  1  0  0  0  0
 23 21  2  0  0  0  0
 23 24  1  0  0  0  0
 24 18  2  0  0  0  0
 25 20  1  0  0  0  0
 25 19  2  0  0  0  0
 26 27  1  0  0  0  0
 28 30  1  0  0  0  0
 30 29  1  6  0  0  0
 30 31  1  0  0  0  0
 31 33  1  1  0  0  0
 33 32  2  0  0  0  0
 33 34  1  0  0  0  0
 35 38  1  0  0  0  0
 36 34  1  6  0  0  0
 36 39  1  0  0  0  0
 36 35  1  0  0  0  0
 37 38  1  0  0  0  0
 37 41  1  1  0  0  0
 39 37  1  0  0  0  0
 40 41  1  0  0  0  0
 41 42  2  0  0  0  0
 43 44  1  6  0  0  0
 43 31  1  0  0  0  0
 45 43  1  0  0  0  0
 45 46  1  0  0  0  0
 47 49  1  0  0  0  0
 48 47  1  0  0  0  0
 48 50  1  0  0  0  0
 49 46  1  0  0  0  0
 50 45  1  0  0  0  0
M  END
>  <MODEL>
7

>  <REMARK>
 VINA RESULT:      -7.2      3.200      8.345
  Name = 
  11 active torsions:
  status: ('A' for Active; 'I' for Inactive)
    1  A    between atoms: N_1  and  C_42
    2  A    between atoms: O_2  and  C_18
    3  A    between atoms: C_10  and  C_31
    4  A    between atoms: N_11  and  C_14
    5  A    between atoms: C_14  and  C_44
    6  A    between atoms: O_17  and  C_49
    7  A    between atoms: O_17  and  N_50
    8  A    between atoms: C_24  and  N_40
    9  A    between atoms: C_25  and  C_44
   10  A    between atoms: C_44  and  C_49
   11  A    between atoms: C_46  and  N_50
                            x       y       z     vdW  Elec       q    Type
                         _______ _______ _______ _____ _____    ______ ____

>  <TORSDO>
F 11

$$$$
=
 OpenBabel11062412563D

 50 54  0  0  1  0  0  0  0  0999 V2000
  180.1050  179.3700  141.9360 C   0  0  0  0  0  0  0  0  0  0  0  0
  179.1310  178.6010  142.0380 N   0  0  0  0  0  0  0  0  0  0  0  0
  180.2280  176.8680  140.5790 C   0  0  1  0  0  3  0  0  0  0  0  0
  180.2400  180.5130  142.7390 N   0  0  0  0  0  1  0  0  0  0  0  0
  181.2660  179.0280  141.1250 N   0  0  0  0  0  0  0  0  0  0  0  0
  181.4290  177.9190  140.5110 C   0  0  0  0  0  0  0  0  0  0  0  0
  178.9320  177.4360  141.1730 C   0  0  0  0  0  2  0  0  0  0  0  0
  182.7230  177.6010  139.8730 N   0  0  0  0  0  0  0  0  0  0  0  0
  186.6370  176.1780  137.1460 N   0  0  0  0  0  2  0  0  0  0  0  0
  186.0260  176.6880  134.9460 O   0  0  0  0  0  0  0  0  0  0  0  0
  184.2930  176.7690  136.5840 N   0  0  0  0  0  0  0  0  0  0  0  0
  182.8250  174.9600  137.5440 C   0  0  0  0  0  2  0  0  0  0  0  0
  185.6820  176.5360  136.2030 C   0  0  0  0  0  0  0  0  0  0  0  0
  183.3780  175.6560  136.2710 C   0  0  0  0  0  2  0  0  0  0  0  0
  183.1040  175.5860  138.7550 O   0  0  0  0  0  0  0  0  0  0  0  0
  182.8800  177.0080  138.5420 C   0  0  2  0  0  3  0  0  0  0  0  0
  183.9840  177.6100  137.7410 C   0  0  0  0  0  2  0  0  0  0  0  0
  188.7140  174.8730  136.9750 C   0  0  0  0  0  3  0  0  0  0  0  0
  190.1180  174.7200  136.9480 C   0  0  0  0  0  3  0  0  0  0  0  0
  192.6710  175.7960  136.9610 Cl  0  0  0  0  0  0  0  0  0  0  0  0
  190.3200  177.0920  137.0410 C   0  0  0  0  0  3  0  0  0  0  0  0
  188.4520  178.5410  137.2490 O   0  0  0  0  0  1  0  0  0  0  0  0
  188.9310  177.2660  137.0880 C   0  0  0  0  0  0  0  0  0  0  0  0
  188.1040  176.1050  137.0160 C   0  0  0  0  0  0  0  0  0  0  0  0
  190.9180  175.8510  136.9480 C   0  0  0  0  0  0  0  0  0  0  0  0
  179.9010  176.3120  139.3000 O   0  0  0  0  0  0  0  0  0  0  0  0
  179.8190  175.0310  139.4600 O   0  0  0  0  0  1  0  0  0  0  0  0
  183.6440  178.6050  140.1140 O   0  0  0  0  0  0  0  0  0  0  0  0
  186.0020  178.6450  139.6550 C   0  0  0  0  0  1  0  0  0  0  0  0
  184.8950  178.1150  140.5450 C   0  0  1  0  0  3  0  0  0  0  0  0
  185.2920  178.6330  141.8870 C   0  0  2  0  0  3  0  0  0  0  0  0
  187.2250  179.9830  142.4160 O   0  0  0  0  0  0  0  0  0  0  0  0
  186.8140  178.8240  142.0640 C   0  0  0  0  0  0  0  0  0  0  0  0
  187.7580  177.6800  142.1050 N   0  0  0  0  0  2  0  0  0  0  0  0
  189.9920  177.0130  141.6610 C   0  0  0  0  0  2  0  0  0  0  0  0
  189.1070  177.9310  142.4650 C   0  0  2  0  0  3  0  0  0  0  0  0
  190.9290  177.3550  143.8930 C   0  0  1  0  0  3  0  0  0  0  0  0
  191.2920  176.9630  142.4980 C   0  0  0  0  0  2  0  0  0  0  0  0
  189.4720  177.6060  143.9450 C   0  0  0  0  0  2  0  0  0  0  0  0
  192.0530  175.1880  144.3570 C   0  0  0  0  0  1  0  0  0  0  0  0
  191.6560  176.4980  144.8370 C   0  0  0  0  0  0  0  0  0  0  0  0
  191.7960  176.8450  145.9600 O   0  0  0  0  0  0  0  0  0  0  0  0
  184.5980  178.2420  143.1870 C   0  0  2  0  0  3  0  0  0  0  0  0
  183.3700  178.9190  143.5480 C   0  0  0  0  0  1  0  0  0  0  0  0
  185.4130  178.2990  144.4170 N   0  0  0  0  0  0  0  0  0  0  0  0
  186.0680  177.0490  144.8340 C   0  0  0  0  0  2  0  0  0  0  0  0
  186.7290  178.3210  146.9120 C   0  0  0  0  0  2  0  0  0  0  0  0
  185.7820  179.3840  146.4880 C   0  0  0  0  0  2  0  0  0  0  0  0
  187.2640  177.5040  145.7460 C   0  0  0  0  0  2  0  0  0  0  0  0
  184.7140  178.8870  145.5730 C   0  0  0  0  0  2  0  0  0  0  0  0
  1  2  2  0  0  0  0
  1  4  1  0  0  0  0
  3 26  1  6  0  0  0
  3  7  1  0  0  0  0
  5  1  1  0  0  0  0
  6  3  1  0  0  0  0
  6  5  2  0  0  0  0
  7  2  1  0  0  0  0
  8 28  1  0  0  0  0
  8  6  1  0  0  0  0
 10 13  2  0  0  0  0
 11 17  1  0  0  0  0
 12 15  1  0  0  0  0
 13 11  1  0  0  0  0
 13  9  1  0  0  0  0
 14 11  1  0  0  0  0
 14 12  1  0  0  0  0
 16 15  1  0  0  0  0
 16  8  1  1  0  0  0
 17 16  1  0  0  0  0
 18 24  1  0  0  0  0
 19 25  1  0  0  0  0
 19 18  2  0  0  0  0
 21 23  1  0  0  0  0
 23 22  1  0  0  0  0
 24 23  2  0  0  0  0
 24  9  1  0  0  0  0
 25 20  1  0  0  0  0
 25 21  2  0  0  0  0
 26 27  1  0  0  0  0
 28 30  1  0  0  0  0
 30 29  1  6  0  0  0
 30 31  1  0  0  0  0
 31 33  1  1  0  0  0
 31 43  1  0  0  0  0
 33 34  1  0  0  0  0
 33 32  2  0  0  0  0
 35 36  1  0  0  0  0
 35 38  1  0  0  0  0
 36 34  1  1  0  0  0
 36 39  1  0  0  0  0
 37 39  1  0  0  0  0
 37 41  1  1  0  0  0
 38 37  1  0  0  0  0
 40 41  1  0  0  0  0
 41 42  2  0  0  0  0
 43 44  1  1  0  0  0
 43 45  1  0  0  0  0
 45 46  1  0  0  0  0
 45 50  1  0  0  0  0
 46 49  1  0  0  0  0
 48 47  1  0  0  0  0
 49 47  1  0  0  0  0
 50 48  1  0  0  0  0
M  END
>  <MODEL>
8

>  <REMARK>
 VINA RESULT:      -7.1      2.705      7.240
  Name = 
  11 active torsions:
  status: ('A' for Active; 'I' for Inactive)
    1  A    between atoms: N_1  and  C_42
    2  A    between atoms: O_2  and  C_18
    3  A    between atoms: C_10  and  C_31
    4  A    between atoms: N_11  and  C_14
    5  A    between atoms: C_14  and  C_44
    6  A    between atoms: O_17  and  C_49
    7  A    between atoms: O_17  and  N_50
    8  A    between atoms: C_24  and  N_40
    9  A    between atoms: C_25  and  C_44
   10  A    between atoms: C_44  and  C_49
   11  A    between atoms: C_46  and  N_50
                            x       y       z     vdW  Elec       q    Type
                         _______ _______ _______ _____ _____    ______ ____

>  <TORSDO>
F 11

$$$$
=
 OpenBabel11062412563D

 50 54  0  0  1  0  0  0  0  0999 V2000
  190.8200  177.4880  142.3220 C   0  0  0  0  0  0  0  0  0  0  0  0
  189.8730  177.9710  142.9690 N   0  0  0  0  0  0  0  0  0  0  0  0
  188.2740  177.6370  141.0560 C   0  0  1  0  0  3  0  0  0  0  0  0
  192.0460  177.1640  142.9240 N   0  0  0  0  0  1  0  0  0  0  0  0
  190.6540  177.0380  140.9470 N   0  0  0  0  0  0  0  0  0  0  0  0
  189.5470  177.0310  140.3070 C   0  0  0  0  0  0  0  0  0  0  0  0
  188.6050  178.3770  142.3600 C   0  0  0  0  0  2  0  0  0  0  0  0
  189.4520  176.3810  138.9840 N   0  0  0  0  0  0  0  0  0  0  0  0
  184.8150  177.9660  138.1170 N   0  0  0  0  0  2  0  0  0  0  0  0
  184.4010  177.3570  135.8950 O   0  0  0  0  0  0  0  0  0  0  0  0
  186.6630  177.2150  136.6400 N   0  0  0  0  0  0  0  0  0  0  0  0
  188.4790  178.9550  136.7860 C   0  0  0  0  0  2  0  0  0  0  0  0
  185.2560  177.5230  136.8760 C   0  0  0  0  0  0  0  0  0  0  0  0
  187.4040  178.2590  135.9090 C   0  0  0  0  0  2  0  0  0  0  0  0
  188.7190  178.3830  138.0320 O   0  0  0  0  0  0  0  0  0  0  0  0
  188.7670  176.9440  137.8190 C   0  0  2  0  0  3  0  0  0  0  0  0
  187.4000  176.3890  137.5980 C   0  0  0  0  0  2  0  0  0  0  0  0
  182.9550  179.3920  138.8630 C   0  0  0  0  0  3  0  0  0  0  0  0
  181.6850  179.6230  139.4350 C   0  0  0  0  0  3  0  0  0  0  0  0
  179.3060  178.6920  140.5080 Cl  0  0  0  0  0  0  0  0  0  0  0  0
  181.3760  177.2650  139.5630 C   0  0  0  0  0  3  0  0  0  0  0  0
  183.0520  175.7060  138.9370 O   0  0  0  0  0  1  0  0  0  0  0  0
  182.6400  177.0120  139.0160 C   0  0  0  0  0  0  0  0  0  0  0  0
  183.4390  178.1270  138.6210 C   0  0  0  0  0  0  0  0  0  0  0  0
  180.8830  178.5400  139.7540 C   0  0  0  0  0  0  0  0  0  0  0  0
  187.5220  178.5400  140.2350 O   0  0  0  0  0  0  0  0  0  0  0  0
  186.4390  178.8210  140.8840 O   0  0  0  0  0  1  0  0  0  0  0  0
  190.6540  175.7820  138.6500 O   0  0  0  0  0  0  0  0  0  0  0  0
  192.3840  176.3390  137.0780 C   0  0  0  0  0  1  0  0  0  0  0  0
  190.9540  175.8760  137.2740 C   0  0  1  0  0  3  0  0  0  0  0  0
  190.9520  174.5520  136.5850 C   0  0  2  0  0  3  0  0  0  0  0  0
  192.6600  173.2210  135.5150 O   0  0  0  0  0  0  0  0  0  0  0  0
  192.3220  173.8420  136.5800 C   0  0  0  0  0  0  0  0  0  0  0  0
  193.3420  174.0800  137.6320 N   0  0  0  0  0  2  0  0  0  0  0  0
  195.4260  173.7410  138.7170 C   0  0  0  0  0  2  0  0  0  0  0  0
  194.6420  173.5400  137.4460 C   0  0  2  0  0  3  0  0  0  0  0  0
  196.8920  173.9510  136.7730 C   0  0  1  0  0  3  0  0  0  0  0  0
  196.8930  173.6550  138.2370 C   0  0  0  0  0  2  0  0  0  0  0  0
  195.5040  174.2440  136.3560 C   0  0  0  0  0  2  0  0  0  0  0  0
  198.0790  175.3910  135.1320 C   0  0  0  0  0  1  0  0  0  0  0  0
  198.0490  174.7970  136.4550 C   0  0  0  0  0  0  0  0  0  0  0  0
  198.9480  174.8780  137.2200 O   0  0  0  0  0  0  0  0  0  0  0  0
  190.1310  174.2470  135.3380 C   0  0  2  0  0  3  0  0  0  0  0  0
  189.4780  175.3420  134.6510 C   0  0  0  0  0  1  0  0  0  0  0  0
  189.0710  173.2270  135.4750 N   0  0  0  0  0  0  0  0  0  0  0  0
  188.5300  173.0130  136.8270 C   0  0  0  0  0  2  0  0  0  0  0  0
  187.2630  171.0870  135.8000 C   0  0  0  0  0  2  0  0  0  0  0  0
  188.1150  171.2490  134.5940 C   0  0  0  0  0  2  0  0  0  0  0  0
  187.1140  172.3730  136.5980 C   0  0  0  0  0  2  0  0  0  0  0  0
  189.4140  171.9230  134.8810 C   0  0  0  0  0  2  0  0  0  0  0  0
  1  4  1  0  0  0  0
  1  2  2  0  0  0  0
  3 26  1  6  0  0  0
  3  7  1  0  0  0  0
  5  1  1  0  0  0  0
  6  5  2  0  0  0  0
  6  3  1  0  0  0  0
  7  2  1  0  0  0  0
  8  6  1  0  0  0  0
  9 24  1  0  0  0  0
 10 13  2  0  0  0  0
 11 13  1  0  0  0  0
 11 17  1  0  0  0  0
 12 15  1  0  0  0  0
 13  9  1  0  0  0  0
 14 11  1  0  0  0  0
 14 12  1  0  0  0  0
 16 15  1  0  0  0  0
 16  8  1  1  0  0  0
 17 16  1  0  0  0  0
 18 19  1  0  0  0  0
 19 25  2  0  0  0  0
 21 25  1  0  0  0  0
 22 23  1  0  0  0  0
 23 21  2  0  0  0  0
 24 18  2  0  0  0  0
 24 23  1  0  0  0  0
 25 20  1  0  0  0  0
 26 27  1  0  0  0  0
 28  8  1  0  0  0  0
 30 29  1  1  0  0  0
 30 28  1  0  0  0  0
 31 33  1  6  0  0  0
 31 30  1  0  0  0  0
 32 33  2  0  0  0  0
 33 34  1  0  0  0  0
 36 34  1  1  0  0  0
 36 35  1  0  0  0  0
 37 41  1  1  0  0  0
 37 38  1  0  0  0  0
 38 35  1  0  0  0  0
 39 37  1  0  0  0  0
 39 36  1  0  0  0  0
 40 41  1  0  0  0  0
 41 42  2  0  0  0  0
 43 44  1  1  0  0  0
 43 45  1  0  0  0  0
 43 31  1  0  0  0  0
 45 46  1  0  0  0  0
 47 49  1  0  0  0  0
 48 50  1  0  0  0  0
 48 47  1  0  0  0  0
 49 46  1  0  0  0  0
 50 45  1  0  0  0  0
M  END
>  <MODEL>
9

>  <REMARK>
 VINA RESULT:      -7.1      3.355      6.765
  Name = 
  11 active torsions:
  status: ('A' for Active; 'I' for Inactive)
    1  A    between atoms: N_1  and  C_42
    2  A    between atoms: O_2  and  C_18
    3  A    between atoms: C_10  and  C_31
    4  A    between atoms: N_11  and  C_14
    5  A    between atoms: C_14  and  C_44
    6  A    between atoms: O_17  and  C_49
    7  A    between atoms: O_17  and  N_50
    8  A    between atoms: C_24  and  N_40
    9  A    between atoms: C_25  and  C_44
   10  A    between atoms: C_44  and  C_49
   11  A    between atoms: C_46  and  N_50
                            x       y       z     vdW  Elec       q    Type
                         _______ _______ _______ _____ _____    ______ ____

>  <TORSDO>
F 11

$$$$
