=
 OpenBabel11062417123D

 36 42  0  0  1  0  0  0  0  0999 V2000
  181.6090  179.4790  139.4850 C   0  0  1  0  0  3  0  0  0  0  0  0
  180.1930  181.4050  139.3130 C   0  0  0  0  0  0  0  0  0  0  0  0
  181.0420  180.5170  138.7430 C   0  0  0  0  0  0  0  0  0  0  0  0
  179.8550  181.3320  140.6190 N   0  0  0  0  0  0  0  0  0  0  0  0
  180.3720  180.3500  141.3680 N   0  0  0  0  0  0  0  0  0  0  0  0
  180.3370  181.9830  137.2640 N   0  0  0  0  0  0  0  0  0  0  0  0
  181.1300  180.8890  137.4190 C   0  0  0  0  0  3  0  0  0  0  0  0
  181.2320  179.4110  140.8510 C   0  0  0  0  0  0  0  0  0  0  0  0
  179.7610  182.3020  138.4200 N   0  0  0  0  0  0  0  0  0  0  0  0
  184.2570  176.6610  137.6450 C   0  0  0  0  0  3  0  0  0  0  0  0
  184.7730  177.8870  138.0810 C   0  0  0  0  0  0  0  0  0  0  0  0
  182.5450  178.5130  138.8640 C   0  0  0  0  0  0  0  0  0  0  0  0
  182.9100  176.3510  137.8250 C   0  0  0  0  0  3  0  0  0  0  0  0
  182.0590  177.2720  138.4350 C   0  0  0  0  0  3  0  0  0  0  0  0
  183.9060  178.8290  138.6760 C   0  0  0  0  0  0  0  0  0  0  0  0
  184.3850  180.0770  139.0640 O   0  0  0  0  0  1  0  0  0  0  0  0
  189.4230  178.4470  139.0840 N   0  0  0  0  0  0  0  0  0  0  0  0
  188.3500  178.4120  136.9160 C   0  0  0  0  0  3  0  0  0  0  0  0
  187.2920  178.1240  140.4440 S   0  0  0  0  0  0  0  0  0  0  0  0
  188.9890  178.3210  140.3690 C   0  0  0  0  0  3  0  0  0  0  0  0
  188.3700  178.3850  138.2360 C   0  0  1  0  0  3  0  0  0  0  0  0
  186.8950  178.2440  136.5250 C   0  0  0  0  0  3  0  0  0  0  0  0
  187.1570  178.2350  138.7790 C   0  0  0  0  0  0  0  0  0  0  0  0
  186.2080  178.1560  137.8670 C   0  0  0  0  0  0  0  0  0  0  0  0
  181.7890  178.3610  141.7620 C   0  0  0  0  0  2  0  0  0  0  0  0
  182.3790  178.9720  143.0270 C   0  0  0  0  0  2  0  0  0  0  0  0
  183.9020  178.9520  142.9970 C   0  0  2  0  0  3  0  0  0  0  0  0
  184.3560  177.9000  142.1980 O   0  0  0  0  0  1  0  0  0  0  0  0
  187.5360  177.6200  145.3490 C   0  0  0  0  0  3  0  0  0  0  0  0
  184.5010  178.7450  146.5440 O   0  0  0  0  0  0  0  0  0  0  0  0
  183.7270  179.0460  145.5240 N   0  0  0  0  0  0  0  0  0  0  0  0
  185.6510  178.3270  146.0840 C   0  0  0  0  0  0  0  0  0  0  0  0
  186.8500  177.8680  146.5650 C   0  0  0  0  0  3  0  0  0  0  0  0
  184.4350  178.8090  144.3830 C   0  0  0  0  0  0  0  0  0  0  0  0
  186.7830  177.9180  144.2890 O   0  0  0  0  0  0  0  0  0  0  0  0
  185.6590  178.3410  144.7820 C   0  0  0  0  0  0  0  0  0  0  0  0
  1 12  1  6  0  0  0
  1  8  1  0  0  0  0
  2  4  2  0  0  0  0
  3  2  1  0  0  0  0
  3  1  1  0  0  0  0
  4  5  1  0  0  0  0
  6  7  1  0  0  0  0
  6  9  2  0  0  0  0
  7  3  2  0  0  0  0
  8  5  2  0  0  0  0
  8 25  1  0  0  0  0
  9  2  1  0  0  0  0
 10 13  2  0  0  0  0
 10 11  1  0  0  0  0
 11 15  2  0  0  0  0
 13 14  1  0  0  0  0
 14 12  2  0  0  0  0
 15 12  1  0  0  0  0
 15 16  1  0  0  0  0
 17 20  2  0  0  0  0
 20 19  1  0  0  0  0
 21 18  1  6  0  0  0
 21 23  1  0  0  0  0
 21 17  1  0  0  0  0
 22 18  2  0  0  0  0
 22 24  1  0  0  0  0
 23 19  1  0  0  0  0
 24 11  1  0  0  0  0
 24 23  2  0  0  0  0
 25 26  1  0  0  0  0
 27 28  1  6  0  0  0
 27 26  1  0  0  0  0
 27 34  1  0  0  0  0
 29 33  2  0  0  0  0
 31 30  1  0  0  0  0
 32 30  1  0  0  0  0
 32 33  1  0  0  0  0
 34 36  1  0  0  0  0
 34 31  2  0  0  0  0
 35 36  1  0  0  0  0
 35 29  1  0  0  0  0
 36 32  2  0  0  0  0
M  END
>  <MODEL>
1

>  <REMARK>
 VINA RESULT:      -8.8      0.000      0.000
  Name = 
  6 active torsions:
  status: ('A' for Active; 'I' for Inactive)
    1  A    between atoms: C_2  and  C_15
    2  A    between atoms: C_4  and  C_17
    3  A    between atoms: C_4  and  C_28
    4  A    between atoms: C_10  and  C_32
    5  A    between atoms: C_17  and  C_24
    6  A    between atoms: C_24  and  C_34
                            x       y       z     vdW  Elec       q    Type
                         _______ _______ _______ _____ _____    ______ ____

>  <TORSDO>
F 6

$$$$
=
 OpenBabel11062417123D

 36 42  0  0  1  0  0  0  0  0999 V2000
  185.3290  178.5110  139.7130 C   0  0  1  0  0  3  0  0  0  0  0  0
  187.5780  178.1630  138.9620 C   0  0  0  0  0  0  0  0  0  0  0  0
  186.2450  178.1480  138.7240 C   0  0  0  0  0  0  0  0  0  0  0  0
  188.0850  178.5270  140.1610 N   0  0  0  0  0  0  0  0  0  0  0  0
  187.2430  178.8850  141.1380 N   0  0  0  0  0  0  0  0  0  0  0  0
  187.3640  177.5440  136.9310 N   0  0  0  0  0  0  0  0  0  0  0  0
  186.1100  177.7530  137.4110 C   0  0  0  0  0  3  0  0  0  0  0  0
  185.8810  178.9020  140.9610 C   0  0  0  0  0  0  0  0  0  0  0  0
  188.2670  177.7950  137.8760 N   0  0  0  0  0  0  0  0  0  0  0  0
  181.1030  178.3910  139.0280 C   0  0  0  0  0  3  0  0  0  0  0  0
  181.7980  179.5730  138.7520 C   0  0  0  0  0  0  0  0  0  0  0  0
  183.8700  178.4860  139.4560 C   0  0  0  0  0  0  0  0  0  0  0  0
  181.7750  177.2630  139.4970 C   0  0  0  0  0  3  0  0  0  0  0  0
  183.1530  177.3110  139.7060 C   0  0  0  0  0  3  0  0  0  0  0  0
  183.1890  179.6290  138.9880 C   0  0  0  0  0  0  0  0  0  0  0  0
  183.8910  180.8130  138.7760 O   0  0  0  0  0  1  0  0  0  0  0  0
  179.3770  182.3670  135.7060 N   0  0  0  0  0  0  0  0  0  0  0  0
  179.6740  182.6520  138.0900 C   0  0  0  0  0  3  0  0  0  0  0  0
  180.7490  180.2270  135.5180 S   0  0  0  0  0  0  0  0  0  0  0  0
  179.7840  181.4400  134.7950 C   0  0  0  0  0  3  0  0  0  0  0  0
  179.8670  182.0550  136.9290 C   0  0  0  0  0  0  0  0  0  0  0  0
  180.4240  181.8180  139.1100 C   0  0  0  0  0  2  0  0  0  0  0  0
  180.6330  180.9620  137.0180 C   0  0  0  0  0  0  0  0  0  0  0  0
  181.0330  180.7320  138.2530 C   0  0  0  0  0  0  0  0  0  0  0  0
  185.0050  179.2890  142.1130 C   0  0  0  0  0  2  0  0  0  0  0  0
  184.7810  178.1200  143.0640 C   0  0  0  0  0  2  0  0  0  0  0  0
  184.2220  178.5890  144.4000 C   0  0  2  0  0  3  0  0  0  0  0  0
  183.7640  179.9040  144.2980 O   0  0  0  0  0  1  0  0  0  0  0  0
  188.4810  177.2370  145.1370 C   0  0  0  0  0  3  0  0  0  0  0  0
  186.2210  178.5370  147.3970 O   0  0  0  0  0  0  0  0  0  0  0  0
  185.1020  178.8160  146.7660 N   0  0  0  0  0  0  0  0  0  0  0  0
  187.0760  178.0520  146.5330 C   0  0  0  0  0  0  0  0  0  0  0  0
  188.3580  177.5710  146.5090 C   0  0  0  0  0  3  0  0  0  0  0  0
  185.2750  178.4950  145.4530 C   0  0  0  0  0  0  0  0  0  0  0  0
  187.3640  177.5100  144.4610 O   0  0  0  0  0  0  0  0  0  0  0  0
  186.5480  178.0000  145.3440 C   0  0  0  0  0  0  0  0  0  0  0  0
  1 12  1  6  0  0  0
  1  8  1  0  0  0  0
  2  4  2  0  0  0  0
  3  2  1  0  0  0  0
  3  1  1  0  0  0  0
  4  5  1  0  0  0  0
  6  7  1  0  0  0  0
  6  9  2  0  0  0  0
  7  3  2  0  0  0  0
  8  5  2  0  0  0  0
  8 25  1  0  0  0  0
  9  2  1  0  0  0  0
 10 13  1  0  0  0  0
 11 15  1  0  0  0  0
 11 10  2  0  0  0  0
 12 14  1  0  0  0  0
 13 14  2  0  0  0  0
 15 12  2  0  0  0  0
 16 15  1  0  0  0  0
 17 21  1  0  0  0  0
 18 22  1  0  0  0  0
 19 23  1  0  0  0  0
 20 19  1  0  0  0  0
 20 17  2  0  0  0  0
 21 23  1  0  0  0  0
 21 18  2  0  0  0  0
 23 24  2  0  0  0  0
 24 11  1  0  0  0  0
 24 22  1  0  0  0  0
 25 26  1  0  0  0  0
 26 27  1  0  0  0  0
 27 28  1  6  0  0  0
 27 34  1  0  0  0  0
 29 33  2  0  0  0  0
 31 30  1  0  0  0  0
 32 30  1  0  0  0  0
 33 32  1  0  0  0  0
 34 31  2  0  0  0  0
 35 29  1  0  0  0  0
 35 36  1  0  0  0  0
 36 34  1  0  0  0  0
 36 32  2  0  0  0  0
M  END
>  <MODEL>
2

>  <REMARK>
 VINA RESULT:      -8.5      2.440      5.764
  Name = 
  6 active torsions:
  status: ('A' for Active; 'I' for Inactive)
    1  A    between atoms: C_2  and  C_15
    2  A    between atoms: C_4  and  C_17
    3  A    between atoms: C_4  and  C_28
    4  A    between atoms: C_10  and  C_32
    5  A    between atoms: C_17  and  C_24
    6  A    between atoms: C_24  and  C_34
                            x       y       z     vdW  Elec       q    Type
                         _______ _______ _______ _____ _____    ______ ____

>  <TORSDO>
F 6

$$$$
=
 OpenBabel11062417123D

 36 42  0  0  1  0  0  0  0  0999 V2000
  182.1080  178.5850  140.8710 C   0  0  1  0  0  3  0  0  0  0  0  0
  180.2330  179.9590  141.4540 C   0  0  0  0  0  0  0  0  0  0  0  0
  180.8860  179.1830  140.5570 C   0  0  0  0  0  0  0  0  0  0  0  0
  180.7280  180.1940  142.6900 N   0  0  0  0  0  0  0  0  0  0  0  0
  181.8960  179.6390  143.0350 N   0  0  0  0  0  0  0  0  0  0  0  0
  178.9930  179.9220  139.7170 N   0  0  0  0  0  0  0  0  0  0  0  0
  180.0810  179.1570  139.4380 C   0  0  0  0  0  3  0  0  0  0  0  0
  182.6050  178.8330  142.1770 C   0  0  0  0  0  0  0  0  0  0  0  0
  179.0810  180.4150  140.9500 N   0  0  0  0  0  0  0  0  0  0  0  0
  184.1200  176.1190  138.0060 C   0  0  0  0  0  3  0  0  0  0  0  0
  184.6170  177.4030  138.2590 C   0  0  0  0  0  0  0  0  0  0  0  0
  182.8270  177.7430  139.8870 C   0  0  0  0  0  0  0  0  0  0  0  0
  183.0040  175.6410  138.6900 C   0  0  0  0  0  3  0  0  0  0  0  0
  182.3630  176.4490  139.6290 C   0  0  0  0  0  3  0  0  0  0  0  0
  183.9530  178.2300  139.1910 C   0  0  0  0  0  0  0  0  0  0  0  0
  184.3930  179.5320  139.4150 O   0  0  0  0  0  1  0  0  0  0  0  0
  189.1570  178.6570  137.3900 N   0  0  0  0  0  0  0  0  0  0  0  0
  187.3600  178.3390  135.8030 C   0  0  0  0  0  3  0  0  0  0  0  0
  187.7780  178.1300  139.4680 S   0  0  0  0  0  0  0  0  0  0  0  0
  189.2690  178.5530  138.7440 C   0  0  0  0  0  3  0  0  0  0  0  0
  187.8830  178.3980  137.0130 C   0  0  1  0  0  3  0  0  0  0  0  0
  185.9080  177.9490  136.0030 C   0  0  0  0  0  3  0  0  0  0  0  0
  187.0060  178.1170  137.9830 C   0  0  0  0  0  0  0  0  0  0  0  0
  185.8040  177.8520  137.5070 C   0  0  0  0  0  0  0  0  0  0  0  0
  183.9180  178.2720  142.6300 C   0  0  0  0  0  2  0  0  0  0  0  0
  184.5360  179.1160  143.7380 C   0  0  0  0  0  2  0  0  0  0  0  0
  184.7060  178.3130  145.0200 C   0  0  2  0  0  3  0  0  0  0  0  0
  184.1500  179.0030  146.1000 O   0  0  0  0  0  1  0  0  0  0  0  0
  188.4450  176.5930  143.1310 C   0  0  0  0  0  3  0  0  0  0  0  0
  188.0390  177.8640  146.3130 O   0  0  0  0  0  0  0  0  0  0  0  0
  186.7980  178.2770  146.4510 N   0  0  0  0  0  0  0  0  0  0  0  0
  188.1880  177.3910  145.1020 C   0  0  0  0  0  0  0  0  0  0  0  0
  189.1660  176.8210  144.3300 C   0  0  0  0  0  3  0  0  0  0  0  0
  186.1540  178.0540  145.2690 C   0  0  0  0  0  0  0  0  0  0  0  0
  187.1800  177.0040  143.2300 O   0  0  0  0  0  0  0  0  0  0  0  0
  187.0730  177.4780  144.4340 C   0  0  0  0  0  0  0  0  0  0  0  0
  1 12  1  1  0  0  0
  1  8  1  0  0  0  0
  2  4  2  0  0  0  0
  3  1  1  0  0  0  0
  3  2  1  0  0  0  0
  4  5  1  0  0  0  0
  6  9  2  0  0  0  0
  7  6  1  0  0  0  0
  7  3  2  0  0  0  0
  8 25  1  0  0  0  0
  8  5  2  0  0  0  0
  9  2  1  0  0  0  0
 10 11  2  0  0  0  0
 10 13  1  0  0  0  0
 11 15  1  0  0  0  0
 13 14  2  0  0  0  0
 14 12  1  0  0  0  0
 15 16  1  0  0  0  0
 15 12  2  0  0  0  0
 17 20  2  0  0  0  0
 18 22  2  0  0  0  0
 20 19  1  0  0  0  0
 21 18  1  6  0  0  0
 21 17  1  0  0  0  0
 21 23  1  0  0  0  0
 22 24  1  0  0  0  0
 23 19  1  0  0  0  0
 24 23  2  0  0  0  0
 24 11  1  0  0  0  0
 25 26  1  0  0  0  0
 26 27  1  0  0  0  0
 27 34  1  0  0  0  0
 27 28  1  1  0  0  0
 29 35  1  0  0  0  0
 29 33  2  0  0  0  0
 30 31  1  0  0  0  0
 32 30  1  0  0  0  0
 33 32  1  0  0  0  0
 34 31  2  0  0  0  0
 35 36  1  0  0  0  0
 36 32  2  0  0  0  0
 36 34  1  0  0  0  0
M  END
>  <MODEL>
3

>  <REMARK>
 VINA RESULT:      -8.4      1.567      2.197
  Name = 
  6 active torsions:
  status: ('A' for Active; 'I' for Inactive)
    1  A    between atoms: C_2  and  C_15
    2  A    between atoms: C_4  and  C_17
    3  A    between atoms: C_4  and  C_28
    4  A    between atoms: C_10  and  C_32
    5  A    between atoms: C_17  and  C_24
    6  A    between atoms: C_24  and  C_34
                            x       y       z     vdW  Elec       q    Type
                         _______ _______ _______ _____ _____    ______ ____

>  <TORSDO>
F 6

$$$$
=
 OpenBabel11062417123D

 36 42  0  0  1  0  0  0  0  0999 V2000
  182.4300  178.2950  140.9590 C   0  0  1  0  0  3  0  0  0  0  0  0
  180.6080  179.6040  141.8010 C   0  0  0  0  0  0  0  0  0  0  0  0
  181.1680  178.8710  140.8090 C   0  0  0  0  0  0  0  0  0  0  0  0
  181.2390  179.8140  142.9770 N   0  0  0  0  0  0  0  0  0  0  0  0
  182.4510  179.2780  143.1660 N   0  0  0  0  0  0  0  0  0  0  0  0
  179.1750  179.5880  140.2190 N   0  0  0  0  0  0  0  0  0  0  0  0
  180.2380  178.8580  139.7910 C   0  0  0  0  0  3  0  0  0  0  0  0
  183.0720  178.5160  142.2060 C   0  0  0  0  0  0  0  0  0  0  0  0
  179.3950  180.0460  141.4490 N   0  0  0  0  0  0  0  0  0  0  0  0
  184.1450  175.9670  137.8000 C   0  0  0  0  0  3  0  0  0  0  0  0
  184.6690  177.2380  138.0630 C   0  0  0  0  0  0  0  0  0  0  0  0
  183.0470  177.5000  139.8710 C   0  0  0  0  0  0  0  0  0  0  0  0
  183.0980  175.4570  138.5650 C   0  0  0  0  0  3  0  0  0  0  0  0
  182.5550  176.2190  139.5990 C   0  0  0  0  0  3  0  0  0  0  0  0
  184.1020  178.0200  139.0930 C   0  0  0  0  0  0  0  0  0  0  0  0
  184.5680  179.3100  139.3340 O   0  0  0  0  0  1  0  0  0  0  0  0
  189.0850  178.6380  136.8460 N   0  0  0  0  0  0  0  0  0  0  0  0
  187.1830  178.2530  135.4020 C   0  0  0  0  0  3  0  0  0  0  0  0
  187.8880  178.0760  139.0250 S   0  0  0  0  0  0  0  0  0  0  0  0
  189.3030  178.5440  138.1870 C   0  0  0  0  0  3  0  0  0  0  0  0
  187.7950  178.3350  136.5680 C   0  0  1  0  0  3  0  0  0  0  0  0
  185.7650  177.8160  135.7140 C   0  0  0  0  0  3  0  0  0  0  0  0
  187.0050  178.0300  137.6030 C   0  0  0  0  0  0  0  0  0  0  0  0
  185.7800  177.7230  137.2220 C   0  0  0  0  0  0  0  0  0  0  0  0
  184.4400  177.9750  142.4840 C   0  0  0  0  0  2  0  0  0  0  0  0
  185.2110  178.8680  143.4490 C   0  0  0  0  0  2  0  0  0  0  0  0
  185.2140  178.2920  144.8590 C   0  0  2  0  0  3  0  0  0  0  0  0
  184.7320  179.2350  145.7680 O   0  0  0  0  0  1  0  0  0  0  0  0
  188.0250  177.8740  148.3850 C   0  0  0  0  0  3  0  0  0  0  0  0
  188.6710  177.2920  145.0460 O   0  0  0  0  0  0  0  0  0  0  0  0
  187.5740  177.5160  144.3550 N   0  0  0  0  0  0  0  0  0  0  0  0
  188.4170  177.5060  146.3110 C   0  0  0  0  0  0  0  0  0  0  0  0
  189.0700  177.4730  147.5150 C   0  0  0  0  0  3  0  0  0  0  0  0
  186.5980  177.8790  145.2350 C   0  0  0  0  0  0  0  0  0  0  0  0
  186.8930  178.1070  147.7200 O   0  0  0  0  0  0  0  0  0  0  0  0
  187.1780  177.8710  146.4760 C   0  0  0  0  0  0  0  0  0  0  0  0
  1 12  1  1  0  0  0
  1  8  1  0  0  0  0
  2  4  2  0  0  0  0
  3  1  1  0  0  0  0
  3  2  1  0  0  0  0
  4  5  1  0  0  0  0
  6  9  2  0  0  0  0
  7  6  1  0  0  0  0
  7  3  2  0  0  0  0
  8 25  1  0  0  0  0
  8  5  2  0  0  0  0
  9  2  1  0  0  0  0
 10 11  2  0  0  0  0
 10 13  1  0  0  0  0
 11 15  1  0  0  0  0
 13 14  2  0  0  0  0
 14 12  1  0  0  0  0
 15 16  1  0  0  0  0
 15 12  2  0  0  0  0
 17 20  2  0  0  0  0
 18 22  2  0  0  0  0
 20 19  1  0  0  0  0
 21 18  1  6  0  0  0
 21 17  1  0  0  0  0
 21 23  1  0  0  0  0
 22 24  1  0  0  0  0
 23 19  1  0  0  0  0
 24 23  2  0  0  0  0
 24 11  1  0  0  0  0
 25 26  1  0  0  0  0
 26 27  1  0  0  0  0
 27 34  1  0  0  0  0
 27 28  1  1  0  0  0
 30 32  1  0  0  0  0
 31 30  1  0  0  0  0
 31 34  2  0  0  0  0
 32 36  2  0  0  0  0
 32 33  1  0  0  0  0
 33 29  2  0  0  0  0
 34 36  1  0  0  0  0
 35 29  1  0  0  0  0
 36 35  1  0  0  0  0
M  END
>  <MODEL>
4

>  <REMARK>
 VINA RESULT:      -8.2      1.758      2.595
  Name = 
  6 active torsions:
  status: ('A' for Active; 'I' for Inactive)
    1  A    between atoms: C_2  and  C_15
    2  A    between atoms: C_4  and  C_17
    3  A    between atoms: C_4  and  C_28
    4  A    between atoms: C_10  and  C_32
    5  A    between atoms: C_17  and  C_24
    6  A    between atoms: C_24  and  C_34
                            x       y       z     vdW  Elec       q    Type
                         _______ _______ _______ _____ _____    ______ ____

>  <TORSDO>
F 6

$$$$
=
 OpenBabel11062417123D

 36 42  0  0  1  0  0  0  0  0999 V2000
  184.9810  178.6170  139.9080 C   0  0  1  0  0  3  0  0  0  0  0  0
  187.3100  178.2690  139.4630 C   0  0  0  0  0  0  0  0  0  0  0  0
  186.0340  178.3720  139.0240 C   0  0  0  0  0  0  0  0  0  0  0  0
  187.6290  178.3960  140.7700 N   0  0  0  0  0  0  0  0  0  0  0  0
  186.6510  178.6330  141.6540 N   0  0  0  0  0  0  0  0  0  0  0  0
  187.4090  178.0140  137.3460 N   0  0  0  0  0  0  0  0  0  0  0  0
  186.1010  178.2120  137.6560 C   0  0  0  0  0  3  0  0  0  0  0  0
  185.3370  178.7590  141.2750 C   0  0  0  0  0  0  0  0  0  0  0  0
  188.1540  178.0490  138.4480 N   0  0  0  0  0  0  0  0  0  0  0  0
  180.9620  178.9690  138.4730 C   0  0  0  0  0  3  0  0  0  0  0  0
  181.4040  177.7280  138.9450 C   0  0  0  0  0  0  0  0  0  0  0  0
  183.5830  178.7200  139.4290 C   0  0  0  0  0  0  0  0  0  0  0  0
  181.8060  180.0780  138.4890 C   0  0  0  0  0  3  0  0  0  0  0  0
  183.1100  179.9540  138.9690 C   0  0  0  0  0  3  0  0  0  0  0  0
  182.7310  177.5970  139.4070 C   0  0  0  0  0  0  0  0  0  0  0  0
  183.2110  176.3590  139.8260 O   0  0  0  0  0  1  0  0  0  0  0  0
  179.2640  173.7360  137.3890 N   0  0  0  0  0  0  0  0  0  0  0  0
  178.9310  174.8950  139.4850 C   0  0  0  0  0  3  0  0  0  0  0  0
  181.0040  175.3500  136.4610 S   0  0  0  0  0  0  0  0  0  0  0  0
  180.0580  173.9340  136.3000 C   0  0  0  0  0  3  0  0  0  0  0  0
  179.4560  174.7310  138.2850 C   0  0  0  0  0  0  0  0  0  0  0  0
  179.5640  176.1560  140.0400 C   0  0  0  0  0  2  0  0  0  0  0  0
  180.3290  175.6890  137.9550 C   0  0  0  0  0  0  0  0  0  0  0  0
  180.4630  176.5920  138.9070 C   0  0  0  0  0  0  0  0  0  0  0  0
  184.2990  178.9970  142.3280 C   0  0  0  0  0  2  0  0  0  0  0  0
  184.9230  179.4920  143.6270 C   0  0  0  0  0  2  0  0  0  0  0  0
  184.5200  178.6170  144.8070 C   0  0  2  0  0  3  0  0  0  0  0  0
  183.4060  179.1580  145.4520 O   0  0  0  0  0  1  0  0  0  0  0  0
  188.7660  177.0910  145.2000 C   0  0  0  0  0  3  0  0  0  0  0  0
  186.7760  178.5420  147.6160 O   0  0  0  0  0  0  0  0  0  0  0  0
  185.6170  178.8580  147.0790 N   0  0  0  0  0  0  0  0  0  0  0  0
  187.5280  178.0000  146.6930 C   0  0  0  0  0  0  0  0  0  0  0  0
  188.7810  177.4610  146.5680 C   0  0  0  0  0  3  0  0  0  0  0  0
  185.6590  178.4990  145.7640 C   0  0  0  0  0  0  0  0  0  0  0  0
  187.6060  177.3990  144.6180 O   0  0  0  0  0  0  0  0  0  0  0  0
  186.8940  177.9450  145.5570 C   0  0  0  0  0  0  0  0  0  0  0  0
  1 12  1  6  0  0  0
  1  8  1  0  0  0  0
  2  4  2  0  0  0  0
  3  2  1  0  0  0  0
  3  1  1  0  0  0  0
  4  5  1  0  0  0  0
  6  7  1  0  0  0  0
  6  9  2  0  0  0  0
  7  3  2  0  0  0  0
  8  5  2  0  0  0  0
  8 25  1  0  0  0  0
  9  2  1  0  0  0  0
 10 13  2  0  0  0  0
 10 11  1  0  0  0  0
 11 15  2  0  0  0  0
 13 14  1  0  0  0  0
 14 12  2  0  0  0  0
 15 12  1  0  0  0  0
 15 16  1  0  0  0  0
 17 21  1  0  0  0  0
 18 22  1  0  0  0  0
 19 23  1  0  0  0  0
 20 19  1  0  0  0  0
 20 17  2  0  0  0  0
 21 18  2  0  0  0  0
 23 21  1  0  0  0  0
 23 24  2  0  0  0  0
 24 11  1  0  0  0  0
 24 22  1  0  0  0  0
 25 26  1  0  0  0  0
 26 27  1  0  0  0  0
 27 28  1  1  0  0  0
 27 34  1  0  0  0  0
 29 33  2  0  0  0  0
 31 30  1  0  0  0  0
 32 30  1  0  0  0  0
 33 32  1  0  0  0  0
 34 31  2  0  0  0  0
 35 29  1  0  0  0  0
 35 36  1  0  0  0  0
 36 34  1  0  0  0  0
 36 32  2  0  0  0  0
M  END
>  <MODEL>
5

>  <REMARK>
 VINA RESULT:      -8.1      3.304      5.820
  Name = 
  6 active torsions:
  status: ('A' for Active; 'I' for Inactive)
    1  A    between atoms: C_2  and  C_15
    2  A    between atoms: C_4  and  C_17
    3  A    between atoms: C_4  and  C_28
    4  A    between atoms: C_10  and  C_32
    5  A    between atoms: C_17  and  C_24
    6  A    between atoms: C_24  and  C_34
                            x       y       z     vdW  Elec       q    Type
                         _______ _______ _______ _____ _____    ______ ____

>  <TORSDO>
F 6

$$$$
=
 OpenBabel11062417123D

 36 42  0  0  1  0  0  0  0  0999 V2000
  190.1400  176.7750  138.3260 C   0  0  1  0  0  3  0  0  0  0  0  0
  188.6930  178.6260  137.8550 C   0  0  0  0  0  0  0  0  0  0  0  0
  189.4270  177.5720  137.4280 C   0  0  0  0  0  0  0  0  0  0  0  0
  188.6140  178.9600  139.1620 N   0  0  0  0  0  0  0  0  0  0  0  0
  189.2800  178.2220  140.0590 N   0  0  0  0  0  0  0  0  0  0  0  0
  188.4300  178.5630  135.7380 N   0  0  0  0  0  0  0  0  0  0  0  0
  189.2510  177.5300  136.0610 C   0  0  0  0  0  3  0  0  0  0  0  0
  190.0360  177.1340  139.6950 C   0  0  0  0  0  0  0  0  0  0  0  0
  188.0840  179.2370  136.8320 N   0  0  0  0  0  0  0  0  0  0  0  0
  192.4330  173.4440  136.9180 C   0  0  0  0  0  3  0  0  0  0  0  0
  193.1030  174.5280  137.4970 C   0  0  0  0  0  0  0  0  0  0  0  0
  190.9510  175.6270  137.8580 C   0  0  0  0  0  0  0  0  0  0  0  0
  191.0430  173.4360  136.8200 C   0  0  0  0  0  3  0  0  0  0  0  0
  190.3060  174.5220  137.2920 C   0  0  0  0  0  3  0  0  0  0  0  0
  192.3580  175.6380  137.9510 C   0  0  0  0  0  0  0  0  0  0  0  0
  193.0070  176.7520  138.4770 O   0  0  0  0  0  1  0  0  0  0  0  0
  197.6810  175.4230  136.4110 N   0  0  0  0  0  0  0  0  0  0  0  0
  196.8000  174.2290  138.3210 C   0  0  0  0  0  3  0  0  0  0  0  0
  195.4230  175.9220  135.3390 S   0  0  0  0  0  0  0  0  0  0  0  0
  197.1280  176.0490  135.3340 C   0  0  0  0  0  3  0  0  0  0  0  0
  196.7060  174.8740  137.1730 C   0  0  0  0  0  0  0  0  0  0  0  0
  195.3740  173.9060  138.7260 C   0  0  0  0  0  2  0  0  0  0  0  0
  195.4460  175.0210  136.7500 C   0  0  0  0  0  0  0  0  0  0  0  0
  194.5750  174.4760  137.5770 C   0  0  0  0  0  0  0  0  0  0  0  0
  190.7730  176.3770  140.7560 C   0  0  0  0  0  2  0  0  0  0  0  0
  191.0330  177.2420  141.9840 C   0  0  0  0  0  2  0  0  0  0  0  0
  190.8110  176.4600  143.2720 C   0  0  2  0  0  3  0  0  0  0  0  0
  190.5690  175.1150  142.9860 O   0  0  0  0  0  1  0  0  0  0  0  0
  189.2780  177.2880  147.4520 C   0  0  0  0  0  3  0  0  0  0  0  0
  187.7000  177.8550  144.4370 O   0  0  0  0  0  0  0  0  0  0  0  0
  188.5020  177.4890  143.4610 N   0  0  0  0  0  0  0  0  0  0  0  0
  188.3070  177.6450  145.5760 C   0  0  0  0  0  0  0  0  0  0  0  0
  188.0620  177.7840  146.9170 C   0  0  0  0  0  3  0  0  0  0  0  0
  189.6600  177.0380  144.0240 C   0  0  0  0  0  0  0  0  0  0  0  0
  190.1220  176.9100  146.4910 O   0  0  0  0  0  0  0  0  0  0  0  0
  189.4930  177.1450  145.3790 C   0  0  0  0  0  0  0  0  0  0  0  0
  1 12  1  1  0  0  0
  1  8  1  0  0  0  0
  2  4  2  0  0  0  0
  3  2  1  0  0  0  0
  3  1  1  0  0  0  0
  4  5  1  0  0  0  0
  6  7  1  0  0  0  0
  6  9  2  0  0  0  0
  7  3  2  0  0  0  0
  8  5  2  0  0  0  0
  8 25  1  0  0  0  0
  9  2  1  0  0  0  0
 10 11  1  0  0  0  0
 11 24  1  0  0  0  0
 11 15  2  0  0  0  0
 12 15  1  0  0  0  0
 13 10  2  0  0  0  0
 13 14  1  0  0  0  0
 14 12  2  0  0  0  0
 15 16  1  0  0  0  0
 17 21  1  0  0  0  0
 18 22  1  0  0  0  0
 19 23  1  0  0  0  0
 20 19  1  0  0  0  0
 20 17  2  0  0  0  0
 21 18  2  0  0  0  0
 23 21  1  0  0  0  0
 23 24  2  0  0  0  0
 24 22  1  0  0  0  0
 25 26  1  0  0  0  0
 26 27  1  0  0  0  0
 27 28  1  6  0  0  0
 27 34  1  0  0  0  0
 30 32  1  0  0  0  0
 31 34  2  0  0  0  0
 31 30  1  0  0  0  0
 32 33  1  0  0  0  0
 33 29  2  0  0  0  0
 34 36  1  0  0  0  0
 35 29  1  0  0  0  0
 36 32  2  0  0  0  0
 36 35  1  0  0  0  0
M  END
>  <MODEL>
6

>  <REMARK>
 VINA RESULT:      -8.0      5.795      8.171
  Name = 
  6 active torsions:
  status: ('A' for Active; 'I' for Inactive)
    1  A    between atoms: C_2  and  C_15
    2  A    between atoms: C_4  and  C_17
    3  A    between atoms: C_4  and  C_28
    4  A    between atoms: C_10  and  C_32
    5  A    between atoms: C_17  and  C_24
    6  A    between atoms: C_24  and  C_34
                            x       y       z     vdW  Elec       q    Type
                         _______ _______ _______ _____ _____    ______ ____

>  <TORSDO>
F 6

$$$$
=
 OpenBabel11062417123D

 36 42  0  0  1  0  0  0  0  0999 V2000
  182.4650  178.5240  140.9570 C   0  0  1  0  0  3  0  0  0  0  0  0
  180.4860  179.4970  141.8950 C   0  0  0  0  0  0  0  0  0  0  0  0
  181.1570  178.9970  140.8310 C   0  0  0  0  0  0  0  0  0  0  0  0
  181.0440  179.5640  143.1240 N   0  0  0  0  0  0  0  0  0  0  0  0
  182.2950  179.1200  143.2920 N   0  0  0  0  0  0  0  0  0  0  0  0
  179.1280  179.6130  140.2530 N   0  0  0  0  0  0  0  0  0  0  0  0
  180.2770  179.0680  139.7730 C   0  0  0  0  0  3  0  0  0  0  0  0
  183.0290  178.5910  142.2570 C   0  0  0  0  0  0  0  0  0  0  0  0
  179.2500  179.8760  141.5510 N   0  0  0  0  0  0  0  0  0  0  0  0
  184.6600  177.0080  137.6070 C   0  0  0  0  0  3  0  0  0  0  0  0
  183.7200  176.1780  138.2290 C   0  0  0  0  0  0  0  0  0  0  0  0
  183.2030  177.9840  139.7910 C   0  0  0  0  0  0  0  0  0  0  0  0
  184.8640  178.3120  138.0530 C   0  0  0  0  0  3  0  0  0  0  0  0
  184.1350  178.7990  139.1380 C   0  0  0  0  0  3  0  0  0  0  0  0
  183.0010  176.6620  139.3440 C   0  0  0  0  0  0  0  0  0  0  0  0
  182.1050  175.8360  140.0150 O   0  0  0  0  0  1  0  0  0  0  0  0
  181.7490  172.4940  135.8880 N   0  0  0  0  0  0  0  0  0  0  0  0
  183.9110  172.6000  136.9670 C   0  0  0  0  0  3  0  0  0  0  0  0
  181.0390  174.8710  136.4710 S   0  0  0  0  0  0  0  0  0  0  0  0
  180.7200  173.3700  135.7160 C   0  0  0  0  0  3  0  0  0  0  0  0
  182.7300  173.0740  136.6180 C   0  0  0  0  0  0  0  0  0  0  0  0
  184.5950  173.7220  137.7250 C   0  0  0  0  0  2  0  0  0  0  0  0
  182.5200  174.3280  137.0330 C   0  0  0  0  0  0  0  0  0  0  0  0
  183.5460  174.8090  137.7090 C   0  0  0  0  0  0  0  0  0  0  0  0
  184.4330  178.1410  142.5210 C   0  0  0  0  0  2  0  0  0  0  0  0
  185.0990  178.9860  143.6010 C   0  0  0  0  0  2  0  0  0  0  0  0
  185.0980  178.2710  144.9460 C   0  0  2  0  0  3  0  0  0  0  0  0
  184.6200  179.1210  145.9450 O   0  0  0  0  0  1  0  0  0  0  0  0
  188.1110  178.0470  148.3190 C   0  0  0  0  0  3  0  0  0  0  0  0
  188.5000  177.0870  145.0280 O   0  0  0  0  0  0  0  0  0  0  0  0
  187.3730  177.3050  144.3860 N   0  0  0  0  0  0  0  0  0  0  0  0
  188.3430  177.4450  146.2760 C   0  0  0  0  0  0  0  0  0  0  0  0
  189.0730  177.4960  147.4350 C   0  0  0  0  0  3  0  0  0  0  0  0
  186.4790  177.8160  145.2790 C   0  0  0  0  0  0  0  0  0  0  0  0
  186.9510  178.2800  147.7040 O   0  0  0  0  0  0  0  0  0  0  0  0
  187.1390  177.9000  146.4760 C   0  0  0  0  0  0  0  0  0  0  0  0
  1 12  1  1  0  0  0
  1  8  1  0  0  0  0
  2  4  2  0  0  0  0
  3  1  1  0  0  0  0
  3  2  1  0  0  0  0
  4  5  1  0  0  0  0
  6  9  2  0  0  0  0
  7  6  1  0  0  0  0
  7  3  2  0  0  0  0
  8 25  1  0  0  0  0
  8  5  2  0  0  0  0
  9  2  1  0  0  0  0
 10 13  2  0  0  0  0
 10 11  1  0  0  0  0
 11 15  2  0  0  0  0
 13 14  1  0  0  0  0
 14 12  2  0  0  0  0
 15 12  1  0  0  0  0
 15 16  1  0  0  0  0
 17 21  1  0  0  0  0
 18 22  1  0  0  0  0
 19 23  1  0  0  0  0
 20 17  2  0  0  0  0
 20 19  1  0  0  0  0
 21 18  2  0  0  0  0
 21 23  1  0  0  0  0
 23 24  2  0  0  0  0
 24 22  1  0  0  0  0
 24 11  1  0  0  0  0
 25 26  1  0  0  0  0
 26 27  1  0  0  0  0
 27 34  1  0  0  0  0
 27 28  1  1  0  0  0
 30 32  1  0  0  0  0
 31 30  1  0  0  0  0
 31 34  2  0  0  0  0
 32 36  2  0  0  0  0
 32 33  1  0  0  0  0
 33 29  2  0  0  0  0
 34 36  1  0  0  0  0
 35 29  1  0  0  0  0
 36 35  1  0  0  0  0
M  END
>  <MODEL>
7

>  <REMARK>
 VINA RESULT:      -7.9      2.930      4.553
  Name = 
  6 active torsions:
  status: ('A' for Active; 'I' for Inactive)
    1  A    between atoms: C_2  and  C_15
    2  A    between atoms: C_4  and  C_17
    3  A    between atoms: C_4  and  C_28
    4  A    between atoms: C_10  and  C_32
    5  A    between atoms: C_17  and  C_24
    6  A    between atoms: C_24  and  C_34
                            x       y       z     vdW  Elec       q    Type
                         _______ _______ _______ _____ _____    ______ ____

>  <TORSDO>
F 6

$$$$
=
 OpenBabel11062417123D

 36 42  0  0  1  0  0  0  0  0999 V2000
  183.1660  178.5010  141.6390 C   0  0  1  0  0  3  0  0  0  0  0  0
  181.4930  179.3060  143.1550 C   0  0  0  0  0  0  0  0  0  0  0  0
  181.8820  178.9830  141.8980 C   0  0  0  0  0  0  0  0  0  0  0  0
  182.3230  179.1790  144.2140 N   0  0  0  0  0  0  0  0  0  0  0  0
  183.5630  178.7170  144.0120 N   0  0  0  0  0  0  0  0  0  0  0  0
  179.7960  179.6770  141.9150 N   0  0  0  0  0  0  0  0  0  0  0  0
  180.7820  179.2190  141.1010 C   0  0  0  0  0  3  0  0  0  0  0  0
  184.0190  178.3630  142.7650 C   0  0  0  0  0  0  0  0  0  0  0  0
  180.2250  179.7320  143.1740 N   0  0  0  0  0  0  0  0  0  0  0  0
  184.4750  177.5300  137.6790 C   0  0  0  0  0  3  0  0  0  0  0  0
  183.4870  176.7390  138.2760 C   0  0  0  0  0  0  0  0  0  0  0  0
  183.5950  178.1560  140.2630 C   0  0  0  0  0  0  0  0  0  0  0  0
  185.0100  178.6280  138.3500 C   0  0  0  0  0  3  0  0  0  0  0  0
  184.5680  178.9410  139.6350 C   0  0  0  0  0  3  0  0  0  0  0  0
  183.0580  177.0410  139.5870 C   0  0  0  0  0  0  0  0  0  0  0  0
  182.1200  176.2330  140.2230 O   0  0  0  0  0  1  0  0  0  0  0  0
  183.2540  172.3530  136.3660 N   0  0  0  0  0  0  0  0  0  0  0  0
  181.5430  174.0610  136.4110 C   0  0  0  0  0  3  0  0  0  0  0  0
  185.0260  173.7140  137.5930 S   0  0  0  0  0  0  0  0  0  0  0  0
  184.5310  172.2640  136.8330 C   0  0  0  0  0  3  0  0  0  0  0  0
  182.7500  173.5780  136.6400 C   0  0  0  0  0  0  0  0  0  0  0  0
  181.5460  175.4620  136.9900 C   0  0  0  0  0  2  0  0  0  0  0  0
  183.5530  174.4420  137.2700 C   0  0  0  0  0  0  0  0  0  0  0  0
  182.9560  175.5920  137.5140 C   0  0  0  0  0  0  0  0  0  0  0  0
  185.4290  177.8800  142.6190 C   0  0  0  0  0  2  0  0  0  0  0  0
  186.1320  177.7880  143.9680 C   0  0  0  0  0  2  0  0  0  0  0  0
  187.6260  177.5470  143.8020 C   0  0  2  0  0  3  0  0  0  0  0  0
  187.8490  176.3840  143.0630 O   0  0  0  0  0  1  0  0  0  0  0  0
  191.5700  176.6540  145.8420 C   0  0  0  0  0  3  0  0  0  0  0  0
  188.5070  177.3120  147.2880 O   0  0  0  0  0  0  0  0  0  0  0  0
  187.6260  177.5360  146.3360 N   0  0  0  0  0  0  0  0  0  0  0  0
  189.6660  177.0710  146.7330 C   0  0  0  0  0  0  0  0  0  0  0  0
  190.9480  176.7660  147.1110 C   0  0  0  0  0  3  0  0  0  0  0  0
  188.2750  177.4350  145.1410 C   0  0  0  0  0  0  0  0  0  0  0  0
  190.7080  176.8790  144.8490 O   0  0  0  0  0  0  0  0  0  0  0  0
  189.5760  177.1270  145.4350 C   0  0  0  0  0  0  0  0  0  0  0  0
  1 12  1  1  0  0  0
  1  3  1  0  0  0  0
  1  8  1  0  0  0  0
  2  9  1  0  0  0  0
  2  4  2  0  0  0  0
  3  2  1  0  0  0  0
  5  4  1  0  0  0  0
  6  9  2  0  0  0  0
  7  3  2  0  0  0  0
  7  6  1  0  0  0  0
  8  5  2  0  0  0  0
 10 11  2  0  0  0  0
 10 13  1  0  0  0  0
 11 15  1  0  0  0  0
 13 14  2  0  0  0  0
 14 12  1  0  0  0  0
 15 16  1  0  0  0  0
 15 12  2  0  0  0  0
 17 21  1  0  0  0  0
 17 20  2  0  0  0  0
 18 21  2  0  0  0  0
 18 22  1  0  0  0  0
 20 19  1  0  0  0  0
 21 23  1  0  0  0  0
 22 24  1  0  0  0  0
 23 24  2  0  0  0  0
 23 19  1  0  0  0  0
 24 11  1  0  0  0  0
 25  8  1  0  0  0  0
 25 26  1  0  0  0  0
 27 28  1  6  0  0  0
 27 26  1  0  0  0  0
 27 34  1  0  0  0  0
 29 33  2  0  0  0  0
 31 30  1  0  0  0  0
 32 33  1  0  0  0  0
 32 30  1  0  0  0  0
 34 36  1  0  0  0  0
 34 31  2  0  0  0  0
 35 36  1  0  0  0  0
 35 29  1  0  0  0  0
 36 32  2  0  0  0  0
M  END
>  <MODEL>
8

>  <REMARK>
 VINA RESULT:      -7.7      2.949      4.770
  Name = 
  6 active torsions:
  status: ('A' for Active; 'I' for Inactive)
    1  A    between atoms: C_2  and  C_15
    2  A    between atoms: C_4  and  C_17
    3  A    between atoms: C_4  and  C_28
    4  A    between atoms: C_10  and  C_32
    5  A    between atoms: C_17  and  C_24
    6  A    between atoms: C_24  and  C_34
                            x       y       z     vdW  Elec       q    Type
                         _______ _______ _______ _____ _____    ______ ____

>  <TORSDO>
F 6

$$$$
=
 OpenBabel11062417123D

 36 42  0  0  1  0  0  0  0  0999 V2000
  190.2720  176.9840  138.6140 C   0  0  1  0  0  3  0  0  0  0  0  0
  192.6250  176.8960  139.0620 C   0  0  0  0  0  0  0  0  0  0  0  0
  191.5880  176.7560  138.2040 C   0  0  0  0  0  0  0  0  0  0  0  0
  192.4430  177.2580  140.3510 N   0  0  0  0  0  0  0  0  0  0  0  0
  191.1980  177.4890  140.7880 N   0  0  0  0  0  0  0  0  0  0  0  0
  193.4960  176.3440  137.1930 N   0  0  0  0  0  0  0  0  0  0  0  0
  192.1530  176.4050  136.9960 C   0  0  0  0  0  3  0  0  0  0  0  0
  190.1020  177.3760  139.9680 C   0  0  0  0  0  0  0  0  0  0  0  0
  193.7910  176.6440  138.4550 N   0  0  0  0  0  0  0  0  0  0  0  0
  187.0070  176.5840  135.8730 C   0  0  0  0  0  3  0  0  0  0  0  0
  187.6320  175.4270  136.3520 C   0  0  0  0  0  0  0  0  0  0  0  0
  189.1360  176.8230  137.6780 C   0  0  0  0  0  0  0  0  0  0  0  0
  187.4230  177.8450  136.2970 C   0  0  0  0  0  3  0  0  0  0  0  0
  188.4800  177.9620  137.1990 C   0  0  0  0  0  3  0  0  0  0  0  0
  188.7190  175.5470  137.2440 C   0  0  0  0  0  0  0  0  0  0  0  0
  189.3940  174.4130  137.6870 O   0  0  0  0  0  1  0  0  0  0  0  0
  184.7850  171.6040  135.8850 N   0  0  0  0  0  0  0  0  0  0  0  0
  186.7470  172.1770  134.5940 C   0  0  0  0  0  3  0  0  0  0  0  0
  184.8740  173.6320  137.4270 S   0  0  0  0  0  0  0  0  0  0  0  0
  184.1160  172.1840  136.9210 C   0  0  0  0  0  3  0  0  0  0  0  0
  185.8670  172.3500  135.5620 C   0  0  1  0  0  3  0  0  0  0  0  0
  187.6930  173.3590  134.6860 C   0  0  0  0  0  3  0  0  0  0  0  0
  186.0850  173.4530  136.2850 C   0  0  0  0  0  0  0  0  0  0  0  0
  187.1450  174.1200  135.8700 C   0  0  0  0  0  0  0  0  0  0  0  0
  188.7400  177.6240  140.5400 C   0  0  0  0  0  2  0  0  0  0  0  0
  188.8170  178.0650  141.9970 C   0  0  0  0  0  2  0  0  0  0  0  0
  187.9880  177.1580  142.8970 C   0  0  2  0  0  3  0  0  0  0  0  0
  186.6410  177.5190  142.8380 O   0  0  0  0  0  1  0  0  0  0  0  0
  191.6620  176.5860  145.4830 C   0  0  0  0  0  3  0  0  0  0  0  0
  188.4680  177.4550  146.4560 O   0  0  0  0  0  0  0  0  0  0  0  0
  187.7040  177.5320  145.3880 N   0  0  0  0  0  0  0  0  0  0  0  0
  189.6790  177.1330  146.0790 C   0  0  0  0  0  0  0  0  0  0  0  0
  190.9040  176.8890  146.6420 C   0  0  0  0  0  3  0  0  0  0  0  0
  188.4810  177.2500  144.3030 C   0  0  0  0  0  0  0  0  0  0  0  0
  190.9220  176.6570  144.3760 O   0  0  0  0  0  0  0  0  0  0  0  0
  189.7350  176.9910  144.7860 C   0  0  0  0  0  0  0  0  0  0  0  0
  1 12  1  6  0  0  0
  1  8  1  0  0  0  0
  2  4  2  0  0  0  0
  3  1  1  0  0  0  0
  3  2  1  0  0  0  0
  4  5  1  0  0  0  0
  6  9  2  0  0  0  0
  7  6  1  0  0  0  0
  7  3  2  0  0  0  0
  8 25  1  0  0  0  0
  8  5  2  0  0  0  0
  9  2  1  0  0  0  0
 10 13  2  0  0  0  0
 10 11  1  0  0  0  0
 11 15  2  0  0  0  0
 13 14  1  0  0  0  0
 14 12  2  0  0  0  0
 15 12  1  0  0  0  0
 15 16  1  0  0  0  0
 17 20  2  0  0  0  0
 18 22  2  0  0  0  0
 20 19  1  0  0  0  0
 21 18  1  6  0  0  0
 21 17  1  0  0  0  0
 21 23  1  0  0  0  0
 22 24  1  0  0  0  0
 23 19  1  0  0  0  0
 24 23  2  0  0  0  0
 24 11  1  0  0  0  0
 25 26  1  0  0  0  0
 26 27  1  0  0  0  0
 27 28  1  1  0  0  0
 27 34  1  0  0  0  0
 29 33  2  0  0  0  0
 31 30  1  0  0  0  0
 32 30  1  0  0  0  0
 32 33  1  0  0  0  0
 34 36  1  0  0  0  0
 34 31  2  0  0  0  0
 35 36  1  0  0  0  0
 35 29  1  0  0  0  0
 36 32  2  0  0  0  0
M  END
>  <MODEL>
9

>  <REMARK>
 VINA RESULT:      -7.6      5.553      7.832
  Name = 
  6 active torsions:
  status: ('A' for Active; 'I' for Inactive)
    1  A    between atoms: C_2  and  C_15
    2  A    between atoms: C_4  and  C_17
    3  A    between atoms: C_4  and  C_28
    4  A    between atoms: C_10  and  C_32
    5  A    between atoms: C_17  and  C_24
    6  A    between atoms: C_24  and  C_34
                            x       y       z     vdW  Elec       q    Type
                         _______ _______ _______ _____ _____    ______ ____

>  <TORSDO>
F 6

$$$$
