=
 OpenBabel11062415153D

 52 56  0  0  1  0  0  0  0  0999 V2000
  184.9820  178.5710  138.5020 C   0  0  0  0  0  2  0  0  0  0  0  0
  182.8070  178.0390  137.7290 O   0  0  0  0  0  1  0  0  0  0  0  0
  183.5040  178.5080  138.8460 C   0  0  1  0  0  3  0  0  0  0  0  0
  182.3970  176.5540  139.7630 O   0  0  0  0  0  1  0  0  0  0  0  0
  183.2700  177.6050  140.0630 C   0  0  2  0  0  3  0  0  0  0  0  0
  181.4110  178.9620  141.2680 N   0  0  0  0  0  0  0  0  0  0  0  0
  180.4060  178.9300  140.2220 C   0  0  0  0  0  1  0  0  0  0  0  0
  182.7120  178.4010  141.2030 C   0  0  0  0  0  0  0  0  0  0  0  0
  182.4250  179.3770  143.1370 O   0  0  0  0  0  0  0  0  0  0  0  0
  181.2140  179.5960  142.5050 N   0  0  0  0  0  2  0  0  0  0  0  0
  183.3130  178.6710  142.3360 C   0  0  0  0  0  0  0  0  0  0  0  0
  184.7100  178.2740  142.7310 C   0  0  1  0  0  3  0  0  0  0  0  0
  185.8300  179.1590  142.1620 C   0  0  0  0  0  2  0  0  0  0  0  0
  186.9560  178.3500  141.5200 C   0  0  0  0  0  2  0  0  0  0  0  0
  188.2210  178.8250  141.9640 O   0  0  0  0  0  0  0  0  0  0  0  0
  191.0510  176.6890  144.7110 C   0  0  0  0  0  2  0  0  0  0  0  0
  191.1500  175.8640  143.4530 C   0  0  0  0  0  2  0  0  0  0  0  0
  189.8550  175.6740  142.9130 O   0  0  0  0  0  0  0  0  0  0  0  0
  189.0200  176.6970  142.4460 C   0  0  0  0  0  3  0  0  0  0  0  0
  191.0290  178.1300  144.3490 C   0  0  0  0  0  3  0  0  0  0  0  0
  189.1520  178.0200  142.6310 C   0  0  0  0  0  0  0  0  0  0  0  0
  190.1950  178.6780  143.4640 C   0  0  0  0  0  3  0  0  0  0  0  0
  184.8650  177.9050  144.0850 O   0  0  0  0  0  0  0  0  0  0  0  0
  185.3880  178.9950  144.8050 C   0  0  0  0  0  2  0  0  0  0  0  0
  186.1480  178.9110  147.2020 N   0  0  0  0  0  1  0  0  0  0  0  0
  187.2320  177.6900  145.5530 O   0  0  0  0  0  0  0  0  0  0  0  0
  186.3180  178.5010  145.8540 C   0  0  0  0  0  0  0  0  0  0  0  0
  185.3000  177.7110  137.2920 C   0  0  0  0  0  2  0  0  0  0  0  0
  186.8080  177.6170  137.1120 C   0  0  2  0  0  3  0  0  0  0  0  0
  187.3680  178.8750  136.4600 C   0  0  0  0  0  1  0  0  0  0  0  0
  186.8690  176.2530  135.0520 C   0  0  0  0  0  2  0  0  0  0  0  0
  187.1840  176.3880  136.3450 C   0  0  0  0  0  0  0  0  0  0  0  0
  187.9510  175.3170  137.0600 C   0  0  2  0  0  3  0  0  0  0  0  0
  191.7520  176.1790  136.6740 C   0  0  0  0  0  2  0  0  0  0  0  0
  192.1240  174.7110  136.5550 C   0  0  0  0  0  0  0  0  0  0  0  0
  193.4440  174.3870  136.1120 N   0  0  0  0  0  2  0  0  0  0  0  0
  189.4080  175.3060  136.6640 C   0  0  1  0  0  3  0  0  0  0  0  0
  188.6680  172.8730  136.6490 S   0  0  0  0  0  0  0  0  0  0  0  0
  187.3840  174.0450  136.8150 O   0  0  0  0  0  0  0  0  0  0  0  0
  191.2470  173.7590  136.7400 N   0  0  0  0  0  0  0  0  0  0  0  0
  190.3040  176.4510  137.1320 C   0  0  1  0  0  3  0  0  0  0  0  0
  189.9000  174.0340  137.2300 C   0  0  1  0  0  3  0  0  0  0  0  0
  193.9730  173.0250  136.1130 C   0  0  1  0  0  3  0  0  0  0  0  0
  196.3630  171.1830  135.6160 C   0  0  0  0  0  1  0  0  0  0  0  0
  195.8970  172.6280  135.6850 C   0  0  1  0  0  3  0  0  0  0  0  0
  194.7130  172.7840  134.9390 O   0  0  0  0  0  0  0  0  0  0  0  0
  195.1990  172.8810  136.9990 C   0  0  1  0  0  3  0  0  0  0  0  0
  195.6280  174.1100  137.5210 O   0  0  0  0  0  0  0  0  0  0  0  0
  195.6690  173.9140  138.9000 C   0  0  0  0  0  1  0  0  0  0  0  0
  190.2330  176.7130  138.6120 C   0  0  0  0  0  0  0  0  0  0  0  0
  190.7730  175.9250  139.4330 O   0  0  0  0  0  1  0  0  0  0  0  0
  189.5730  177.8430  139.0750 O   0  0  0  0  0  0  0  0  0  0  0  0
  1  3  1  0  0  0  0
  3  2  1  6  0  0  0
  3  5  1  0  0  0  0
  5  4  1  6  0  0  0
  5  8  1  0  0  0  0
  6 10  1  0  0  0  0
  7  6  1  0  0  0  0
  8  6  1  0  0  0  0
  8 11  2  0  0  0  0
 10  9  1  0  0  0  0
 11 12  1  0  0  0  0
 11  9  1  0  0  0  0
 12 13  1  1  0  0  0
 12 23  1  0  0  0  0
 14 15  1  0  0  0  0
 14 13  1  0  0  0  0
 15 21  1  0  0  0  0
 17 16  1  0  0  0  0
 18 17  1  0  0  0  0
 19 21  2  0  0  0  0
 19 18  1  0  0  0  0
 20 16  1  0  0  0  0
 21 22  1  0  0  0  0
 22 20  2  0  0  0  0
 23 24  1  0  0  0  0
 24 27  1  0  0  0  0
 26 27  2  0  0  0  0
 27 25  1  0  0  0  0
 28  1  1  0  0  0  0
 29 30  1  6  0  0  0
 29 28  1  0  0  0  0
 31 32  2  0  0  0  0
 32 29  1  0  0  0  0
 33 32  1  6  0  0  0
 34 41  1  0  0  0  0
 35 34  1  0  0  0  0
 35 40  2  0  0  0  0
 36 43  1  0  0  0  0
 36 35  1  0  0  0  0
 37 33  1  0  0  0  0
 37 41  1  0  0  0  0
 37 42  1  0  0  0  0
 38 39  1  0  0  0  0
 38 42  1  0  0  0  0
 39 33  1  0  0  0  0
 40 42  1  0  0  0  0
 41 50  1  0  0  0  0
 43 47  1  0  0  0  0
 44 45  1  0  0  0  0
 45 47  1  0  0  0  0
 46 45  1  0  0  0  0
 46 43  1  0  0  0  0
 47 48  1  0  0  0  0
 48 49  1  0  0  0  0
 50 52  2  0  0  0  0
 50 51  1  0  0  0  0
M  END
>  <MODEL>
1

>  <REMARK>
 VINA RESULT:      -7.1      0.000      0.000
  Name = 
  18 active torsions:
  status: ('A' for Active; 'I' for Inactive)
    1  A    between atoms: C_1  and  N_25
    2  A    between atoms: C_3  and  C_31
    3  A    between atoms: C_4  and  O_6
    4  A    between atoms: C_4  and  C_19
    5  A    between atoms: O_6  and  C_33
    6  A    between atoms: C_14  and  C_32
    7  A    between atoms: C_14  and  C_45
    8  A    between atoms: C_15  and  C_19
    9  A    between atoms: C_15  and  O_44
   10  A    between atoms: C_15  and  C_48
   11  A    between atoms: C_16  and  C_31
   12  A    between atoms: C_16  and  C_38
   13  A    between atoms: O_17  and  C_37
   14  A    between atoms: C_20  and  C_38
   15  A    between atoms: C_20  and  C_45
   16  A    between atoms: C_36  and  C_49
   17  A    between atoms: C_39  and  C_40
   18  A    between atoms: C_39  and  O_44
                            x       y       z     vdW  Elec       q    Type
                         _______ _______ _______ _____ _____    ______ ____

>  <TORSDO>
F 18

$$$$
=
 OpenBabel11062415153D

 52 56  0  0  1  0  0  0  0  0999 V2000
  186.4200  178.3420  142.4080 C   0  0  0  0  0  2  0  0  0  0  0  0
  186.7160  177.0960  144.4000 O   0  0  0  0  0  1  0  0  0  0  0  0
  187.4200  177.7050  143.3570 C   0  0  1  0  0  3  0  0  0  0  0  0
  188.2360  175.4250  143.2100 O   0  0  0  0  0  1  0  0  0  0  0  0
  188.2980  176.6900  142.6170 C   0  0  2  0  0  3  0  0  0  0  0  0
  190.5300  177.4270  143.7250 N   0  0  0  0  0  0  0  0  0  0  0  0
  190.1100  177.3760  145.1130 C   0  0  0  0  0  1  0  0  0  0  0  0
  189.7220  177.1540  142.5900 C   0  0  0  0  0  0  0  0  0  0  0  0
  191.7360  177.7100  141.9470 O   0  0  0  0  0  0  0  0  0  0  0  0
  191.8260  177.7900  143.3260 N   0  0  0  0  0  2  0  0  0  0  0  0
  190.4650  177.3410  141.5260 C   0  0  0  0  0  0  0  0  0  0  0  0
  190.0420  177.1660  140.0920 C   0  0  1  0  0  3  0  0  0  0  0  0
  188.7670  177.9210  139.6870 C   0  0  0  0  0  2  0  0  0  0  0  0
  189.0280  179.0080  138.6470 C   0  0  0  0  0  2  0  0  0  0  0  0
  188.2250  178.7920  137.4930 O   0  0  0  0  0  0  0  0  0  0  0  0
  187.9830  175.3770  134.5940 C   0  0  0  0  0  2  0  0  0  0  0  0
  189.4340  175.3420  135.0030 C   0  0  0  0  0  2  0  0  0  0  0  0
  189.9440  176.6620  135.0410 O   0  0  0  0  0  0  0  0  0  0  0  0
  189.4930  177.6740  135.9000 C   0  0  0  0  0  3  0  0  0  0  0  0
  187.1440  175.6290  135.7950 C   0  0  0  0  0  3  0  0  0  0  0  0
  188.3790  177.6870  136.6470 C   0  0  0  0  0  0  0  0  0  0  0  0
  187.3260  176.6340  136.6520 C   0  0  0  0  0  3  0  0  0  0  0  0
  191.0940  177.2130  139.1510 O   0  0  0  0  0  0  0  0  0  0  0  0
  191.3220  175.9200  138.6460 C   0  0  0  0  0  2  0  0  0  0  0  0
  192.6450  175.1760  136.6390 N   0  0  0  0  0  1  0  0  0  0  0  0
  193.5740  176.5740  138.2420 O   0  0  0  0  0  0  0  0  0  0  0  0
  192.5800  175.9070  137.8550 C   0  0  0  0  0  0  0  0  0  0  0  0
  185.0010  177.9170  142.7400 C   0  0  0  0  0  2  0  0  0  0  0  0
  184.1050  179.1440  142.8250 C   0  0  2  0  0  3  0  0  0  0  0  0
  183.7650  179.4820  144.2710 C   0  0  0  0  0  1  0  0  0  0  0  0
  181.6620  178.8750  142.5650 C   0  0  0  0  0  2  0  0  0  0  0  0
  182.8700  178.9680  141.9980 C   0  0  0  0  0  0  0  0  0  0  0  0
  183.0190  178.9270  140.5070 C   0  0  2  0  0  3  0  0  0  0  0  0
  181.6620  175.4520  139.3150 C   0  0  0  0  0  2  0  0  0  0  0  0
  182.7260  175.3510  138.2360 C   0  0  0  0  0  0  0  0  0  0  0  0
  182.9080  174.0890  137.5890 N   0  0  0  0  0  2  0  0  0  0  0  0
  182.9060  177.5220  139.9670 C   0  0  1  0  0  3  0  0  0  0  0  0
  184.8990  178.5630  138.7790 S   0  0  0  0  0  0  0  0  0  0  0  0
  184.2550  179.4890  140.1120 O   0  0  0  0  0  0  0  0  0  0  0  0
  183.5360  176.3430  137.9690 N   0  0  0  0  0  0  0  0  0  0  0  0
  181.5420  176.8370  139.9860 C   0  0  1  0  0  3  0  0  0  0  0  0
  183.3670  177.6610  138.5710 C   0  0  1  0  0  3  0  0  0  0  0  0
  183.7790  173.9060  136.4310 C   0  0  1  0  0  3  0  0  0  0  0  0
  185.8070  172.1350  134.9800 C   0  0  0  0  0  1  0  0  0  0  0  0
  184.8520  172.2260  136.1590 C   0  0  1  0  0  3  0  0  0  0  0  0
  185.0470  173.4460  136.8360 O   0  0  0  0  0  0  0  0  0  0  0  0
  183.4770  172.6210  135.6780 C   0  0  1  0  0  3  0  0  0  0  0  0
  182.5170  171.8330  136.3290 O   0  0  0  0  0  0  0  0  0  0  0  0
  181.9170  171.0920  135.3120 C   0  0  0  0  0  1  0  0  0  0  0  0
  180.4410  177.6560  139.3680 C   0  0  0  0  0  0  0  0  0  0  0  0
  180.3240  177.7400  138.1170 O   0  0  0  0  0  0  0  0  0  0  0  0
  179.5380  178.3170  140.1890 O   0  0  0  0  0  1  0  0  0  0  0  0
  1 28  1  0  0  0  0
  1  3  1  0  0  0  0
  3  2  1  1  0  0  0
  5  4  1  1  0  0  0
  5  3  1  0  0  0  0
  6  7  1  0  0  0  0
  8  5  1  0  0  0  0
  8  6  1  0  0  0  0
  9 10  1  0  0  0  0
 10  6  1  0  0  0  0
 11  9  1  0  0  0  0
 11  8  2  0  0  0  0
 12 13  1  6  0  0  0
 12 11  1  0  0  0  0
 14 13  1  0  0  0  0
 15 14  1  0  0  0  0
 16 17  1  0  0  0  0
 16 20  1  0  0  0  0
 17 18  1  0  0  0  0
 18 19  1  0  0  0  0
 19 21  2  0  0  0  0
 20 22  2  0  0  0  0
 21 22  1  0  0  0  0
 21 15  1  0  0  0  0
 23 12  1  0  0  0  0
 24 23  1  0  0  0  0
 25 27  1  0  0  0  0
 27 26  2  0  0  0  0
 27 24  1  0  0  0  0
 28 29  1  0  0  0  0
 29 30  1  1  0  0  0
 32 31  2  0  0  0  0
 32 29  1  0  0  0  0
 33 32  1  1  0  0  0
 34 41  1  0  0  0  0
 35 34  1  0  0  0  0
 36 35  1  0  0  0  0
 37 41  1  0  0  0  0
 37 33  1  0  0  0  0
 38 39  1  0  0  0  0
 39 33  1  0  0  0  0
 40 35  2  0  0  0  0
 40 42  1  0  0  0  0
 42 38  1  0  0  0  0
 42 37  1  0  0  0  0
 43 46  1  0  0  0  0
 43 36  1  0  0  0  0
 44 45  1  0  0  0  0
 45 46  1  0  0  0  0
 47 45  1  0  0  0  0
 47 48  1  0  0  0  0
 47 43  1  0  0  0  0
 49 48  1  0  0  0  0
 50 41  1  0  0  0  0
 50 52  1  0  0  0  0
 51 50  2  0  0  0  0
M  END
>  <MODEL>
2

>  <REMARK>
 VINA RESULT:      -6.5      3.131      8.896
  Name = 
  18 active torsions:
  status: ('A' for Active; 'I' for Inactive)
    1  A    between atoms: C_1  and  N_25
    2  A    between atoms: C_3  and  C_31
    3  A    between atoms: C_4  and  O_6
    4  A    between atoms: C_4  and  C_19
    5  A    between atoms: O_6  and  C_33
    6  A    between atoms: C_14  and  C_32
    7  A    between atoms: C_14  and  C_45
    8  A    between atoms: C_15  and  C_19
    9  A    between atoms: C_15  and  O_44
   10  A    between atoms: C_15  and  C_48
   11  A    between atoms: C_16  and  C_31
   12  A    between atoms: C_16  and  C_38
   13  A    between atoms: O_17  and  C_37
   14  A    between atoms: C_20  and  C_38
   15  A    between atoms: C_20  and  C_45
   16  A    between atoms: C_36  and  C_49
   17  A    between atoms: C_39  and  C_40
   18  A    between atoms: C_39  and  O_44
                            x       y       z     vdW  Elec       q    Type
                         _______ _______ _______ _____ _____    ______ ____

>  <TORSDO>
F 18

$$$$
=
 OpenBabel11062415153D

 52 56  0  0  1  0  0  0  0  0999 V2000
  187.3790  177.8920  143.5070 C   0  0  0  0  0  2  0  0  0  0  0  0
  188.3570  178.8390  141.5690 O   0  0  0  0  0  1  0  0  0  0  0  0
  187.8170  177.6520  142.0730 C   0  0  1  0  0  3  0  0  0  0  0  0
  188.8800  175.7850  143.1990 O   0  0  0  0  0  1  0  0  0  0  0  0
  188.8350  176.5080  142.0030 C   0  0  2  0  0  3  0  0  0  0  0  0
  191.1000  177.6150  142.6330 N   0  0  0  0  0  0  0  0  0  0  0  0
  190.8420  177.8510  144.0410 C   0  0  0  0  0  1  0  0  0  0  0  0
  190.2000  177.0430  141.6960 C   0  0  0  0  0  0  0  0  0  0  0  0
  192.0730  177.5670  140.6970 O   0  0  0  0  0  0  0  0  0  0  0  0
  192.3070  177.9600  142.0040 N   0  0  0  0  0  2  0  0  0  0  0  0
  190.8020  177.0320  140.5310 C   0  0  0  0  0  0  0  0  0  0  0  0
  190.2410  176.5130  139.2340 C   0  0  1  0  0  3  0  0  0  0  0  0
  189.6190  177.5760  138.3160 C   0  0  0  0  0  2  0  0  0  0  0  0
  188.1440  177.3120  138.0190 C   0  0  0  0  0  2  0  0  0  0  0  0
  188.0080  176.5720  136.8110 O   0  0  0  0  0  0  0  0  0  0  0  0
  186.3350  172.4290  136.4140 C   0  0  0  0  0  2  0  0  0  0  0  0
  187.7370  172.1580  136.8940 C   0  0  0  0  0  2  0  0  0  0  0  0
  188.6410  173.0040  136.2060 O   0  0  0  0  0  0  0  0  0  0  0  0
  188.6460  174.4030  136.2770 C   0  0  0  0  0  3  0  0  0  0  0  0
  185.7760  173.5820  137.1670 C   0  0  0  0  0  3  0  0  0  0  0  0
  187.6960  175.2070  136.7780 C   0  0  0  0  0  0  0  0  0  0  0  0
  186.3720  174.7670  137.2970 C   0  0  0  0  0  3  0  0  0  0  0  0
  191.0420  175.5490  138.5830 O   0  0  0  0  0  0  0  0  0  0  0  0
  191.6230  176.1270  137.4390 C   0  0  0  0  0  2  0  0  0  0  0  0
  192.4540  175.3000  135.2120 N   0  0  0  0  0  1  0  0  0  0  0  0
  192.5680  173.9680  137.1100 O   0  0  0  0  0  0  0  0  0  0  0  0
  192.2260  175.0640  136.5940 C   0  0  0  0  0  0  0  0  0  0  0  0
  185.8900  177.6420  143.6740 C   0  0  0  0  0  2  0  0  0  0  0  0
  185.1940  178.9370  144.0640 C   0  0  2  0  0  3  0  0  0  0  0  0
  185.1890  179.1300  145.5760 C   0  0  0  0  0  1  0  0  0  0  0  0
  182.7370  178.7490  144.2610 C   0  0  0  0  0  2  0  0  0  0  0  0
  183.8090  178.9960  143.4990 C   0  0  0  0  0  0  0  0  0  0  0  0
  183.6510  179.3690  142.0560 C   0  0  2  0  0  3  0  0  0  0  0  0
  180.5760  177.3690  140.6870 C   0  0  0  0  0  2  0  0  0  0  0  0
  181.2410  177.1730  139.3350 C   0  0  0  0  0  0  0  0  0  0  0  0
  180.6620  176.2290  138.4320 N   0  0  0  0  0  2  0  0  0  0  0  0
  182.7690  178.3940  141.3150 C   0  0  1  0  0  3  0  0  0  0  0  0
  184.7680  178.8100  139.7990 S   0  0  0  0  0  0  0  0  0  0  0  0
  184.9100  179.4480  141.4180 O   0  0  0  0  0  0  0  0  0  0  0  0
  182.3710  177.7570  139.0310 N   0  0  0  0  0  0  0  0  0  0  0  0
  181.2720  178.3840  141.6170 C   0  0  1  0  0  3  0  0  0  0  0  0
  182.9820  178.7580  139.9000 C   0  0  1  0  0  3  0  0  0  0  0  0
  181.1090  176.0700  137.0500 C   0  0  1  0  0  3  0  0  0  0  0  0
  182.7810  174.4790  135.0440 C   0  0  0  0  0  1  0  0  0  0  0  0
  182.2780  174.5370  136.4770 C   0  0  1  0  0  3  0  0  0  0  0  0
  182.4950  175.8240  137.0060 O   0  0  0  0  0  0  0  0  0  0  0  0
  180.7770  174.6970  136.4900 C   0  0  1  0  0  3  0  0  0  0  0  0
  180.2310  173.8420  137.4580 O   0  0  0  0  0  0  0  0  0  0  0  0
  179.1850  173.1910  136.8060 C   0  0  0  0  0  1  0  0  0  0  0  0
  180.6250  179.7400  141.5370 C   0  0  0  0  0  0  0  0  0  0  0  0
  180.3680  180.2670  140.4220 O   0  0  0  0  0  0  0  0  0  0  0  0
  180.3000  180.4120  142.7070 O   0  0  0  0  0  1  0  0  0  0  0  0
  1 28  1  0  0  0  0
  3  2  1  1  0  0  0
  3  1  1  0  0  0  0
  5  3  1  0  0  0  0
  5  4  1  1  0  0  0
  6  7  1  0  0  0  0
  8  5  1  0  0  0  0
  8  6  1  0  0  0  0
  9 10  1  0  0  0  0
 10  6  1  0  0  0  0
 11  9  1  0  0  0  0
 11  8  2  0  0  0  0
 12 13  1  6  0  0  0
 12 11  1  0  0  0  0
 14 13  1  0  0  0  0
 15 14  1  0  0  0  0
 16 17  1  0  0  0  0
 16 20  1  0  0  0  0
 18 19  1  0  0  0  0
 18 17  1  0  0  0  0
 19 21  2  0  0  0  0
 20 22  2  0  0  0  0
 21 15  1  0  0  0  0
 21 22  1  0  0  0  0
 23 12  1  0  0  0  0
 24 23  1  0  0  0  0
 25 27  1  0  0  0  0
 27 26  2  0  0  0  0
 27 24  1  0  0  0  0
 28 29  1  0  0  0  0
 29 30  1  1  0  0  0
 32 29  1  0  0  0  0
 32 31  2  0  0  0  0
 33 32  1  1  0  0  0
 34 41  1  0  0  0  0
 35 34  1  0  0  0  0
 36 35  1  0  0  0  0
 37 41  1  0  0  0  0
 37 33  1  0  0  0  0
 38 42  1  0  0  0  0
 38 39  1  0  0  0  0
 39 33  1  0  0  0  0
 40 35  2  0  0  0  0
 40 42  1  0  0  0  0
 42 37  1  0  0  0  0
 43 36  1  0  0  0  0
 44 45  1  0  0  0  0
 45 47  1  0  0  0  0
 45 46  1  0  0  0  0
 46 43  1  0  0  0  0
 47 43  1  0  0  0  0
 47 48  1  0  0  0  0
 49 48  1  0  0  0  0
 50 41  1  0  0  0  0
 50 52  1  0  0  0  0
 51 50  2  0  0  0  0
M  END
>  <MODEL>
3

>  <REMARK>
 VINA RESULT:      -6.2      2.970      9.933
  Name = 
  18 active torsions:
  status: ('A' for Active; 'I' for Inactive)
    1  A    between atoms: C_1  and  N_25
    2  A    between atoms: C_3  and  C_31
    3  A    between atoms: C_4  and  O_6
    4  A    between atoms: C_4  and  C_19
    5  A    between atoms: O_6  and  C_33
    6  A    between atoms: C_14  and  C_32
    7  A    between atoms: C_14  and  C_45
    8  A    between atoms: C_15  and  C_19
    9  A    between atoms: C_15  and  O_44
   10  A    between atoms: C_15  and  C_48
   11  A    between atoms: C_16  and  C_31
   12  A    between atoms: C_16  and  C_38
   13  A    between atoms: O_17  and  C_37
   14  A    between atoms: C_20  and  C_38
   15  A    between atoms: C_20  and  C_45
   16  A    between atoms: C_36  and  C_49
   17  A    between atoms: C_39  and  C_40
   18  A    between atoms: C_39  and  O_44
                            x       y       z     vdW  Elec       q    Type
                         _______ _______ _______ _____ _____    ______ ____

>  <TORSDO>
F 18

$$$$
=
 OpenBabel11062415153D

 52 56  0  0  1  0  0  0  0  0999 V2000
  186.8490  177.8770  143.3430 C   0  0  0  0  0  2  0  0  0  0  0  0
  188.3130  179.0990  141.9380 O   0  0  0  0  0  1  0  0  0  0  0  0
  187.6290  177.8840  142.0400 C   0  0  1  0  0  3  0  0  0  0  0  0
  188.3090  175.7490  142.9700 O   0  0  0  0  0  1  0  0  0  0  0  0
  188.5990  176.6970  141.9850 C   0  0  2  0  0  3  0  0  0  0  0  0
  190.6810  177.3670  143.3870 N   0  0  0  0  0  0  0  0  0  0  0  0
  190.1080  177.2160  144.7120 C   0  0  0  0  0  1  0  0  0  0  0  0
  190.0100  177.1690  142.1520 C   0  0  0  0  0  0  0  0  0  0  0  0
  192.0760  177.7800  141.7820 O   0  0  0  0  0  0  0  0  0  0  0  0
  192.0090  177.7630  143.1650 N   0  0  0  0  0  2  0  0  0  0  0  0
  190.8660  177.4340  141.1950 C   0  0  0  0  0  0  0  0  0  0  0  0
  190.6110  177.3590  139.7140 C   0  0  1  0  0  3  0  0  0  0  0  0
  191.0630  176.0570  139.0350 C   0  0  0  0  0  2  0  0  0  0  0  0
  192.4350  176.1790  138.3750 C   0  0  0  0  0  2  0  0  0  0  0  0
  192.7430  174.9930  137.6520 O   0  0  0  0  0  0  0  0  0  0  0  0
  196.8060  173.0910  137.7000 C   0  0  0  0  0  2  0  0  0  0  0  0
  196.8380  173.8700  136.4100 C   0  0  0  0  0  2  0  0  0  0  0  0
  195.6030  173.7110  135.7340 O   0  0  0  0  0  0  0  0  0  0  0  0
  194.3590  174.1340  136.2210 C   0  0  0  0  0  3  0  0  0  0  0  0
  196.1620  173.9180  138.7540 C   0  0  0  0  0  3  0  0  0  0  0  0
  194.0500  174.5260  137.4660 C   0  0  0  0  0  0  0  0  0  0  0  0
  194.9730  174.5110  138.6340 C   0  0  0  0  0  3  0  0  0  0  0  0
  189.3510  177.8450  139.3010 O   0  0  0  0  0  0  0  0  0  0  0  0
  188.9940  177.2330  138.0860 C   0  0  0  0  0  2  0  0  0  0  0  0
  188.8970  179.6420  137.3640 N   0  0  0  0  0  1  0  0  0  0  0  0
  188.8040  177.9160  135.8150 O   0  0  0  0  0  0  0  0  0  0  0  0
  188.8790  178.2630  137.0220 C   0  0  0  0  0  0  0  0  0  0  0  0
  185.3610  177.7150  143.0910 C   0  0  0  0  0  2  0  0  0  0  0  0
  184.7320  179.0780  142.8440 C   0  0  2  0  0  3  0  0  0  0  0  0
  184.4800  179.8170  144.1530 C   0  0  0  0  0  1  0  0  0  0  0  0
  182.2780  178.8750  142.6190 C   0  0  0  0  0  2  0  0  0  0  0  0
  183.4790  178.9560  142.0340 C   0  0  0  0  0  0  0  0  0  0  0  0
  183.6020  178.9530  140.5400 C   0  0  2  0  0  3  0  0  0  0  0  0
  182.1030  175.5650  139.2720 C   0  0  0  0  0  2  0  0  0  0  0  0
  183.1450  175.4580  138.1720 C   0  0  0  0  0  0  0  0  0  0  0  0
  183.2720  174.2110  137.4860 N   0  0  0  0  0  2  0  0  0  0  0  0
  183.4300  177.5700  139.9620 C   0  0  1  0  0  3  0  0  0  0  0  0
  185.4390  178.5750  138.7690 S   0  0  0  0  0  0  0  0  0  0  0  0
  184.8500  179.4830  140.1400 O   0  0  0  0  0  0  0  0  0  0  0  0
  183.9850  176.4290  137.9190 N   0  0  0  0  0  0  0  0  0  0  0  0
  182.0430  176.9330  139.9840 C   0  0  1  0  0  3  0  0  0  0  0  0
  183.8730  177.7340  138.5630 C   0  0  1  0  0  3  0  0  0  0  0  0
  184.1170  174.0310  136.3070 C   0  0  1  0  0  3  0  0  0  0  0  0
  186.3590  172.4520  134.9550 C   0  0  0  0  0  1  0  0  0  0  0  0
  185.4480  172.5300  136.1690 C   0  0  1  0  0  3  0  0  0  0  0  0
  185.4590  173.8390  136.6890 O   0  0  0  0  0  0  0  0  0  0  0  0
  184.0090  172.6310  135.7260 C   0  0  1  0  0  3  0  0  0  0  0  0
  183.2220  171.7830  136.5190 O   0  0  0  0  0  0  0  0  0  0  0  0
  182.3500  171.1680  135.6220 C   0  0  0  0  0  1  0  0  0  0  0  0
  180.9620  177.8070  139.4100 C   0  0  0  0  0  0  0  0  0  0  0  0
  180.1430  178.3980  140.1630 O   0  0  0  0  0  1  0  0  0  0  0  0
  180.8740  177.9710  138.0350 O   0  0  0  0  0  0  0  0  0  0  0  0
  3  2  1  1  0  0  0
  3  1  1  0  0  0  0
  5  3  1  0  0  0  0
  5  8  1  0  0  0  0
  5  4  1  1  0  0  0
  6  7  1  0  0  0  0
  8  6  1  0  0  0  0
  9 10  1  0  0  0  0
 10  6  1  0  0  0  0
 11  9  1  0  0  0  0
 11  8  2  0  0  0  0
 12 13  1  1  0  0  0
 12 11  1  0  0  0  0
 14 13  1  0  0  0  0
 15 14  1  0  0  0  0
 16 20  1  0  0  0  0
 17 16  1  0  0  0  0
 18 19  1  0  0  0  0
 18 17  1  0  0  0  0
 19 21  2  0  0  0  0
 21 15  1  0  0  0  0
 21 22  1  0  0  0  0
 22 20  2  0  0  0  0
 23 12  1  0  0  0  0
 24 23  1  0  0  0  0
 26 27  2  0  0  0  0
 27 25  1  0  0  0  0
 27 24  1  0  0  0  0
 28  1  1  0  0  0  0
 29 28  1  0  0  0  0
 29 30  1  1  0  0  0
 32 31  2  0  0  0  0
 32 29  1  0  0  0  0
 33 32  1  1  0  0  0
 34 41  1  0  0  0  0
 35 34  1  0  0  0  0
 36 35  1  0  0  0  0
 37 41  1  0  0  0  0
 37 33  1  0  0  0  0
 38 39  1  0  0  0  0
 39 33  1  0  0  0  0
 40 35  2  0  0  0  0
 40 42  1  0  0  0  0
 42 38  1  0  0  0  0
 42 37  1  0  0  0  0
 43 46  1  0  0  0  0
 43 36  1  0  0  0  0
 44 45  1  0  0  0  0
 45 46  1  0  0  0  0
 47 45  1  0  0  0  0
 47 43  1  0  0  0  0
 47 48  1  0  0  0  0
 49 48  1  0  0  0  0
 50 41  1  0  0  0  0
 50 51  1  0  0  0  0
 52 50  2  0  0  0  0
M  END
>  <MODEL>
4

>  <REMARK>
 VINA RESULT:      -6.0      3.108      8.736
  Name = 
  18 active torsions:
  status: ('A' for Active; 'I' for Inactive)
    1  A    between atoms: C_1  and  N_25
    2  A    between atoms: C_3  and  C_31
    3  A    between atoms: C_4  and  O_6
    4  A    between atoms: C_4  and  C_19
    5  A    between atoms: O_6  and  C_33
    6  A    between atoms: C_14  and  C_32
    7  A    between atoms: C_14  and  C_45
    8  A    between atoms: C_15  and  C_19
    9  A    between atoms: C_15  and  O_44
   10  A    between atoms: C_15  and  C_48
   11  A    between atoms: C_16  and  C_31
   12  A    between atoms: C_16  and  C_38
   13  A    between atoms: O_17  and  C_37
   14  A    between atoms: C_20  and  C_38
   15  A    between atoms: C_20  and  C_45
   16  A    between atoms: C_36  and  C_49
   17  A    between atoms: C_39  and  C_40
   18  A    between atoms: C_39  and  O_44
                            x       y       z     vdW  Elec       q    Type
                         _______ _______ _______ _____ _____    ______ ____

>  <TORSDO>
F 18

$$$$
=
 OpenBabel11062415153D

 52 56  0  0  1  0  0  0  0  0999 V2000
  185.1140  176.2490  136.3850 C   0  0  0  0  0  2  0  0  0  0  0  0
  182.7780  176.4180  136.0390 O   0  0  0  0  0  1  0  0  0  0  0  0
  183.7800  176.6590  136.9830 C   0  0  1  0  0  3  0  0  0  0  0  0
  183.7810  174.5260  138.1390 O   0  0  0  0  0  1  0  0  0  0  0  0
  183.5110  175.8900  138.2820 C   0  0  2  0  0  3  0  0  0  0  0  0
  181.0110  175.1950  138.4080 N   0  0  0  0  0  0  0  0  0  0  0  0
  181.0740  174.0060  137.5790 C   0  0  0  0  0  1  0  0  0  0  0  0
  182.0860  176.0700  138.7090 C   0  0  0  0  0  0  0  0  0  0  0  0
  180.2580  176.7910  139.6650 O   0  0  0  0  0  0  0  0  0  0  0  0
  179.8280  175.6490  139.0140 N   0  0  0  0  0  2  0  0  0  0  0  0
  181.6100  177.0340  139.4600 C   0  0  0  0  0  0  0  0  0  0  0  0
  182.3800  178.1940  140.0310 C   0  0  1  0  0  3  0  0  0  0  0  0
  182.8400  178.0240  141.4870 C   0  0  0  0  0  2  0  0  0  0  0  0
  184.3220  178.3360  141.6800 C   0  0  0  0  0  2  0  0  0  0  0  0
  184.6790  178.2090  143.0520 O   0  0  0  0  0  0  0  0  0  0  0  0
  188.5850  177.1080  144.9630 C   0  0  0  0  0  2  0  0  0  0  0  0
  189.0290  177.9870  143.8230 C   0  0  0  0  0  2  0  0  0  0  0  0
  188.2910  177.6570  142.6600 O   0  0  0  0  0  0  0  0  0  0  0  0
  186.9030  177.7950  142.5230 C   0  0  0  0  0  3  0  0  0  0  0  0
  187.3820  177.7050  145.6000 C   0  0  0  0  0  3  0  0  0  0  0  0
  185.9960  178.0140  143.4860 C   0  0  0  0  0  0  0  0  0  0  0  0
  186.2790  178.0730  144.9470 C   0  0  0  0  0  3  0  0  0  0  0  0
  183.3380  178.7590  139.1600 O   0  0  0  0  0  0  0  0  0  0  0  0
  183.0870  180.1370  139.0280 C   0  0  0  0  0  2  0  0  0  0  0  0
  181.4870  179.6020  137.1610 N   0  0  0  0  0  1  0  0  0  0  0  0
  180.9450  181.1490  138.8050 O   0  0  0  0  0  0  0  0  0  0  0  0
  181.7900  180.3440  138.3330 C   0  0  0  0  0  0  0  0  0  0  0  0
  185.8640  177.4520  135.8410 C   0  0  0  0  0  2  0  0  0  0  0  0
  187.1790  177.6170  136.5890 C   0  0  2  0  0  3  0  0  0  0  0  0
  187.5990  179.0790  136.6550 C   0  0  0  0  0  1  0  0  0  0  0  0
  188.7370  177.0180  134.7650 C   0  0  0  0  0  2  0  0  0  0  0  0
  188.2530  176.7650  135.9860 C   0  0  0  0  0  0  0  0  0  0  0  0
  188.7940  175.6290  136.8010 C   0  0  2  0  0  3  0  0  0  0  0  0
  192.3090  176.7400  138.1210 C   0  0  0  0  0  2  0  0  0  0  0  0
  192.8660  175.3350  137.9690 C   0  0  0  0  0  0  0  0  0  0  0  0
  194.2810  175.1590  138.0650 N   0  0  0  0  0  2  0  0  0  0  0  0
  190.2780  175.7610  137.0370 C   0  0  1  0  0  3  0  0  0  0  0  0
  189.8920  173.3310  136.3950 S   0  0  0  0  0  0  0  0  0  0  0  0
  188.5210  174.3900  136.1770 O   0  0  0  0  0  0  0  0  0  0  0  0
  192.1040  174.3210  137.6490 N   0  0  0  0  0  0  0  0  0  0  0  0
  190.7770  176.8540  137.9800 C   0  0  1  0  0  3  0  0  0  0  0  0
  190.6510  174.4390  137.5790 C   0  0  1  0  0  3  0  0  0  0  0  0
  194.9210  173.8460  138.0990 C   0  0  1  0  0  3  0  0  0  0  0  0
  197.3410  172.1330  137.3500 C   0  0  0  0  0  1  0  0  0  0  0  0
  196.7680  173.5410  137.3650 C   0  0  1  0  0  3  0  0  0  0  0  0
  195.4620  173.5290  136.8380 O   0  0  0  0  0  0  0  0  0  0  0  0
  196.2910  173.8870  138.7540 C   0  0  1  0  0  3  0  0  0  0  0  0
  196.6940  175.1930  139.0680 O   0  0  0  0  0  0  0  0  0  0  0  0
  196.9960  175.1530  140.4280 C   0  0  0  0  0  1  0  0  0  0  0  0
  190.0970  176.8580  139.3220 C   0  0  0  0  0  0  0  0  0  0  0  0
  188.9960  177.4480  139.4850 O   0  0  0  0  0  0  0  0  0  0  0  0
  190.6870  176.1940  140.3880 O   0  0  0  0  0  1  0  0  0  0  0  0
  1  3  1  0  0  0  0
  3  2  1  6  0  0  0
  3  5  1  0  0  0  0
  5  4  1  6  0  0  0
  5  8  1  0  0  0  0
  6  8  1  0  0  0  0
  6 10  1  0  0  0  0
  7  6  1  0  0  0  0
  8 11  2  0  0  0  0
 10  9  1  0  0  0  0
 11  9  1  0  0  0  0
 11 12  1  0  0  0  0
 12 13  1  1  0  0  0
 13 14  1  0  0  0  0
 14 15  1  0  0  0  0
 15 21  1  0  0  0  0
 16 20  1  0  0  0  0
 17 16  1  0  0  0  0
 18 17  1  0  0  0  0
 19 18  1  0  0  0  0
 19 21  2  0  0  0  0
 21 22  1  0  0  0  0
 22 20  2  0  0  0  0
 23 12  1  0  0  0  0
 24 23  1  0  0  0  0
 25 27  1  0  0  0  0
 27 26  2  0  0  0  0
 27 24  1  0  0  0  0
 28  1  1  0  0  0  0
 28 29  1  0  0  0  0
 29 30  1  6  0  0  0
 31 32  2  0  0  0  0
 32 29  1  0  0  0  0
 33 32  1  6  0  0  0
 33 37  1  0  0  0  0
 35 36  1  0  0  0  0
 35 34  1  0  0  0  0
 36 43  1  0  0  0  0
 37 42  1  0  0  0  0
 37 41  1  0  0  0  0
 38 42  1  0  0  0  0
 39 38  1  0  0  0  0
 39 33  1  0  0  0  0
 40 35  2  0  0  0  0
 41 34  1  0  0  0  0
 41 50  1  0  0  0  0
 42 40  1  0  0  0  0
 43 47  1  0  0  0  0
 44 45  1  0  0  0  0
 45 47  1  0  0  0  0
 46 45  1  0  0  0  0
 46 43  1  0  0  0  0
 47 48  1  0  0  0  0
 48 49  1  0  0  0  0
 50 51  2  0  0  0  0
 50 52  1  0  0  0  0
M  END
>  <MODEL>
5

>  <REMARK>
 VINA RESULT:      -5.9      2.395      3.746
  Name = 
  18 active torsions:
  status: ('A' for Active; 'I' for Inactive)
    1  A    between atoms: C_1  and  N_25
    2  A    between atoms: C_3  and  C_31
    3  A    between atoms: C_4  and  O_6
    4  A    between atoms: C_4  and  C_19
    5  A    between atoms: O_6  and  C_33
    6  A    between atoms: C_14  and  C_32
    7  A    between atoms: C_14  and  C_45
    8  A    between atoms: C_15  and  C_19
    9  A    between atoms: C_15  and  O_44
   10  A    between atoms: C_15  and  C_48
   11  A    between atoms: C_16  and  C_31
   12  A    between atoms: C_16  and  C_38
   13  A    between atoms: O_17  and  C_37
   14  A    between atoms: C_20  and  C_38
   15  A    between atoms: C_20  and  C_45
   16  A    between atoms: C_36  and  C_49
   17  A    between atoms: C_39  and  C_40
   18  A    between atoms: C_39  and  O_44
                            x       y       z     vdW  Elec       q    Type
                         _______ _______ _______ _____ _____    ______ ____

>  <TORSDO>
F 18

$$$$
=
 OpenBabel11062415153D

 52 56  0  0  1  0  0  0  0  0999 V2000
  185.9850  178.4870  142.9030 C   0  0  0  0  0  2  0  0  0  0  0  0
  185.5540  177.1200  144.7890 O   0  0  0  0  0  1  0  0  0  0  0  0
  186.3960  178.1330  144.3220 C   0  0  1  0  0  3  0  0  0  0  0  0
  188.0160  176.3610  143.9800 O   0  0  0  0  0  1  0  0  0  0  0  0
  187.8650  177.6960  144.3660 C   0  0  2  0  0  3  0  0  0  0  0  0
  187.6650  178.0940  146.9260 N   0  0  0  0  0  0  0  0  0  0  0  0
  186.2240  178.2470  147.0100 C   0  0  0  0  0  1  0  0  0  0  0  0
  188.4210  177.8790  145.7450 C   0  0  0  0  0  0  0  0  0  0  0  0
  189.7590  177.9850  147.4700 O   0  0  0  0  0  0  0  0  0  0  0  0
  188.5130  178.1680  148.0420 N   0  0  0  0  0  2  0  0  0  0  0  0
  189.6840  177.8260  146.0920 C   0  0  0  0  0  0  0  0  0  0  0  0
  190.8600  177.6080  145.1790 C   0  0  1  0  0  3  0  0  0  0  0  0
  191.0540  178.6760  144.0910 C   0  0  0  0  0  2  0  0  0  0  0  0
  191.6370  178.1070  142.8000 C   0  0  0  0  0  2  0  0  0  0  0  0
  190.7400  177.1630  142.2260 O   0  0  0  0  0  0  0  0  0  0  0  0
  189.0080  178.1930  138.2190 C   0  0  0  0  0  2  0  0  0  0  0  0
  189.5430  176.8040  137.9830 C   0  0  0  0  0  2  0  0  0  0  0  0
  190.8200  176.6840  138.5840 O   0  0  0  0  0  0  0  0  0  0  0  0
  191.0760  176.7930  139.9570 C   0  0  0  0  0  3  0  0  0  0  0  0
  188.3480  178.2420  139.5490 C   0  0  0  0  0  3  0  0  0  0  0  0
  190.2600  177.2600  140.9150 C   0  0  0  0  0  0  0  0  0  0  0  0
  188.9110  177.8490  140.6920 C   0  0  0  0  0  3  0  0  0  0  0  0
  192.0430  177.1820  145.8210 O   0  0  0  0  0  0  0  0  0  0  0  0
  191.9810  175.7930  146.0320 C   0  0  0  0  0  2  0  0  0  0  0  0
  193.1890  176.0090  148.2300 N   0  0  0  0  0  1  0  0  0  0  0  0
  191.1900  174.8410  148.0640 O   0  0  0  0  0  0  0  0  0  0  0  0
  192.0900  175.5030  147.4860 C   0  0  0  0  0  0  0  0  0  0  0  0
  184.5780  178.0010  142.6030 C   0  0  0  0  0  2  0  0  0  0  0  0
  183.6020  179.1650  142.7040 C   0  0  2  0  0  3  0  0  0  0  0  0
  183.0880  179.3340  144.1280 C   0  0  0  0  0  1  0  0  0  0  0  0
  181.2040  178.9690  142.1400 C   0  0  0  0  0  2  0  0  0  0  0  0
  182.4760  179.0110  141.7300 C   0  0  0  0  0  0  0  0  0  0  0  0
  182.8110  178.9330  140.2710 C   0  0  2  0  0  3  0  0  0  0  0  0
  182.1400  175.2450  139.1370 C   0  0  0  0  0  2  0  0  0  0  0  0
  183.3320  175.2650  138.1950 C   0  0  0  0  0  0  0  0  0  0  0  0
  183.7760  174.0210  137.6490 N   0  0  0  0  0  2  0  0  0  0  0  0
  182.9750  177.5070  139.8050 C   0  0  1  0  0  3  0  0  0  0  0  0
  184.9220  178.7930  138.7940 S   0  0  0  0  0  0  0  0  0  0  0  0
  183.9890  179.6620  139.9880 O   0  0  0  0  0  0  0  0  0  0  0  0
  184.0120  176.3580  137.9650 N   0  0  0  0  0  0  0  0  0  0  0  0
  181.7350  176.6210  139.7070 C   0  0  1  0  0  3  0  0  0  0  0  0
  183.5770  177.6580  138.4650 C   0  0  1  0  0  3  0  0  0  0  0  0
  184.8000  173.9270  136.6110 C   0  0  1  0  0  3  0  0  0  0  0  0
  187.3400  172.5500  135.6070 C   0  0  0  0  0  1  0  0  0  0  0  0
  186.2540  172.5380  136.6700 C   0  0  1  0  0  3  0  0  0  0  0  0
  186.0810  173.8350  137.1900 O   0  0  0  0  0  0  0  0  0  0  0  0
  184.8930  172.5320  136.0150 C   0  0  1  0  0  3  0  0  0  0  0  0
  184.0670  171.6130  136.6770 O   0  0  0  0  0  0  0  0  0  0  0  0
  183.8770  170.5820  135.7580 C   0  0  0  0  0  1  0  0  0  0  0  0
  180.6090  177.2340  138.9200 C   0  0  0  0  0  0  0  0  0  0  0  0
  180.6970  177.3760  137.6710 O   0  0  0  0  0  0  0  0  0  0  0  0
  179.4560  177.6380  139.5780 O   0  0  0  0  0  1  0  0  0  0  0  0
  1  3  1  0  0  0  0
  3  5  1  0  0  0  0
  3  2  1  6  0  0  0
  5  4  1  1  0  0  0
  5  8  1  0  0  0  0
  6  7  1  0  0  0  0
  6 10  1  0  0  0  0
  8 11  2  0  0  0  0
  8  6  1  0  0  0  0
  9 10  1  0  0  0  0
 11  9  1  0  0  0  0
 12 13  1  1  0  0  0
 12 23  1  0  0  0  0
 12 11  1  0  0  0  0
 14 13  1  0  0  0  0
 15 14  1  0  0  0  0
 16 20  1  0  0  0  0
 17 16  1  0  0  0  0
 17 18  1  0  0  0  0
 18 19  1  0  0  0  0
 19 21  2  0  0  0  0
 20 22  2  0  0  0  0
 21 15  1  0  0  0  0
 22 21  1  0  0  0  0
 23 24  1  0  0  0  0
 24 27  1  0  0  0  0
 27 26  2  0  0  0  0
 27 25  1  0  0  0  0
 28 29  1  0  0  0  0
 28  1  1  0  0  0  0
 29 30  1  1  0  0  0
 32 31  2  0  0  0  0
 32 29  1  0  0  0  0
 33 32  1  1  0  0  0
 34 41  1  0  0  0  0
 35 34  1  0  0  0  0
 36 35  1  0  0  0  0
 37 33  1  0  0  0  0
 38 39  1  0  0  0  0
 39 33  1  0  0  0  0
 40 35  2  0  0  0  0
 40 42  1  0  0  0  0
 41 37  1  0  0  0  0
 42 38  1  0  0  0  0
 42 37  1  0  0  0  0
 43 46  1  0  0  0  0
 43 36  1  0  0  0  0
 44 45  1  0  0  0  0
 45 46  1  0  0  0  0
 47 43  1  0  0  0  0
 47 45  1  0  0  0  0
 47 48  1  0  0  0  0
 49 48  1  0  0  0  0
 50 52  1  0  0  0  0
 50 41  1  0  0  0  0
 51 50  2  0  0  0  0
M  END
>  <MODEL>
6

>  <REMARK>
 VINA RESULT:      -5.8      3.807      7.812
  Name = 
  18 active torsions:
  status: ('A' for Active; 'I' for Inactive)
    1  A    between atoms: C_1  and  N_25
    2  A    between atoms: C_3  and  C_31
    3  A    between atoms: C_4  and  O_6
    4  A    between atoms: C_4  and  C_19
    5  A    between atoms: O_6  and  C_33
    6  A    between atoms: C_14  and  C_32
    7  A    between atoms: C_14  and  C_45
    8  A    between atoms: C_15  and  C_19
    9  A    between atoms: C_15  and  O_44
   10  A    between atoms: C_15  and  C_48
   11  A    between atoms: C_16  and  C_31
   12  A    between atoms: C_16  and  C_38
   13  A    between atoms: O_17  and  C_37
   14  A    between atoms: C_20  and  C_38
   15  A    between atoms: C_20  and  C_45
   16  A    between atoms: C_36  and  C_49
   17  A    between atoms: C_39  and  C_40
   18  A    between atoms: C_39  and  O_44
                            x       y       z     vdW  Elec       q    Type
                         _______ _______ _______ _____ _____    ______ ____

>  <TORSDO>
F 18

$$$$
=
 OpenBabel11062415153D

 52 56  0  0  1  0  0  0  0  0999 V2000
  185.5930  176.8030  137.0110 C   0  0  0  0  0  2  0  0  0  0  0  0
  184.6150  175.2440  135.5200 O   0  0  0  0  0  1  0  0  0  0  0  0
  184.3110  176.1240  136.5630 C   0  0  1  0  0  3  0  0  0  0  0  0
  184.1710  174.0960  137.8870 O   0  0  0  0  0  1  0  0  0  0  0  0
  183.6520  175.3850  137.7350 C   0  0  2  0  0  3  0  0  0  0  0  0
  181.4790  174.2540  136.8690 N   0  0  0  0  0  0  0  0  0  0  0  0
  182.0790  173.1100  136.2080 C   0  0  0  0  0  1  0  0  0  0  0  0
  182.1710  175.3010  137.5310 C   0  0  0  0  0  0  0  0  0  0  0  0
  180.0180  175.6690  137.6140 O   0  0  0  0  0  0  0  0  0  0  0  0
  180.0940  174.4790  136.9110 N   0  0  0  0  0  2  0  0  0  0  0  0
  181.2720  176.1510  137.9650 C   0  0  0  0  0  0  0  0  0  0  0  0
  181.5300  177.4200  138.7330 C   0  0  1  0  0  3  0  0  0  0  0  0
  181.8650  177.2300  140.2210 C   0  0  0  0  0  2  0  0  0  0  0  0
  182.9970  178.1390  140.6940 C   0  0  0  0  0  2  0  0  0  0  0  0
  182.6240  178.8100  141.8920 O   0  0  0  0  0  0  0  0  0  0  0  0
  185.6810  178.9760  145.1710 C   0  0  0  0  0  2  0  0  0  0  0  0
  184.4320  178.5940  145.9240 C   0  0  0  0  0  2  0  0  0  0  0  0
  183.3440  179.3690  145.4520 O   0  0  0  0  0  0  0  0  0  0  0  0
  182.8390  179.3340  144.1460 C   0  0  0  0  0  3  0  0  0  0  0  0
  185.7350  178.2120  143.8980 C   0  0  0  0  0  3  0  0  0  0  0  0
  183.4000  178.7850  143.0580 C   0  0  0  0  0  0  0  0  0  0  0  0
  184.7490  178.1570  143.0010 C   0  0  0  0  0  3  0  0  0  0  0  0
  182.3190  178.3760  138.0570 O   0  0  0  0  0  0  0  0  0  0  0  0
  181.5040  179.1090  137.1750 C   0  0  0  0  0  2  0  0  0  0  0  0
  180.1030  181.1980  137.2620 N   0  0  0  0  0  1  0  0  0  0  0  0
  181.8430  180.8520  138.7590 O   0  0  0  0  0  0  0  0  0  0  0  0
  181.1830  180.4300  137.7740 C   0  0  0  0  0  0  0  0  0  0  0  0
  186.8110  176.1300  136.4010 C   0  0  0  0  0  2  0  0  0  0  0  0
  188.0440  176.9880  136.6440 C   0  0  2  0  0  3  0  0  0  0  0  0
  189.0120  176.9110  135.4700 C   0  0  0  0  0  1  0  0  0  0  0  0
  189.1350  175.3690  138.1610 C   0  0  0  0  0  2  0  0  0  0  0  0
  188.7130  176.6180  137.9310 C   0  0  0  0  0  0  0  0  0  0  0  0
  188.9240  177.6950  138.9520 C   0  0  2  0  0  3  0  0  0  0  0  0
  190.4720  175.9870  142.1180 C   0  0  0  0  0  2  0  0  0  0  0  0
  189.6950  176.9000  143.0510 C   0  0  0  0  0  0  0  0  0  0  0  0
  189.6530  176.5620  144.4400 N   0  0  0  0  0  2  0  0  0  0  0  0
  189.1410  177.1290  140.3340 C   0  0  1  0  0  3  0  0  0  0  0  0
  187.5070  179.0550  140.6230 S   0  0  0  0  0  0  0  0  0  0  0  0
  187.8280  178.5880  138.9720 O   0  0  0  0  0  0  0  0  0  0  0  0
  188.9890  177.9060  142.6040 N   0  0  0  0  0  0  0  0  0  0  0  0
  190.4500  176.4020  140.6320 C   0  0  1  0  0  3  0  0  0  0  0  0
  189.0290  178.3160  141.2050 C   0  0  1  0  0  3  0  0  0  0  0  0
  189.0810  177.4400  145.4570 C   0  0  1  0  0  3  0  0  0  0  0  0
  188.0960  177.7600  148.3350 C   0  0  0  0  0  1  0  0  0  0  0  0
  188.7760  176.8250  147.3480 C   0  0  1  0  0  3  0  0  0  0  0  0
  188.0420  176.7850  146.1460 O   0  0  0  0  0  0  0  0  0  0  0  0
  189.9480  177.5240  146.7020 C   0  0  1  0  0  3  0  0  0  0  0  0
  191.0390  176.6450  146.6540 O   0  0  0  0  0  0  0  0  0  0  0  0
  191.7030  176.8360  147.8650 C   0  0  0  0  0  1  0  0  0  0  0  0
  191.6800  177.1850  140.2590 C   0  0  0  0  0  0  0  0  0  0  0  0
  191.9840  177.3710  139.0510 O   0  0  0  0  0  0  0  0  0  0  0  0
  192.4810  177.7160  141.2600 O   0  0  0  0  0  1  0  0  0  0  0  0
  3  2  1  6  0  0  0
  3  1  1  0  0  0  0
  3  5  1  0  0  0  0
  5  4  1  6  0  0  0
  6 10  1  0  0  0  0
  6  8  1  0  0  0  0
  7  6  1  0  0  0  0
  8  5  1  0  0  0  0
  8 11  2  0  0  0  0
  9 11  1  0  0  0  0
 10  9  1  0  0  0  0
 11 12  1  0  0  0  0
 12 13  1  1  0  0  0
 13 14  1  0  0  0  0
 14 15  1  0  0  0  0
 15 21  1  0  0  0  0
 16 17  1  0  0  0  0
 18 17  1  0  0  0  0
 19 18  1  0  0  0  0
 20 16  1  0  0  0  0
 21 19  2  0  0  0  0
 22 21  1  0  0  0  0
 22 20  2  0  0  0  0
 23 12  1  0  0  0  0
 24 27  1  0  0  0  0
 24 23  1  0  0  0  0
 25 27  1  0  0  0  0
 27 26  2  0  0  0  0
 28 29  1  0  0  0  0
 28  1  1  0  0  0  0
 29 30  1  6  0  0  0
 29 32  1  0  0  0  0
 32 31  2  0  0  0  0
 33 32  1  6  0  0  0
 33 39  1  0  0  0  0
 33 37  1  0  0  0  0
 34 35  1  0  0  0  0
 35 36  1  0  0  0  0
 36 43  1  0  0  0  0
 37 41  1  0  0  0  0
 37 42  1  0  0  0  0
 38 42  1  0  0  0  0
 39 38  1  0  0  0  0
 40 35  2  0  0  0  0
 41 34  1  0  0  0  0
 42 40  1  0  0  0  0
 43 46  1  0  0  0  0
 43 47  1  0  0  0  0
 45 44  1  0  0  0  0
 46 45  1  0  0  0  0
 47 45  1  0  0  0  0
 48 47  1  0  0  0  0
 48 49  1  0  0  0  0
 50 41  1  0  0  0  0
 50 52  1  0  0  0  0
 51 50  2  0  0  0  0
M  END
>  <MODEL>
7

>  <REMARK>
 VINA RESULT:      -5.7      3.725      7.258
  Name = 
  18 active torsions:
  status: ('A' for Active; 'I' for Inactive)
    1  A    between atoms: C_1  and  N_25
    2  A    between atoms: C_3  and  C_31
    3  A    between atoms: C_4  and  O_6
    4  A    between atoms: C_4  and  C_19
    5  A    between atoms: O_6  and  C_33
    6  A    between atoms: C_14  and  C_32
    7  A    between atoms: C_14  and  C_45
    8  A    between atoms: C_15  and  C_19
    9  A    between atoms: C_15  and  O_44
   10  A    between atoms: C_15  and  C_48
   11  A    between atoms: C_16  and  C_31
   12  A    between atoms: C_16  and  C_38
   13  A    between atoms: O_17  and  C_37
   14  A    between atoms: C_20  and  C_38
   15  A    between atoms: C_20  and  C_45
   16  A    between atoms: C_36  and  C_49
   17  A    between atoms: C_39  and  C_40
   18  A    between atoms: C_39  and  O_44
                            x       y       z     vdW  Elec       q    Type
                         _______ _______ _______ _____ _____    ______ ____

>  <TORSDO>
F 18

$$$$
=
 OpenBabel11062415153D

 52 56  0  0  1  0  0  0  0  0999 V2000
  185.5450  177.9920  143.2040 C   0  0  0  0  0  2  0  0  0  0  0  0
  184.3840  178.5780  145.1840 O   0  0  0  0  0  1  0  0  0  0  0  0
  184.1900  178.2570  143.8380 C   0  0  1  0  0  3  0  0  0  0  0  0
  183.0040  180.3680  143.9860 O   0  0  0  0  0  1  0  0  0  0  0  0
  183.4590  179.3850  143.1010 C   0  0  2  0  0  3  0  0  0  0  0  0
  181.0160  178.5350  142.8580 N   0  0  0  0  0  0  0  0  0  0  0  0
  180.6130  178.6320  144.2490 C   0  0  0  0  0  1  0  0  0  0  0  0
  182.2980  178.8380  142.3300 C   0  0  0  0  0  0  0  0  0  0  0  0
  180.9800  178.1530  140.7260 O   0  0  0  0  0  0  0  0  0  0  0  0
  180.1600  178.0900  141.8390 N   0  0  0  0  0  2  0  0  0  0  0  0
  182.2590  178.5910  141.0420 C   0  0  0  0  0  0  0  0  0  0  0  0
  183.3840  178.7680  140.0590 C   0  0  1  0  0  3  0  0  0  0  0  0
  183.6690  177.5550  139.1600 C   0  0  0  0  0  2  0  0  0  0  0  0
  184.5910  177.8880  137.9900 C   0  0  0  0  0  2  0  0  0  0  0  0
  185.0720  176.6940  137.3840 O   0  0  0  0  0  0  0  0  0  0  0  0
  189.2370  177.0260  135.7520 C   0  0  0  0  0  2  0  0  0  0  0  0
  188.7340  175.7740  135.0800 C   0  0  0  0  0  2  0  0  0  0  0  0
  188.0270  174.9870  136.0210 O   0  0  0  0  0  0  0  0  0  0  0  0
  186.8510  175.3790  136.6750 C   0  0  0  0  0  3  0  0  0  0  0  0
  188.1600  178.0490  135.7450 C   0  0  0  0  0  3  0  0  0  0  0  0
  186.3130  176.6060  136.7410 C   0  0  0  0  0  0  0  0  0  0  0  0
  186.9180  177.8490  136.1880 C   0  0  0  0  0  3  0  0  0  0  0  0
  183.4130  180.0200  139.4060 O   0  0  0  0  0  0  0  0  0  0  0  0
  182.3870  180.0640  138.4440 C   0  0  0  0  0  2  0  0  0  0  0  0
  180.3730  181.2030  139.4330 N   0  0  0  0  0  1  0  0  0  0  0  0
  181.9240  182.3810  138.1700 O   0  0  0  0  0  0  0  0  0  0  0  0
  181.5570  181.2790  138.6530 C   0  0  0  0  0  0  0  0  0  0  0  0
  186.6650  178.5880  144.0380 C   0  0  0  0  0  2  0  0  0  0  0  0
  187.5150  177.4710  144.6260 C   0  0  2  0  0  3  0  0  0  0  0  0
  188.3720  177.9760  145.7800 C   0  0  0  0  0  1  0  0  0  0  0  0
  188.1530  175.5390  143.2220 C   0  0  0  0  0  2  0  0  0  0  0  0
  188.3500  176.8160  143.5700 C   0  0  0  0  0  0  0  0  0  0  0  0
  189.4010  177.6390  142.8890 C   0  0  2  0  0  3  0  0  0  0  0  0
  189.6100  176.3940  139.1820 C   0  0  0  0  0  2  0  0  0  0  0  0
  191.1150  176.5950  139.1470 C   0  0  0  0  0  0  0  0  0  0  0  0
  191.8420  176.0300  138.0530 N   0  0  0  0  0  2  0  0  0  0  0  0
  189.8560  177.0150  141.5930 C   0  0  1  0  0  3  0  0  0  0  0  0
  191.9760  177.7560  142.7860 S   0  0  0  0  0  0  0  0  0  0  0  0
  190.5140  177.8320  143.7380 O   0  0  0  0  0  0  0  0  0  0  0  0
  191.7580  177.1680  140.1300 N   0  0  0  0  0  0  0  0  0  0  0  0
  188.8970  177.0090  140.4050 C   0  0  1  0  0  3  0  0  0  0  0  0
  191.0610  177.7960  141.2480 C   0  0  1  0  0  3  0  0  0  0  0  0
  193.2610  176.2910  137.8200 C   0  0  1  0  0  3  0  0  0  0  0  0
  196.0370  175.1430  137.2480 C   0  0  0  0  0  1  0  0  0  0  0  0
  194.5590  174.8160  137.3920 C   0  0  1  0  0  3  0  0  0  0  0  0
  194.0550  175.4010  138.5690 O   0  0  0  0  0  0  0  0  0  0  0  0
  193.7440  175.7190  136.4980 C   0  0  1  0  0  3  0  0  0  0  0  0
  192.7580  174.9590  135.8520 O   0  0  0  0  0  0  0  0  0  0  0  0
  192.6250  175.5470  134.5950 C   0  0  0  0  0  1  0  0  0  0  0  0
  188.3180  178.3610  140.0840 C   0  0  0  0  0  0  0  0  0  0  0  0
  187.4480  178.8830  140.8300 O   0  0  0  0  0  1  0  0  0  0  0  0
  188.7560  179.0420  138.9570 O   0  0  0  0  0  0  0  0  0  0  0  0
  1  3  1  0  0  0  0
  1 28  1  0  0  0  0
  3  2  1  1  0  0  0
  5  3  1  0  0  0  0
  5  4  1  1  0  0  0
  6  7  1  0  0  0  0
  8  6  1  0  0  0  0
  8  5  1  0  0  0  0
  9 11  1  0  0  0  0
  9 10  1  0  0  0  0
 10  6  1  0  0  0  0
 11  8  2  0  0  0  0
 12 13  1  6  0  0  0
 12 11  1  0  0  0  0
 14 13  1  0  0  0  0
 15 14  1  0  0  0  0
 17 16  1  0  0  0  0
 17 18  1  0  0  0  0
 18 19  1  0  0  0  0
 19 21  2  0  0  0  0
 20 16  1  0  0  0  0
 20 22  2  0  0  0  0
 21 15  1  0  0  0  0
 22 21  1  0  0  0  0
 23 12  1  0  0  0  0
 24 27  1  0  0  0  0
 24 23  1  0  0  0  0
 26 27  2  0  0  0  0
 27 25  1  0  0  0  0
 28 29  1  0  0  0  0
 29 30  1  1  0  0  0
 31 32  2  0  0  0  0
 32 29  1  0  0  0  0
 33 32  1  1  0  0  0
 33 39  1  0  0  0  0
 34 41  1  0  0  0  0
 35 34  1  0  0  0  0
 35 40  2  0  0  0  0
 36 35  1  0  0  0  0
 37 33  1  0  0  0  0
 38 39  1  0  0  0  0
 40 42  1  0  0  0  0
 41 37  1  0  0  0  0
 42 37  1  0  0  0  0
 42 38  1  0  0  0  0
 43 36  1  0  0  0  0
 43 46  1  0  0  0  0
 44 45  1  0  0  0  0
 45 46  1  0  0  0  0
 47 45  1  0  0  0  0
 47 43  1  0  0  0  0
 48 47  1  0  0  0  0
 49 48  1  0  0  0  0
 50 41  1  0  0  0  0
 50 51  1  0  0  0  0
 52 50  2  0  0  0  0
M  END
>  <MODEL>
8

>  <REMARK>
 VINA RESULT:      -5.6      2.476      5.967
  Name = 
  18 active torsions:
  status: ('A' for Active; 'I' for Inactive)
    1  A    between atoms: C_1  and  N_25
    2  A    between atoms: C_3  and  C_31
    3  A    between atoms: C_4  and  O_6
    4  A    between atoms: C_4  and  C_19
    5  A    between atoms: O_6  and  C_33
    6  A    between atoms: C_14  and  C_32
    7  A    between atoms: C_14  and  C_45
    8  A    between atoms: C_15  and  C_19
    9  A    between atoms: C_15  and  O_44
   10  A    between atoms: C_15  and  C_48
   11  A    between atoms: C_16  and  C_31
   12  A    between atoms: C_16  and  C_38
   13  A    between atoms: O_17  and  C_37
   14  A    between atoms: C_20  and  C_38
   15  A    between atoms: C_20  and  C_45
   16  A    between atoms: C_36  and  C_49
   17  A    between atoms: C_39  and  C_40
   18  A    between atoms: C_39  and  O_44
                            x       y       z     vdW  Elec       q    Type
                         _______ _______ _______ _____ _____    ______ ____

>  <TORSDO>
F 18

$$$$
=
 OpenBabel11062415153D

 52 56  0  0  1  0  0  0  0  0999 V2000
  184.8770  177.5730  137.3720 C   0  0  0  0  0  2  0  0  0  0  0  0
  183.8310  175.5540  138.0330 O   0  0  0  0  0  1  0  0  0  0  0  0
  183.7140  176.6250  137.1430 C   0  0  1  0  0  3  0  0  0  0  0  0
  182.5570  178.6240  137.8840 O   0  0  0  0  0  1  0  0  0  0  0  0
  182.3770  177.3530  137.3280 C   0  0  2  0  0  3  0  0  0  0  0  0
  180.6670  175.4540  137.7960 N   0  0  0  0  0  0  0  0  0  0  0  0
  180.5320  174.9460  136.4430 C   0  0  0  0  0  1  0  0  0  0  0  0
  181.4650  176.5530  138.2060 C   0  0  0  0  0  0  0  0  0  0  0  0
  180.4080  175.7230  139.9300 O   0  0  0  0  0  0  0  0  0  0  0  0
  179.9790  174.9130  138.8930 N   0  0  0  0  0  2  0  0  0  0  0  0
  181.2870  176.7060  139.4960 C   0  0  0  0  0  0  0  0  0  0  0  0
  181.9320  177.7430  140.3760 C   0  0  1  0  0  3  0  0  0  0  0  0
  183.4210  177.5130  140.6800 C   0  0  0  0  0  2  0  0  0  0  0  0
  184.1900  178.8150  140.8940 C   0  0  0  0  0  2  0  0  0  0  0  0
  183.8260  179.4040  142.1370 O   0  0  0  0  0  0  0  0  0  0  0  0
  186.1600  178.3020  145.8050 C   0  0  0  0  0  2  0  0  0  0  0  0
  184.7510  177.9580  146.2130 C   0  0  0  0  0  2  0  0  0  0  0  0
  183.8740  178.9850  145.7870 O   0  0  0  0  0  0  0  0  0  0  0  0
  183.6410  179.3400  144.4520 C   0  0  0  0  0  3  0  0  0  0  0  0
  186.3830  177.8620  144.4030 C   0  0  0  0  0  3  0  0  0  0  0  0
  184.3440  178.9810  143.3670 C   0  0  0  0  0  0  0  0  0  0  0  0
  185.5980  178.1780  143.3730 C   0  0  0  0  0  3  0  0  0  0  0  0
  181.5780  179.0780  140.0820 O   0  0  0  0  0  0  0  0  0  0  0  0
  180.1980  179.2480  140.2920 C   0  0  0  0  0  2  0  0  0  0  0  0
  179.5850  181.6430  139.8240 N   0  0  0  0  0  1  0  0  0  0  0  0
  179.9730  180.9010  141.9880 O   0  0  0  0  0  0  0  0  0  0  0  0
  179.9300  180.6330  140.7600 C   0  0  0  0  0  0  0  0  0  0  0  0
  186.2060  176.8830  137.1180 C   0  0  0  0  0  2  0  0  0  0  0  0
  186.9080  177.5430  135.9410 C   0  0  2  0  0  3  0  0  0  0  0  0
  186.1080  177.3800  134.6550 C   0  0  0  0  0  1  0  0  0  0  0  0
  189.1620  177.5860  134.9250 C   0  0  0  0  0  2  0  0  0  0  0  0
  188.3050  177.0260  135.7870 C   0  0  0  0  0  0  0  0  0  0  0  0
  188.7290  175.8750  136.6470 C   0  0  2  0  0  3  0  0  0  0  0  0
  192.2750  176.7480  138.0600 C   0  0  0  0  0  2  0  0  0  0  0  0
  192.7270  175.3010  137.9610 C   0  0  0  0  0  0  0  0  0  0  0  0
  194.1200  175.0210  138.1100 N   0  0  0  0  0  2  0  0  0  0  0  0
  190.2110  175.8990  136.9310 C   0  0  1  0  0  3  0  0  0  0  0  0
  189.6600  173.4900  136.3350 S   0  0  0  0  0  0  0  0  0  0  0  0
  188.3830  174.6440  136.0440 O   0  0  0  0  0  0  0  0  0  0  0  0
  191.8990  174.3400  137.6400 N   0  0  0  0  0  0  0  0  0  0  0  0
  190.7620  176.9760  137.8640 C   0  0  1  0  0  3  0  0  0  0  0  0
  190.4630  174.5670  137.5170 C   0  0  1  0  0  3  0  0  0  0  0  0
  194.6550  173.6640  138.1980 C   0  0  1  0  0  3  0  0  0  0  0  0
  196.8480  171.6960  137.3800 C   0  0  0  0  0  1  0  0  0  0  0  0
  196.3920  173.1440  137.3270 C   0  0  1  0  0  3  0  0  0  0  0  0
  195.0440  173.2050  136.9240 O   0  0  0  0  0  0  0  0  0  0  0  0
  196.0830  173.6380  138.7190 C   0  0  1  0  0  3  0  0  0  0  0  0
  196.6160  174.9240  138.8820 O   0  0  0  0  0  0  0  0  0  0  0  0
  196.9800  174.9900  140.2260 C   0  0  0  0  0  1  0  0  0  0  0  0
  190.0410  177.0670  139.1810 C   0  0  0  0  0  0  0  0  0  0  0  0
  190.6400  176.8230  140.2620 O   0  0  0  0  0  1  0  0  0  0  0  0
  188.7030  177.4340  139.2040 O   0  0  0  0  0  0  0  0  0  0  0  0
  3  5  1  0  0  0  0
  3  1  1  0  0  0  0
  3  2  1  1  0  0  0
  5  4  1  1  0  0  0
  5  8  1  0  0  0  0
  6  8  1  0  0  0  0
  6 10  1  0  0  0  0
  7  6  1  0  0  0  0
  8 11  2  0  0  0  0
 10  9  1  0  0  0  0
 11  9  1  0  0  0  0
 11 12  1  0  0  0  0
 12 13  1  6  0  0  0
 13 14  1  0  0  0  0
 14 15  1  0  0  0  0
 15 21  1  0  0  0  0
 16 17  1  0  0  0  0
 18 17  1  0  0  0  0
 19 18  1  0  0  0  0
 20 16  1  0  0  0  0
 21 22  1  0  0  0  0
 21 19  2  0  0  0  0
 22 20  2  0  0  0  0
 23 24  1  0  0  0  0
 23 12  1  0  0  0  0
 24 27  1  0  0  0  0
 25 27  1  0  0  0  0
 27 26  2  0  0  0  0
 28  1  1  0  0  0  0
 29 30  1  6  0  0  0
 29 28  1  0  0  0  0
 31 32  2  0  0  0  0
 32 29  1  0  0  0  0
 33 32  1  6  0  0  0
 33 37  1  0  0  0  0
 35 34  1  0  0  0  0
 35 36  1  0  0  0  0
 36 43  1  0  0  0  0
 37 42  1  0  0  0  0
 37 41  1  0  0  0  0
 38 42  1  0  0  0  0
 39 38  1  0  0  0  0
 39 33  1  0  0  0  0
 40 35  2  0  0  0  0
 41 34  1  0  0  0  0
 41 50  1  0  0  0  0
 42 40  1  0  0  0  0
 43 47  1  0  0  0  0
 45 44  1  0  0  0  0
 45 47  1  0  0  0  0
 46 45  1  0  0  0  0
 46 43  1  0  0  0  0
 47 48  1  0  0  0  0
 48 49  1  0  0  0  0
 50 52  2  0  0  0  0
 50 51  1  0  0  0  0
M  END
>  <MODEL>
9

>  <REMARK>
 VINA RESULT:      -5.3      2.596      4.100
  Name = 
  18 active torsions:
  status: ('A' for Active; 'I' for Inactive)
    1  A    between atoms: C_1  and  N_25
    2  A    between atoms: C_3  and  C_31
    3  A    between atoms: C_4  and  O_6
    4  A    between atoms: C_4  and  C_19
    5  A    between atoms: O_6  and  C_33
    6  A    between atoms: C_14  and  C_32
    7  A    between atoms: C_14  and  C_45
    8  A    between atoms: C_15  and  C_19
    9  A    between atoms: C_15  and  O_44
   10  A    between atoms: C_15  and  C_48
   11  A    between atoms: C_16  and  C_31
   12  A    between atoms: C_16  and  C_38
   13  A    between atoms: O_17  and  C_37
   14  A    between atoms: C_20  and  C_38
   15  A    between atoms: C_20  and  C_45
   16  A    between atoms: C_36  and  C_49
   17  A    between atoms: C_39  and  C_40
   18  A    between atoms: C_39  and  O_44
                            x       y       z     vdW  Elec       q    Type
                         _______ _______ _______ _____ _____    ______ ____

>  <TORSDO>
F 18

$$$$
