=
 OpenBabel11062410583D

 49 52  0  0  1  0  0  0  0  0999 V2000
  186.1630  178.7240  141.7750 C   0  0  0  0  0  2  0  0  0  0  0  0
  188.7350  175.7880  134.8180 C   0  0  2  0  0  3  0  0  0  0  0  0
  186.4110  175.7210  135.5360 N   0  0  0  0  0  2  0  0  0  0  0  0
  190.0590  176.5450  134.9720 C   0  0  0  0  0  2  0  0  0  0  0  0
  188.9650  178.1590  142.9940 C   0  0  2  0  0  3  0  0  0  0  0  0
  185.6110  175.6430  136.7490 C   0  0  2  0  0  3  0  0  0  0  0  0
  189.4030  177.1150  139.5050 C   0  0  2  0  0  3  0  0  0  0  0  0
  184.5060  177.6070  135.7060 O   0  0  0  0  0  1  0  0  0  0  0  0
  192.9380  174.6950  136.0390 C   0  0  0  0  0  0  0  0  0  0  0  0
  188.3130  177.4000  141.8250 C   0  0  1  0  0  3  0  0  0  0  0  0
  188.9350  175.8770  138.7580 C   0  0  0  0  0  2  0  0  0  0  0  0
  184.1740  175.2950  136.3630 C   0  0  0  0  0  2  0  0  0  0  0  0
  185.2470  179.5310  140.8650 C   0  0  0  0  0  2  0  0  0  0  0  0
  187.7470  176.1390  135.9160 C   0  0  0  0  0  2  0  0  0  0  0  0
  190.6680  177.0880  137.4130 C   0  0  0  0  0  2  0  0  0  0  0  0
  190.3920  176.3020  138.6840 C   0  0  1  0  0  3  0  0  0  0  0  0
  187.4290  178.3620  141.0240 C   0  0  0  0  0  2  0  0  0  0  0  0
  190.8200  176.2030  136.2210 C   0  0  0  0  0  0  0  0  0  0  0  0
  185.8990  178.6020  138.2830 O   0  0  0  0  0  0  0  0  0  0  0  0
  190.6700  177.3970  141.6360 C   0  0  0  0  0  0  0  0  0  0  0  0
  190.3590  178.1460  142.7480 O   0  0  0  0  0  0  0  0  0  0  0  0
  184.4350  178.6590  140.0770 O   0  0  0  0  0  0  0  0  0  0  0  0
  184.5230  176.7090  136.7730 C   0  0  1  0  0  0  0  0  0  0  0  0
  184.8350  178.1810  138.8230 C   0  0  0  0  0  0  0  0  0  0  0  0
  183.9540  177.1880  138.1190 C   0  0  2  0  0  3  0  0  0  0  0  0
  188.9520  174.2820  134.7070 C   0  0  0  0  0  1  0  0  0  0  0  0
  191.8540  177.2060  141.2550 O   0  0  0  0  0  0  0  0  0  0  0  0
  189.4780  176.7940  140.9980 C   0  0  2  0  0  3  0  0  0  0  0  0
  191.8760  175.4480  136.1250 C   0  0  0  0  0  0  0  0  0  0  0  0
  193.5520  174.4470  134.7240 C   0  0  0  0  0  3  0  0  0  0  0  0
  194.7910  174.2590  134.5940 O   0  0  0  0  0  0  0  0  0  0  0  0
  187.6640  176.5000  144.1620 O   0  0  0  0  0  1  0  0  0  0  0  0
  188.6470  177.4840  144.3250 C   0  0  0  0  0  2  0  0  0  0  0  0
  193.4430  174.1310  137.2220 O   0  0  0  0  0  0  0  0  0  0  0  0
  194.4140  174.7020  138.0570 C   0  0  0  0  0  0  0  0  0  0  0  0
  194.3700  175.9150  138.3860 O   0  0  0  0  0  0  0  0  0  0  0  0
  195.4870  173.8390  138.6140 C   0  0  0  0  0  2  0  0  0  0  0  0
  196.3200  174.6310  139.6030 C   0  0  0  0  0  1  0  0  0  0  0  0
  183.6590  176.1190  138.9820 O   0  0  0  0  0  0  0  0  0  0  0  0
  182.6720  176.5600  139.7420 O   0  0  0  0  0  0  0  0  0  0  0  0
  181.3480  175.0090  138.7380 O   0  0  0  0  0  1  0  0  0  0  0  0
  181.5180  176.3700  138.9810 C   0  0  1  0  0  3  0  0  0  0  0  0
  180.4160  176.8570  139.6830 O   0  0  0  0  0  0  0  0  0  0  0  0
  180.8520  178.0600  140.2230 C   0  0  0  0  0  2  0  0  0  0  0  0
  179.6700  178.8090  140.8100 C   0  0  0  0  0  2  0  0  0  0  0  0
  180.0680  179.3210  142.5500 P   0  0  1  0  0  0  0  0  0  0  0  0
  179.5700  177.8260  143.2810 O   0  0  0  0  0  1  0  0  0  0  0  0
  181.8770  178.9000  142.4930 C   0  0  0  0  0  2  0  0  0  0  0  0
  182.4630  179.0720  143.8160 N   0  0  0  0  0  1  0  0  0  0  0  0
  2 26  1  1  0  0  0
  2  4  1  0  0  0  0
  2 14  1  0  0  0  0
  3 14  1  0  0  0  0
  3  6  1  0  0  0  0
  4 18  1  0  0  0  0
  5 33  1  1  0  0  0
  6 12  1  6  0  0  0
  6 23  1  0  0  0  0
  7 11  1  6  0  0  0
  7 28  1  0  0  0  0
  9 29  2  0  0  0  0
  9 34  1  0  0  0  0
 10 17  1  6  0  0  0
 10  5  1  0  0  0  0
 12 23  1  0  0  0  0
 13  1  1  0  0  0  0
 16 15  1  6  0  0  0
 16 11  1  0  0  0  0
 16  7  1  0  0  0  0
 17  1  1  0  0  0  0
 18 15  1  0  0  0  0
 19 24  2  0  0  0  0
 20 21  1  0  0  0  0
 21  5  1  0  0  0  0
 22 13  1  0  0  0  0
 23  8  1  6  0  0  0
 23 25  1  0  0  0  0
 24 22  1  0  0  0  0
 25 24  1  0  0  0  0
 25 39  1  1  0  0  0
 27 20  2  0  0  0  0
 28 20  1  1  0  0  0
 28 10  1  0  0  0  0
 29 18  2  0  0  0  0
 30  9  1  0  0  0  0
 31 30  2  0  0  0  0
 32 33  1  0  0  0  0
 34 35  1  0  0  0  0
 35 36  2  0  0  0  0
 35 37  1  0  0  0  0
 37 38  1  0  0  0  0
 39 40  1  0  0  0  0
 42 41  1  1  0  0  0
 42 43  1  0  0  0  0
 42 40  1  0  0  0  0
 43 44  1  0  0  0  0
 44 45  1  0  0  0  0
 45 46  1  0  0  0  0
 46 47  1  1  0  0  0
 48 46  1  0  0  0  0
 48 49  1  0  0  0  0
M  END
>  <MODEL>
1

>  <REMARK>
 VINA RESULT:      -6.3      0.000      0.000
  Name = 
  13 active torsions:
  status: ('A' for Active; 'I' for Inactive)
    1  A    between atoms: C_2  and  P_27
    2  A    between atoms: O_5  and  C_20
    3  A    between atoms: O_5  and  C_21
    4  A    between atoms: O_6  and  C_12
    5  A    between atoms: O_6  and  O_14
    6  A    between atoms: C_7  and  C_21
    7  A    between atoms: C_9  and  C_20
    8  A    between atoms: C_11  and  C_43
    9  A    between atoms: C_12  and  O_16
   10  A    between atoms: O_14  and  C_44
   11  A    between atoms: O_16  and  C_17
   12  A    between atoms: C_17  and  C_45
   13  A    between atoms: P_27  and  C_45
                            x       y       z     vdW  Elec       q    Type
                         _______ _______ _______ _____ _____    ______ ____

>  <TORSDO>
F 13

$$$$
=
 OpenBabel11062410583D

 49 52  0  0  1  0  0  0  0  0999 V2000
  185.8110  178.6180  141.6550 C   0  0  0  0  0  2  0  0  0  0  0  0
  189.2340  175.8470  135.0030 C   0  0  2  0  0  3  0  0  0  0  0  0
  186.8560  175.6530  135.4810 N   0  0  0  0  0  2  0  0  0  0  0  0
  190.4920  176.6740  135.2900 C   0  0  0  0  0  2  0  0  0  0  0  0
  188.5000  178.2010  143.1550 C   0  0  2  0  0  3  0  0  0  0  0  0
  185.9420  175.5280  136.6060 C   0  0  2  0  0  3  0  0  0  0  0  0
  189.3480  177.1930  139.7320 C   0  0  2  0  0  3  0  0  0  0  0  0
  184.8440  177.4320  135.4520 O   0  0  0  0  0  1  0  0  0  0  0  0
  193.3430  174.9790  136.6500 C   0  0  0  0  0  0  0  0  0  0  0  0
  188.0130  177.4110  141.9270 C   0  0  1  0  0  3  0  0  0  0  0  0
  189.0260  175.9340  138.9440 C   0  0  0  0  0  2  0  0  0  0  0  0
  184.5720  175.1040  136.0770 C   0  0  0  0  0  2  0  0  0  0  0  0
  184.9500  179.3770  140.6550 C   0  0  0  0  0  2  0  0  0  0  0  0
  188.1210  176.1410  135.9950 C   0  0  0  0  0  2  0  0  0  0  0  0
  190.8190  177.2410  137.7800 C   0  0  0  0  0  2  0  0  0  0  0  0
  190.4570  176.4370  139.0170 C   0  0  1  0  0  3  0  0  0  0  0  0
  187.1640  178.3270  141.0380 C   0  0  0  0  0  2  0  0  0  0  0  0
  191.1390  176.3690  136.6120 C   0  0  0  0  0  0  0  0  0  0  0  0
  185.9110  178.4930  138.1550 O   0  0  0  0  0  0  0  0  0  0  0  0
  190.3730  177.5360  141.9800 C   0  0  0  0  0  0  0  0  0  0  0  0
  189.9100  178.2640  143.0530 O   0  0  0  0  0  0  0  0  0  0  0  0
  184.2710  178.4650  139.7900 O   0  0  0  0  0  0  0  0  0  0  0  0
  184.8000  176.5330  136.5170 C   0  0  1  0  0  0  0  0  0  0  0  0
  184.8220  178.0140  138.5850 C   0  0  0  0  0  0  0  0  0  0  0  0
  184.0720  176.9760  137.7970 C   0  0  2  0  0  3  0  0  0  0  0  0
  189.5420  174.3560  134.9190 C   0  0  0  0  0  1  0  0  0  0  0  0
  191.5980  177.4110  141.7220 O   0  0  0  0  0  0  0  0  0  0  0  0
  189.2870  176.8720  141.2250 C   0  0  2  0  0  3  0  0  0  0  0  0
  192.2390  175.6730  136.6250 C   0  0  0  0  0  0  0  0  0  0  0  0
  194.1010  174.7690  135.4050 C   0  0  0  0  0  3  0  0  0  0  0  0
  194.3200  175.7070  134.5940 O   0  0  0  0  0  0  0  0  0  0  0  0
  187.0630  178.2170  145.0900 O   0  0  0  0  0  1  0  0  0  0  0  0
  188.0850  177.5060  144.4490 C   0  0  0  0  0  2  0  0  0  0  0  0
  193.7540  174.4390  137.8790 O   0  0  0  0  0  0  0  0  0  0  0  0
  195.0560  174.0320  138.2060 C   0  0  0  0  0  0  0  0  0  0  0  0
  195.9490  174.8610  138.5160 O   0  0  0  0  0  0  0  0  0  0  0  0
  195.3720  172.5810  138.2410 C   0  0  0  0  0  2  0  0  0  0  0  0
  196.5930  172.3010  137.3870 C   0  0  0  0  0  1  0  0  0  0  0  0
  183.7490  175.8900  138.6270 O   0  0  0  0  0  0  0  0  0  0  0  0
  182.6020  175.4330  138.1540 O   0  0  0  0  0  0  0  0  0  0  0  0
  180.5400  176.2430  137.6460 O   0  0  0  0  0  1  0  0  0  0  0  0
  181.6730  176.4370  138.4320 C   0  0  1  0  0  3  0  0  0  0  0  0
  181.3190  176.3790  139.7800 O   0  0  0  0  0  0  0  0  0  0  0  0
  180.1260  177.0870  139.8570 C   0  0  0  0  0  2  0  0  0  0  0  0
  179.8950  177.5350  141.2880 C   0  0  0  0  0  2  0  0  0  0  0  0
  181.1780  178.7940  141.7540 P   0  0  1  0  0  0  0  0  0  0  0  0
  181.0210  179.7360  140.3040 O   0  0  0  0  0  1  0  0  0  0  0  0
  180.0670  179.8660  142.7870 C   0  0  0  0  0  2  0  0  0  0  0  0
  179.5760  180.9790  141.9870 N   0  0  0  0  0  1  0  0  0  0  0  0
  2 26  1  1  0  0  0
  2  4  1  0  0  0  0
  2 14  1  0  0  0  0
  3 14  1  0  0  0  0
  3  6  1  0  0  0  0
  4 18  1  0  0  0  0
  5 33  1  1  0  0  0
  6 12  1  6  0  0  0
  7 11  1  6  0  0  0
  7 28  1  0  0  0  0
  9 34  1  0  0  0  0
 10 17  1  6  0  0  0
 10  5  1  0  0  0  0
 11 16  1  0  0  0  0
 12 23  1  0  0  0  0
 13  1  1  0  0  0  0
 16 15  1  6  0  0  0
 16  7  1  0  0  0  0
 17  1  1  0  0  0  0
 18 29  2  0  0  0  0
 18 15  1  0  0  0  0
 19 24  2  0  0  0  0
 20 21  1  0  0  0  0
 21  5  1  0  0  0  0
 22 13  1  0  0  0  0
 23  8  1  6  0  0  0
 23  6  1  0  0  0  0
 23 25  1  0  0  0  0
 24 22  1  0  0  0  0
 25 24  1  0  0  0  0
 25 39  1  1  0  0  0
 27 20  2  0  0  0  0
 28 10  1  0  0  0  0
 28 20  1  1  0  0  0
 29  9  2  0  0  0  0
 30  9  1  0  0  0  0
 31 30  2  0  0  0  0
 33 32  1  0  0  0  0
 34 35  1  0  0  0  0
 35 37  1  0  0  0  0
 35 36  2  0  0  0  0
 38 37  1  0  0  0  0
 40 42  1  0  0  0  0
 40 39  1  0  0  0  0
 42 41  1  6  0  0  0
 42 43  1  0  0  0  0
 43 44  1  0  0  0  0
 44 45  1  0  0  0  0
 45 46  1  0  0  0  0
 46 47  1  6  0  0  0
 46 48  1  0  0  0  0
 49 48  1  0  0  0  0
M  END
>  <MODEL>
2

>  <REMARK>
 VINA RESULT:      -5.9      1.176      1.274
  Name = 
  13 active torsions:
  status: ('A' for Active; 'I' for Inactive)
    1  A    between atoms: C_2  and  P_27
    2  A    between atoms: O_5  and  C_20
    3  A    between atoms: O_5  and  C_21
    4  A    between atoms: O_6  and  C_12
    5  A    between atoms: O_6  and  O_14
    6  A    between atoms: C_7  and  C_21
    7  A    between atoms: C_9  and  C_20
    8  A    between atoms: C_11  and  C_43
    9  A    between atoms: C_12  and  O_16
   10  A    between atoms: O_14  and  C_44
   11  A    between atoms: O_16  and  C_17
   12  A    between atoms: C_17  and  C_45
   13  A    between atoms: P_27  and  C_45
                            x       y       z     vdW  Elec       q    Type
                         _______ _______ _______ _____ _____    ______ ____

>  <TORSDO>
F 13

$$$$
=
 OpenBabel11062410583D

 49 52  0  0  1  0  0  0  0  0999 V2000
  186.0880  178.6520  141.6470 C   0  0  0  0  0  2  0  0  0  0  0  0
  188.8960  175.8530  134.7250 C   0  0  2  0  0  3  0  0  0  0  0  0
  186.5550  175.7390  135.3780 N   0  0  0  0  0  2  0  0  0  0  0  0
  190.2030  176.6280  134.9260 C   0  0  0  0  0  2  0  0  0  0  0  0
  188.8640  178.1150  142.9360 C   0  0  2  0  0  3  0  0  0  0  0  0
  185.7230  175.6320  136.5670 C   0  0  2  0  0  3  0  0  0  0  0  0
  189.4140  177.1260  139.4470 C   0  0  2  0  0  3  0  0  0  0  0  0
  184.6150  177.5920  135.5210 O   0  0  0  0  0  1  0  0  0  0  0  0
  193.0810  174.8090  136.0470 C   0  0  0  0  0  0  0  0  0  0  0  0
  188.2560  177.3620  141.7390 C   0  0  1  0  0  3  0  0  0  0  0  0
  188.9870  175.8910  138.6710 C   0  0  0  0  0  2  0  0  0  0  0  0
  184.3030  175.2670  136.1380 C   0  0  0  0  0  2  0  0  0  0  0  0
  185.1840  179.4580  140.7230 C   0  0  0  0  0  2  0  0  0  0  0  0
  187.8720  176.1730  135.8010 C   0  0  0  0  0  2  0  0  0  0  0  0
  190.7360  177.1470  137.3900 C   0  0  0  0  0  2  0  0  0  0  0  0
  190.4380  176.3400  138.6420 C   0  0  1  0  0  3  0  0  0  0  0  0
  187.3790  178.3210  140.9260 C   0  0  0  0  0  2  0  0  0  0  0  0
  190.9350  176.2810  136.1910 C   0  0  0  0  0  0  0  0  0  0  0  0
  185.9210  178.5740  138.1480 O   0  0  0  0  0  0  0  0  0  0  0  0
  190.6180  177.3980  141.6150 C   0  0  0  0  0  0  0  0  0  0  0  0
  190.2640  178.1280  142.7280 O   0  0  0  0  0  0  0  0  0  0  0  0
  184.4080  178.5830  139.9020 O   0  0  0  0  0  0  0  0  0  0  0  0
  184.6170  176.6800  136.5760 C   0  0  1  0  0  0  0  0  0  0  0  0
  184.8500  178.1290  138.6530 C   0  0  0  0  0  0  0  0  0  0  0  0
  184.0040  177.1320  137.9120 C   0  0  2  0  0  3  0  0  0  0  0  0
  189.1400  174.3520  134.6000 C   0  0  0  0  0  1  0  0  0  0  0  0
  191.8140  177.2320  141.2650 O   0  0  0  0  0  0  0  0  0  0  0  0
  189.4530  176.7860  140.9370 C   0  0  2  0  0  3  0  0  0  0  0  0
  192.0050  175.5440  136.1140 C   0  0  0  0  0  0  0  0  0  0  0  0
  193.7350  174.5890  134.7470 C   0  0  0  0  0  3  0  0  0  0  0  0
  194.9000  174.1200  134.6590 O   0  0  0  0  0  0  0  0  0  0  0  0
  189.0790  178.1010  145.3360 O   0  0  0  0  0  1  0  0  0  0  0  0
  188.5210  177.4180  144.2490 C   0  0  0  0  0  2  0  0  0  0  0  0
  193.5620  174.2370  137.2360 O   0  0  0  0  0  0  0  0  0  0  0  0
  194.4500  174.8400  138.1390 C   0  0  0  0  0  0  0  0  0  0  0  0
  194.2490  175.9970  138.5900 O   0  0  0  0  0  0  0  0  0  0  0  0
  195.6260  174.0700  138.6200 C   0  0  0  0  0  2  0  0  0  0  0  0
  195.5310  172.6360  138.1370 C   0  0  0  0  0  1  0  0  0  0  0  0
  183.7030  176.0460  138.7520 O   0  0  0  0  0  0  0  0  0  0  0  0
  182.8300  176.5240  139.6210 O   0  0  0  0  0  0  0  0  0  0  0  0
  180.6370  176.6620  139.0380 O   0  0  0  0  0  1  0  0  0  0  0  0
  181.6620  175.7920  139.3980 C   0  0  1  0  0  3  0  0  0  0  0  0
  181.8800  174.8790  138.3660 O   0  0  0  0  0  0  0  0  0  0  0  0
  180.6060  174.5550  137.9150 C   0  0  0  0  0  2  0  0  0  0  0  0
  180.5040  173.0530  137.7230 C   0  0  0  0  0  2  0  0  0  0  0  0
  181.6040  172.5340  136.3200 P   0  0  1  0  0  0  0  0  0  0  0  0
  182.5560  171.4250  137.2570 O   0  0  0  0  0  1  0  0  0  0  0  0
  180.4650  171.2450  135.6160 C   0  0  0  0  0  2  0  0  0  0  0  0
  179.4930  170.8450  136.6240 N   0  0  0  0  0  1  0  0  0  0  0  0
  2 26  1  1  0  0  0
  2  4  1  0  0  0  0
  2 14  1  0  0  0  0
  3 14  1  0  0  0  0
  3  6  1  0  0  0  0
  4 18  1  0  0  0  0
  5 33  1  1  0  0  0
  6 12  1  6  0  0  0
  6 23  1  0  0  0  0
  7 11  1  6  0  0  0
  7 28  1  0  0  0  0
  9 29  2  0  0  0  0
  9 34  1  0  0  0  0
 10 17  1  6  0  0  0
 10  5  1  0  0  0  0
 12 23  1  0  0  0  0
 13  1  1  0  0  0  0
 16 15  1  6  0  0  0
 16 11  1  0  0  0  0
 16  7  1  0  0  0  0
 17  1  1  0  0  0  0
 18 15  1  0  0  0  0
 19 24  2  0  0  0  0
 20 21  1  0  0  0  0
 21  5  1  0  0  0  0
 22 13  1  0  0  0  0
 23  8  1  6  0  0  0
 23 25  1  0  0  0  0
 24 22  1  0  0  0  0
 25 24  1  0  0  0  0
 25 39  1  1  0  0  0
 27 20  2  0  0  0  0
 28 20  1  1  0  0  0
 28 10  1  0  0  0  0
 29 18  2  0  0  0  0
 30  9  1  0  0  0  0
 31 30  2  0  0  0  0
 33 32  1  0  0  0  0
 34 35  1  0  0  0  0
 35 36  2  0  0  0  0
 35 37  1  0  0  0  0
 38 37  1  0  0  0  0
 39 40  1  0  0  0  0
 42 41  1  6  0  0  0
 42 40  1  0  0  0  0
 43 42  1  0  0  0  0
 44 43  1  0  0  0  0
 45 44  1  0  0  0  0
 46 47  1  1  0  0  0
 46 45  1  0  0  0  0
 48 46  1  0  0  0  0
 48 49  1  0  0  0  0
M  END
>  <MODEL>
3

>  <REMARK>
 VINA RESULT:      -5.6      2.273      3.182
  Name = 
  13 active torsions:
  status: ('A' for Active; 'I' for Inactive)
    1  A    between atoms: C_2  and  P_27
    2  A    between atoms: O_5  and  C_20
    3  A    between atoms: O_5  and  C_21
    4  A    between atoms: O_6  and  C_12
    5  A    between atoms: O_6  and  O_14
    6  A    between atoms: C_7  and  C_21
    7  A    between atoms: C_9  and  C_20
    8  A    between atoms: C_11  and  C_43
    9  A    between atoms: C_12  and  O_16
   10  A    between atoms: O_14  and  C_44
   11  A    between atoms: O_16  and  C_17
   12  A    between atoms: C_17  and  C_45
   13  A    between atoms: P_27  and  C_45
                            x       y       z     vdW  Elec       q    Type
                         _______ _______ _______ _____ _____    ______ ____

>  <TORSDO>
F 13

$$$$
=
 OpenBabel11062410583D

 49 52  0  0  1  0  0  0  0  0999 V2000
  189.5060  173.3640  135.0710 C   0  0  0  0  0  2  0  0  0  0  0  0
  183.9960  178.2590  138.1240 C   0  0  2  0  0  3  0  0  0  0  0  0
  186.3720  178.4210  138.6230 N   0  0  0  0  0  2  0  0  0  0  0  0
  182.9780  177.7860  137.0810 C   0  0  0  0  0  2  0  0  0  0  0  0
  187.3460  171.1410  134.8620 C   0  0  2  0  0  3  0  0  0  0  0  0
  187.5560  177.5830  138.7400 C   0  0  2  0  0  3  0  0  0  0  0  0
  185.4250  173.9800  136.1660 C   0  0  2  0  0  3  0  0  0  0  0  0
  188.4730  179.3000  137.1990 O   0  0  0  0  0  1  0  0  0  0  0  0
  180.4800  175.4330  138.1160 C   0  0  0  0  0  0  0  0  0  0  0  0
  187.3600  172.3020  135.8730 C   0  0  1  0  0  3  0  0  0  0  0  0
  185.3580  174.5990  137.5530 C   0  0  0  0  0  2  0  0  0  0  0  0
  188.6530  178.3840  139.4380 C   0  0  0  0  0  2  0  0  0  0  0  0
  190.1160  174.6760  134.5940 C   0  0  0  0  0  2  0  0  0  0  0  0
  185.3760  177.6730  137.8800 C   0  0  0  0  0  2  0  0  0  0  0  0
  183.4610  175.4360  136.1470 C   0  0  0  0  0  2  0  0  0  0  0  0
  184.0770  174.2260  136.8270 C   0  0  1  0  0  3  0  0  0  0  0  0
  188.0080  173.5310  135.2250 C   0  0  0  0  0  2  0  0  0  0  0  0
  182.7170  176.3060  137.1040 C   0  0  0  0  0  0  0  0  0  0  0  0
  188.3710  176.6310  135.6380 O   0  0  0  0  0  0  0  0  0  0  0  0
  185.1480  171.6310  135.3750 C   0  0  0  0  0  0  0  0  0  0  0  0
  185.9840  170.8650  134.5940 O   0  0  0  0  0  0  0  0  0  0  0  0
  190.4050  175.5240  135.7070 O   0  0  0  0  0  0  0  0  0  0  0  0
  188.7260  178.1500  137.9460 C   0  0  1  0  0  0  0  0  0  0  0  0
  189.4780  176.4380  136.2210 C   0  0  0  0  0  0  0  0  0  0  0  0
  189.8430  177.2120  137.4570 C   0  0  2  0  0  3  0  0  0  0  0  0
  183.5120  178.0010  139.5470 C   0  0  0  0  0  1  0  0  0  0  0  0
  183.8960  171.5200  135.3400 O   0  0  0  0  0  0  0  0  0  0  0  0
  185.8840  172.5270  136.2940 C   0  0  2  0  0  3  0  0  0  0  0  0
  181.5990  175.8760  137.6120 C   0  0  0  0  0  0  0  0  0  0  0  0
  179.3720  176.3700  138.3670 C   0  0  0  0  0  3  0  0  0  0  0  0
  179.5530  177.6150  138.4210 O   0  0  0  0  0  0  0  0  0  0  0  0
  189.2800  169.7040  134.8180 O   0  0  0  0  0  1  0  0  0  0  0  0
  188.0410  169.9100  135.4370 C   0  0  0  0  0  2  0  0  0  0  0  0
  180.3890  174.0650  138.4190 O   0  0  0  0  0  0  0  0  0  0  0  0
  180.3350  173.0170  137.4870 C   0  0  0  0  0  0  0  0  0  0  0  0
  180.6140  171.8340  137.8090 O   0  0  0  0  0  0  0  0  0  0  0  0
  179.8820  173.3040  136.1020 C   0  0  0  0  0  2  0  0  0  0  0  0
  180.6720  172.4610  135.1200 C   0  0  0  0  0  1  0  0  0  0  0  0
  190.2710  176.3280  138.4620 O   0  0  0  0  0  0  0  0  0  0  0  0
  191.5420  176.0940  138.1860 O   0  0  0  0  0  0  0  0  0  0  0  0
  191.8250  177.0830  140.2130 O   0  0  0  0  0  1  0  0  0  0  0  0
  192.2490  177.0730  138.8870 C   0  0  1  0  0  3  0  0  0  0  0  0
  193.6120  176.7840  138.8370 O   0  0  0  0  0  0  0  0  0  0  0  0
  193.8030  176.2250  137.5800 C   0  0  0  0  0  2  0  0  0  0  0  0
  194.4740  174.8710  137.7250 C   0  0  0  0  0  2  0  0  0  0  0  0
  195.1350  174.3310  136.0760 P   0  0  1  0  0  0  0  0  0  0  0  0
  195.1520  175.9200  135.3750 O   0  0  0  0  0  1  0  0  0  0  0  0
  196.9310  174.3240  136.5520 C   0  0  0  0  0  2  0  0  0  0  0  0
  197.4100  175.6940  136.6830 N   0  0  0  0  0  1  0  0  0  0  0  0
  1 17  1  0  0  0  0
  2 26  1  1  0  0  0
  3  6  1  0  0  0  0
  4 18  1  0  0  0  0
  4  2  1  0  0  0  0
  5 33  1  1  0  0  0
  5 10  1  0  0  0  0
  6 12  1  1  0  0  0
  7 28  1  0  0  0  0
  7 16  1  0  0  0  0
  7 11  1  1  0  0  0
  9 30  1  0  0  0  0
  9 34  1  0  0  0  0
 10 17  1  6  0  0  0
 10 28  1  0  0  0  0
 13  1  1  0  0  0  0
 13 22  1  0  0  0  0
 14  2  1  0  0  0  0
 14  3  1  0  0  0  0
 15 18  1  0  0  0  0
 16 15  1  6  0  0  0
 16 11  1  0  0  0  0
 18 29  2  0  0  0  0
 19 24  2  0  0  0  0
 21  5  1  0  0  0  0
 21 20  1  0  0  0  0
 22 24  1  0  0  0  0
 23  8  1  6  0  0  0
 23  6  1  0  0  0  0
 23 12  1  0  0  0  0
 24 25  1  0  0  0  0
 25 23  1  0  0  0  0
 25 39  1  1  0  0  0
 27 20  2  0  0  0  0
 28 20  1  6  0  0  0
 29  9  2  0  0  0  0
 30 31  2  0  0  0  0
 32 33  1  0  0  0  0
 35 36  2  0  0  0  0
 35 34  1  0  0  0  0
 37 35  1  0  0  0  0
 38 37  1  0  0  0  0
 40 39  1  0  0  0  0
 40 42  1  0  0  0  0
 42 41  1  1  0  0  0
 43 42  1  0  0  0  0
 44 45  1  0  0  0  0
 44 43  1  0  0  0  0
 46 47  1  6  0  0  0
 46 48  1  0  0  0  0
 46 45  1  0  0  0  0
 48 49  1  0  0  0  0
M  END
>  <MODEL>
4

>  <REMARK>
 VINA RESULT:      -5.4      4.080     10.815
  Name = 
  13 active torsions:
  status: ('A' for Active; 'I' for Inactive)
    1  A    between atoms: C_2  and  P_27
    2  A    between atoms: O_5  and  C_20
    3  A    between atoms: O_5  and  C_21
    4  A    between atoms: O_6  and  C_12
    5  A    between atoms: O_6  and  O_14
    6  A    between atoms: C_7  and  C_21
    7  A    between atoms: C_9  and  C_20
    8  A    between atoms: C_11  and  C_43
    9  A    between atoms: C_12  and  O_16
   10  A    between atoms: O_14  and  C_44
   11  A    between atoms: O_16  and  C_17
   12  A    between atoms: C_17  and  C_45
   13  A    between atoms: P_27  and  C_45
                            x       y       z     vdW  Elec       q    Type
                         _______ _______ _______ _____ _____    ______ ____

>  <TORSDO>
F 13

$$$$
=
 OpenBabel11062410583D

 49 52  0  0  1  0  0  0  0  0999 V2000
  189.2090  177.0510  137.6760 C   0  0  0  0  0  2  0  0  0  0  0  0
  181.2720  176.2540  137.7720 C   0  0  2  0  0  3  0  0  0  0  0  0
  182.5360  177.3970  139.5090 N   0  0  0  0  0  2  0  0  0  0  0  0
  181.2800  175.8530  136.2930 C   0  0  0  0  0  2  0  0  0  0  0  0
  189.4060  174.4130  136.0460 C   0  0  2  0  0  3  0  0  0  0  0  0
  183.8400  177.3690  140.1530 C   0  0  2  0  0  3  0  0  0  0  0  0
  185.7820  174.8370  136.4160 C   0  0  2  0  0  3  0  0  0  0  0  0
  183.7620  179.7860  139.5920 O   0  0  0  0  0  1  0  0  0  0  0  0
  180.9390  172.3760  135.4910 C   0  0  0  0  0  0  0  0  0  0  0  0
  188.2860  174.7910  137.0310 C   0  0  1  0  0  3  0  0  0  0  0  0
  184.8580  174.6120  137.6020 C   0  0  0  0  0  2  0  0  0  0  0  0
  183.7710  178.2040  141.4310 C   0  0  0  0  0  2  0  0  0  0  0  0
  188.8600  178.5300  137.7750 C   0  0  0  0  0  2  0  0  0  0  0  0
  182.6490  176.6750  138.2560 C   0  0  0  0  0  2  0  0  0  0  0  0
  183.5150  174.8510  135.5000 C   0  0  0  0  0  2  0  0  0  0  0  0
  184.5230  173.9990  136.2530 C   0  0  1  0  0  3  0  0  0  0  0  0
  188.0730  176.3090  137.0010 C   0  0  0  0  0  2  0  0  0  0  0  0
  182.1210  174.6450  135.9880 C   0  0  0  0  0  0  0  0  0  0  0  0
  186.0420  178.5330  137.9200 O   0  0  0  0  0  0  0  0  0  0  0  0
  187.4770  173.3690  135.3240 C   0  0  0  0  0  0  0  0  0  0  0  0
  188.8020  173.6180  135.0430 O   0  0  0  0  0  0  0  0  0  0  0  0
  188.0980  178.7820  138.9580 O   0  0  0  0  0  0  0  0  0  0  0  0
  184.4700  178.7550  140.2080 C   0  0  1  0  0  0  0  0  0  0  0  0
  186.7000  178.7130  138.9850 C   0  0  0  0  0  0  0  0  0  0  0  0
  185.9990  178.8960  140.3020 C   0  0  2  0  0  3  0  0  0  0  0  0
  180.6680  175.1630  138.6520 C   0  0  0  0  0  1  0  0  0  0  0  0
  186.7540  172.6440  134.5940 O   0  0  0  0  0  0  0  0  0  0  0  0
  187.0360  173.9810  136.5970 C   0  0  2  0  0  3  0  0  0  0  0  0
  181.5250  173.5140  135.7420 C   0  0  0  0  0  0  0  0  0  0  0  0
  179.4950  172.3470  135.2050 C   0  0  0  0  0  3  0  0  0  0  0  0
  178.9320  171.3270  134.7250 O   0  0  0  0  0  0  0  0  0  0  0  0
  190.7910  174.1960  138.0070 O   0  0  0  0  0  1  0  0  0  0  0  0
  190.5130  173.6370  136.7530 C   0  0  0  0  0  2  0  0  0  0  0  0
  181.7210  171.2100  135.5250 O   0  0  0  0  0  0  0  0  0  0  0  0
  183.0400  171.1170  135.9910 C   0  0  0  0  0  0  0  0  0  0  0  0
  183.3210  171.2600  137.2090 O   0  0  0  0  0  0  0  0  0  0  0  0
  184.1250  170.7830  135.0320 C   0  0  0  0  0  2  0  0  0  0  0  0
  184.9470  169.6280  135.5710 C   0  0  0  0  0  1  0  0  0  0  0  0
  186.5530  178.0310  141.2610 O   0  0  0  0  0  0  0  0  0  0  0  0
  187.1220  178.8290  142.1470 O   0  0  0  0  0  0  0  0  0  0  0  0
  186.5680  177.6890  144.0340 O   0  0  0  0  0  1  0  0  0  0  0  0
  187.6000  177.9780  143.1440 C   0  0  1  0  0  3  0  0  0  0  0  0
  188.0560  176.7950  142.5630 O   0  0  0  0  0  0  0  0  0  0  0  0
  188.7590  176.1570  143.5770 C   0  0  0  0  0  2  0  0  0  0  0  0
  190.2490  176.3410  143.3520 C   0  0  0  0  0  2  0  0  0  0  0  0
  190.9750  177.2900  144.7730 P   0  0  1  0  0  0  0  0  0  0  0  0
  189.6350  177.0320  145.8470 O   0  0  0  0  0  1  0  0  0  0  0  0
  192.0170  175.9080  145.4490 C   0  0  0  0  0  2  0  0  0  0  0  0
  192.1010  174.8320  144.4710 N   0  0  0  0  0  1  0  0  0  0  0  0
  1 13  1  0  0  0  0
  2 14  1  0  0  0  0
  2 26  1  1  0  0  0
  3  6  1  0  0  0  0
  4  2  1  0  0  0  0
  5 33  1  1  0  0  0
  5 10  1  0  0  0  0
  6 23  1  0  0  0  0
  6 12  1  1  0  0  0
  7 28  1  0  0  0  0
  7 11  1  1  0  0  0
  9 34  1  0  0  0  0
  9 29  2  0  0  0  0
 10 17  1  6  0  0  0
 13 22  1  0  0  0  0
 14  3  1  0  0  0  0
 15 18  1  0  0  0  0
 16 15  1  6  0  0  0
 16  7  1  0  0  0  0
 16 11  1  0  0  0  0
 17  1  1  0  0  0  0
 18  4  1  0  0  0  0
 19 24  2  0  0  0  0
 21 20  1  0  0  0  0
 21  5  1  0  0  0  0
 22 24  1  0  0  0  0
 23  8  1  6  0  0  0
 23 25  1  0  0  0  0
 23 12  1  0  0  0  0
 24 25  1  0  0  0  0
 25 39  1  1  0  0  0
 27 20  2  0  0  0  0
 28 20  1  6  0  0  0
 28 10  1  0  0  0  0
 29 18  2  0  0  0  0
 30  9  1  0  0  0  0
 31 30  2  0  0  0  0
 33 32  1  0  0  0  0
 34 35  1  0  0  0  0
 35 36  2  0  0  0  0
 37 38  1  0  0  0  0
 37 35  1  0  0  0  0
 39 40  1  0  0  0  0
 40 42  1  0  0  0  0
 42 41  1  1  0  0  0
 43 42  1  0  0  0  0
 43 44  1  0  0  0  0
 45 44  1  0  0  0  0
 45 46  1  0  0  0  0
 46 48  1  0  0  0  0
 46 47  1  1  0  0  0
 49 48  1  0  0  0  0
M  END
>  <MODEL>
5

>  <REMARK>
 VINA RESULT:      -5.3      3.696      8.573
  Name = 
  13 active torsions:
  status: ('A' for Active; 'I' for Inactive)
    1  A    between atoms: C_2  and  P_27
    2  A    between atoms: O_5  and  C_20
    3  A    between atoms: O_5  and  C_21
    4  A    between atoms: O_6  and  C_12
    5  A    between atoms: O_6  and  O_14
    6  A    between atoms: C_7  and  C_21
    7  A    between atoms: C_9  and  C_20
    8  A    between atoms: C_11  and  C_43
    9  A    between atoms: C_12  and  O_16
   10  A    between atoms: O_14  and  C_44
   11  A    between atoms: O_16  and  C_17
   12  A    between atoms: C_17  and  C_45
   13  A    between atoms: P_27  and  C_45
                            x       y       z     vdW  Elec       q    Type
                         _______ _______ _______ _____ _____    ______ ____

>  <TORSDO>
F 13

$$$$
=
 OpenBabel11062410583D

 49 52  0  0  1  0  0  0  0  0999 V2000
  187.7510  177.2740  145.2390 C   0  0  0  0  0  2  0  0  0  0  0  0
  185.7710  177.5960  137.5180 C   0  0  2  0  0  3  0  0  0  0  0  0
  188.0650  177.6410  138.3270 N   0  0  0  0  0  2  0  0  0  0  0  0
  184.3480  177.1310  137.8490 C   0  0  0  0  0  2  0  0  0  0  0  0
  185.0380  178.6140  145.9420 C   0  0  2  0  0  3  0  0  0  0  0  0
  188.8430  178.0790  139.4750 C   0  0  2  0  0  3  0  0  0  0  0  0
  184.8240  178.2770  142.2950 C   0  0  2  0  0  3  0  0  0  0  0  0
  189.6730  175.7430  139.3410 O   0  0  0  0  0  1  0  0  0  0  0  0
  181.7480  179.5970  137.9180 C   0  0  0  0  0  0  0  0  0  0  0  0
  185.8160  178.7740  144.6230 C   0  0  1  0  0  3  0  0  0  0  0  0
  185.4820  179.0610  141.1710 C   0  0  0  0  0  2  0  0  0  0  0  0
  190.3230  178.0670  139.0950 C   0  0  0  0  0  2  0  0  0  0  0  0
  188.5580  176.0690  144.7740 C   0  0  0  0  0  2  0  0  0  0  0  0
  186.6760  177.5740  138.7380 C   0  0  0  0  0  2  0  0  0  0  0  0
  183.6190  177.6540  140.2620 C   0  0  0  0  0  2  0  0  0  0  0  0
  183.9810  178.8280  141.1560 C   0  0  1  0  0  3  0  0  0  0  0  0
  186.5660  177.4740  144.3150 C   0  0  0  0  0  2  0  0  0  0  0  0
  183.6200  178.0220  138.8160 C   0  0  0  0  0  0  0  0  0  0  0  0
  188.1000  176.0030  141.9910 O   0  0  0  0  0  0  0  0  0  0  0  0
  183.4880  179.0020  144.2730 C   0  0  0  0  0  0  0  0  0  0  0  0
  183.6650  178.7070  145.6070 O   0  0  0  0  0  0  0  0  0  0  0  0
  189.5040  176.4590  143.7760 O   0  0  0  0  0  0  0  0  0  0  0  0
  189.7650  176.9770  139.9830 C   0  0  1  0  0  0  0  0  0  0  0  0
  189.2020  176.4620  142.4090 C   0  0  0  0  0  0  0  0  0  0  0  0
  190.2320  176.9870  141.4480 C   0  0  2  0  0  3  0  0  0  0  0  0
  185.7770  178.9560  136.8280 C   0  0  0  0  0  1  0  0  0  0  0  0
  182.3520  179.1790  143.7620 O   0  0  0  0  0  0  0  0  0  0  0  0
  184.7680  179.1560  143.5450 C   0  0  2  0  0  3  0  0  0  0  0  0
  182.6870  178.8080  138.3620 C   0  0  0  0  0  0  0  0  0  0  0  0
  181.2020  179.3930  136.5660 C   0  0  0  0  0  3  0  0  0  0  0  0
  181.6420  178.4960  135.7990 O   0  0  0  0  0  0  0  0  0  0  0  0
  186.4960  179.2910  147.7370 O   0  0  0  0  0  1  0  0  0  0  0  0
  185.4230  179.7050  146.9370 C   0  0  0  0  0  2  0  0  0  0  0  0
  181.3060  180.6320  138.7580 O   0  0  0  0  0  0  0  0  0  0  0  0
  180.2140  180.5720  139.6360 C   0  0  0  0  0  0  0  0  0  0  0  0
  179.0610  180.9240  139.2790 O   0  0  0  0  0  0  0  0  0  0  0  0
  180.4140  180.0260  141.0030 C   0  0  0  0  0  2  0  0  0  0  0  0
  180.0460  178.5550  141.0240 C   0  0  0  0  0  1  0  0  0  0  0  0
  190.6620  178.2600  141.8600 O   0  0  0  0  0  0  0  0  0  0  0  0
  191.7270  178.0310  142.6080 O   0  0  0  0  0  0  0  0  0  0  0  0
  190.4100  179.3660  143.8920 O   0  0  0  0  0  1  0  0  0  0  0  0
  191.7250  179.0530  143.5590 C   0  0  1  0  0  3  0  0  0  0  0  0
  192.4030  178.6230  144.7000 O   0  0  0  0  0  0  0  0  0  0  0  0
  191.4650  177.8740  145.4000 C   0  0  0  0  0  2  0  0  0  0  0  0
  192.0550  176.5190  145.7440 C   0  0  0  0  0  2  0  0  0  0  0  0
  191.3770  175.9470  147.3750 P   0  0  1  0  0  0  0  0  0  0  0  0
  192.7870  176.3670  148.2970 O   0  0  0  0  0  1  0  0  0  0  0  0
  190.4320  177.4970  147.7740 C   0  0  0  0  0  2  0  0  0  0  0  0
  189.1040  177.1510  148.2600 N   0  0  0  0  0  1  0  0  0  0  0  0
  2 26  1  1  0  0  0
  2  4  1  0  0  0  0
  2 14  1  0  0  0  0
  3 14  1  0  0  0  0
  3  6  1  0  0  0  0
  4 18  1  0  0  0  0
  5 33  1  1  0  0  0
  6 12  1  6  0  0  0
  6 23  1  0  0  0  0
  7 11  1  6  0  0  0
  7 28  1  0  0  0  0
  9 29  2  0  0  0  0
  9 34  1  0  0  0  0
 10 17  1  6  0  0  0
 10  5  1  0  0  0  0
 12 23  1  0  0  0  0
 13  1  1  0  0  0  0
 16 15  1  6  0  0  0
 16 11  1  0  0  0  0
 16  7  1  0  0  0  0
 17  1  1  0  0  0  0
 18 15  1  0  0  0  0
 19 24  2  0  0  0  0
 20 21  1  0  0  0  0
 21  5  1  0  0  0  0
 22 13  1  0  0  0  0
 23  8  1  6  0  0  0
 23 25  1  0  0  0  0
 24 22  1  0  0  0  0
 25 39  1  1  0  0  0
 25 24  1  0  0  0  0
 27 20  2  0  0  0  0
 28 20  1  1  0  0  0
 28 10  1  0  0  0  0
 29 18  2  0  0  0  0
 30  9  1  0  0  0  0
 31 30  2  0  0  0  0
 33 32  1  0  0  0  0
 34 35  1  0  0  0  0
 35 37  1  0  0  0  0
 36 35  2  0  0  0  0
 37 38  1  0  0  0  0
 39 40  1  0  0  0  0
 40 42  1  0  0  0  0
 42 41  1  1  0  0  0
 42 43  1  0  0  0  0
 43 44  1  0  0  0  0
 44 45  1  0  0  0  0
 45 46  1  0  0  0  0
 46 48  1  0  0  0  0
 46 47  1  1  0  0  0
 48 49  1  0  0  0  0
M  END
>  <MODEL>
6

>  <REMARK>
 VINA RESULT:      -4.9      4.101      9.457
  Name = 
  13 active torsions:
  status: ('A' for Active; 'I' for Inactive)
    1  A    between atoms: C_2  and  P_27
    2  A    between atoms: O_5  and  C_20
    3  A    between atoms: O_5  and  C_21
    4  A    between atoms: O_6  and  C_12
    5  A    between atoms: O_6  and  O_14
    6  A    between atoms: C_7  and  C_21
    7  A    between atoms: C_9  and  C_20
    8  A    between atoms: C_11  and  C_43
    9  A    between atoms: C_12  and  O_16
   10  A    between atoms: O_14  and  C_44
   11  A    between atoms: O_16  and  C_17
   12  A    between atoms: C_17  and  C_45
   13  A    between atoms: P_27  and  C_45
                            x       y       z     vdW  Elec       q    Type
                         _______ _______ _______ _____ _____    ______ ____

>  <TORSDO>
F 13

$$$$
=
 OpenBabel11062410583D

 49 52  0  0  1  0  0  0  0  0999 V2000
  187.1490  177.6020  136.6030 C   0  0  0  0  0  2  0  0  0  0  0  0
  184.4580  179.0390  143.9740 C   0  0  2  0  0  3  0  0  0  0  0  0
  186.6850  178.1850  143.4910 N   0  0  0  0  0  2  0  0  0  0  0  0
  183.2940  179.8560  143.4050 C   0  0  0  0  0  2  0  0  0  0  0  0
  184.2280  177.0530  135.6950 C   0  0  2  0  0  3  0  0  0  0  0  0
  187.3880  177.3670  142.5150 C   0  0  2  0  0  3  0  0  0  0  0  0
  183.7940  177.9750  139.2190 C   0  0  2  0  0  3  0  0  0  0  0  0
  188.8990  179.3380  142.4970 O   0  0  0  0  0  1  0  0  0  0  0  0
  180.0640  178.3070  143.2620 C   0  0  0  0  0  0  0  0  0  0  0  0
  184.7890  176.8630  137.1160 C   0  0  1  0  0  3  0  0  0  0  0  0
  184.0620  177.2040  140.5020 C   0  0  0  0  0  2  0  0  0  0  0  0
  188.7530  176.9890  143.0870 C   0  0  0  0  0  2  0  0  0  0  0  0
  188.2490  178.5620  137.0350 C   0  0  0  0  0  2  0  0  0  0  0  0
  185.4330  178.6060  142.8920 C   0  0  0  0  0  2  0  0  0  0  0  0
  182.6640  179.2260  140.9890 C   0  0  0  0  0  2  0  0  0  0  0  0
  182.7170  177.8790  140.2890 C   0  0  1  0  0  3  0  0  0  0  0  0
  185.8810  177.9070  137.3750 C   0  0  0  0  0  2  0  0  0  0  0  0
  182.4140  179.0930  142.4550 C   0  0  0  0  0  0  0  0  0  0  0  0
  187.5780  179.1740  139.7050 O   0  0  0  0  0  0  0  0  0  0  0  0
  182.4880  177.4020  137.1730 C   0  0  0  0  0  0  0  0  0  0  0  0
  182.8720  177.4290  135.8510 O   0  0  0  0  0  0  0  0  0  0  0  0
  188.9250  178.0570  138.1880 O   0  0  0  0  0  0  0  0  0  0  0  0
  188.6550  178.0520  142.0160 C   0  0  1  0  0  0  0  0  0  0  0  0
  188.5120  178.3470  139.4940 C   0  0  0  0  0  0  0  0  0  0  0  0
  189.2280  177.6850  140.6370 C   0  0  2  0  0  3  0  0  0  0  0  0
  183.9690  177.8570  144.8060 C   0  0  0  0  0  1  0  0  0  0  0  0
  181.3120  177.6540  137.5430 O   0  0  0  0  0  0  0  0  0  0  0  0
  183.5790  176.9790  138.0790 C   0  0  2  0  0  3  0  0  0  0  0  0
  181.2420  178.7020  142.8630 C   0  0  0  0  0  0  0  0  0  0  0  0
  179.4880  178.8640  144.4970 C   0  0  0  0  0  3  0  0  0  0  0  0
  178.9310  179.9930  144.5210 O   0  0  0  0  0  0  0  0  0  0  0  0
  184.7820  174.7070  135.6970 O   0  0  0  0  0  1  0  0  0  0  0  0
  184.3400  175.7620  134.8890 C   0  0  0  0  0  2  0  0  0  0  0  0
  179.3980  177.3410  142.4910 O   0  0  0  0  0  0  0  0  0  0  0  0
  179.1490  177.4140  141.1130 C   0  0  0  0  0  0  0  0  0  0  0  0
  179.1540  178.5120  140.5000 O   0  0  0  0  0  0  0  0  0  0  0  0
  178.9310  176.1590  140.3490 C   0  0  0  0  0  2  0  0  0  0  0  0
  180.2540  175.4460  140.1490 C   0  0  0  0  0  1  0  0  0  0  0  0
  189.2690  176.2960  140.4320 O   0  0  0  0  0  0  0  0  0  0  0  0
  190.5560  176.0000  140.3810 O   0  0  0  0  0  0  0  0  0  0  0  0
  192.1630  176.7520  138.9590 O   0  0  0  0  0  1  0  0  0  0  0  0
  190.9080  176.1530  139.0380 C   0  0  1  0  0  3  0  0  0  0  0  0
  190.9510  174.9010  138.4260 O   0  0  0  0  0  0  0  0  0  0  0  0
  191.5090  175.1440  137.1770 C   0  0  0  0  0  2  0  0  0  0  0  0
  192.3970  173.9770  136.7840 C   0  0  0  0  0  2  0  0  0  0  0  0
  193.3560  174.4200  135.2570 P   0  0  1  0  0  0  0  0  0  0  0  0
  192.5280  175.9180  134.9690 O   0  0  0  0  0  1  0  0  0  0  0  0
  194.8110  175.1820  136.1270 C   0  0  0  0  0  2  0  0  0  0  0  0
  194.6310  176.6240  136.2130 N   0  0  0  0  0  1  0  0  0  0  0  0
  1 13  1  0  0  0  0
  1 17  1  0  0  0  0
  2 26  1  6  0  0  0
  4  2  1  0  0  0  0
  5 33  1  6  0  0  0
  5 21  1  0  0  0  0
  5 10  1  0  0  0  0
  6 12  1  1  0  0  0
  6  3  1  0  0  0  0
  7 16  1  0  0  0  0
  7 11  1  1  0  0  0
  9 30  1  0  0  0  0
 10 17  1  1  0  0  0
 10 28  1  0  0  0  0
 13 22  1  0  0  0  0
 14  3  1  0  0  0  0
 14  2  1  0  0  0  0
 15 18  1  0  0  0  0
 16 11  1  1  0  0  0
 16 15  1  0  0  0  0
 18 29  2  0  0  0  0
 18  4  1  0  0  0  0
 20 27  2  0  0  0  0
 21 20  1  0  0  0  0
 22 24  1  0  0  0  0
 23  8  1  1  0  0  0
 23  6  1  0  0  0  0
 23 12  1  0  0  0  0
 24 19  2  0  0  0  0
 24 25  1  0  0  0  0
 25 39  1  6  0  0  0
 25 23  1  0  0  0  0
 28 20  1  6  0  0  0
 28  7  1  0  0  0  0
 29  9  2  0  0  0  0
 30 31  2  0  0  0  0
 33 32  1  0  0  0  0
 34  9  1  0  0  0  0
 35 34  1  0  0  0  0
 36 35  2  0  0  0  0
 37 35  1  0  0  0  0
 38 37  1  0  0  0  0
 40 39  1  0  0  0  0
 42 41  1  1  0  0  0
 42 40  1  0  0  0  0
 43 42  1  0  0  0  0
 44 43  1  0  0  0  0
 45 44  1  0  0  0  0
 46 47  1  6  0  0  0
 46 48  1  0  0  0  0
 46 45  1  0  0  0  0
 48 49  1  0  0  0  0
M  END
>  <MODEL>
7

>  <REMARK>
 VINA RESULT:      -4.9      3.343     10.988
  Name = 
  13 active torsions:
  status: ('A' for Active; 'I' for Inactive)
    1  A    between atoms: C_2  and  P_27
    2  A    between atoms: O_5  and  C_20
    3  A    between atoms: O_5  and  C_21
    4  A    between atoms: O_6  and  C_12
    5  A    between atoms: O_6  and  O_14
    6  A    between atoms: C_7  and  C_21
    7  A    between atoms: C_9  and  C_20
    8  A    between atoms: C_11  and  C_43
    9  A    between atoms: C_12  and  O_16
   10  A    between atoms: O_14  and  C_44
   11  A    between atoms: O_16  and  C_17
   12  A    between atoms: C_17  and  C_45
   13  A    between atoms: P_27  and  C_45
                            x       y       z     vdW  Elec       q    Type
                         _______ _______ _______ _____ _____    ______ ____

>  <TORSDO>
F 13

$$$$
=
 OpenBabel11062410583D

 49 52  0  0  1  0  0  0  0  0999 V2000
  185.0020  178.6610  143.2780 C   0  0  0  0  0  2  0  0  0  0  0  0
  187.7950  177.3400  135.9230 C   0  0  2  0  0  3  0  0  0  0  0  0
  185.4780  176.9780  136.5730 N   0  0  0  0  0  2  0  0  0  0  0  0
  189.0630  178.1370  136.2460 C   0  0  0  0  0  2  0  0  0  0  0  0
  187.8310  178.0530  144.4090 C   0  0  2  0  0  3  0  0  0  0  0  0
  184.6810  176.6090  137.7330 C   0  0  2  0  0  3  0  0  0  0  0  0
  188.3530  177.7520  140.7910 C   0  0  2  0  0  3  0  0  0  0  0  0
  183.4480  178.6620  137.0810 O   0  0  0  0  0  1  0  0  0  0  0  0
  192.0570  176.3070  136.9760 C   0  0  0  0  0  0  0  0  0  0  0  0
  187.2370  177.4990  143.1020 C   0  0  1  0  0  3  0  0  0  0  0  0
  187.9730  176.6580  139.8060 C   0  0  0  0  0  2  0  0  0  0  0  0
  183.2720  176.2500  137.2620 C   0  0  0  0  0  2  0  0  0  0  0  0
  184.0370  179.5710  142.5300 C   0  0  0  0  0  2  0  0  0  0  0  0
  186.7800  177.4000  137.0520 C   0  0  0  0  0  2  0  0  0  0  0  0
  189.6240  178.2240  138.7570 C   0  0  0  0  0  2  0  0  0  0  0  0
  189.3980  177.1850  139.8420 C   0  0  1  0  0  3  0  0  0  0  0  0
  186.2930  178.5400  142.4920 C   0  0  0  0  0  2  0  0  0  0  0  0
  189.8410  177.6050  137.4160 C   0  0  0  0  0  0  0  0  0  0  0  0
  184.7600  179.2170  139.8260 O   0  0  0  0  0  0  0  0  0  0  0  0
  189.5900  177.6890  142.9570 C   0  0  0  0  0  0  0  0  0  0  0  0
  189.2240  178.1810  144.1900 O   0  0  0  0  0  0  0  0  0  0  0  0
  183.2890  178.8200  141.5710 O   0  0  0  0  0  0  0  0  0  0  0  0
  183.5220  177.5740  137.9490 C   0  0  1  0  0  0  0  0  0  0  0  0
  183.7250  178.6280  140.2550 C   0  0  0  0  0  0  0  0  0  0  0  0
  182.9160  177.7380  139.3530 C   0  0  2  0  0  3  0  0  0  0  0  0
  188.1140  175.9040  135.5200 C   0  0  0  0  0  1  0  0  0  0  0  0
  190.7850  177.6570  142.5660 O   0  0  0  0  0  0  0  0  0  0  0  0
  188.4440  177.1470  142.1920 C   0  0  2  0  0  3  0  0  0  0  0  0
  190.9460  176.9560  137.1910 C   0  0  0  0  0  0  0  0  0  0  0  0
  192.6920  176.3660  135.6490 C   0  0  0  0  0  3  0  0  0  0  0  0
  192.7450  175.3610  134.8920 O   0  0  0  0  0  0  0  0  0  0  0  0
  188.5750  177.1860  146.5320 O   0  0  0  0  0  1  0  0  0  0  0  0
  187.5550  177.1080  145.5750 C   0  0  0  0  0  2  0  0  0  0  0  0
  192.5950  175.5540  138.0330 O   0  0  0  0  0  0  0  0  0  0  0  0
  193.9390  175.1780  138.1760 C   0  0  0  0  0  0  0  0  0  0  0  0
  194.7560  175.8840  138.8200 O   0  0  0  0  0  0  0  0  0  0  0  0
  194.3930  173.8860  137.6010 C   0  0  0  0  0  2  0  0  0  0  0  0
  195.7810  174.0470  137.0130 C   0  0  0  0  0  1  0  0  0  0  0  0
  182.6920  176.5020  139.9820 O   0  0  0  0  0  0  0  0  0  0  0  0
  181.4430  176.5630  140.4110 O   0  0  0  0  0  0  0  0  0  0  0  0
  180.1130  174.8000  140.9490 O   0  0  0  0  0  1  0  0  0  0  0  0
  180.8380  175.4030  139.9240 C   0  0  1  0  0  3  0  0  0  0  0  0
  179.9780  175.7340  138.8790 O   0  0  0  0  0  0  0  0  0  0  0  0
  180.2620  174.8040  137.8860 C   0  0  0  0  0  2  0  0  0  0  0  0
  179.6430  173.4680  138.2530 C   0  0  0  0  0  2  0  0  0  0  0  0
  180.3930  172.1320  137.2040 P   0  0  1  0  0  0  0  0  0  0  0  0
  179.0810  172.0540  136.0700 O   0  0  0  0  0  1  0  0  0  0  0  0
  181.4620  173.2440  136.1660 C   0  0  0  0  0  2  0  0  0  0  0  0
  182.8550  172.8340  136.2820 N   0  0  0  0  0  1  0  0  0  0  0  0
  2 26  1  1  0  0  0
  2  4  1  0  0  0  0
  2 14  1  0  0  0  0
  3 14  1  0  0  0  0
  3  6  1  0  0  0  0
  4 18  1  0  0  0  0
  5 33  1  1  0  0  0
  6 12  1  6  0  0  0
  6 23  1  0  0  0  0
  7 11  1  6  0  0  0
  7 28  1  0  0  0  0
  9 29  2  0  0  0  0
  9 34  1  0  0  0  0
 10 17  1  6  0  0  0
 10  5  1  0  0  0  0
 11 16  1  0  0  0  0
 12 23  1  0  0  0  0
 13  1  1  0  0  0  0
 16 15  1  6  0  0  0
 16  7  1  0  0  0  0
 17  1  1  0  0  0  0
 18 15  1  0  0  0  0
 19 24  2  0  0  0  0
 20 21  1  0  0  0  0
 21  5  1  0  0  0  0
 22 13  1  0  0  0  0
 23  8  1  6  0  0  0
 23 25  1  0  0  0  0
 24 22  1  0  0  0  0
 25 39  1  1  0  0  0
 25 24  1  0  0  0  0
 27 20  2  0  0  0  0
 28 20  1  1  0  0  0
 28 10  1  0  0  0  0
 29 18  2  0  0  0  0
 30  9  1  0  0  0  0
 31 30  2  0  0  0  0
 33 32  1  0  0  0  0
 34 35  1  0  0  0  0
 35 36  2  0  0  0  0
 37 35  1  0  0  0  0
 38 37  1  0  0  0  0
 39 40  1  0  0  0  0
 42 40  1  0  0  0  0
 42 41  1  1  0  0  0
 43 42  1  0  0  0  0
 44 45  1  0  0  0  0
 44 43  1  0  0  0  0
 46 47  1  6  0  0  0
 46 45  1  0  0  0  0
 48 49  1  0  0  0  0
 48 46  1  0  0  0  0
M  END
>  <MODEL>
8

>  <REMARK>
 VINA RESULT:      -4.6      2.392      3.312
  Name = 
  13 active torsions:
  status: ('A' for Active; 'I' for Inactive)
    1  A    between atoms: C_2  and  P_27
    2  A    between atoms: O_5  and  C_20
    3  A    between atoms: O_5  and  C_21
    4  A    between atoms: O_6  and  C_12
    5  A    between atoms: O_6  and  O_14
    6  A    between atoms: C_7  and  C_21
    7  A    between atoms: C_9  and  C_20
    8  A    between atoms: C_11  and  C_43
    9  A    between atoms: C_12  and  O_16
   10  A    between atoms: O_14  and  C_44
   11  A    between atoms: O_16  and  C_17
   12  A    between atoms: C_17  and  C_45
   13  A    between atoms: P_27  and  C_45
                            x       y       z     vdW  Elec       q    Type
                         _______ _______ _______ _____ _____    ______ ____

>  <TORSDO>
F 13

$$$$
=
 OpenBabel11062410583D

 49 52  0  0  1  0  0  0  0  0999 V2000
  189.4230  176.8960  139.2030 C   0  0  0  0  0  2  0  0  0  0  0  0
  181.6560  178.7110  139.1040 C   0  0  2  0  0  3  0  0  0  0  0  0
  182.9860  178.5800  141.1370 N   0  0  0  0  0  2  0  0  0  0  0  0
  181.7200  178.9660  137.5940 C   0  0  0  0  0  2  0  0  0  0  0  0
  189.0190  175.2360  136.6070 C   0  0  2  0  0  3  0  0  0  0  0  0
  184.1370  177.8780  141.6840 C   0  0  2  0  0  3  0  0  0  0  0  0
  185.6680  176.6070  137.1900 C   0  0  2  0  0  3  0  0  0  0  0  0
  184.8480  180.2000  142.1980 O   0  0  0  0  0  1  0  0  0  0  0  0
  180.4570  176.4240  135.4050 C   0  0  0  0  0  0  0  0  0  0  0  0
  187.9530  175.5180  137.6810 C   0  0  1  0  0  3  0  0  0  0  0  0
  184.5840  176.2290  138.1870 C   0  0  0  0  0  2  0  0  0  0  0  0
  184.1680  178.0960  143.1950 C   0  0  0  0  0  2  0  0  0  0  0  0
  189.5200  178.2340  139.9240 C   0  0  0  0  0  2  0  0  0  0  0  0
  183.0280  178.4340  139.6940 C   0  0  0  0  0  2  0  0  0  0  0  0
  183.6340  177.7160  136.4090 C   0  0  0  0  0  2  0  0  0  0  0  0
  184.2450  176.3590  136.7120 C   0  0  1  0  0  3  0  0  0  0  0  0
  188.2060  176.8980  138.2990 C   0  0  0  0  0  2  0  0  0  0  0  0
  182.1930  177.7870  136.7910 C   0  0  0  0  0  0  0  0  0  0  0  0
  186.8350  179.0770  140.1100 O   0  0  0  0  0  0  0  0  0  0  0  0
  186.9670  175.2520  135.5480 C   0  0  0  0  0  0  0  0  0  0  0  0
  188.3300  175.1570  135.3730 O   0  0  0  0  0  0  0  0  0  0  0  0
  188.7330  178.2130  141.1170 O   0  0  0  0  0  0  0  0  0  0  0  0
  185.1390  178.8410  142.3070 C   0  0  1  0  0  0  0  0  0  0  0  0
  187.3850  178.5890  141.1390 C   0  0  0  0  0  0  0  0  0  0  0  0
  186.6180  178.4350  142.4230 C   0  0  2  0  0  3  0  0  0  0  0  0
  180.6540  177.6140  139.4520 C   0  0  0  0  0  1  0  0  0  0  0  0
  186.1530  175.1590  134.5930 O   0  0  0  0  0  0  0  0  0  0  0  0
  186.5790  175.4000  136.9690 C   0  0  2  0  0  3  0  0  0  0  0  0
  181.3220  177.1090  136.1020 C   0  0  0  0  0  0  0  0  0  0  0  0
  179.1150  176.9770  135.1600 C   0  0  0  0  0  3  0  0  0  0  0  0
  178.9480  178.1010  134.6180 O   0  0  0  0  0  0  0  0  0  0  0  0
  189.5220  172.9930  135.8840 O   0  0  0  0  0  1  0  0  0  0  0  0
  189.7530  173.9310  136.8990 C   0  0  0  0  0  2  0  0  0  0  0  0
  180.8480  175.1620  134.9270 O   0  0  0  0  0  0  0  0  0  0  0  0
  181.0350  174.0100  135.7040 C   0  0  0  0  0  0  0  0  0  0  0  0
  180.1200  173.5500  136.4340 O   0  0  0  0  0  0  0  0  0  0  0  0
  182.3270  173.2810  135.6170 C   0  0  0  0  0  2  0  0  0  0  0  0
  182.8510  173.0010  137.0120 C   0  0  0  0  0  1  0  0  0  0  0  0
  186.7720  177.1280  142.9150 O   0  0  0  0  0  0  0  0  0  0  0  0
  187.8110  177.1940  143.7300 O   0  0  0  0  0  0  0  0  0  0  0  0
  186.2490  177.2570  145.3800 O   0  0  0  0  0  1  0  0  0  0  0  0
  187.3530  177.9090  144.8380 C   0  0  1  0  0  3  0  0  0  0  0  0
  188.3670  177.9780  145.7940 O   0  0  0  0  0  0  0  0  0  0  0  0
  189.5180  178.2390  145.0620 C   0  0  0  0  0  2  0  0  0  0  0  0
  190.7250  177.6990  145.8070 C   0  0  0  0  0  2  0  0  0  0  0  0
  191.0380  175.9460  145.2830 P   0  0  1  0  0  0  0  0  0  0  0  0
  192.0590  176.3530  143.9390 O   0  0  0  0  0  1  0  0  0  0  0  0
  192.4280  175.6080  146.4700 C   0  0  0  0  0  2  0  0  0  0  0  0
  192.0330  176.0080  147.8140 N   0  0  0  0  0  1  0  0  0  0  0  0
  1 13  1  0  0  0  0
  2 26  1  6  0  0  0
  2 14  1  0  0  0  0
  3  6  1  0  0  0  0
  4  2  1  0  0  0  0
  5 33  1  1  0  0  0
  5 10  1  0  0  0  0
  6 23  1  0  0  0  0
  6 12  1  1  0  0  0
  7 11  1  1  0  0  0
  9 29  2  0  0  0  0
 10 17  1  6  0  0  0
 13 22  1  0  0  0  0
 14  3  1  0  0  0  0
 15 18  1  0  0  0  0
 16 15  1  1  0  0  0
 16  7  1  0  0  0  0
 16 11  1  0  0  0  0
 17  1  1  0  0  0  0
 18  4  1  0  0  0  0
 19 24  2  0  0  0  0
 21 20  1  0  0  0  0
 21  5  1  0  0  0  0
 22 24  1  0  0  0  0
 23  8  1  6  0  0  0
 23 25  1  0  0  0  0
 23 12  1  0  0  0  0
 24 25  1  0  0  0  0
 25 39  1  6  0  0  0
 27 20  2  0  0  0  0
 28 20  1  6  0  0  0
 28  7  1  0  0  0  0
 28 10  1  0  0  0  0
 29 18  2  0  0  0  0
 30  9  1  0  0  0  0
 31 30  2  0  0  0  0
 32 33  1  0  0  0  0
 34  9  1  0  0  0  0
 34 35  1  0  0  0  0
 35 36  2  0  0  0  0
 37 35  1  0  0  0  0
 37 38  1  0  0  0  0
 39 40  1  0  0  0  0
 40 42  1  0  0  0  0
 42 41  1  1  0  0  0
 42 43  1  0  0  0  0
 44 43  1  0  0  0  0
 44 45  1  0  0  0  0
 46 47  1  6  0  0  0
 46 45  1  0  0  0  0
 46 48  1  0  0  0  0
 48 49  1  0  0  0  0
M  END
>  <MODEL>
9

>  <REMARK>
 VINA RESULT:      -4.6      3.631      9.155
  Name = 
  13 active torsions:
  status: ('A' for Active; 'I' for Inactive)
    1  A    between atoms: C_2  and  P_27
    2  A    between atoms: O_5  and  C_20
    3  A    between atoms: O_5  and  C_21
    4  A    between atoms: O_6  and  C_12
    5  A    between atoms: O_6  and  O_14
    6  A    between atoms: C_7  and  C_21
    7  A    between atoms: C_9  and  C_20
    8  A    between atoms: C_11  and  C_43
    9  A    between atoms: C_12  and  O_16
   10  A    between atoms: O_14  and  C_44
   11  A    between atoms: O_16  and  C_17
   12  A    between atoms: C_17  and  C_45
   13  A    between atoms: P_27  and  C_45
                            x       y       z     vdW  Elec       q    Type
                         _______ _______ _______ _____ _____    ______ ____

>  <TORSDO>
F 13

$$$$
