=
 OpenBabel11062415203D

 41 43  0  0  1  0  0  0  0  0999 V2000
  183.1780  178.0320  139.2000 C   0  0  0  0  0  0  0  0  0  0  0  0
  184.6250  176.3500  137.9980 C   0  0  0  0  0  2  0  0  0  0  0  0
  183.3220  176.8820  135.4500 C   0  0  0  0  0  2  0  0  0  0  0  0
  181.4800  179.7250  139.8510 C   0  0  1  0  0  3  0  0  0  0  0  0
  182.2520  177.9400  135.2360 C   0  0  0  0  0  2  0  0  0  0  0  0
  183.3320  176.8840  138.5370 C   0  0  0  0  0  3  0  0  0  0  0  0
  181.8750  178.3860  139.5720 O   0  0  0  0  0  0  0  0  0  0  0  0
  180.8640  180.3600  138.5900 C   0  0  2  0  0  3  0  0  0  0  0  0
  184.6590  177.5730  135.6720 C   0  0  2  0  0  3  0  0  0  0  0  0
  181.2570  177.9100  136.3840 C   0  0  1  0  0  3  0  0  0  0  0  0
  185.7630  176.5470  135.8110 C   0  0  2  0  0  3  0  0  0  0  0  0
  181.5970  180.0250  137.4450 O   0  0  0  0  0  0  0  0  0  0  0  0
  185.3180  177.3200  137.0350 C   0  0  2  0  0  3  0  0  0  0  0  0
  180.7040  179.3050  136.6470 C   0  0  0  0  0  2  0  0  0  0  0  0
  184.1230  180.2290  139.1020 O   0  0  0  0  0  1  0  0  0  0  0  0
  184.3610  178.9140  139.5110 C   0  0  1  0  0  3  0  0  0  0  0  0
  184.2120  177.8470  141.7580 O   0  0  0  0  0  1  0  0  0  0  0  0
  184.7350  178.8530  140.9570 C   0  0  0  0  0  0  0  0  0  0  0  0
  185.4960  179.7170  141.4620 O   0  0  0  0  0  0  0  0  0  0  0  0
  180.1570  176.8850  136.1090 C   0  0  2  0  0  3  0  0  0  0  0  0
  178.9310  177.4960  135.8360 O   0  0  0  0  0  1  0  0  0  0  0  0
  179.4240  176.2280  138.4320 C   0  0  0  0  0  3  0  0  0  0  0  0
  180.9990  174.1690  135.7920 O   0  0  0  0  0  1  0  0  0  0  0  0
  180.0180  175.8770  137.2120 C   0  0  0  0  0  0  0  0  0  0  0  0
  179.6680  173.9510  139.2250 C   0  0  0  0  0  3  0  0  0  0  0  0
  180.4260  174.5500  137.0000 C   0  0  0  0  0  0  0  0  0  0  0  0
  179.2520  175.2680  139.4370 C   0  0  0  0  0  3  0  0  0  0  0  0
  180.2510  173.5950  138.0060 C   0  0  0  0  0  3  0  0  0  0  0  0
  179.3160  179.0460  140.6430 O   0  0  0  0  0  1  0  0  0  0  0  0
  180.4760  179.7340  141.0050 C   0  0  1  0  0  3  0  0  0  0  0  0
  181.0780  179.0730  142.2300 C   0  0  0  0  0  2  0  0  0  0  0  0
  179.6770  177.7000  143.5700 O   0  0  0  0  0  1  0  0  0  0  0  0
  180.0620  179.0230  143.3530 C   0  0  0  0  0  2  0  0  0  0  0  0
  180.7710  181.8740  138.7090 C   0  0  0  0  0  2  0  0  0  0  0  0
  181.6240  182.5010  137.7600 O   0  0  0  0  0  0  0  0  0  0  0  0
  180.1350  183.9230  136.4340 N   0  0  0  0  0  1  0  0  0  0  0  0
  182.0870  184.7170  137.4010 O   0  0  0  0  0  0  0  0  0  0  0  0
  181.3180  183.7410  137.2070 C   0  0  0  0  0  0  0  0  0  0  0  0
  187.0590  177.1300  135.2930 C   0  0  0  0  0  2  0  0  0  0  0  0
  188.7460  178.1830  136.5900 O   0  0  0  0  0  1  0  0  0  0  0  0
  187.4420  178.3360  136.1250 C   0  0  0  0  0  2  0  0  0  0  0  0
  1 16  1  0  0  0  0
  1  7  1  0  0  0  0
  2  6  1  0  0  0  0
  4 30  1  1  0  0  0
  5  3  1  0  0  0  0
  5 10  1  0  0  0  0
  6  1  2  0  0  0  0
  7  4  1  0  0  0  0
  8 34  1  1  0  0  0
  8  4  1  0  0  0  0
  9  3  1  1  0  0  0
  9 11  1  0  0  0  0
  9 13  1  0  0  0  0
 10 20  1  6  0  0  0
 10 14  1  0  0  0  0
 11 39  1  6  0  0  0
 11 13  1  0  0  0  0
 12  8  1  0  0  0  0
 13  2  1  1  0  0  0
 14 12  1  0  0  0  0
 16 15  1  1  0  0  0
 16 18  1  0  0  0  0
 18 19  2  0  0  0  0
 18 17  1  0  0  0  0
 20 21  1  1  0  0  0
 20 24  1  0  0  0  0
 22 27  1  0  0  0  0
 23 26  1  0  0  0  0
 24 22  2  0  0  0  0
 25 27  2  0  0  0  0
 26 24  1  0  0  0  0
 26 28  2  0  0  0  0
 28 25  1  0  0  0  0
 30 29  1  6  0  0  0
 30 31  1  0  0  0  0
 31 33  1  0  0  0  0
 33 32  1  0  0  0  0
 35 34  1  0  0  0  0
 36 38  1  0  0  0  0
 38 37  2  0  0  0  0
 38 35  1  0  0  0  0
 39 41  1  0  0  0  0
 41 40  1  0  0  0  0
M  END
>  <MODEL>
1

>  <REMARK>
 VINA RESULT:      -5.3      0.000      0.000
  Name = 
  12 active torsions:
  status: ('A' for Active; 'I' for Inactive)
    1  A    between atoms: C_1  and  O_19
    2  A    between atoms: C_1  and  C_26
    3  A    between atoms: C_5  and  C_6
    4  A    between atoms: C_5  and  C_28
    5  A    between atoms: C_8  and  C_16
    6  A    between atoms: C_12  and  C_40
    7  A    between atoms: C_15  and  C_29
    8  A    between atoms: C_15  and  C_37
    9  A    between atoms: C_16  and  C_24
   10  A    between atoms: C_18  and  C_29
   11  A    between atoms: O_19  and  C_41
   12  A    between atoms: C_30  and  C_40
                            x       y       z     vdW  Elec       q    Type
                         _______ _______ _______ _____ _____    ______ ____

>  <TORSDO>
F 12

$$$$
=
 OpenBabel11062415203D

 41 43  0  0  1  0  0  0  0  0999 V2000
  184.4150  178.1510  138.4580 C   0  0  0  0  0  0  0  0  0  0  0  0
  184.7210  179.6500  140.4650 C   0  0  0  0  0  2  0  0  0  0  0  0
  182.3790  178.5410  141.7910 C   0  0  0  0  0  2  0  0  0  0  0  0
  183.6110  176.5160  136.7690 C   0  0  1  0  0  3  0  0  0  0  0  0
  181.5440  177.3950  141.2440 C   0  0  0  0  0  2  0  0  0  0  0  0
  184.0100  179.1520  139.2430 C   0  0  0  0  0  3  0  0  0  0  0  0
  183.5790  177.7950  137.3930 O   0  0  0  0  0  0  0  0  0  0  0  0
  182.5370  175.6060  137.3920 C   0  0  2  0  0  3  0  0  0  0  0  0
  183.7250  177.9940  142.2460 C   0  0  2  0  0  3  0  0  0  0  0  0
  181.3110  177.5880  139.7560 C   0  0  1  0  0  3  0  0  0  0  0  0
  184.5540  179.0960  142.8690 C   0  0  2  0  0  3  0  0  0  0  0  0
  182.4930  175.7530  138.7830 O   0  0  0  0  0  0  0  0  0  0  0  0
  184.9500  178.5540  141.5110 C   0  0  2  0  0  3  0  0  0  0  0  0
  181.2110  176.2410  139.0520 C   0  0  0  0  0  2  0  0  0  0  0  0
  185.7410  176.1990  138.0630 O   0  0  0  0  0  1  0  0  0  0  0  0
  185.7080  177.4270  138.7300 C   0  0  1  0  0  3  0  0  0  0  0  0
  186.8700  179.0600  137.2490 O   0  0  0  0  0  0  0  0  0  0  0  0
  186.8990  178.2640  138.3870 C   0  0  0  0  0  0  0  0  0  0  0  0
  187.9330  178.2360  139.1000 O   0  0  0  0  0  1  0  0  0  0  0  0
  180.0820  178.4660  139.5180 C   0  0  2  0  0  3  0  0  0  0  0  0
  179.0310  177.7480  138.9430 O   0  0  0  0  0  1  0  0  0  0  0  0
  180.6150  179.6050  137.3310 C   0  0  0  0  0  3  0  0  0  0  0  0
  180.1680  181.0710  140.6990 O   0  0  0  0  0  1  0  0  0  0  0  0
  180.3950  179.6920  138.7120 C   0  0  0  0  0  0  0  0  0  0  0  0
  180.8730  182.0110  137.2030 C   0  0  0  0  0  3  0  0  0  0  0  0
  180.4040  180.9520  139.3330 C   0  0  0  0  0  0  0  0  0  0  0  0
  180.8560  180.7610  136.5780 C   0  0  0  0  0  3  0  0  0  0  0  0
  180.6440  182.1040  138.5770 C   0  0  0  0  0  3  0  0  0  0  0  0
  182.3180  177.5470  135.0260 O   0  0  0  0  0  1  0  0  0  0  0  0
  183.3800  176.6720  135.2650 C   0  0  1  0  0  3  0  0  0  0  0  0
  184.6270  177.2190  134.5960 C   0  0  0  0  0  2  0  0  0  0  0  0
  186.9660  176.8750  134.8250 O   0  0  0  0  0  1  0  0  0  0  0  0
  185.7520  176.2070  134.6730 C   0  0  0  0  0  2  0  0  0  0  0  0
  182.7660  174.1420  137.0430 C   0  0  0  0  0  2  0  0  0  0  0  0
  184.0850  173.7470  137.3940 O   0  0  0  0  0  0  0  0  0  0  0  0
  186.2000  172.7170  136.7150 N   0  0  0  0  0  1  0  0  0  0  0  0
  184.1430  171.9530  135.9670 O   0  0  0  0  0  0  0  0  0  0  0  0
  184.7780  172.7840  136.6670 C   0  0  0  0  0  0  0  0  0  0  0  0
  185.4590  178.5060  143.9290 C   0  0  0  0  0  2  0  0  0  0  0  0
  183.6480  179.1510  145.3210 O   0  0  0  0  0  1  0  0  0  0  0  0
  185.0330  179.0020  145.2940 C   0  0  0  0  0  2  0  0  0  0  0  0
  1 16  1  0  0  0  0
  1  6  2  0  0  0  0
  4 30  1  6  0  0  0
  4  8  1  0  0  0  0
  4  7  1  0  0  0  0
  5  3  1  0  0  0  0
  6  2  1  0  0  0  0
  7  1  1  0  0  0  0
  8 34  1  1  0  0  0
  8 12  1  0  0  0  0
  9  3  1  6  0  0  0
  9 11  1  0  0  0  0
 10 20  1  1  0  0  0
 10  5  1  0  0  0  0
 11 39  1  1  0  0  0
 12 14  1  0  0  0  0
 13  2  1  6  0  0  0
 13  9  1  0  0  0  0
 13 11  1  0  0  0  0
 14 10  1  0  0  0  0
 16 15  1  6  0  0  0
 17 18  2  0  0  0  0
 18 16  1  0  0  0  0
 18 19  1  0  0  0  0
 20 21  1  6  0  0  0
 22 24  1  0  0  0  0
 24 26  2  0  0  0  0
 24 20  1  0  0  0  0
 25 28  2  0  0  0  0
 26 23  1  0  0  0  0
 27 25  1  0  0  0  0
 27 22  2  0  0  0  0
 28 26  1  0  0  0  0
 30 29  1  1  0  0  0
 31 33  1  0  0  0  0
 31 30  1  0  0  0  0
 33 32  1  0  0  0  0
 34 35  1  0  0  0  0
 37 38  2  0  0  0  0
 38 36  1  0  0  0  0
 38 35  1  0  0  0  0
 39 41  1  0  0  0  0
 41 40  1  0  0  0  0
M  END
>  <MODEL>
2

>  <REMARK>
 VINA RESULT:      -4.2      3.133      7.111
  Name = 
  12 active torsions:
  status: ('A' for Active; 'I' for Inactive)
    1  A    between atoms: C_1  and  O_19
    2  A    between atoms: C_1  and  C_26
    3  A    between atoms: C_5  and  C_6
    4  A    between atoms: C_5  and  C_28
    5  A    between atoms: C_8  and  C_16
    6  A    between atoms: C_12  and  C_40
    7  A    between atoms: C_15  and  C_29
    8  A    between atoms: C_15  and  C_37
    9  A    between atoms: C_16  and  C_24
   10  A    between atoms: C_18  and  C_29
   11  A    between atoms: O_19  and  C_41
   12  A    between atoms: C_30  and  C_40
                            x       y       z     vdW  Elec       q    Type
                         _______ _______ _______ _____ _____    ______ ____

>  <TORSDO>
F 12

$$$$
=
 OpenBabel11062415203D

 41 43  0  0  1  0  0  0  0  0999 V2000
  186.1610  178.0700  138.2350 C   0  0  0  0  0  0  0  0  0  0  0  0
  185.3570  179.4490  140.1880 C   0  0  0  0  0  2  0  0  0  0  0  0
  182.9710  177.8130  140.5070 C   0  0  0  0  0  2  0  0  0  0  0  0
  186.4230  176.4360  136.3800 C   0  0  1  0  0  3  0  0  0  0  0  0
  182.6670  176.5690  139.6890 C   0  0  0  0  0  2  0  0  0  0  0  0
  185.2890  178.9130  138.7900 C   0  0  0  0  0  3  0  0  0  0  0  0
  185.8900  177.6360  136.9310 O   0  0  0  0  0  0  0  0  0  0  0  0
  185.4060  175.2920  136.5430 C   0  0  2  0  0  3  0  0  0  0  0  0
  184.1220  177.5060  141.4560 C   0  0  2  0  0  3  0  0  0  0  0  0
  182.9860  176.8210  138.2260 C   0  0  1  0  0  3  0  0  0  0  0  0
  184.4010  178.7000  142.3420 C   0  0  2  0  0  3  0  0  0  0  0  0
  184.8030  175.3260  137.8070 O   0  0  0  0  0  0  0  0  0  0  0  0
  185.3900  178.3460  141.2510 C   0  0  2  0  0  3  0  0  0  0  0  0
  183.4460  175.5350  137.5500 C   0  0  0  0  0  2  0  0  0  0  0  0
  187.7720  176.3290  138.5520 O   0  0  0  0  0  1  0  0  0  0  0  0
  187.3710  177.5920  138.9960 C   0  0  1  0  0  3  0  0  0  0  0  0
  188.6400  179.3720  137.7980 O   0  0  0  0  0  0  0  0  0  0  0  0
  188.4960  178.5750  138.9260 C   0  0  0  0  0  0  0  0  0  0  0  0
  189.3270  178.6700  139.8630 O   0  0  0  0  0  1  0  0  0  0  0  0
  181.7890  177.4590  137.5190 C   0  0  2  0  0  3  0  0  0  0  0  0
  182.0370  177.6720  136.1610 O   0  0  0  0  0  1  0  0  0  0  0  0
  182.0850  179.9010  138.0770 C   0  0  0  0  0  3  0  0  0  0  0  0
  179.3280  177.6010  138.9720 O   0  0  0  0  0  1  0  0  0  0  0  0
  181.3320  178.7230  138.1840 C   0  0  0  0  0  0  0  0  0  0  0  0
  180.4070  181.1080  139.3440 C   0  0  0  0  0  3  0  0  0  0  0  0
  180.1050  178.7490  138.8670 C   0  0  0  0  0  0  0  0  0  0  0  0
  181.6250  181.0900  138.6560 C   0  0  0  0  0  3  0  0  0  0  0  0
  179.6500  179.9390  139.4440 C   0  0  0  0  0  3  0  0  0  0  0  0
  186.7200  178.0150  134.5940 O   0  0  0  0  0  1  0  0  0  0  0  0
  186.7590  176.6540  134.9040 C   0  0  1  0  0  3  0  0  0  0  0  0
  188.1440  176.1180  134.5950 C   0  0  0  0  0  2  0  0  0  0  0  0
  190.4020  176.7590  134.9620 O   0  0  0  0  0  1  0  0  0  0  0  0
  189.1540  176.6730  135.5790 C   0  0  0  0  0  2  0  0  0  0  0  0
  186.0490  173.9300  136.3240 C   0  0  0  0  0  2  0  0  0  0  0  0
  187.2140  173.7940  137.1270 O   0  0  0  0  0  0  0  0  0  0  0  0
  189.6300  173.3960  137.1630 N   0  0  0  0  0  1  0  0  0  0  0  0
  188.1750  172.1300  135.8770 O   0  0  0  0  0  0  0  0  0  0  0  0
  188.3240  173.0780  136.6900 C   0  0  0  0  0  0  0  0  0  0  0  0
  184.9330  178.2210  143.6760 C   0  0  0  0  0  2  0  0  0  0  0  0
  183.4280  179.2850  145.1720 O   0  0  0  0  0  1  0  0  0  0  0  0
  184.7440  179.3050  144.7160 C   0  0  0  0  0  2  0  0  0  0  0  0
  1  6  2  0  0  0  0
  1 16  1  0  0  0  0
  4 30  1  6  0  0  0
  4  8  1  0  0  0  0
  4  7  1  0  0  0  0
  5  3  1  0  0  0  0
  6  2  1  0  0  0  0
  7  1  1  0  0  0  0
  8 34  1  1  0  0  0
  8 12  1  0  0  0  0
  9  3  1  6  0  0  0
  9 11  1  0  0  0  0
 10 20  1  6  0  0  0
 10  5  1  0  0  0  0
 11 39  1  1  0  0  0
 13  2  1  6  0  0  0
 13  9  1  0  0  0  0
 13 11  1  0  0  0  0
 14 12  1  0  0  0  0
 14 10  1  0  0  0  0
 16 15  1  6  0  0  0
 17 18  2  0  0  0  0
 18 16  1  0  0  0  0
 18 19  1  0  0  0  0
 20 21  1  6  0  0  0
 20 24  1  0  0  0  0
 22 24  2  0  0  0  0
 22 27  1  0  0  0  0
 24 26  1  0  0  0  0
 25 28  1  0  0  0  0
 26 23  1  0  0  0  0
 26 28  2  0  0  0  0
 27 25  2  0  0  0  0
 30 29  1  1  0  0  0
 31 30  1  0  0  0  0
 31 33  1  0  0  0  0
 32 33  1  0  0  0  0
 34 35  1  0  0  0  0
 37 38  2  0  0  0  0
 38 35  1  0  0  0  0
 38 36  1  0  0  0  0
 39 41  1  0  0  0  0
 41 40  1  0  0  0  0
M  END
>  <MODEL>
3

>  <REMARK>
 VINA RESULT:      -3.9      3.633      7.603
  Name = 
  12 active torsions:
  status: ('A' for Active; 'I' for Inactive)
    1  A    between atoms: C_1  and  O_19
    2  A    between atoms: C_1  and  C_26
    3  A    between atoms: C_5  and  C_6
    4  A    between atoms: C_5  and  C_28
    5  A    between atoms: C_8  and  C_16
    6  A    between atoms: C_12  and  C_40
    7  A    between atoms: C_15  and  C_29
    8  A    between atoms: C_15  and  C_37
    9  A    between atoms: C_16  and  C_24
   10  A    between atoms: C_18  and  C_29
   11  A    between atoms: O_19  and  C_41
   12  A    between atoms: C_30  and  C_40
                            x       y       z     vdW  Elec       q    Type
                         _______ _______ _______ _____ _____    ______ ____

>  <TORSDO>
F 12

$$$$
=
 OpenBabel11062415203D

 41 43  0  0  1  0  0  0  0  0999 V2000
  182.7000  175.9720  138.4380 C   0  0  0  0  0  0  0  0  0  0  0  0
  181.1940  177.2200  140.0330 C   0  0  0  0  0  2  0  0  0  0  0  0
  182.8800  179.5910  139.9480 C   0  0  0  0  0  2  0  0  0  0  0  0
  184.5250  175.2340  136.9220 C   0  0  1  0  0  3  0  0  0  0  0  0
  184.1090  179.7400  139.0670 C   0  0  0  0  0  2  0  0  0  0  0  0
  182.4690  176.5490  139.6190 C   0  0  0  0  0  3  0  0  0  0  0  0
  183.9810  175.4500  138.2200 O   0  0  0  0  0  0  0  0  0  0  0  0
  185.3840  176.4430  136.5100 C   0  0  2  0  0  3  0  0  0  0  0  0
  181.6390  179.6230  139.0670 C   0  0  2  0  0  3  0  0  0  0  0  0
  184.9320  178.4640  139.1050 C   0  0  1  0  0  3  0  0  0  0  0  0
  180.3910  179.5560  139.9200 C   0  0  2  0  0  3  0  0  0  0  0  0
  184.7660  177.6480  136.8650 O   0  0  0  0  0  0  0  0  0  0  0  0
  180.7800  178.3510  139.0870 C   0  0  2  0  0  3  0  0  0  0  0  0
  185.6420  178.2460  137.7750 C   0  0  0  0  0  2  0  0  0  0  0  0
  182.0000  176.6410  136.2490 O   0  0  0  0  0  1  0  0  0  0  0  0
  181.6260  175.9120  137.3810 C   0  0  1  0  0  3  0  0  0  0  0  0
  180.8010  173.6470  138.0150 O   0  0  0  0  0  1  0  0  0  0  0  0
  181.2720  174.5020  137.0280 C   0  0  0  0  0  0  0  0  0  0  0  0
  181.4220  174.0760  135.8560 O   0  0  0  0  0  0  0  0  0  0  0  0
  185.9000  178.4880  140.2890 C   0  0  2  0  0  3  0  0  0  0  0  0
  185.8050  179.6770  141.0170 O   0  0  0  0  0  1  0  0  0  0  0  0
  187.7560  178.5150  138.5800 C   0  0  0  0  0  3  0  0  0  0  0  0
  187.8390  177.4670  142.1280 O   0  0  0  0  0  1  0  0  0  0  0  0
  187.3190  178.2250  139.8800 C   0  0  0  0  0  0  0  0  0  0  0  0
  190.0050  177.8270  139.1640 C   0  0  0  0  0  3  0  0  0  0  0  0
  188.2400  177.7440  140.8250 C   0  0  0  0  0  0  0  0  0  0  0  0
  189.0940  178.3150  138.2220 C   0  0  0  0  0  3  0  0  0  0  0  0
  189.5760  177.5460  140.4630 C   0  0  0  0  0  3  0  0  0  0  0  0
  186.5970  174.1820  137.5320 O   0  0  0  0  0  1  0  0  0  0  0  0
  185.3610  173.9540  136.9230 C   0  0  1  0  0  3  0  0  0  0  0  0
  184.6380  172.8540  137.6760 C   0  0  0  0  0  2  0  0  0  0  0  0
  182.9290  171.2720  137.2060 O   0  0  0  0  0  1  0  0  0  0  0  0
  184.1170  171.8090  136.7100 C   0  0  0  0  0  2  0  0  0  0  0  0
  185.6780  176.4440  135.0160 C   0  0  0  0  0  2  0  0  0  0  0  0
  187.0230  176.0530  134.7730 O   0  0  0  0  0  0  0  0  0  0  0  0
  189.4250  176.5270  134.7700 N   0  0  0  0  0  1  0  0  0  0  0  0
  187.8240  178.1960  134.9140 O   0  0  0  0  0  0  0  0  0  0  0  0
  188.0710  176.9660  134.8270 C   0  0  0  0  0  0  0  0  0  0  0  0
  179.2700  180.3020  139.2300 C   0  0  0  0  0  2  0  0  0  0  0  0
  179.2510  182.6760  139.2160 O   0  0  0  0  0  1  0  0  0  0  0  0
  179.8160  181.5640  138.5950 C   0  0  0  0  0  2  0  0  0  0  0  0
  1  6  2  0  0  0  0
  4 30  1  1  0  0  0
  4  7  1  0  0  0  0
  5 10  1  0  0  0  0
  5  3  1  0  0  0  0
  6  2  1  0  0  0  0
  7  1  1  0  0  0  0
  8 34  1  6  0  0  0
  8 12  1  0  0  0  0
  8  4  1  0  0  0  0
  9 13  1  0  0  0  0
  9 11  1  0  0  0  0
  9  3  1  1  0  0  0
 10 20  1  1  0  0  0
 11 39  1  6  0  0  0
 12 14  1  0  0  0  0
 13 11  1  0  0  0  0
 13  2  1  1  0  0  0
 14 10  1  0  0  0  0
 16 15  1  6  0  0  0
 16  1  1  0  0  0  0
 18 16  1  0  0  0  0
 18 17  1  0  0  0  0
 19 18  2  0  0  0  0
 20 21  1  6  0  0  0
 22 24  1  0  0  0  0
 24 20  1  0  0  0  0
 24 26  2  0  0  0  0
 25 28  2  0  0  0  0
 26 23  1  0  0  0  0
 27 22  2  0  0  0  0
 27 25  1  0  0  0  0
 28 26  1  0  0  0  0
 30 29  1  1  0  0  0
 30 31  1  0  0  0  0
 33 32  1  0  0  0  0
 33 31  1  0  0  0  0
 35 38  1  0  0  0  0
 35 34  1  0  0  0  0
 36 38  1  0  0  0  0
 38 37  2  0  0  0  0
 41 40  1  0  0  0  0
 41 39  1  0  0  0  0
M  END
>  <MODEL>
4

>  <REMARK>
 VINA RESULT:      -3.7      3.124      7.856
  Name = 
  12 active torsions:
  status: ('A' for Active; 'I' for Inactive)
    1  A    between atoms: C_1  and  O_19
    2  A    between atoms: C_1  and  C_26
    3  A    between atoms: C_5  and  C_6
    4  A    between atoms: C_5  and  C_28
    5  A    between atoms: C_8  and  C_16
    6  A    between atoms: C_12  and  C_40
    7  A    between atoms: C_15  and  C_29
    8  A    between atoms: C_15  and  C_37
    9  A    between atoms: C_16  and  C_24
   10  A    between atoms: C_18  and  C_29
   11  A    between atoms: O_19  and  C_41
   12  A    between atoms: C_30  and  C_40
                            x       y       z     vdW  Elec       q    Type
                         _______ _______ _______ _____ _____    ______ ____

>  <TORSDO>
F 12

$$$$
=
 OpenBabel11062415203D

 41 43  0  0  1  0  0  0  0  0999 V2000
  182.2950  176.7910  137.0920 C   0  0  0  0  0  0  0  0  0  0  0  0
  180.1670  178.0980  137.4540 C   0  0  0  0  0  2  0  0  0  0  0  0
  181.5670  180.1900  138.9140 C   0  0  0  0  0  2  0  0  0  0  0  0
  184.6260  175.9310  137.0870 C   0  0  1  0  0  3  0  0  0  0  0  0
  183.0720  180.2340  139.1210 C   0  0  0  0  0  2  0  0  0  0  0  0
  181.3480  177.2860  137.8920 C   0  0  0  0  0  3  0  0  0  0  0  0
  183.3530  176.1060  137.7010 O   0  0  0  0  0  0  0  0  0  0  0  0
  185.5910  177.0310  137.5640 C   0  0  2  0  0  3  0  0  0  0  0  0
  181.2630  180.4860  137.4530 C   0  0  2  0  0  3  0  0  0  0  0  0
  183.5850  178.8520  139.4840 C   0  0  1  0  0  3  0  0  0  0  0  0
  179.7670  180.5280  137.2270 C   0  0  2  0  0  3  0  0  0  0  0  0
  184.9540  178.2770  137.6110 O   0  0  0  0  0  0  0  0  0  0  0  0
  180.5620  179.3600  136.6800 C   0  0  2  0  0  3  0  0  0  0  0  0
  185.0010  178.6530  138.9560 C   0  0  0  0  0  2  0  0  0  0  0  0
  183.4950  177.2660  135.0770 O   0  0  0  0  0  1  0  0  0  0  0  0
  182.2290  176.9870  135.5990 C   0  0  1  0  0  3  0  0  0  0  0  0
  182.3850  174.7110  134.5940 O   0  0  0  0  0  1  0  0  0  0  0  0
  181.6040  175.8140  134.9110 C   0  0  0  0  0  0  0  0  0  0  0  0
  180.3880  175.8270  134.5940 O   0  0  0  0  0  0  0  0  0  0  0  0
  183.4860  178.6250  140.9930 C   0  0  2  0  0  3  0  0  0  0  0  0
  184.2700  177.5480  141.4120 O   0  0  0  0  0  1  0  0  0  0  0  0
  181.1510  177.7080  140.7230 C   0  0  0  0  0  3  0  0  0  0  0  0
  182.5670  179.7740  143.4470 O   0  0  0  0  0  1  0  0  0  0  0  0
  182.0690  178.4680  141.4610 C   0  0  0  0  0  0  0  0  0  0  0  0
  179.4510  178.0960  142.4070 C   0  0  0  0  0  3  0  0  0  0  0  0
  181.6710  179.0330  142.6840 C   0  0  0  0  0  0  0  0  0  0  0  0
  179.8450  177.5240  141.1940 C   0  0  0  0  0  3  0  0  0  0  0  0
  180.3660  178.8460  143.1500 C   0  0  0  0  0  3  0  0  0  0  0  0
  184.1640  173.7420  137.9650 O   0  0  0  0  0  1  0  0  0  0  0  0
  185.1750  174.5450  137.4310 C   0  0  1  0  0  3  0  0  0  0  0  0
  185.7300  173.8750  136.1890 C   0  0  0  0  0  2  0  0  0  0  0  0
  188.0300  174.0490  135.6210 O   0  0  0  0  0  1  0  0  0  0  0  0
  187.1350  173.3700  136.4460 C   0  0  0  0  0  2  0  0  0  0  0  0
  186.8240  177.1240  136.6770 C   0  0  0  0  0  2  0  0  0  0  0  0
  188.0040  176.9160  137.4400 O   0  0  0  0  0  0  0  0  0  0  0  0
  188.7820  179.1850  137.9350 N   0  0  0  0  0  1  0  0  0  0  0  0
  188.5830  177.5490  139.5660 O   0  0  0  0  0  0  0  0  0  0  0  0
  188.4620  177.8610  138.3530 C   0  0  0  0  0  0  0  0  0  0  0  0
  179.4550  181.4920  136.1040 C   0  0  0  0  0  2  0  0  0  0  0  0
  178.9330  182.9170  137.9290 O   0  0  0  0  0  1  0  0  0  0  0  0
  179.4530  182.9090  136.6370 C   0  0  0  0  0  2  0  0  0  0  0  0
  1  7  1  0  0  0  0
  1  6  2  0  0  0  0
  2  6  1  0  0  0  0
  3  5  1  0  0  0  0
  4 30  1  1  0  0  0
  4  8  1  0  0  0  0
  4  7  1  0  0  0  0
  5 10  1  0  0  0  0
  8 34  1  6  0  0  0
  8 12  1  0  0  0  0
  9  3  1  1  0  0  0
 10 20  1  1  0  0  0
 11 39  1  6  0  0  0
 11  9  1  0  0  0  0
 12 14  1  0  0  0  0
 13 11  1  0  0  0  0
 13  9  1  0  0  0  0
 13  2  1  1  0  0  0
 14 10  1  0  0  0  0
 16 15  1  6  0  0  0
 16  1  1  0  0  0  0
 17 18  1  0  0  0  0
 18 16  1  0  0  0  0
 19 18  2  0  0  0  0
 20 21  1  6  0  0  0
 20 24  1  0  0  0  0
 22 27  2  0  0  0  0
 22 24  1  0  0  0  0
 24 26  2  0  0  0  0
 25 28  2  0  0  0  0
 26 28  1  0  0  0  0
 26 23  1  0  0  0  0
 27 25  1  0  0  0  0
 30 29  1  6  0  0  0
 31 33  1  0  0  0  0
 31 30  1  0  0  0  0
 32 33  1  0  0  0  0
 34 35  1  0  0  0  0
 35 38  1  0  0  0  0
 36 38  1  0  0  0  0
 38 37  2  0  0  0  0
 39 41  1  0  0  0  0
 41 40  1  0  0  0  0
M  END
>  <MODEL>
5

>  <REMARK>
 VINA RESULT:      -3.7      2.703      7.212
  Name = 
  12 active torsions:
  status: ('A' for Active; 'I' for Inactive)
    1  A    between atoms: C_1  and  O_19
    2  A    between atoms: C_1  and  C_26
    3  A    between atoms: C_5  and  C_6
    4  A    between atoms: C_5  and  C_28
    5  A    between atoms: C_8  and  C_16
    6  A    between atoms: C_12  and  C_40
    7  A    between atoms: C_15  and  C_29
    8  A    between atoms: C_15  and  C_37
    9  A    between atoms: C_16  and  C_24
   10  A    between atoms: C_18  and  C_29
   11  A    between atoms: O_19  and  C_41
   12  A    between atoms: C_30  and  C_40
                            x       y       z     vdW  Elec       q    Type
                         _______ _______ _______ _____ _____    ______ ____

>  <TORSDO>
F 12

$$$$
=
 OpenBabel11062415203D

 41 43  0  0  1  0  0  0  0  0999 V2000
  182.8450  178.3950  138.7210 C   0  0  0  0  0  0  0  0  0  0  0  0
  181.1140  179.9320  139.7260 C   0  0  0  0  0  2  0  0  0  0  0  0
  178.9400  178.1310  139.0160 C   0  0  0  0  0  2  0  0  0  0  0  0
  184.0670  176.5700  137.5590 C   0  0  1  0  0  3  0  0  0  0  0  0
  179.1290  176.7700  138.3680 C   0  0  0  0  0  2  0  0  0  0  0  0
  181.8000  179.2170  138.6010 C   0  0  0  0  0  3  0  0  0  0  0  0
  183.3080  177.7750  137.5540 O   0  0  0  0  0  0  0  0  0  0  0  0
  183.1320  175.3650  137.3500 C   0  0  2  0  0  3  0  0  0  0  0  0
  179.4210  178.0590  140.4580 C   0  0  2  0  0  3  0  0  0  0  0  0
  180.1690  176.8610  137.2650 C   0  0  1  0  0  3  0  0  0  0  0  0
  179.1760  179.3780  141.1590 C   0  0  2  0  0  3  0  0  0  0  0  0
  181.9530  175.5040  138.0930 O   0  0  0  0  0  0  0  0  0  0  0  0
  180.5960  178.9820  140.8110 C   0  0  2  0  0  3  0  0  0  0  0  0
  180.9320  175.5490  137.1400 C   0  0  0  0  0  2  0  0  0  0  0  0
  183.7370  176.7740  140.2380 O   0  0  0  0  0  1  0  0  0  0  0  0
  183.4780  178.1360  140.0640 C   0  0  1  0  0  3  0  0  0  0  0  0
  185.5080  178.7350  141.3820 O   0  0  0  0  0  1  0  0  0  0  0  0
  184.7140  178.9540  140.2640 C   0  0  0  0  0  0  0  0  0  0  0  0
  185.0290  179.8550  139.4460 O   0  0  0  0  0  0  0  0  0  0  0  0
  179.5150  177.2860  135.9490 C   0  0  2  0  0  3  0  0  0  0  0  0
  179.8060  176.3980  134.9110 O   0  0  0  0  0  1  0  0  0  0  0  0
  179.0090  179.7570  135.8900 C   0  0  0  0  0  3  0  0  0  0  0  0
  181.9550  177.9280  134.6000 O   0  0  0  0  0  1  0  0  0  0  0  0
  179.8610  178.6940  135.5610 C   0  0  0  0  0  0  0  0  0  0  0  0
  180.5750  181.3330  134.9230 C   0  0  0  0  0  3  0  0  0  0  0  0
  181.0810  178.9610  134.9190 C   0  0  0  0  0  0  0  0  0  0  0  0
  179.3640  181.0730  135.5700 C   0  0  0  0  0  3  0  0  0  0  0  0
  181.4320  180.2770  134.6020 C   0  0  0  0  0  3  0  0  0  0  0  0
  184.7880  177.5930  135.5080 O   0  0  0  0  0  1  0  0  0  0  0  0
  185.1270  176.6280  136.4590 C   0  0  1  0  0  3  0  0  0  0  0  0
  186.4800  176.9730  137.0500 C   0  0  0  0  0  2  0  0  0  0  0  0
  187.7730  178.9310  137.4250 O   0  0  0  0  0  1  0  0  0  0  0  0
  186.9880  178.2800  136.4750 C   0  0  0  0  0  2  0  0  0  0  0  0
  183.8110  174.0530  137.7160 C   0  0  0  0  0  2  0  0  0  0  0  0
  184.3950  173.4570  136.5660 O   0  0  0  0  0  0  0  0  0  0  0  0
  186.5980  173.2780  137.6200 N   0  0  0  0  0  1  0  0  0  0  0  0
  186.0330  172.1070  135.7010 O   0  0  0  0  0  0  0  0  0  0  0  0
  185.6800  172.9230  136.5910 C   0  0  0  0  0  0  0  0  0  0  0  0
  178.9310  179.1260  142.6310 C   0  0  0  0  0  2  0  0  0  0  0  0
  180.0090  178.5550  144.6670 O   0  0  0  0  0  1  0  0  0  0  0  0
  180.2320  178.7480  143.3050 C   0  0  0  0  0  2  0  0  0  0  0  0
  1 16  1  0  0  0  0
  4 30  1  6  0  0  0
  5  3  1  0  0  0  0
  6  1  2  0  0  0  0
  6  2  1  0  0  0  0
  7  4  1  0  0  0  0
  7  1  1  0  0  0  0
  8  4  1  0  0  0  0
  8 34  1  1  0  0  0
  8 12  1  0  0  0  0
  9  3  1  6  0  0  0
  9 13  1  0  0  0  0
  9 11  1  0  0  0  0
 10 20  1  6  0  0  0
 10  5  1  0  0  0  0
 11 39  1  1  0  0  0
 13  2  1  6  0  0  0
 13 11  1  0  0  0  0
 14 10  1  0  0  0  0
 14 12  1  0  0  0  0
 16 15  1  6  0  0  0
 16 18  1  0  0  0  0
 18 17  1  0  0  0  0
 19 18  2  0  0  0  0
 20 21  1  6  0  0  0
 23 26  1  0  0  0  0
 24 22  2  0  0  0  0
 24 20  1  0  0  0  0
 25 27  2  0  0  0  0
 26 24  1  0  0  0  0
 27 22  1  0  0  0  0
 28 26  2  0  0  0  0
 28 25  1  0  0  0  0
 30 29  1  6  0  0  0
 30 31  1  0  0  0  0
 33 31  1  0  0  0  0
 33 32  1  0  0  0  0
 35 38  1  0  0  0  0
 35 34  1  0  0  0  0
 37 38  2  0  0  0  0
 38 36  1  0  0  0  0
 39 41  1  0  0  0  0
 41 40  1  0  0  0  0
M  END
>  <MODEL>
6

>  <REMARK>
 VINA RESULT:      -3.6      2.829      7.000
  Name = 
  12 active torsions:
  status: ('A' for Active; 'I' for Inactive)
    1  A    between atoms: C_1  and  O_19
    2  A    between atoms: C_1  and  C_26
    3  A    between atoms: C_5  and  C_6
    4  A    between atoms: C_5  and  C_28
    5  A    between atoms: C_8  and  C_16
    6  A    between atoms: C_12  and  C_40
    7  A    between atoms: C_15  and  C_29
    8  A    between atoms: C_15  and  C_37
    9  A    between atoms: C_16  and  C_24
   10  A    between atoms: C_18  and  C_29
   11  A    between atoms: O_19  and  C_41
   12  A    between atoms: C_30  and  C_40
                            x       y       z     vdW  Elec       q    Type
                         _______ _______ _______ _____ _____    ______ ____

>  <TORSDO>
F 12

$$$$
=
 OpenBabel11062415203D

 41 43  0  0  1  0  0  0  0  0999 V2000
  183.7690  177.7530  138.6270 C   0  0  0  0  0  0  0  0  0  0  0  0
  185.6810  176.5020  137.5570 C   0  0  0  0  0  2  0  0  0  0  0  0
  184.5150  176.7630  134.9030 C   0  0  0  0  0  2  0  0  0  0  0  0
  181.6590  178.9670  139.1250 C   0  0  1  0  0  3  0  0  0  0  0  0
  183.2430  177.5350  134.5950 C   0  0  0  0  0  2  0  0  0  0  0  0
  184.2560  176.6930  137.9780 C   0  0  0  0  0  3  0  0  0  0  0  0
  182.3920  177.7710  138.8790 O   0  0  0  0  0  0  0  0  0  0  0  0
  181.0190  179.4630  137.8150 C   0  0  2  0  0  3  0  0  0  0  0  0
  185.6190  177.7530  135.2460 C   0  0  2  0  0  3  0  0  0  0  0  0
  182.1890  177.2370  135.6470 C   0  0  1  0  0  3  0  0  0  0  0  0
  186.9230  177.0220  135.4820 C   0  0  2  0  0  3  0  0  0  0  0  0
  181.9090  179.3440  136.7400 O   0  0  0  0  0  0  0  0  0  0  0  0
  186.1980  177.6340  136.6630 C   0  0  2  0  0  3  0  0  0  0  0  0
  181.2920  178.4490  135.8620 C   0  0  0  0  0  2  0  0  0  0  0  0
  184.0020  180.1120  138.9530 O   0  0  0  0  0  1  0  0  0  0  0  0
  184.6690  178.8870  139.0450 C   0  0  1  0  0  3  0  0  0  0  0  0
  184.3680  178.5380  141.4950 O   0  0  0  0  0  1  0  0  0  0  0  0
  185.2310  178.6750  140.4150 C   0  0  0  0  0  0  0  0  0  0  0  0
  186.4720  178.6480  140.6040 O   0  0  0  0  0  0  0  0  0  0  0  0
  181.4000  175.9820  135.2720 C   0  0  2  0  0  3  0  0  0  0  0  0
  180.0720  176.0530  135.7000 O   0  0  0  0  0  1  0  0  0  0  0  0
  182.8900  173.9770  134.9180 C   0  0  0  0  0  3  0  0  0  0  0  0
  181.0680  175.0480  137.9560 O   0  0  0  0  0  1  0  0  0  0  0  0
  182.0520  174.7220  135.7600 C   0  0  0  0  0  0  0  0  0  0  0  0
  183.3500  172.4260  136.7230 C   0  0  0  0  0  3  0  0  0  0  0  0
  181.8770  174.3170  137.0930 C   0  0  0  0  0  0  0  0  0  0  0  0
  183.5350  172.8310  135.3980 C   0  0  0  0  0  3  0  0  0  0  0  0
  182.5240  173.1720  137.5680 C   0  0  0  0  0  3  0  0  0  0  0  0
  180.4430  177.3310  140.3970 O   0  0  0  0  0  1  0  0  0  0  0  0
  180.5870  178.7040  140.1830 C   0  0  1  0  0  3  0  0  0  0  0  0
  180.9650  179.3690  141.4920 C   0  0  0  0  0  2  0  0  0  0  0  0
  179.5590  179.3070  143.4060 O   0  0  0  0  0  1  0  0  0  0  0  0
  180.4630  178.5490  142.6640 C   0  0  0  0  0  2  0  0  0  0  0  0
  180.5500  180.9070  137.9280 C   0  0  0  0  0  2  0  0  0  0  0  0
  180.8640  181.6270  136.7440 O   0  0  0  0  0  0  0  0  0  0  0  0
  180.2590  183.7350  135.6550 N   0  0  0  0  0  1  0  0  0  0  0  0
  181.4460  183.6530  137.6440 O   0  0  0  0  0  0  0  0  0  0  0  0
  180.8830  183.0180  136.7160 C   0  0  0  0  0  0  0  0  0  0  0  0
  188.0780  177.9150  135.0850 C   0  0  0  0  0  2  0  0  0  0  0  0
  189.2870  176.0850  135.9920 O   0  0  0  0  0  1  0  0  0  0  0  0
  189.3560  177.1040  135.0460 C   0  0  0  0  0  2  0  0  0  0  0  0
  1  7  1  0  0  0  0
  1 16  1  0  0  0  0
  2  6  1  0  0  0  0
  4 30  1  1  0  0  0
  5  3  1  0  0  0  0
  5 10  1  0  0  0  0
  6  1  2  0  0  0  0
  7  4  1  0  0  0  0
  8 34  1  1  0  0  0
  8  4  1  0  0  0  0
  9  3  1  1  0  0  0
  9 11  1  0  0  0  0
  9 13  1  0  0  0  0
 10 20  1  6  0  0  0
 10 14  1  0  0  0  0
 11 39  1  6  0  0  0
 11 13  1  0  0  0  0
 12  8  1  0  0  0  0
 13  2  1  1  0  0  0
 14 12  1  0  0  0  0
 16 15  1  1  0  0  0
 16 18  1  0  0  0  0
 18 19  2  0  0  0  0
 18 17  1  0  0  0  0
 20 21  1  1  0  0  0
 20 24  1  0  0  0  0
 22 27  2  0  0  0  0
 22 24  1  0  0  0  0
 24 26  2  0  0  0  0
 25 28  2  0  0  0  0
 26 28  1  0  0  0  0
 26 23  1  0  0  0  0
 27 25  1  0  0  0  0
 30 29  1  1  0  0  0
 30 31  1  0  0  0  0
 31 33  1  0  0  0  0
 33 32  1  0  0  0  0
 35 34  1  0  0  0  0
 36 38  1  0  0  0  0
 38 35  1  0  0  0  0
 38 37  2  0  0  0  0
 41 39  1  0  0  0  0
 41 40  1  0  0  0  0
M  END
>  <MODEL>
7

>  <REMARK>
 VINA RESULT:      -3.4      1.604      2.053
  Name = 
  12 active torsions:
  status: ('A' for Active; 'I' for Inactive)
    1  A    between atoms: C_1  and  O_19
    2  A    between atoms: C_1  and  C_26
    3  A    between atoms: C_5  and  C_6
    4  A    between atoms: C_5  and  C_28
    5  A    between atoms: C_8  and  C_16
    6  A    between atoms: C_12  and  C_40
    7  A    between atoms: C_15  and  C_29
    8  A    between atoms: C_15  and  C_37
    9  A    between atoms: C_16  and  C_24
   10  A    between atoms: C_18  and  C_29
   11  A    between atoms: O_19  and  C_41
   12  A    between atoms: C_30  and  C_40
                            x       y       z     vdW  Elec       q    Type
                         _______ _______ _______ _____ _____    ______ ____

>  <TORSDO>
F 12

$$$$
=
 OpenBabel11062415203D

 41 43  0  0  1  0  0  0  0  0999 V2000
  187.1090  178.6530  142.2430 C   0  0  0  0  0  0  0  0  0  0  0  0
  185.2720  179.3730  140.6700 C   0  0  0  0  0  2  0  0  0  0  0  0
  186.3650  177.7870  138.4880 C   0  0  0  0  0  2  0  0  0  0  0  0
  189.1350  177.6770  143.3000 C   0  0  1  0  0  3  0  0  0  0  0  0
  187.5710  176.8720  138.6110 C   0  0  0  0  0  2  0  0  0  0  0  0
  186.6880  179.3040  141.1570 C   0  0  0  0  0  3  0  0  0  0  0  0
  188.4860  178.6580  142.4980 O   0  0  0  0  0  0  0  0  0  0  0  0
  189.7120  176.5680  142.4000 C   0  0  2  0  0  3  0  0  0  0  0  0
  185.1990  177.1660  139.2450 C   0  0  2  0  0  3  0  0  0  0  0  0
  188.6640  177.5610  139.4100 C   0  0  1  0  0  3  0  0  0  0  0  0
  183.9560  178.0130  139.0780 C   0  0  2  0  0  3  0  0  0  0  0  0
  188.8130  176.2220  141.3840 O   0  0  0  0  0  0  0  0  0  0  0  0
  184.6580  177.9910  140.4200 C   0  0  2  0  0  3  0  0  0  0  0  0
  189.4760  176.5390  140.1960 C   0  0  0  0  0  2  0  0  0  0  0  0
  186.7050  176.7520  143.6400 O   0  0  0  0  0  1  0  0  0  0  0  0
  186.1370  177.9270  143.1380 C   0  0  1  0  0  3  0  0  0  0  0  0
  184.6720  179.7640  143.9690 O   0  0  0  0  0  0  0  0  0  0  0  0
  185.6360  178.8030  144.2420 C   0  0  0  0  0  0  0  0  0  0  0  0
  186.0970  178.6980  145.4060 O   0  0  0  0  0  1  0  0  0  0  0  0
  189.5350  178.4210  138.4930 C   0  0  2  0  0  3  0  0  0  0  0  0
  189.0070  179.7030  138.3240 O   0  0  0  0  0  1  0  0  0  0  0  0
  189.0000  178.0750  136.0520 C   0  0  0  0  0  3  0  0  0  0  0  0
  191.7010  176.5930  138.1020 O   0  0  0  0  0  1  0  0  0  0  0  0
  189.7940  177.7700  137.1660 C   0  0  0  0  0  0  0  0  0  0  0  0
  190.3620  176.6260  134.6660 C   0  0  0  0  0  3  0  0  0  0  0  0
  190.8840  176.8970  137.0190 C   0  0  0  0  0  0  0  0  0  0  0  0
  189.2820  177.5030  134.8060 C   0  0  0  0  0  3  0  0  0  0  0  0
  191.1620  176.3280  135.7710 C   0  0  0  0  0  3  0  0  0  0  0  0
  190.5560  179.5920  143.5930 O   0  0  0  0  0  1  0  0  0  0  0  0
  190.2440  178.3370  144.1210 C   0  0  1  0  0  3  0  0  0  0  0  0
  189.8010  178.5050  145.5620 C   0  0  0  0  0  2  0  0  0  0  0  0
  189.2920  177.0820  147.3950 O   0  0  0  0  0  1  0  0  0  0  0  0
  189.0590  177.2710  146.0330 C   0  0  0  0  0  2  0  0  0  0  0  0
  190.0780  175.3260  143.2000 C   0  0  0  0  0  2  0  0  0  0  0  0
  191.4840  175.2540  143.3940 O   0  0  0  0  0  0  0  0  0  0  0  0
  192.0560  175.7300  145.7270 N   0  0  0  0  0  1  0  0  0  0  0  0
  192.5150  173.6940  144.7190 O   0  0  0  0  0  0  0  0  0  0  0  0
  192.0360  174.8520  144.6050 C   0  0  0  0  0  0  0  0  0  0  0  0
  182.7320  177.1260  139.1370 C   0  0  0  0  0  2  0  0  0  0  0  0
  182.2240  175.4030  137.5850 O   0  0  0  0  0  1  0  0  0  0  0  0
  183.0820  175.7430  138.6280 C   0  0  0  0  0  2  0  0  0  0  0  0
  1  7  1  0  0  0  0
  1 16  1  0  0  0  0
  2  6  1  0  0  0  0
  3  5  1  0  0  0  0
  4 30  1  6  0  0  0
  5 10  1  0  0  0  0
  6  1  2  0  0  0  0
  7  4  1  0  0  0  0
  8 34  1  1  0  0  0
  8  4  1  0  0  0  0
  9  3  1  6  0  0  0
  9 13  1  0  0  0  0
 10 20  1  6  0  0  0
 10 14  1  0  0  0  0
 11 39  1  1  0  0  0
 11  9  1  0  0  0  0
 11 13  1  0  0  0  0
 12  8  1  0  0  0  0
 13  2  1  6  0  0  0
 14 12  1  0  0  0  0
 16 15  1  1  0  0  0
 16 18  1  0  0  0  0
 17 18  2  0  0  0  0
 18 19  1  0  0  0  0
 20 21  1  6  0  0  0
 22 24  1  0  0  0  0
 24 20  1  0  0  0  0
 25 27  1  0  0  0  0
 25 28  2  0  0  0  0
 26 24  2  0  0  0  0
 26 23  1  0  0  0  0
 27 22  2  0  0  0  0
 28 26  1  0  0  0  0
 30 29  1  6  0  0  0
 30 31  1  0  0  0  0
 31 33  1  0  0  0  0
 33 32  1  0  0  0  0
 34 35  1  0  0  0  0
 35 38  1  0  0  0  0
 38 37  2  0  0  0  0
 38 36  1  0  0  0  0
 40 41  1  0  0  0  0
 41 39  1  0  0  0  0
M  END
>  <MODEL>
8

>  <REMARK>
 VINA RESULT:      -3.1      5.196      9.362
  Name = 
  12 active torsions:
  status: ('A' for Active; 'I' for Inactive)
    1  A    between atoms: C_1  and  O_19
    2  A    between atoms: C_1  and  C_26
    3  A    between atoms: C_5  and  C_6
    4  A    between atoms: C_5  and  C_28
    5  A    between atoms: C_8  and  C_16
    6  A    between atoms: C_12  and  C_40
    7  A    between atoms: C_15  and  C_29
    8  A    between atoms: C_15  and  C_37
    9  A    between atoms: C_16  and  C_24
   10  A    between atoms: C_18  and  C_29
   11  A    between atoms: O_19  and  C_41
   12  A    between atoms: C_30  and  C_40
                            x       y       z     vdW  Elec       q    Type
                         _______ _______ _______ _____ _____    ______ ____

>  <TORSDO>
F 12

$$$$
=
 OpenBabel11062415203D

 41 43  0  0  1  0  0  0  0  0999 V2000
  182.4460  176.1630  137.8690 C   0  0  0  0  0  0  0  0  0  0  0  0
  180.4070  177.3520  138.7610 C   0  0  0  0  0  2  0  0  0  0  0  0
  181.9920  179.6090  139.6910 C   0  0  0  0  0  2  0  0  0  0  0  0
  184.7430  175.4520  137.2450 C   0  0  1  0  0  3  0  0  0  0  0  0
  183.4870  179.7600  139.4660 C   0  0  0  0  0  2  0  0  0  0  0  0
  181.7220  176.6430  138.8820 C   0  0  0  0  0  3  0  0  0  0  0  0
  183.6810  175.5820  138.1830 O   0  0  0  0  0  0  0  0  0  0  0  0
  185.7160  176.6360  137.3910 C   0  0  2  0  0  3  0  0  0  0  0  0
  181.2740  179.8010  138.3620 C   0  0  2  0  0  3  0  0  0  0  0  0
  184.1850  178.4360  139.7240 C   0  0  1  0  0  3  0  0  0  0  0  0
  179.7760  179.7350  138.5620 C   0  0  2  0  0  3  0  0  0  0  0  0
  185.0230  177.8410  137.5660 O   0  0  0  0  0  0  0  0  0  0  0  0
  180.4760  178.5900  137.8600 C   0  0  2  0  0  3  0  0  0  0  0  0
  185.4110  178.2960  138.8290 C   0  0  0  0  0  2  0  0  0  0  0  0
  182.6760  177.2350  135.7410 O   0  0  0  0  0  1  0  0  0  0  0  0
  181.9550  176.2670  136.4470 C   0  0  1  0  0  3  0  0  0  0  0  0
  181.5090  173.8160  136.3940 O   0  0  0  0  0  1  0  0  0  0  0  0
  181.9910  174.9450  135.7480 C   0  0  0  0  0  0  0  0  0  0  0  0
  182.4770  174.8410  134.5940 O   0  0  0  0  0  0  0  0  0  0  0  0
  184.5240  178.2910  141.2080 C   0  0  2  0  0  3  0  0  0  0  0  0
  183.9370  179.2980  141.9780 O   0  0  0  0  0  1  0  0  0  0  0  0
  186.9160  178.5810  140.4610 C   0  0  0  0  0  3  0  0  0  0  0  0
  185.5900  177.5010  143.7430 O   0  0  0  0  0  1  0  0  0  0  0  0
  186.0010  178.2180  141.4590 C   0  0  0  0  0  0  0  0  0  0  0  0
  188.7590  178.1800  141.9830 C   0  0  0  0  0  3  0  0  0  0  0  0
  186.4760  177.8460  142.7280 C   0  0  0  0  0  0  0  0  0  0  0  0
  188.2910  178.5600  140.7210 C   0  0  0  0  0  3  0  0  0  0  0  0
  187.8510  177.8270  142.9830 C   0  0  0  0  0  3  0  0  0  0  0  0
  184.5820  173.1650  137.9630 O   0  0  0  0  0  1  0  0  0  0  0  0
  185.4700  174.1260  137.4750 C   0  0  1  0  0  3  0  0  0  0  0  0
  186.0730  173.6240  136.1760 C   0  0  0  0  0  2  0  0  0  0  0  0
  187.6040  172.1020  137.1680 O   0  0  0  0  0  1  0  0  0  0  0  0
  187.5270  173.2500  136.3810 C   0  0  0  0  0  2  0  0  0  0  0  0
  186.6450  176.7550  136.1910 C   0  0  0  0  0  2  0  0  0  0  0  0
  187.2230  178.0520  136.1350 O   0  0  0  0  0  0  0  0  0  0  0  0
  188.8130  179.4150  137.4030 N   0  0  0  0  0  1  0  0  0  0  0  0
  189.4470  177.5110  136.2430 O   0  0  0  0  0  0  0  0  0  0  0  0
  188.5200  178.2950  136.5730 C   0  0  0  0  0  0  0  0  0  0  0  0
  179.0930  180.6110  137.5350 C   0  0  0  0  0  2  0  0  0  0  0  0
  180.0560  182.2400  136.1010 O   0  0  0  0  0  1  0  0  0  0  0  0
  180.0390  180.8750  136.3830 C   0  0  0  0  0  2  0  0  0  0  0  0
  1  7  1  0  0  0  0
  1  6  2  0  0  0  0
  2  6  1  0  0  0  0
  4  8  1  0  0  0  0
  4 30  1  1  0  0  0
  4  7  1  0  0  0  0
  5  3  1  0  0  0  0
  5 10  1  0  0  0  0
  8 34  1  6  0  0  0
  8 12  1  0  0  0  0
  9 11  1  0  0  0  0
  9  3  1  1  0  0  0
 10 20  1  1  0  0  0
 11 39  1  6  0  0  0
 12 14  1  0  0  0  0
 13  9  1  0  0  0  0
 13 11  1  0  0  0  0
 13  2  1  1  0  0  0
 14 10  1  0  0  0  0
 16 15  1  6  0  0  0
 16  1  1  0  0  0  0
 18 17  1  0  0  0  0
 18 16  1  0  0  0  0
 19 18  2  0  0  0  0
 20 24  1  0  0  0  0
 20 21  1  1  0  0  0
 22 27  2  0  0  0  0
 22 24  1  0  0  0  0
 24 26  2  0  0  0  0
 25 28  2  0  0  0  0
 26 28  1  0  0  0  0
 26 23  1  0  0  0  0
 27 25  1  0  0  0  0
 30 29  1  6  0  0  0
 31 33  1  0  0  0  0
 31 30  1  0  0  0  0
 33 32  1  0  0  0  0
 35 34  1  0  0  0  0
 35 38  1  0  0  0  0
 37 38  2  0  0  0  0
 38 36  1  0  0  0  0
 40 41  1  0  0  0  0
 41 39  1  0  0  0  0
M  END
>  <MODEL>
9

>  <REMARK>
 VINA RESULT:      -2.9      2.849      7.682
  Name = 
  12 active torsions:
  status: ('A' for Active; 'I' for Inactive)
    1  A    between atoms: C_1  and  O_19
    2  A    between atoms: C_1  and  C_26
    3  A    between atoms: C_5  and  C_6
    4  A    between atoms: C_5  and  C_28
    5  A    between atoms: C_8  and  C_16
    6  A    between atoms: C_12  and  C_40
    7  A    between atoms: C_15  and  C_29
    8  A    between atoms: C_15  and  C_37
    9  A    between atoms: C_16  and  C_24
   10  A    between atoms: C_18  and  C_29
   11  A    between atoms: O_19  and  C_41
   12  A    between atoms: C_30  and  C_40
                            x       y       z     vdW  Elec       q    Type
                         _______ _______ _______ _____ _____    ______ ____

>  <TORSDO>
F 12

$$$$
