=
 OpenBabel11062413403D

 42 50  0  0  1  0  0  0  0  0999 V2000
  181.9590  176.3290  138.4380 C   0  0  2  0  0  0  0  0  0  0  0  0
  184.7930  175.4900  134.8010 O   0  0  0  0  0  0  0  0  0  0  0  0
  182.5740  175.2970  139.3810 C   0  0  0  0  0  1  0  0  0  0  0  0
  183.3820  172.3030  135.6350 C   0  0  0  0  0  3  0  0  0  0  0  0
  180.2760  172.8360  137.3500 C   0  0  0  0  0  0  0  0  0  0  0  0
  183.1090  176.9820  137.6340 C   0  0  2  0  0  3  0  0  0  0  0  0
  180.3590  178.1920  138.4950 O   0  0  0  0  0  0  0  0  0  0  0  0
  181.5870  174.6910  136.4610 C   0  0  0  0  0  0  0  0  0  0  0  0
  182.1570  178.3040  140.1000 C   0  0  2  0  0  3  0  0  0  0  0  0
  180.0940  179.6420  140.4080 C   0  0  0  0  0  0  0  0  0  0  0  0
  179.4210  178.7710  139.3740 C   0  0  0  0  0  2  0  0  0  0  0  0
  181.3500  179.3710  140.7910 C   0  0  0  0  0  3  0  0  0  0  0  0
  180.0380  171.5990  137.3830 O   0  0  0  0  0  0  0  0  0  0  0  0
  184.3070  173.2800  135.7110 C   0  0  0  0  0  0  0  0  0  0  0  0
  182.5640  175.1940  135.4210 C   0  0  2  0  0  3  0  0  0  0  0  0
  183.1660  178.9750  139.1760 C   0  0  0  0  0  2  0  0  0  0  0  0
  183.9850  174.7750  135.6970 C   0  0  2  0  0  3  0  0  0  0  0  0
  179.7950  174.9890  138.2490 C   0  0  0  0  0  3  0  0  0  0  0  0
  181.2130  177.3920  139.2860 C   0  0  2  0  0  3  0  0  0  0  0  0
  183.9930  177.9230  138.4560 C   0  0  0  0  0  2  0  0  0  0  0  0
  179.3800  180.5960  141.0590 F   0  0  0  0  0  0  0  0  0  0  0  0
  184.1440  176.7290  134.5940 C   0  0  0  0  0  2  0  0  0  0  0  0
  180.9480  175.6170  137.4910 C   0  0  1  0  0  3  0  0  0  0  0  0
  181.9100  172.4830  135.3930 C   0  0  0  0  0  2  0  0  0  0  0  0
  182.6230  177.6280  136.3390 C   0  0  0  0  0  2  0  0  0  0  0  0
  179.5280  173.7210  138.1840 N   0  0  0  0  0  0  0  0  0  0  0  0
  182.7230  176.6740  135.1380 C   0  0  2  0  0  3  0  0  0  0  0  0
  181.2860  173.3800  136.4280 C   0  0  0  0  0  0  0  0  0  0  0  0
  185.3540  173.0250  138.4750 O   0  0  0  0  0  0  0  0  0  0  0  0
  187.2510  174.1240  137.5770 C   0  0  1  0  0  3  0  0  0  0  0  0
  187.7700  174.1770  136.1480 C   0  0  2  0  0  3  0  0  0  0  0  0
  187.4550  172.3830  134.5940 O   0  0  0  0  0  1  0  0  0  0  0  0
  187.0950  175.3950  136.7610 C   0  0  2  0  0  3  0  0  0  0  0  0
  185.6850  172.8270  136.1280 C   0  0  2  0  0  3  0  0  0  0  0  0
  186.0190  173.3070  137.4920 C   0  0  0  0  0  0  0  0  0  0  0  0
  186.7850  173.4130  135.2520 C   0  0  1  0  0  3  0  0  0  0  0  0
  187.6960  177.1020  138.4740 C   0  0  0  0  0  2  0  0  0  0  0  0
  188.5840  179.1960  137.6960 O   0  0  0  0  0  0  0  0  0  0  0  0
  189.2110  178.5800  136.5970 C   0  0  0  0  0  2  0  0  0  0  0  0
  188.6320  178.2760  138.7590 C   0  0  0  0  0  2  0  0  0  0  0  0
  188.1390  176.4100  137.1840 C   0  0  0  0  0  3  0  0  0  0  0  0
  188.3380  177.4400  136.0720 C   0  0  0  0  0  2  0  0  0  0  0  0
  1 19  1  0  0  0  0
  1  3  1  1  0  0  0
  4 14  2  0  0  0  0
  5 13  2  0  0  0  0
  5 26  1  0  0  0  0
  6 25  1  6  0  0  0
  6  1  1  0  0  0  0
  6 20  1  0  0  0  0
  7 11  1  0  0  0  0
  8 23  1  0  0  0  0
  9 16  1  6  0  0  0
  9 12  1  0  0  0  0
 10 12  2  0  0  0  0
 10 21  1  0  0  0  0
 11 10  1  0  0  0  0
 14 34  1  0  0  0  0
 15 17  1  0  0  0  0
 15  8  1  1  0  0  0
 17  2  1  6  0  0  0
 17 14  1  0  0  0  0
 19  7  1  6  0  0  0
 19  9  1  0  0  0  0
 20 16  1  0  0  0  0
 22  2  1  0  0  0  0
 23 18  1  1  0  0  0
 23  1  1  0  0  0  0
 24  4  1  0  0  0  0
 24 28  1  0  0  0  0
 26 18  2  0  0  0  0
 27 22  1  1  0  0  0
 27 15  1  0  0  0  0
 27 25  1  0  0  0  0
 28  8  2  0  0  0  0
 28  5  1  0  0  0  0
 30 35  1  6  0  0  0
 31 33  1  0  0  0  0
 31 30  1  0  0  0  0
 32 36  1  0  0  0  0
 33 41  1  0  0  0  0
 33 30  1  0  0  0  0
 34 35  1  0  0  0  0
 35 29  2  0  0  0  0
 36 34  1  0  0  0  0
 36 31  1  0  0  0  0
 37 40  1  0  0  0  0
 38 40  1  0  0  0  0
 39 38  1  0  0  0  0
 41 37  1  0  0  0  0
 42 39  1  0  0  0  0
 42 41  1  0  0  0  0
M  END
>  <MODEL>
1

>  <REMARK>
 VINA RESULT:      -6.0      0.000      0.000
  Name = 
  2 active torsions:
  status: ('A' for Active; 'I' for Inactive)
    1  A    between atoms: C_17  and  C_29
    2  A    between atoms: C_28  and  C_34
                            x       y       z     vdW  Elec       q    Type
                         _______ _______ _______ _____ _____    ______ ____

>  <TORSDO>
F 2

$$$$
=
 OpenBabel11062413403D

 42 50  0  0  1  0  0  0  0  0999 V2000
  189.8600  175.9020  137.3140 C   0  0  2  0  0  0  0  0  0  0  0  0
  186.1990  177.9110  135.1870 O   0  0  0  0  0  0  0  0  0  0  0  0
  189.0770  174.7750  137.9830 C   0  0  0  0  0  1  0  0  0  0  0  0
  185.2910  177.7530  138.6510 C   0  0  0  0  0  3  0  0  0  0  0  0
  188.2880  177.5860  140.6170 C   0  0  0  0  0  0  0  0  0  0  0  0
  189.2610  176.1230  135.9040 C   0  0  2  0  0  3  0  0  0  0  0  0
  192.1870  176.5730  136.9060 O   0  0  0  0  0  0  0  0  0  0  0  0
  188.3550  177.8260  138.1900 C   0  0  0  0  0  0  0  0  0  0  0  0
  191.6000  174.3410  136.2010 C   0  0  2  0  0  3  0  0  0  0  0  0
  193.9700  174.9870  136.5360 C   0  0  0  0  0  0  0  0  0  0  0  0
  193.4920  176.2030  137.2920 C   0  0  0  0  0  2  0  0  0  0  0  0
  193.0810  174.0870  136.0910 C   0  0  0  0  0  3  0  0  0  0  0  0
  187.6320  177.6500  141.6900 O   0  0  0  0  0  0  0  0  0  0  0  0
  185.3520  177.2870  137.3880 C   0  0  0  0  0  0  0  0  0  0  0  0
  187.6930  178.3330  136.9280 C   0  0  2  0  0  3  0  0  0  0  0  0
  191.0670  174.7330  134.8290 C   0  0  0  0  0  2  0  0  0  0  0  0
  186.5590  177.4560  136.4640 C   0  0  2  0  0  3  0  0  0  0  0  0
  190.3440  177.0120  139.5610 C   0  0  0  0  0  3  0  0  0  0  0  0
  191.3490  175.4800  137.2150 C   0  0  2  0  0  3  0  0  0  0  0  0
  189.5740  175.0050  134.9070 C   0  0  0  0  0  2  0  0  0  0  0  0
  195.2990  174.7260  136.4420 F   0  0  0  0  0  0  0  0  0  0  0  0
  187.3880  178.3950  134.5960 C   0  0  0  0  0  2  0  0  0  0  0  0
  189.7420  177.1910  138.1810 C   0  0  1  0  0  3  0  0  0  0  0  0
  186.3110  178.6200  139.3330 C   0  0  0  0  0  2  0  0  0  0  0  0
  189.5830  177.5060  135.3430 C   0  0  0  0  0  2  0  0  0  0  0  0
  189.6540  177.1750  140.6470 N   0  0  0  0  0  0  0  0  0  0  0  0
  188.4800  178.5310  135.6490 C   0  0  2  0  0  3  0  0  0  0  0  0
  187.6700  177.9740  139.3390 C   0  0  0  0  0  0  0  0  0  0  0  0
  183.0080  177.7690  135.6340 O   0  0  0  0  0  0  0  0  0  0  0  0
  181.8220  176.6540  137.3560 C   0  0  1  0  0  3  0  0  0  0  0  0
  182.3040  175.6420  138.3830 C   0  0  2  0  0  3  0  0  0  0  0  0
  184.0960  174.1130  137.9460 O   0  0  0  0  0  1  0  0  0  0  0  0
  181.9920  177.0690  138.8060 C   0  0  2  0  0  3  0  0  0  0  0  0
  184.2710  176.3020  137.0160 C   0  0  2  0  0  3  0  0  0  0  0  0
  183.0350  176.9990  136.5800 C   0  0  0  0  0  0  0  0  0  0  0  0
  183.8170  175.4560  138.2000 C   0  0  1  0  0  3  0  0  0  0  0  0
  180.6820  178.1250  140.6440 C   0  0  0  0  0  2  0  0  0  0  0  0
  179.2820  176.6980  141.9780 O   0  0  0  0  0  0  0  0  0  0  0  0
  179.0180  175.8510  140.8860 C   0  0  0  0  0  2  0  0  0  0  0  0
  179.3970  178.0020  141.4620 C   0  0  0  0  0  2  0  0  0  0  0  0
  180.6390  177.1250  139.4880 C   0  0  0  0  0  3  0  0  0  0  0  0
  180.2620  175.7360  140.0040 C   0  0  0  0  0  2  0  0  0  0  0  0
  1  3  1  1  0  0  0
  1 23  1  0  0  0  0
  4 24  1  0  0  0  0
  5 26  1  0  0  0  0
  5 13  2  0  0  0  0
  6 20  1  6  0  0  0
  6  1  1  0  0  0  0
  7 11  1  0  0  0  0
  8 28  2  0  0  0  0
  9 16  1  6  0  0  0
  9 19  1  0  0  0  0
 10 11  1  0  0  0  0
 12  9  1  0  0  0  0
 12 10  2  0  0  0  0
 14  4  2  0  0  0  0
 15  8  1  1  0  0  0
 16 20  1  0  0  0  0
 17  2  1  6  0  0  0
 17 15  1  0  0  0  0
 17 14  1  0  0  0  0
 18 26  2  0  0  0  0
 19  7  1  6  0  0  0
 19  1  1  0  0  0  0
 21 10  1  0  0  0  0
 22  2  1  0  0  0  0
 23  8  1  0  0  0  0
 23 18  1  1  0  0  0
 24 28  1  0  0  0  0
 25 27  1  0  0  0  0
 25  6  1  0  0  0  0
 27 22  1  6  0  0  0
 27 15  1  0  0  0  0
 28  5  1  0  0  0  0
 29 35  2  0  0  0  0
 30 35  1  6  0  0  0
 30 31  1  0  0  0  0
 30 33  1  0  0  0  0
 31 33  1  0  0  0  0
 32 36  1  0  0  0  0
 33 41  1  0  0  0  0
 34 14  1  0  0  0  0
 34 36  1  0  0  0  0
 35 34  1  0  0  0  0
 36 31  1  0  0  0  0
 37 40  1  0  0  0  0
 39 38  1  0  0  0  0
 40 38  1  0  0  0  0
 41 42  1  0  0  0  0
 41 37  1  0  0  0  0
 42 39  1  0  0  0  0
M  END
>  <MODEL>
2

>  <REMARK>
 VINA RESULT:      -5.9      4.116      8.899
  Name = 
  2 active torsions:
  status: ('A' for Active; 'I' for Inactive)
    1  A    between atoms: C_17  and  C_29
    2  A    between atoms: C_28  and  C_34
                            x       y       z     vdW  Elec       q    Type
                         _______ _______ _______ _____ _____    ______ ____

>  <TORSDO>
F 2

$$$$
=
 OpenBabel11062413403D

 42 50  0  0  1  0  0  0  0  0999 V2000
  189.2990  176.1790  137.8090 C   0  0  2  0  0  0  0  0  0  0  0  0
  185.8790  177.9230  135.1200 O   0  0  0  0  0  0  0  0  0  0  0  0
  188.4570  175.0980  138.4840 C   0  0  0  0  0  1  0  0  0  0  0  0
  184.5890  178.0450  138.4610 C   0  0  0  0  0  3  0  0  0  0  0  0
  187.3460  178.1100  140.7560 C   0  0  0  0  0  0  0  0  0  0  0  0
  188.8600  176.2660  136.3280 C   0  0  2  0  0  3  0  0  0  0  0  0
  191.6490  176.8590  137.6050 O   0  0  0  0  0  0  0  0  0  0  0  0
  187.6840  178.1400  138.3400 C   0  0  0  0  0  0  0  0  0  0  0  0
  191.1690  174.5640  137.0390 C   0  0  2  0  0  3  0  0  0  0  0  0
  193.4790  175.2830  137.5770 C   0  0  0  0  0  0  0  0  0  0  0  0
  192.9060  176.5500  138.1650 C   0  0  0  0  0  2  0  0  0  0  0  0
  192.6550  174.3310  137.1170 C   0  0  0  0  0  3  0  0  0  0  0  0
  186.5730  178.2520  141.7400 O   0  0  0  0  0  0  0  0  0  0  0  0
  184.7970  177.4740  137.2590 C   0  0  0  0  0  0  0  0  0  0  0  0
  187.1630  178.5230  136.9720 C   0  0  2  0  0  3  0  0  0  0  0  0
  190.7900  174.8240  135.5860 C   0  0  0  0  0  2  0  0  0  0  0  0
  186.0980  177.5860  136.4640 C   0  0  2  0  0  3  0  0  0  0  0  0
  189.5150  177.4890  139.9900 C   0  0  0  0  0  3  0  0  0  0  0  0
  190.7940  175.7800  137.9140 C   0  0  2  0  0  3  0  0  0  0  0  0
  189.2950  175.0720  135.4740 C   0  0  0  0  0  2  0  0  0  0  0  0
  194.8130  175.0430  137.6550 F   0  0  0  0  0  0  0  0  0  0  0  0
  187.1230  178.3780  134.6240 C   0  0  0  0  0  2  0  0  0  0  0  0
  189.0700  177.5350  138.5410 C   0  0  1  0  0  3  0  0  0  0  0  0
  185.5160  178.9890  139.1740 C   0  0  0  0  0  2  0  0  0  0  0  0
  189.2290  177.6010  135.6860 C   0  0  0  0  0  2  0  0  0  0  0  0
  188.7050  177.7310  140.9740 N   0  0  0  0  0  0  0  0  0  0  0  0
  188.0870  178.6260  135.7760 C   0  0  2  0  0  3  0  0  0  0  0  0
  186.8730  178.3730  139.3870 C   0  0  0  0  0  0  0  0  0  0  0  0
  183.3570  175.5850  139.0380 O   0  0  0  0  0  0  0  0  0  0  0  0
  183.9180  173.9980  137.3710 C   0  0  1  0  0  3  0  0  0  0  0  0
  184.2110  174.1910  135.8910 C   0  0  2  0  0  3  0  0  0  0  0  0
  183.2110  175.9390  134.5950 O   0  0  0  0  0  1  0  0  0  0  0  0
  185.3430  173.8830  136.8600 C   0  0  2  0  0  3  0  0  0  0  0  0
  183.7750  176.4380  136.8570 C   0  0  2  0  0  3  0  0  0  0  0  0
  183.6660  175.3660  137.8780 C   0  0  0  0  0  0  0  0  0  0  0  0
  184.1630  175.6950  135.5850 C   0  0  1  0  0  3  0  0  0  0  0  0
  187.1920  172.3100  136.3010 C   0  0  0  0  0  2  0  0  0  0  0  0
  186.6590  170.4000  134.9420 O   0  0  0  0  0  0  0  0  0  0  0  0
  185.3650  170.3100  135.4870 C   0  0  0  0  0  2  0  0  0  0  0  0
  187.5040  170.8490  135.9740 C   0  0  0  0  0  2  0  0  0  0  0  0
  185.7360  172.4230  136.7530 C   0  0  0  0  0  3  0  0  0  0  0  0
  184.8170  171.7110  135.7600 C   0  0  0  0  0  2  0  0  0  0  0  0
  1 19  1  0  0  0  0
  1  3  1  1  0  0  0
  1 23  1  0  0  0  0
  4 24  1  0  0  0  0
  5 26  1  0  0  0  0
  5 13  2  0  0  0  0
  6 20  1  6  0  0  0
  6  1  1  0  0  0  0
  7 11  1  0  0  0  0
  8 23  1  0  0  0  0
  8 28  2  0  0  0  0
  9 16  1  6  0  0  0
  9 12  1  0  0  0  0
  9 19  1  0  0  0  0
 10 21  1  0  0  0  0
 10 11  1  0  0  0  0
 12 10  2  0  0  0  0
 14  4  2  0  0  0  0
 15  8  1  1  0  0  0
 17  2  1  6  0  0  0
 17 15  1  0  0  0  0
 17 14  1  0  0  0  0
 18 26  2  0  0  0  0
 19  7  1  6  0  0  0
 20 16  1  0  0  0  0
 22  2  1  0  0  0  0
 23 18  1  1  0  0  0
 24 28  1  0  0  0  0
 25 27  1  0  0  0  0
 25  6  1  0  0  0  0
 27 22  1  6  0  0  0
 27 15  1  0  0  0  0
 28  5  1  0  0  0  0
 30 35  1  1  0  0  0
 31 33  1  0  0  0  0
 31 30  1  0  0  0  0
 32 36  1  0  0  0  0
 33 30  1  0  0  0  0
 34 14  1  0  0  0  0
 34 35  1  0  0  0  0
 35 29  2  0  0  0  0
 36 31  1  0  0  0  0
 36 34  1  0  0  0  0
 37 41  1  0  0  0  0
 38 39  1  0  0  0  0
 38 40  1  0  0  0  0
 39 42  1  0  0  0  0
 40 37  1  0  0  0  0
 41 33  1  0  0  0  0
 42 41  1  0  0  0  0
M  END
>  <MODEL>
3

>  <REMARK>
 VINA RESULT:      -5.4      3.994      8.084
  Name = 
  2 active torsions:
  status: ('A' for Active; 'I' for Inactive)
    1  A    between atoms: C_17  and  C_29
    2  A    between atoms: C_28  and  C_34
                            x       y       z     vdW  Elec       q    Type
                         _______ _______ _______ _____ _____    ______ ____

>  <TORSDO>
F 2

$$$$
=
 OpenBabel11062413403D

 42 50  0  0  1  0  0  0  0  0999 V2000
  182.5520  174.9240  137.4660 C   0  0  2  0  0  0  0  0  0  0  0  0
  179.0390  177.9960  137.8960 O   0  0  0  0  0  0  0  0  0  0  0  0
  182.9300  174.8820  138.9450 C   0  0  0  0  0  1  0  0  0  0  0  0
  181.8720  179.6080  139.3870 C   0  0  0  0  0  3  0  0  0  0  0  0
  184.8620  178.1780  138.0120 C   0  0  0  0  0  0  0  0  0  0  0  0
  181.0100  175.0070  137.3730 C   0  0  2  0  0  3  0  0  0  0  0  0
  183.0480  173.7310  135.3770 O   0  0  0  0  0  0  0  0  0  0  0  0
  182.6460  177.5070  137.2430 C   0  0  0  0  0  0  0  0  0  0  0  0
  182.3110  172.3580  137.2190 C   0  0  2  0  0  3  0  0  0  0  0  0
  183.5070  171.3620  135.2900 C   0  0  0  0  0  0  0  0  0  0  0  0
  183.9370  172.7520  134.8880 C   0  0  0  0  0  2  0  0  0  0  0  0
  182.8070  171.1820  136.4190 C   0  0  0  0  0  3  0  0  0  0  0  0
  185.5860  178.9990  138.6350 O   0  0  0  0  0  0  0  0  0  0  0  0
  180.7660  178.8380  139.3980 C   0  0  0  0  0  0  0  0  0  0  0  0
  181.1960  177.8760  137.0160 C   0  0  2  0  0  3  0  0  0  0  0  0
  180.8180  172.5270  136.9680 C   0  0  0  0  0  2  0  0  0  0  0  0
  180.3810  177.8650  138.2840 C   0  0  2  0  0  3  0  0  0  0  0  0
  184.7350  176.0990  136.8560 C   0  0  0  0  0  3  0  0  0  0  0  0
  183.0720  173.6310  136.7840 C   0  0  2  0  0  3  0  0  0  0  0  0
  180.2880  173.7130  137.7560 C   0  0  0  0  0  2  0  0  0  0  0  0
  183.9580  170.2860  134.5960 F   0  0  0  0  0  0  0  0  0  0  0  0
  178.9330  177.3580  136.6390 C   0  0  0  0  0  2  0  0  0  0  0  0
  183.2210  176.1650  136.8030 C   0  0  1  0  0  3  0  0  0  0  0  0
  182.8440  179.7570  138.2500 C   0  0  0  0  0  2  0  0  0  0  0  0
  180.5340  175.5600  136.0310 C   0  0  0  0  0  2  0  0  0  0  0  0
  185.4510  177.0140  137.4320 N   0  0  0  0  0  0  0  0  0  0  0  0
  180.3180  177.0810  136.0710 C   0  0  2  0  0  3  0  0  0  0  0  0
  183.4220  178.4300  137.8400 C   0  0  0  0  0  0  0  0  0  0  0  0
  179.8710  181.0880  141.1130 O   0  0  0  0  0  0  0  0  0  0  0  0
  180.8510  179.8090  142.8500 C   0  0  1  0  0  3  0  0  0  0  0  0
  181.0940  178.3110  142.9490 C   0  0  2  0  0  3  0  0  0  0  0  0
  179.6720  176.7010  141.8890 O   0  0  0  0  0  1  0  0  0  0  0  0
  182.2580  179.2590  142.7070 C   0  0  2  0  0  3  0  0  0  0  0  0
  180.0630  178.7480  140.7310 C   0  0  2  0  0  3  0  0  0  0  0  0
  180.2370  179.9960  141.5160 C   0  0  0  0  0  0  0  0  0  0  0  0
  180.6460  177.6650  141.6300 C   0  0  1  0  0  3  0  0  0  0  0  0
  184.5060  179.7190  143.6790 C   0  0  0  0  0  2  0  0  0  0  0  0
  185.1650  178.4530  145.6130 O   0  0  0  0  0  0  0  0  0  0  0  0
  183.8390  178.3810  146.0800 C   0  0  0  0  0  2  0  0  0  0  0  0
  185.3060  179.7020  144.9810 C   0  0  0  0  0  2  0  0  0  0  0  0
  183.0300  179.4750  143.9940 C   0  0  0  0  0  3  0  0  0  0  0  0
  182.8770  178.2520  144.8990 C   0  0  0  0  0  2  0  0  0  0  0  0
  1  3  1  1  0  0  0
  4 14  2  0  0  0  0
  5 13  2  0  0  0  0
  6 25  1  6  0  0  0
  6  1  1  0  0  0  0
  6 20  1  0  0  0  0
  8 28  2  0  0  0  0
  9 12  1  6  0  0  0
 10 12  2  0  0  0  0
 11 10  1  0  0  0  0
 11  7  1  0  0  0  0
 14 34  1  0  0  0  0
 15  8  1  1  0  0  0
 15 17  1  0  0  0  0
 16  9  1  0  0  0  0
 16 20  1  0  0  0  0
 17  2  1  6  0  0  0
 17 14  1  0  0  0  0
 18 26  2  0  0  0  0
 19  7  1  6  0  0  0
 19  9  1  0  0  0  0
 19  1  1  0  0  0  0
 21 10  1  0  0  0  0
 22  2  1  0  0  0  0
 23 18  1  1  0  0  0
 23  8  1  0  0  0  0
 23  1  1  0  0  0  0
 24  4  1  0  0  0  0
 26  5  1  0  0  0  0
 27 25  1  1  0  0  0
 27 22  1  0  0  0  0
 27 15  1  0  0  0  0
 28  5  1  0  0  0  0
 28 24  1  0  0  0  0
 29 35  2  0  0  0  0
 30 35  1  6  0  0  0
 30 31  1  0  0  0  0
 33 30  1  0  0  0  0
 33 31  1  0  0  0  0
 33 41  1  0  0  0  0
 34 35  1  0  0  0  0
 34 36  1  0  0  0  0
 36 32  1  0  0  0  0
 36 31  1  0  0  0  0
 37 41  1  0  0  0  0
 37 40  1  0  0  0  0
 38 39  1  0  0  0  0
 40 38  1  0  0  0  0
 41 42  1  0  0  0  0
 42 39  1  0  0  0  0
M  END
>  <MODEL>
4

>  <REMARK>
 VINA RESULT:      -5.3      3.538      7.717
  Name = 
  2 active torsions:
  status: ('A' for Active; 'I' for Inactive)
    1  A    between atoms: C_17  and  C_29
    2  A    between atoms: C_28  and  C_34
                            x       y       z     vdW  Elec       q    Type
                         _______ _______ _______ _____ _____    ______ ____

>  <TORSDO>
F 2

$$$$
=
 OpenBabel11062413403D

 42 50  0  0  1  0  0  0  0  0999 V2000
  183.9270  175.3810  136.6860 C   0  0  2  0  0  0  0  0  0  0  0  0
  187.3140  178.5430  135.9800 O   0  0  0  0  0  0  0  0  0  0  0  0
  183.9950  175.3890  138.2120 C   0  0  0  0  0  1  0  0  0  0  0  0
  188.8150  176.0140  138.0310 C   0  0  0  0  0  3  0  0  0  0  0  0
  187.0110  172.9470  137.5750 C   0  0  0  0  0  0  0  0  0  0  0  0
  184.1320  176.8340  136.1940 C   0  0  2  0  0  3  0  0  0  0  0  0
  182.5030  174.5110  134.8850 O   0  0  0  0  0  0  0  0  0  0  0  0
  186.4610  174.9600  136.3120 C   0  0  0  0  0  0  0  0  0  0  0  0
  181.3800  175.8250  136.5680 C   0  0  2  0  0  3  0  0  0  0  0  0
  180.1050  174.3000  135.0870 C   0  0  0  0  0  0  0  0  0  0  0  0
  181.4090  173.6380  134.7110 C   0  0  0  0  0  2  0  0  0  0  0  0
  180.0950  175.2740  136.0080 C   0  0  0  0  0  3  0  0  0  0  0  0
  187.8230  172.3170  138.3030 O   0  0  0  0  0  0  0  0  0  0  0  0
  188.1460  177.1640  137.8120 C   0  0  0  0  0  0  0  0  0  0  0  0
  186.9280  176.2600  135.6950 C   0  0  2  0  0  3  0  0  0  0  0  0
  181.6500  177.1820  135.9310 C   0  0  0  0  0  2  0  0  0  0  0  0
  187.1070  177.3610  136.7080 C   0  0  2  0  0  3  0  0  0  0  0  0
  184.8490  173.0030  136.5750 C   0  0  0  0  0  3  0  0  0  0  0  0
  182.5360  174.8490  136.2550 C   0  0  2  0  0  3  0  0  0  0  0  0
  182.9470  177.7620  136.4700 C   0  0  0  0  0  2  0  0  0  0  0  0
  178.9330  173.8080  134.6100 F   0  0  0  0  0  0  0  0  0  0  0  0
  186.5700  178.4010  134.7870 C   0  0  0  0  0  2  0  0  0  0  0  0
  185.0380  174.4400  136.1310 C   0  0  1  0  0  3  0  0  0  0  0  0
  188.7720  174.7800  137.1740 C   0  0  0  0  0  2  0  0  0  0  0  0
  184.5930  176.8990  134.7400 C   0  0  0  0  0  2  0  0  0  0  0  0
  185.7510  172.3590  137.2490 N   0  0  0  0  0  0  0  0  0  0  0  0
  186.1240  176.9550  134.6150 C   0  0  2  0  0  3  0  0  0  0  0  0
  187.3670  174.2630  137.0210 C   0  0  0  0  0  0  0  0  0  0  0  0
  190.6140  178.3910  138.9110 O   0  0  0  0  0  0  0  0  0  0  0  0
  189.6030  177.9200  141.0010 C   0  0  1  0  0  3  0  0  0  0  0  0
  188.1360  177.7550  141.3680 C   0  0  2  0  0  3  0  0  0  0  0  0
  186.3820  178.9140  140.2190 O   0  0  0  0  0  1  0  0  0  0  0  0
  189.0460  176.5390  141.2980 C   0  0  2  0  0  3  0  0  0  0  0  0
  188.2450  178.1820  138.9220 C   0  0  2  0  0  3  0  0  0  0  0  0
  189.5930  178.1730  139.5420 C   0  0  0  0  0  0  0  0  0  0  0  0
  187.3050  177.8770  140.0820 C   0  0  1  0  0  3  0  0  0  0  0  0
  188.7870  177.0220  143.7280 C   0  0  0  0  0  2  0  0  0  0  0  0
  190.7660  176.9710  145.0920 O   0  0  0  0  0  0  0  0  0  0  0  0
  191.3450  175.9610  144.3030 C   0  0  0  0  0  2  0  0  0  0  0  0
  189.3790  176.7300  145.1070 C   0  0  0  0  0  2  0  0  0  0  0  0
  189.4490  176.1100  142.6950 C   0  0  0  0  0  3  0  0  0  0  0  0
  190.9700  176.1680  142.8350 C   0  0  0  0  0  2  0  0  0  0  0  0
  1  3  1  1  0  0  0
  5 13  2  0  0  0  0
  6 25  1  6  0  0  0
  6 20  1  0  0  0  0
  6  1  1  0  0  0  0
  8 28  2  0  0  0  0
  9 16  1  6  0  0  0
 10 12  2  0  0  0  0
 11  7  1  0  0  0  0
 11 10  1  0  0  0  0
 12  9  1  0  0  0  0
 14  4  2  0  0  0  0
 14 34  1  0  0  0  0
 15  8  1  1  0  0  0
 15 17  1  0  0  0  0
 16 20  1  0  0  0  0
 17  2  1  6  0  0  0
 17 14  1  0  0  0  0
 18 26  2  0  0  0  0
 19  7  1  6  0  0  0
 19  9  1  0  0  0  0
 19  1  1  0  0  0  0
 21 10  1  0  0  0  0
 22  2  1  0  0  0  0
 23  8  1  0  0  0  0
 23 18  1  1  0  0  0
 23  1  1  0  0  0  0
 24  4  1  0  0  0  0
 26  5  1  0  0  0  0
 27 25  1  1  0  0  0
 27 22  1  0  0  0  0
 27 15  1  0  0  0  0
 28 24  1  0  0  0  0
 28  5  1  0  0  0  0
 29 35  2  0  0  0  0
 30 35  1  6  0  0  0
 30 33  1  0  0  0  0
 30 31  1  0  0  0  0
 33 31  1  0  0  0  0
 33 41  1  0  0  0  0
 34 35  1  0  0  0  0
 34 36  1  0  0  0  0
 36 32  1  0  0  0  0
 36 31  1  0  0  0  0
 37 40  1  0  0  0  0
 38 40  1  0  0  0  0
 39 38  1  0  0  0  0
 41 42  1  0  0  0  0
 41 37  1  0  0  0  0
 42 39  1  0  0  0  0
M  END
>  <MODEL>
5

>  <REMARK>
 VINA RESULT:      -5.0      3.309      5.928
  Name = 
  2 active torsions:
  status: ('A' for Active; 'I' for Inactive)
    1  A    between atoms: C_17  and  C_29
    2  A    between atoms: C_28  and  C_34
                            x       y       z     vdW  Elec       q    Type
                         _______ _______ _______ _____ _____    ______ ____

>  <TORSDO>
F 2

$$$$
=
 OpenBabel11062413403D

 42 50  0  0  1  0  0  0  0  0999 V2000
  190.2030  175.5870  137.5950 C   0  0  2  0  0  0  0  0  0  0  0  0
  186.8710  177.7780  135.1330 O   0  0  0  0  0  0  0  0  0  0  0  0
  189.2830  174.5730  138.2710 C   0  0  0  0  0  1  0  0  0  0  0  0
  185.7470  177.9000  138.5340 C   0  0  0  0  0  3  0  0  0  0  0  0
  188.5930  177.5900  140.6960 C   0  0  0  0  0  0  0  0  0  0  0  0
  189.7120  175.7770  136.1400 C   0  0  2  0  0  3  0  0  0  0  0  0
  192.6010  176.0300  137.3040 O   0  0  0  0  0  0  0  0  0  0  0  0
  188.8270  177.6810  138.2700 C   0  0  0  0  0  0  0  0  0  0  0  0
  191.8600  173.8200  136.6820 C   0  0  2  0  0  3  0  0  0  0  0  0
  194.2540  174.2770  137.1340 C   0  0  0  0  0  0  0  0  0  0  0  0
  193.8420  175.5720  137.7930 C   0  0  0  0  0  2  0  0  0  0  0  0
  193.3160  173.4330  136.6810 C   0  0  0  0  0  3  0  0  0  0  0  0
  187.8830  177.7720  141.7200 O   0  0  0  0  0  0  0  0  0  0  0  0
  185.8410  177.3580  137.3040 C   0  0  0  0  0  0  0  0  0  0  0  0
  188.2900  178.1700  136.9430 C   0  0  2  0  0  3  0  0  0  0  0  0
  191.4470  174.1760  135.2580 C   0  0  0  0  0  2  0  0  0  0  0  0
  187.1120  177.3680  136.4530 C   0  0  2  0  0  3  0  0  0  0  0  0
  190.6490  176.7810  139.8080 C   0  0  0  0  0  3  0  0  0  0  0  0
  191.6520  175.0330  137.6150 C   0  0  2  0  0  3  0  0  0  0  0  0
  189.9830  174.5800  135.2260 C   0  0  0  0  0  2  0  0  0  0  0  0
  195.5570  173.8980  137.1400 F   0  0  0  0  0  0  0  0  0  0  0  0
  188.1320  178.1220  134.5960 C   0  0  0  0  0  2  0  0  0  0  0  0
  190.1500  176.9300  138.3840 C   0  0  1  0  0  3  0  0  0  0  0  0
  186.7980  178.7150  139.2350 C   0  0  0  0  0  2  0  0  0  0  0  0
  190.1900  177.0920  135.5290 C   0  0  0  0  0  2  0  0  0  0  0  0
  189.9130  177.0650  140.8370 N   0  0  0  0  0  0  0  0  0  0  0  0
  189.1670  178.2250  135.7080 C   0  0  2  0  0  3  0  0  0  0  0  0
  188.0910  177.9550  139.3620 C   0  0  0  0  0  0  0  0  0  0  0  0
  184.1990  177.4920  134.8370 O   0  0  0  0  0  0  0  0  0  0  0  0
  182.3900  177.2040  136.3400 C   0  0  1  0  0  3  0  0  0  0  0  0
  182.3510  176.5600  137.7170 C   0  0  2  0  0  3  0  0  0  0  0  0
  183.8050  174.7620  138.3410 O   0  0  0  0  0  1  0  0  0  0  0  0
  182.2690  178.0720  137.5800 C   0  0  2  0  0  3  0  0  0  0  0  0
  184.7010  176.4500  136.9150 C   0  0  2  0  0  3  0  0  0  0  0  0
  183.8080  177.1020  135.9250 C   0  0  0  0  0  0  0  0  0  0  0  0
  183.7790  176.1320  138.0870 C   0  0  1  0  0  3  0  0  0  0  0  0
  180.6210  179.8500  137.0020 C   0  0  0  0  0  2  0  0  0  0  0  0
  179.1850  180.6510  138.7560 O   0  0  0  0  0  0  0  0  0  0  0  0
  179.1580  179.3890  139.3780 C   0  0  0  0  0  2  0  0  0  0  0  0
  179.2510  180.4180  137.3700 C   0  0  0  0  0  2  0  0  0  0  0  0
  180.8340  178.5320  137.7480 C   0  0  0  0  0  3  0  0  0  0  0  0
  180.5180  178.7080  139.2330 C   0  0  0  0  0  2  0  0  0  0  0  0
  1 19  1  0  0  0  0
  1  3  1  1  0  0  0
  1 23  1  0  0  0  0
  4 24  1  0  0  0  0
  5 26  1  0  0  0  0
  5 13  2  0  0  0  0
  6 20  1  6  0  0  0
  6  1  1  0  0  0  0
  7 11  1  0  0  0  0
  8 23  1  0  0  0  0
  8 28  2  0  0  0  0
  9 16  1  6  0  0  0
  9 19  1  0  0  0  0
 10 21  1  0  0  0  0
 10 11  1  0  0  0  0
 12  9  1  0  0  0  0
 12 10  2  0  0  0  0
 14  4  2  0  0  0  0
 15  8  1  1  0  0  0
 17  2  1  6  0  0  0
 17 15  1  0  0  0  0
 17 14  1  0  0  0  0
 18 26  2  0  0  0  0
 19  7  1  6  0  0  0
 20 16  1  0  0  0  0
 22  2  1  0  0  0  0
 23 18  1  1  0  0  0
 24 28  1  0  0  0  0
 25 27  1  0  0  0  0
 25  6  1  0  0  0  0
 27 22  1  6  0  0  0
 27 15  1  0  0  0  0
 28  5  1  0  0  0  0
 29 35  2  0  0  0  0
 30 35  1  1  0  0  0
 30 33  1  0  0  0  0
 30 31  1  0  0  0  0
 31 36  1  0  0  0  0
 33 31  1  0  0  0  0
 33 41  1  0  0  0  0
 34 14  1  0  0  0  0
 34 36  1  0  0  0  0
 35 34  1  0  0  0  0
 36 32  1  0  0  0  0
 37 40  1  0  0  0  0
 37 41  1  0  0  0  0
 38 39  1  0  0  0  0
 40 38  1  0  0  0  0
 41 42  1  0  0  0  0
 42 39  1  0  0  0  0
M  END
>  <MODEL>
6

>  <REMARK>
 VINA RESULT:      -4.4      4.254      9.072
  Name = 
  2 active torsions:
  status: ('A' for Active; 'I' for Inactive)
    1  A    between atoms: C_17  and  C_29
    2  A    between atoms: C_28  and  C_34
                            x       y       z     vdW  Elec       q    Type
                         _______ _______ _______ _____ _____    ______ ____

>  <TORSDO>
F 2

$$$$
=
 OpenBabel11062413403D

 42 50  0  0  1  0  0  0  0  0999 V2000
  186.5710  174.2590  136.6800 C   0  0  2  0  0  0  0  0  0  0  0  0
  182.7920  176.9280  135.9330 O   0  0  0  0  0  0  0  0  0  0  0  0
  186.5160  174.3010  138.2060 C   0  0  0  0  0  1  0  0  0  0  0  0
  184.9110  178.8900  138.0560 C   0  0  0  0  0  3  0  0  0  0  0  0
  188.2950  177.7660  137.6560 C   0  0  0  0  0  0  0  0  0  0  0  0
  185.1180  174.1660  136.1560 C   0  0  2  0  0  3  0  0  0  0  0  0
  187.7550  173.0710  134.8860 O   0  0  0  0  0  0  0  0  0  0  0  0
  186.4660  176.8290  136.3410 C   0  0  0  0  0  0  0  0  0  0  0  0
  186.6670  171.6760  136.5270 C   0  0  2  0  0  3  0  0  0  0  0  0
  188.4530  170.7660  135.0700 C   0  0  0  0  0  0  0  0  0  0  0  0
  188.8390  172.1840  134.7230 C   0  0  0  0  0  2  0  0  0  0  0  0
  187.4830  170.5410  135.9680 C   0  0  0  0  0  3  0  0  0  0  0  0
  188.7270  178.6800  138.4060 O   0  0  0  0  0  0  0  0  0  0  0  0
  183.9290  178.0010  137.8050 C   0  0  0  0  0  0  0  0  0  0  0  0
  185.1110  177.0260  135.6980 C   0  0  2  0  0  3  0  0  0  0  0  0
  185.2970  171.6690  135.8600 C   0  0  0  0  0  2  0  0  0  0  0  0
  183.9750  176.9600  136.6860 C   0  0  2  0  0  3  0  0  0  0  0  0
  188.7080  175.6540  136.6350 C   0  0  0  0  0  3  0  0  0  0  0  0
  187.3880  173.0130  136.2480 C   0  0  2  0  0  3  0  0  0  0  0  0
  184.4490  172.8100  136.3990 C   0  0  0  0  0  2  0  0  0  0  0  0
  189.1870  169.7280  134.5940 F   0  0  0  0  0  0  0  0  0  0  0  0
  183.1100  176.2470  134.7350 C   0  0  0  0  0  2  0  0  0  0  0  0
  187.2730  175.5480  136.1580 C   0  0  1  0  0  3  0  0  0  0  0  0
  186.1450  179.1150  137.2290 C   0  0  0  0  0  2  0  0  0  0  0  0
  184.9890  174.6240  134.7050 C   0  0  0  0  0  2  0  0  0  0  0  0
  189.1370  176.6600  137.3320 N   0  0  0  0  0  0  0  0  0  0  0  0
  184.6200  176.1120  134.5940 C   0  0  2  0  0  3  0  0  0  0  0  0
  186.9450  177.8500  137.0750 C   0  0  0  0  0  0  0  0  0  0  0  0
  182.3910  180.1880  139.0910 O   0  0  0  0  0  0  0  0  0  0  0  0
  182.9510  179.0500  141.0920 C   0  0  1  0  0  3  0  0  0  0  0  0
  183.2880  177.5860  141.3270 C   0  0  2  0  0  3  0  0  0  0  0  0
  182.3720  175.8200  139.9920 O   0  0  0  0  0  1  0  0  0  0  0  0
  184.3850  178.6390  141.3730 C   0  0  2  0  0  3  0  0  0  0  0  0
  182.8900  177.8710  138.8910 C   0  0  2  0  0  3  0  0  0  0  0  0
  182.7240  179.1460  139.6320 C   0  0  0  0  0  0  0  0  0  0  0  0
  183.2900  176.8700  139.9680 C   0  0  1  0  0  3  0  0  0  0  0  0
  185.8080  177.9830  143.3110 C   0  0  0  0  0  2  0  0  0  0  0  0
  184.7710  177.9000  145.4780 O   0  0  0  0  0  0  0  0  0  0  0  0
  183.8980  178.9550  145.1560 C   0  0  0  0  0  2  0  0  0  0  0  0
  185.9860  178.1630  144.8180 C   0  0  0  0  0  2  0  0  0  0  0  0
  184.7390  178.9570  142.8120 C   0  0  0  0  0  3  0  0  0  0  0  0
  183.4890  178.8630  143.6860 C   0  0  0  0  0  2  0  0  0  0  0  0
  1  3  1  1  0  0  0
  5 13  2  0  0  0  0
  6 25  1  6  0  0  0
  6 20  1  0  0  0  0
  6  1  1  0  0  0  0
  8 28  2  0  0  0  0
  9 16  1  6  0  0  0
 10 12  2  0  0  0  0
 11  7  1  0  0  0  0
 11 10  1  0  0  0  0
 12  9  1  0  0  0  0
 14  4  2  0  0  0  0
 14 34  1  0  0  0  0
 15  8  1  1  0  0  0
 15 17  1  0  0  0  0
 16 20  1  0  0  0  0
 17  2  1  6  0  0  0
 17 14  1  0  0  0  0
 18 26  2  0  0  0  0
 19  7  1  6  0  0  0
 19  9  1  0  0  0  0
 19  1  1  0  0  0  0
 21 10  1  0  0  0  0
 22  2  1  0  0  0  0
 23  8  1  0  0  0  0
 23 18  1  1  0  0  0
 23  1  1  0  0  0  0
 24  4  1  0  0  0  0
 26  5  1  0  0  0  0
 27 25  1  1  0  0  0
 27 22  1  0  0  0  0
 27 15  1  0  0  0  0
 28 24  1  0  0  0  0
 28  5  1  0  0  0  0
 29 35  2  0  0  0  0
 30 35  1  6  0  0  0
 30 31  1  0  0  0  0
 30 33  1  0  0  0  0
 31 33  1  0  0  0  0
 33 41  1  0  0  0  0
 34 35  1  0  0  0  0
 34 36  1  0  0  0  0
 36 32  1  0  0  0  0
 36 31  1  0  0  0  0
 37 40  1  0  0  0  0
 39 38  1  0  0  0  0
 40 38  1  0  0  0  0
 41 37  1  0  0  0  0
 41 42  1  0  0  0  0
 42 39  1  0  0  0  0
M  END
>  <MODEL>
7

>  <REMARK>
 VINA RESULT:      -4.0      3.923      7.921
  Name = 
  2 active torsions:
  status: ('A' for Active; 'I' for Inactive)
    1  A    between atoms: C_17  and  C_29
    2  A    between atoms: C_28  and  C_34
                            x       y       z     vdW  Elec       q    Type
                         _______ _______ _______ _____ _____    ______ ____

>  <TORSDO>
F 2

$$$$
=
 OpenBabel11062413403D

 42 50  0  0  1  0  0  0  0  0999 V2000
  184.5580  175.9070  137.6050 C   0  0  2  0  0  0  0  0  0  0  0  0
  188.0270  178.1610  135.4010 O   0  0  0  0  0  0  0  0  0  0  0  0
  185.2130  175.8840  138.9840 C   0  0  0  0  0  1  0  0  0  0  0  0
  189.5890  175.3250  136.9380 C   0  0  0  0  0  3  0  0  0  0  0  0
  187.1050  172.7900  137.4640 C   0  0  0  0  0  0  0  0  0  0  0  0
  184.8800  177.2710  136.9500 C   0  0  2  0  0  3  0  0  0  0  0  0
  182.3890  175.4250  136.5590 O   0  0  0  0  0  0  0  0  0  0  0  0
  186.5800  174.8890  136.3360 C   0  0  0  0  0  0  0  0  0  0  0  0
  182.3370  176.9550  138.4230 C   0  0  2  0  0  3  0  0  0  0  0  0
  180.2780  175.7990  137.6710 C   0  0  0  0  0  0  0  0  0  0  0  0
  181.1470  174.8440  136.8870 C   0  0  0  0  0  2  0  0  0  0  0  0
  180.8470  176.7380  138.4410 C   0  0  0  0  0  3  0  0  0  0  0  0
  187.9710  171.9760  137.8810 O   0  0  0  0  0  0  0  0  0  0  0  0
  189.1680  176.6050  136.8920 C   0  0  0  0  0  0  0  0  0  0  0  0
  187.0530  176.0430  135.4800 C   0  0  2  0  0  3  0  0  0  0  0  0
  182.6390  178.2130  137.6170 C   0  0  0  0  0  2  0  0  0  0  0  0
  187.8560  177.0580  136.2510 C   0  0  2  0  0  3  0  0  0  0  0  0
  184.7990  173.3770  137.3570 C   0  0  0  0  0  3  0  0  0  0  0  0
  183.0270  175.7320  137.7800 C   0  0  2  0  0  3  0  0  0  0  0  0
  184.1390  178.4560  137.5740 C   0  0  0  0  0  2  0  0  0  0  0  0
  178.9350  175.6100  137.7180 F   0  0  0  0  0  0  0  0  0  0  0  0
  186.8660  178.2150  134.5950 C   0  0  0  0  0  2  0  0  0  0  0  0
  185.1210  174.7300  136.7530 C   0  0  1  0  0  3  0  0  0  0  0  0
  188.9390  174.1470  136.2710 C   0  0  0  0  0  2  0  0  0  0  0  0
  184.7420  177.2370  135.4290 C   0  0  0  0  0  2  0  0  0  0  0  0
  185.7200  172.5280  137.6910 N   0  0  0  0  0  0  0  0  0  0  0  0
  186.0730  176.9220  134.7300 C   0  0  2  0  0  3  0  0  0  0  0  0
  187.5070  173.9860  136.7060 C   0  0  0  0  0  0  0  0  0  0  0  0
  191.7660  176.1310  138.2460 O   0  0  0  0  0  0  0  0  0  0  0  0
  190.6580  177.0580  140.1240 C   0  0  1  0  0  3  0  0  0  0  0  0
  189.4800  178.0180  140.1930 C   0  0  2  0  0  3  0  0  0  0  0  0
  189.0550  179.6630  138.5040 O   0  0  0  0  0  1  0  0  0  0  0  0
  189.2900  176.5500  140.5440 C   0  0  2  0  0  3  0  0  0  0  0  0
  189.9180  177.5580  137.7910 C   0  0  2  0  0  3  0  0  0  0  0  0
  190.8640  176.8320  138.6750 C   0  0  0  0  0  0  0  0  0  0  0  0
  189.0000  178.2930  138.7600 C   0  0  1  0  0  3  0  0  0  0  0  0
  188.2380  177.3570  142.6540 C   0  0  0  0  0  2  0  0  0  0  0  0
  189.6740  177.7170  144.5480 O   0  0  0  0  0  0  0  0  0  0  0  0
  190.5290  176.6670  144.1630 C   0  0  0  0  0  2  0  0  0  0  0  0
  188.3710  177.3360  144.1760 C   0  0  0  0  0  2  0  0  0  0  0  0
  189.2450  176.3770  142.0490 C   0  0  0  0  0  3  0  0  0  0  0  0
  190.6350  176.6150  142.6390 C   0  0  0  0  0  2  0  0  0  0  0  0
  1 19  1  0  0  0  0
  1  3  1  1  0  0  0
  5 26  1  0  0  0  0
  5 13  2  0  0  0  0
  6 25  1  6  0  0  0
  6 20  1  0  0  0  0
  6  1  1  0  0  0  0
  7 11  1  0  0  0  0
  8 28  2  0  0  0  0
  8 23  1  0  0  0  0
  9 16  1  6  0  0  0
  9 12  1  0  0  0  0
 10 21  1  0  0  0  0
 10 12  2  0  0  0  0
 11 10  1  0  0  0  0
 14  4  2  0  0  0  0
 14 34  1  0  0  0  0
 15 17  1  0  0  0  0
 15  8  1  1  0  0  0
 17  2  1  6  0  0  0
 17 14  1  0  0  0  0
 18 26  2  0  0  0  0
 19  7  1  6  0  0  0
 19  9  1  0  0  0  0
 20 16  1  0  0  0  0
 22  2  1  0  0  0  0
 23 18  1  1  0  0  0
 23  1  1  0  0  0  0
 24 28  1  0  0  0  0
 24  4  1  0  0  0  0
 27 22  1  1  0  0  0
 27 25  1  0  0  0  0
 27 15  1  0  0  0  0
 28  5  1  0  0  0  0
 29 35  2  0  0  0  0
 30 35  1  6  0  0  0
 30 31  1  0  0  0  0
 30 33  1  0  0  0  0
 31 33  1  0  0  0  0
 32 36  1  0  0  0  0
 33 41  1  0  0  0  0
 34 35  1  0  0  0  0
 34 36  1  0  0  0  0
 36 31  1  0  0  0  0
 37 40  1  0  0  0  0
 39 38  1  0  0  0  0
 40 38  1  0  0  0  0
 41 42  1  0  0  0  0
 41 37  1  0  0  0  0
 42 39  1  0  0  0  0
M  END
>  <MODEL>
8

>  <REMARK>
 VINA RESULT:      -3.6      2.934      5.328
  Name = 
  2 active torsions:
  status: ('A' for Active; 'I' for Inactive)
    1  A    between atoms: C_17  and  C_29
    2  A    between atoms: C_28  and  C_34
                            x       y       z     vdW  Elec       q    Type
                         _______ _______ _______ _____ _____    ______ ____

>  <TORSDO>
F 2

$$$$
=
 OpenBabel11062413403D

 42 50  0  0  1  0  0  0  0  0999 V2000
  187.2840  176.8670  136.8080 C   0  0  2  0  0  0  0  0  0  0  0  0
  190.0390  173.1860  135.8950 O   0  0  0  0  0  0  0  0  0  0  0  0
  188.1790  177.9200  136.1580 C   0  0  0  0  0  1  0  0  0  0  0  0
  192.1420  175.5150  137.6280 C   0  0  0  0  0  3  0  0  0  0  0  0
  190.0720  177.6870  139.5970 C   0  0  0  0  0  0  0  0  0  0  0  0
  187.3370  175.5930  135.9310 C   0  0  2  0  0  3  0  0  0  0  0  0
  185.0220  176.6560  137.7410 O   0  0  0  0  0  0  0  0  0  0  0  0
  189.1350  175.8390  138.3080 C   0  0  0  0  0  0  0  0  0  0  0  0
  185.1540  177.5370  135.4990 C   0  0  2  0  0  3  0  0  0  0  0  0
  183.1230  177.8730  136.8800 C   0  0  0  0  0  0  0  0  0  0  0  0
  183.9280  177.4730  138.0930 C   0  0  0  0  0  2  0  0  0  0  0  0
  183.7220  177.9680  135.6840 C   0  0  0  0  0  3  0  0  0  0  0  0
  191.0790  178.2470  140.1050 O   0  0  0  0  0  0  0  0  0  0  0  0
  191.5890  174.9590  136.5320 C   0  0  0  0  0  0  0  0  0  0  0  0
  189.3210  174.4610  137.7130 C   0  0  2  0  0  3  0  0  0  0  0  0
  185.1710  176.1890  134.7890 C   0  0  0  0  0  2  0  0  0  0  0  0
  190.1420  174.4710  136.4490 C   0  0  2  0  0  3  0  0  0  0  0  0
  187.7370  177.8010  139.1400 C   0  0  0  0  0  3  0  0  0  0  0  0
  185.8370  177.4210  136.8790 C   0  0  2  0  0  3  0  0  0  0  0  0
  186.6040  175.7220  134.5940 C   0  0  0  0  0  2  0  0  0  0  0  0
  181.8380  178.2850  137.0260 F   0  0  0  0  0  0  0  0  0  0  0  0
  188.7520  172.7150  136.2420 C   0  0  0  0  0  2  0  0  0  0  0  0
  187.8010  176.5770  138.2490 C   0  0  1  0  0  3  0  0  0  0  0  0
  191.5060  175.6390  138.9840 C   0  0  0  0  0  2  0  0  0  0  0  0
  186.9280  174.3380  136.6980 C   0  0  0  0  0  2  0  0  0  0  0  0
  188.7870  178.2960  139.7190 N   0  0  0  0  0  0  0  0  0  0  0  0
  188.1350  173.6090  137.3090 C   0  0  2  0  0  3  0  0  0  0  0  0
  190.2020  176.3880  138.9170 C   0  0  0  0  0  0  0  0  0  0  0  0
  192.3430  172.8330  134.6040 O   0  0  0  0  0  0  0  0  0  0  0  0
  194.4730  173.8650  134.7020 C   0  0  1  0  0  3  0  0  0  0  0  0
  194.8560  175.2950  135.0480 C   0  0  2  0  0  3  0  0  0  0  0  0
  193.4230  177.1600  134.5950 O   0  0  0  0  0  1  0  0  0  0  0  0
  195.1230  174.1730  136.0390 C   0  0  2  0  0  3  0  0  0  0  0  0
  192.3870  175.1190  135.2610 C   0  0  2  0  0  3  0  0  0  0  0  0
  193.0000  173.8320  134.8450 C   0  0  0  0  0  0  0  0  0  0  0  0
  193.5770  176.0550  135.4310 C   0  0  1  0  0  3  0  0  0  0  0  0
  197.0240  173.2790  137.3780 C   0  0  0  0  0  2  0  0  0  0  0  0
  199.1620  174.3490  137.1310 O   0  0  0  0  0  0  0  0  0  0  0  0
  198.9110  174.6510  135.7800 C   0  0  0  0  0  2  0  0  0  0  0  0
  198.5440  173.1120  137.3920 C   0  0  0  0  0  2  0  0  0  0  0  0
  196.5880  173.7830  136.0020 C   0  0  0  0  0  3  0  0  0  0  0  0
  197.4320  174.9880  135.5890 C   0  0  0  0  0  2  0  0  0  0  0  0
  1  3  1  6  0  0  0
  1 19  1  0  0  0  0
  1 23  1  0  0  0  0
  2 22  1  0  0  0  0
  4 24  1  0  0  0  0
  5 26  1  0  0  0  0
  5 13  2  0  0  0  0
  6 20  1  6  0  0  0
  6 25  1  0  0  0  0
  6  1  1  0  0  0  0
  7 11  1  0  0  0  0
  8 28  2  0  0  0  0
  9 16  1  1  0  0  0
  9 12  1  0  0  0  0
  9 19  1  0  0  0  0
 10 21  1  0  0  0  0
 10 11  1  0  0  0  0
 12 10  2  0  0  0  0
 14  4  2  0  0  0  0
 15  8  1  6  0  0  0
 17  2  1  1  0  0  0
 17 14  1  0  0  0  0
 17 15  1  0  0  0  0
 18 26  2  0  0  0  0
 19  7  1  1  0  0  0
 20 16  1  0  0  0  0
 23  8  1  0  0  0  0
 23 18  1  1  0  0  0
 25 27  1  0  0  0  0
 27 22  1  6  0  0  0
 27 15  1  0  0  0  0
 28 24  1  0  0  0  0
 28  5  1  0  0  0  0
 29 35  2  0  0  0  0
 30 35  1  1  0  0  0
 30 31  1  0  0  0  0
 30 33  1  0  0  0  0
 31 36  1  0  0  0  0
 31 33  1  0  0  0  0
 32 36  1  0  0  0  0
 34 36  1  0  0  0  0
 34 14  1  0  0  0  0
 35 34  1  0  0  0  0
 37 40  1  0  0  0  0
 38 40  1  0  0  0  0
 39 38  1  0  0  0  0
 41 33  1  0  0  0  0
 41 37  1  0  0  0  0
 42 39  1  0  0  0  0
 42 41  1  0  0  0  0
M  END
>  <MODEL>
9

>  <REMARK>
 VINA RESULT:      -3.1      5.255      7.931
  Name = 
  2 active torsions:
  status: ('A' for Active; 'I' for Inactive)
    1  A    between atoms: C_17  and  C_29
    2  A    between atoms: C_28  and  C_34
                            x       y       z     vdW  Elec       q    Type
                         _______ _______ _______ _____ _____    ______ ____

>  <TORSDO>
F 2

$$$$
