=
 OpenBabel11062416363D

 61 68  0  0  1  0  0  0  0  0999 V2000
  188.2700  177.2960  137.6120 N   0  0  0  0  0  0  0  0  0  0  0  0
  189.5070  177.4270  136.8380 C   0  0  0  0  0  2  0  0  0  0  0  0
  189.6680  176.2470  135.8890 C   0  0  2  0  0  3  0  0  0  0  0  0
  189.2440  176.5930  134.6040 O   0  0  0  0  0  1  0  0  0  0  0  0
  191.1460  173.7260  136.6110 N   0  0  0  0  0  2  0  0  0  0  0  0
  187.0180  173.6560  135.5860 C   0  0  0  0  0  3  0  0  0  0  0  0
  187.2100  170.9740  135.3460 Cl  0  0  0  0  0  0  0  0  0  0  0  0
  187.5960  174.8560  135.7010 C   0  0  0  0  0  3  0  0  0  0  0  0
  189.7340  173.7380  136.3720 C   0  0  0  0  0  0  0  0  0  0  0  0
  187.6700  172.4590  136.2120 C   0  0  1  0  0  3  0  0  0  0  0  0
  189.1270  172.5940  136.2410 N   0  0  0  0  0  0  0  0  0  0  0  0
  188.9150  175.0210  136.4220 C   0  0  1  0  0  3  0  0  0  0  0  0
  191.8640  174.8640  136.9980 N   0  0  0  0  0  2  0  0  0  0  0  0
  195.6180  174.9710  136.6260 C   0  0  0  0  0  0  0  0  0  0  0  0
  195.7100  175.7680  135.4770 C   0  0  0  0  0  3  0  0  0  0  0  0
  193.1800  175.1490  136.5100 C   0  0  0  0  0  0  0  0  0  0  0  0
  194.5620  176.2540  134.8530 C   0  0  0  0  0  3  0  0  0  0  0  0
  193.3030  175.9480  135.3700 C   0  0  0  0  0  3  0  0  0  0  0  0
  194.2310  173.9040  138.2700 F   0  0  0  0  0  0  0  0  0  0  0  0
  194.3410  174.6580  137.1460 C   0  0  0  0  0  0  0  0  0  0  0  0
  196.8660  174.4920  137.2590 C   0  0  0  0  0  0  0  0  0  0  0  0
  197.1590  173.1320  137.2780 O   0  0  0  0  0  0  0  0  0  0  0  0
  197.6860  175.2990  137.7720 O   0  0  0  0  0  1  0  0  0  0  0  0
  188.5120  177.2410  139.0590 C   0  0  0  0  0  2  0  0  0  0  0  0
  189.8640  177.8100  139.4800 C   0  0  0  0  0  2  0  0  0  0  0  0
  190.6750  176.7290  140.1560 C   0  0  0  0  0  2  0  0  0  0  0  0
  190.9320  177.1170  141.5970 C   0  0  0  0  0  2  0  0  0  0  0  0
  187.6950  176.4900  143.5920 C   0  0  1  0  0  3  0  0  0  0  0  0
  191.2580  176.2520  145.8400 C   0  0  0  0  0  0  0  0  0  0  0  0
  190.9180  175.4930  143.5140 C   0  0  0  0  0  2  0  0  0  0  0  0
  186.9080  177.1710  144.7220 C   0  0  0  0  0  2  0  0  0  0  0  0
  189.4660  178.1390  144.3300 C   0  0  0  0  0  0  0  0  0  0  0  0
  190.0720  179.2850  144.0230 C   0  0  0  0  0  2  0  0  0  0  0  0
  190.0560  176.3010  142.5430 C   0  0  1  0  0  3  0  0  0  0  0  0
  187.7270  177.4500  145.9940 C   0  0  1  0  0  3  0  0  0  0  0  0
  191.7480  176.3820  144.4370 C   0  0  0  0  0  2  0  0  0  0  0  0
  187.7850  177.5110  142.4640 C   0  0  0  0  0  2  0  0  0  0  0  0
  189.2140  177.7710  145.7640 C   0  0  1  0  0  3  0  0  0  0  0  0
  189.9740  176.6490  146.2340 O   0  0  0  0  0  0  0  0  0  0  0  0
  189.0220  177.1770  143.2660 C   0  0  1  0  0  0  0  0  0  0  0  0
  191.9920  175.6600  146.6750 O   0  0  0  0  0  0  0  0  0  0  0  0
  187.0760  178.5490  146.7670 C   0  0  0  0  0  3  0  0  0  0  0  0
  186.0220  179.2560  146.3460 C   0  0  0  0  0  3  0  0  0  0  0  0
  184.1760  178.4600  145.0640 N   0  0  0  0  0  0  0  0  0  0  0  0
  185.8720  179.5370  143.8630 O   0  0  0  0  0  0  0  0  0  0  0  0
  183.3800  178.2370  143.8530 C   0  0  2  0  0  3  0  0  0  0  0  0
  185.1450  179.5040  142.6370 C   0  0  0  0  0  2  0  0  0  0  0  0
  185.3160  179.0830  145.0660 C   0  0  0  0  0  0  0  0  0  0  0  0
  184.2530  178.2710  142.5960 C   0  0  0  0  0  2  0  0  0  0  0  0
  180.9230  178.5550  143.9260 C   0  0  0  0  0  2  0  0  0  0  0  0
  182.2560  179.2620  143.7680 C   0  0  0  0  0  3  0  0  0  0  0  0
  181.4010  178.9700  142.5500 C   0  0  0  0  0  2  0  0  0  0  0  0
  187.2510  178.2980  137.2500 C   0  0  0  0  0  2  0  0  0  0  0  0
  185.9980  178.2590  138.0920 C   0  0  0  0  0  0  0  0  0  0  0  0
  185.9690  178.8210  139.1720 O   0  0  0  0  0  0  0  0  0  0  0  0
  184.7340  177.6530  137.5570 C   0  0  1  0  0  3  0  0  0  0  0  0
  182.7950  176.7900  138.7600 C   0  0  0  0  0  2  0  0  0  0  0  0
  182.6740  175.5120  136.7610 O   0  0  0  0  0  1  0  0  0  0  0  0
  184.8040  176.1390  137.6040 C   0  0  0  0  0  2  0  0  0  0  0  0
  183.5140  178.0660  138.3620 C   0  0  0  0  0  2  0  0  0  0  0  0
  183.4040  175.6720  137.9400 C   0  0  1  0  0  3  0  0  0  0  0  0
  1 24  1  0  0  0  0
  2  1  1  0  0  0  0
  3  4  1  6  0  0  0
  3  2  1  0  0  0  0
  5 13  1  0  0  0  0
  6  8  2  0  0  0  0
  6 10  1  0  0  0  0
  8 12  1  0  0  0  0
  9 12  1  0  0  0  0
  9  5  1  0  0  0  0
 10  7  1  6  0  0  0
 10 11  1  0  0  0  0
 11  9  2  0  0  0  0
 12  3  1  6  0  0  0
 14 20  1  0  0  0  0
 14 21  1  0  0  0  0
 15 14  2  0  0  0  0
 16 13  1  0  0  0  0
 16 20  2  0  0  0  0
 17 18  2  0  0  0  0
 17 15  1  0  0  0  0
 18 16  1  0  0  0  0
 20 19  1  0  0  0  0
 21 22  2  0  0  0  0
 21 23  1  0  0  0  0
 24 25  1  0  0  0  0
 25 26  1  0  0  0  0
 26 27  1  0  0  0  0
 28 37  1  6  0  0  0
 28 31  1  0  0  0  0
 29 39  1  0  0  0  0
 29 41  2  0  0  0  0
 30 36  1  0  0  0  0
 31 35  1  0  0  0  0
 33 32  2  0  0  0  0
 34 27  1  1  0  0  0
 34 40  1  0  0  0  0
 34 30  1  0  0  0  0
 35 42  1  6  0  0  0
 36 29  1  0  0  0  0
 38 32  1  6  0  0  0
 38 35  1  0  0  0  0
 38 39  1  0  0  0  0
 40 37  1  6  0  0  0
 40 28  1  0  0  0  0
 40 32  1  0  0  0  0
 43 42  2  0  0  0  0
 44 48  2  0  0  0  0
 45 48  1  0  0  0  0
 46 51  1  6  0  0  0
 46 44  1  0  0  0  0
 47 45  1  0  0  0  0
 48 43  1  0  0  0  0
 49 47  1  0  0  0  0
 49 46  1  0  0  0  0
 51 50  1  0  0  0  0
 52 51  1  0  0  0  0
 52 50  1  0  0  0  0
 53  1  1  0  0  0  0
 53 54  1  0  0  0  0
 54 55  2  0  0  0  0
 56 59  1  0  0  0  0
 56 54  1  1  0  0  0
 56 60  1  0  0  0  0
 59 61  1  0  0  0  0
 60 57  1  0  0  0  0
 61 58  1  6  0  0  0
 61 57  1  0  0  0  0
M  END
>  <MODEL>
1

>  <REMARK>
 VINA RESULT:      -8.8      0.000      0.000
  Name = 
  17 active torsions:
  status: ('A' for Active; 'I' for Inactive)
    1  A    between atoms: C_1  and  C_43
    2  A    between atoms: C_1  and  N_49
    3  A    between atoms: C_2  and  C_19
    4  A    between atoms: C_5  and  C_9
    5  A    between atoms: C_5  and  C_44
    6  A    between atoms: N_8  and  N_35
    7  A    between atoms: C_12  and  C_45
    8  A    between atoms: C_16  and  C_30
    9  A    between atoms: C_16  and  N_49
   10  A    between atoms: C_23  and  C_52
   11  A    between atoms: C_24  and  N_35
   12  A    between atoms: C_25  and  C_29
   13  A    between atoms: C_30  and  C_40
   14  A    between atoms: C_33  and  C_43
   15  A    between atoms: C_33  and  C_52
   16  A    between atoms: C_44  and  N_49
   17  A    between atoms: C_48  and  C_51
                            x       y       z     vdW  Elec       q    Type
                         _______ _______ _______ _____ _____    ______ ____

>  <TORSDO>
F 17

$$$$
=
 OpenBabel11062416363D

 61 68  0  0  1  0  0  0  0  0999 V2000
  187.4530  178.1920  140.2150 N   0  0  0  0  0  0  0  0  0  0  0  0
  188.1190  178.5910  141.4570 C   0  0  0  0  0  2  0  0  0  0  0  0
  188.8180  177.3970  142.0930 C   0  0  2  0  0  3  0  0  0  0  0  0
  187.8850  176.4230  142.4590 O   0  0  0  0  0  1  0  0  0  0  0  0
  191.8110  177.0800  142.0620 N   0  0  0  0  0  2  0  0  0  0  0  0
  189.6480  177.3260  145.7160 C   0  0  0  0  0  3  0  0  0  0  0  0
  191.8660  176.4570  146.9890 Cl  0  0  0  0  0  0  0  0  0  0  0  0
  188.9600  177.5270  144.5880 C   0  0  0  0  0  3  0  0  0  0  0  0
  191.0790  177.2760  143.2770 C   0  0  0  0  0  0  0  0  0  0  0  0
  191.1430  177.4540  145.7040 C   0  0  1  0  0  3  0  0  0  0  0  0
  191.7030  177.0820  144.4030 N   0  0  0  0  0  0  0  0  0  0  0  0
  189.6670  177.8450  143.2900 C   0  0  1  0  0  3  0  0  0  0  0  0
  191.3290  177.4790  140.8080 N   0  0  0  0  0  2  0  0  0  0  0  0
  191.3330  175.4650  137.6180 C   0  0  0  0  0  0  0  0  0  0  0  0
  192.6600  175.6740  137.2180 C   0  0  0  0  0  3  0  0  0  0  0  0
  191.7450  176.8550  139.5890 C   0  0  0  0  0  0  0  0  0  0  0  0
  193.5210  176.4550  137.9880 C   0  0  0  0  0  3  0  0  0  0  0  0
  193.0660  177.0390  139.1690 C   0  0  0  0  0  3  0  0  0  0  0  0
  189.5950  175.8550  139.2280 F   0  0  0  0  0  0  0  0  0  0  0  0
  190.8720  176.0620  138.8130 C   0  0  0  0  0  0  0  0  0  0  0  0
  190.4640  174.6170  136.7740 C   0  0  0  0  0  0  0  0  0  0  0  0
  189.9240  173.4440  137.2900 O   0  0  0  0  0  1  0  0  0  0  0  0
  190.1850  174.9460  135.5890 O   0  0  0  0  0  0  0  0  0  0  0  0
  186.0850  178.7140  140.1130 C   0  0  0  0  0  2  0  0  0  0  0  0
  185.3040  178.6550  141.4230 C   0  0  0  0  0  2  0  0  0  0  0  0
  183.9030  179.1750  141.1950 C   0  0  0  0  0  2  0  0  0  0  0  0
  183.6620  179.3400  139.7080 C   0  0  0  0  0  2  0  0  0  0  0  0
  180.0120  178.3370  140.4310 C   0  0  1  0  0  3  0  0  0  0  0  0
  181.3650  177.4820  136.5270 C   0  0  0  0  0  0  0  0  0  0  0  0
  181.9300  179.4600  137.8920 C   0  0  0  0  0  2  0  0  0  0  0  0
  179.1910  177.0440  140.5390 C   0  0  0  0  0  2  0  0  0  0  0  0
  181.7020  176.7450  139.4240 C   0  0  0  0  0  0  0  0  0  0  0  0
  182.8330  176.0800  139.6560 C   0  0  0  0  0  2  0  0  0  0  0  0
  182.1690  179.3340  139.3970 C   0  0  1  0  0  3  0  0  0  0  0  0
  179.2790  176.1250  139.3080 C   0  0  1  0  0  3  0  0  0  0  0  0
  182.4870  178.2730  137.1100 C   0  0  0  0  0  2  0  0  0  0  0  0
  181.1220  178.2230  141.4700 C   0  0  0  0  0  2  0  0  0  0  0  0
  180.6260  176.1440  138.5650 C   0  0  1  0  0  3  0  0  0  0  0  0
  180.4190  176.8140  137.3140 O   0  0  0  0  0  0  0  0  0  0  0  0
  181.4630  178.1100  140.0010 C   0  0  1  0  0  0  0  0  0  0  0  0
  181.2030  177.5080  135.2780 O   0  0  0  0  0  0  0  0  0  0  0  0
  178.9310  174.7300  139.7090 C   0  0  0  0  0  3  0  0  0  0  0  0
  179.2050  173.6390  138.9860 C   0  0  0  0  0  3  0  0  0  0  0  0
  181.1690  173.3650  137.6620 N   0  0  0  0  0  0  0  0  0  0  0  0
  179.2060  173.8810  136.4950 O   0  0  0  0  0  0  0  0  0  0  0  0
  181.9560  173.3010  136.4260 C   0  0  2  0  0  3  0  0  0  0  0  0
  179.8190  173.7210  135.2180 C   0  0  0  0  0  2  0  0  0  0  0  0
  179.8930  173.6100  137.6850 C   0  0  0  0  0  0  0  0  0  0  0  0
  181.2930  174.0970  135.2990 C   0  0  0  0  0  2  0  0  0  0  0  0
  183.3910  171.3060  136.7420 C   0  0  0  0  0  2  0  0  0  0  0  0
  182.1750  171.8500  136.0180 C   0  0  0  0  0  3  0  0  0  0  0  0
  183.5000  171.7270  135.2920 C   0  0  0  0  0  2  0  0  0  0  0  0
  188.2550  178.4760  139.0110 C   0  0  0  0  0  2  0  0  0  0  0  0
  187.5150  178.3160  137.7050 C   0  0  0  0  0  0  0  0  0  0  0  0
  187.2640  179.2910  137.0190 O   0  0  0  0  0  0  0  0  0  0  0  0
  187.2010  176.9510  137.1640 C   0  0  1  0  0  3  0  0  0  0  0  0
  186.1540  176.3200  135.0530 C   0  0  0  0  0  2  0  0  0  0  0  0
  185.5740  174.4550  136.4050 O   0  0  0  0  0  1  0  0  0  0  0  0
  185.7460  176.6000  137.4090 C   0  0  0  0  0  2  0  0  0  0  0  0
  187.4330  176.8610  135.6660 C   0  0  0  0  0  2  0  0  0  0  0  0
  185.3040  175.8090  136.1980 C   0  0  1  0  0  3  0  0  0  0  0  0
  1  2  1  0  0  0  0
  2  3  1  0  0  0  0
  3  4  1  1  0  0  0
  5  9  1  0  0  0  0
  8  6  2  0  0  0  0
  9 12  1  0  0  0  0
  9 11  2  0  0  0  0
 10  6  1  0  0  0  0
 10  7  1  1  0  0  0
 11 10  1  0  0  0  0
 12  3  1  6  0  0  0
 12  8  1  0  0  0  0
 13  5  1  0  0  0  0
 14 20  1  0  0  0  0
 15 14  2  0  0  0  0
 15 17  1  0  0  0  0
 16 13  1  0  0  0  0
 17 18  2  0  0  0  0
 18 16  1  0  0  0  0
 20 19  1  0  0  0  0
 20 16  2  0  0  0  0
 21 22  1  0  0  0  0
 21 14  1  0  0  0  0
 23 21  2  0  0  0  0
 24  1  1  0  0  0  0
 24 25  1  0  0  0  0
 26 25  1  0  0  0  0
 27 26  1  0  0  0  0
 28 31  1  1  0  0  0
 28 37  1  0  0  0  0
 29 36  1  0  0  0  0
 29 39  1  0  0  0  0
 30 34  1  0  0  0  0
 32 33  2  0  0  0  0
 32 40  1  0  0  0  0
 34 27  1  6  0  0  0
 34 40  1  0  0  0  0
 35 42  1  1  0  0  0
 35 31  1  0  0  0  0
 36 30  1  0  0  0  0
 38 39  1  6  0  0  0
 38 35  1  0  0  0  0
 38 32  1  0  0  0  0
 40 28  1  0  0  0  0
 40 37  1  1  0  0  0
 41 29  2  0  0  0  0
 43 42  2  0  0  0  0
 44 48  2  0  0  0  0
 45 48  1  0  0  0  0
 46 51  1  6  0  0  0
 46 44  1  0  0  0  0
 47 49  1  0  0  0  0
 47 45  1  0  0  0  0
 48 43  1  0  0  0  0
 49 46  1  0  0  0  0
 51 50  1  0  0  0  0
 52 51  1  0  0  0  0
 52 50  1  0  0  0  0
 53  1  1  0  0  0  0
 54 53  1  0  0  0  0
 55 54  2  0  0  0  0
 56 59  1  0  0  0  0
 56 54  1  6  0  0  0
 57 60  1  0  0  0  0
 57 61  1  0  0  0  0
 60 56  1  0  0  0  0
 61 58  1  1  0  0  0
 61 59  1  0  0  0  0
M  END
>  <MODEL>
2

>  <REMARK>
 VINA RESULT:      -8.1      3.554      8.386
  Name = 
  17 active torsions:
  status: ('A' for Active; 'I' for Inactive)
    1  A    between atoms: C_1  and  C_43
    2  A    between atoms: C_1  and  N_49
    3  A    between atoms: C_2  and  C_19
    4  A    between atoms: C_5  and  C_9
    5  A    between atoms: C_5  and  C_44
    6  A    between atoms: N_8  and  N_35
    7  A    between atoms: C_12  and  C_45
    8  A    between atoms: C_16  and  C_30
    9  A    between atoms: C_16  and  N_49
   10  A    between atoms: C_23  and  C_52
   11  A    between atoms: C_24  and  N_35
   12  A    between atoms: C_25  and  C_29
   13  A    between atoms: C_30  and  C_40
   14  A    between atoms: C_33  and  C_43
   15  A    between atoms: C_33  and  C_52
   16  A    between atoms: C_44  and  N_49
   17  A    between atoms: C_48  and  C_51
                            x       y       z     vdW  Elec       q    Type
                         _______ _______ _______ _____ _____    ______ ____

>  <TORSDO>
F 17

$$$$
=
 OpenBabel11062416363D

 61 68  0  0  1  0  0  0  0  0999 V2000
  188.3020  176.6250  138.1370 N   0  0  0  0  0  0  0  0  0  0  0  0
  189.1980  176.6740  136.9790 C   0  0  0  0  0  2  0  0  0  0  0  0
  189.7040  175.2790  136.6390 C   0  0  2  0  0  3  0  0  0  0  0  0
  189.6840  174.4630  137.7720 O   0  0  0  0  0  1  0  0  0  0  0  0
  190.7030  173.0830  134.8380 N   0  0  0  0  0  2  0  0  0  0  0  0
  193.3940  175.6240  136.9350 C   0  0  0  0  0  3  0  0  0  0  0  0
  195.3700  173.8840  136.3360 Cl  0  0  0  0  0  0  0  0  0  0  0  0
  192.0930  175.9250  137.0070 C   0  0  0  0  0  3  0  0  0  0  0  0
  191.5900  174.0170  135.4630 C   0  0  0  0  0  0  0  0  0  0  0  0
  193.8870  174.7310  135.8350 C   0  0  1  0  0  3  0  0  0  0  0  0
  192.8660  173.7630  135.4300 N   0  0  0  0  0  0  0  0  0  0  0  0
  191.1040  175.3510  136.0170 C   0  0  1  0  0  3  0  0  0  0  0  0
  189.3490  173.3570  134.6030 N   0  0  0  0  0  2  0  0  0  0  0  0
  186.0660  171.7930  135.6080 C   0  0  0  0  0  0  0  0  0  0  0  0
  186.3570  170.4510  135.3260 C   0  0  0  0  0  3  0  0  0  0  0  0
  188.3140  172.4010  134.8580 C   0  0  0  0  0  0  0  0  0  0  0  0
  187.6050  170.0830  134.8230 C   0  0  0  0  0  3  0  0  0  0  0  0
  188.5790  171.0540  134.5940 C   0  0  0  0  0  3  0  0  0  0  0  0
  186.7970  174.0790  135.6560 F   0  0  0  0  0  0  0  0  0  0  0  0
  187.0530  172.7750  135.3700 C   0  0  0  0  0  0  0  0  0  0  0  0
  184.7330  172.1290  136.1540 C   0  0  0  0  0  0  0  0  0  0  0  0
  184.0250  171.1860  136.8910 O   0  0  0  0  0  1  0  0  0  0  0  0
  184.2270  173.2700  135.9780 O   0  0  0  0  0  0  0  0  0  0  0  0
  188.6130  177.6560  139.1360 C   0  0  0  0  0  2  0  0  0  0  0  0
  190.1050  177.8220  139.4060 C   0  0  0  0  0  2  0  0  0  0  0  0
  190.6060  176.6390  140.2020 C   0  0  0  0  0  2  0  0  0  0  0  0
  190.8660  177.0670  141.6310 C   0  0  0  0  0  2  0  0  0  0  0  0
  187.6810  176.4270  143.7040 C   0  0  1  0  0  3  0  0  0  0  0  0
  191.2960  176.2450  145.8730 C   0  0  0  0  0  0  0  0  0  0  0  0
  190.9110  175.4610  143.5630 C   0  0  0  0  0  2  0  0  0  0  0  0
  186.9130  177.1100  144.8450 C   0  0  0  0  0  2  0  0  0  0  0  0
  189.4520  178.1000  144.3870 C   0  0  0  0  0  0  0  0  0  0  0  0
  190.0390  179.2490  144.0560 C   0  0  0  0  0  2  0  0  0  0  0  0
  190.0200  176.2510  142.6040 C   0  0  1  0  0  3  0  0  0  0  0  0
  187.7580  177.4100  146.0950 C   0  0  1  0  0  3  0  0  0  0  0  0
  191.7530  176.3670  144.4580 C   0  0  0  0  0  2  0  0  0  0  0  0
  187.7360  177.4370  142.5650 C   0  0  0  0  0  2  0  0  0  0  0  0
  189.2350  177.7430  145.8300 C   0  0  1  0  0  3  0  0  0  0  0  0
  190.0170  176.6330  146.2920 O   0  0  0  0  0  0  0  0  0  0  0  0
  188.9940  177.1240  143.3420 C   0  0  1  0  0  0  0  0  0  0  0  0
  192.0540  175.6680  146.6970 O   0  0  0  0  0  0  0  0  0  0  0  0
  187.1130  178.5090  146.8730 C   0  0  0  0  0  3  0  0  0  0  0  0
  186.0770  179.2380  146.4460 C   0  0  0  0  0  3  0  0  0  0  0  0
  184.2590  178.4480  145.1200 N   0  0  0  0  0  0  0  0  0  0  0  0
  185.9460  179.5940  143.9720 O   0  0  0  0  0  0  0  0  0  0  0  0
  183.4790  178.2490  143.8950 C   0  0  2  0  0  3  0  0  0  0  0  0
  185.2320  179.5870  142.7380 C   0  0  0  0  0  2  0  0  0  0  0  0
  185.3870  179.0920  145.1540 C   0  0  0  0  0  0  0  0  0  0  0  0
  184.3630  178.3390  142.6480 C   0  0  0  0  0  2  0  0  0  0  0  0
  181.0190  178.5270  144.0240 C   0  0  0  0  0  2  0  0  0  0  0  0
  182.3370  179.2550  143.8300 C   0  0  0  0  0  3  0  0  0  0  0  0
  181.4580  178.9410  142.6340 C   0  0  0  0  0  2  0  0  0  0  0  0
  186.8760  176.6140  137.7650 C   0  0  0  0  0  2  0  0  0  0  0  0
  186.3000  177.9680  137.4240 C   0  0  0  0  0  0  0  0  0  0  0  0
  186.9840  178.7970  136.8510 O   0  0  0  0  0  0  0  0  0  0  0  0
  184.8480  178.2640  137.6570 C   0  0  1  0  0  3  0  0  0  0  0  0
  183.1860  176.9940  138.9130 C   0  0  0  0  0  2  0  0  0  0  0  0
  181.7910  178.1200  137.3550 O   0  0  0  0  0  1  0  0  0  0  0  0
  183.9800  177.4800  136.6930 C   0  0  0  0  0  2  0  0  0  0  0  0
  184.4040  177.8880  139.0610 C   0  0  0  0  0  2  0  0  0  0  0  0
  182.7380  177.1010  137.4700 C   0  0  1  0  0  3  0  0  0  0  0  0
  1 24  1  0  0  0  0
  2  1  1  0  0  0  0
  3  2  1  0  0  0  0
  3  4  1  1  0  0  0
  5  9  1  0  0  0  0
  6  8  2  0  0  0  0
  9 12  1  0  0  0  0
 10  7  1  1  0  0  0
 10  6  1  0  0  0  0
 11  9  2  0  0  0  0
 11 10  1  0  0  0  0
 12  3  1  1  0  0  0
 12  8  1  0  0  0  0
 13  5  1  0  0  0  0
 13 16  1  0  0  0  0
 14 21  1  0  0  0  0
 15 14  2  0  0  0  0
 16 20  2  0  0  0  0
 17 15  1  0  0  0  0
 18 17  2  0  0  0  0
 18 16  1  0  0  0  0
 20 14  1  0  0  0  0
 20 19  1  0  0  0  0
 21 22  1  0  0  0  0
 23 21  2  0  0  0  0
 24 25  1  0  0  0  0
 25 26  1  0  0  0  0
 26 27  1  0  0  0  0
 28 37  1  6  0  0  0
 28 31  1  0  0  0  0
 29 39  1  0  0  0  0
 29 41  2  0  0  0  0
 30 36  1  0  0  0  0
 31 35  1  0  0  0  0
 33 32  2  0  0  0  0
 34 27  1  1  0  0  0
 34 40  1  0  0  0  0
 34 30  1  0  0  0  0
 35 42  1  6  0  0  0
 36 29  1  0  0  0  0
 38 32  1  6  0  0  0
 38 35  1  0  0  0  0
 38 39  1  0  0  0  0
 40 37  1  6  0  0  0
 40 28  1  0  0  0  0
 40 32  1  0  0  0  0
 43 42  2  0  0  0  0
 44 48  2  0  0  0  0
 45 48  1  0  0  0  0
 46 51  1  6  0  0  0
 46 44  1  0  0  0  0
 47 45  1  0  0  0  0
 48 43  1  0  0  0  0
 49 47  1  0  0  0  0
 49 46  1  0  0  0  0
 51 50  1  0  0  0  0
 52 51  1  0  0  0  0
 52 50  1  0  0  0  0
 53  1  1  0  0  0  0
 54 53  1  0  0  0  0
 55 54  2  0  0  0  0
 56 54  1  1  0  0  0
 56 60  1  0  0  0  0
 57 60  1  0  0  0  0
 59 61  1  0  0  0  0
 59 56  1  0  0  0  0
 61 58  1  1  0  0  0
 61 57  1  0  0  0  0
M  END
>  <MODEL>
3

>  <REMARK>
 VINA RESULT:      -7.9      2.402      4.623
  Name = 
  17 active torsions:
  status: ('A' for Active; 'I' for Inactive)
    1  A    between atoms: C_1  and  C_43
    2  A    between atoms: C_1  and  N_49
    3  A    between atoms: C_2  and  C_19
    4  A    between atoms: C_5  and  C_9
    5  A    between atoms: C_5  and  C_44
    6  A    between atoms: N_8  and  N_35
    7  A    between atoms: C_12  and  C_45
    8  A    between atoms: C_16  and  C_30
    9  A    between atoms: C_16  and  N_49
   10  A    between atoms: C_23  and  C_52
   11  A    between atoms: C_24  and  N_35
   12  A    between atoms: C_25  and  C_29
   13  A    between atoms: C_30  and  C_40
   14  A    between atoms: C_33  and  C_43
   15  A    between atoms: C_33  and  C_52
   16  A    between atoms: C_44  and  N_49
   17  A    between atoms: C_48  and  C_51
                            x       y       z     vdW  Elec       q    Type
                         _______ _______ _______ _____ _____    ______ ____

>  <TORSDO>
F 17

$$$$
=
 OpenBabel11062416363D

 61 68  0  0  1  0  0  0  0  0999 V2000
  186.6660  178.5710  139.8180 N   0  0  0  0  0  0  0  0  0  0  0  0
  187.6800  177.7990  140.5400 C   0  0  0  0  0  2  0  0  0  0  0  0
  189.0750  178.3070  140.2020 C   0  0  2  0  0  3  0  0  0  0  0  0
  189.0030  179.3600  139.2860 O   0  0  0  0  0  1  0  0  0  0  0  0
  191.5620  177.4740  141.6800 N   0  0  0  0  0  2  0  0  0  0  0  0
  191.0930  176.7020  137.5230 C   0  0  0  0  0  3  0  0  0  0  0  0
  193.7320  176.1380  137.4170 Cl  0  0  0  0  0  0  0  0  0  0  0  0
  190.0400  177.2100  138.1700 C   0  0  0  0  0  3  0  0  0  0  0  0
  191.3380  177.1250  140.3090 C   0  0  0  0  0  0  0  0  0  0  0  0
  192.1920  176.0420  138.3030 C   0  0  1  0  0  3  0  0  0  0  0  0
  192.3380  176.6370  139.6340 N   0  0  0  0  0  0  0  0  0  0  0  0
  189.9520  177.1620  139.6790 C   0  0  1  0  0  3  0  0  0  0  0  0
  190.5220  177.7840  142.5670 N   0  0  0  0  0  2  0  0  0  0  0  0
  189.5540  177.2800  146.1790 C   0  0  0  0  0  0  0  0  0  0  0  0
  190.7320  176.6830  146.6500 C   0  0  0  0  0  3  0  0  0  0  0  0
  190.5580  177.4230  143.9520 C   0  0  0  0  0  0  0  0  0  0  0  0
  191.8100  176.4610  145.7930 C   0  0  0  0  0  3  0  0  0  0  0  0
  191.7230  176.8330  144.4520 C   0  0  0  0  0  3  0  0  0  0  0  0
  188.3420  178.2490  144.3480 F   0  0  0  0  0  0  0  0  0  0  0  0
  189.4670  177.6520  144.8190 C   0  0  0  0  0  0  0  0  0  0  0  0
  188.4460  177.5060  147.1320 C   0  0  0  0  0  0  0  0  0  0  0  0
  188.7120  178.0010  148.4040 O   0  0  0  0  0  1  0  0  0  0  0  0
  187.2510  177.2740  146.8060 O   0  0  0  0  0  0  0  0  0  0  0  0
  186.6360  178.2620  138.3820 C   0  0  0  0  0  2  0  0  0  0  0  0
  185.2550  177.8720  137.8650 C   0  0  0  0  0  2  0  0  0  0  0  0
  185.3670  177.4250  136.4260 C   0  0  0  0  0  2  0  0  0  0  0  0
  185.9750  176.0390  136.3730 C   0  0  0  0  0  2  0  0  0  0  0  0
  183.0290  174.2990  134.5990 C   0  0  1  0  0  3  0  0  0  0  0  0
  186.4280  171.8770  135.2200 C   0  0  0  0  0  0  0  0  0  0  0  0
  186.4030  174.2760  134.6340 C   0  0  0  0  0  2  0  0  0  0  0  0
  182.0400  173.1620  134.8920 C   0  0  0  0  0  2  0  0  0  0  0  0
  184.1890  173.3170  136.6220 C   0  0  0  0  0  0  0  0  0  0  0  0
  184.4240  173.4870  137.9220 C   0  0  0  0  0  2  0  0  0  0  0  0
  185.3640  175.2210  135.2390 C   0  0  1  0  0  3  0  0  0  0  0  0
  182.6970  171.8250  135.2750 C   0  0  1  0  0  3  0  0  0  0  0  0
  186.8950  173.2320  135.6340 C   0  0  0  0  0  2  0  0  0  0  0  0
  182.8350  175.3270  135.7080 C   0  0  0  0  0  2  0  0  0  0  0  0
  184.0200  171.9380  136.0510 C   0  0  1  0  0  3  0  0  0  0  0  0
  185.0730  171.5260  135.1690 O   0  0  0  0  0  0  0  0  0  0  0  0
  184.0910  174.4860  135.6840 C   0  0  1  0  0  0  0  0  0  0  0  0
  187.2830  171.0560  134.7950 O   0  0  0  0  0  0  0  0  0  0  0  0
  181.7190  170.9980  136.0420 C   0  0  0  0  0  3  0  0  0  0  0  0
  180.7230  171.4900  136.7860 C   0  0  0  0  0  3  0  0  0  0  0  0
  180.7450  173.4780  138.1020 N   0  0  0  0  0  0  0  0  0  0  0  0
  179.7210  173.6460  136.0040 O   0  0  0  0  0  0  0  0  0  0  0  0
  180.4920  174.8910  138.4030 C   0  0  2  0  0  3  0  0  0  0  0  0
  179.5300  175.0540  136.1130 C   0  0  0  0  0  2  0  0  0  0  0  0
  180.4070  172.9150  136.9810 C   0  0  0  0  0  0  0  0  0  0  0  0
  179.3300  175.4400  137.5720 C   0  0  0  0  0  2  0  0  0  0  0  0
  182.4250  175.9640  139.5230 C   0  0  0  0  0  2  0  0  0  0  0  0
  181.7580  175.7090  138.1840 C   0  0  0  0  0  3  0  0  0  0  0  0
  181.6090  177.0570  138.8640 C   0  0  0  0  0  2  0  0  0  0  0  0
  185.3300  178.4950  140.4380 C   0  0  0  0  0  2  0  0  0  0  0  0
  185.2980  178.8140  141.9140 C   0  0  0  0  0  0  0  0  0  0  0  0
  186.2990  178.6690  142.5930 O   0  0  0  0  0  0  0  0  0  0  0  0
  184.0860  179.4420  142.5360 C   0  0  1  0  0  3  0  0  0  0  0  0
  182.7700  178.7090  144.4550 C   0  0  0  0  0  2  0  0  0  0  0  0
  181.1330  179.9300  143.2420 O   0  0  0  0  0  1  0  0  0  0  0  0
  182.8210  178.7620  142.0490 C   0  0  0  0  0  2  0  0  0  0  0  0
  184.0950  179.3290  144.0510 C   0  0  0  0  0  2  0  0  0  0  0  0
  181.8780  178.7500  143.2320 C   0  0  1  0  0  3  0  0  0  0  0  0
  1 53  1  0  0  0  0
  1  2  1  0  0  0  0
  3  4  1  6  0  0  0
  3  2  1  0  0  0  0
  5 13  1  0  0  0  0
  6  8  2  0  0  0  0
  6 10  1  0  0  0  0
  8 12  1  0  0  0  0
  9  5  1  0  0  0  0
 10  7  1  6  0  0  0
 10 11  1  0  0  0  0
 11  9  2  0  0  0  0
 12  3  1  1  0  0  0
 12  9  1  0  0  0  0
 13 16  1  0  0  0  0
 14 15  1  0  0  0  0
 14 21  1  0  0  0  0
 16 18  2  0  0  0  0
 16 20  1  0  0  0  0
 17 15  2  0  0  0  0
 18 17  1  0  0  0  0
 19 20  1  0  0  0  0
 20 14  2  0  0  0  0
 21 22  1  0  0  0  0
 23 21  2  0  0  0  0
 24  1  1  0  0  0  0
 25 24  1  0  0  0  0
 26 25  1  0  0  0  0
 27 26  1  0  0  0  0
 28 31  1  1  0  0  0
 28 40  1  0  0  0  0
 28 37  1  0  0  0  0
 29 36  1  0  0  0  0
 30 34  1  0  0  0  0
 30 36  1  0  0  0  0
 31 35  1  0  0  0  0
 32 33  2  0  0  0  0
 34 40  1  0  0  0  0
 34 27  1  1  0  0  0
 35 42  1  1  0  0  0
 35 38  1  0  0  0  0
 38 39  1  6  0  0  0
 38 32  1  0  0  0  0
 39 29  1  0  0  0  0
 40 37  1  1  0  0  0
 40 32  1  0  0  0  0
 41 29  2  0  0  0  0
 42 43  2  0  0  0  0
 43 48  1  0  0  0  0
 44 46  1  0  0  0  0
 45 47  1  0  0  0  0
 45 48  1  0  0  0  0
 46 51  1  6  0  0  0
 47 49  1  0  0  0  0
 48 44  2  0  0  0  0
 49 46  1  0  0  0  0
 51 52  1  0  0  0  0
 51 50  1  0  0  0  0
 52 50  1  0  0  0  0
 53 54  1  0  0  0  0
 54 55  2  0  0  0  0
 56 54  1  6  0  0  0
 56 60  1  0  0  0  0
 59 56  1  0  0  0  0
 59 61  1  0  0  0  0
 60 57  1  0  0  0  0
 61 58  1  1  0  0  0
 61 57  1  0  0  0  0
M  END
>  <MODEL>
4

>  <REMARK>
 VINA RESULT:      -7.3      3.532      8.967
  Name = 
  17 active torsions:
  status: ('A' for Active; 'I' for Inactive)
    1  A    between atoms: C_1  and  C_43
    2  A    between atoms: C_1  and  N_49
    3  A    between atoms: C_2  and  C_19
    4  A    between atoms: C_5  and  C_9
    5  A    between atoms: C_5  and  C_44
    6  A    between atoms: N_8  and  N_35
    7  A    between atoms: C_12  and  C_45
    8  A    between atoms: C_16  and  C_30
    9  A    between atoms: C_16  and  N_49
   10  A    between atoms: C_23  and  C_52
   11  A    between atoms: C_24  and  N_35
   12  A    between atoms: C_25  and  C_29
   13  A    between atoms: C_30  and  C_40
   14  A    between atoms: C_33  and  C_43
   15  A    between atoms: C_33  and  C_52
   16  A    between atoms: C_44  and  N_49
   17  A    between atoms: C_48  and  C_51
                            x       y       z     vdW  Elec       q    Type
                         _______ _______ _______ _____ _____    ______ ____

>  <TORSDO>
F 17

$$$$
=
 OpenBabel11062416363D

 61 68  0  0  1  0  0  0  0  0999 V2000
  189.2250  176.7530  137.4070 N   0  0  0  0  0  0  0  0  0  0  0  0
  190.4040  175.9260  137.1390 C   0  0  0  0  0  2  0  0  0  0  0  0
  190.1640  175.0350  135.9280 C   0  0  2  0  0  3  0  0  0  0  0  0
  189.3900  175.7030  134.9760 O   0  0  0  0  0  1  0  0  0  0  0  0
  191.1520  172.4140  134.8230 N   0  0  0  0  0  2  0  0  0  0  0  0
  187.1970  172.8320  136.3330 C   0  0  0  0  0  3  0  0  0  0  0  0
  186.5920  170.4740  135.1630 Cl  0  0  0  0  0  0  0  0  0  0  0  0
  188.0200  173.8730  136.4900 C   0  0  0  0  0  3  0  0  0  0  0  0
  189.8640  172.5450  135.4360 C   0  0  0  0  0  0  0  0  0  0  0  0
  187.7670  171.4730  136.0510 C   0  0  1  0  0  3  0  0  0  0  0  0
  189.0220  171.5620  135.3020 N   0  0  0  0  0  0  0  0  0  0  0  0
  189.5180  173.7110  136.3540 C   0  0  1  0  0  3  0  0  0  0  0  0
  192.2150  173.2870  135.0890 N   0  0  0  0  0  2  0  0  0  0  0  0
  195.0890  173.5230  137.5220 C   0  0  0  0  0  0  0  0  0  0  0  0
  195.3960  172.1610  137.6450 C   0  0  0  0  0  3  0  0  0  0  0  0
  193.2950  172.9420  135.9630 C   0  0  0  0  0  0  0  0  0  0  0  0
  194.6720  171.2010  136.9390 C   0  0  0  0  0  3  0  0  0  0  0  0
  193.6290  171.5910  136.0990 C   0  0  0  0  0  3  0  0  0  0  0  0
  193.7290  175.2330  136.5260 F   0  0  0  0  0  0  0  0  0  0  0  0
  194.0290  173.9160  136.6740 C   0  0  0  0  0  0  0  0  0  0  0  0
  195.8960  174.5030  138.2810 C   0  0  0  0  0  0  0  0  0  0  0  0
  197.0390  175.0530  137.7100 O   0  0  0  0  0  0  0  0  0  0  0  0
  195.5580  174.8660  139.4400 O   0  0  0  0  0  1  0  0  0  0  0  0
  189.3090  177.4570  138.6940 C   0  0  0  0  0  2  0  0  0  0  0  0
  190.2330  176.7840  139.7050 C   0  0  0  0  0  2  0  0  0  0  0  0
  190.2670  177.6030  140.9750 C   0  0  0  0  0  2  0  0  0  0  0  0
  191.0830  176.8740  142.0230 C   0  0  0  0  0  2  0  0  0  0  0  0
  187.9590  176.7310  144.2750 C   0  0  1  0  0  3  0  0  0  0  0  0
  191.6150  175.9430  146.2300 C   0  0  0  0  0  0  0  0  0  0  0  0
  190.9780  175.2590  143.9450 C   0  0  0  0  0  2  0  0  0  0  0  0
  187.3780  177.5160  145.4600 C   0  0  0  0  0  2  0  0  0  0  0  0
  190.0130  178.0890  144.8580 C   0  0  0  0  0  0  0  0  0  0  0  0
  190.7580  179.1320  144.4960 C   0  0  0  0  0  2  0  0  0  0  0  0
  190.1730  176.1940  143.0410 C   0  0  1  0  0  3  0  0  0  0  0  0
  188.3290  177.6600  146.6600 C   0  0  1  0  0  3  0  0  0  0  0  0
  192.0050  176.0070  144.7920 C   0  0  0  0  0  2  0  0  0  0  0  0
  188.1110  177.7320  143.1370 C   0  0  0  0  0  2  0  0  0  0  0  0
  189.8240  177.7540  146.3100 C   0  0  1  0  0  3  0  0  0  0  0  0
  190.4410  176.5280  146.7240 O   0  0  0  0  0  0  0  0  0  0  0  0
  189.3450  177.2120  143.8390 C   0  0  1  0  0  0  0  0  0  0  0  0
  192.3160  175.2430  147.0080 O   0  0  0  0  0  0  0  0  0  0  0  0
  187.9160  178.8400  147.4770 C   0  0  0  0  0  3  0  0  0  0  0  0
  186.7540  179.4880  147.3450 C   0  0  0  0  0  3  0  0  0  0  0  0
  185.6660  179.7660  145.2410 N   0  0  0  0  0  0  0  0  0  0  0  0
  184.6690  178.2520  146.7200 O   0  0  0  0  0  0  0  0  0  0  0  0
  184.6560  179.5150  144.2090 C   0  0  2  0  0  3  0  0  0  0  0  0
  183.7050  177.8180  145.7640 C   0  0  0  0  0  2  0  0  0  0  0  0
  185.6810  179.1610  146.3910 C   0  0  0  0  0  0  0  0  0  0  0  0
  183.3640  178.9590  144.8160 C   0  0  0  0  0  2  0  0  0  0  0  0
  185.3150  179.3150  141.8280 C   0  0  0  0  0  2  0  0  0  0  0  0
  185.2120  178.5740  143.1480 C   0  0  0  0  0  3  0  0  0  0  0  0
  184.1660  178.3580  142.0700 C   0  0  0  0  0  2  0  0  0  0  0  0
  188.8860  177.6560  136.2930 C   0  0  0  0  0  2  0  0  0  0  0  0
  187.7270  178.5860  136.5630 C   0  0  0  0  0  0  0  0  0  0  0  0
  187.9310  179.7540  136.8430 O   0  0  0  0  0  0  0  0  0  0  0  0
  186.3130  178.1280  136.3540 C   0  0  1  0  0  3  0  0  0  0  0  0
  185.1770  176.1500  137.2190 C   0  0  0  0  0  2  0  0  0  0  0  0
  183.9330  176.5360  135.2330 O   0  0  0  0  0  1  0  0  0  0  0  0
  186.2460  177.0720  135.2690 C   0  0  0  0  0  2  0  0  0  0  0  0
  185.7180  177.5130  137.6100 C   0  0  0  0  0  2  0  0  0  0  0  0
  185.1720  176.1000  135.7050 C   0  0  1  0  0  3  0  0  0  0  0  0
  1 24  1  0  0  0  0
  2  1  1  0  0  0  0
  3  4  1  6  0  0  0
  3  2  1  0  0  0  0
  5 13  1  0  0  0  0
  5  9  1  0  0  0  0
  6  8  2  0  0  0  0
  9 12  1  0  0  0  0
 10  7  1  6  0  0  0
 10  6  1  0  0  0  0
 11  9  2  0  0  0  0
 11 10  1  0  0  0  0
 12  3  1  6  0  0  0
 12  8  1  0  0  0  0
 13 16  1  0  0  0  0
 14 15  1  0  0  0  0
 14 21  1  0  0  0  0
 16 18  2  0  0  0  0
 16 20  1  0  0  0  0
 17 15  2  0  0  0  0
 18 17  1  0  0  0  0
 19 20  1  0  0  0  0
 20 14  2  0  0  0  0
 21 23  1  0  0  0  0
 22 21  2  0  0  0  0
 24 25  1  0  0  0  0
 25 26  1  0  0  0  0
 26 27  1  0  0  0  0
 28 37  1  6  0  0  0
 28 31  1  0  0  0  0
 29 39  1  0  0  0  0
 29 41  2  0  0  0  0
 30 36  1  0  0  0  0
 31 35  1  0  0  0  0
 33 32  2  0  0  0  0
 34 27  1  6  0  0  0
 34 40  1  0  0  0  0
 34 30  1  0  0  0  0
 35 42  1  6  0  0  0
 36 29  1  0  0  0  0
 38 32  1  6  0  0  0
 38 35  1  0  0  0  0
 38 39  1  0  0  0  0
 40 37  1  6  0  0  0
 40 28  1  0  0  0  0
 40 32  1  0  0  0  0
 43 42  2  0  0  0  0
 44 48  2  0  0  0  0
 46 51  1  6  0  0  0
 46 49  1  0  0  0  0
 46 44  1  0  0  0  0
 47 45  1  0  0  0  0
 48 45  1  0  0  0  0
 48 43  1  0  0  0  0
 49 47  1  0  0  0  0
 50 52  1  0  0  0  0
 50 51  1  0  0  0  0
 52 51  1  0  0  0  0
 53 54  1  0  0  0  0
 53  1  1  0  0  0  0
 54 55  2  0  0  0  0
 56 54  1  1  0  0  0
 56 60  1  0  0  0  0
 57 60  1  0  0  0  0
 59 61  1  0  0  0  0
 59 56  1  0  0  0  0
 61 58  1  6  0  0  0
 61 57  1  0  0  0  0
M  END
>  <MODEL>
5

>  <REMARK>
 VINA RESULT:      -7.3      1.552      2.149
  Name = 
  17 active torsions:
  status: ('A' for Active; 'I' for Inactive)
    1  A    between atoms: C_1  and  C_43
    2  A    between atoms: C_1  and  N_49
    3  A    between atoms: C_2  and  C_19
    4  A    between atoms: C_5  and  C_9
    5  A    between atoms: C_5  and  C_44
    6  A    between atoms: N_8  and  N_35
    7  A    between atoms: C_12  and  C_45
    8  A    between atoms: C_16  and  C_30
    9  A    between atoms: C_16  and  N_49
   10  A    between atoms: C_23  and  C_52
   11  A    between atoms: C_24  and  N_35
   12  A    between atoms: C_25  and  C_29
   13  A    between atoms: C_30  and  C_40
   14  A    between atoms: C_33  and  C_43
   15  A    between atoms: C_33  and  C_52
   16  A    between atoms: C_44  and  N_49
   17  A    between atoms: C_48  and  C_51
                            x       y       z     vdW  Elec       q    Type
                         _______ _______ _______ _____ _____    ______ ____

>  <TORSDO>
F 17

$$$$
=
 OpenBabel11062416363D

 61 68  0  0  1  0  0  0  0  0999 V2000
  189.4410  176.8790  136.8580 N   0  0  0  0  0  0  0  0  0  0  0  0
  188.2660  176.6900  136.0040 C   0  0  0  0  0  2  0  0  0  0  0  0
  187.2740  175.7450  136.6670 C   0  0  2  0  0  3  0  0  0  0  0  0
  187.8460  175.1470  137.7920 O   0  0  0  0  0  1  0  0  0  0  0  0
  184.3380  175.4780  136.0560 N   0  0  0  0  0  2  0  0  0  0  0  0
  187.0290  172.2390  135.4540 C   0  0  0  0  0  3  0  0  0  0  0  0
  184.8850  170.6150  135.2110 Cl  0  0  0  0  0  0  0  0  0  0  0  0
  187.5610  173.4150  135.8000 C   0  0  0  0  0  3  0  0  0  0  0  0
  185.2750  174.4380  135.7560 C   0  0  0  0  0  0  0  0  0  0  0  0
  185.6400  172.1930  134.8880 C   0  0  1  0  0  3  0  0  0  0  0  0
  184.8050  173.2700  135.4240 N   0  0  0  0  0  0  0  0  0  0  0  0
  186.7730  174.6990  135.6630 C   0  0  1  0  0  3  0  0  0  0  0  0
  184.7080  176.8230  136.1940 N   0  0  0  0  0  2  0  0  0  0  0  0
  182.4410  178.7390  138.5230 C   0  0  0  0  0  0  0  0  0  0  0  0
  183.4050  179.2790  139.3850 C   0  0  0  0  0  3  0  0  0  0  0  0
  184.2320  177.6470  137.2630 C   0  0  0  0  0  0  0  0  0  0  0  0
  184.7610  179.0160  139.1930 C   0  0  0  0  0  3  0  0  0  0  0  0
  185.1720  178.2060  138.1350 C   0  0  0  0  0  3  0  0  0  0  0  0
  181.9420  177.3990  136.5950 F   0  0  0  0  0  0  0  0  0  0  0  0
  182.8600  177.9160  137.4530 C   0  0  0  0  0  0  0  0  0  0  0  0
  181.0180  179.0610  138.7610 C   0  0  0  0  0  0  0  0  0  0  0  0
  180.5570  180.3600  138.5720 O   0  0  0  0  0  0  0  0  0  0  0  0
  180.2010  178.1700  139.1190 O   0  0  0  0  0  1  0  0  0  0  0  0
  189.0950  177.3980  138.1880 C   0  0  0  0  0  2  0  0  0  0  0  0
  190.3060  177.7520  139.0450 C   0  0  0  0  0  2  0  0  0  0  0  0
  190.5660  176.6380  140.0320 C   0  0  0  0  0  2  0  0  0  0  0  0
  190.6820  177.2160  141.4270 C   0  0  0  0  0  2  0  0  0  0  0  0
  187.5860  176.5230  143.6150 C   0  0  1  0  0  3  0  0  0  0  0  0
  191.2820  176.3820  145.6460 C   0  0  0  0  0  0  0  0  0  0  0  0
  190.8220  175.6030  143.3480 C   0  0  0  0  0  2  0  0  0  0  0  0
  186.8520  177.1910  144.7870 C   0  0  0  0  0  2  0  0  0  0  0  0
  189.3580  178.2180  144.2390 C   0  0  0  0  0  0  0  0  0  0  0  0
  189.9170  179.3760  143.8910 C   0  0  0  0  0  2  0  0  0  0  0  0
  189.8840  176.3840  142.4270 C   0  0  1  0  0  3  0  0  0  0  0  0
  187.7390  177.4970  146.0060 C   0  0  1  0  0  3  0  0  0  0  0  0
  191.6840  176.5160  144.2160 C   0  0  0  0  0  2  0  0  0  0  0  0
  187.5840  177.5390  142.4790 C   0  0  0  0  0  2  0  0  0  0  0  0
  189.2010  177.8520  145.6870 C   0  0  1  0  0  3  0  0  0  0  0  0
  190.0140  176.7510  146.1150 O   0  0  0  0  0  0  0  0  0  0  0  0
  188.8750  177.2400  143.2070 C   0  0  1  0  0  0  0  0  0  0  0  0
  192.0790  175.8120  146.4390 O   0  0  0  0  0  0  0  0  0  0  0  0
  187.1090  178.5840  146.8120 C   0  0  0  0  0  3  0  0  0  0  0  0
  186.0280  179.2790  146.4420 C   0  0  0  0  0  3  0  0  0  0  0  0
  184.1300  178.4750  145.2430 N   0  0  0  0  0  0  0  0  0  0  0  0
  185.7700  179.5530  143.9680 O   0  0  0  0  0  0  0  0  0  0  0  0
  183.2830  178.2480  144.0680 C   0  0  2  0  0  3  0  0  0  0  0  0
  184.9910  179.5160  142.7740 C   0  0  0  0  0  2  0  0  0  0  0  0
  185.2680  179.1010  145.1940 C   0  0  0  0  0  0  0  0  0  0  0  0
  184.1000  178.2810  142.7740 C   0  0  0  0  0  2  0  0  0  0  0  0
  180.8240  178.5430  143.9730 C   0  0  0  0  0  2  0  0  0  0  0  0
  182.1540  179.2700  144.0300 C   0  0  0  0  0  3  0  0  0  0  0  0
  181.4090  179.1470  142.7140 C   0  0  0  0  0  2  0  0  0  0  0  0
  190.3050  175.6870  136.9270 C   0  0  0  0  0  2  0  0  0  0  0  0
  191.4230  175.6570  135.9110 C   0  0  0  0  0  0  0  0  0  0  0  0
  191.4200  176.4370  134.9740 O   0  0  0  0  0  0  0  0  0  0  0  0
  192.6170  174.7710  136.1110 C   0  0  1  0  0  3  0  0  0  0  0  0
  194.3570  174.8720  137.8180 C   0  0  0  0  0  2  0  0  0  0  0  0
  195.5380  173.8110  136.0510 O   0  0  0  0  0  1  0  0  0  0  0  0
  193.8610  175.4080  135.5240 C   0  0  0  0  0  2  0  0  0  0  0  0
  192.9010  174.5150  137.5810 C   0  0  0  0  0  2  0  0  0  0  0  0
  194.9950  175.0320  136.4530 C   0  0  1  0  0  3  0  0  0  0  0  0
  1 53  1  0  0  0  0
  1 24  1  0  0  0  0
  2  3  1  0  0  0  0
  2  1  1  0  0  0  0
  3  4  1  1  0  0  0
  5 13  1  0  0  0  0
  6  8  2  0  0  0  0
  9  5  1  0  0  0  0
 10  7  1  1  0  0  0
 10 11  1  0  0  0  0
 10  6  1  0  0  0  0
 11  9  2  0  0  0  0
 12  9  1  0  0  0  0
 12  8  1  0  0  0  0
 12  3  1  1  0  0  0
 13 16  1  0  0  0  0
 14 21  1  0  0  0  0
 14 15  1  0  0  0  0
 16 20  1  0  0  0  0
 16 18  2  0  0  0  0
 17 15  2  0  0  0  0
 18 17  1  0  0  0  0
 19 20  1  0  0  0  0
 20 14  2  0  0  0  0
 21 23  1  0  0  0  0
 22 21  2  0  0  0  0
 24 25  1  0  0  0  0
 25 26  1  0  0  0  0
 26 27  1  0  0  0  0
 28 37  1  6  0  0  0
 28 31  1  0  0  0  0
 29 39  1  0  0  0  0
 29 41  2  0  0  0  0
 30 36  1  0  0  0  0
 31 35  1  0  0  0  0
 33 32  2  0  0  0  0
 34 27  1  6  0  0  0
 34 40  1  0  0  0  0
 34 30  1  0  0  0  0
 35 42  1  6  0  0  0
 36 29  1  0  0  0  0
 38 32  1  6  0  0  0
 38 35  1  0  0  0  0
 38 39  1  0  0  0  0
 40 37  1  6  0  0  0
 40 28  1  0  0  0  0
 40 32  1  0  0  0  0
 43 42  2  0  0  0  0
 45 48  1  0  0  0  0
 46 51  1  6  0  0  0
 46 44  1  0  0  0  0
 47 45  1  0  0  0  0
 48 44  2  0  0  0  0
 48 43  1  0  0  0  0
 49 47  1  0  0  0  0
 49 46  1  0  0  0  0
 50 51  1  0  0  0  0
 52 50  1  0  0  0  0
 52 51  1  0  0  0  0
 54 53  1  0  0  0  0
 55 54  2  0  0  0  0
 56 54  1  1  0  0  0
 56 60  1  0  0  0  0
 59 56  1  0  0  0  0
 59 61  1  0  0  0  0
 60 57  1  0  0  0  0
 61 58  1  6  0  0  0
 61 57  1  0  0  0  0
M  END
>  <MODEL>
6

>  <REMARK>
 VINA RESULT:      -7.2      2.382      6.891
  Name = 
  17 active torsions:
  status: ('A' for Active; 'I' for Inactive)
    1  A    between atoms: C_1  and  C_43
    2  A    between atoms: C_1  and  N_49
    3  A    between atoms: C_2  and  C_19
    4  A    between atoms: C_5  and  C_9
    5  A    between atoms: C_5  and  C_44
    6  A    between atoms: N_8  and  N_35
    7  A    between atoms: C_12  and  C_45
    8  A    between atoms: C_16  and  C_30
    9  A    between atoms: C_16  and  N_49
   10  A    between atoms: C_23  and  C_52
   11  A    between atoms: C_24  and  N_35
   12  A    between atoms: C_25  and  C_29
   13  A    between atoms: C_30  and  C_40
   14  A    between atoms: C_33  and  C_43
   15  A    between atoms: C_33  and  C_52
   16  A    between atoms: C_44  and  N_49
   17  A    between atoms: C_48  and  C_51
                            x       y       z     vdW  Elec       q    Type
                         _______ _______ _______ _____ _____    ______ ____

>  <TORSDO>
F 17

$$$$
=
 OpenBabel11062416363D

 61 68  0  0  1  0  0  0  0  0999 V2000
  189.9400  176.6010  137.1720 N   0  0  0  0  0  0  0  0  0  0  0  0
  188.6800  175.9280  136.8490 C   0  0  0  0  0  2  0  0  0  0  0  0
  188.4370  175.9460  135.3470 C   0  0  2  0  0  3  0  0  0  0  0  0
  187.4650  176.8940  135.0200 O   0  0  0  0  0  1  0  0  0  0  0  0
  186.0120  174.5320  136.4350 N   0  0  0  0  0  0  0  0  0  0  0  0
  189.2440  172.3740  134.7030 C   0  0  0  0  0  3  0  0  0  0  0  0
  188.1990  170.1230  135.7680 Cl  0  0  0  0  0  0  0  0  0  0  0  0
  189.2920  173.7070  134.6250 C   0  0  0  0  0  3  0  0  0  0  0  0
  187.0570  173.8330  135.7500 C   0  0  0  0  0  0  0  0  0  0  0  0
  187.9340  171.6960  134.9800 C   0  0  1  0  0  3  0  0  0  0  0  0
  187.0600  172.5320  135.8060 N   0  0  0  0  0  0  0  0  0  0  0  0
  188.0540  174.5470  134.8460 C   0  0  1  0  0  3  0  0  0  0  0  0
  185.7660  175.9000  136.2580 N   0  0  0  0  0  0  0  0  0  0  0  0
  183.8240  178.3860  138.3280 C   0  0  0  0  0  0  0  0  0  0  0  0
  182.5390  177.8430  138.1900 C   0  0  0  0  0  3  0  0  0  0  0  0
  184.6980  176.5830  136.9230 C   0  0  0  0  0  0  0  0  0  0  0  0
  182.3310  176.6870  137.4370 C   0  0  0  0  0  3  0  0  0  0  0  0
  183.4070  176.0600  136.8100 C   0  0  0  0  0  3  0  0  0  0  0  0
  186.1680  178.2500  137.8270 F   0  0  0  0  0  0  0  0  0  0  0  0
  184.9120  177.7500  137.6880 C   0  0  0  0  0  0  0  0  0  0  0  0
  183.9940  179.6040  139.1500 C   0  0  0  0  0  0  0  0  0  0  0  0
  183.0620  180.6330  139.0680 O   0  0  0  0  0  0  0  0  0  0  0  0
  184.9660  179.7230  139.9430 O   0  0  0  0  0  1  0  0  0  0  0  0
  189.7860  177.6140  138.2240 C   0  0  0  0  0  2  0  0  0  0  0  0
  189.4450  177.0330  139.5930 C   0  0  0  0  0  2  0  0  0  0  0  0
  190.7220  176.7130  140.3350 C   0  0  0  0  0  2  0  0  0  0  0  0
  190.6730  177.3340  141.7160 C   0  0  0  0  0  2  0  0  0  0  0  0
  187.5770  176.5370  143.8680 C   0  0  1  0  0  3  0  0  0  0  0  0
  191.2720  176.3090  145.8920 C   0  0  0  0  0  0  0  0  0  0  0  0
  190.8140  175.6350  143.5610 C   0  0  0  0  0  2  0  0  0  0  0  0
  186.8420  177.1500  145.0690 C   0  0  0  0  0  2  0  0  0  0  0  0
  189.3460  178.2040  144.5690 C   0  0  0  0  0  0  0  0  0  0  0  0
  189.9030  179.3780  144.2750 C   0  0  0  0  0  2  0  0  0  0  0  0
  189.8760  176.4560  142.6760 C   0  0  1  0  0  3  0  0  0  0  0  0
  187.7270  177.4010  146.3010 C   0  0  1  0  0  3  0  0  0  0  0  0
  191.6750  176.5090  144.4700 C   0  0  0  0  0  2  0  0  0  0  0  0
  187.5740  177.6040  142.7790 C   0  0  0  0  0  2  0  0  0  0  0  0
  189.1890  177.7720  145.9990 C   0  0  1  0  0  3  0  0  0  0  0  0
  190.0040  176.6540  146.3770 O   0  0  0  0  0  0  0  0  0  0  0  0
  188.8650  177.2740  143.4940 C   0  0  1  0  0  0  0  0  0  0  0  0
  192.0700  175.7060  146.6590 O   0  0  0  0  0  0  0  0  0  0  0  0
  187.0960  178.4500  147.1560 C   0  0  0  0  0  3  0  0  0  0  0  0
  186.0320  179.1800  146.8050 C   0  0  0  0  0  3  0  0  0  0  0  0
  184.1800  178.4190  145.5090 N   0  0  0  0  0  0  0  0  0  0  0  0
  185.7980  179.6580  144.3590 O   0  0  0  0  0  0  0  0  0  0  0  0
  183.3570  178.2660  144.3060 C   0  0  2  0  0  3  0  0  0  0  0  0
  185.0370  179.6980  143.1540 C   0  0  0  0  0  2  0  0  0  0  0  0
  185.2960  179.0850  145.5330 C   0  0  0  0  0  0  0  0  0  0  0  0
  184.1900  178.4380  143.0330 C   0  0  0  0  0  2  0  0  0  0  0  0
  180.8910  178.4850  144.1890 C   0  0  0  0  0  2  0  0  0  0  0  0
  182.1940  179.2490  144.3360 C   0  0  0  0  0  3  0  0  0  0  0  0
  181.4760  179.2190  143.0000 C   0  0  0  0  0  2  0  0  0  0  0  0
  191.0430  175.6630  137.4510 C   0  0  0  0  0  2  0  0  0  0  0  0
  191.9650  175.4050  136.2830 C   0  0  0  0  0  0  0  0  0  0  0  0
  191.8930  176.0970  135.2820 O   0  0  0  0  0  0  0  0  0  0  0  0
  193.0680  174.3940  136.3860 C   0  0  1  0  0  3  0  0  0  0  0  0
  195.2800  174.6060  137.3950 C   0  0  0  0  0  2  0  0  0  0  0  0
  195.6980  172.9230  135.7720 O   0  0  0  0  0  1  0  0  0  0  0  0
  194.0990  174.6140  135.2960 C   0  0  0  0  0  2  0  0  0  0  0  0
  193.8010  174.4780  137.7140 C   0  0  0  0  0  2  0  0  0  0  0  0
  195.4370  174.2860  135.9220 C   0  0  1  0  0  3  0  0  0  0  0  0
  1 53  1  0  0  0  0
  1 24  1  0  0  0  0
  2  1  1  0  0  0  0
  3  4  1  1  0  0  0
  3  2  1  0  0  0  0
  6 10  1  0  0  0  0
  8  6  2  0  0  0  0
  8 12  1  0  0  0  0
  9 11  2  0  0  0  0
  9  5  1  0  0  0  0
 10  7  1  1  0  0  0
 10 11  1  0  0  0  0
 12  3  1  1  0  0  0
 12  9  1  0  0  0  0
 13  5  2  0  0  0  0
 13 16  1  0  0  0  0
 14 21  1  0  0  0  0
 15 14  1  0  0  0  0
 16 20  1  0  0  0  0
 17 15  2  0  0  0  0
 18 16  2  0  0  0  0
 18 17  1  0  0  0  0
 20 19  1  0  0  0  0
 20 14  2  0  0  0  0
 21 23  1  0  0  0  0
 22 21  2  0  0  0  0
 24 25  1  0  0  0  0
 25 26  1  0  0  0  0
 26 27  1  0  0  0  0
 28 37  1  6  0  0  0
 28 31  1  0  0  0  0
 29 39  1  0  0  0  0
 29 41  2  0  0  0  0
 30 36  1  0  0  0  0
 31 35  1  0  0  0  0
 33 32  2  0  0  0  0
 34 27  1  1  0  0  0
 34 40  1  0  0  0  0
 34 30  1  0  0  0  0
 35 42  1  6  0  0  0
 36 29  1  0  0  0  0
 38 32  1  6  0  0  0
 38 35  1  0  0  0  0
 38 39  1  0  0  0  0
 40 37  1  6  0  0  0
 40 28  1  0  0  0  0
 40 32  1  0  0  0  0
 43 42  2  0  0  0  0
 44 48  2  0  0  0  0
 45 48  1  0  0  0  0
 46 51  1  1  0  0  0
 46 44  1  0  0  0  0
 47 45  1  0  0  0  0
 48 43  1  0  0  0  0
 49 47  1  0  0  0  0
 49 46  1  0  0  0  0
 50 51  1  0  0  0  0
 52 50  1  0  0  0  0
 52 51  1  0  0  0  0
 54 53  1  0  0  0  0
 55 54  2  0  0  0  0
 56 54  1  1  0  0  0
 56 60  1  0  0  0  0
 57 60  1  0  0  0  0
 59 61  1  0  0  0  0
 59 56  1  0  0  0  0
 61 58  1  1  0  0  0
 61 57  1  0  0  0  0
M  END
>  <MODEL>
7

>  <REMARK>
 VINA RESULT:      -7.0      1.827      6.427
  Name = 
  17 active torsions:
  status: ('A' for Active; 'I' for Inactive)
    1  A    between atoms: C_1  and  C_43
    2  A    between atoms: C_1  and  N_49
    3  A    between atoms: C_2  and  C_19
    4  A    between atoms: C_5  and  C_9
    5  A    between atoms: C_5  and  C_44
    6  A    between atoms: N_8  and  N_35
    7  A    between atoms: C_12  and  C_45
    8  A    between atoms: C_16  and  C_30
    9  A    between atoms: C_16  and  N_49
   10  A    between atoms: C_23  and  C_52
   11  A    between atoms: C_24  and  N_35
   12  A    between atoms: C_25  and  C_29
   13  A    between atoms: C_30  and  C_40
   14  A    between atoms: C_33  and  C_43
   15  A    between atoms: C_33  and  C_52
   16  A    between atoms: C_44  and  N_49
   17  A    between atoms: C_48  and  C_51
                            x       y       z     vdW  Elec       q    Type
                         _______ _______ _______ _____ _____    ______ ____

>  <TORSDO>
F 17

$$$$
=
 OpenBabel11062416363D

 61 68  0  0  1  0  0  0  0  0999 V2000
  187.5510  178.0400  139.0440 N   0  0  0  0  0  0  0  0  0  0  0  0
  188.5230  178.1480  140.1350 C   0  0  0  0  0  2  0  0  0  0  0  0
  188.8220  176.7740  140.7180 C   0  0  2  0  0  3  0  0  0  0  0  0
  188.5520  176.7550  142.0880 O   0  0  0  0  0  1  0  0  0  0  0  0
  191.1170  178.1220  142.1240 N   0  0  0  0  0  2  0  0  0  0  0  0
  191.6400  176.2170  138.3570 C   0  0  0  0  0  3  0  0  0  0  0  0
  194.0290  177.4610  138.1560 Cl  0  0  0  0  0  0  0  0  0  0  0  0
  190.4500  176.0790  138.9480 C   0  0  0  0  0  3  0  0  0  0  0  0
  191.2970  177.3820  140.9120 C   0  0  0  0  0  0  0  0  0  0  0  0
  192.8280  176.6320  139.1740 C   0  0  1  0  0  3  0  0  0  0  0  0
  192.4370  177.4930  140.2930 N   0  0  0  0  0  0  0  0  0  0  0  0
  190.2720  176.3670  140.4220 C   0  0  1  0  0  3  0  0  0  0  0  0
  190.0410  177.9090  142.9960 N   0  0  0  0  0  2  0  0  0  0  0  0
  189.4370  177.2990  146.6700 C   0  0  0  0  0  0  0  0  0  0  0  0
  190.6790  176.7510  147.0180 C   0  0  0  0  0  3  0  0  0  0  0  0
  190.2220  177.5270  144.3640 C   0  0  0  0  0  0  0  0  0  0  0  0
  191.6820  176.5960  146.0610 C   0  0  0  0  0  3  0  0  0  0  0  0
  191.4540  176.9860  144.7420 C   0  0  0  0  0  3  0  0  0  0  0  0
  188.0160  178.2400  144.9790 F   0  0  0  0  0  0  0  0  0  0  0  0
  189.2070  177.6890  145.3320 C   0  0  0  0  0  0  0  0  0  0  0  0
  188.4120  177.4560  147.7250 C   0  0  0  0  0  0  0  0  0  0  0  0
  187.9970  176.3520  148.4610 O   0  0  0  0  0  1  0  0  0  0  0  0
  187.9130  178.5850  147.9840 O   0  0  0  0  0  0  0  0  0  0  0  0
  186.2590  178.6560  139.3760 C   0  0  0  0  0  2  0  0  0  0  0  0
  186.0610  178.9060  140.8680 C   0  0  0  0  0  2  0  0  0  0  0  0
  184.5870  179.0710  141.1560 C   0  0  0  0  0  2  0  0  0  0  0  0
  183.7940  178.8320  139.8880 C   0  0  0  0  0  2  0  0  0  0  0  0
  183.0640  175.5550  137.9950 C   0  0  1  0  0  3  0  0  0  0  0  0
  179.8580  177.0460  140.2970 C   0  0  0  0  0  0  0  0  0  0  0  0
  182.2570  177.1100  140.8790 C   0  0  0  0  0  2  0  0  0  0  0  0
  182.1560  175.0850  136.8500 C   0  0  0  0  0  2  0  0  0  0  0  0
  181.5530  177.5800  137.8700 C   0  0  0  0  0  0  0  0  0  0  0  0
  181.4700  178.8440  137.4550 C   0  0  0  0  0  2  0  0  0  0  0  0
  183.3170  177.3850  139.8120 C   0  0  1  0  0  3  0  0  0  0  0  0
  180.6620  175.3890  137.0510 C   0  0  1  0  0  3  0  0  0  0  0  0
  180.9910  177.9400  140.6740 C   0  0  0  0  0  2  0  0  0  0  0  0
  183.9340  176.6660  137.4180 C   0  0  0  0  0  2  0  0  0  0  0  0
  180.3500  176.6820  137.8240 C   0  0  1  0  0  3  0  0  0  0  0  0
  179.8400  176.3040  139.1090 O   0  0  0  0  0  0  0  0  0  0  0  0
  182.8380  177.0130  138.4010 C   0  0  1  0  0  0  0  0  0  0  0  0
  178.9320  176.8720  141.1340 O   0  0  0  0  0  0  0  0  0  0  0  0
  179.9790  175.4050  135.7240 C   0  0  0  0  0  3  0  0  0  0  0  0
  179.7410  174.3220  134.9770 C   0  0  0  0  0  3  0  0  0  0  0  0
  181.1820  172.4280  134.8140 N   0  0  0  0  0  0  0  0  0  0  0  0
  179.2720  172.1560  136.1400 O   0  0  0  0  0  0  0  0  0  0  0  0
  181.6420  171.0640  135.0930 C   0  0  2  0  0  3  0  0  0  0  0  0
  179.6670  170.8640  136.5960 C   0  0  0  0  0  2  0  0  0  0  0  0
  180.0980  172.9350  135.3200 C   0  0  0  0  0  0  0  0  0  0  0  0
  180.4830  170.1600  135.5210 C   0  0  0  0  0  2  0  0  0  0  0  0
  184.0920  171.0240  135.4660 C   0  0  0  0  0  2  0  0  0  0  0  0
  182.7390  171.0860  136.1500 C   0  0  0  0  0  3  0  0  0  0  0  0
  183.5080  169.7800  136.1030 C   0  0  0  0  0  2  0  0  0  0  0  0
  188.0800  178.5050  137.7490 C   0  0  0  0  0  2  0  0  0  0  0  0
  187.4620  177.8450  136.5400 C   0  0  0  0  0  0  0  0  0  0  0  0
  186.8290  178.5070  135.7370 O   0  0  0  0  0  0  0  0  0  0  0  0
  187.7320  176.4010  136.2330 C   0  0  1  0  0  3  0  0  0  0  0  0
  186.2300  174.6940  135.3490 C   0  0  0  0  0  2  0  0  0  0  0  0
  187.7660  173.3430  136.5550 O   0  0  0  0  0  1  0  0  0  0  0  0
  187.2540  175.5140  137.3670 C   0  0  0  0  0  2  0  0  0  0  0  0
  187.0160  175.9380  134.9760 C   0  0  0  0  0  2  0  0  0  0  0  0
  186.7240  174.2570  136.7120 C   0  0  1  0  0  3  0  0  0  0  0  0
  1 24  1  0  0  0  0
  1  2  1  0  0  0  0
  2  3  1  0  0  0  0
  3  4  1  1  0  0  0
  5 13  1  0  0  0  0
  6  8  2  0  0  0  0
  6 10  1  0  0  0  0
  8 12  1  0  0  0  0
  9  5  1  0  0  0  0
 10  7  1  6  0  0  0
 10 11  1  0  0  0  0
 11  9  2  0  0  0  0
 12  3  1  6  0  0  0
 12  9  1  0  0  0  0
 13 16  1  0  0  0  0
 14 15  1  0  0  0  0
 14 21  1  0  0  0  0
 16 18  2  0  0  0  0
 16 20  1  0  0  0  0
 17 15  2  0  0  0  0
 18 17  1  0  0  0  0
 19 20  1  0  0  0  0
 20 14  2  0  0  0  0
 21 23  2  0  0  0  0
 21 22  1  0  0  0  0
 24 25  1  0  0  0  0
 25 26  1  0  0  0  0
 27 26  1  0  0  0  0
 28 31  1  6  0  0  0
 28 40  1  0  0  0  0
 29 36  1  0  0  0  0
 29 41  2  0  0  0  0
 31 35  1  0  0  0  0
 32 40  1  0  0  0  0
 33 32  2  0  0  0  0
 34 27  1  6  0  0  0
 34 30  1  0  0  0  0
 35 42  1  6  0  0  0
 35 38  1  0  0  0  0
 36 30  1  0  0  0  0
 37 28  1  0  0  0  0
 38 32  1  1  0  0  0
 38 39  1  0  0  0  0
 39 29  1  0  0  0  0
 40 37  1  6  0  0  0
 40 34  1  0  0  0  0
 43 48  1  0  0  0  0
 43 42  2  0  0  0  0
 44 46  1  0  0  0  0
 44 48  2  0  0  0  0
 45 47  1  0  0  0  0
 46 49  1  0  0  0  0
 46 51  1  1  0  0  0
 48 45  1  0  0  0  0
 49 47  1  0  0  0  0
 50 52  1  0  0  0  0
 50 51  1  0  0  0  0
 52 51  1  0  0  0  0
 53  1  1  0  0  0  0
 54 53  1  0  0  0  0
 55 54  2  0  0  0  0
 56 54  1  1  0  0  0
 56 59  1  0  0  0  0
 57 61  1  0  0  0  0
 60 57  1  0  0  0  0
 60 56  1  0  0  0  0
 61 58  1  6  0  0  0
 61 59  1  0  0  0  0
M  END
>  <MODEL>
8

>  <REMARK>
 VINA RESULT:      -6.3      3.778      9.386
  Name = 
  17 active torsions:
  status: ('A' for Active; 'I' for Inactive)
    1  A    between atoms: C_1  and  C_43
    2  A    between atoms: C_1  and  N_49
    3  A    between atoms: C_2  and  C_19
    4  A    between atoms: C_5  and  C_9
    5  A    between atoms: C_5  and  C_44
    6  A    between atoms: N_8  and  N_35
    7  A    between atoms: C_12  and  C_45
    8  A    between atoms: C_16  and  C_30
    9  A    between atoms: C_16  and  N_49
   10  A    between atoms: C_23  and  C_52
   11  A    between atoms: C_24  and  N_35
   12  A    between atoms: C_25  and  C_29
   13  A    between atoms: C_30  and  C_40
   14  A    between atoms: C_33  and  C_43
   15  A    between atoms: C_33  and  C_52
   16  A    between atoms: C_44  and  N_49
   17  A    between atoms: C_48  and  C_51
                            x       y       z     vdW  Elec       q    Type
                         _______ _______ _______ _____ _____    ______ ____

>  <TORSDO>
F 17

$$$$
=
 OpenBabel11062416363D

 61 68  0  0  1  0  0  0  0  0999 V2000
  187.2760  178.8500  142.1890 N   0  0  0  0  0  0  0  0  0  0  0  0
  188.2060  178.9040  143.3190 C   0  0  0  0  0  2  0  0  0  0  0  0
  189.0970  177.6700  143.3330 C   0  0  2  0  0  3  0  0  0  0  0  0
  188.3230  176.5090  143.4020 O   0  0  0  0  0  1  0  0  0  0  0  0
  191.9640  176.8420  142.9330 N   0  0  0  0  0  2  0  0  0  0  0  0
  190.1720  176.8240  146.7910 C   0  0  0  0  0  3  0  0  0  0  0  0
  192.2730  175.3710  147.6660 Cl  0  0  0  0  0  0  0  0  0  0  0  0
  189.4510  177.3350  145.7880 C   0  0  0  0  0  3  0  0  0  0  0  0
  191.3780  176.9490  144.2350 C   0  0  0  0  0  0  0  0  0  0  0  0
  191.6580  176.6870  146.6380 C   0  0  1  0  0  3  0  0  0  0  0  0
  192.0360  176.4550  145.2430 N   0  0  0  0  0  0  0  0  0  0  0  0
  190.1050  177.7460  144.4880 C   0  0  1  0  0  3  0  0  0  0  0  0
  191.4730  177.5310  141.8160 N   0  0  0  0  0  2  0  0  0  0  0  0
  191.1300  176.0310  138.3710 C   0  0  0  0  0  0  0  0  0  0  0  0
  192.3930  176.3540  137.8550 C   0  0  0  0  0  3  0  0  0  0  0  0
  191.7500  177.1190  140.4730 C   0  0  0  0  0  0  0  0  0  0  0  0
  193.3250  177.0430  138.6310 C   0  0  0  0  0  3  0  0  0  0  0  0
  193.0050  177.4200  139.9350 C   0  0  0  0  0  3  0  0  0  0  0  0
  189.5950  176.0980  140.2150 F   0  0  0  0  0  0  0  0  0  0  0  0
  190.8060  176.4190  139.6910 C   0  0  0  0  0  0  0  0  0  0  0  0
  190.1830  175.2870  137.5120 C   0  0  0  0  0  0  0  0  0  0  0  0
  189.6840  175.8750  136.3550 O   0  0  0  0  0  0  0  0  0  0  0  0
  189.8290  174.1130  137.8010 O   0  0  0  0  0  1  0  0  0  0  0  0
  187.9320  178.4550  140.9360 C   0  0  0  0  0  2  0  0  0  0  0  0
  187.0300  178.5600  139.7090 C   0  0  0  0  0  2  0  0  0  0  0  0
  187.4310  177.5080  138.7010 C   0  0  0  0  0  2  0  0  0  0  0  0
  186.2110  176.7080  138.2940 C   0  0  0  0  0  2  0  0  0  0  0  0
  183.5290  179.2890  137.2950 C   0  0  1  0  0  3  0  0  0  0  0  0
  183.0390  175.4530  135.6080 C   0  0  0  0  0  0  0  0  0  0  0  0
  185.1700  176.6350  136.0090 C   0  0  0  0  0  2  0  0  0  0  0  0
  182.0230  179.5000  137.5060 C   0  0  0  0  0  2  0  0  0  0  0  0
  182.9600  176.9930  138.1910 C   0  0  0  0  0  0  0  0  0  0  0  0
  183.0280  176.2020  139.2610 C   0  0  0  0  0  2  0  0  0  0  0  0
  185.3770  177.4730  137.2710 C   0  0  1  0  0  3  0  0  0  0  0  0
  181.1450  178.3110  137.0810 C   0  0  1  0  0  3  0  0  0  0  0  0
  184.3690  175.3630  136.2770 C   0  0  0  0  0  2  0  0  0  0  0  0
  184.1500  179.2390  138.6860 C   0  0  0  0  0  2  0  0  0  0  0  0
  181.7790  176.9220  137.2650 C   0  0  1  0  0  3  0  0  0  0  0  0
  182.0760  176.4080  135.9600 O   0  0  0  0  0  0  0  0  0  0  0  0
  184.0520  177.9710  137.8690 C   0  0  1  0  0  0  0  0  0  0  0  0
  182.8200  174.7100  134.6150 O   0  0  0  0  0  0  0  0  0  0  0  0
  179.8390  178.3810  137.8010 C   0  0  0  0  0  3  0  0  0  0  0  0
  178.9780  179.4000  137.7200 C   0  0  0  0  0  3  0  0  0  0  0  0
  179.3940  181.7400  137.5260 N   0  0  0  0  0  0  0  0  0  0  0  0
  179.0150  180.5950  135.5210 O   0  0  0  0  0  0  0  0  0  0  0  0
  179.5950  183.0140  136.8290 C   0  0  2  0  0  3  0  0  0  0  0  0
  179.3150  181.7310  134.7130 C   0  0  0  0  0  2  0  0  0  0  0  0
  179.1500  180.6200  136.9140 C   0  0  0  0  0  0  0  0  0  0  0  0
  178.9300  183.0070  135.4490 C   0  0  0  0  0  2  0  0  0  0  0  0
  181.5160  184.1210  137.9350 C   0  0  0  0  0  2  0  0  0  0  0  0
  181.0820  183.3250  136.7190 C   0  0  0  0  0  3  0  0  0  0  0  0
  181.2750  184.8260  136.6160 C   0  0  0  0  0  2  0  0  0  0  0  0
  186.0700  178.0490  142.4690 C   0  0  0  0  0  2  0  0  0  0  0  0
  184.8920  178.8400  142.9880 C   0  0  0  0  0  0  0  0  0  0  0  0
  185.0530  179.9710  143.4110 O   0  0  0  0  0  0  0  0  0  0  0  0
  183.4960  178.3050  142.8650 C   0  0  1  0  0  3  0  0  0  0  0  0
  181.5500  179.2830  141.7650 C   0  0  0  0  0  2  0  0  0  0  0  0
  180.4920  177.9330  143.4080 O   0  0  0  0  0  1  0  0  0  0  0  0
  182.5890  178.9290  143.9080 C   0  0  0  0  0  2  0  0  0  0  0  0
  182.8840  178.6060  141.5070 C   0  0  0  0  0  2  0  0  0  0  0  0
  181.2430  179.0970  143.2370 C   0  0  1  0  0  3  0  0  0  0  0  0
  1 53  1  0  0  0  0
  1  2  1  0  0  0  0
  2  3  1  0  0  0  0
  3  4  1  1  0  0  0
  5  9  1  0  0  0  0
  8  6  2  0  0  0  0
  9 12  1  0  0  0  0
  9 11  2  0  0  0  0
 10  6  1  0  0  0  0
 10  7  1  1  0  0  0
 11 10  1  0  0  0  0
 12  3  1  6  0  0  0
 12  8  1  0  0  0  0
 13  5  1  0  0  0  0
 14 20  1  0  0  0  0
 15 14  2  0  0  0  0
 15 17  1  0  0  0  0
 16 13  1  0  0  0  0
 17 18  2  0  0  0  0
 18 16  1  0  0  0  0
 20 19  1  0  0  0  0
 20 16  2  0  0  0  0
 21 23  1  0  0  0  0
 21 14  1  0  0  0  0
 22 21  2  0  0  0  0
 24  1  1  0  0  0  0
 25 24  1  0  0  0  0
 26 25  1  0  0  0  0
 27 26  1  0  0  0  0
 28 31  1  1  0  0  0
 28 40  1  0  0  0  0
 28 37  1  0  0  0  0
 29 39  1  0  0  0  0
 29 36  1  0  0  0  0
 30 36  1  0  0  0  0
 30 34  1  0  0  0  0
 32 33  2  0  0  0  0
 34 40  1  0  0  0  0
 34 27  1  1  0  0  0
 35 38  1  0  0  0  0
 35 31  1  0  0  0  0
 35 42  1  1  0  0  0
 38 39  1  6  0  0  0
 38 32  1  0  0  0  0
 40 32  1  0  0  0  0
 40 37  1  1  0  0  0
 41 29  2  0  0  0  0
 43 42  2  0  0  0  0
 45 48  1  0  0  0  0
 46 51  1  6  0  0  0
 46 44  1  0  0  0  0
 47 49  1  0  0  0  0
 47 45  1  0  0  0  0
 48 44  2  0  0  0  0
 48 43  1  0  0  0  0
 49 46  1  0  0  0  0
 51 50  1  0  0  0  0
 52 51  1  0  0  0  0
 52 50  1  0  0  0  0
 53 54  1  0  0  0  0
 54 55  2  0  0  0  0
 56 54  1  6  0  0  0
 56 59  1  0  0  0  0
 57 61  1  0  0  0  0
 60 57  1  0  0  0  0
 60 56  1  0  0  0  0
 61 58  1  6  0  0  0
 61 59  1  0  0  0  0
M  END
>  <MODEL>
9

>  <REMARK>
 VINA RESULT:      -6.3      4.051      8.450
  Name = 
  17 active torsions:
  status: ('A' for Active; 'I' for Inactive)
    1  A    between atoms: C_1  and  C_43
    2  A    between atoms: C_1  and  N_49
    3  A    between atoms: C_2  and  C_19
    4  A    between atoms: C_5  and  C_9
    5  A    between atoms: C_5  and  C_44
    6  A    between atoms: N_8  and  N_35
    7  A    between atoms: C_12  and  C_45
    8  A    between atoms: C_16  and  C_30
    9  A    between atoms: C_16  and  N_49
   10  A    between atoms: C_23  and  C_52
   11  A    between atoms: C_24  and  N_35
   12  A    between atoms: C_25  and  C_29
   13  A    between atoms: C_30  and  C_40
   14  A    between atoms: C_33  and  C_43
   15  A    between atoms: C_33  and  C_52
   16  A    between atoms: C_44  and  N_49
   17  A    between atoms: C_48  and  C_51
                            x       y       z     vdW  Elec       q    Type
                         _______ _______ _______ _____ _____    ______ ____

>  <TORSDO>
F 17

$$$$
