=
 OpenBabel11062416483D

 28 31  0  0  1  0  0  0  0  0999 V2000
  181.3060  178.9830  141.7880 N   0  0  0  0  0  0  0  0  0  0  0  0
  183.6770  178.9280  144.6780 C   0  0  0  0  0  0  0  0  0  0  0  0
  182.5710  178.6270  141.2760 N   0  0  0  0  0  2  0  0  0  0  0  0
  182.9470  178.8970  143.4900 C   0  0  0  0  0  0  0  0  0  0  0  0
  185.0640  178.6280  144.6190 C   0  0  0  0  0  0  0  0  0  0  0  0
  183.0530  179.2390  145.8420 F   0  0  0  0  0  0  0  0  0  0  0  0
  185.6490  178.3140  143.3730 C   0  0  0  0  0  3  0  0  0  0  0  0
  181.5030  179.1530  143.2470 C   0  0  0  0  0  2  0  0  0  0  0  0
  184.8800  178.2920  142.1980 C   0  0  0  0  0  3  0  0  0  0  0  0
  183.5260  178.5920  142.3080 C   0  0  0  0  0  0  0  0  0  0  0  0
  188.2490  177.3980  145.9030 C   0  0  0  0  0  3  0  0  0  0  0  0
  185.9480  178.6250  145.7990 C   0  0  0  0  0  3  0  0  0  0  0  0
  187.0990  178.0090  145.8490 C   0  0  0  0  0  0  0  0  0  0  0  0
  191.7990  177.6270  143.2450 O   0  0  0  0  0  1  0  0  0  0  0  0
  190.5770  176.8680  145.1530 C   0  0  0  0  0  2  0  0  0  0  0  0
  190.1960  175.8460  142.8900 C   0  0  2  0  0  3  0  0  0  0  0  0
  188.7850  176.3990  143.1240 C   0  0  0  0  0  2  0  0  0  0  0  0
  191.2320  176.4890  143.8270 C   0  0  1  0  0  3  0  0  0  0  0  0
  189.3240  177.7380  144.9260 C   0  0  1  0  0  3  0  0  0  0  0  0
  190.5620  176.0030  141.5520 O   0  0  0  0  0  1  0  0  0  0  0  0
  188.8380  177.7280  143.5920 O   0  0  0  0  0  0  0  0  0  0  0  0
  180.4330  177.8330  141.5980 C   0  0  0  0  0  2  0  0  0  0  0  0
  180.8760  176.1180  139.8320 C   0  0  0  0  0  3  0  0  0  0  0  0
  180.9110  175.7430  138.4870 C   0  0  0  0  0  3  0  0  0  0  0  0
  180.4530  177.4080  140.1700 C   0  0  0  0  0  0  0  0  0  0  0  0
  180.0950  178.2850  139.1930 N   0  0  0  0  0  0  0  0  0  0  0  0
  180.1240  177.9370  137.8780 C   0  0  0  0  0  3  0  0  0  0  0  0
  180.5330  176.6560  137.5010 C   0  0  0  0  0  3  0  0  0  0  0  0
  1  8  1  0  0  0  0
  2  6  1  0  0  0  0
  3  1  1  0  0  0  0
  3 10  1  0  0  0  0
  4  2  2  0  0  0  0
  5  2  1  0  0  0  0
  5 12  1  0  0  0  0
  7  5  2  0  0  0  0
  8  4  1  0  0  0  0
  9 10  2  0  0  0  0
  9  7  1  0  0  0  0
 10  4  1  0  0  0  0
 12 13  2  0  0  0  0
 13 11  2  0  0  0  0
 16 20  1  6  0  0  0
 16 17  1  0  0  0  0
 16 18  1  0  0  0  0
 17 21  1  0  0  0  0
 18 14  1  6  0  0  0
 18 15  1  0  0  0  0
 19 15  1  0  0  0  0
 19 11  1  1  0  0  0
 21 19  1  0  0  0  0
 22  1  1  0  0  0  0
 23 25  1  0  0  0  0
 24 23  2  0  0  0  0
 25 22  1  0  0  0  0
 26 25  2  0  0  0  0
 27 26  1  0  0  0  0
 28 27  2  0  0  0  0
 28 24  1  0  0  0  0
M  END
>  <MODEL>
1

>  <REMARK>
 VINA RESULT:      -9.0      0.000      0.000
  Name = 
  4 active torsions:
  status: ('A' for Active; 'I' for Inactive)
    1  A    between atoms: N_1  and  C_11
    2  A    between atoms: C_9  and  C_20
    3  A    between atoms: C_10  and  C_19
    4  A    between atoms: C_11  and  C_14
                            x       y       z     vdW  Elec       q    Type
                         _______ _______ _______ _____ _____    ______ ____

>  <TORSDO>
F 4

$$$$
=
 OpenBabel11062416483D

 28 31  0  0  1  0  0  0  0  0999 V2000
  186.3050  177.7800  146.2380 N   0  0  0  0  0  0  0  0  0  0  0  0
  188.7700  176.8670  143.5790 C   0  0  0  0  0  0  0  0  0  0  0  0
  187.5890  178.0460  146.7570 N   0  0  0  0  0  2  0  0  0  0  0  0
  188.0060  177.2570  144.6790 C   0  0  0  0  0  0  0  0  0  0  0  0
  190.1830  176.9640  143.6770 C   0  0  0  0  0  0  0  0  0  0  0  0
  188.1510  176.4100  142.4610 F   0  0  0  0  0  0  0  0  0  0  0  0
  190.7600  177.4470  144.8720 C   0  0  0  0  0  3  0  0  0  0  0  0
  186.5320  177.2760  144.8630 C   0  0  0  0  0  2  0  0  0  0  0  0
  189.9580  177.8330  145.9580 C   0  0  0  0  0  3  0  0  0  0  0  0
  188.5780  177.7190  145.8130 C   0  0  0  0  0  0  0  0  0  0  0  0
  190.4650  176.5920  140.0590 C   0  0  0  0  0  3  0  0  0  0  0  0
  191.1040  176.5850  142.5890 C   0  0  0  0  0  3  0  0  0  0  0  0
  190.7820  176.5890  141.3230 C   0  0  0  0  0  0  0  0  0  0  0  0
  188.9590  179.8200  137.4050 O   0  0  0  0  0  1  0  0  0  0  0  0
  189.9870  177.7130  137.8730 C   0  0  0  0  0  2  0  0  0  0  0  0
  187.4880  177.9690  137.9330 C   0  0  2  0  0  3  0  0  0  0  0  0
  187.7050  177.5690  139.3970 C   0  0  0  0  0  2  0  0  0  0  0  0
  188.7900  178.4390  137.2620 C   0  0  1  0  0  3  0  0  0  0  0  0
  189.9970  177.8510  139.4090 C   0  0  1  0  0  3  0  0  0  0  0  0
  186.4930  178.9440  137.8400 O   0  0  0  0  0  1  0  0  0  0  0  0
  188.7690  178.2990  139.9650 O   0  0  0  0  0  0  0  0  0  0  0  0
  185.6200  179.0600  146.1250 C   0  0  0  0  0  2  0  0  0  0  0  0
  183.3150  178.7790  145.1970 C   0  0  0  0  0  3  0  0  0  0  0  0
  182.4440  178.7330  144.1070 C   0  0  0  0  0  3  0  0  0  0  0  0
  184.6720  179.0320  144.9760 C   0  0  0  0  0  0  0  0  0  0  0  0
  185.1320  179.2180  143.7080 N   0  0  0  0  0  0  0  0  0  0  0  0
  184.2980  179.1760  142.6350 C   0  0  0  0  0  3  0  0  0  0  0  0
  182.9340  178.9330  142.8160 C   0  0  0  0  0  3  0  0  0  0  0  0
  1  3  1  0  0  0  0
  2  5  2  0  0  0  0
  2  4  1  0  0  0  0
  4  8  1  0  0  0  0
  4 10  2  0  0  0  0
  5  7  1  0  0  0  0
  6  2  1  0  0  0  0
  7  9  2  0  0  0  0
  8  1  1  0  0  0  0
 10  9  1  0  0  0  0
 10  3  1  0  0  0  0
 11 13  2  0  0  0  0
 12  5  1  0  0  0  0
 13 12  2  0  0  0  0
 15 19  1  0  0  0  0
 16 20  1  1  0  0  0
 16 17  1  0  0  0  0
 17 21  1  0  0  0  0
 18 14  1  1  0  0  0
 18 15  1  0  0  0  0
 18 16  1  0  0  0  0
 19 21  1  0  0  0  0
 19 11  1  1  0  0  0
 22  1  1  0  0  0  0
 24 23  2  0  0  0  0
 25 23  1  0  0  0  0
 25 22  1  0  0  0  0
 26 25  2  0  0  0  0
 27 28  2  0  0  0  0
 27 26  1  0  0  0  0
 28 24  1  0  0  0  0
M  END
>  <MODEL>
2

>  <REMARK>
 VINA RESULT:      -9.0      3.715      6.236
  Name = 
  4 active torsions:
  status: ('A' for Active; 'I' for Inactive)
    1  A    between atoms: N_1  and  C_11
    2  A    between atoms: C_9  and  C_20
    3  A    between atoms: C_10  and  C_19
    4  A    between atoms: C_11  and  C_14
                            x       y       z     vdW  Elec       q    Type
                         _______ _______ _______ _____ _____    ______ ____

>  <TORSDO>
F 4

$$$$
=
 OpenBabel11062416483D

 28 31  0  0  1  0  0  0  0  0999 V2000
  182.9480  178.6420  140.1960 N   0  0  0  0  0  0  0  0  0  0  0  0
  185.1260  178.6650  143.2350 C   0  0  0  0  0  0  0  0  0  0  0  0
  182.0950  178.7570  141.3140 N   0  0  0  0  0  2  0  0  0  0  0  0
  184.1630  178.6730  142.2260 C   0  0  0  0  0  0  0  0  0  0  0  0
  184.6850  178.7550  144.5810 C   0  0  0  0  0  0  0  0  0  0  0  0
  186.4400  178.5710  142.9080 F   0  0  0  0  0  0  0  0  0  0  0  0
  183.3020  178.8480  144.8500 C   0  0  0  0  0  3  0  0  0  0  0  0
  184.3220  178.6020  140.7500 C   0  0  0  0  0  2  0  0  0  0  0  0
  182.3620  178.8550  143.8070 C   0  0  0  0  0  3  0  0  0  0  0  0
  182.8440  178.7650  142.5040 C   0  0  0  0  0  0  0  0  0  0  0  0
  187.9120  177.5520  145.7850 C   0  0  0  0  0  3  0  0  0  0  0  0
  185.5980  178.7570  145.7400 C   0  0  0  0  0  3  0  0  0  0  0  0
  186.7560  178.1530  145.7600 C   0  0  0  0  0  0  0  0  0  0  0  0
  191.4920  177.9410  143.1840 O   0  0  0  0  0  1  0  0  0  0  0  0
  190.3250  177.3020  145.1700 C   0  0  0  0  0  2  0  0  0  0  0  0
  190.2100  175.8870  143.0960 C   0  0  2  0  0  3  0  0  0  0  0  0
  188.7200  176.2310  143.2130 C   0  0  0  0  0  2  0  0  0  0  0  0
  191.0890  176.8310  143.9340 C   0  0  1  0  0  3  0  0  0  0  0  0
  188.9600  177.9070  144.7830 C   0  0  1  0  0  3  0  0  0  0  0  0
  190.6030  175.8900  141.7560 O   0  0  0  0  0  1  0  0  0  0  0  0
  188.5400  177.6070  143.4600 O   0  0  0  0  0  0  0  0  0  0  0  0
  182.8210  179.8780  139.4370 C   0  0  0  0  0  2  0  0  0  0  0  0
  181.2810  180.5630  137.5890 C   0  0  0  0  0  3  0  0  0  0  0  0
  180.6390  180.2870  136.3810 C   0  0  0  0  0  3  0  0  0  0  0  0
  182.1460  179.6100  138.1350 C   0  0  0  0  0  0  0  0  0  0  0  0
  182.3450  178.4250  137.4970 N   0  0  0  0  0  0  0  0  0  0  0  0
  181.7270  178.1390  136.3190 C   0  0  0  0  0  3  0  0  0  0  0  0
  180.8610  179.0680  135.7380 C   0  0  0  0  0  3  0  0  0  0  0  0
  1  8  1  0  0  0  0
  1  3  1  0  0  0  0
  2  5  1  0  0  0  0
  3 10  1  0  0  0  0
  4 10  1  0  0  0  0
  4  2  2  0  0  0  0
  5  7  2  0  0  0  0
  5 12  1  0  0  0  0
  6  2  1  0  0  0  0
  8  4  1  0  0  0  0
  9  7  1  0  0  0  0
 10  9  2  0  0  0  0
 12 13  2  0  0  0  0
 13 11  2  0  0  0  0
 16 20  1  6  0  0  0
 16 17  1  0  0  0  0
 16 18  1  0  0  0  0
 17 21  1  0  0  0  0
 18 14  1  6  0  0  0
 18 15  1  0  0  0  0
 19 15  1  0  0  0  0
 19 11  1  1  0  0  0
 21 19  1  0  0  0  0
 22  1  1  0  0  0  0
 23 25  1  0  0  0  0
 24 23  2  0  0  0  0
 25 22  1  0  0  0  0
 26 25  2  0  0  0  0
 27 26  1  0  0  0  0
 28 27  2  0  0  0  0
 28 24  1  0  0  0  0
M  END
>  <MODEL>
3

>  <REMARK>
 VINA RESULT:      -8.6      1.810      2.434
  Name = 
  4 active torsions:
  status: ('A' for Active; 'I' for Inactive)
    1  A    between atoms: N_1  and  C_11
    2  A    between atoms: C_9  and  C_20
    3  A    between atoms: C_10  and  C_19
    4  A    between atoms: C_11  and  C_14
                            x       y       z     vdW  Elec       q    Type
                         _______ _______ _______ _____ _____    ______ ____

>  <TORSDO>
F 4

$$$$
=
 OpenBabel11062416483D

 28 31  0  0  1  0  0  0  0  0999 V2000
  185.5870  178.9080  145.7920 N   0  0  0  0  0  0  0  0  0  0  0  0
  184.7050  178.5650  142.1750 C   0  0  0  0  0  0  0  0  0  0  0  0
  184.1830  179.0060  145.6990 N   0  0  0  0  0  2  0  0  0  0  0  0
  184.8410  178.7110  143.5550 C   0  0  0  0  0  0  0  0  0  0  0  0
  183.3980  178.6130  141.6220 C   0  0  0  0  0  0  0  0  0  0  0  0
  185.8090  178.3830  141.4070 F   0  0  0  0  0  0  0  0  0  0  0  0
  182.2930  178.8070  142.4800 C   0  0  0  0  0  3  0  0  0  0  0  0
  186.0610  178.6950  144.4040 C   0  0  0  0  0  2  0  0  0  0  0  0
  182.4700  178.9480  143.8660 C   0  0  0  0  0  3  0  0  0  0  0  0
  183.7710  178.8930  144.3590 C   0  0  0  0  0  0  0  0  0  0  0  0
  184.9090  178.7410  138.3040 C   0  0  0  0  0  3  0  0  0  0  0  0
  183.1160  178.4720  140.1820 C   0  0  0  0  0  3  0  0  0  0  0  0
  184.0150  178.6080  139.2440 C   0  0  0  0  0  0  0  0  0  0  0  0
  188.1950  175.8700  137.4780 O   0  0  0  0  0  1  0  0  0  0  0  0
  185.9850  176.7480  137.2400 C   0  0  0  0  0  2  0  0  0  0  0  0
  187.9180  177.7730  136.0050 C   0  0  2  0  0  3  0  0  0  0  0  0
  187.5200  178.9920  136.8450 C   0  0  0  0  0  2  0  0  0  0  0  0
  187.3250  176.4680  136.5620 C   0  0  1  0  0  3  0  0  0  0  0  0
  186.1180  177.8670  138.2940 C   0  0  1  0  0  3  0  0  0  0  0  0
  189.3080  177.6900  135.9010 O   0  0  0  0  0  1  0  0  0  0  0  0
  187.3120  178.6290  138.1910 O   0  0  0  0  0  0  0  0  0  0  0  0
  185.8780  177.6950  146.5430 C   0  0  0  0  0  2  0  0  0  0  0  0
  187.7040  178.2550  148.1580 C   0  0  0  0  0  3  0  0  0  0  0  0
  189.0550  178.2490  148.5090 C   0  0  0  0  0  3  0  0  0  0  0  0
  187.3120  177.6760  146.9460 C   0  0  0  0  0  0  0  0  0  0  0  0
  188.2450  177.1280  146.1200 N   0  0  0  0  0  0  0  0  0  0  0  0
  189.5650  177.1140  146.4470 C   0  0  0  0  0  3  0  0  0  0  0  0
  189.9950  177.6760  147.6510 C   0  0  0  0  0  3  0  0  0  0  0  0
  1 22  1  0  0  0  0
  2  4  1  0  0  0  0
  3  1  1  0  0  0  0
  4 10  2  0  0  0  0
  4  8  1  0  0  0  0
  5  2  2  0  0  0  0
  5  7  1  0  0  0  0
  6  2  1  0  0  0  0
  7  9  2  0  0  0  0
  8  1  1  0  0  0  0
  9 10  1  0  0  0  0
 10  3  1  0  0  0  0
 11 13  2  0  0  0  0
 12  5  1  0  0  0  0
 13 12  2  0  0  0  0
 15 19  1  0  0  0  0
 16 20  1  1  0  0  0
 16 18  1  0  0  0  0
 16 17  1  0  0  0  0
 17 21  1  0  0  0  0
 18 15  1  0  0  0  0
 18 14  1  1  0  0  0
 19 11  1  6  0  0  0
 21 19  1  0  0  0  0
 22 25  1  0  0  0  0
 23 24  1  0  0  0  0
 25 23  2  0  0  0  0
 26 27  2  0  0  0  0
 26 25  1  0  0  0  0
 27 28  1  0  0  0  0
 28 24  2  0  0  0  0
M  END
>  <MODEL>
4

>  <REMARK>
 VINA RESULT:      -8.3      4.027      7.701
  Name = 
  4 active torsions:
  status: ('A' for Active; 'I' for Inactive)
    1  A    between atoms: N_1  and  C_11
    2  A    between atoms: C_9  and  C_20
    3  A    between atoms: C_10  and  C_19
    4  A    between atoms: C_11  and  C_14
                            x       y       z     vdW  Elec       q    Type
                         _______ _______ _______ _____ _____    ______ ____

>  <TORSDO>
F 4

$$$$
=
 OpenBabel11062416483D

 28 31  0  0  1  0  0  0  0  0999 V2000
  193.1170  176.7530  138.2290 N   0  0  0  0  0  0  0  0  0  0  0  0
  189.7970  177.1550  139.8990 C   0  0  0  0  0  0  0  0  0  0  0  0
  193.3710  177.0340  139.5870 N   0  0  0  0  0  2  0  0  0  0  0  0
  191.1130  177.0410  139.4530 C   0  0  0  0  0  0  0  0  0  0  0  0
  189.5800  177.4560  141.2700 C   0  0  0  0  0  0  0  0  0  0  0  0
  188.7740  176.9790  139.0260 F   0  0  0  0  0  0  0  0  0  0  0  0
  190.6910  177.6280  142.1240 C   0  0  0  0  0  3  0  0  0  0  0  0
  191.6410  176.7300  138.0990 C   0  0  0  0  0  2  0  0  0  0  0  0
  192.0020  177.5030  141.6370 C   0  0  0  0  0  3  0  0  0  0  0  0
  192.1640  177.2070  140.2860 C   0  0  0  0  0  0  0  0  0  0  0  0
  187.6960  177.1310  144.3780 C   0  0  0  0  0  3  0  0  0  0  0  0
  188.2400  177.6040  141.8690 C   0  0  0  0  0  3  0  0  0  0  0  0
  187.9710  177.3660  143.1250 C   0  0  0  0  0  0  0  0  0  0  0  0
  189.6080  178.6540  148.0860 O   0  0  0  0  0  1  0  0  0  0  0  0
  188.0590  177.3210  146.8470 C   0  0  0  0  0  2  0  0  0  0  0  0
  190.4570  176.6120  147.0970 C   0  0  2  0  0  3  0  0  0  0  0  0
  190.4250  176.7550  145.5700 C   0  0  0  0  0  2  0  0  0  0  0  0
  189.2760  177.3330  147.7690 C   0  0  1  0  0  3  0  0  0  0  0  0
  188.4120  177.8790  145.4520 C   0  0  1  0  0  3  0  0  0  0  0  0
  191.6770  177.0670  147.6000 O   0  0  0  0  0  1  0  0  0  0  0  0
  189.8050  177.9630  145.1910 O   0  0  0  0  0  0  0  0  0  0  0  0
  193.5980  175.4010  137.9780 C   0  0  0  0  0  2  0  0  0  0  0  0
  195.8040  174.5230  137.1930 C   0  0  0  0  0  3  0  0  0  0  0  0
  196.8920  174.5850  136.3210 C   0  0  0  0  0  3  0  0  0  0  0  0
  194.7560  175.4370  137.0410 C   0  0  0  0  0  0  0  0  0  0  0  0
  194.8110  176.3790  136.0620 N   0  0  0  0  0  0  0  0  0  0  0  0
  195.8640  176.4550  135.2040 C   0  0  0  0  0  3  0  0  0  0  0  0
  196.9260  175.5550  135.3180 C   0  0  0  0  0  3  0  0  0  0  0  0
  1  3  1  0  0  0  0
  2  5  1  0  0  0  0
  3 10  1  0  0  0  0
  4  2  2  0  0  0  0
  4 10  1  0  0  0  0
  5 12  1  0  0  0  0
  5  7  2  0  0  0  0
  6  2  1  0  0  0  0
  8  1  1  0  0  0  0
  8  4  1  0  0  0  0
  9  7  1  0  0  0  0
 10  9  2  0  0  0  0
 12 13  2  0  0  0  0
 13 11  2  0  0  0  0
 15 18  1  0  0  0  0
 16 20  1  1  0  0  0
 16 18  1  0  0  0  0
 17 16  1  0  0  0  0
 18 14  1  6  0  0  0
 19 11  1  6  0  0  0
 19 15  1  0  0  0  0
 21 19  1  0  0  0  0
 21 17  1  0  0  0  0
 22  1  1  0  0  0  0
 24 23  2  0  0  0  0
 25 23  1  0  0  0  0
 25 22  1  0  0  0  0
 26 25  2  0  0  0  0
 27 28  2  0  0  0  0
 27 26  1  0  0  0  0
 28 24  1  0  0  0  0
M  END
>  <MODEL>
5

>  <REMARK>
 VINA RESULT:      -8.2      6.365      9.765
  Name = 
  4 active torsions:
  status: ('A' for Active; 'I' for Inactive)
    1  A    between atoms: N_1  and  C_11
    2  A    between atoms: C_9  and  C_20
    3  A    between atoms: C_10  and  C_19
    4  A    between atoms: C_11  and  C_14
                            x       y       z     vdW  Elec       q    Type
                         _______ _______ _______ _____ _____    ______ ____

>  <TORSDO>
F 4

$$$$
=
 OpenBabel11062416483D

 28 31  0  0  1  0  0  0  0  0999 V2000
  188.9350  177.8560  142.2010 N   0  0  0  0  0  0  0  0  0  0  0  0
  190.5820  176.5590  139.1060 C   0  0  0  0  0  0  0  0  0  0  0  0
  188.3000  178.4760  141.1060 N   0  0  0  0  0  2  0  0  0  0  0  0
  189.8550  177.1480  140.1400 C   0  0  0  0  0  0  0  0  0  0  0  0
  190.2630  176.9240  137.7710 C   0  0  0  0  0  0  0  0  0  0  0  0
  191.5600  175.6650  139.3980 F   0  0  0  0  0  0  0  0  0  0  0  0
  189.2340  177.8620  137.5390 C   0  0  0  0  0  3  0  0  0  0  0  0
  189.9560  176.9590  141.6100 C   0  0  0  0  0  2  0  0  0  0  0  0
  188.5230  178.4330  138.6070 C   0  0  0  0  0  3  0  0  0  0  0  0
  188.8720  178.0430  139.8970 C   0  0  0  0  0  0  0  0  0  0  0  0
  193.5440  176.1310  136.3870 C   0  0  0  0  0  3  0  0  0  0  0  0
  190.9540  176.3750  136.5890 C   0  0  0  0  0  3  0  0  0  0  0  0
  192.2510  176.2550  136.4900 C   0  0  0  0  0  0  0  0  0  0  0  0
  195.3770  172.9990  138.9470 O   0  0  0  0  0  1  0  0  0  0  0  0
  193.7030  173.8920  137.4940 C   0  0  0  0  0  2  0  0  0  0  0  0
  195.8580  172.9860  136.5730 C   0  0  2  0  0  3  0  0  0  0  0  0
  196.0030  174.4350  136.0920 C   0  0  0  0  0  2  0  0  0  0  0  0
  194.8010  172.8480  137.6820 C   0  0  1  0  0  3  0  0  0  0  0  0
  194.2980  175.3110  137.3790 C   0  0  1  0  0  3  0  0  0  0  0  0
  197.0940  172.4890  136.9910 O   0  0  0  0  0  1  0  0  0  0  0  0
  195.6950  175.3410  137.1270 O   0  0  0  0  0  0  0  0  0  0  0  0
  187.9390  177.0160  142.8490 C   0  0  0  0  0  2  0  0  0  0  0  0
  186.7690  177.5690  144.9900 C   0  0  0  0  0  3  0  0  0  0  0  0
  186.8060  177.8060  146.3650 C   0  0  0  0  0  3  0  0  0  0  0  0
  187.9550  177.2470  144.3210 C   0  0  0  0  0  0  0  0  0  0  0  0
  189.1270  177.1800  145.0080 N   0  0  0  0  0  0  0  0  0  0  0  0
  189.1820  177.4080  146.3480 C   0  0  0  0  0  3  0  0  0  0  0  0
  188.0180  177.7250  147.0530 C   0  0  0  0  0  3  0  0  0  0  0  0
  1 22  1  0  0  0  0
  2  6  1  0  0  0  0
  2  4  1  0  0  0  0
  3  1  1  0  0  0  0
  4  8  1  0  0  0  0
  5  2  2  0  0  0  0
  7  5  1  0  0  0  0
  7  9  2  0  0  0  0
  8  1  1  0  0  0  0
  9 10  1  0  0  0  0
 10  4  2  0  0  0  0
 10  3  1  0  0  0  0
 11 13  2  0  0  0  0
 12  5  1  0  0  0  0
 13 12  2  0  0  0  0
 15 18  1  0  0  0  0
 16 20  1  1  0  0  0
 16 18  1  0  0  0  0
 17 16  1  0  0  0  0
 17 21  1  0  0  0  0
 18 14  1  1  0  0  0
 19 11  1  6  0  0  0
 19 15  1  0  0  0  0
 21 19  1  0  0  0  0
 22 25  1  0  0  0  0
 23 24  1  0  0  0  0
 24 28  2  0  0  0  0
 25 23  2  0  0  0  0
 25 26  1  0  0  0  0
 26 27  2  0  0  0  0
 27 28  1  0  0  0  0
M  END
>  <MODEL>
6

>  <REMARK>
 VINA RESULT:      -8.1      5.997      9.131
  Name = 
  4 active torsions:
  status: ('A' for Active; 'I' for Inactive)
    1  A    between atoms: N_1  and  C_11
    2  A    between atoms: C_9  and  C_20
    3  A    between atoms: C_10  and  C_19
    4  A    between atoms: C_11  and  C_14
                            x       y       z     vdW  Elec       q    Type
                         _______ _______ _______ _____ _____    ______ ____

>  <TORSDO>
F 4

$$$$
=
 OpenBabel11062416483D

 28 31  0  0  1  0  0  0  0  0999 V2000
  187.1200  178.1100  143.8070 N   0  0  0  0  0  0  0  0  0  0  0  0
  183.7640  178.6280  142.2440 C   0  0  0  0  0  0  0  0  0  0  0  0
  186.2090  178.3460  144.8570 N   0  0  0  0  0  2  0  0  0  0  0  0
  184.9250  178.4620  142.9980 C   0  0  0  0  0  0  0  0  0  0  0  0
  182.5530  178.9050  142.9310 C   0  0  0  0  0  0  0  0  0  0  0  0
  183.8210  178.5210  140.8920 F   0  0  0  0  0  0  0  0  0  0  0  0
  182.5660  179.0040  144.3400 C   0  0  0  0  0  3  0  0  0  0  0  0
  186.3140  178.1600  142.5640 C   0  0  0  0  0  2  0  0  0  0  0  0
  183.7550  178.8290  145.0660 C   0  0  0  0  0  3  0  0  0  0  0  0
  184.9160  178.5590  144.3460 C   0  0  0  0  0  0  0  0  0  0  0  0
  180.6300  178.0410  139.9540 C   0  0  0  0  0  3  0  0  0  0  0  0
  181.2570  179.1020  142.2540 C   0  0  0  0  0  3  0  0  0  0  0  0
  180.9460  178.5700  141.1020 C   0  0  0  0  0  0  0  0  0  0  0  0
  180.4290  173.8130  138.6090 O   0  0  0  0  0  1  0  0  0  0  0  0
  179.8630  176.1330  138.5270 C   0  0  0  0  0  2  0  0  0  0  0  0
  182.0170  175.2970  137.5400 C   0  0  2  0  0  3  0  0  0  0  0  0
  182.6080  176.2330  138.6020 C   0  0  0  0  0  2  0  0  0  0  0  0
  180.5430  174.9620  137.8210 C   0  0  1  0  0  3  0  0  0  0  0  0
  180.6510  176.5590  139.7830 C   0  0  1  0  0  3  0  0  0  0  0  0
  182.7870  174.1360  137.4370 O   0  0  0  0  0  1  0  0  0  0  0  0
  181.9730  176.0450  139.8470 O   0  0  0  0  0  0  0  0  0  0  0  0
  187.6000  176.7440  143.9600 C   0  0  0  0  0  2  0  0  0  0  0  0
  189.3110  177.1270  145.7430 C   0  0  0  0  0  3  0  0  0  0  0  0
  190.6430  177.1480  146.1600 C   0  0  0  0  0  3  0  0  0  0  0  0
  189.0140  176.7490  144.4300 C   0  0  0  0  0  0  0  0  0  0  0  0
  190.0180  176.4200  143.5720 N   0  0  0  0  0  0  0  0  0  0  0  0
  191.3210  176.4360  143.9610 C   0  0  0  0  0  3  0  0  0  0  0  0
  191.6580  176.8010  145.2670 C   0  0  0  0  0  3  0  0  0  0  0  0
  1 22  1  0  0  0  0
  1  3  1  0  0  0  0
  2  5  2  0  0  0  0
  2  4  1  0  0  0  0
  4 10  2  0  0  0  0
  5  7  1  0  0  0  0
  6  2  1  0  0  0  0
  7  9  2  0  0  0  0
  8  4  1  0  0  0  0
  8  1  1  0  0  0  0
 10  3  1  0  0  0  0
 10  9  1  0  0  0  0
 11 13  2  0  0  0  0
 12  5  1  0  0  0  0
 13 12  2  0  0  0  0
 15 19  1  0  0  0  0
 16 20  1  1  0  0  0
 16 18  1  0  0  0  0
 16 17  1  0  0  0  0
 17 21  1  0  0  0  0
 18 15  1  0  0  0  0
 18 14  1  1  0  0  0
 19 21  1  0  0  0  0
 19 11  1  6  0  0  0
 22 25  1  0  0  0  0
 23 24  1  0  0  0  0
 25 23  2  0  0  0  0
 26 27  2  0  0  0  0
 26 25  1  0  0  0  0
 27 28  1  0  0  0  0
 28 24  2  0  0  0  0
M  END
>  <MODEL>
7

>  <REMARK>
 VINA RESULT:      -8.0      3.940      8.687
  Name = 
  4 active torsions:
  status: ('A' for Active; 'I' for Inactive)
    1  A    between atoms: N_1  and  C_11
    2  A    between atoms: C_9  and  C_20
    3  A    between atoms: C_10  and  C_19
    4  A    between atoms: C_11  and  C_14
                            x       y       z     vdW  Elec       q    Type
                         _______ _______ _______ _____ _____    ______ ____

>  <TORSDO>
F 4

$$$$
=
 OpenBabel11062416483D

 28 31  0  0  1  0  0  0  0  0999 V2000
  190.7120  177.2620  139.8480 N   0  0  0  0  0  0  0  0  0  0  0  0
  189.2610  176.7370  143.2520 C   0  0  0  0  0  0  0  0  0  0  0  0
  191.5870  177.8770  140.7680 N   0  0  0  0  0  2  0  0  0  0  0  0
  189.9470  177.0280  142.0740 C   0  0  0  0  0  0  0  0  0  0  0  0
  189.8100  177.1990  144.4780 C   0  0  0  0  0  0  0  0  0  0  0  0
  188.1040  176.0300  143.1980 F   0  0  0  0  0  0  0  0  0  0  0  0
  191.0170  177.9310  144.4610 C   0  0  0  0  0  3  0  0  0  0  0  0
  189.6260  176.6750  140.6670 C   0  0  0  0  0  2  0  0  0  0  0  0
  191.6800  178.2030  143.2540 C   0  0  0  0  0  3  0  0  0  0  0  0
  191.1030  177.7290  142.0790 C   0  0  0  0  0  0  0  0  0  0  0  0
  186.9410  178.0420  146.5690 C   0  0  0  0  0  3  0  0  0  0  0  0
  189.1850  176.9590  145.7930 C   0  0  0  0  0  3  0  0  0  0  0  0
  188.0620  177.5030  146.1790 C   0  0  0  0  0  0  0  0  0  0  0  0
  183.0960  178.2650  144.3570 O   0  0  0  0  0  1  0  0  0  0  0  0
  184.7080  178.9960  145.9630 C   0  0  0  0  0  2  0  0  0  0  0  0
  184.9910  179.5230  143.5220 C   0  0  2  0  0  3  0  0  0  0  0  0
  186.2610  178.6870  143.7170 C   0  0  0  0  0  2  0  0  0  0  0  0
  183.9770  179.3080  144.6590 C   0  0  1  0  0  3  0  0  0  0  0  0
  185.6930  177.8220  145.7810 C   0  0  1  0  0  3  0  0  0  0  0  0
  184.4180  179.2490  142.2780 O   0  0  0  0  0  1  0  0  0  0  0  0
  185.9790  177.5020  144.4280 O   0  0  0  0  0  0  0  0  0  0  0  0
  191.4430  176.1610  139.2380 C   0  0  0  0  0  2  0  0  0  0  0  0
  190.3890  176.7450  137.0470 C   0  0  0  0  0  3  0  0  0  0  0  0
  189.7610  176.3560  135.8620 C   0  0  0  0  0  3  0  0  0  0  0  0
  190.7940  175.7630  137.9570 C   0  0  0  0  0  0  0  0  0  0  0  0
  190.5640  174.4490  137.6890 N   0  0  0  0  0  0  0  0  0  0  0  0
  189.9530  174.0530  136.5400 C   0  0  0  0  0  3  0  0  0  0  0  0
  189.5400  175.0030  135.6030 C   0  0  0  0  0  3  0  0  0  0  0  0
  1  8  1  0  0  0  0
  1  3  1  0  0  0  0
  2  5  1  0  0  0  0
  3 10  1  0  0  0  0
  4 10  1  0  0  0  0
  4  2  2  0  0  0  0
  5 12  1  0  0  0  0
  6  2  1  0  0  0  0
  7  5  2  0  0  0  0
  8  4  1  0  0  0  0
  9  7  1  0  0  0  0
 10  9  2  0  0  0  0
 12 13  2  0  0  0  0
 13 11  2  0  0  0  0
 16 20  1  6  0  0  0
 16 17  1  0  0  0  0
 16 18  1  0  0  0  0
 17 21  1  0  0  0  0
 18 14  1  6  0  0  0
 18 15  1  0  0  0  0
 19 15  1  0  0  0  0
 19 11  1  1  0  0  0
 21 19  1  0  0  0  0
 22  1  1  0  0  0  0
 23 25  1  0  0  0  0
 24 23  2  0  0  0  0
 25 22  1  0  0  0  0
 26 25  2  0  0  0  0
 27 26  1  0  0  0  0
 28 24  1  0  0  0  0
 28 27  2  0  0  0  0
M  END
>  <MODEL>
8

>  <REMARK>
 VINA RESULT:      -8.0      5.029      7.624
  Name = 
  4 active torsions:
  status: ('A' for Active; 'I' for Inactive)
    1  A    between atoms: N_1  and  C_11
    2  A    between atoms: C_9  and  C_20
    3  A    between atoms: C_10  and  C_19
    4  A    between atoms: C_11  and  C_14
                            x       y       z     vdW  Elec       q    Type
                         _______ _______ _______ _____ _____    ______ ____

>  <TORSDO>
F 4

$$$$
=
 OpenBabel11062416483D

 28 31  0  0  1  0  0  0  0  0999 V2000
  189.4510  176.9600  142.8160 N   0  0  0  0  0  0  0  0  0  0  0  0
  188.4000  177.9970  139.3820 C   0  0  0  0  0  0  0  0  0  0  0  0
  190.5370  176.6990  141.9560 N   0  0  0  0  0  2  0  0  0  0  0  0
  188.9620  177.5600  140.5810 C   0  0  0  0  0  0  0  0  0  0  0  0
  189.1820  177.9020  138.2010 C   0  0  0  0  0  0  0  0  0  0  0  0
  187.1370  178.4950  139.3750 F   0  0  0  0  0  0  0  0  0  0  0  0
  190.4890  177.3720  138.2800 C   0  0  0  0  0  3  0  0  0  0  0  0
  188.3960  177.5450  141.9550 C   0  0  0  0  0  2  0  0  0  0  0  0
  191.0220  176.9430  139.5060 C   0  0  0  0  0  3  0  0  0  0  0  0
  190.2160  177.0580  140.6360 C   0  0  0  0  0  0  0  0  0  0  0  0
  187.2830  176.8340  135.2750 C   0  0  0  0  0  3  0  0  0  0  0  0
  188.7080  178.3280  136.8710 C   0  0  0  0  0  3  0  0  0  0  0  0
  187.9950  177.5780  136.0740 C   0  0  0  0  0  0  0  0  0  0  0  0
  183.5460  174.5680  136.0680 O   0  0  0  0  0  1  0  0  0  0  0  0
  185.4560  175.1980  134.7770 C   0  0  0  0  0  2  0  0  0  0  0  0
  185.6650  173.5610  136.6710 C   0  0  2  0  0  3  0  0  0  0  0  0
  186.5920  174.6530  137.2180 C   0  0  0  0  0  2  0  0  0  0  0  0
  184.7520  174.0850  135.5500 C   0  0  1  0  0  3  0  0  0  0  0  0
  185.9650  176.3010  135.7280 C   0  0  1  0  0  3  0  0  0  0  0  0
  184.9180  172.9970  137.7070 O   0  0  0  0  0  1  0  0  0  0  0  0
  185.9960  175.9250  137.0960 O   0  0  0  0  0  0  0  0  0  0  0  0
  189.8820  177.9980  143.7420 C   0  0  0  0  0  2  0  0  0  0  0  0
  188.1210  177.8760  145.5140 C   0  0  0  0  0  3  0  0  0  0  0  0
  187.7360  177.5750  146.8220 C   0  0  0  0  0  3  0  0  0  0  0  0
  189.4480  177.6590  145.1270 C   0  0  0  0  0  0  0  0  0  0  0  0
  190.3480  177.1730  146.0230 N   0  0  0  0  0  0  0  0  0  0  0  0
  189.9910  176.8750  147.3020 C   0  0  0  0  0  3  0  0  0  0  0  0
  188.6740  177.0710  147.7240 C   0  0  0  0  0  3  0  0  0  0  0  0
  1 22  1  0  0  0  0
  2  4  1  0  0  0  0
  3  1  1  0  0  0  0
  4 10  2  0  0  0  0
  4  8  1  0  0  0  0
  5  7  1  0  0  0  0
  5  2  2  0  0  0  0
  6  2  1  0  0  0  0
  7  9  2  0  0  0  0
  8  1  1  0  0  0  0
  9 10  1  0  0  0  0
 10  3  1  0  0  0  0
 11 13  2  0  0  0  0
 12  5  1  0  0  0  0
 13 12  2  0  0  0  0
 15 18  1  0  0  0  0
 15 19  1  0  0  0  0
 16 17  1  0  0  0  0
 16 20  1  1  0  0  0
 18 14  1  1  0  0  0
 18 16  1  0  0  0  0
 19 11  1  6  0  0  0
 19 21  1  0  0  0  0
 21 17  1  0  0  0  0
 22 25  1  0  0  0  0
 23 24  1  0  0  0  0
 24 28  2  0  0  0  0
 25 23  2  0  0  0  0
 25 26  1  0  0  0  0
 26 27  2  0  0  0  0
 27 28  1  0  0  0  0
M  END
>  <MODEL>
9

>  <REMARK>
 VINA RESULT:      -7.8      5.625      9.384
  Name = 
  4 active torsions:
  status: ('A' for Active; 'I' for Inactive)
    1  A    between atoms: N_1  and  C_11
    2  A    between atoms: C_9  and  C_20
    3  A    between atoms: C_10  and  C_19
    4  A    between atoms: C_11  and  C_14
                            x       y       z     vdW  Elec       q    Type
                         _______ _______ _______ _____ _____    ______ ____

>  <TORSDO>
F 4

$$$$
