=
 OpenBabel11062414473D

 33 36  0  0  1  0  0  0  0  0999 V2000
  188.6730  176.4230  142.5760 C   0  0  0  0  0  2  0  0  0  0  0  0
  189.7620  177.2520  137.3210 C   0  0  0  0  0  3  0  0  0  0  0  0
  190.6710  177.4040  140.2630 C   0  0  0  0  0  0  0  0  0  0  0  0
  191.8450  176.3530  138.3120 C   0  0  0  0  0  0  0  0  0  0  0  0
  191.8540  176.9160  139.5260 C   0  0  0  0  0  3  0  0  0  0  0  0
  188.4110  178.5950  140.8940 S   0  0  0  0  0  0  0  0  0  0  0  0
  189.5630  177.9100  139.7190 C   0  0  0  0  0  0  0  0  0  0  0  0
  189.3200  177.7580  142.2390 C   0  0  2  0  0  3  0  0  0  0  0  0
  189.2950  178.0590  138.2750 C   0  0  0  0  0  3  0  0  0  0  0  0
  190.7370  177.5120  141.7430 C   0  0  0  0  0  2  0  0  0  0  0  0
  190.5600  176.0270  137.6140 C   0  0  0  0  0  2  0  0  0  0  0  0
  193.6090  174.6810  137.7610 N   0  0  0  0  0  0  0  0  0  0  0  0
  194.9150  176.0380  136.6160 O   0  0  0  0  0  0  0  0  0  0  0  0
  193.9160  176.7740  136.9990 N   0  0  0  0  0  0  0  0  0  0  0  0
  193.1160  175.9390  137.6970 C   0  0  0  0  0  0  0  0  0  0  0  0
  195.6510  173.7490  136.8030 N   0  0  0  0  0  1  0  0  0  0  0  0
  194.7440  174.8180  137.0540 C   0  0  0  0  0  0  0  0  0  0  0  0
  189.0210  177.1650  144.8780 C   0  0  0  0  0  3  0  0  0  0  0  0
  188.4370  176.3050  144.0440 C   0  0  0  0  0  3  0  0  0  0  0  0
  188.8410  177.0920  146.3690 C   0  0  1  0  0  3  0  0  0  0  0  0
  190.1660  177.2230  147.1200 C   0  0  0  0  0  2  0  0  0  0  0  0
  191.2640  176.6250  146.3710 N   0  0  0  0  0  2  0  0  0  0  0  0
  192.0600  175.8620  147.3180 C   0  0  0  0  0  2  0  0  0  0  0  0
  192.5370  176.7060  148.3230 O   0  0  0  0  0  1  0  0  0  0  0  0
  187.7920  178.0770  146.8800 C   0  0  0  0  0  2  0  0  0  0  0  0
  186.4640  177.6400  146.4830 N   0  0  0  0  0  2  0  0  0  0  0  0
  185.6680  178.8410  146.2930 C   0  0  0  0  0  2  0  0  0  0  0  0
  185.5700  178.3850  143.8300 C   0  0  0  0  0  3  0  0  0  0  0  0
  184.9170  178.7500  145.0090 C   0  0  0  0  0  0  0  0  0  0  0  0
  183.5500  178.6030  142.6000 C   0  0  0  0  0  3  0  0  0  0  0  0
  182.8630  178.9810  143.7560 C   0  0  0  0  0  3  0  0  0  0  0  0
  183.5560  179.0550  144.9650 C   0  0  0  0  0  3  0  0  0  0  0  0
  184.8790  178.3180  142.6600 N   0  0  0  0  0  0  0  0  0  0  0  0
  1 19  1  0  0  0  0
  2 11  1  0  0  0  0
  2  9  2  0  0  0  0
  3 10  1  0  0  0  0
  4  5  2  0  0  0  0
  5  3  1  0  0  0  0
  6  8  1  0  0  0  0
  7  3  2  0  0  0  0
  7  6  1  0  0  0  0
  8  1  1  6  0  0  0
  9  7  1  0  0  0  0
 10  8  1  0  0  0  0
 11  4  1  0  0  0  0
 13 14  1  0  0  0  0
 13 17  1  0  0  0  0
 14 15  2  0  0  0  0
 15 12  1  0  0  0  0
 15  4  1  0  0  0  0
 16 17  1  0  0  0  0
 17 12  2  0  0  0  0
 19 18  2  0  0  0  0
 20 18  1  6  0  0  0
 20 25  1  0  0  0  0
 20 21  1  0  0  0  0
 22 21  1  0  0  0  0
 22 23  1  0  0  0  0
 23 24  1  0  0  0  0
 26 25  1  0  0  0  0
 27 26  1  0  0  0  0
 28 29  1  0  0  0  0
 29 27  1  0  0  0  0
 30 33  1  0  0  0  0
 30 31  2  0  0  0  0
 31 32  1  0  0  0  0
 32 29  2  0  0  0  0
 33 28  2  0  0  0  0
M  END
>  <MODEL>
1

>  <REMARK>
 VINA RESULT:      -8.4      0.000      0.000
  Name = 
  11 active torsions:
  status: ('A' for Active; 'I' for Inactive)
    1  A    between atoms: C_2  and  N_29
    2  A    between atoms: C_4  and  C_22
    3  A    between atoms: C_5  and  N_29
    4  A    between atoms: C_5  and  C_31
    5  A    between atoms: C_8  and  C_31
    6  A    between atoms: C_9  and  C_17
    7  A    between atoms: C_9  and  C_18
    8  A    between atoms: C_11  and  C_31
    9  A    between atoms: C_11  and  N_33
   10  A    between atoms: C_14  and  C_26
   11  A    between atoms: C_26  and  N_33
                            x       y       z     vdW  Elec       q    Type
                         _______ _______ _______ _____ _____    ______ ____

>  <TORSDO>
F 11

$$$$
=
 OpenBabel11062414473D

 33 36  0  0  1  0  0  0  0  0999 V2000
  188.2500  176.4810  142.9090 C   0  0  0  0  0  2  0  0  0  0  0  0
  189.1140  177.3070  137.6120 C   0  0  0  0  0  3  0  0  0  0  0  0
  190.1390  177.4800  140.5140 C   0  0  0  0  0  0  0  0  0  0  0  0
  191.2470  176.4390  138.5200 C   0  0  0  0  0  0  0  0  0  0  0  0
  191.2980  177.0060  139.7310 C   0  0  0  0  0  3  0  0  0  0  0  0
  187.8910  178.6440  141.2330 S   0  0  0  0  0  0  0  0  0  0  0  0
  189.0030  177.9710  140.0140 C   0  0  0  0  0  0  0  0  0  0  0  0
  188.8660  177.8240  142.5420 C   0  0  2  0  0  3  0  0  0  0  0  0
  188.6750  178.1110  138.5820 C   0  0  0  0  0  3  0  0  0  0  0  0
  190.2640  177.5940  141.9910 C   0  0  0  0  0  2  0  0  0  0  0  0
  189.9390  176.0940  137.8760 C   0  0  0  0  0  2  0  0  0  0  0  0
  192.6470  174.8880  137.1610 N   0  0  0  0  0  0  0  0  0  0  0  0
  194.4830  176.1090  137.1710 O   0  0  0  0  0  0  0  0  0  0  0  0
  193.6210  176.7880  137.8660 N   0  0  0  0  0  0  0  0  0  0  0  0
  192.4970  176.0390  137.8550 C   0  0  0  0  0  0  0  0  0  0  0  0
  194.5850  174.0300  135.9520 N   0  0  0  0  0  1  0  0  0  0  0  0
  193.9230  175.0020  136.7550 C   0  0  0  0  0  0  0  0  0  0  0  0
  187.7540  177.6140  145.0170 C   0  0  0  0  0  3  0  0  0  0  0  0
  187.8180  176.4700  144.3370 C   0  0  0  0  0  3  0  0  0  0  0  0
  187.3440  177.6720  146.4630 C   0  0  1  0  0  3  0  0  0  0  0  0
  188.5370  177.8900  147.3940 C   0  0  0  0  0  2  0  0  0  0  0  0
  189.4420  176.7480  147.3780 N   0  0  0  0  0  2  0  0  0  0  0  0
  190.7280  177.2310  146.9040 C   0  0  0  0  0  2  0  0  0  0  0  0
  191.7530  176.6950  147.6870 O   0  0  0  0  0  1  0  0  0  0  0  0
  186.2270  178.6820  146.7130 C   0  0  0  0  0  2  0  0  0  0  0  0
  185.6800  179.1430  145.4490 N   0  0  0  0  0  2  0  0  0  0  0  0
  184.2580  178.8470  145.4750 C   0  0  0  0  0  2  0  0  0  0  0  0
  182.4000  179.0320  143.8020 C   0  0  0  0  0  3  0  0  0  0  0  0
  183.7380  178.7460  144.0820 C   0  0  0  0  0  0  0  0  0  0  0  0
  182.7380  178.5360  141.5030 C   0  0  0  0  0  3  0  0  0  0  0  0
  184.0800  178.2330  141.7440 C   0  0  0  0  0  3  0  0  0  0  0  0
  184.5770  178.3380  143.0450 C   0  0  0  0  0  3  0  0  0  0  0  0
  181.9320  178.9240  142.5290 N   0  0  0  0  0  0  0  0  0  0  0  0
  1 19  1  0  0  0  0
  2 11  1  0  0  0  0
  2  9  2  0  0  0  0
  3 10  1  0  0  0  0
  4  5  2  0  0  0  0
  5  3  1  0  0  0  0
  6  8  1  0  0  0  0
  7  3  2  0  0  0  0
  7  6  1  0  0  0  0
  8  1  1  6  0  0  0
  9  7  1  0  0  0  0
 10  8  1  0  0  0  0
 11  4  1  0  0  0  0
 12 15  1  0  0  0  0
 13 14  1  0  0  0  0
 15 14  2  0  0  0  0
 15  4  1  0  0  0  0
 16 17  1  0  0  0  0
 17 12  2  0  0  0  0
 17 13  1  0  0  0  0
 19 18  2  0  0  0  0
 20 18  1  6  0  0  0
 20 25  1  0  0  0  0
 20 21  1  0  0  0  0
 22 21  1  0  0  0  0
 23 22  1  0  0  0  0
 23 24  1  0  0  0  0
 26 27  1  0  0  0  0
 26 25  1  0  0  0  0
 28 29  1  0  0  0  0
 29 27  1  0  0  0  0
 30 31  2  0  0  0  0
 30 33  1  0  0  0  0
 31 32  1  0  0  0  0
 32 29  2  0  0  0  0
 33 28  2  0  0  0  0
M  END
>  <MODEL>
2

>  <REMARK>
 VINA RESULT:      -8.3      1.131      1.475
  Name = 
  11 active torsions:
  status: ('A' for Active; 'I' for Inactive)
    1  A    between atoms: C_2  and  N_29
    2  A    between atoms: C_4  and  C_22
    3  A    between atoms: C_5  and  N_29
    4  A    between atoms: C_5  and  C_31
    5  A    between atoms: C_8  and  C_31
    6  A    between atoms: C_9  and  C_17
    7  A    between atoms: C_9  and  C_18
    8  A    between atoms: C_11  and  C_31
    9  A    between atoms: C_11  and  N_33
   10  A    between atoms: C_14  and  C_26
   11  A    between atoms: C_26  and  N_33
                            x       y       z     vdW  Elec       q    Type
                         _______ _______ _______ _____ _____    ______ ____

>  <TORSDO>
F 11

$$$$
=
 OpenBabel11062414473D

 33 36  0  0  1  0  0  0  0  0999 V2000
  186.0440  178.9870  146.3350 C   0  0  0  0  0  2  0  0  0  0  0  0
  191.1920  177.9820  144.9310 C   0  0  0  0  0  3  0  0  0  0  0  0
  188.2040  177.2570  144.7090 C   0  0  0  0  0  0  0  0  0  0  0  0
  189.8550  177.6790  142.8700 C   0  0  0  0  0  0  0  0  0  0  0  0
  188.7280  177.1280  143.3350 C   0  0  0  0  0  3  0  0  0  0  0  0
  188.0010  177.3160  147.3320 S   0  0  0  0  0  0  0  0  0  0  0  0
  188.9350  177.3950  145.8160 C   0  0  0  0  0  0  0  0  0  0  0  0
  186.4630  177.5250  146.3680 C   0  0  2  0  0  3  0  0  0  0  0  0
  190.4080  177.4690  145.8800 C   0  0  0  0  0  3  0  0  0  0  0  0
  186.7510  177.0590  144.9500 C   0  0  0  0  0  2  0  0  0  0  0  0
  190.6560  178.6340  143.7010 C   0  0  0  0  0  2  0  0  0  0  0  0
  189.3850  177.1870  140.4720 N   0  0  0  0  0  0  0  0  0  0  0  0
  191.4780  177.2100  139.7790 O   0  0  0  0  0  0  0  0  0  0  0  0
  191.5410  177.4490  141.0540 N   0  0  0  0  0  0  0  0  0  0  0  0
  190.2570  177.4370  141.4750 C   0  0  0  0  0  0  0  0  0  0  0  0
  189.7980  176.7950  138.0990 N   0  0  0  0  0  1  0  0  0  0  0  0
  190.2260  177.0570  139.4320 C   0  0  0  0  0  0  0  0  0  0  0  0
  184.1090  178.8970  144.8450 C   0  0  0  0  0  3  0  0  0  0  0  0
  185.3580  179.3120  145.0510 C   0  0  0  0  0  3  0  0  0  0  0  0
  183.3660  179.1740  143.5670 C   0  0  1  0  0  3  0  0  0  0  0  0
  183.9860  178.4530  142.3700 C   0  0  0  0  0  2  0  0  0  0  0  0
  184.7940  179.3590  141.5620 N   0  0  0  0  0  2  0  0  0  0  0  0
  184.7020  178.8990  140.1860 C   0  0  0  0  0  2  0  0  0  0  0  0
  184.6650  179.9960  139.3220 O   0  0  0  0  0  1  0  0  0  0  0  0
  181.8700  178.9010  143.6900 C   0  0  0  0  0  2  0  0  0  0  0  0
  181.1340  179.7110  142.7350 N   0  0  0  0  0  2  0  0  0  0  0  0
  180.3360  178.7960  141.9360 C   0  0  0  0  0  2  0  0  0  0  0  0
  181.0850  177.6780  139.8220 C   0  0  0  0  0  3  0  0  0  0  0  0
  180.7780  178.8500  140.5150 C   0  0  0  0  0  0  0  0  0  0  0  0
  181.6310  178.9270  137.8760 C   0  0  0  0  0  3  0  0  0  0  0  0
  181.3420  180.1220  138.5370 C   0  0  0  0  0  3  0  0  0  0  0  0
  180.9150  180.0790  139.8650 C   0  0  0  0  0  3  0  0  0  0  0  0
  181.5010  177.7390  138.5280 N   0  0  0  0  0  0  0  0  0  0  0  0
  2  9  2  0  0  0  0
  3 10  1  0  0  0  0
  3  7  2  0  0  0  0
  4  5  2  0  0  0  0
  4 11  1  0  0  0  0
  5  3  1  0  0  0  0
  7  9  1  0  0  0  0
  7  6  1  0  0  0  0
  8  1  1  6  0  0  0
  8  6  1  0  0  0  0
 10  8  1  0  0  0  0
 11  2  1  0  0  0  0
 12 15  1  0  0  0  0
 13 14  1  0  0  0  0
 14 15  2  0  0  0  0
 15  4  1  0  0  0  0
 16 17  1  0  0  0  0
 17 13  1  0  0  0  0
 17 12  2  0  0  0  0
 18 19  2  0  0  0  0
 19  1  1  0  0  0  0
 20 21  1  6  0  0  0
 20 25  1  0  0  0  0
 20 18  1  0  0  0  0
 22 21  1  0  0  0  0
 23 22  1  0  0  0  0
 24 23  1  0  0  0  0
 26 25  1  0  0  0  0
 27 26  1  0  0  0  0
 28 29  1  0  0  0  0
 29 27  1  0  0  0  0
 30 33  1  0  0  0  0
 30 31  2  0  0  0  0
 31 32  1  0  0  0  0
 32 29  2  0  0  0  0
 33 28  2  0  0  0  0
M  END
>  <MODEL>
3

>  <REMARK>
 VINA RESULT:      -8.2      3.668      6.524
  Name = 
  11 active torsions:
  status: ('A' for Active; 'I' for Inactive)
    1  A    between atoms: C_2  and  N_29
    2  A    between atoms: C_4  and  C_22
    3  A    between atoms: C_5  and  N_29
    4  A    between atoms: C_5  and  C_31
    5  A    between atoms: C_8  and  C_31
    6  A    between atoms: C_9  and  C_17
    7  A    between atoms: C_9  and  C_18
    8  A    between atoms: C_11  and  C_31
    9  A    between atoms: C_11  and  N_33
   10  A    between atoms: C_14  and  C_26
   11  A    between atoms: C_26  and  N_33
                            x       y       z     vdW  Elec       q    Type
                         _______ _______ _______ _____ _____    ______ ____

>  <TORSDO>
F 11

$$$$
=
 OpenBabel11062414473D

 33 36  0  0  1  0  0  0  0  0999 V2000
  185.9020  178.8600  145.9480 C   0  0  0  0  0  2  0  0  0  0  0  0
  191.1890  178.2360  144.8790 C   0  0  0  0  0  3  0  0  0  0  0  0
  188.3010  177.1880  144.6250 C   0  0  0  0  0  0  0  0  0  0  0  0
  189.9960  177.5660  142.8160 C   0  0  0  0  0  0  0  0  0  0  0  0
  188.9050  176.9580  143.2970 C   0  0  0  0  0  3  0  0  0  0  0  0
  187.9580  177.5220  147.2120 S   0  0  0  0  0  0  0  0  0  0  0  0
  188.9570  177.5240  145.7360 C   0  0  0  0  0  0  0  0  0  0  0  0
  186.4590  177.4620  146.1700 C   0  0  2  0  0  3  0  0  0  0  0  0
  190.4110  177.7560  145.8490 C   0  0  0  0  0  3  0  0  0  0  0  0
  186.8640  176.8710  144.8290 C   0  0  0  0  0  2  0  0  0  0  0  0
  190.6560  178.6850  143.5600 C   0  0  0  0  0  2  0  0  0  0  0  0
  189.7840  176.4840  140.5800 N   0  0  0  0  0  0  0  0  0  0  0  0
  191.7550  177.0910  139.8020 O   0  0  0  0  0  0  0  0  0  0  0  0
  191.7000  177.5810  141.0040 N   0  0  0  0  0  0  0  0  0  0  0  0
  190.4910  177.2100  141.4760 C   0  0  0  0  0  0  0  0  0  0  0  0
  190.3650  175.8040  138.3100 N   0  0  0  0  0  1  0  0  0  0  0  0
  190.6430  176.4520  139.5470 C   0  0  0  0  0  0  0  0  0  0  0  0
  183.9620  179.1740  144.4960 C   0  0  0  0  0  3  0  0  0  0  0  0
  185.2750  178.9720  144.5990 C   0  0  0  0  0  3  0  0  0  0  0  0
  183.2630  179.2780  143.1670 C   0  0  1  0  0  3  0  0  0  0  0  0
  183.9790  178.4860  142.0730 C   0  0  0  0  0  2  0  0  0  0  0  0
  184.8810  179.3360  141.3040 N   0  0  0  0  0  2  0  0  0  0  0  0
  184.7090  178.9820  139.9050 C   0  0  0  0  0  2  0  0  0  0  0  0
  184.5260  180.1380  139.1430 O   0  0  0  0  0  1  0  0  0  0  0  0
  181.7820  178.9220  143.2580 C   0  0  0  0  0  2  0  0  0  0  0  0
  180.9760  179.9990  142.7090 N   0  0  0  0  0  2  0  0  0  0  0  0
  180.2170  179.4350  141.6050 C   0  0  0  0  0  2  0  0  0  0  0  0
  179.0650  181.4140  140.5860 C   0  0  0  0  0  3  0  0  0  0  0  0
  180.0720  180.4480  140.5230 C   0  0  0  0  0  0  0  0  0  0  0  0
  179.7610  182.3270  138.5060 C   0  0  0  0  0  3  0  0  0  0  0  0
  180.7740  181.3730  138.4020 C   0  0  0  0  0  3  0  0  0  0  0  0
  180.9250  180.4280  139.4180 C   0  0  0  0  0  3  0  0  0  0  0  0
  178.9320  182.3270  139.5860 N   0  0  0  0  0  0  0  0  0  0  0  0
  2  9  2  0  0  0  0
  3 10  1  0  0  0  0
  3  7  2  0  0  0  0
  4  5  2  0  0  0  0
  4 11  1  0  0  0  0
  5  3  1  0  0  0  0
  7  9  1  0  0  0  0
  7  6  1  0  0  0  0
  8  1  1  6  0  0  0
  8  6  1  0  0  0  0
 10  8  1  0  0  0  0
 11  2  1  0  0  0  0
 12 15  1  0  0  0  0
 13 14  1  0  0  0  0
 14 15  2  0  0  0  0
 15  4  1  0  0  0  0
 16 17  1  0  0  0  0
 17 13  1  0  0  0  0
 17 12  2  0  0  0  0
 18 19  2  0  0  0  0
 19  1  1  0  0  0  0
 20 21  1  6  0  0  0
 20 25  1  0  0  0  0
 20 18  1  0  0  0  0
 22 21  1  0  0  0  0
 23 22  1  0  0  0  0
 24 23  1  0  0  0  0
 26 25  1  0  0  0  0
 27 26  1  0  0  0  0
 29 28  1  0  0  0  0
 29 27  1  0  0  0  0
 30 33  1  0  0  0  0
 31 30  2  0  0  0  0
 31 32  1  0  0  0  0
 32 29  2  0  0  0  0
 33 28  2  0  0  0  0
M  END
>  <MODEL>
4

>  <REMARK>
 VINA RESULT:      -8.1      4.008      6.727
  Name = 
  11 active torsions:
  status: ('A' for Active; 'I' for Inactive)
    1  A    between atoms: C_2  and  N_29
    2  A    between atoms: C_4  and  C_22
    3  A    between atoms: C_5  and  N_29
    4  A    between atoms: C_5  and  C_31
    5  A    between atoms: C_8  and  C_31
    6  A    between atoms: C_9  and  C_17
    7  A    between atoms: C_9  and  C_18
    8  A    between atoms: C_11  and  C_31
    9  A    between atoms: C_11  and  N_33
   10  A    between atoms: C_14  and  C_26
   11  A    between atoms: C_26  and  N_33
                            x       y       z     vdW  Elec       q    Type
                         _______ _______ _______ _____ _____    ______ ____

>  <TORSDO>
F 11

$$$$
=
 OpenBabel11062414473D

 33 36  0  0  1  0  0  0  0  0999 V2000
  185.8780  178.8310  145.4800 C   0  0  0  0  0  2  0  0  0  0  0  0
  191.2220  178.2330  144.7290 C   0  0  0  0  0  3  0  0  0  0  0  0
  188.3630  177.1480  144.3420 C   0  0  0  0  0  0  0  0  0  0  0  0
  190.1540  177.4940  142.6220 C   0  0  0  0  0  0  0  0  0  0  0  0
  189.0430  176.8890  143.0570 C   0  0  0  0  0  3  0  0  0  0  0  0
  187.8710  177.5500  146.8960 S   0  0  0  0  0  0  0  0  0  0  0  0
  188.9520  177.5220  145.4790 C   0  0  0  0  0  0  0  0  0  0  0  0
  186.4340  177.4450  145.7720 C   0  0  2  0  0  3  0  0  0  0  0  0
  190.3950  177.7710  145.6670 C   0  0  0  0  0  3  0  0  0  0  0  0
  186.9190  176.8220  144.4730 C   0  0  0  0  0  2  0  0  0  0  0  0
  190.7610  178.6400  143.3710 C   0  0  0  0  0  2  0  0  0  0  0  0
  191.9510  177.4900  140.8950 N   0  0  0  0  0  0  0  0  0  0  0  0
  190.9160  176.2030  139.4350 O   0  0  0  0  0  0  0  0  0  0  0  0
  190.0890  176.3200  140.4290 N   0  0  0  0  0  0  0  0  0  0  0  0
  190.7270  177.1070  141.3230 C   0  0  0  0  0  0  0  0  0  0  0  0
  193.1250  176.9540  138.8230 N   0  0  0  0  0  1  0  0  0  0  0  0
  192.0040  176.8790  139.6980 C   0  0  0  0  0  0  0  0  0  0  0  0
  183.6120  178.6490  144.5850 C   0  0  0  0  0  3  0  0  0  0  0  0
  184.9150  178.7860  144.3420 C   0  0  0  0  0  3  0  0  0  0  0  0
  182.5890  178.5770  143.4840 C   0  0  1  0  0  3  0  0  0  0  0  0
  181.2260  179.1100  143.9250 C   0  0  0  0  0  2  0  0  0  0  0  0
  180.6410  179.9810  142.9120 N   0  0  0  0  0  2  0  0  0  0  0  0
  179.2210  179.6770  142.8570 C   0  0  0  0  0  2  0  0  0  0  0  0
  178.9320  178.6090  143.7100 O   0  0  0  0  0  1  0  0  0  0  0  0
  183.0730  179.2340  142.1940 C   0  0  0  0  0  2  0  0  0  0  0  0
  183.4030  178.2180  141.2100 N   0  0  0  0  0  2  0  0  0  0  0  0
  183.6480  178.9110  139.9570 C   0  0  0  0  0  2  0  0  0  0  0  0
  186.1240  178.7280  140.3030 C   0  0  0  0  0  3  0  0  0  0  0  0
  185.0170  178.5910  139.4630 C   0  0  0  0  0  0  0  0  0  0  0  0
  187.5790  178.0310  138.5590 C   0  0  0  0  0  3  0  0  0  0  0  0
  186.4980  177.8900  137.6860 C   0  0  0  0  0  3  0  0  0  0  0  0
  185.2110  178.1750  138.1450 C   0  0  0  0  0  3  0  0  0  0  0  0
  187.3710  178.4460  139.8380 N   0  0  0  0  0  0  0  0  0  0  0  0
  2  9  2  0  0  0  0
  3 10  1  0  0  0  0
  3  7  2  0  0  0  0
  4  5  2  0  0  0  0
  4 11  1  0  0  0  0
  5  3  1  0  0  0  0
  7  9  1  0  0  0  0
  7  6  1  0  0  0  0
  8  1  1  6  0  0  0
  8  6  1  0  0  0  0
 10  8  1  0  0  0  0
 11  2  1  0  0  0  0
 12 15  1  0  0  0  0
 13 17  1  0  0  0  0
 13 14  1  0  0  0  0
 14 15  2  0  0  0  0
 15  4  1  0  0  0  0
 16 17  1  0  0  0  0
 17 12  2  0  0  0  0
 19 18  2  0  0  0  0
 19  1  1  0  0  0  0
 20 25  1  6  0  0  0
 20 21  1  0  0  0  0
 20 18  1  0  0  0  0
 22 21  1  0  0  0  0
 23 22  1  0  0  0  0
 23 24  1  0  0  0  0
 26 25  1  0  0  0  0
 27 26  1  0  0  0  0
 29 27  1  0  0  0  0
 29 28  2  0  0  0  0
 30 33  2  0  0  0  0
 31 32  2  0  0  0  0
 31 30  1  0  0  0  0
 32 29  1  0  0  0  0
 33 28  1  0  0  0  0
M  END
>  <MODEL>
5

>  <REMARK>
 VINA RESULT:      -7.9      3.718      6.841
  Name = 
  11 active torsions:
  status: ('A' for Active; 'I' for Inactive)
    1  A    between atoms: C_2  and  N_29
    2  A    between atoms: C_4  and  C_22
    3  A    between atoms: C_5  and  N_29
    4  A    between atoms: C_5  and  C_31
    5  A    between atoms: C_8  and  C_31
    6  A    between atoms: C_9  and  C_17
    7  A    between atoms: C_9  and  C_18
    8  A    between atoms: C_11  and  C_31
    9  A    between atoms: C_11  and  N_33
   10  A    between atoms: C_14  and  C_26
   11  A    between atoms: C_26  and  N_33
                            x       y       z     vdW  Elec       q    Type
                         _______ _______ _______ _____ _____    ______ ____

>  <TORSDO>
F 11

$$$$
=
 OpenBabel11062414473D

 33 36  0  0  1  0  0  0  0  0999 V2000
  190.4850  176.3250  141.7920 C   0  0  0  0  0  2  0  0  0  0  0  0
  191.1170  174.9940  136.5660 C   0  0  0  0  0  3  0  0  0  0  0  0
  191.9630  176.7260  138.9710 C   0  0  0  0  0  0  0  0  0  0  0  0
  193.4000  175.3330  137.4600 C   0  0  0  0  0  0  0  0  0  0  0  0
  193.2290  176.3530  138.3090 C   0  0  0  0  0  3  0  0  0  0  0  0
  189.4390  177.3060  139.4340 S   0  0  0  0  0  0  0  0  0  0  0  0
  190.7380  176.5610  138.4690 C   0  0  0  0  0  0  0  0  0  0  0  0
  190.6100  177.4920  140.8240 C   0  0  2  0  0  3  0  0  0  0  0  0
  190.4100  175.9530  137.1640 C   0  0  0  0  0  3  0  0  0  0  0  0
  192.0120  177.5030  140.2370 C   0  0  0  0  0  2  0  0  0  0  0  0
  192.3030  174.3470  137.1970 C   0  0  0  0  0  2  0  0  0  0  0  0
  195.3520  175.9930  136.0590 N   0  0  0  0  0  0  0  0  0  0  0  0
  196.5440  174.1670  136.3850 O   0  0  0  0  0  0  0  0  0  0  0  0
  195.4510  173.9830  137.0610 N   0  0  0  0  0  0  0  0  0  0  0  0
  194.7250  175.1040  136.8610 C   0  0  0  0  0  0  0  0  0  0  0  0
  197.5410  175.8610  134.9880 N   0  0  0  0  0  1  0  0  0  0  0  0
  196.4960  175.3350  135.8000 C   0  0  0  0  0  0  0  0  0  0  0  0
  190.0310  176.2730  144.1930 C   0  0  0  0  0  3  0  0  0  0  0  0
  190.7590  176.7660  143.1910 C   0  0  0  0  0  3  0  0  0  0  0  0
  190.2420  176.6880  145.6230 C   0  0  1  0  0  3  0  0  0  0  0  0
  191.7230  176.7470  145.9970 C   0  0  0  0  0  2  0  0  0  0  0  0
  192.1830  175.4810  146.5530 N   0  0  0  0  0  2  0  0  0  0  0  0
  192.5300  175.7260  147.9430 C   0  0  0  0  0  2  0  0  0  0  0  0
  192.2550  177.0560  148.2710 O   0  0  0  0  0  1  0  0  0  0  0  0
  189.5100  177.9820  145.9690 C   0  0  0  0  0  2  0  0  0  0  0  0
  188.2780  178.0780  145.2040 N   0  0  0  0  0  2  0  0  0  0  0  0
  187.1920  177.7690  146.1190 C   0  0  0  0  0  2  0  0  0  0  0  0
  184.8260  178.5660  146.3360 C   0  0  0  0  0  3  0  0  0  0  0  0
  185.8940  178.1880  145.5200 C   0  0  0  0  0  0  0  0  0  0  0  0
  183.4570  178.9440  144.4310 C   0  0  0  0  0  3  0  0  0  0  0  0
  184.4980  178.5640  143.5820 C   0  0  0  0  0  3  0  0  0  0  0  0
  185.7220  178.1820  144.1350 C   0  0  0  0  0  3  0  0  0  0  0  0
  183.6400  178.9350  145.7790 N   0  0  0  0  0  0  0  0  0  0  0  0
  1 19  1  0  0  0  0
  2  9  2  0  0  0  0
  2 11  1  0  0  0  0
  3 10  1  0  0  0  0
  4  5  2  0  0  0  0
  5  3  1  0  0  0  0
  6  8  1  0  0  0  0
  7  3  2  0  0  0  0
  7  6  1  0  0  0  0
  8  1  1  1  0  0  0
  9  7  1  0  0  0  0
 10  8  1  0  0  0  0
 11  4  1  0  0  0  0
 12 15  1  0  0  0  0
 13 14  1  0  0  0  0
 15 14  2  0  0  0  0
 15  4  1  0  0  0  0
 16 17  1  0  0  0  0
 17 12  2  0  0  0  0
 17 13  1  0  0  0  0
 19 18  2  0  0  0  0
 20 18  1  6  0  0  0
 20 25  1  0  0  0  0
 20 21  1  0  0  0  0
 21 22  1  0  0  0  0
 22 23  1  0  0  0  0
 23 24  1  0  0  0  0
 26 25  1  0  0  0  0
 26 27  1  0  0  0  0
 29 27  1  0  0  0  0
 29 28  2  0  0  0  0
 30 33  2  0  0  0  0
 31 32  2  0  0  0  0
 31 30  1  0  0  0  0
 32 29  1  0  0  0  0
 33 28  1  0  0  0  0
M  END
>  <MODEL>
6

>  <REMARK>
 VINA RESULT:      -7.5      1.523      2.207
  Name = 
  11 active torsions:
  status: ('A' for Active; 'I' for Inactive)
    1  A    between atoms: C_2  and  N_29
    2  A    between atoms: C_4  and  C_22
    3  A    between atoms: C_5  and  N_29
    4  A    between atoms: C_5  and  C_31
    5  A    between atoms: C_8  and  C_31
    6  A    between atoms: C_9  and  C_17
    7  A    between atoms: C_9  and  C_18
    8  A    between atoms: C_11  and  C_31
    9  A    between atoms: C_11  and  N_33
   10  A    between atoms: C_14  and  C_26
   11  A    between atoms: C_26  and  N_33
                            x       y       z     vdW  Elec       q    Type
                         _______ _______ _______ _____ _____    ______ ____

>  <TORSDO>
F 11

$$$$
=
 OpenBabel11062414473D

 33 36  0  0  1  0  0  0  0  0999 V2000
  185.3060  179.5250  142.8440 C   0  0  0  0  0  2  0  0  0  0  0  0
  187.4780  178.7040  147.7520 C   0  0  0  0  0  3  0  0  0  0  0  0
  186.7610  177.6030  144.9630 C   0  0  0  0  0  0  0  0  0  0  0  0
  188.9700  177.5500  146.1490 C   0  0  0  0  0  0  0  0  0  0  0  0
  188.1070  177.0670  145.2470 C   0  0  0  0  0  3  0  0  0  0  0  0
  184.3180  178.5450  145.2270 S   0  0  0  0  0  0  0  0  0  0  0  0
  185.9550  178.2020  145.8430 C   0  0  0  0  0  0  0  0  0  0  0  0
  184.9140  178.2250  143.5300 C   0  0  2  0  0  3  0  0  0  0  0  0
  186.2620  178.4650  147.2620 C   0  0  0  0  0  3  0  0  0  0  0  0
  186.1400  177.3330  143.6410 C   0  0  0  0  0  2  0  0  0  0  0  0
  188.6910  178.8210  146.8920 C   0  0  0  0  0  2  0  0  0  0  0  0
  190.8650  176.7140  147.5340 N   0  0  0  0  0  0  0  0  0  0  0  0
  192.0560  175.8760  145.8790 O   0  0  0  0  0  0  0  0  0  0  0  0
  191.0000  176.3780  145.3150 N   0  0  0  0  0  0  0  0  0  0  0  0
  190.2710  176.8880  146.3320 C   0  0  0  0  0  0  0  0  0  0  0  0
  192.9770  175.6260  148.0950 N   0  0  0  0  0  1  0  0  0  0  0  0
  191.9860  176.0660  147.1710 C   0  0  0  0  0  0  0  0  0  0  0  0
  184.4420  178.4700  140.8170 C   0  0  0  0  0  3  0  0  0  0  0  0
  185.2500  179.3790  141.3600 C   0  0  0  0  0  3  0  0  0  0  0  0
  184.3500  178.2570  139.3300 C   0  0  1  0  0  3  0  0  0  0  0  0
  183.0730  178.8530  138.7380 C   0  0  0  0  0  2  0  0  0  0  0  0
  181.8820  178.2950  139.3660 N   0  0  0  0  0  2  0  0  0  0  0  0
  181.6010  177.0340  138.7010 C   0  0  0  0  0  2  0  0  0  0  0  0
  181.2420  177.2690  137.3710 O   0  0  0  0  0  1  0  0  0  0  0  0
  185.6010  178.7300  138.5950 C   0  0  0  0  0  2  0  0  0  0  0  0
  186.5680  177.6500  138.5100 N   0  0  0  0  0  2  0  0  0  0  0  0
  187.8800  178.2680  138.4170 C   0  0  0  0  0  2  0  0  0  0  0  0
  189.7700  176.8430  139.2410 C   0  0  0  0  0  3  0  0  0  0  0  0
  188.7550  177.7620  139.5120 C   0  0  0  0  0  0  0  0  0  0  0  0
  190.3780  176.7820  141.5370 C   0  0  0  0  0  3  0  0  0  0  0  0
  189.3670  177.6930  141.8500 C   0  0  0  0  0  3  0  0  0  0  0  0
  188.5510  178.1820  140.8280 C   0  0  0  0  0  3  0  0  0  0  0  0
  190.5550  176.3770  140.2500 N   0  0  0  0  0  0  0  0  0  0  0  0
  3  5  1  0  0  0  0
  3  7  2  0  0  0  0
  4 15  1  0  0  0  0
  4 11  1  0  0  0  0
  5  4  2  0  0  0  0
  6  7  1  0  0  0  0
  7  9  1  0  0  0  0
  8  1  1  1  0  0  0
  8 10  1  0  0  0  0
  8  6  1  0  0  0  0
  9  2  2  0  0  0  0
 10  3  1  0  0  0  0
 11  2  1  0  0  0  0
 13 17  1  0  0  0  0
 14 13  1  0  0  0  0
 14 15  2  0  0  0  0
 15 12  1  0  0  0  0
 17 12  2  0  0  0  0
 17 16  1  0  0  0  0
 18 19  2  0  0  0  0
 19  1  1  0  0  0  0
 20 25  1  6  0  0  0
 20 18  1  0  0  0  0
 21 20  1  0  0  0  0
 21 22  1  0  0  0  0
 23 22  1  0  0  0  0
 24 23  1  0  0  0  0
 26 25  1  0  0  0  0
 27 26  1  0  0  0  0
 27 29  1  0  0  0  0
 28 29  2  0  0  0  0
 28 33  1  0  0  0  0
 29 32  1  0  0  0  0
 30 31  1  0  0  0  0
 32 31  2  0  0  0  0
 33 30  2  0  0  0  0
M  END
>  <MODEL>
7

>  <REMARK>
 VINA RESULT:      -7.3      3.451      8.760
  Name = 
  11 active torsions:
  status: ('A' for Active; 'I' for Inactive)
    1  A    between atoms: C_2  and  N_29
    2  A    between atoms: C_4  and  C_22
    3  A    between atoms: C_5  and  N_29
    4  A    between atoms: C_5  and  C_31
    5  A    between atoms: C_8  and  C_31
    6  A    between atoms: C_9  and  C_17
    7  A    between atoms: C_9  and  C_18
    8  A    between atoms: C_11  and  C_31
    9  A    between atoms: C_11  and  N_33
   10  A    between atoms: C_14  and  C_26
   11  A    between atoms: C_26  and  N_33
                            x       y       z     vdW  Elec       q    Type
                         _______ _______ _______ _____ _____    ______ ____

>  <TORSDO>
F 11

$$$$
=
 OpenBabel11062414473D

 33 36  0  0  1  0  0  0  0  0999 V2000
  182.6770  177.0400  140.2520 C   0  0  0  0  0  2  0  0  0  0  0  0
  187.6310  178.2110  142.1430 C   0  0  0  0  0  3  0  0  0  0  0  0
  184.5820  178.6500  142.2730 C   0  0  0  0  0  0  0  0  0  0  0  0
  186.1620  178.0670  144.1310 C   0  0  0  0  0  0  0  0  0  0  0  0
  185.0170  178.5950  143.6830 C   0  0  0  0  0  3  0  0  0  0  0  0
  184.5280  179.0020  139.6650 S   0  0  0  0  0  0  0  0  0  0  0  0
  185.3820  178.7530  141.2100 C   0  0  0  0  0  0  0  0  0  0  0  0
  182.9650  178.5170  140.4780 C   0  0  2  0  0  3  0  0  0  0  0  0
  186.8570  178.8070  141.2360 C   0  0  0  0  0  3  0  0  0  0  0  0
  183.1330  178.7670  141.9680 C   0  0  0  0  0  2  0  0  0  0  0  0
  187.0890  177.3280  143.2160 C   0  0  0  0  0  2  0  0  0  0  0  0
  187.5650  177.5560  146.1260 N   0  0  0  0  0  0  0  0  0  0  0  0
  186.2810  178.5500  147.6170 O   0  0  0  0  0  0  0  0  0  0  0  0
  185.6740  178.7180  146.4810 N   0  0  0  0  0  0  0  0  0  0  0  0
  186.4640  178.1110  145.5700 C   0  0  0  0  0  0  0  0  0  0  0  0
  188.2990  177.5270  148.4540 N   0  0  0  0  0  1  0  0  0  0  0  0
  187.3840  177.8760  147.4190 C   0  0  0  0  0  0  0  0  0  0  0  0
  183.0640  175.3260  138.5540 C   0  0  0  0  0  3  0  0  0  0  0  0
  183.1520  176.6080  138.9050 C   0  0  0  0  0  3  0  0  0  0  0  0
  183.5410  174.8200  137.2200 C   0  0  1  0  0  3  0  0  0  0  0  0
  182.5150  173.9090  136.5460 C   0  0  0  0  0  2  0  0  0  0  0  0
  183.1560  172.7690  135.9010 N   0  0  0  0  0  2  0  0  0  0  0  0
  183.4510  171.8010  136.9440 C   0  0  0  0  0  2  0  0  0  0  0  0
  183.8000  170.5770  136.3690 O   0  0  0  0  0  1  0  0  0  0  0  0
  184.0020  175.9470  136.3000 C   0  0  0  0  0  2  0  0  0  0  0  0
  185.4510  176.0560  136.3310 N   0  0  0  0  0  2  0  0  0  0  0  0
  185.7680  177.4680  136.2120 C   0  0  0  0  0  2  0  0  0  0  0  0
  187.6500  179.0020  136.8350 C   0  0  0  0  0  3  0  0  0  0  0  0
  187.0000  177.7760  136.9910 C   0  0  0  0  0  0  0  0  0  0  0  0
  189.3130  178.3610  138.4060 C   0  0  0  0  0  3  0  0  0  0  0  0
  188.6980  177.1210  138.5830 C   0  0  0  0  0  3  0  0  0  0  0  0
  187.5350  176.8300  137.8670 C   0  0  0  0  0  3  0  0  0  0  0  0
  188.7830  179.2680  137.5410 N   0  0  0  0  0  0  0  0  0  0  0  0
  2 11  1  0  0  0  0
  3  5  1  0  0  0  0
  4 15  1  0  0  0  0
  5  4  2  0  0  0  0
  6  8  1  0  0  0  0
  6  7  1  0  0  0  0
  7  9  1  0  0  0  0
  7  3  2  0  0  0  0
  8  1  1  1  0  0  0
  8 10  1  0  0  0  0
  9  2  2  0  0  0  0
 10  3  1  0  0  0  0
 11  4  1  0  0  0  0
 12 17  2  0  0  0  0
 14 13  1  0  0  0  0
 15 12  1  0  0  0  0
 15 14  2  0  0  0  0
 17 13  1  0  0  0  0
 17 16  1  0  0  0  0
 18 19  2  0  0  0  0
 19  1  1  0  0  0  0
 20 25  1  6  0  0  0
 20 18  1  0  0  0  0
 21 20  1  0  0  0  0
 22 21  1  0  0  0  0
 22 23  1  0  0  0  0
 24 23  1  0  0  0  0
 25 26  1  0  0  0  0
 27 26  1  0  0  0  0
 27 29  1  0  0  0  0
 28 29  2  0  0  0  0
 28 33  1  0  0  0  0
 29 32  1  0  0  0  0
 30 31  1  0  0  0  0
 32 31  2  0  0  0  0
 33 30  2  0  0  0  0
M  END
>  <MODEL>
8

>  <REMARK>
 VINA RESULT:      -7.2      4.635      9.823
  Name = 
  11 active torsions:
  status: ('A' for Active; 'I' for Inactive)
    1  A    between atoms: C_2  and  N_29
    2  A    between atoms: C_4  and  C_22
    3  A    between atoms: C_5  and  N_29
    4  A    between atoms: C_5  and  C_31
    5  A    between atoms: C_8  and  C_31
    6  A    between atoms: C_9  and  C_17
    7  A    between atoms: C_9  and  C_18
    8  A    between atoms: C_11  and  C_31
    9  A    between atoms: C_11  and  N_33
   10  A    between atoms: C_14  and  C_26
   11  A    between atoms: C_26  and  N_33
                            x       y       z     vdW  Elec       q    Type
                         _______ _______ _______ _____ _____    ______ ____

>  <TORSDO>
F 11

$$$$
=
 OpenBabel11062414473D

 33 36  0  0  1  0  0  0  0  0999 V2000
  188.3290  178.6840  141.8330 C   0  0  0  0  0  2  0  0  0  0  0  0
  188.0950  177.8820  147.1990 C   0  0  0  0  0  3  0  0  0  0  0  0
  188.9500  176.8770  144.4120 C   0  0  0  0  0  0  0  0  0  0  0  0
  190.3340  177.0960  146.4920 C   0  0  0  0  0  0  0  0  0  0  0  0
  190.0830  176.5450  145.2990 C   0  0  0  0  0  3  0  0  0  0  0  0
  186.5400  177.3950  143.4920 S   0  0  0  0  0  0  0  0  0  0  0  0
  187.7390  177.2760  144.8060 C   0  0  0  0  0  0  0  0  0  0  0  0
  187.8970  177.2940  142.2740 C   0  0  2  0  0  3  0  0  0  0  0  0
  187.3050  177.4860  146.2000 C   0  0  0  0  0  3  0  0  0  0  0  0
  189.0670  176.6030  142.9570 C   0  0  0  0  0  2  0  0  0  0  0  0
  189.5270  178.2500  147.0020 C   0  0  0  0  0  2  0  0  0  0  0  0
  192.0140  177.3160  148.3200 N   0  0  0  0  0  0  0  0  0  0  0  0
  193.0950  175.4380  147.9160 O   0  0  0  0  0  0  0  0  0  0  0  0
  192.1580  175.4890  147.0190 N   0  0  0  0  0  0  0  0  0  0  0  0
  191.4960  176.6380  147.2710 C   0  0  0  0  0  0  0  0  0  0  0  0
  193.8900  176.7530  149.7760 N   0  0  0  0  0  1  0  0  0  0  0  0
  193.0180  176.4980  148.6790 C   0  0  0  0  0  0  0  0  0  0  0  0
  188.4730  177.6120  139.6420 C   0  0  0  0  0  3  0  0  0  0  0  0
  188.7160  178.6860  140.3920 C   0  0  0  0  0  3  0  0  0  0  0  0
  188.8530  177.5400  138.1890 C   0  0  1  0  0  3  0  0  0  0  0  0
  189.7440  176.3360  137.8820 C   0  0  0  0  0  2  0  0  0  0  0  0
  190.5980  176.0020  139.0150 N   0  0  0  0  0  2  0  0  0  0  0  0
  191.7730  176.8530  138.9270 C   0  0  0  0  0  2  0  0  0  0  0  0
  192.1500  177.2740  140.2050 O   0  0  0  0  0  1  0  0  0  0  0  0
  187.6400  177.6080  137.2640 C   0  0  0  0  0  2  0  0  0  0  0  0
  186.6490  178.5200  137.8090 N   0  0  0  0  0  2  0  0  0  0  0  0
  185.3570  177.8720  137.6600 C   0  0  0  0  0  2  0  0  0  0  0  0
  185.0440  178.8310  139.9540 C   0  0  0  0  0  3  0  0  0  0  0  0
  184.5210  178.1310  138.8660 C   0  0  0  0  0  0  0  0  0  0  0  0
  182.9960  178.5990  141.1350 C   0  0  0  0  0  3  0  0  0  0  0  0
  182.4390  177.8860  140.0710 C   0  0  0  0  0  3  0  0  0  0  0  0
  183.2120  177.6510  138.9320 C   0  0  0  0  0  3  0  0  0  0  0  0
  184.2770  179.0500  141.0570 N   0  0  0  0  0  0  0  0  0  0  0  0
  3  7  2  0  0  0  0
  3  5  1  0  0  0  0
  4 11  1  0  0  0  0
  4 15  1  0  0  0  0
  5  4  2  0  0  0  0
  6  7  1  0  0  0  0
  7  9  1  0  0  0  0
  8  1  1  1  0  0  0
  8 10  1  0  0  0  0
  8  6  1  0  0  0  0
  9  2  2  0  0  0  0
 10  3  1  0  0  0  0
 11  2  1  0  0  0  0
 12 17  2  0  0  0  0
 13 17  1  0  0  0  0
 14 15  2  0  0  0  0
 14 13  1  0  0  0  0
 15 12  1  0  0  0  0
 17 16  1  0  0  0  0
 18 19  2  0  0  0  0
 19  1  1  0  0  0  0
 20 25  1  6  0  0  0
 20 18  1  0  0  0  0
 21 20  1  0  0  0  0
 21 22  1  0  0  0  0
 23 22  1  0  0  0  0
 23 24  1  0  0  0  0
 25 26  1  0  0  0  0
 27 26  1  0  0  0  0
 27 29  1  0  0  0  0
 28 33  1  0  0  0  0
 29 32  1  0  0  0  0
 29 28  2  0  0  0  0
 31 30  1  0  0  0  0
 32 31  2  0  0  0  0
 33 30  2  0  0  0  0
M  END
>  <MODEL>
9

>  <REMARK>
 VINA RESULT:      -7.1      2.611      7.721
  Name = 
  11 active torsions:
  status: ('A' for Active; 'I' for Inactive)
    1  A    between atoms: C_2  and  N_29
    2  A    between atoms: C_4  and  C_22
    3  A    between atoms: C_5  and  N_29
    4  A    between atoms: C_5  and  C_31
    5  A    between atoms: C_8  and  C_31
    6  A    between atoms: C_9  and  C_17
    7  A    between atoms: C_9  and  C_18
    8  A    between atoms: C_11  and  C_31
    9  A    between atoms: C_11  and  N_33
   10  A    between atoms: C_14  and  C_26
   11  A    between atoms: C_26  and  N_33
                            x       y       z     vdW  Elec       q    Type
                         _______ _______ _______ _____ _____    ______ ____

>  <TORSDO>
F 11

$$$$
