=
 OpenBabel11062415273D

 37 40  0  0  1  0  0  0  0  0999 V2000
  188.6280  177.8720  138.7790 C   0  0  0  0  0  0  0  0  0  0  0  0
  189.4470  179.2250  137.0380 O   0  0  0  0  0  1  0  0  0  0  0  0
  187.4240  178.4280  139.2080 C   0  0  0  0  0  3  0  0  0  0  0  0
  187.5310  177.3900  142.8940 C   0  0  0  0  0  3  0  0  0  0  0  0
  185.4970  178.8340  142.3770 N   0  0  0  0  0  0  0  0  0  0  0  0
  185.8410  178.8690  141.0180 N   0  0  0  0  0  0  0  0  0  0  0  0
  189.4400  177.1880  139.6430 C   0  0  0  0  0  0  0  0  0  0  0  0
  186.0170  178.2960  144.6290 C   0  0  0  0  0  2  0  0  0  0  0  0
  187.9050  177.5970  141.4540 C   0  0  0  0  0  0  0  0  0  0  0  0
  187.0600  178.2900  140.5560 C   0  0  0  0  0  0  0  0  0  0  0  0
  189.1750  177.9060  137.4060 C   0  0  1  0  0  3  0  0  0  0  0  0
  190.5040  177.1210  137.5120 C   0  0  1  0  0  3  0  0  0  0  0  0
  186.3400  178.1980  143.3390 C   0  0  0  0  0  0  0  0  0  0  0  0
  190.6400  176.6490  138.9760 C   0  0  0  0  0  2  0  0  0  0  0  0
  189.1010  177.0310  140.9860 C   0  0  0  0  0  3  0  0  0  0  0  0
  187.2550  178.2190  147.9940 C   0  0  0  0  0  0  0  0  0  0  0  0
  186.3440  178.1910  147.0780 C   0  0  0  0  0  0  0  0  0  0  0  0
  188.9430  176.9670  146.2490 C   0  0  0  0  0  2  0  0  0  0  0  0
  188.7410  178.6220  149.7120 F   0  0  0  0  0  0  0  0  0  0  0  0
  188.4300  178.0710  148.5150 C   0  0  0  0  0  0  0  0  0  0  0  0
  186.8110  177.6690  145.7340 C   0  0  2  0  0  3  0  0  0  0  0  0
  189.5020  177.5510  147.5820 C   0  0  0  0  0  2  0  0  0  0  0  0
  188.1950  177.9320  145.5310 O   0  0  0  0  0  0  0  0  0  0  0  0
  185.0180  178.5000  147.3540 O   0  0  0  0  0  1  0  0  0  0  0  0
  190.0480  174.6750  137.0130 C   0  0  0  0  0  1  0  0  0  0  0  0
  189.7910  176.3670  135.2460 C   0  0  0  0  0  1  0  0  0  0  0  0
  190.6200  175.9810  136.4660 C   0  0  0  0  0  0  0  0  0  0  0  0
  192.1820  175.8730  134.5940 O   0  0  0  0  0  1  0  0  0  0  0  0
  192.0820  175.7910  135.9880 C   0  0  2  0  0  3  0  0  0  0  0  0
  192.7910  174.5270  136.5090 C   0  0  1  0  0  3  0  0  0  0  0  0
  194.6620  173.6400  135.2330 C   0  0  0  0  0  1  0  0  0  0  0  0
  192.8500  172.2590  135.8020 C   0  0  0  0  0  1  0  0  0  0  0  0
  193.2170  173.6170  135.4310 N   0  0  0  0  0  0  0  0  0  0  0  0
  194.2210  176.0120  137.7510 O   0  0  0  0  0  0  0  0  0  0  0  0
  193.8450  174.8250  137.5460 C   0  0  0  0  0  0  0  0  0  0  0  0
  194.4190  173.7660  138.2500 O   0  0  0  0  0  0  0  0  0  0  0  0
  195.6250  173.9210  138.9810 C   0  0  0  0  0  1  0  0  0  0  0  0
  1  3  2  0  0  0  0
  1  7  1  0  0  0  0
  3 10  1  0  0  0  0
  4 13  1  0  0  0  0
  5 13  2  0  0  0  0
  6  5  1  0  0  0  0
  7 15  2  0  0  0  0
  9  4  2  0  0  0  0
 10  6  2  0  0  0  0
 10  9  1  0  0  0  0
 11  2  1  1  0  0  0
 11 12  1  0  0  0  0
 11  1  1  0  0  0  0
 12 27  1  6  0  0  0
 12 14  1  0  0  0  0
 13  8  1  0  0  0  0
 14  7  1  0  0  0  0
 15  9  1  0  0  0  0
 16 20  2  0  0  0  0
 17 24  1  0  0  0  0
 17 16  2  0  0  0  0
 18 22  1  0  0  0  0
 20 19  1  0  0  0  0
 21  8  1  6  0  0  0
 21 17  1  0  0  0  0
 22 20  1  0  0  0  0
 23 21  1  0  0  0  0
 23 18  1  0  0  0  0
 26 27  1  0  0  0  0
 27 25  1  0  0  0  0
 29 28  1  6  0  0  0
 29 27  1  0  0  0  0
 29 30  1  0  0  0  0
 30 35  1  6  0  0  0
 31 33  1  0  0  0  0
 33 32  1  0  0  0  0
 33 30  1  0  0  0  0
 35 34  2  0  0  0  0
 35 36  1  0  0  0  0
 36 37  1  0  0  0  0
M  END
>  <MODEL>
1

>  <REMARK>
 VINA RESULT:      -8.5      0.000      0.000
  Name = 
  7 active torsions:
  status: ('A' for Active; 'I' for Inactive)
    1  A    between atoms: O_2  and  C_16
    2  A    between atoms: C_6  and  C_16
    3  A    between atoms: C_6  and  N_23
    4  A    between atoms: C_6  and  C_25
    5  A    between atoms: C_20  and  C_26
    6  A    between atoms: C_25  and  C_28
    7  A    between atoms: C_28  and  C_34
                            x       y       z     vdW  Elec       q    Type
                         _______ _______ _______ _____ _____    ______ ____

>  <TORSDO>
F 7

$$$$
=
 OpenBabel11062415273D

 37 40  0  0  1  0  0  0  0  0999 V2000
  182.2870  178.8300  142.2620 C   0  0  0  0  0  0  0  0  0  0  0  0
  180.9780  180.4650  141.1930 O   0  0  0  0  0  1  0  0  0  0  0  0
  182.4100  179.2030  143.6010 C   0  0  0  0  0  3  0  0  0  0  0  0
  185.8650  177.7290  144.3490 C   0  0  0  0  0  3  0  0  0  0  0  0
  184.9330  179.0120  146.3420 N   0  0  0  0  0  0  0  0  0  0  0  0
  183.7350  179.2510  145.6540 N   0  0  0  0  0  0  0  0  0  0  0  0
  183.2780  178.1290  141.6290 C   0  0  0  0  0  0  0  0  0  0  0  0
  187.1800  178.2520  146.3780 C   0  0  0  0  0  2  0  0  0  0  0  0
  184.6140  178.1510  143.6330 C   0  0  0  0  0  0  0  0  0  0  0  0
  183.5830  178.8610  144.2910 C   0  0  0  0  0  0  0  0  0  0  0  0
  181.1320  179.0900  141.3770 C   0  0  1  0  0  3  0  0  0  0  0  0
  181.5360  178.4360  140.0340 C   0  0  1  0  0  3  0  0  0  0  0  0
  186.0300  178.3500  145.7120 C   0  0  0  0  0  0  0  0  0  0  0  0
  182.9280  177.8020  140.2340 C   0  0  0  0  0  2  0  0  0  0  0  0
  184.4520  177.7720  142.2930 C   0  0  0  0  0  3  0  0  0  0  0  0
  190.3600  176.6430  146.7840 C   0  0  0  0  0  0  0  0  0  0  0  0
  189.0810  176.7650  146.9190 C   0  0  0  0  0  0  0  0  0  0  0  0
  190.1510  177.9160  144.3760 C   0  0  0  0  0  2  0  0  0  0  0  0
  192.6580  176.5030  146.9230 F   0  0  0  0  0  0  0  0  0  0  0  0
  191.5260  176.8120  146.2490 C   0  0  0  0  0  0  0  0  0  0  0  0
  188.4020  177.5770  145.8350 C   0  0  2  0  0  3  0  0  0  0  0  0
  191.5580  177.6630  144.9970 C   0  0  0  0  0  2  0  0  0  0  0  0
  189.2830  178.5560  145.2950 O   0  0  0  0  0  0  0  0  0  0  0  0
  188.3830  176.0930  147.9140 O   0  0  0  0  0  1  0  0  0  0  0  0
  181.0490  176.0560  139.3010 C   0  0  0  0  0  1  0  0  0  0  0  0
  179.3490  177.3450  140.5270 C   0  0  0  0  0  1  0  0  0  0  0  0
  180.4640  177.4540  139.4920 C   0  0  0  0  0  0  0  0  0  0  0  0
  179.2610  176.9290  137.4340 O   0  0  0  0  0  1  0  0  0  0  0  0
  179.8250  177.9730  138.1790 C   0  0  2  0  0  3  0  0  0  0  0  0
  180.7390  178.8380  137.2930 C   0  0  1  0  0  3  0  0  0  0  0  0
  181.1630  179.0530  134.9080 C   0  0  0  0  0  1  0  0  0  0  0  0
  182.5260  177.6790  136.2390 C   0  0  0  0  0  1  0  0  0  0  0  0
  181.1640  178.1550  136.0580 N   0  0  0  0  0  0  0  0  0  0  0  0
  179.0060  180.4390  136.8210 O   0  0  0  0  0  0  0  0  0  0  0  0
  180.2210  180.2410  137.1000 C   0  0  0  0  0  0  0  0  0  0  0  0
  181.1100  181.3110  137.2030 O   0  0  0  0  0  0  0  0  0  0  0  0
  180.7270  182.5500  137.7780 C   0  0  0  0  0  1  0  0  0  0  0  0
  1  3  1  0  0  0  0
  3 10  2  0  0  0  0
  4 13  2  0  0  0  0
  6  5  2  0  0  0  0
  7  1  2  0  0  0  0
  7 15  1  0  0  0  0
  9 10  1  0  0  0  0
  9  4  1  0  0  0  0
 10  6  1  0  0  0  0
 11  2  1  6  0  0  0
 11  1  1  0  0  0  0
 12 27  1  1  0  0  0
 12 14  1  0  0  0  0
 12 11  1  0  0  0  0
 13  5  1  0  0  0  0
 13  8  1  0  0  0  0
 14  7  1  0  0  0  0
 15  9  2  0  0  0  0
 16 17  2  0  0  0  0
 17 24  1  0  0  0  0
 18 22  1  0  0  0  0
 18 23  1  0  0  0  0
 20 16  2  0  0  0  0
 20 19  1  0  0  0  0
 21  8  1  1  0  0  0
 21 17  1  0  0  0  0
 22 20  1  0  0  0  0
 23 21  1  0  0  0  0
 25 27  1  0  0  0  0
 27 26  1  0  0  0  0
 29 28  1  6  0  0  0
 29 27  1  0  0  0  0
 30 35  1  6  0  0  0
 30 29  1  0  0  0  0
 31 33  1  0  0  0  0
 33 32  1  0  0  0  0
 33 30  1  0  0  0  0
 34 35  2  0  0  0  0
 35 36  1  0  0  0  0
 36 37  1  0  0  0  0
M  END
>  <MODEL>
2

>  <REMARK>
 VINA RESULT:      -8.4      6.585      9.077
  Name = 
  7 active torsions:
  status: ('A' for Active; 'I' for Inactive)
    1  A    between atoms: O_2  and  C_16
    2  A    between atoms: C_6  and  C_16
    3  A    between atoms: C_6  and  N_23
    4  A    between atoms: C_6  and  C_25
    5  A    between atoms: C_20  and  C_26
    6  A    between atoms: C_25  and  C_28
    7  A    between atoms: C_28  and  C_34
                            x       y       z     vdW  Elec       q    Type
                         _______ _______ _______ _____ _____    ______ ____

>  <TORSDO>
F 7

$$$$
=
 OpenBabel11062415273D

 37 40  0  0  1  0  0  0  0  0999 V2000
  182.2640  178.8810  141.9940 C   0  0  0  0  0  0  0  0  0  0  0  0
  181.0060  180.5450  140.9080 O   0  0  0  0  0  1  0  0  0  0  0  0
  182.3270  179.2200  143.3450 C   0  0  0  0  0  3  0  0  0  0  0  0
  185.7450  177.7230  144.2120 C   0  0  0  0  0  3  0  0  0  0  0  0
  184.7230  178.9570  146.1920 N   0  0  0  0  0  0  0  0  0  0  0  0
  183.5570  179.2150  145.4570 N   0  0  0  0  0  0  0  0  0  0  0  0
  183.2830  178.1950  141.3880 C   0  0  0  0  0  0  0  0  0  0  0  0
  186.9670  178.1930  146.3110 C   0  0  0  0  0  2  0  0  0  0  0  0
  184.5270  178.1640  143.4510 C   0  0  0  0  0  0  0  0  0  0  0  0
  183.4670  178.8600  144.0790 C   0  0  0  0  0  0  0  0  0  0  0  0
  181.1510  179.1650  141.0640 C   0  0  1  0  0  3  0  0  0  0  0  0
  181.6140  178.5450  139.7240 C   0  0  1  0  0  3  0  0  0  0  0  0
  185.8480  178.3090  145.5960 C   0  0  0  0  0  0  0  0  0  0  0  0
  182.9970  177.9040  139.9700 C   0  0  0  0  0  2  0  0  0  0  0  0
  184.4250  177.8200  142.0950 C   0  0  0  0  0  3  0  0  0  0  0  0
  190.2180  176.7590  146.7990 C   0  0  0  0  0  0  0  0  0  0  0  0
  188.9350  176.8360  146.9410 C   0  0  0  0  0  0  0  0  0  0  0  0
  189.9300  177.8280  144.3020 C   0  0  0  0  0  2  0  0  0  0  0  0
  192.5210  176.7290  146.9200 F   0  0  0  0  0  0  0  0  0  0  0  0
  191.3690  176.9350  146.2380 C   0  0  0  0  0  0  0  0  0  0  0  0
  188.2110  177.5300  145.8060 C   0  0  2  0  0  3  0  0  0  0  0  0
  191.3530  177.6850  144.9230 C   0  0  0  0  0  2  0  0  0  0  0  0
  189.0440  178.5000  145.1790 O   0  0  0  0  0  0  0  0  0  0  0  0
  188.2770  176.2160  147.9960 O   0  0  0  0  0  1  0  0  0  0  0  0
  180.2820  176.4100  140.0510 C   0  0  0  0  0  1  0  0  0  0  0  0
  179.2620  178.3440  138.9230 C   0  0  0  0  0  1  0  0  0  0  0  0
  180.5680  177.5780  139.1090 C   0  0  0  0  0  0  0  0  0  0  0  0
  180.0310  177.3220  136.7430 O   0  0  0  0  0  1  0  0  0  0  0  0
  181.0090  177.0710  137.7130 C   0  0  2  0  0  3  0  0  0  0  0  0
  181.4660  175.6030  137.6540 C   0  0  1  0  0  3  0  0  0  0  0  0
  181.3260  174.2800  135.6180 C   0  0  0  0  0  1  0  0  0  0  0  0
  180.1910  173.6000  137.5580 C   0  0  0  0  0  1  0  0  0  0  0  0
  180.6120  174.7640  136.7940 N   0  0  0  0  0  0  0  0  0  0  0  0
  183.5840  174.4980  137.9480 O   0  0  0  0  0  0  0  0  0  0  0  0
  182.9480  175.4530  137.4200 C   0  0  0  0  0  0  0  0  0  0  0  0
  183.6090  176.4010  136.6390 O   0  0  0  0  0  0  0  0  0  0  0  0
  184.9520  176.7800  136.8980 C   0  0  0  0  0  1  0  0  0  0  0  0
  1  3  1  0  0  0  0
  3 10  2  0  0  0  0
  4 13  2  0  0  0  0
  6  5  2  0  0  0  0
  7  1  2  0  0  0  0
  7 15  1  0  0  0  0
  9 10  1  0  0  0  0
  9  4  1  0  0  0  0
 10  6  1  0  0  0  0
 11  2  1  6  0  0  0
 11  1  1  0  0  0  0
 12 27  1  1  0  0  0
 12 14  1  0  0  0  0
 12 11  1  0  0  0  0
 13  5  1  0  0  0  0
 13  8  1  0  0  0  0
 14  7  1  0  0  0  0
 15  9  2  0  0  0  0
 16 17  2  0  0  0  0
 17 24  1  0  0  0  0
 18 22  1  0  0  0  0
 18 23  1  0  0  0  0
 20 16  2  0  0  0  0
 20 19  1  0  0  0  0
 21  8  1  1  0  0  0
 21 17  1  0  0  0  0
 22 20  1  0  0  0  0
 23 21  1  0  0  0  0
 26 27  1  0  0  0  0
 27 25  1  0  0  0  0
 29 28  1  6  0  0  0
 29 27  1  0  0  0  0
 30 35  1  6  0  0  0
 30 29  1  0  0  0  0
 31 33  1  0  0  0  0
 33 32  1  0  0  0  0
 33 30  1  0  0  0  0
 35 34  2  0  0  0  0
 36 37  1  0  0  0  0
 36 35  1  0  0  0  0
M  END
>  <MODEL>
3

>  <REMARK>
 VINA RESULT:      -8.3      5.870      8.088
  Name = 
  7 active torsions:
  status: ('A' for Active; 'I' for Inactive)
    1  A    between atoms: O_2  and  C_16
    2  A    between atoms: C_6  and  C_16
    3  A    between atoms: C_6  and  N_23
    4  A    between atoms: C_6  and  C_25
    5  A    between atoms: C_20  and  C_26
    6  A    between atoms: C_25  and  C_28
    7  A    between atoms: C_28  and  C_34
                            x       y       z     vdW  Elec       q    Type
                         _______ _______ _______ _____ _____    ______ ____

>  <TORSDO>
F 7

$$$$
=
 OpenBabel11062415273D

 37 40  0  0  1  0  0  0  0  0999 V2000
  183.5970  178.6770  139.0060 C   0  0  0  0  0  0  0  0  0  0  0  0
  182.1770  177.4620  137.5790 O   0  0  0  0  0  1  0  0  0  0  0  0
  184.9030  178.4900  138.5540 C   0  0  0  0  0  3  0  0  0  0  0  0
  186.7680  178.7560  141.8890 C   0  0  0  0  0  3  0  0  0  0  0  0
  188.3420  178.1950  139.9670 N   0  0  0  0  0  0  0  0  0  0  0  0
  187.2880  178.2900  139.0480 N   0  0  0  0  0  0  0  0  0  0  0  0
  183.3300  178.8830  140.3330 C   0  0  0  0  0  0  0  0  0  0  0  0
  189.1370  178.1160  142.2020 C   0  0  0  0  0  2  0  0  0  0  0  0
  185.6730  178.6970  140.8630 C   0  0  0  0  0  0  0  0  0  0  0  0
  185.9490  178.4990  139.4900 C   0  0  0  0  0  0  0  0  0  0  0  0
  182.3730  178.7080  138.1790 C   0  0  1  0  0  3  0  0  0  0  0  0
  181.2380  178.9690  139.1970 C   0  0  1  0  0  3  0  0  0  0  0  0
  188.1170  178.3290  141.3710 C   0  0  0  0  0  0  0  0  0  0  0  0
  181.8930  179.0990  140.5890 C   0  0  0  0  0  2  0  0  0  0  0  0
  184.3510  178.9020  141.2840 C   0  0  0  0  0  3  0  0  0  0  0  0
  190.4660  177.7340  145.5110 C   0  0  0  0  0  0  0  0  0  0  0  0
  190.4150  178.2240  144.3160 C   0  0  0  0  0  0  0  0  0  0  0  0
  187.7420  177.5440  145.4690 C   0  0  0  0  0  2  0  0  0  0  0  0
  190.8750  176.6720  147.5180 F   0  0  0  0  0  0  0  0  0  0  0  0
  190.0250  177.1870  146.5970 C   0  0  0  0  0  0  0  0  0  0  0  0
  189.0350  178.2320  143.6920 C   0  0  2  0  0  3  0  0  0  0  0  0
  188.5470  176.8650  146.6180 C   0  0  0  0  0  2  0  0  0  0  0  0
  188.2340  177.1680  144.1950 O   0  0  0  0  0  0  0  0  0  0  0  0
  191.5240  178.8070  143.7160 O   0  0  0  0  0  1  0  0  0  0  0  0
  179.0250  179.6950  138.1890 C   0  0  0  0  0  1  0  0  0  0  0  0
  179.9910  180.9400  140.0780 C   0  0  0  0  0  1  0  0  0  0  0  0
  180.3380  180.1720  138.8070 C   0  0  0  0  0  0  0  0  0  0  0  0
  182.0920  181.8450  138.5290 O   0  0  0  0  0  1  0  0  0  0  0  0
  181.0740  181.1530  137.8600 C   0  0  2  0  0  3  0  0  0  0  0  0
  180.1720  182.1310  137.0860 C   0  0  1  0  0  3  0  0  0  0  0  0
  181.0440  184.1960  136.1410 C   0  0  0  0  0  1  0  0  0  0  0  0
  179.2890  184.2500  137.7010 C   0  0  0  0  0  1  0  0  0  0  0  0
  180.5060  183.5450  137.3320 N   0  0  0  0  0  0  0  0  0  0  0  0
  178.9810  182.1320  134.9950 O   0  0  0  0  0  0  0  0  0  0  0  0
  180.0030  181.7580  135.6350 C   0  0  0  0  0  0  0  0  0  0  0  0
  180.9770  180.9700  135.0210 O   0  0  0  0  0  0  0  0  0  0  0  0
  180.7300  179.6180  134.6660 C   0  0  0  0  0  1  0  0  0  0  0  0
  1  7  1  0  0  0  0
  3  1  2  0  0  0  0
  3 10  1  0  0  0  0
  5 13  2  0  0  0  0
  6 10  2  0  0  0  0
  6  5  1  0  0  0  0
  7 14  1  0  0  0  0
  7 15  2  0  0  0  0
  9 15  1  0  0  0  0
  9  4  2  0  0  0  0
 10  9  1  0  0  0  0
 11  2  1  1  0  0  0
 11  1  1  0  0  0  0
 11 12  1  0  0  0  0
 12 27  1  6  0  0  0
 12 14  1  0  0  0  0
 13  4  1  0  0  0  0
 13  8  1  0  0  0  0
 16 20  2  0  0  0  0
 17 16  2  0  0  0  0
 18 22  1  0  0  0  0
 20 22  1  0  0  0  0
 20 19  1  0  0  0  0
 21  8  1  6  0  0  0
 21 23  1  0  0  0  0
 21 17  1  0  0  0  0
 23 18  1  0  0  0  0
 24 17  1  0  0  0  0
 25 27  1  0  0  0  0
 27 26  1  0  0  0  0
 29 28  1  1  0  0  0
 29 27  1  0  0  0  0
 30 35  1  6  0  0  0
 30 33  1  0  0  0  0
 30 29  1  0  0  0  0
 31 33  1  0  0  0  0
 33 32  1  0  0  0  0
 34 35  2  0  0  0  0
 36 35  1  0  0  0  0
 37 36  1  0  0  0  0
M  END
>  <MODEL>
4

>  <REMARK>
 VINA RESULT:      -8.1      5.749      9.642
  Name = 
  7 active torsions:
  status: ('A' for Active; 'I' for Inactive)
    1  A    between atoms: O_2  and  C_16
    2  A    between atoms: C_6  and  C_16
    3  A    between atoms: C_6  and  N_23
    4  A    between atoms: C_6  and  C_25
    5  A    between atoms: C_20  and  C_26
    6  A    between atoms: C_25  and  C_28
    7  A    between atoms: C_28  and  C_34
                            x       y       z     vdW  Elec       q    Type
                         _______ _______ _______ _____ _____    ______ ____

>  <TORSDO>
F 7

$$$$
=
 OpenBabel11062415273D

 37 40  0  0  1  0  0  0  0  0999 V2000
  182.2170  179.2510  140.7540 C   0  0  0  0  0  0  0  0  0  0  0  0
  180.5340  180.8470  140.3670 O   0  0  0  0  0  1  0  0  0  0  0  0
  182.2400  178.9920  142.1250 C   0  0  0  0  0  3  0  0  0  0  0  0
  185.9570  178.1700  142.5490 C   0  0  0  0  0  3  0  0  0  0  0  0
  184.7250  178.1570  144.7780 N   0  0  0  0  0  0  0  0  0  0  0  0
  183.5060  178.4020  144.1310 N   0  0  0  0  0  0  0  0  0  0  0  0
  183.3550  179.1610  139.9990 C   0  0  0  0  0  0  0  0  0  0  0  0
  187.0920  177.9980  144.7410 C   0  0  0  0  0  2  0  0  0  0  0  0
  184.6390  178.5730  141.9500 C   0  0  0  0  0  0  0  0  0  0  0  0
  183.4600  178.6510  142.7270 C   0  0  0  0  0  0  0  0  0  0  0  0
  181.0350  179.6140  139.9450 C   0  0  1  0  0  3  0  0  0  0  0  0
  181.5940  179.7530  138.5090 C   0  0  1  0  0  3  0  0  0  0  0  0
  185.9560  178.1230  144.0550 C   0  0  0  0  0  0  0  0  0  0  0  0
  183.1030  179.4330  138.5710 C   0  0  0  0  0  2  0  0  0  0  0  0
  184.5810  178.8190  140.5710 C   0  0  0  0  0  3  0  0  0  0  0  0
  190.0350  176.2330  143.6960 C   0  0  0  0  0  0  0  0  0  0  0  0
  188.7750  176.5220  143.6900 C   0  0  0  0  0  0  0  0  0  0  0  0
  190.5540  178.8540  144.2640 C   0  0  0  0  0  2  0  0  0  0  0  0
  192.1730  175.3890  143.8810 F   0  0  0  0  0  0  0  0  0  0  0  0
  191.3030  176.4260  143.8620 C   0  0  0  0  0  0  0  0  0  0  0  0
  188.4460  177.9420  144.1030 C   0  0  2  0  0  3  0  0  0  0  0  0
  191.7000  177.8010  144.3550 C   0  0  0  0  0  2  0  0  0  0  0  0
  189.4180  178.4540  145.0080 O   0  0  0  0  0  0  0  0  0  0  0  0
  187.8220  175.6270  143.2200 O   0  0  0  0  0  1  0  0  0  0  0  0
  179.3490  178.7470  137.8850 C   0  0  0  0  0  1  0  0  0  0  0  0
  180.8250  179.6560  136.1390 C   0  0  0  0  0  1  0  0  0  0  0  0
  180.8100  178.9090  137.4690 C   0  0  0  0  0  0  0  0  0  0  0  0
  181.8200  177.3510  135.8860 O   0  0  0  0  0  1  0  0  0  0  0  0
  181.4770  177.5310  137.2320 C   0  0  2  0  0  3  0  0  0  0  0  0
  180.6940  176.3150  137.7590 C   0  0  1  0  0  3  0  0  0  0  0  0
  181.3920  174.0630  137.1610 C   0  0  0  0  0  1  0  0  0  0  0  0
  179.2060  174.7900  136.7080 C   0  0  0  0  0  1  0  0  0  0  0  0
  180.5930  175.2210  136.7760 N   0  0  0  0  0  0  0  0  0  0  0  0
  182.3350  175.9450  139.4800 O   0  0  0  0  0  0  0  0  0  0  0  0
  181.1190  175.8920  139.1420 C   0  0  0  0  0  0  0  0  0  0  0  0
  180.1560  175.4110  140.0280 O   0  0  0  0  0  0  0  0  0  0  0  0
  179.5200  176.2580  140.9740 C   0  0  0  0  0  1  0  0  0  0  0  0
  1  3  1  0  0  0  0
  3 10  2  0  0  0  0
  4 13  2  0  0  0  0
  6  5  2  0  0  0  0
  7 15  1  0  0  0  0
  7  1  2  0  0  0  0
  9  4  1  0  0  0  0
  9 10  1  0  0  0  0
 10  6  1  0  0  0  0
 11  2  1  1  0  0  0
 11  1  1  0  0  0  0
 12 27  1  6  0  0  0
 12 14  1  0  0  0  0
 12 11  1  0  0  0  0
 13  8  1  0  0  0  0
 13  5  1  0  0  0  0
 14  7  1  0  0  0  0
 15  9  2  0  0  0  0
 16 20  2  0  0  0  0
 17 16  2  0  0  0  0
 17 21  1  0  0  0  0
 18 22  1  0  0  0  0
 18 23  1  0  0  0  0
 20 19  1  0  0  0  0
 20 22  1  0  0  0  0
 21  8  1  1  0  0  0
 21 23  1  0  0  0  0
 24 17  1  0  0  0  0
 26 27  1  0  0  0  0
 27 25  1  0  0  0  0
 29 28  1  6  0  0  0
 29 27  1  0  0  0  0
 29 30  1  0  0  0  0
 30 35  1  1  0  0  0
 32 33  1  0  0  0  0
 33 31  1  0  0  0  0
 33 30  1  0  0  0  0
 35 34  2  0  0  0  0
 35 36  1  0  0  0  0
 36 37  1  0  0  0  0
M  END
>  <MODEL>
5

>  <REMARK>
 VINA RESULT:      -7.7      6.009      8.644
  Name = 
  7 active torsions:
  status: ('A' for Active; 'I' for Inactive)
    1  A    between atoms: O_2  and  C_16
    2  A    between atoms: C_6  and  C_16
    3  A    between atoms: C_6  and  N_23
    4  A    between atoms: C_6  and  C_25
    5  A    between atoms: C_20  and  C_26
    6  A    between atoms: C_25  and  C_28
    7  A    between atoms: C_28  and  C_34
                            x       y       z     vdW  Elec       q    Type
                         _______ _______ _______ _____ _____    ______ ____

>  <TORSDO>
F 7

$$$$
=
 OpenBabel11062415273D

 37 40  0  0  1  0  0  0  0  0999 V2000
  183.0380  178.7110  143.2680 C   0  0  0  0  0  0  0  0  0  0  0  0
  181.4400  180.4150  142.9950 O   0  0  0  0  0  1  0  0  0  0  0  0
  183.5110  178.7880  144.5780 C   0  0  0  0  0  3  0  0  0  0  0  0
  187.0810  177.5110  144.0330 C   0  0  0  0  0  3  0  0  0  0  0  0
  186.6920  178.2300  146.4450 N   0  0  0  0  0  0  0  0  0  0  0  0
  185.3450  178.5040  146.1680 N   0  0  0  0  0  0  0  0  0  0  0  0
  183.8380  178.2620  142.2520 C   0  0  0  0  0  0  0  0  0  0  0  0
  188.8850  177.6920  145.7170 C   0  0  0  0  0  2  0  0  0  0  0  0
  185.6700  177.9630  143.7870 C   0  0  0  0  0  0  0  0  0  0  0  0
  184.8380  178.4130  144.8390 C   0  0  0  0  0  0  0  0  0  0  0  0
  181.6780  179.0530  142.8000 C   0  0  1  0  0  3  0  0  0  0  0  0
  181.7180  178.7530  141.2830 C   0  0  1  0  0  3  0  0  0  0  0  0
  187.5940  177.8280  145.4140 C   0  0  0  0  0  0  0  0  0  0  0  0
  183.1300  178.2210  140.9580 C   0  0  0  0  0  2  0  0  0  0  0  0
  185.1580  177.8780  142.4840 C   0  0  0  0  0  3  0  0  0  0  0  0
  190.9240  178.2540  142.8200 C   0  0  0  0  0  0  0  0  0  0  0  0
  190.5050  178.4790  144.0220 C   0  0  0  0  0  0  0  0  0  0  0  0
  190.4140  175.6010  143.2190 C   0  0  0  0  0  2  0  0  0  0  0  0
  191.4920  178.1840  140.5850 F   0  0  0  0  0  0  0  0  0  0  0  0
  191.1690  177.5710  141.7490 C   0  0  0  0  0  0  0  0  0  0  0  0
  189.9300  177.2700  144.7310 C   0  0  2  0  0  3  0  0  0  0  0  0
  190.7580  176.1160  141.7890 C   0  0  0  0  0  2  0  0  0  0  0  0
  189.3640  176.3490  143.8040 O   0  0  0  0  0  0  0  0  0  0  0  0
  190.6880  179.7090  144.6420 O   0  0  0  0  0  1  0  0  0  0  0  0
  181.0910  176.4190  140.5080 C   0  0  0  0  0  1  0  0  0  0  0  0
  179.5680  177.6900  141.9630 C   0  0  0  0  0  1  0  0  0  0  0  0
  180.5680  177.8190  140.8190 C   0  0  0  0  0  0  0  0  0  0  0  0
  178.9340  177.4730  139.0400 O   0  0  0  0  0  1  0  0  0  0  0  0
  179.8060  178.4110  139.6060 C   0  0  2  0  0  3  0  0  0  0  0  0
  180.6870  179.0560  138.5210 C   0  0  1  0  0  3  0  0  0  0  0  0
  180.4380  178.7890  136.1160 C   0  0  0  0  0  1  0  0  0  0  0  0
  182.3350  177.9480  137.2160 C   0  0  0  0  0  1  0  0  0  0  0  0
  180.9060  178.1800  137.3560 N   0  0  0  0  0  0  0  0  0  0  0  0
  179.0540  180.7870  138.1590 O   0  0  0  0  0  0  0  0  0  0  0  0
  180.2760  180.4680  138.1870 C   0  0  0  0  0  0  0  0  0  0  0  0
  181.2620  181.4050  137.8800 O   0  0  0  0  0  0  0  0  0  0  0  0
  180.9950  182.7990  137.8770 C   0  0  0  0  0  1  0  0  0  0  0  0
  1  3  1  0  0  0  0
  3 10  2  0  0  0  0
  4 13  2  0  0  0  0
  6  5  2  0  0  0  0
  7 15  1  0  0  0  0
  7  1  2  0  0  0  0
  9  4  1  0  0  0  0
  9 10  1  0  0  0  0
 10  6  1  0  0  0  0
 11  2  1  6  0  0  0
 11  1  1  0  0  0  0
 12 27  1  1  0  0  0
 12 11  1  0  0  0  0
 13  8  1  0  0  0  0
 13  5  1  0  0  0  0
 14 12  1  0  0  0  0
 14  7  1  0  0  0  0
 15  9  2  0  0  0  0
 16 17  2  0  0  0  0
 17 24  1  0  0  0  0
 17 21  1  0  0  0  0
 18 23  1  0  0  0  0
 19 20  1  0  0  0  0
 20 22  1  0  0  0  0
 20 16  2  0  0  0  0
 21  8  1  1  0  0  0
 22 18  1  0  0  0  0
 23 21  1  0  0  0  0
 25 27  1  0  0  0  0
 27 26  1  0  0  0  0
 29 28  1  6  0  0  0
 29 27  1  0  0  0  0
 30 35  1  6  0  0  0
 30 29  1  0  0  0  0
 31 33  1  0  0  0  0
 32 33  1  0  0  0  0
 33 30  1  0  0  0  0
 34 35  2  0  0  0  0
 36 35  1  0  0  0  0
 37 36  1  0  0  0  0
M  END
>  <MODEL>
6

>  <REMARK>
 VINA RESULT:      -7.3      5.477      9.545
  Name = 
  7 active torsions:
  status: ('A' for Active; 'I' for Inactive)
    1  A    between atoms: O_2  and  C_16
    2  A    between atoms: C_6  and  C_16
    3  A    between atoms: C_6  and  N_23
    4  A    between atoms: C_6  and  C_25
    5  A    between atoms: C_20  and  C_26
    6  A    between atoms: C_25  and  C_28
    7  A    between atoms: C_28  and  C_34
                            x       y       z     vdW  Elec       q    Type
                         _______ _______ _______ _____ _____    ______ ____

>  <TORSDO>
F 7

$$$$
=
 OpenBabel11062415273D

 37 40  0  0  1  0  0  0  0  0999 V2000
  187.1310  178.2510  139.5350 C   0  0  0  0  0  0  0  0  0  0  0  0
  189.1520  179.2890  138.9270 O   0  0  0  0  0  1  0  0  0  0  0  0
  186.4490  177.9430  138.3570 C   0  0  0  0  0  3  0  0  0  0  0  0
  182.8460  178.2490  139.6190 C   0  0  0  0  0  3  0  0  0  0  0  0
  182.9350  177.7590  137.1210 N   0  0  0  0  0  0  0  0  0  0  0  0
  184.3320  177.6610  137.1690 N   0  0  0  0  0  0  0  0  0  0  0  0
  186.4550  178.5430  140.6890 C   0  0  0  0  0  0  0  0  0  0  0  0
  180.8650  178.3170  138.1380 C   0  0  0  0  0  2  0  0  0  0  0  0
  184.3460  178.2700  139.5550 C   0  0  0  0  0  0  0  0  0  0  0  0
  185.0460  177.9540  138.3680 C   0  0  0  0  0  0  0  0  0  0  0  0
  188.5970  178.2840  139.7220 C   0  0  1  0  0  3  0  0  0  0  0  0
  188.7760  178.6550  141.2140 C   0  0  1  0  0  3  0  0  0  0  0  0
  182.1770  178.1300  138.2740 C   0  0  0  0  0  0  0  0  0  0  0  0
  187.3640  178.7970  141.8220 C   0  0  0  0  0  2  0  0  0  0  0  0
  185.0610  178.5550  140.7290 C   0  0  0  0  0  3  0  0  0  0  0  0
  180.0260  180.3190  140.9940 C   0  0  0  0  0  0  0  0  0  0  0  0
  180.2730  180.1020  139.7440 C   0  0  0  0  0  0  0  0  0  0  0  0
  178.9320  177.8210  141.1320 C   0  0  0  0  0  2  0  0  0  0  0  0
  179.9310  180.8830  143.2280 F   0  0  0  0  0  0  0  0  0  0  0  0
  179.6500  180.0470  142.2010 C   0  0  0  0  0  0  0  0  0  0  0  0
  179.9580  178.6990  139.2680 C   0  0  2  0  0  3  0  0  0  0  0  0
  179.1900  178.6250  142.4420 C   0  0  0  0  0  2  0  0  0  0  0  0
  180.0920  177.7540  140.3230 O   0  0  0  0  0  0  0  0  0  0  0  0
  180.6770  181.1220  138.8900 O   0  0  0  0  0  1  0  0  0  0  0  0
  189.0500  176.2890  142.0900 C   0  0  0  0  0  1  0  0  0  0  0  0
  190.9860  177.5030  141.1780 C   0  0  0  0  0  1  0  0  0  0  0  0
  189.6980  177.6670  141.9770 C   0  0  0  0  0  0  0  0  0  0  0  0
  191.3320  178.8560  143.3450 O   0  0  0  0  0  1  0  0  0  0  0  0
  190.0880  178.2140  143.3740 C   0  0  2  0  0  3  0  0  0  0  0  0
  190.0310  177.1940  144.5250 C   0  0  1  0  0  3  0  0  0  0  0  0
  191.3500  176.4720  146.4370 C   0  0  0  0  0  1  0  0  0  0  0  0
  191.7840  175.6070  144.2980 C   0  0  0  0  0  1  0  0  0  0  0  0
  191.3640  176.7990  145.0160 N   0  0  0  0  0  0  0  0  0  0  0  0
  189.4100  178.2520  146.5960 O   0  0  0  0  0  0  0  0  0  0  0  0
  189.0420  177.5690  145.6000 C   0  0  0  0  0  0  0  0  0  0  0  0
  187.7250  177.1220  145.4920 O   0  0  0  0  0  0  0  0  0  0  0  0
  186.6210  178.0020  145.6460 C   0  0  0  0  0  1  0  0  0  0  0  0
  1 11  1  0  0  0  0
  1  7  1  0  0  0  0
  3 10  1  0  0  0  0
  3  1  2  0  0  0  0
  5  6  2  0  0  0  0
  5 13  1  0  0  0  0
  6 10  1  0  0  0  0
  7 15  2  0  0  0  0
  7 14  1  0  0  0  0
  8 13  1  0  0  0  0
  9  4  1  0  0  0  0
  9 15  1  0  0  0  0
 10  9  2  0  0  0  0
 11  2  1  6  0  0  0
 11 12  1  0  0  0  0
 12 14  1  0  0  0  0
 12 27  1  1  0  0  0
 13  4  2  0  0  0  0
 16 20  2  0  0  0  0
 17 16  2  0  0  0  0
 18 22  1  0  0  0  0
 20 22  1  0  0  0  0
 20 19  1  0  0  0  0
 21  8  1  6  0  0  0
 21 17  1  0  0  0  0
 21 23  1  0  0  0  0
 23 18  1  0  0  0  0
 24 17  1  0  0  0  0
 26 27  1  0  0  0  0
 27 25  1  0  0  0  0
 27 29  1  0  0  0  0
 29 28  1  6  0  0  0
 29 30  1  0  0  0  0
 30 33  1  0  0  0  0
 30 35  1  1  0  0  0
 32 33  1  0  0  0  0
 33 31  1  0  0  0  0
 35 34  2  0  0  0  0
 36 35  1  0  0  0  0
 36 37  1  0  0  0  0
M  END
>  <MODEL>
7

>  <REMARK>
 VINA RESULT:      -7.0      4.835      8.082
  Name = 
  7 active torsions:
  status: ('A' for Active; 'I' for Inactive)
    1  A    between atoms: O_2  and  C_16
    2  A    between atoms: C_6  and  C_16
    3  A    between atoms: C_6  and  N_23
    4  A    between atoms: C_6  and  C_25
    5  A    between atoms: C_20  and  C_26
    6  A    between atoms: C_25  and  C_28
    7  A    between atoms: C_28  and  C_34
                            x       y       z     vdW  Elec       q    Type
                         _______ _______ _______ _____ _____    ______ ____

>  <TORSDO>
F 7

$$$$
=
 OpenBabel11062415273D

 37 40  0  0  1  0  0  0  0  0999 V2000
  186.2090  178.1440  144.3350 C   0  0  0  0  0  0  0  0  0  0  0  0
  187.1680  177.1230  146.2240 O   0  0  0  0  0  1  0  0  0  0  0  0
  185.1060  178.8770  144.7710 C   0  0  0  0  0  3  0  0  0  0  0  0
  182.8980  178.6060  141.6520 C   0  0  0  0  0  3  0  0  0  0  0  0
  181.7160  179.8340  143.5450 N   0  0  0  0  0  0  0  0  0  0  0  0
  182.8640  179.7530  144.3440 N   0  0  0  0  0  0  0  0  0  0  0  0
  186.2400  177.5870  143.0840 C   0  0  0  0  0  0  0  0  0  0  0  0
  180.5040  179.2270  141.5960 C   0  0  0  0  0  2  0  0  0  0  0  0
  184.0340  178.4360  142.6210 C   0  0  0  0  0  0  0  0  0  0  0  0
  184.0090  179.0230  143.9080 C   0  0  0  0  0  0  0  0  0  0  0  0
  187.4530  177.8880  145.0910 C   0  0  1  0  0  3  0  0  0  0  0  0
  188.3200  177.0550  144.1170 C   0  0  1  0  0  3  0  0  0  0  0  0
  181.6600  179.2120  142.2600 C   0  0  0  0  0  0  0  0  0  0  0  0
  187.5120  176.8920  142.8110 C   0  0  0  0  0  2  0  0  0  0  0  0
  185.1660  177.7210  142.2040 C   0  0  0  0  0  3  0  0  0  0  0  0
  180.4350  176.4230  139.3600 C   0  0  0  0  0  0  0  0  0  0  0  0
  180.0380  177.1340  140.3640 C   0  0  0  0  0  0  0  0  0  0  0  0
  181.1100  178.7410  138.0830 C   0  0  0  0  0  2  0  0  0  0  0  0
  181.2790  174.9090  137.8380 F   0  0  0  0  0  0  0  0  0  0  0  0
  180.9820  176.1760  138.2140 C   0  0  0  0  0  0  0  0  0  0  0  0
  180.3160  178.6180  140.2410 C   0  0  2  0  0  3  0  0  0  0  0  0
  181.5610  177.3720  137.4900 C   0  0  0  0  0  2  0  0  0  0  0  0
  181.4710  178.8630  139.4470 O   0  0  0  0  0  0  0  0  0  0  0  0
  179.3060  176.5810  141.4070 O   0  0  0  0  0  1  0  0  0  0  0  0
  190.5750  176.7570  142.9930 C   0  0  0  0  0  1  0  0  0  0  0  0
  189.6000  179.0030  143.2330 C   0  0  0  0  0  1  0  0  0  0  0  0
  189.7400  177.6450  143.9130 C   0  0  0  0  0  0  0  0  0  0  0  0
  191.6820  178.5410  145.0890 O   0  0  0  0  0  1  0  0  0  0  0  0
  190.4610  177.8780  145.2650 C   0  0  2  0  0  3  0  0  0  0  0  0
  190.6450  176.6270  146.1430 C   0  0  1  0  0  3  0  0  0  0  0  0
  192.4280  176.0020  147.6760 C   0  0  0  0  0  1  0  0  0  0  0  0
  192.2430  174.9610  145.5790 C   0  0  0  0  0  1  0  0  0  0  0  0
  192.0550  176.2200  146.2820 N   0  0  0  0  0  0  0  0  0  0  0  0
  189.3130  175.6560  147.8960 O   0  0  0  0  0  0  0  0  0  0  0  0
  189.8700  176.6910  147.4350 C   0  0  0  0  0  0  0  0  0  0  0  0
  189.7530  177.9150  148.0930 O   0  0  0  0  0  0  0  0  0  0  0  0
  188.5960  178.2530  148.8440 C   0  0  0  0  0  1  0  0  0  0  0  0
  1  3  1  0  0  0  0
  1 11  1  0  0  0  0
  4 13  2  0  0  0  0
  4  9  1  0  0  0  0
  5  6  2  0  0  0  0
  7  1  2  0  0  0  0
  8 13  1  0  0  0  0
  9 10  1  0  0  0  0
 10  6  1  0  0  0  0
 10  3  2  0  0  0  0
 11  2  1  1  0  0  0
 12 27  1  6  0  0  0
 12 11  1  0  0  0  0
 13  5  1  0  0  0  0
 14  7  1  0  0  0  0
 14 12  1  0  0  0  0
 15  9  2  0  0  0  0
 15  7  1  0  0  0  0
 16 17  2  0  0  0  0
 17 24  1  0  0  0  0
 18 23  1  0  0  0  0
 19 20  1  0  0  0  0
 20 16  2  0  0  0  0
 21 17  1  0  0  0  0
 21  8  1  1  0  0  0
 22 18  1  0  0  0  0
 22 20  1  0  0  0  0
 23 21  1  0  0  0  0
 25 27  1  0  0  0  0
 26 27  1  0  0  0  0
 27 29  1  0  0  0  0
 29 28  1  6  0  0  0
 29 30  1  0  0  0  0
 30 33  1  0  0  0  0
 30 35  1  1  0  0  0
 32 33  1  0  0  0  0
 33 31  1  0  0  0  0
 35 34  2  0  0  0  0
 35 36  1  0  0  0  0
 36 37  1  0  0  0  0
M  END
>  <MODEL>
8

>  <REMARK>
 VINA RESULT:      -6.7      6.082      9.063
  Name = 
  7 active torsions:
  status: ('A' for Active; 'I' for Inactive)
    1  A    between atoms: O_2  and  C_16
    2  A    between atoms: C_6  and  C_16
    3  A    between atoms: C_6  and  N_23
    4  A    between atoms: C_6  and  C_25
    5  A    between atoms: C_20  and  C_26
    6  A    between atoms: C_25  and  C_28
    7  A    between atoms: C_28  and  C_34
                            x       y       z     vdW  Elec       q    Type
                         _______ _______ _______ _____ _____    ______ ____

>  <TORSDO>
F 7

$$$$
=
 OpenBabel11062415273D

 37 40  0  0  1  0  0  0  0  0999 V2000
  186.0420  178.1990  138.8980 C   0  0  0  0  0  0  0  0  0  0  0  0
  184.5980  180.0200  139.2630 O   0  0  0  0  0  1  0  0  0  0  0  0
  187.0370  178.2540  139.8750 C   0  0  0  0  0  3  0  0  0  0  0  0
  189.9320  176.6950  137.9090 C   0  0  0  0  0  3  0  0  0  0  0  0
  190.6670  177.4690  140.2210 N   0  0  0  0  0  0  0  0  0  0  0  0
  189.3540  177.8430  140.5370 N   0  0  0  0  0  0  0  0  0  0  0  0
  186.2950  177.6790  137.6580 C   0  0  0  0  0  0  0  0  0  0  0  0
  192.2920  176.7530  138.6470 C   0  0  0  0  0  2  0  0  0  0  0  0
  188.5850  177.2540  138.2720 C   0  0  0  0  0  0  0  0  0  0  0  0
  188.3190  177.7780  139.5580 C   0  0  0  0  0  0  0  0  0  0  0  0
  184.6390  178.6420  139.0440 C   0  0  1  0  0  3  0  0  0  0  0  0
  184.0020  178.3230  137.6710 C   0  0  1  0  0  3  0  0  0  0  0  0
  191.0090  176.9860  138.9210 C   0  0  0  0  0  0  0  0  0  0  0  0
  185.0980  177.6790  136.7960 C   0  0  0  0  0  2  0  0  0  0  0  0
  187.5580  177.1940  137.3190 C   0  0  0  0  0  3  0  0  0  0  0  0
  193.6670  174.1830  136.5560 C   0  0  0  0  0  0  0  0  0  0  0  0
  192.7730  174.7240  137.3170 C   0  0  0  0  0  0  0  0  0  0  0  0
  194.3270  176.6840  135.6800 C   0  0  0  0  0  2  0  0  0  0  0  0
  195.3240  172.9770  135.4980 F   0  0  0  0  0  0  0  0  0  0  0  0
  194.6610  174.1350  135.7300 C   0  0  0  0  0  0  0  0  0  0  0  0
  192.7810  176.2390  137.3280 C   0  0  2  0  0  3  0  0  0  0  0  0
  195.2340  175.4710  135.3120 C   0  0  0  0  0  2  0  0  0  0  0  0
  194.0850  176.7500  137.0740 O   0  0  0  0  0  0  0  0  0  0  0  0
  191.8100  173.9640  137.9690 O   0  0  0  0  0  1  0  0  0  0  0  0
  181.5250  178.1940  137.1320 C   0  0  0  0  0  1  0  0  0  0  0  0
  182.9200  176.1700  137.0310 C   0  0  0  0  0  1  0  0  0  0  0  0
  182.7050  177.4780  137.7850 C   0  0  0  0  0  0  0  0  0  0  0  0
  182.4750  175.7330  139.4760 O   0  0  0  0  0  1  0  0  0  0  0  0
  182.3890  177.1140  139.2580 C   0  0  2  0  0  3  0  0  0  0  0  0
  181.0620  177.6680  139.8080 C   0  0  1  0  0  3  0  0  0  0  0  0
  179.3110  177.0240  141.3690 C   0  0  0  0  0  1  0  0  0  0  0  0
  179.2190  176.3320  139.1270 C   0  0  0  0  0  1  0  0  0  0  0  0
  180.1240  176.6120  140.2300 N   0  0  0  0  0  0  0  0  0  0  0  0
  180.5950  179.8560  140.6940 O   0  0  0  0  0  0  0  0  0  0  0  0
  181.2540  178.7850  140.8030 C   0  0  0  0  0  0  0  0  0  0  0  0
  182.1910  178.6270  141.8240 O   0  0  0  0  0  0  0  0  0  0  0  0
  181.9100  179.0040  143.1630 C   0  0  0  0  0  1  0  0  0  0  0  0
  1 11  1  0  0  0  0
  1  3  1  0  0  0  0
  4  9  1  0  0  0  0
  4 13  2  0  0  0  0
  5  6  2  0  0  0  0
  7  1  2  0  0  0  0
  8 13  1  0  0  0  0
  9 10  1  0  0  0  0
 10  3  2  0  0  0  0
 10  6  1  0  0  0  0
 11  2  1  6  0  0  0
 12 27  1  1  0  0  0
 12 11  1  0  0  0  0
 13  5  1  0  0  0  0
 14  7  1  0  0  0  0
 14 12  1  0  0  0  0
 15  7  1  0  0  0  0
 15  9  2  0  0  0  0
 16 17  2  0  0  0  0
 17 21  1  0  0  0  0
 17 24  1  0  0  0  0
 18 23  1  0  0  0  0
 19 20  1  0  0  0  0
 20 16  2  0  0  0  0
 21  8  1  1  0  0  0
 22 18  1  0  0  0  0
 22 20  1  0  0  0  0
 23 21  1  0  0  0  0
 25 27  1  0  0  0  0
 26 27  1  0  0  0  0
 27 29  1  0  0  0  0
 29 28  1  6  0  0  0
 29 30  1  0  0  0  0
 30 33  1  0  0  0  0
 30 35  1  1  0  0  0
 32 33  1  0  0  0  0
 33 31  1  0  0  0  0
 34 35  2  0  0  0  0
 35 36  1  0  0  0  0
 36 37  1  0  0  0  0
M  END
>  <MODEL>
9

>  <REMARK>
 VINA RESULT:      -6.7      5.085     10.412
  Name = 
  7 active torsions:
  status: ('A' for Active; 'I' for Inactive)
    1  A    between atoms: O_2  and  C_16
    2  A    between atoms: C_6  and  C_16
    3  A    between atoms: C_6  and  N_23
    4  A    between atoms: C_6  and  C_25
    5  A    between atoms: C_20  and  C_26
    6  A    between atoms: C_25  and  C_28
    7  A    between atoms: C_28  and  C_34
                            x       y       z     vdW  Elec       q    Type
                         _______ _______ _______ _____ _____    ______ ____

>  <TORSDO>
F 7

$$$$
