=
 OpenBabel11062412423D

 32 34  0  0  1  0  0  0  0  0999 V2000
  189.9160  176.7240  138.8100 C   0  0  0  0  0  0  0  0  0  0  0  0
  189.6470  176.4590  137.4550 C   0  0  0  0  0  0  0  0  0  0  0  0
  193.1080  176.2620  136.1280 O   0  0  0  0  0  1  0  0  0  0  0  0
  190.7240  176.3060  136.5450 C   0  0  0  0  0  0  0  0  0  0  0  0
  191.2490  176.7560  139.2640 C   0  0  0  0  0  0  0  0  0  0  0  0
  190.4670  176.1010  134.8160 Cl  0  0  0  0  0  0  0  0  0  0  0  0
  192.3040  176.5890  138.3640 C   0  0  0  0  0  0  0  0  0  0  0  0
  193.6200  176.6230  138.8240 O   0  0  0  0  0  1  0  0  0  0  0  0
  192.0460  176.3790  137.0110 C   0  0  0  0  0  0  0  0  0  0  0  0
  191.5310  176.9220  140.6140 O   0  0  0  0  0  1  0  0  0  0  0  0
  188.9020  179.2630  139.8480 O   0  0  0  0  0  0  0  0  0  0  0  0
  188.4330  178.1830  140.2990 C   0  0  0  0  0  0  0  0  0  0  0  0
  188.8160  176.9310  139.7160 N   0  0  0  0  0  2  0  0  0  0  0  0
  186.2260  178.8440  141.2540 C   0  0  0  0  0  3  0  0  0  0  0  0
  185.6060  178.2320  143.5180 C   0  0  0  0  0  3  0  0  0  0  0  0
  187.4640  178.2110  141.4120 C   0  0  0  0  0  0  0  0  0  0  0  0
  185.2990  178.8550  142.3040 C   0  0  0  0  0  3  0  0  0  0  0  0
  187.7660  177.5930  142.6350 C   0  0  0  0  0  3  0  0  0  0  0  0
  186.8400  177.6010  143.6860 C   0  0  0  0  0  3  0  0  0  0  0  0
  188.1950  176.3760  137.0390 C   0  0  2  0  0  3  0  0  0  0  0  0
  187.0530  172.2310  137.3000 O   0  0  0  0  0  0  0  0  0  0  0  0
  188.2960  172.3410  135.2090 C   0  0  0  0  0  1  0  0  0  0  0  0
  187.7430  174.9640  136.6520 C   0  0  1  0  0  3  0  0  0  0  0  0
  188.3330  172.5290  136.7270 C   0  0  1  0  0  3  0  0  0  0  0  0
  188.7870  173.9420  137.1100 C   0  0  0  0  0  2  0  0  0  0  0  0
  186.3200  174.6560  137.1340 C   0  0  0  0  0  2  0  0  0  0  0  0
  184.9390  172.8620  137.9310 O   0  0  0  0  0  0  0  0  0  0  0  0
  186.0570  173.2010  137.4540 C   0  0  0  0  0  0  0  0  0  0  0  0
  187.7110  177.4910  136.1140 C   0  0  0  0  0  2  0  0  0  0  0  0
  186.0990  178.5220  137.7140 O   0  0  0  0  0  1  0  0  0  0  0  0
  187.2220  178.6540  136.9060 C   0  0  0  0  0  0  0  0  0  0  0  0
  187.8120  179.7640  136.8180 O   0  0  0  0  0  0  0  0  0  0  0  0
  1  5  1  0  0  0  0
  1 13  1  0  0  0  0
  2  1  2  0  0  0  0
  3  9  1  0  0  0  0
  4  9  2  0  0  0  0
  4  2  1  0  0  0  0
  5 10  1  0  0  0  0
  6  4  1  0  0  0  0
  7  8  1  0  0  0  0
  7  5  2  0  0  0  0
  9  7  1  0  0  0  0
 11 12  2  0  0  0  0
 12 16  1  0  0  0  0
 13 12  1  0  0  0  0
 14 16  2  0  0  0  0
 14 17  1  0  0  0  0
 15 19  1  0  0  0  0
 16 18  1  0  0  0  0
 17 15  2  0  0  0  0
 18 19  2  0  0  0  0
 20 29  1  6  0  0  0
 20  2  1  0  0  0  0
 21 28  1  0  0  0  0
 23 20  1  1  0  0  0
 23 25  1  0  0  0  0
 23 26  1  0  0  0  0
 24 22  1  6  0  0  0
 24 25  1  0  0  0  0
 24 21  1  0  0  0  0
 26 28  1  0  0  0  0
 28 27  2  0  0  0  0
 29 31  1  0  0  0  0
 31 30  1  0  0  0  0
 32 31  2  0  0  0  0
M  END
>  <MODEL>
1

>  <REMARK>
 VINA RESULT:      -7.0      0.000      0.000
  Name = 
  6 active torsions:
  status: ('A' for Active; 'I' for Inactive)
    1  A    between atoms: C_2  and  C_20
    2  A    between atoms: C_3  and  C_7
    3  A    between atoms: C_3  and  C_11
    4  A    between atoms: C_3  and  C_30
    5  A    between atoms: C_5  and  N_22
    6  A    between atoms: C_18  and  C_30
                            x       y       z     vdW  Elec       q    Type
                         _______ _______ _______ _____ _____    ______ ____

>  <TORSDO>
F 6

$$$$
=
 OpenBabel11062412423D

 32 34  0  0  1  0  0  0  0  0999 V2000
  190.2020  176.8980  139.5120 C   0  0  0  0  0  0  0  0  0  0  0  0
  190.0770  176.6220  138.1380 C   0  0  0  0  0  0  0  0  0  0  0  0
  193.6510  176.6760  137.1350 O   0  0  0  0  0  1  0  0  0  0  0  0
  191.2420  176.5500  137.3310 C   0  0  0  0  0  0  0  0  0  0  0  0
  191.4820  177.0220  140.0870 C   0  0  0  0  0  0  0  0  0  0  0  0
  191.1610  176.3350  135.5860 Cl  0  0  0  0  0  0  0  0  0  0  0  0
  192.6240  176.9340  139.2880 C   0  0  0  0  0  0  0  0  0  0  0  0
  193.8860  177.0580  139.8660 O   0  0  0  0  0  1  0  0  0  0  0  0
  192.5070  176.7130  137.9160 C   0  0  0  0  0  0  0  0  0  0  0  0
  191.6260  177.2000  141.4560 O   0  0  0  0  0  1  0  0  0  0  0  0
  188.6380  179.3130  140.0370 O   0  0  0  0  0  0  0  0  0  0  0  0
  188.3490  178.2480  140.6470 C   0  0  0  0  0  0  0  0  0  0  0  0
  189.0110  177.0220  140.3120 N   0  0  0  0  0  2  0  0  0  0  0  0
  187.5500  177.6870  142.9420 C   0  0  0  0  0  3  0  0  0  0  0  0
  185.3270  178.3160  143.6830 C   0  0  0  0  0  3  0  0  0  0  0  0
  187.3040  178.2600  141.6880 C   0  0  0  0  0  0  0  0  0  0  0  0
  186.5640  177.7140  143.9360 C   0  0  0  0  0  3  0  0  0  0  0  0
  186.0570  178.8560  141.4410 C   0  0  0  0  0  3  0  0  0  0  0  0
  185.0710  178.8880  142.4350 C   0  0  0  0  0  3  0  0  0  0  0  0
  188.6800  176.4380  137.5900 C   0  0  2  0  0  3  0  0  0  0  0  0
  187.8520  172.7100  135.5970 O   0  0  0  0  0  0  0  0  0  0  0  0
  186.2070  172.7650  137.3920 C   0  0  0  0  0  1  0  0  0  0  0  0
  188.3020  174.9750  137.3390 C   0  0  1  0  0  3  0  0  0  0  0  0
  186.7350  173.4390  136.1250 C   0  0  1  0  0  3  0  0  0  0  0  0
  187.1120  174.9040  136.3780 C   0  0  0  0  0  2  0  0  0  0  0  0
  189.5040  174.1290  136.9010 C   0  0  0  0  0  2  0  0  0  0  0  0
  190.1020  172.2660  135.5130 O   0  0  0  0  0  0  0  0  0  0  0  0
  189.1690  172.9720  135.9870 C   0  0  0  0  0  0  0  0  0  0  0  0
  188.2710  177.4150  136.4890 C   0  0  0  0  0  2  0  0  0  0  0  0
  186.2450  178.0820  137.7820 O   0  0  0  0  0  1  0  0  0  0  0  0
  187.3500  178.4550  137.0250 C   0  0  0  0  0  0  0  0  0  0  0  0
  187.5590  179.6700  136.7650 O   0  0  0  0  0  0  0  0  0  0  0  0
  1  5  1  0  0  0  0
  1 13  1  0  0  0  0
  2  1  2  0  0  0  0
  3  9  1  0  0  0  0
  4  9  2  0  0  0  0
  4  2  1  0  0  0  0
  5 10  1  0  0  0  0
  6  4  1  0  0  0  0
  7  8  1  0  0  0  0
  7  5  2  0  0  0  0
  9  7  1  0  0  0  0
 11 12  2  0  0  0  0
 12 16  1  0  0  0  0
 13 12  1  0  0  0  0
 14 17  1  0  0  0  0
 15 17  2  0  0  0  0
 16 14  2  0  0  0  0
 18 16  1  0  0  0  0
 18 19  2  0  0  0  0
 19 15  1  0  0  0  0
 20 29  1  6  0  0  0
 20  2  1  0  0  0  0
 21 28  1  0  0  0  0
 21 24  1  0  0  0  0
 23 20  1  6  0  0  0
 24 25  1  0  0  0  0
 24 22  1  1  0  0  0
 25 23  1  0  0  0  0
 26 23  1  0  0  0  0
 27 28  2  0  0  0  0
 28 26  1  0  0  0  0
 29 31  1  0  0  0  0
 31 30  1  0  0  0  0
 32 31  2  0  0  0  0
M  END
>  <MODEL>
2

>  <REMARK>
 VINA RESULT:      -6.7      1.043      1.880
  Name = 
  6 active torsions:
  status: ('A' for Active; 'I' for Inactive)
    1  A    between atoms: C_2  and  C_20
    2  A    between atoms: C_3  and  C_7
    3  A    between atoms: C_3  and  C_11
    4  A    between atoms: C_3  and  C_30
    5  A    between atoms: C_5  and  N_22
    6  A    between atoms: C_18  and  C_30
                            x       y       z     vdW  Elec       q    Type
                         _______ _______ _______ _____ _____    ______ ____

>  <TORSDO>
F 6

$$$$
=
 OpenBabel11062412423D

 32 34  0  0  1  0  0  0  0  0999 V2000
  182.4560  178.9750  138.5670 C   0  0  0  0  0  0  0  0  0  0  0  0
  182.6320  178.0100  137.5590 C   0  0  0  0  0  0  0  0  0  0  0  0
  180.4810  179.4500  134.8970 O   0  0  0  0  0  1  0  0  0  0  0  0
  181.9620  178.1660  136.3180 C   0  0  0  0  0  0  0  0  0  0  0  0
  181.6840  180.1240  138.3090 C   0  0  0  0  0  0  0  0  0  0  0  0
  182.0290  176.9410  135.0570 Cl  0  0  0  0  0  0  0  0  0  0  0  0
  181.0400  180.2780  137.0790 C   0  0  0  0  0  0  0  0  0  0  0  0
  180.2770  181.4180  136.8330 O   0  0  0  0  0  1  0  0  0  0  0  0
  181.1660  179.3000  136.0930 C   0  0  0  0  0  0  0  0  0  0  0  0
  181.5780  181.1320  139.2580 O   0  0  0  0  0  1  0  0  0  0  0  0
  181.2030  178.2890  141.1190 O   0  0  0  0  0  0  0  0  0  0  0  0
  182.4320  178.5710  141.0930 C   0  0  0  0  0  0  0  0  0  0  0  0
  183.0980  178.7810  139.8410 N   0  0  0  0  0  2  0  0  0  0  0  0
  182.5420  178.9900  143.5490 C   0  0  0  0  0  3  0  0  0  0  0  0
  184.6320  178.7790  144.7640 C   0  0  0  0  0  3  0  0  0  0  0  0
  183.1910  178.6560  142.3550 C   0  0  0  0  0  0  0  0  0  0  0  0
  183.2600  179.0530  144.7500 C   0  0  0  0  0  3  0  0  0  0  0  0
  184.5690  178.3890  142.3770 C   0  0  0  0  0  3  0  0  0  0  0  0
  185.2890  178.4480  143.5770 C   0  0  0  0  0  3  0  0  0  0  0  0
  183.5220  176.8290  137.8740 C   0  0  2  0  0  3  0  0  0  0  0  0
  187.7930  176.5980  137.3550 O   0  0  0  0  0  0  0  0  0  0  0  0
  187.1930  178.6440  136.1780 C   0  0  0  0  0  1  0  0  0  0  0  0
  184.9200  176.9270  137.2550 C   0  0  1  0  0  3  0  0  0  0  0  0
  187.2160  177.9010  137.5150 C   0  0  1  0  0  3  0  0  0  0  0  0
  185.8160  177.8060  138.1320 C   0  0  0  0  0  2  0  0  0  0  0  0
  185.5180  175.5490  136.9430 C   0  0  0  0  0  2  0  0  0  0  0  0
  187.6030  174.3650  136.8630 O   0  0  0  0  0  0  0  0  0  0  0  0
  187.0260  175.4750  137.0280 C   0  0  0  0  0  0  0  0  0  0  0  0
  182.8580  175.4580  137.7700 C   0  0  0  0  0  2  0  0  0  0  0  0
  180.3720  175.3890  137.9560 O   0  0  0  0  0  0  0  0  0  0  0  0
  181.6110  175.4160  138.5840 C   0  0  0  0  0  0  0  0  0  0  0  0
  181.6840  175.4350  139.8420 O   0  0  0  0  0  1  0  0  0  0  0  0
  1 13  1  0  0  0  0
  2 20  1  0  0  0  0
  2  1  2  0  0  0  0
  3  9  1  0  0  0  0
  4  2  1  0  0  0  0
  5  1  1  0  0  0  0
  5 10  1  0  0  0  0
  6  4  1  0  0  0  0
  7  5  2  0  0  0  0
  8  7  1  0  0  0  0
  9  4  2  0  0  0  0
  9  7  1  0  0  0  0
 12 11  2  0  0  0  0
 12 16  1  0  0  0  0
 13 12  1  0  0  0  0
 14 17  1  0  0  0  0
 16 18  1  0  0  0  0
 16 14  2  0  0  0  0
 17 15  2  0  0  0  0
 18 19  2  0  0  0  0
 19 15  1  0  0  0  0
 20 29  1  6  0  0  0
 21 24  1  0  0  0  0
 23 20  1  1  0  0  0
 23 25  1  0  0  0  0
 24 22  1  6  0  0  0
 24 25  1  0  0  0  0
 26 28  1  0  0  0  0
 26 23  1  0  0  0  0
 27 28  2  0  0  0  0
 28 21  1  0  0  0  0
 29 31  1  0  0  0  0
 30 31  2  0  0  0  0
 31 32  1  0  0  0  0
M  END
>  <MODEL>
3

>  <REMARK>
 VINA RESULT:      -6.2      4.325      7.260
  Name = 
  6 active torsions:
  status: ('A' for Active; 'I' for Inactive)
    1  A    between atoms: C_2  and  C_20
    2  A    between atoms: C_3  and  C_7
    3  A    between atoms: C_3  and  C_11
    4  A    between atoms: C_3  and  C_30
    5  A    between atoms: C_5  and  N_22
    6  A    between atoms: C_18  and  C_30
                            x       y       z     vdW  Elec       q    Type
                         _______ _______ _______ _____ _____    ______ ____

>  <TORSDO>
F 6

$$$$
=
 OpenBabel11062412423D

 32 34  0  0  1  0  0  0  0  0999 V2000
  185.7880  177.8220  138.4400 C   0  0  0  0  0  0  0  0  0  0  0  0
  185.0740  177.3310  137.3320 C   0  0  0  0  0  0  0  0  0  0  0  0
  187.5640  177.9100  134.6400 O   0  0  0  0  0  1  0  0  0  0  0  0
  185.6700  177.3640  136.0450 C   0  0  0  0  0  0  0  0  0  0  0  0
  187.1150  178.2650  138.2750 C   0  0  0  0  0  0  0  0  0  0  0  0
  184.7940  176.8880  134.5940 Cl  0  0  0  0  0  0  0  0  0  0  0  0
  187.7000  178.2790  137.0070 C   0  0  0  0  0  0  0  0  0  0  0  0
  189.0140  178.7200  136.8540 O   0  0  0  0  0  1  0  0  0  0  0  0
  186.9800  177.8440  135.8960 C   0  0  0  0  0  0  0  0  0  0  0  0
  187.8670  178.6630  139.3720 O   0  0  0  0  0  1  0  0  0  0  0  0
  184.5050  180.0790  139.7860 O   0  0  0  0  0  0  0  0  0  0  0  0
  184.6500  178.9920  140.4090 C   0  0  0  0  0  0  0  0  0  0  0  0
  185.1540  177.8330  139.7320 N   0  0  0  0  0  2  0  0  0  0  0  0
  182.9230  178.9030  142.2060 C   0  0  0  0  0  3  0  0  0  0  0  0
  183.5530  178.7070  144.5410 C   0  0  0  0  0  3  0  0  0  0  0  0
  184.2720  178.9070  141.8330 C   0  0  0  0  0  0  0  0  0  0  0  0
  182.5640  178.8050  143.5560 C   0  0  0  0  0  3  0  0  0  0  0  0
  185.2580  178.8160  142.8280 C   0  0  0  0  0  3  0  0  0  0  0  0
  184.9010  178.7130  144.1790 C   0  0  0  0  0  3  0  0  0  0  0  0
  183.6750  176.8120  137.5810 C   0  0  2  0  0  3  0  0  0  0  0  0
  182.5040  172.6880  137.1550 O   0  0  0  0  0  0  0  0  0  0  0  0
  184.4950  172.8540  135.7630 C   0  0  0  0  0  1  0  0  0  0  0  0
  183.4130  175.4280  136.9770 C   0  0  1  0  0  3  0  0  0  0  0  0
  183.9080  172.9780  137.1700 C   0  0  1  0  0  3  0  0  0  0  0  0
  184.1720  174.3630  137.7720 C   0  0  0  0  0  2  0  0  0  0  0  0
  181.9160  175.1350  136.8190 C   0  0  0  0  0  2  0  0  0  0  0  0
  180.3200  173.3450  136.8950 O   0  0  0  0  0  0  0  0  0  0  0  0
  181.5380  173.6750  136.9340 C   0  0  0  0  0  0  0  0  0  0  0  0
  182.5510  177.8290  137.3920 C   0  0  0  0  0  2  0  0  0  0  0  0
  181.7100  177.0480  139.6060 O   0  0  0  0  0  1  0  0  0  0  0  0
  181.8440  178.0740  138.6790 C   0  0  0  0  0  0  0  0  0  0  0  0
  181.3430  179.2070  138.9120 O   0  0  0  0  0  0  0  0  0  0  0  0
  1 13  1  0  0  0  0
  2 20  1  0  0  0  0
  2  1  2  0  0  0  0
  3  9  1  0  0  0  0
  4  2  1  0  0  0  0
  5  1  1  0  0  0  0
  5 10  1  0  0  0  0
  6  4  1  0  0  0  0
  7  5  2  0  0  0  0
  8  7  1  0  0  0  0
  9  4  2  0  0  0  0
  9  7  1  0  0  0  0
 11 12  2  0  0  0  0
 12 16  1  0  0  0  0
 13 12  1  0  0  0  0
 14 17  1  0  0  0  0
 16 14  2  0  0  0  0
 16 18  1  0  0  0  0
 17 15  2  0  0  0  0
 18 19  2  0  0  0  0
 19 15  1  0  0  0  0
 20 29  1  6  0  0  0
 21 24  1  0  0  0  0
 23 20  1  1  0  0  0
 23 25  1  0  0  0  0
 24 22  1  6  0  0  0
 24 25  1  0  0  0  0
 26 28  1  0  0  0  0
 26 23  1  0  0  0  0
 27 28  2  0  0  0  0
 28 21  1  0  0  0  0
 29 31  1  0  0  0  0
 31 32  2  0  0  0  0
 31 30  1  0  0  0  0
M  END
>  <MODEL>
4

>  <REMARK>
 VINA RESULT:      -6.2      3.354      4.580
  Name = 
  6 active torsions:
  status: ('A' for Active; 'I' for Inactive)
    1  A    between atoms: C_2  and  C_20
    2  A    between atoms: C_3  and  C_7
    3  A    between atoms: C_3  and  C_11
    4  A    between atoms: C_3  and  C_30
    5  A    between atoms: C_5  and  N_22
    6  A    between atoms: C_18  and  C_30
                            x       y       z     vdW  Elec       q    Type
                         _______ _______ _______ _____ _____    ______ ____

>  <TORSDO>
F 6

$$$$
=
 OpenBabel11062412423D

 32 34  0  0  1  0  0  0  0  0999 V2000
  185.4760  177.7540  138.4160 C   0  0  0  0  0  0  0  0  0  0  0  0
  184.7390  177.2370  137.3350 C   0  0  0  0  0  0  0  0  0  0  0  0
  187.2020  177.6860  134.5940 O   0  0  0  0  0  1  0  0  0  0  0  0
  185.3190  177.2160  136.0410 C   0  0  0  0  0  0  0  0  0  0  0  0
  186.8060  178.1710  138.2200 C   0  0  0  0  0  0  0  0  0  0  0  0
  184.4180  176.7050  134.6180 Cl  0  0  0  0  0  0  0  0  0  0  0  0
  187.3750  178.1330  136.9450 C   0  0  0  0  0  0  0  0  0  0  0  0
  188.6930  178.5490  136.7600 O   0  0  0  0  0  1  0  0  0  0  0  0
  186.6340  177.6710  135.8580 C   0  0  0  0  0  0  0  0  0  0  0  0
  187.5790  178.5940  139.2930 O   0  0  0  0  0  1  0  0  0  0  0  0
  184.5100  180.1290  139.8240 O   0  0  0  0  0  0  0  0  0  0  0  0
  184.5160  179.0190  140.4220 C   0  0  0  0  0  0  0  0  0  0  0  0
  184.8590  177.8200  139.7150 N   0  0  0  0  0  2  0  0  0  0  0  0
  182.7940  178.9010  142.2220 C   0  0  0  0  0  3  0  0  0  0  0  0
  183.4300  178.7870  144.5600 C   0  0  0  0  0  3  0  0  0  0  0  0
  184.1420  178.9520  141.8480 C   0  0  0  0  0  0  0  0  0  0  0  0
  182.4390  178.8190  143.5740 C   0  0  0  0  0  3  0  0  0  0  0  0
  185.1300  178.9260  142.8440 C   0  0  0  0  0  3  0  0  0  0  0  0
  184.7770  178.8410  144.1970 C   0  0  0  0  0  3  0  0  0  0  0  0
  183.3360  176.7470  137.6200 C   0  0  2  0  0  3  0  0  0  0  0  0
  179.7690  179.1010  138.1570 O   0  0  0  0  0  0  0  0  0  0  0  0
  181.5290  180.7760  138.0010 C   0  0  0  0  0  1  0  0  0  0  0  0
  182.3770  177.8520  138.0720 C   0  0  1  0  0  3  0  0  0  0  0  0
  180.7900  179.6340  137.3020 C   0  0  1  0  0  3  0  0  0  0  0  0
  181.7530  178.5310  136.8490 C   0  0  0  0  0  2  0  0  0  0  0  0
  181.3490  177.3500  139.0940 C   0  0  0  0  0  2  0  0  0  0  0  0
  179.0800  177.6640  139.8070 O   0  0  0  0  0  0  0  0  0  0  0  0
  180.0140  178.0600  139.0570 C   0  0  0  0  0  0  0  0  0  0  0  0
  183.2420  175.4400  138.4040 C   0  0  0  0  0  2  0  0  0  0  0  0
  184.8200  173.6010  137.8150 O   0  0  0  0  0  1  0  0  0  0  0  0
  183.6410  174.2870  137.5510 C   0  0  0  0  0  0  0  0  0  0  0  0
  182.9200  173.9540  136.5720 O   0  0  0  0  0  0  0  0  0  0  0  0
  1 13  1  0  0  0  0
  2 20  1  0  0  0  0
  2  1  2  0  0  0  0
  3  9  1  0  0  0  0
  4  2  1  0  0  0  0
  5  1  1  0  0  0  0
  5 10  1  0  0  0  0
  6  4  1  0  0  0  0
  7  5  2  0  0  0  0
  8  7  1  0  0  0  0
  9  4  2  0  0  0  0
  9  7  1  0  0  0  0
 11 12  2  0  0  0  0
 12 16  1  0  0  0  0
 13 12  1  0  0  0  0
 14 17  1  0  0  0  0
 16 14  2  0  0  0  0
 16 18  1  0  0  0  0
 17 15  2  0  0  0  0
 18 19  2  0  0  0  0
 19 15  1  0  0  0  0
 20 29  1  1  0  0  0
 21 28  1  0  0  0  0
 23 20  1  6  0  0  0
 23 26  1  0  0  0  0
 24 22  1  1  0  0  0
 24 21  1  0  0  0  0
 25 24  1  0  0  0  0
 25 23  1  0  0  0  0
 28 26  1  0  0  0  0
 28 27  2  0  0  0  0
 31 30  1  0  0  0  0
 31 29  1  0  0  0  0
 32 31  2  0  0  0  0
M  END
>  <MODEL>
5

>  <REMARK>
 VINA RESULT:      -6.1      3.821      6.042
  Name = 
  6 active torsions:
  status: ('A' for Active; 'I' for Inactive)
    1  A    between atoms: C_2  and  C_20
    2  A    between atoms: C_3  and  C_7
    3  A    between atoms: C_3  and  C_11
    4  A    between atoms: C_3  and  C_30
    5  A    between atoms: C_5  and  N_22
    6  A    between atoms: C_18  and  C_30
                            x       y       z     vdW  Elec       q    Type
                         _______ _______ _______ _____ _____    ______ ____

>  <TORSDO>
F 6

$$$$
=
 OpenBabel11062412423D

 32 34  0  0  1  0  0  0  0  0999 V2000
  183.6050  177.5200  138.7500 C   0  0  0  0  0  0  0  0  0  0  0  0
  182.3040  177.5680  138.2170 C   0  0  0  0  0  0  0  0  0  0  0  0
  183.0720  177.2830  134.5960 O   0  0  0  0  0  1  0  0  0  0  0  0
  182.1210  177.4930  136.8130 C   0  0  0  0  0  0  0  0  0  0  0  0
  184.7040  177.3170  137.8940 C   0  0  0  0  0  0  0  0  0  0  0  0
  180.5390  177.6740  136.0630 Cl  0  0  0  0  0  0  0  0  0  0  0  0
  184.5140  177.2280  136.5130 C   0  0  0  0  0  0  0  0  0  0  0  0
  185.6080  177.0270  135.6730 O   0  0  0  0  0  1  0  0  0  0  0  0
  183.2330  177.3280  135.9720 C   0  0  0  0  0  0  0  0  0  0  0  0
  185.9840  177.1710  138.4110 O   0  0  0  0  0  1  0  0  0  0  0  0
  184.8090  179.7520  140.2070 O   0  0  0  0  0  0  0  0  0  0  0  0
  184.4940  178.7060  140.8360 C   0  0  0  0  0  0  0  0  0  0  0  0
  183.7840  177.6510  140.1730 N   0  0  0  0  0  2  0  0  0  0  0  0
  183.9280  179.0030  143.2460 C   0  0  0  0  0  3  0  0  0  0  0  0
  185.4640  178.3040  144.9900 C   0  0  0  0  0  3  0  0  0  0  0  0
  184.8330  178.5790  142.2660 C   0  0  0  0  0  0  0  0  0  0  0  0
  184.2430  178.8670  144.6040 C   0  0  0  0  0  3  0  0  0  0  0  0
  186.0590  178.0220  142.6610 C   0  0  0  0  0  3  0  0  0  0  0  0
  186.3740  177.8810  144.0190 C   0  0  0  0  0  3  0  0  0  0  0  0
  181.1580  177.7260  139.1920 C   0  0  2  0  0  3  0  0  0  0  0  0
  179.1900  181.2450  140.7100 O   0  0  0  0  0  0  0  0  0  0  0  0
  180.3550  182.0610  138.7330 C   0  0  0  0  0  1  0  0  0  0  0  0
  180.8710  179.1810  139.5780 C   0  0  1  0  0  3  0  0  0  0  0  0
  179.2940  181.1080  139.2860 C   0  0  1  0  0  3  0  0  0  0  0  0
  179.5830  179.6530  138.8980 C   0  0  0  0  0  2  0  0  0  0  0  0
  180.8850  179.3950  141.0960 C   0  0  0  0  0  2  0  0  0  0  0  0
  179.8560  180.6900  142.8340 O   0  0  0  0  0  0  0  0  0  0  0  0
  179.9690  180.4920  141.5930 C   0  0  0  0  0  0  0  0  0  0  0  0
  181.1360  176.7290  140.3490 C   0  0  0  0  0  2  0  0  0  0  0  0
  179.4990  175.3140  139.1080 O   0  0  0  0  0  0  0  0  0  0  0  0
  179.9000  175.8990  140.3020 C   0  0  0  0  0  0  0  0  0  0  0  0
  179.2040  175.7550  141.3440 O   0  0  0  0  0  1  0  0  0  0  0  0
  1 13  1  0  0  0  0
  2  1  1  0  0  0  0
  2 20  1  0  0  0  0
  3  9  1  0  0  0  0
  4  2  2  0  0  0  0
  5 10  1  0  0  0  0
  5  1  2  0  0  0  0
  6  4  1  0  0  0  0
  7  5  1  0  0  0  0
  8  7  1  0  0  0  0
  9  7  2  0  0  0  0
  9  4  1  0  0  0  0
 11 12  2  0  0  0  0
 12 16  1  0  0  0  0
 13 12  1  0  0  0  0
 14 17  1  0  0  0  0
 16 18  1  0  0  0  0
 16 14  2  0  0  0  0
 17 15  2  0  0  0  0
 18 19  2  0  0  0  0
 19 15  1  0  0  0  0
 20 29  1  1  0  0  0
 21 28  1  0  0  0  0
 23 20  1  1  0  0  0
 23 26  1  0  0  0  0
 24 22  1  1  0  0  0
 24 21  1  0  0  0  0
 25 24  1  0  0  0  0
 25 23  1  0  0  0  0
 26 28  1  0  0  0  0
 28 27  2  0  0  0  0
 30 31  2  0  0  0  0
 31 29  1  0  0  0  0
 31 32  1  0  0  0  0
M  END
>  <MODEL>
6

>  <REMARK>
 VINA RESULT:      -6.1      5.080      8.081
  Name = 
  6 active torsions:
  status: ('A' for Active; 'I' for Inactive)
    1  A    between atoms: C_2  and  C_20
    2  A    between atoms: C_3  and  C_7
    3  A    between atoms: C_3  and  C_11
    4  A    between atoms: C_3  and  C_30
    5  A    between atoms: C_5  and  N_22
    6  A    between atoms: C_18  and  C_30
                            x       y       z     vdW  Elec       q    Type
                         _______ _______ _______ _____ _____    ______ ____

>  <TORSDO>
F 6

$$$$
=
 OpenBabel11062412423D

 32 34  0  0  1  0  0  0  0  0999 V2000
  182.9050  178.1990  141.0080 C   0  0  0  0  0  0  0  0  0  0  0  0
  181.5400  178.4030  140.7390 C   0  0  0  0  0  0  0  0  0  0  0  0
  180.3400  179.3440  144.1240 O   0  0  0  0  0  1  0  0  0  0  0  0
  180.6690  178.7860  141.7910 C   0  0  0  0  0  0  0  0  0  0  0  0
  183.4090  178.4530  142.2980 C   0  0  0  0  0  0  0  0  0  0  0  0
  178.9310  178.9360  141.5610 Cl  0  0  0  0  0  0  0  0  0  0  0  0
  182.5470  178.8460  143.3260 C   0  0  0  0  0  0  0  0  0  0  0  0
  183.0550  179.0940  144.6000 O   0  0  0  0  0  1  0  0  0  0  0  0
  181.1840  178.9990  143.0790 C   0  0  0  0  0  0  0  0  0  0  0  0
  184.7690  178.3490  142.5590 O   0  0  0  0  0  1  0  0  0  0  0  0
  184.9290  179.7570  139.5830 O   0  0  0  0  0  0  0  0  0  0  0  0
  184.6590  178.5900  139.1880 C   0  0  0  0  0  0  0  0  0  0  0  0
  183.7700  177.7590  139.9450 N   0  0  0  0  0  2  0  0  0  0  0  0
  186.6590  178.2290  137.7420 C   0  0  0  0  0  3  0  0  0  0  0  0
  186.4810  177.0460  135.6310 C   0  0  0  0  0  3  0  0  0  0  0  0
  185.2850  178.0700  137.9570 C   0  0  0  0  0  0  0  0  0  0  0  0
  187.2550  177.7190  136.5810 C   0  0  0  0  0  3  0  0  0  0  0  0
  184.5140  177.3990  136.9950 C   0  0  0  0  0  3  0  0  0  0  0  0
  185.1100  176.8850  135.8350 C   0  0  0  0  0  3  0  0  0  0  0  0
  181.0690  178.1730  139.3190 C   0  0  2  0  0  3  0  0  0  0  0  0
  181.1460  181.7000  136.8480 O   0  0  0  0  0  0  0  0  0  0  0  0
  179.7480  182.3620  138.7290 C   0  0  0  0  0  1  0  0  0  0  0  0
  180.6380  179.4530  138.5970 C   0  0  1  0  0  3  0  0  0  0  0  0
  181.1290  181.8900  138.2700 C   0  0  1  0  0  3  0  0  0  0  0  0
  181.5580  180.6100  138.9950 C   0  0  0  0  0  2  0  0  0  0  0  0
  180.5140  179.2530  137.0810 C   0  0  0  0  0  2  0  0  0  0  0  0
  180.8040  180.3960  134.9920 O   0  0  0  0  0  0  0  0  0  0  0  0
  180.8050  180.4830  136.2500 C   0  0  0  0  0  0  0  0  0  0  0  0
  180.1510  176.9690  139.1180 C   0  0  0  0  0  2  0  0  0  0  0  0
  182.0520  175.4110  138.6940 O   0  0  0  0  0  0  0  0  0  0  0  0
  180.8820  175.7000  139.3870 C   0  0  0  0  0  0  0  0  0  0  0  0
  180.4210  174.8780  140.2230 O   0  0  0  0  0  1  0  0  0  0  0  0
  1  5  1  0  0  0  0
  2  1  2  0  0  0  0
  2  4  1  0  0  0  0
  4  9  2  0  0  0  0
  5 10  1  0  0  0  0
  5  7  2  0  0  0  0
  6  4  1  0  0  0  0
  7  8  1  0  0  0  0
  9  7  1  0  0  0  0
  9  3  1  0  0  0  0
 12 11  2  0  0  0  0
 12 13  1  0  0  0  0
 13  1  1  0  0  0  0
 14 16  1  0  0  0  0
 15 19  2  0  0  0  0
 15 17  1  0  0  0  0
 16 12  1  0  0  0  0
 17 14  2  0  0  0  0
 18 16  2  0  0  0  0
 19 18  1  0  0  0  0
 20 29  1  1  0  0  0
 20  2  1  0  0  0  0
 21 24  1  0  0  0  0
 23 25  1  0  0  0  0
 23 20  1  1  0  0  0
 24 22  1  1  0  0  0
 24 25  1  0  0  0  0
 26 23  1  0  0  0  0
 27 28  2  0  0  0  0
 28 21  1  0  0  0  0
 28 26  1  0  0  0  0
 29 31  1  0  0  0  0
 30 31  2  0  0  0  0
 31 32  1  0  0  0  0
M  END
>  <MODEL>
7

>  <REMARK>
 VINA RESULT:      -6.0      5.477      9.184
  Name = 
  6 active torsions:
  status: ('A' for Active; 'I' for Inactive)
    1  A    between atoms: C_2  and  C_20
    2  A    between atoms: C_3  and  C_7
    3  A    between atoms: C_3  and  C_11
    4  A    between atoms: C_3  and  C_30
    5  A    between atoms: C_5  and  N_22
    6  A    between atoms: C_18  and  C_30
                            x       y       z     vdW  Elec       q    Type
                         _______ _______ _______ _____ _____    ______ ____

>  <TORSDO>
F 6

$$$$
=
 OpenBabel11062412423D

 32 34  0  0  1  0  0  0  0  0999 V2000
  188.6090  176.8980  138.5930 C   0  0  0  0  0  0  0  0  0  0  0  0
  187.8510  176.8540  137.4090 C   0  0  0  0  0  0  0  0  0  0  0  0
  190.5780  176.7790  134.8910 O   0  0  0  0  0  1  0  0  0  0  0  0
  188.5140  176.8180  136.1560 C   0  0  0  0  0  0  0  0  0  0  0  0
  190.0130  176.8250  138.5270 C   0  0  0  0  0  0  0  0  0  0  0  0
  187.6390  176.8900  134.6300 Cl  0  0  0  0  0  0  0  0  0  0  0  0
  190.6580  176.7740  137.2890 C   0  0  0  0  0  0  0  0  0  0  0  0
  192.0500  176.7030  137.2340 O   0  0  0  0  0  1  0  0  0  0  0  0
  189.9160  176.7830  136.1090 C   0  0  0  0  0  0  0  0  0  0  0  0
  190.7730  176.7720  139.6880 O   0  0  0  0  0  1  0  0  0  0  0  0
  188.3280  179.2460  140.3140 O   0  0  0  0  0  0  0  0  0  0  0  0
  187.9220  178.1270  140.7300 C   0  0  0  0  0  0  0  0  0  0  0  0
  187.9270  176.9880  139.8580 N   0  0  0  0  0  2  0  0  0  0  0  0
  186.1080  178.3930  142.4210 C   0  0  0  0  0  3  0  0  0  0  0  0
  186.4350  177.7120  144.7260 C   0  0  0  0  0  3  0  0  0  0  0  0
  187.4140  177.9960  142.1090 C   0  0  0  0  0  0  0  0  0  0  0  0
  185.6210  178.2530  143.7260 C   0  0  0  0  0  3  0  0  0  0  0  0
  188.2270  177.4600  143.1200 C   0  0  0  0  0  3  0  0  0  0  0  0
  187.7400  177.3160  144.4250 C   0  0  0  0  0  3  0  0  0  0  0  0
  186.3440  176.8730  137.5470 C   0  0  2  0  0  3  0  0  0  0  0  0
  183.9940  173.3980  136.5680 O   0  0  0  0  0  0  0  0  0  0  0  0
  185.8080  173.3260  134.9450 C   0  0  0  0  0  1  0  0  0  0  0  0
  185.6380  175.7720  136.7510 C   0  0  1  0  0  3  0  0  0  0  0  0
  185.4170  173.2960  136.4230 C   0  0  1  0  0  3  0  0  0  0  0  0
  186.1270  174.3980  137.2180 C   0  0  0  0  0  2  0  0  0  0  0  0
  184.1120  175.9260  136.7700 C   0  0  0  0  0  2  0  0  0  0  0  0
  182.0800  174.6490  136.7630 O   0  0  0  0  0  0  0  0  0  0  0  0
  183.3390  174.6290  136.6770 C   0  0  0  0  0  0  0  0  0  0  0  0
  185.6940  178.2530  137.4700 C   0  0  0  0  0  2  0  0  0  0  0  0
  184.3260  177.5530  139.4350 O   0  0  0  0  0  1  0  0  0  0  0  0
  184.9740  178.5650  138.7360 C   0  0  0  0  0  0  0  0  0  0  0  0
  184.9300  179.7530  139.1540 O   0  0  0  0  0  0  0  0  0  0  0  0
  1 13  1  0  0  0  0
  2 20  1  0  0  0  0
  2  1  2  0  0  0  0
  3  9  1  0  0  0  0
  4  2  1  0  0  0  0
  5  1  1  0  0  0  0
  5 10  1  0  0  0  0
  6  4  1  0  0  0  0
  7  5  2  0  0  0  0
  8  7  1  0  0  0  0
  9  4  2  0  0  0  0
  9  7  1  0  0  0  0
 11 12  2  0  0  0  0
 12 16  1  0  0  0  0
 13 12  1  0  0  0  0
 14 17  1  0  0  0  0
 16 14  2  0  0  0  0
 16 18  1  0  0  0  0
 17 15  2  0  0  0  0
 18 19  2  0  0  0  0
 19 15  1  0  0  0  0
 20 29  1  6  0  0  0
 21 28  1  0  0  0  0
 23 26  1  0  0  0  0
 23 25  1  0  0  0  0
 23 20  1  1  0  0  0
 24 22  1  6  0  0  0
 24 21  1  0  0  0  0
 24 25  1  0  0  0  0
 28 27  2  0  0  0  0
 28 26  1  0  0  0  0
 29 31  1  0  0  0  0
 31 32  2  0  0  0  0
 31 30  1  0  0  0  0
M  END
>  <MODEL>
8

>  <REMARK>
 VINA RESULT:      -5.8      1.773      2.271
  Name = 
  6 active torsions:
  status: ('A' for Active; 'I' for Inactive)
    1  A    between atoms: C_2  and  C_20
    2  A    between atoms: C_3  and  C_7
    3  A    between atoms: C_3  and  C_11
    4  A    between atoms: C_3  and  C_30
    5  A    between atoms: C_5  and  N_22
    6  A    between atoms: C_18  and  C_30
                            x       y       z     vdW  Elec       q    Type
                         _______ _______ _______ _____ _____    ______ ____

>  <TORSDO>
F 6

$$$$
=
 OpenBabel11062412423D

 32 34  0  0  1  0  0  0  0  0999 V2000
  185.6630  178.4460  139.2310 C   0  0  0  0  0  0  0  0  0  0  0  0
  184.7080  177.9600  138.3200 C   0  0  0  0  0  0  0  0  0  0  0  0
  186.8430  177.5000  135.3180 O   0  0  0  0  0  1  0  0  0  0  0  0
  185.1030  177.6430  136.9950 C   0  0  0  0  0  0  0  0  0  0  0  0
  187.0140  178.5380  138.8440 C   0  0  0  0  0  0  0  0  0  0  0  0
  183.9450  177.1510  135.7640 Cl  0  0  0  0  0  0  0  0  0  0  0  0
  187.3980  178.2090  137.5420 C   0  0  0  0  0  0  0  0  0  0  0  0
  188.7380  178.3050  137.1680 O   0  0  0  0  0  1  0  0  0  0  0  0
  186.4480  177.7770  136.6180 C   0  0  0  0  0  0  0  0  0  0  0  0
  187.9850  178.9260  139.7580 O   0  0  0  0  0  1  0  0  0  0  0  0
  186.7970  177.5700  141.7800 O   0  0  0  0  0  0  0  0  0  0  0  0
  185.7440  178.2630  141.7810 C   0  0  0  0  0  0  0  0  0  0  0  0
  185.2420  178.8150  140.5570 N   0  0  0  0  0  2  0  0  0  0  0  0
  183.6650  178.7790  143.0590 C   0  0  0  0  0  3  0  0  0  0  0  0
  183.7020  179.0000  145.4750 C   0  0  0  0  0  3  0  0  0  0  0  0
  185.0430  178.5300  143.0520 C   0  0  0  0  0  0  0  0  0  0  0  0
  182.9970  179.0150  144.2670 C   0  0  0  0  0  3  0  0  0  0  0  0
  185.7440  178.5240  144.2680 C   0  0  0  0  0  3  0  0  0  0  0  0
  185.0770  178.7560  145.4770 C   0  0  0  0  0  3  0  0  0  0  0  0
  183.2840  177.8250  138.8120 C   0  0  2  0  0  3  0  0  0  0  0  0
  180.2520  180.8630  139.1800 O   0  0  0  0  0  0  0  0  0  0  0  0
  182.1800  182.0910  138.3400 C   0  0  0  0  0  1  0  0  0  0  0  0
  182.5920  179.1660  139.0780 C   0  0  1  0  0  3  0  0  0  0  0  0
  181.1690  180.9730  138.0820 C   0  0  1  0  0  3  0  0  0  0  0  0
  181.8630  179.6330  137.8150 C   0  0  0  0  0  2  0  0  0  0  0  0
  181.7050  179.1260  140.3280 C   0  0  0  0  0  2  0  0  0  0  0  0
  179.6720  180.0220  141.2350 O   0  0  0  0  0  0  0  0  0  0  0  0
  180.5020  180.0430  140.2850 C   0  0  0  0  0  0  0  0  0  0  0  0
  183.0530  176.7510  139.8730 C   0  0  0  0  0  2  0  0  0  0  0  0
  181.0520  175.2620  139.8470 O   0  0  0  0  0  1  0  0  0  0  0  0
  182.2840  175.6090  139.3050 C   0  0  0  0  0  0  0  0  0  0  0  0
  182.7680  174.9410  138.3520 O   0  0  0  0  0  0  0  0  0  0  0  0
  1 13  1  0  0  0  0
  2 20  1  0  0  0  0
  2  1  2  0  0  0  0
  3  9  1  0  0  0  0
  4  2  1  0  0  0  0
  5  1  1  0  0  0  0
  5 10  1  0  0  0  0
  6  4  1  0  0  0  0
  7  5  2  0  0  0  0
  8  7  1  0  0  0  0
  9  4  2  0  0  0  0
  9  7  1  0  0  0  0
 11 12  2  0  0  0  0
 12 16  1  0  0  0  0
 13 12  1  0  0  0  0
 14 17  1  0  0  0  0
 15 19  1  0  0  0  0
 16 14  2  0  0  0  0
 16 18  1  0  0  0  0
 17 15  2  0  0  0  0
 18 19  2  0  0  0  0
 20 29  1  1  0  0  0
 21 28  1  0  0  0  0
 23 20  1  6  0  0  0
 23 26  1  0  0  0  0
 24 22  1  1  0  0  0
 24 21  1  0  0  0  0
 25 24  1  0  0  0  0
 25 23  1  0  0  0  0
 28 26  1  0  0  0  0
 28 27  2  0  0  0  0
 31 30  1  0  0  0  0
 31 29  1  0  0  0  0
 32 31  2  0  0  0  0
M  END
>  <MODEL>
9

>  <REMARK>
 VINA RESULT:      -5.8      3.903      6.450
  Name = 
  6 active torsions:
  status: ('A' for Active; 'I' for Inactive)
    1  A    between atoms: C_2  and  C_20
    2  A    between atoms: C_3  and  C_7
    3  A    between atoms: C_3  and  C_11
    4  A    between atoms: C_3  and  C_30
    5  A    between atoms: C_5  and  N_22
    6  A    between atoms: C_18  and  C_30
                            x       y       z     vdW  Elec       q    Type
                         _______ _______ _______ _____ _____    ______ ____

>  <TORSDO>
F 6

$$$$
