=
 OpenBabel11062418043D

 63 69  0  0  1  0  0  0  0  0999 V2000
  181.3670  176.9240  135.4170 O   0  0  0  0  0  0  0  0  0  0  0  0
  180.3090  177.6770  135.6610 C   0  0  0  0  0  0  0  0  0  0  0  0
  187.1450  177.9480  139.5120 C   0  0  2  0  0  3  0  0  0  0  0  0
  185.0180  179.5580  139.1010 C   0  0  2  0  0  3  0  0  0  0  0  0
  187.6040  175.6300  137.6670 C   0  0  0  0  0  1  0  0  0  0  0  0
  180.0860  177.8870  136.9830 N   0  0  0  0  0  0  0  0  0  0  0  0
  183.8550  175.3420  135.8570 C   0  0  0  0  0  0  0  0  0  0  0  0
  182.9000  179.3320  140.4960 C   0  0  0  0  0  2  0  0  0  0  0  0
  187.5620  177.3210  140.7910 C   0  0  2  0  0  3  0  0  0  0  0  0
  182.4400  176.2510  139.2090 O   0  0  0  0  0  0  0  0  0  0  0  0
  183.5080  179.7970  139.1800 C   0  0  0  0  0  2  0  0  0  0  0  0
  186.2580  178.1130  140.7650 C   0  0  1  0  0  0  0  0  0  0  0  0
  185.6550  177.4870  135.2950 O   0  0  0  0  0  0  0  0  0  0  0  0
  186.1380  177.5220  138.4580 C   0  0  2  0  0  3  0  0  0  0  0  0
  181.0840  177.1880  137.5510 C   0  0  0  0  0  0  0  0  0  0  0  0
  186.8630  176.8980  137.2610 C   0  0  2  0  0  3  0  0  0  0  0  0
  181.3380  177.0470  138.8560 C   0  0  0  0  0  0  0  0  0  0  0  0
  185.2240  175.3810  136.1110 O   0  0  0  0  0  0  0  0  0  0  0  0
  185.4080  178.6760  138.0340 O   0  0  0  0  0  0  0  0  0  0  0  0
  180.5630  177.7070  139.8620 N   0  0  0  0  0  0  0  0  0  0  0  0
  182.9400  175.8790  136.8760 C   0  0  0  0  0  0  0  0  0  0  0  0
  181.4890  179.8810  140.6640 C   0  0  2  0  0  3  0  0  0  0  0  0
  181.1170  179.8110  142.0070 O   0  0  0  0  0  1  0  0  0  0  0  0
  185.8260  179.5350  140.4420 C   0  0  0  0  0  2  0  0  0  0  0  0
  183.4090  174.8160  134.7220 C   0  0  0  0  0  2  0  0  0  0  0  0
  181.8600  176.6130  136.5910 C   0  0  0  0  0  0  0  0  0  0  0  0
  185.0990  177.1370  140.9940 C   0  0  0  0  0  1  0  0  0  0  0  0
  183.2370  175.6940  138.2360 O   0  0  0  0  0  0  0  0  0  0  0  0
  180.4450  179.1660  139.7950 C   0  0  0  0  0  2  0  0  0  0  0  0
  185.9030  176.5990  136.1550 C   0  0  0  0  0  0  0  0  0  0  0  0
  180.3170  177.0160  141.1210 C   0  0  0  0  0  2  0  0  0  0  0  0
  179.6990  175.7890  140.8740 O   0  0  0  0  0  1  0  0  0  0  0  0
  188.6480  178.1600  141.4600 C   0  0  2  0  0  3  0  0  0  0  0  0
  190.5260  176.5660  141.5350 O   0  0  0  0  0  1  0  0  0  0  0  0
  190.0760  177.7980  141.0330 C   0  0  1  0  0  3  0  0  0  0  0  0
  190.2660  177.9780  139.6360 O   0  0  0  0  0  0  0  0  0  0  0  0
  193.5120  174.9790  138.5460 O   0  0  0  0  0  1  0  0  0  0  0  0
  190.2930  176.5730  137.6560 C   0  0  1  0  0  3  0  0  0  0  0  0
  191.5370  175.5300  136.8870 P   0  0  2  0  0  0  0  0  0  0  0  0
  191.2200  174.0720  137.1310 O   0  0  0  0  0  0  0  0  0  0  0  0
  193.9750  176.7760  137.0560 C   0  0  0  0  0  1  0  0  0  0  0  0
  192.9340  176.0710  137.9010 C   0  0  2  0  0  0  0  0  0  0  0  0
  191.7010  175.8530  135.1090 C   0  0  0  0  0  1  0  0  0  0  0  0
  190.8560  176.8420  139.0490 C   0  0  1  0  0  3  0  0  0  0  0  0
  192.3690  177.0430  138.9320 C   0  0  0  0  0  2  0  0  0  0  0  0
  190.1720  177.7650  136.9350 O   0  0  0  0  0  1  0  0  0  0  0  0
  188.5430  178.0530  142.8520 O   0  0  0  0  0  0  0  0  0  0  0  0
  189.6690  178.7090  143.3610 C   0  0  0  0  0  2  0  0  0  0  0  0
  190.2710  177.9070  144.5030 C   0  0  0  0  0  2  0  0  0  0  0  0
  189.1480  177.3910  145.3820 C   0  0  0  0  0  2  0  0  0  0  0  0
  188.7110  178.4010  146.2380 O   0  0  0  0  0  0  0  0  0  0  0  0
  187.0380  178.1620  146.3720 P   0  0  0  0  0  0  0  0  0  0  0  0
  186.4270  176.8450  145.9550 O   0  0  0  0  0  0  0  0  0  0  0  0
  186.1520  179.2640  146.9110 O   0  0  0  0  0  0  0  0  0  0  0  0
  179.4220  178.2170  134.5950 C   0  0  0  0  0  2  0  0  0  0  0  0
  178.9330  179.5980  134.9940 C   0  0  0  0  0  2  0  0  0  0  0  0
  181.2020  180.2010  134.5940 O   0  0  0  0  0  0  0  0  0  0  0  0
  179.7670  181.9700  135.0960 N   0  0  0  0  0  2  0  0  0  0  0  0
  180.0380  180.5880  134.8690 C   0  0  0  0  0  0  0  0  0  0  0  0
  181.6980  184.6170  136.2710 O   0  0  0  0  0  1  0  0  0  0  0  0
  180.5270  183.9090  135.9990 C   0  0  2  0  0  3  0  0  0  0  0  0
  180.7770  182.9360  134.9880 N   0  0  0  0  0  0  0  0  0  0  0  0
  180.1180  184.1750  134.6660 N   0  0  0  0  0  2  0  0  0  0  0  0
  1  2  1  0  0  0  0
  1 26  1  0  0  0  0
  2  6  2  0  0  0  0
  3 12  1  0  0  0  0
  3  9  1  0  0  0  0
  4 11  1  0  0  0  0
  4 24  1  0  0  0  0
  6 15  1  0  0  0  0
  7 18  1  0  0  0  0
  7 21  1  0  0  0  0
  8 22  1  0  0  0  0
  9 33  1  0  0  0  0
 11  8  1  0  0  0  0
 12  9  1  0  0  0  0
 12 27  1  0  0  0  0
 13 30  2  0  0  0  0
 14  3  1  0  0  0  0
 15 17  2  0  0  0  0
 16  5  1  0  0  0  0
 16 14  1  0  0  0  0
 17 10  1  0  0  0  0
 17 20  1  0  0  0  0
 18 30  1  0  0  0  0
 19 14  1  0  0  0  0
 19  4  1  0  0  0  0
 20 31  1  0  0  0  0
 21 28  1  0  0  0  0
 22 23  1  0  0  0  0
 24 12  1  0  0  0  0
 25  7  2  0  0  0  0
 26 21  2  0  0  0  0
 26 15  1  0  0  0  0
 28 10  1  0  0  0  0
 29 20  1  0  0  0  0
 29 22  1  0  0  0  0
 30 16  1  0  0  0  0
 32 31  1  0  0  0  0
 33 47  1  0  0  0  0
 35 33  1  0  0  0  0
 35 34  1  0  0  0  0
 36 35  1  0  0  0  0
 38 44  1  0  0  0  0
 39 40  2  0  0  0  0
 39 38  1  0  0  0  0
 39 42  1  0  0  0  0
 41 42  1  0  0  0  0
 42 37  1  0  0  0  0
 42 45  1  0  0  0  0
 43 39  1  0  0  0  0
 44 36  1  0  0  0  0
 45 44  1  0  0  0  0
 46 38  1  0  0  0  0
 47 48  1  0  0  0  0
 48 49  1  0  0  0  0
 49 50  1  0  0  0  0
 50 51  1  0  0  0  0
 51 52  1  0  0  0  0
 52 54  2  0  0  0  0
 53 52  2  0  0  0  0
 55 56  1  0  0  0  0
 55  2  1  0  0  0  0
 57 59  2  0  0  0  0
 59 56  1  0  0  0  0
 59 58  1  0  0  0  0
 61 60  1  0  0  0  0
 62 58  1  0  0  0  0
 62 61  1  0  0  0  0
 63 62  1  0  0  0  0
 63 61  1  0  0  0  0
M  END
>  <MODEL>
1

>  <REMARK>
 VINA RESULT:      -2.5      0.000      0.000
  Name = 
  15 active torsions:
  status: ('A' for Active; 'I' for Inactive)
    1  A    between atoms: C_3  and  C_41
    2  A    between atoms: C_10  and  C_11
    3  A    between atoms: C_10  and  C_21
    4  A    between atoms: C_10  and  O_62
    5  A    between atoms: C_11  and  O_63
    6  A    between atoms: C_13  and  C_41
    7  A    between atoms: C_13  and  C_44
    8  A    between atoms: N_14  and  N_28
    9  A    between atoms: O_18  and  C_22
   10  A    between atoms: O_18  and  P_30
   11  A    between atoms: C_22  and  C_39
   12  A    between atoms: C_39  and  C_52
   13  A    between atoms: C_43  and  O_63
   14  A    between atoms: N_46  and  C_53
   15  A    between atoms: C_52  and  O_62
                            x       y       z     vdW  Elec       q    Type
                         _______ _______ _______ _____ _____    ______ ____

>  <TORSDO>
F 15

$$$$
=
 OpenBabel11062418043D

 63 69  0  0  1  0  0  0  0  0999 V2000
  182.5690  177.0760  139.7440 O   0  0  0  0  0  0  0  0  0  0  0  0
  181.7550  176.0560  139.9540 C   0  0  0  0  0  0  0  0  0  0  0  0
  188.7310  175.7300  136.3660 C   0  0  2  0  0  3  0  0  0  0  0  0
  187.0480  174.0330  137.6210 C   0  0  2  0  0  3  0  0  0  0  0  0
  188.4450  178.6780  136.8230 C   0  0  0  0  0  1  0  0  0  0  0  0
  181.7000  175.1850  138.9150 N   0  0  0  0  0  0  0  0  0  0  0  0
  184.6100  178.8290  138.4600 C   0  0  0  0  0  0  0  0  0  0  0  0
  185.0600  173.0040  136.4060 C   0  0  0  0  0  2  0  0  0  0  0  0
  189.0810  175.7450  134.9240 C   0  0  2  0  0  3  0  0  0  0  0  0
  183.7430  176.0860  136.0530 O   0  0  0  0  0  0  0  0  0  0  0  0
  185.6570  173.4070  137.7470 C   0  0  0  0  0  2  0  0  0  0  0  0
  188.0170  174.7590  135.4010 C   0  0  1  0  0  0  0  0  0  0  0  0
  186.8370  177.7670  139.8980 O   0  0  0  0  0  0  0  0  0  0  0  0
  187.5680  176.3370  137.1320 C   0  0  2  0  0  3  0  0  0  0  0  0
  182.5340  175.7520  138.0270 C   0  0  0  0  0  0  0  0  0  0  0  0
  188.0150  177.6230  137.8340 C   0  0  2  0  0  3  0  0  0  0  0  0
  182.8500  175.3070  136.8070 C   0  0  0  0  0  0  0  0  0  0  0  0
  185.9610  179.0260  138.1850 O   0  0  0  0  0  0  0  0  0  0  0  0
  187.1170  175.3870  138.1010 O   0  0  0  0  0  0  0  0  0  0  0  0
  182.3490  174.0690  136.2920 N   0  0  0  0  0  0  0  0  0  0  0  0
  183.9430  177.6520  137.8810 C   0  0  0  0  0  0  0  0  0  0  0  0
  183.8500  172.1000  136.6010 C   0  0  2  0  0  3  0  0  0  0  0  0
  183.5830  171.4150  135.4160 O   0  0  0  0  0  1  0  0  0  0  0  0
  187.9300  173.6130  136.3970 C   0  0  0  0  0  2  0  0  0  0  0  0
  183.9560  179.7020  139.2180 C   0  0  0  0  0  2  0  0  0  0  0  0
  183.0610  176.8970  138.5430 C   0  0  0  0  0  0  0  0  0  0  0  0
  186.6740  175.1670  134.7870 C   0  0  0  0  0  1  0  0  0  0  0  0
  184.2940  177.2270  136.5890 O   0  0  0  0  0  0  0  0  0  0  0  0
  182.5940  172.8490  137.0660 C   0  0  0  0  0  2  0  0  0  0  0  0
  186.9240  178.1600  138.7040 C   0  0  0  0  0  0  0  0  0  0  0  0
  182.0410  173.9760  134.8700 C   0  0  0  0  0  2  0  0  0  0  0  0
  181.4080  172.7610  134.6020 O   0  0  0  0  0  1  0  0  0  0  0  0
  190.3920  174.9990  134.6910 C   0  0  2  0  0  3  0  0  0  0  0  0
  190.3920  172.5370  134.6050 O   0  0  0  0  0  1  0  0  0  0  0  0
  190.4980  173.6630  135.4370 C   0  0  1  0  0  3  0  0  0  0  0  0
  191.6070  173.6460  136.3250 O   0  0  0  0  0  0  0  0  0  0  0  0
  193.9000  170.1140  134.5970 O   0  0  0  0  0  1  0  0  0  0  0  0
  194.0120  173.3300  136.4240 C   0  0  1  0  0  3  0  0  0  0  0  0
  195.1020  171.9500  136.0600 P   0  0  2  0  0  0  0  0  0  0  0  0
  195.8350  172.1900  134.7590 O   0  0  0  0  0  0  0  0  0  0  0  0
  193.9230  169.6300  136.9270 C   0  0  0  0  0  1  0  0  0  0  0  0
  193.8110  170.6980  135.8590 C   0  0  2  0  0  0  0  0  0  0  0  0
  196.2830  171.6340  137.4010 C   0  0  0  0  0  1  0  0  0  0  0  0
  192.6880  172.9260  135.7820 C   0  0  1  0  0  3  0  0  0  0  0  0
  192.4780  171.4260  136.0020 C   0  0  0  0  0  2  0  0  0  0  0  0
  193.8690  173.4600  137.8090 O   0  0  0  0  0  1  0  0  0  0  0  0
  191.4730  175.8130  135.0500 O   0  0  0  0  0  0  0  0  0  0  0  0
  191.4030  175.9320  136.4420 C   0  0  0  0  0  2  0  0  0  0  0  0
  192.7070  176.4890  136.9870 C   0  0  0  0  0  2  0  0  0  0  0  0
  192.4330  177.1640  138.3160 C   0  0  0  0  0  2  0  0  0  0  0  0
  191.1050  176.9580  138.6890 O   0  0  0  0  0  0  0  0  0  0  0  0
  191.0850  177.1880  140.3680 P   0  0  0  0  0  0  0  0  0  0  0  0
  189.7780  177.4480  141.0810 O   0  0  0  0  0  0  0  0  0  0  0  0
  192.3740  177.1330  141.1600 O   0  0  0  0  0  0  0  0  0  0  0  0
  180.9490  175.8900  141.1930 C   0  0  0  0  0  2  0  0  0  0  0  0
  180.0890  177.1230  141.4080 C   0  0  0  0  0  2  0  0  0  0  0  0
  181.1500  179.2140  140.9860 O   0  0  0  0  0  0  0  0  0  0  0  0
  181.5450  178.2960  143.0940 N   0  0  0  0  0  2  0  0  0  0  0  0
  180.9420  178.2780  141.8000 C   0  0  0  0  0  0  0  0  0  0  0  0
  184.6000  179.8340  143.7390 O   0  0  0  0  0  1  0  0  0  0  0  0
  183.6410  178.8220  143.7870 C   0  0  2  0  0  3  0  0  0  0  0  0
  182.3540  179.3640  143.5050 N   0  0  0  0  0  0  0  0  0  0  0  0
  182.7460  179.0750  144.8600 N   0  0  0  0  0  2  0  0  0  0  0  0
  1  2  1  0  0  0  0
  2 55  1  0  0  0  0
  3 14  1  0  0  0  0
  4 11  1  0  0  0  0
  4 19  1  0  0  0  0
  5 16  1  0  0  0  0
  6  2  2  0  0  0  0
  7 25  2  0  0  0  0
  8 22  1  0  0  0  0
  8 11  1  0  0  0  0
  9 12  1  0  0  0  0
  9  3  1  0  0  0  0
 10 28  1  0  0  0  0
 10 17  1  0  0  0  0
 12  3  1  0  0  0  0
 12 24  1  0  0  0  0
 14 16  1  0  0  0  0
 14 19  1  0  0  0  0
 15 26  1  0  0  0  0
 15  6  1  0  0  0  0
 16 30  1  0  0  0  0
 17 15  2  0  0  0  0
 18  7  1  0  0  0  0
 18 30  1  0  0  0  0
 20 17  1  0  0  0  0
 20 29  1  0  0  0  0
 21  7  1  0  0  0  0
 21 26  2  0  0  0  0
 22 29  1  0  0  0  0
 23 22  1  0  0  0  0
 24  4  1  0  0  0  0
 26  1  1  0  0  0  0
 27 12  1  0  0  0  0
 28 21  1  0  0  0  0
 30 13  2  0  0  0  0
 31 20  1  0  0  0  0
 32 31  1  0  0  0  0
 33  9  1  0  0  0  0
 33 47  1  0  0  0  0
 33 35  1  0  0  0  0
 34 35  1  0  0  0  0
 35 36  1  0  0  0  0
 37 42  1  0  0  0  0
 38 46  1  0  0  0  0
 39 38  1  0  0  0  0
 39 43  1  0  0  0  0
 40 39  2  0  0  0  0
 42 45  1  0  0  0  0
 42 39  1  0  0  0  0
 42 41  1  0  0  0  0
 44 45  1  0  0  0  0
 44 36  1  0  0  0  0
 44 38  1  0  0  0  0
 47 48  1  0  0  0  0
 48 49  1  0  0  0  0
 49 50  1  0  0  0  0
 50 51  1  0  0  0  0
 51 52  1  0  0  0  0
 52 53  2  0  0  0  0
 52 54  2  0  0  0  0
 55 56  1  0  0  0  0
 56 59  1  0  0  0  0
 57 59  2  0  0  0  0
 58 62  1  0  0  0  0
 59 58  1  0  0  0  0
 60 61  1  0  0  0  0
 61 63  1  0  0  0  0
 62 61  1  0  0  0  0
 62 63  1  0  0  0  0
M  END
>  <MODEL>
2

>  <REMARK>
 VINA RESULT:      -2.2      3.700      6.556
  Name = 
  15 active torsions:
  status: ('A' for Active; 'I' for Inactive)
    1  A    between atoms: C_3  and  C_41
    2  A    between atoms: C_10  and  C_11
    3  A    between atoms: C_10  and  C_21
    4  A    between atoms: C_10  and  O_62
    5  A    between atoms: C_11  and  O_63
    6  A    between atoms: C_13  and  C_41
    7  A    between atoms: C_13  and  C_44
    8  A    between atoms: N_14  and  N_28
    9  A    between atoms: O_18  and  C_22
   10  A    between atoms: O_18  and  P_30
   11  A    between atoms: C_22  and  C_39
   12  A    between atoms: C_39  and  C_52
   13  A    between atoms: C_43  and  O_63
   14  A    between atoms: N_46  and  C_53
   15  A    between atoms: C_52  and  O_62
                            x       y       z     vdW  Elec       q    Type
                         _______ _______ _______ _____ _____    ______ ____

>  <TORSDO>
F 15

$$$$
=
 OpenBabel11062418043D

 63 69  0  0  1  0  0  0  0  0999 V2000
  182.4480  176.8440  139.8430 O   0  0  0  0  0  0  0  0  0  0  0  0
  181.6540  175.7970  139.9860 C   0  0  0  0  0  0  0  0  0  0  0  0
  188.7160  175.7940  136.5580 C   0  0  2  0  0  3  0  0  0  0  0  0
  187.0460  174.0040  137.6930 C   0  0  2  0  0  3  0  0  0  0  0  0
  188.3510  178.7110  137.1410 C   0  0  0  0  0  1  0  0  0  0  0  0
  181.6430  174.9730  138.9070 N   0  0  0  0  0  0  0  0  0  0  0  0
  184.4760  178.7000  138.6890 C   0  0  0  0  0  0  0  0  0  0  0  0
  185.1120  172.9870  136.3850 C   0  0  0  0  0  2  0  0  0  0  0  0
  189.0990  175.8830  135.1270 C   0  0  2  0  0  3  0  0  0  0  0  0
  183.7310  176.0510  136.1400 O   0  0  0  0  0  0  0  0  0  0  0  0
  185.6670  173.3400  137.7570 C   0  0  0  0  0  2  0  0  0  0  0  0
  188.0490  174.8520  135.5320 C   0  0  1  0  0  0  0  0  0  0  0  0
  186.6930  177.6230  140.1320 O   0  0  0  0  0  0  0  0  0  0  0  0
  187.5220  176.3380  137.3220 C   0  0  2  0  0  3  0  0  0  0  0  0
  182.4840  175.6000  138.0670 C   0  0  0  0  0  0  0  0  0  0  0  0
  187.9220  177.6010  138.0920 C   0  0  2  0  0  3  0  0  0  0  0  0
  182.8390  175.2180  136.8360 C   0  0  0  0  0  0  0  0  0  0  0  0
  185.8280  178.9400  138.4560 O   0  0  0  0  0  0  0  0  0  0  0  0
  187.0720  175.3350  138.2350 O   0  0  0  0  0  0  0  0  0  0  0  0
  182.3790  173.9940  136.2530 N   0  0  0  0  0  0  0  0  0  0  0  0
  183.8510  177.5350  138.0420 C   0  0  0  0  0  0  0  0  0  0  0  0
  183.9190  172.0470  136.5080 C   0  0  2  0  0  3  0  0  0  0  0  0
  183.6950  171.4120  135.2870 O   0  0  0  0  0  1  0  0  0  0  0  0
  187.9660  173.6600  136.4730 C   0  0  0  0  0  2  0  0  0  0  0  0
  183.7840  179.5220  139.4700 C   0  0  0  0  0  2  0  0  0  0  0  0
  182.9720  176.7310  138.6470 C   0  0  0  0  0  0  0  0  0  0  0  0
  186.7110  175.2580  134.9060 C   0  0  0  0  0  1  0  0  0  0  0  0
  184.2410  177.1780  136.7410 O   0  0  0  0  0  0  0  0  0  0  0  0
  182.6350  172.7460  136.9770 C   0  0  0  0  0  2  0  0  0  0  0  0
  186.7990  178.0720  138.9590 C   0  0  0  0  0  0  0  0  0  0  0  0
  182.1060  173.9600  134.8220 C   0  0  0  0  0  2  0  0  0  0  0  0
  180.8160  173.4770  134.5980 O   0  0  0  0  0  1  0  0  0  0  0  0
  190.4340  175.1780  134.8920 C   0  0  2  0  0  3  0  0  0  0  0  0
  190.4170  172.7320  134.6010 O   0  0  0  0  0  1  0  0  0  0  0  0
  190.5290  173.7840  135.5240 C   0  0  1  0  0  3  0  0  0  0  0  0
  191.6360  173.6850  136.4090 O   0  0  0  0  0  0  0  0  0  0  0  0
  193.8100  169.9560  134.9670 O   0  0  0  0  0  1  0  0  0  0  0  0
  194.0440  173.4100  136.2740 C   0  0  1  0  0  3  0  0  0  0  0  0
  195.1210  172.0000  135.9940 P   0  0  2  0  0  0  0  0  0  0  0  0
  195.6950  172.0500  134.5960 O   0  0  0  0  0  0  0  0  0  0  0  0
  194.1090  169.8250  137.3240 C   0  0  0  0  0  1  0  0  0  0  0  0
  193.8490  170.7210  136.1300 C   0  0  2  0  0  0  0  0  0  0  0  0
  196.4540  171.8990  137.2210 C   0  0  0  0  0  1  0  0  0  0  0  0
  192.6670  172.9020  135.8560 C   0  0  1  0  0  3  0  0  0  0  0  0
  192.5220  171.4500  136.3190 C   0  0  0  0  0  2  0  0  0  0  0  0
  194.0550  173.7440  137.6320 O   0  0  0  0  0  1  0  0  0  0  0  0
  191.4820  175.9730  135.3700 O   0  0  0  0  0  0  0  0  0  0  0  0
  191.0970  176.3610  136.6580 C   0  0  0  0  0  2  0  0  0  0  0  0
  192.3210  176.5230  137.5440 C   0  0  0  0  0  2  0  0  0  0  0  0
  191.9050  177.2090  138.8300 C   0  0  0  0  0  2  0  0  0  0  0  0
  190.6300  176.7860  139.2050 O   0  0  0  0  0  0  0  0  0  0  0  0
  190.5560  177.0590  140.8760 P   0  0  0  0  0  0  0  0  0  0  0  0
  191.6010  177.9180  141.5500 O   0  0  0  0  0  0  0  0  0  0  0  0
  189.4440  176.4450  141.7000 O   0  0  0  0  0  0  0  0  0  0  0  0
  180.8230  175.5560  141.1960 C   0  0  0  0  0  2  0  0  0  0  0  0
  179.5540  176.3860  141.1150 C   0  0  0  0  0  2  0  0  0  0  0  0
  180.1260  178.6910  141.3080 O   0  0  0  0  0  0  0  0  0  0  0  0
  179.8090  177.9150  139.1310 N   0  0  0  0  0  2  0  0  0  0  0  0
  179.8580  177.7280  140.5450 C   0  0  0  0  0  0  0  0  0  0  0  0
  179.0600  180.6800  137.1530 O   0  0  0  0  0  1  0  0  0  0  0  0
  179.1750  179.3260  137.4690 C   0  0  2  0  0  3  0  0  0  0  0  0
  180.0880  179.1600  138.5510 N   0  0  0  0  0  0  0  0  0  0  0  0
  180.5010  178.8930  137.1980 N   0  0  0  0  0  2  0  0  0  0  0  0
  1  2  1  0  0  0  0
  2 55  1  0  0  0  0
  3 14  1  0  0  0  0
  4 11  1  0  0  0  0
  4 19  1  0  0  0  0
  5 16  1  0  0  0  0
  6  2  2  0  0  0  0
  7 25  2  0  0  0  0
  8 22  1  0  0  0  0
  8 11  1  0  0  0  0
  9 12  1  0  0  0  0
  9  3  1  0  0  0  0
 10 28  1  0  0  0  0
 10 17  1  0  0  0  0
 12 24  1  0  0  0  0
 12  3  1  0  0  0  0
 14 16  1  0  0  0  0
 14 19  1  0  0  0  0
 15 26  1  0  0  0  0
 15  6  1  0  0  0  0
 16 30  1  0  0  0  0
 17 15  2  0  0  0  0
 18  7  1  0  0  0  0
 18 30  1  0  0  0  0
 20 17  1  0  0  0  0
 20 29  1  0  0  0  0
 21 26  2  0  0  0  0
 21  7  1  0  0  0  0
 22 29  1  0  0  0  0
 23 22  1  0  0  0  0
 24  4  1  0  0  0  0
 26  1  1  0  0  0  0
 27 12  1  0  0  0  0
 28 21  1  0  0  0  0
 30 13  2  0  0  0  0
 31 20  1  0  0  0  0
 32 31  1  0  0  0  0
 33  9  1  0  0  0  0
 33 47  1  0  0  0  0
 33 35  1  0  0  0  0
 34 35  1  0  0  0  0
 35 36  1  0  0  0  0
 37 42  1  0  0  0  0
 38 46  1  0  0  0  0
 39 42  1  0  0  0  0
 39 38  1  0  0  0  0
 39 43  1  0  0  0  0
 40 39  2  0  0  0  0
 42 45  1  0  0  0  0
 42 41  1  0  0  0  0
 44 38  1  0  0  0  0
 44 45  1  0  0  0  0
 44 36  1  0  0  0  0
 47 48  1  0  0  0  0
 48 49  1  0  0  0  0
 49 50  1  0  0  0  0
 50 51  1  0  0  0  0
 51 52  1  0  0  0  0
 52 53  2  0  0  0  0
 52 54  2  0  0  0  0
 56 55  1  0  0  0  0
 58 59  1  0  0  0  0
 59 56  1  0  0  0  0
 59 57  2  0  0  0  0
 60 61  1  0  0  0  0
 61 62  1  0  0  0  0
 62 58  1  0  0  0  0
 63 61  1  0  0  0  0
 63 62  1  0  0  0  0
M  END
>  <MODEL>
3

>  <REMARK>
 VINA RESULT:      -1.8      3.006      6.001
  Name = 
  15 active torsions:
  status: ('A' for Active; 'I' for Inactive)
    1  A    between atoms: C_3  and  C_41
    2  A    between atoms: C_10  and  C_11
    3  A    between atoms: C_10  and  C_21
    4  A    between atoms: C_10  and  O_62
    5  A    between atoms: C_11  and  O_63
    6  A    between atoms: C_13  and  C_41
    7  A    between atoms: C_13  and  C_44
    8  A    between atoms: N_14  and  N_28
    9  A    between atoms: O_18  and  C_22
   10  A    between atoms: O_18  and  P_30
   11  A    between atoms: C_22  and  C_39
   12  A    between atoms: C_39  and  C_52
   13  A    between atoms: C_43  and  O_63
   14  A    between atoms: N_46  and  C_53
   15  A    between atoms: C_52  and  O_62
                            x       y       z     vdW  Elec       q    Type
                         _______ _______ _______ _____ _____    ______ ____

>  <TORSDO>
F 15

$$$$
=
 OpenBabel11062418043D

 63 69  0  0  1  0  0  0  0  0999 V2000
  187.2490  178.4940  145.8970 O   0  0  0  0  0  0  0  0  0  0  0  0
  188.4260  178.6090  146.4870 C   0  0  0  0  0  0  0  0  0  0  0  0
  187.1660  178.2520  138.7460 C   0  0  2  0  0  3  0  0  0  0  0  0
  189.1000  179.1180  140.4180 C   0  0  2  0  0  3  0  0  0  0  0  0
  184.3970  177.8220  139.8100 C   0  0  0  0  0  1  0  0  0  0  0  0
  189.4050  177.8800  145.8930 N   0  0  0  0  0  0  0  0  0  0  0  0
  185.1610  177.7270  143.9110 C   0  0  0  0  0  0  0  0  0  0  0  0
  190.8170  177.5120  141.3980 C   0  0  0  0  0  2  0  0  0  0  0  0
  187.2410  177.1080  137.8040 C   0  0  2  0  0  3  0  0  0  0  0  0
  188.3310  175.9270  143.0290 O   0  0  0  0  0  0  0  0  0  0  0  0
  190.0840  178.8370  141.5570 C   0  0  0  0  0  2  0  0  0  0  0  0
  188.4220  177.3540  138.7380 C   0  0  1  0  0  0  0  0  0  0  0  0
  185.3250  180.1380  142.3880 O   0  0  0  0  0  0  0  0  0  0  0  0
  186.8310  178.3240  140.2260 C   0  0  2  0  0  3  0  0  0  0  0  0
  188.7400  177.2820  144.8900 C   0  0  0  0  0  0  0  0  0  0  0  0
  185.3900  178.8070  140.4150 C   0  0  2  0  0  3  0  0  0  0  0  0
  189.2310  176.4350  143.9800 C   0  0  0  0  0  0  0  0  0  0  0  0
  184.6160  177.9670  142.6520 O   0  0  0  0  0  0  0  0  0  0  0  0
  187.7350  179.2390  140.8520 O   0  0  0  0  0  0  0  0  0  0  0  0
  190.6180  176.0840  143.9310 N   0  0  0  0  0  0  0  0  0  0  0  0
  186.5480  177.2420  143.9910 C   0  0  0  0  0  0  0  0  0  0  0  0
  192.0020  177.4310  142.3510 C   0  0  2  0  0  3  0  0  0  0  0  0
  192.8850  176.4430  141.9160 O   0  0  0  0  0  1  0  0  0  0  0  0
  189.4020  178.4830  139.0190 C   0  0  0  0  0  2  0  0  0  0  0  0
  184.4260  177.9290  144.9990 C   0  0  0  0  0  2  0  0  0  0  0  0
  187.4340  177.6670  144.8970 C   0  0  0  0  0  0  0  0  0  0  0  0
  188.5100  176.1820  139.7210 C   0  0  0  0  0  1  0  0  0  0  0  0
  187.0190  176.3380  143.0230 O   0  0  0  0  0  0  0  0  0  0  0  0
  191.5990  177.1660  143.8080 C   0  0  0  0  0  2  0  0  0  0  0  0
  185.0860  179.0180  141.8630 C   0  0  0  0  0  0  0  0  0  0  0  0
  190.9830  174.7260  143.5500 C   0  0  0  0  0  2  0  0  0  0  0  0
  192.1110  174.3220  144.2660 O   0  0  0  0  0  1  0  0  0  0  0  0
  187.5930  177.5990  136.4020 C   0  0  2  0  0  3  0  0  0  0  0  0
  186.4040  179.0680  134.8220 O   0  0  0  0  0  1  0  0  0  0  0  0
  186.3800  177.8360  135.4940 C   0  0  1  0  0  3  0  0  0  0  0  0
  186.1170  176.7110  134.6680 O   0  0  0  0  0  0  0  0  0  0  0  0
  182.1140  176.1100  136.7510 O   0  0  0  0  0  1  0  0  0  0  0  0
  184.7780  174.6860  134.6140 C   0  0  1  0  0  3  0  0  0  0  0  0
  183.3390  174.1210  135.5270 P   0  0  2  0  0  0  0  0  0  0  0  0
  182.1050  174.1910  134.6550 O   0  0  0  0  0  0  0  0  0  0  0  0
  183.5930  174.8790  138.1510 C   0  0  0  0  0  1  0  0  0  0  0  0
  183.3350  175.4380  136.7670 C   0  0  2  0  0  0  0  0  0  0  0  0
  183.5550  172.4430  136.1820 C   0  0  0  0  0  1  0  0  0  0  0  0
  184.8370  176.1800  134.9170 C   0  0  1  0  0  3  0  0  0  0  0  0
  184.4610  176.3940  136.3850 C   0  0  0  0  0  2  0  0  0  0  0  0
  185.9210  174.0400  135.0970 O   0  0  0  0  0  1  0  0  0  0  0  0
  188.4610  176.6920  135.7840 O   0  0  0  0  0  0  0  0  0  0  0  0
  189.6510  177.3990  135.5770 C   0  0  0  0  0  2  0  0  0  0  0  0
  190.8340  176.4460  135.5860 C   0  0  0  0  0  2  0  0  0  0  0  0
  190.9840  175.8670  136.9800 C   0  0  0  0  0  2  0  0  0  0  0  0
  192.1520  175.1090  137.0570 O   0  0  0  0  0  0  0  0  0  0  0  0
  193.3670  176.2240  137.4530 P   0  0  0  0  0  0  0  0  0  0  0  0
  194.2740  176.7700  136.3740 O   0  0  0  0  0  0  0  0  0  0  0  0
  193.5470  176.6780  138.8860 O   0  0  0  0  0  0  0  0  0  0  0  0
  188.6560  179.4310  147.7060 C   0  0  0  0  0  2  0  0  0  0  0  0
  188.9530  178.5200  148.8830 C   0  0  0  0  0  2  0  0  0  0  0  0
  191.2120  178.6290  149.6320 O   0  0  0  0  0  0  0  0  0  0  0  0
  190.7970  177.1070  147.9140 N   0  0  0  0  0  2  0  0  0  0  0  0
  190.3800  178.0970  148.8540 C   0  0  0  0  0  0  0  0  0  0  0  0
  193.3520  174.9860  146.8690 O   0  0  0  0  0  1  0  0  0  0  0  0
  192.1080  175.3260  147.4020 C   0  0  2  0  0  3  0  0  0  0  0  0
  192.1300  176.6780  147.8520 N   0  0  0  0  0  0  0  0  0  0  0  0
  192.2500  175.5920  148.7900 N   0  0  0  0  0  2  0  0  0  0  0  0
  1  2  1  0  0  0  0
  2 55  1  0  0  0  0
  3 14  1  0  0  0  0
  4 19  1  0  0  0  0
  4 11  1  0  0  0  0
  5 16  1  0  0  0  0
  6  2  2  0  0  0  0
  7 21  1  0  0  0  0
  7 25  2  0  0  0  0
  8 11  1  0  0  0  0
  8 22  1  0  0  0  0
  9 12  1  0  0  0  0
  9  3  1  0  0  0  0
 10 17  1  0  0  0  0
 12  3  1  0  0  0  0
 12 24  1  0  0  0  0
 12 27  1  0  0  0  0
 14 16  1  0  0  0  0
 14 19  1  0  0  0  0
 15 26  1  0  0  0  0
 15  6  1  0  0  0  0
 16 30  1  0  0  0  0
 17 15  2  0  0  0  0
 18  7  1  0  0  0  0
 20 17  1  0  0  0  0
 21 26  2  0  0  0  0
 22 29  1  0  0  0  0
 23 22  1  0  0  0  0
 24  4  1  0  0  0  0
 26  1  1  0  0  0  0
 28 10  1  0  0  0  0
 28 21  1  0  0  0  0
 29 20  1  0  0  0  0
 30 13  2  0  0  0  0
 30 18  1  0  0  0  0
 31 20  1  0  0  0  0
 31 32  1  0  0  0  0
 33  9  1  0  0  0  0
 34 35  1  0  0  0  0
 35 33  1  0  0  0  0
 36 44  1  0  0  0  0
 36 35  1  0  0  0  0
 37 42  1  0  0  0  0
 38 44  1  0  0  0  0
 38 46  1  0  0  0  0
 38 39  1  0  0  0  0
 39 43  1  0  0  0  0
 39 42  1  0  0  0  0
 40 39  2  0  0  0  0
 42 41  1  0  0  0  0
 44 45  1  0  0  0  0
 45 42  1  0  0  0  0
 47 33  1  0  0  0  0
 48 49  1  0  0  0  0
 48 47  1  0  0  0  0
 49 50  1  0  0  0  0
 50 51  1  0  0  0  0
 51 52  1  0  0  0  0
 52 54  2  0  0  0  0
 53 52  2  0  0  0  0
 55 56  1  0  0  0  0
 58 59  1  0  0  0  0
 59 56  1  0  0  0  0
 59 57  2  0  0  0  0
 60 61  1  0  0  0  0
 61 62  1  0  0  0  0
 61 63  1  0  0  0  0
 62 58  1  0  0  0  0
 62 63  1  0  0  0  0
M  END
>  <MODEL>
4

>  <REMARK>
 VINA RESULT:      -1.2      5.062     10.564
  Name = 
  15 active torsions:
  status: ('A' for Active; 'I' for Inactive)
    1  A    between atoms: C_3  and  C_41
    2  A    between atoms: C_10  and  C_11
    3  A    between atoms: C_10  and  C_21
    4  A    between atoms: C_10  and  O_62
    5  A    between atoms: C_11  and  O_63
    6  A    between atoms: C_13  and  C_41
    7  A    between atoms: C_13  and  C_44
    8  A    between atoms: N_14  and  N_28
    9  A    between atoms: O_18  and  C_22
   10  A    between atoms: O_18  and  P_30
   11  A    between atoms: C_22  and  C_39
   12  A    between atoms: C_39  and  C_52
   13  A    between atoms: C_43  and  O_63
   14  A    between atoms: N_46  and  C_53
   15  A    between atoms: C_52  and  O_62
                            x       y       z     vdW  Elec       q    Type
                         _______ _______ _______ _____ _____    ______ ____

>  <TORSDO>
F 15

$$$$
=
 OpenBabel11062418043D

 63 69  0  0  1  0  0  0  0  0999 V2000
  194.2430  176.5320  136.8100 O   0  0  0  0  0  0  0  0  0  0  0  0
  194.0550  176.7090  135.5140 C   0  0  0  0  0  0  0  0  0  0  0  0
  188.8010  178.1370  141.1700 C   0  0  2  0  0  3  0  0  0  0  0  0
  189.2390  178.8860  138.6140 C   0  0  2  0  0  3  0  0  0  0  0  0
  191.0490  176.9380  142.7490 C   0  0  0  0  0  1  0  0  0  0  0  0
  192.8150  176.3540  135.0920 N   0  0  0  0  0  0  0  0  0  0  0  0
  193.6870  175.9300  139.6770 C   0  0  0  0  0  0  0  0  0  0  0  0
  188.4890  177.4310  136.6630 C   0  0  0  0  0  2  0  0  0  0  0  0
  187.6810  177.3100  141.6830 C   0  0  2  0  0  3  0  0  0  0  0  0
  190.6370  175.0430  137.6830 O   0  0  0  0  0  0  0  0  0  0  0  0
  189.4500  178.5090  137.1450 C   0  0  0  0  0  2  0  0  0  0  0  0
  187.7920  177.5220  140.1760 C   0  0  1  0  0  0  0  0  0  0  0  0
  193.2090  178.6400  140.4450 O   0  0  0  0  0  0  0  0  0  0  0  0
  190.1350  177.7600  140.5490 C   0  0  2  0  0  3  0  0  0  0  0  0
  192.2440  175.9220  136.2300 C   0  0  0  0  0  0  0  0  0  0  0  0
  191.2540  177.9000  141.5860 C   0  0  2  0  0  3  0  0  0  0  0  0
  191.0050  175.4460  136.3890 C   0  0  0  0  0  0  0  0  0  0  0  0
  193.1220  176.3810  140.8670 O   0  0  0  0  0  0  0  0  0  0  0  0
  190.3850  178.6340  139.4450 O   0  0  0  0  0  0  0  0  0  0  0  0
  190.0650  175.3850  135.3110 N   0  0  0  0  0  0  0  0  0  0  0  0
  192.8010  175.7080  138.5230 C   0  0  0  0  0  0  0  0  0  0  0  0
  188.5080  177.3280  135.1440 C   0  0  2  0  0  3  0  0  0  0  0  0
  187.3600  176.6690  134.7050 O   0  0  0  0  0  1  0  0  0  0  0  0
  187.8050  178.7030  139.2170 C   0  0  0  0  0  2  0  0  0  0  0  0
  194.9940  175.7030  139.6110 C   0  0  0  0  0  2  0  0  0  0  0  0
  193.1170  176.0410  137.2680 C   0  0  0  0  0  0  0  0  0  0  0  0
  188.1120  176.1730  139.5230 C   0  0  0  0  0  1  0  0  0  0  0  0
  191.5130  175.1900  138.7330 O   0  0  0  0  0  0  0  0  0  0  0  0
  189.7570  176.6250  134.5940 C   0  0  0  0  0  2  0  0  0  0  0  0
  192.5910  177.6690  140.9580 C   0  0  0  0  0  0  0  0  0  0  0  0
  189.1350  174.2640  135.2570 C   0  0  0  0  0  2  0  0  0  0  0  0
  189.7050  173.1460  135.8680 O   0  0  0  0  0  1  0  0  0  0  0  0
  186.5750  178.2040  142.2390 C   0  0  2  0  0  3  0  0  0  0  0  0
  185.9250  176.8580  144.1980 O   0  0  0  0  0  1  0  0  0  0  0  0
  186.3920  178.1070  143.7590 C   0  0  1  0  0  3  0  0  0  0  0  0
  187.5280  178.5980  144.4560 O   0  0  0  0  0  0  0  0  0  0  0  0
  187.5170  176.9420  148.6960 O   0  0  0  0  0  1  0  0  0  0  0  0
  189.3460  177.3800  145.5090 C   0  0  1  0  0  3  0  0  0  0  0  0
  189.6840  176.8620  147.1950 P   0  0  2  0  0  0  0  0  0  0  0  0
  189.4600  175.3730  147.3390 O   0  0  0  0  0  0  0  0  0  0  0  0
  188.9140  178.8560  148.9130 C   0  0  0  0  0  1  0  0  0  0  0  0
  188.3530  177.8000  147.9840 C   0  0  2  0  0  0  0  0  0  0  0  0
  191.3610  177.3030  147.7260 C   0  0  0  0  0  1  0  0  0  0  0  0
  187.8680  177.7610  145.5360 C   0  0  1  0  0  3  0  0  0  0  0  0
  187.5730  178.4720  146.8580 C   0  0  0  0  0  2  0  0  0  0  0  0
  190.1350  178.4910  145.1950 O   0  0  0  0  0  1  0  0  0  0  0  0
  185.3610  177.9080  141.6090 O   0  0  0  0  0  0  0  0  0  0  0  0
  184.8930  179.1300  141.1130 C   0  0  0  0  0  2  0  0  0  0  0  0
  183.4750  178.9740  140.5910 C   0  0  0  0  0  2  0  0  0  0  0  0
  182.7260  178.0100  141.4900 C   0  0  0  0  0  2  0  0  0  0  0  0
  181.6460  178.6580  142.0880 O   0  0  0  0  0  0  0  0  0  0  0  0
  180.2950  178.1690  141.1890 P   0  0  0  0  0  0  0  0  0  0  0  0
  180.1890  176.7440  140.6970 O   0  0  0  0  0  0  0  0  0  0  0  0
  179.1890  179.1550  140.8780 O   0  0  0  0  0  0  0  0  0  0  0  0
  195.1080  177.2150  134.5940 C   0  0  0  0  0  2  0  0  0  0  0  0
  196.4770  176.9670  135.2030 C   0  0  0  0  0  2  0  0  0  0  0  0
  196.2020  174.6810  134.5940 O   0  0  0  0  0  0  0  0  0  0  0  0
  197.4210  175.0600  136.5460 N   0  0  0  0  0  2  0  0  0  0  0  0
  196.6890  175.5080  135.4060 C   0  0  0  0  0  0  0  0  0  0  0  0
  196.6400  171.9480  137.8960 O   0  0  0  0  0  1  0  0  0  0  0  0
  196.8440  173.3280  137.8960 C   0  0  2  0  0  3  0  0  0  0  0  0
  197.6460  173.6960  136.7770 N   0  0  0  0  0  0  0  0  0  0  0  0
  198.2250  173.5970  138.0910 N   0  0  0  0  0  2  0  0  0  0  0  0
  1 26  1  0  0  0  0
  2  1  1  0  0  0  0
  3  9  1  0  0  0  0
  4 24  1  0  0  0  0
  4 19  1  0  0  0  0
  6  2  2  0  0  0  0
  6 15  1  0  0  0  0
  7 18  1  0  0  0  0
  8 11  1  0  0  0  0
  9 33  1  0  0  0  0
 10 28  1  0  0  0  0
 11  4  1  0  0  0  0
 12  3  1  0  0  0  0
 12  9  1  0  0  0  0
 13 30  2  0  0  0  0
 14  3  1  0  0  0  0
 14 16  1  0  0  0  0
 15 17  2  0  0  0  0
 15 26  1  0  0  0  0
 16  5  1  0  0  0  0
 17 10  1  0  0  0  0
 18 30  1  0  0  0  0
 19 14  1  0  0  0  0
 20 17  1  0  0  0  0
 21 28  1  0  0  0  0
 21  7  1  0  0  0  0
 22  8  1  0  0  0  0
 23 22  1  0  0  0  0
 24 12  1  0  0  0  0
 25  7  2  0  0  0  0
 26 21  2  0  0  0  0
 27 12  1  0  0  0  0
 29 22  1  0  0  0  0
 29 20  1  0  0  0  0
 30 16  1  0  0  0  0
 31 20  1  0  0  0  0
 31 32  1  0  0  0  0
 33 35  1  0  0  0  0
 35 34  1  0  0  0  0
 35 36  1  0  0  0  0
 36 44  1  0  0  0  0
 38 44  1  0  0  0  0
 38 39  1  0  0  0  0
 39 40  2  0  0  0  0
 39 43  1  0  0  0  0
 39 42  1  0  0  0  0
 42 37  1  0  0  0  0
 42 41  1  0  0  0  0
 44 45  1  0  0  0  0
 45 42  1  0  0  0  0
 46 38  1  0  0  0  0
 47 33  1  0  0  0  0
 48 47  1  0  0  0  0
 49 48  1  0  0  0  0
 49 50  1  0  0  0  0
 50 51  1  0  0  0  0
 52 51  1  0  0  0  0
 53 52  2  0  0  0  0
 54 52  2  0  0  0  0
 55 56  1  0  0  0  0
 55  2  1  0  0  0  0
 56 59  1  0  0  0  0
 57 59  2  0  0  0  0
 58 62  1  0  0  0  0
 59 58  1  0  0  0  0
 61 60  1  0  0  0  0
 61 63  1  0  0  0  0
 62 61  1  0  0  0  0
 62 63  1  0  0  0  0
M  END
>  <MODEL>
5

>  <REMARK>
 VINA RESULT:      -1.1      5.064     10.747
  Name = 
  15 active torsions:
  status: ('A' for Active; 'I' for Inactive)
    1  A    between atoms: C_3  and  C_41
    2  A    between atoms: C_10  and  C_11
    3  A    between atoms: C_10  and  C_21
    4  A    between atoms: C_10  and  O_62
    5  A    between atoms: C_11  and  O_63
    6  A    between atoms: C_13  and  C_41
    7  A    between atoms: C_13  and  C_44
    8  A    between atoms: N_14  and  N_28
    9  A    between atoms: O_18  and  C_22
   10  A    between atoms: O_18  and  P_30
   11  A    between atoms: C_22  and  C_39
   12  A    between atoms: C_39  and  C_52
   13  A    between atoms: C_43  and  O_63
   14  A    between atoms: N_46  and  C_53
   15  A    between atoms: C_52  and  O_62
                            x       y       z     vdW  Elec       q    Type
                         _______ _______ _______ _____ _____    ______ ____

>  <TORSDO>
F 15

$$$$
=
 OpenBabel11062418043D

 63 69  0  0  1  0  0  0  0  0999 V2000
  192.3330  177.1620  141.2080 O   0  0  0  0  0  0  0  0  0  0  0  0
  193.2750  177.0170  140.2920 C   0  0  0  0  0  0  0  0  0  0  0  0
  185.7250  178.6760  138.9210 C   0  0  2  0  0  3  0  0  0  0  0  0
  188.0880  178.9200  137.6410 C   0  0  2  0  0  3  0  0  0  0  0  0
  185.7050  178.2690  141.8910 C   0  0  0  0  0  1  0  0  0  0  0  0
  192.8530  176.3640  139.1790 N   0  0  0  0  0  0  0  0  0  0  0  0
  189.6610  177.1070  142.5290 C   0  0  0  0  0  0  0  0  0  0  0  0
  189.1060  176.9670  136.3620 C   0  0  0  0  0  2  0  0  0  0  0  0
  184.5910  177.7940  138.5510 C   0  0  2  0  0  3  0  0  0  0  0  0
  189.3910  175.2790  139.2650 O   0  0  0  0  0  0  0  0  0  0  0  0
  189.3650  178.2770  137.0920 C   0  0  0  0  0  2  0  0  0  0  0  0
  185.8810  177.6910  137.7430 C   0  0  1  0  0  0  0  0  0  0  0  0
  188.9540  179.7880  141.8450 O   0  0  0  0  0  0  0  0  0  0  0  0
  186.9860  178.4190  139.7260 C   0  0  2  0  0  3  0  0  0  0  0  0
  191.5710  176.0950  139.4800 C   0  0  0  0  0  0  0  0  0  0  0  0
  186.8280  178.9770  141.1440 C   0  0  2  0  0  3  0  0  0  0  0  0
  190.6760  175.4510  138.7250 C   0  0  0  0  0  0  0  0  0  0  0  0
  188.4030  177.6960  142.6240 O   0  0  0  0  0  0  0  0  0  0  0  0
  188.0820  179.0620  139.0720 O   0  0  0  0  0  0  0  0  0  0  0  0
  190.9800  174.9910  137.4040 N   0  0  0  0  0  0  0  0  0  0  0  0
  190.0460  176.4850  141.2520 C   0  0  0  0  0  0  0  0  0  0  0  0
  190.3300  176.5420  135.5600 C   0  0  2  0  0  3  0  0  0  0  0  0
  189.9550  175.6100  134.5940 O   0  0  0  0  0  1  0  0  0  0  0  0
  186.7420  178.6190  136.9000 C   0  0  0  0  0  2  0  0  0  0  0  0
  190.4720  177.1070  143.5800 C   0  0  0  0  0  2  0  0  0  0  0  0
  191.2640  176.5900  140.7110 C   0  0  0  0  0  0  0  0  0  0  0  0
  186.4990  176.3120  137.9980 C   0  0  0  0  0  1  0  0  0  0  0  0
  189.0770  175.8030  140.4970 O   0  0  0  0  0  0  0  0  0  0  0  0
  191.4610  175.9710  136.4260 C   0  0  0  0  0  2  0  0  0  0  0  0
  188.1070  178.8570  141.9080 C   0  0  0  0  0  0  0  0  0  0  0  0
  190.3930  173.7380  136.9470 C   0  0  0  0  0  2  0  0  0  0  0  0
  191.3780  172.9400  136.3640 O   0  0  0  0  0  1  0  0  0  0  0  0
  183.5530  178.5760  137.7490 C   0  0  2  0  0  3  0  0  0  0  0  0
  181.0990  178.7900  137.7120 O   0  0  0  0  0  1  0  0  0  0  0  0
  182.2520  178.8590  138.5100 C   0  0  1  0  0  3  0  0  0  0  0  0
  182.1830  178.1220  139.7230 O   0  0  0  0  0  0  0  0  0  0  0  0
  182.7820  180.3820  143.6280 O   0  0  0  0  0  1  0  0  0  0  0  0
  180.4280  178.7740  141.2690 C   0  0  1  0  0  3  0  0  0  0  0  0
  180.4230  179.4220  142.9440 P   0  0  2  0  0  0  0  0  0  0  0  0
  180.0740  180.8940  142.9350 O   0  0  0  0  0  0  0  0  0  0  0  0
  182.3830  178.1640  144.3930 C   0  0  0  0  0  1  0  0  0  0  0  0
  182.1830  179.1730  143.2810 C   0  0  2  0  0  0  0  0  0  0  0  0
  179.2910  178.5120  144.0300 C   0  0  0  0  0  1  0  0  0  0  0  0
  181.8730  178.9570  140.8140 C   0  0  1  0  0  3  0  0  0  0  0  0
  182.7980  178.6390  141.9910 C   0  0  0  0  0  2  0  0  0  0  0  0
  180.0860  177.4180  141.2910 O   0  0  0  0  0  1  0  0  0  0  0  0
  183.2540  177.8930  136.5640 O   0  0  0  0  0  0  0  0  0  0  0  0
  182.8130  176.6270  136.9660 C   0  0  0  0  0  2  0  0  0  0  0  0
  181.9990  175.9800  135.8590 C   0  0  0  0  0  2  0  0  0  0  0  0
  182.7080  174.7190  135.4050 C   0  0  0  0  0  2  0  0  0  0  0  0
  182.9370  173.8830  136.4970 O   0  0  0  0  0  0  0  0  0  0  0  0
  184.1920  172.8570  136.0020 P   0  0  0  0  0  0  0  0  0  0  0  0
  185.6190  173.1630  136.3950 O   0  0  0  0  0  0  0  0  0  0  0  0
  183.8900  171.6310  135.1670 O   0  0  0  0  0  0  0  0  0  0  0  0
  194.6740  177.4920  140.4700 C   0  0  0  0  0  2  0  0  0  0  0  0
  195.5180  176.3740  141.0540 C   0  0  0  0  0  2  0  0  0  0  0  0
  197.7360  176.0030  140.2670 O   0  0  0  0  0  0  0  0  0  0  0  0
  196.0330  175.3480  138.8140 N   0  0  0  0  0  2  0  0  0  0  0  0
  196.5030  175.8960  140.0450 C   0  0  0  0  0  0  0  0  0  0  0  0
  196.9310  173.3910  136.0790 O   0  0  0  0  0  1  0  0  0  0  0  0
  196.3900  173.6620  137.3370 C   0  0  2  0  0  3  0  0  0  0  0  0
  196.9240  174.8860  137.8360 N   0  0  0  0  0  0  0  0  0  0  0  0
  197.4240  173.6220  138.3090 N   0  0  0  0  0  2  0  0  0  0  0  0
  2 55  1  0  0  0  0
  2  1  1  0  0  0  0
  3 14  1  0  0  0  0
  4 19  1  0  0  0  0
  6 15  1  0  0  0  0
  6  2  2  0  0  0  0
  7 18  1  0  0  0  0
  7 25  2  0  0  0  0
  8 11  1  0  0  0  0
  9  3  1  0  0  0  0
 10 28  1  0  0  0  0
 11  4  1  0  0  0  0
 12 27  1  0  0  0  0
 12  9  1  0  0  0  0
 12  3  1  0  0  0  0
 13 30  2  0  0  0  0
 14 16  1  0  0  0  0
 15 26  1  0  0  0  0
 16  5  1  0  0  0  0
 16 30  1  0  0  0  0
 17 10  1  0  0  0  0
 17 15  2  0  0  0  0
 19 14  1  0  0  0  0
 20 17  1  0  0  0  0
 21  7  1  0  0  0  0
 22  8  1  0  0  0  0
 22 29  1  0  0  0  0
 23 22  1  0  0  0  0
 24  4  1  0  0  0  0
 24 12  1  0  0  0  0
 26  1  1  0  0  0  0
 26 21  2  0  0  0  0
 28 21  1  0  0  0  0
 29 20  1  0  0  0  0
 30 18  1  0  0  0  0
 31 20  1  0  0  0  0
 32 31  1  0  0  0  0
 33 35  1  0  0  0  0
 33  9  1  0  0  0  0
 34 35  1  0  0  0  0
 35 36  1  0  0  0  0
 36 44  1  0  0  0  0
 38 46  1  0  0  0  0
 38 39  1  0  0  0  0
 39 42  1  0  0  0  0
 39 43  1  0  0  0  0
 40 39  2  0  0  0  0
 42 37  1  0  0  0  0
 42 41  1  0  0  0  0
 44 38  1  0  0  0  0
 44 45  1  0  0  0  0
 45 42  1  0  0  0  0
 47 48  1  0  0  0  0
 47 33  1  0  0  0  0
 49 48  1  0  0  0  0
 50 49  1  0  0  0  0
 50 51  1  0  0  0  0
 52 53  2  0  0  0  0
 52 51  1  0  0  0  0
 54 52  2  0  0  0  0
 55 56  1  0  0  0  0
 58 59  1  0  0  0  0
 59 57  2  0  0  0  0
 59 56  1  0  0  0  0
 60 61  1  0  0  0  0
 61 62  1  0  0  0  0
 61 63  1  0  0  0  0
 62 63  1  0  0  0  0
 62 58  1  0  0  0  0
M  END
>  <MODEL>
6

>  <REMARK>
 VINA RESULT:      -1.0      4.914     11.504
  Name = 
  15 active torsions:
  status: ('A' for Active; 'I' for Inactive)
    1  A    between atoms: C_3  and  C_41
    2  A    between atoms: C_10  and  C_11
    3  A    between atoms: C_10  and  C_21
    4  A    between atoms: C_10  and  O_62
    5  A    between atoms: C_11  and  O_63
    6  A    between atoms: C_13  and  C_41
    7  A    between atoms: C_13  and  C_44
    8  A    between atoms: N_14  and  N_28
    9  A    between atoms: O_18  and  C_22
   10  A    between atoms: O_18  and  P_30
   11  A    between atoms: C_22  and  C_39
   12  A    between atoms: C_39  and  C_52
   13  A    between atoms: C_43  and  O_63
   14  A    between atoms: N_46  and  C_53
   15  A    between atoms: C_52  and  O_62
                            x       y       z     vdW  Elec       q    Type
                         _______ _______ _______ _____ _____    ______ ____

>  <TORSDO>
F 15

$$$$
=
 OpenBabel11062418043D

 63 69  0  0  1  0  0  0  0  0999 V2000
  191.6860  177.2670  140.7430 O   0  0  0  0  0  0  0  0  0  0  0  0
  192.4650  177.1260  139.6850 C   0  0  0  0  0  0  0  0  0  0  0  0
  184.7860  178.7550  139.5730 C   0  0  2  0  0  3  0  0  0  0  0  0
  186.9070  179.0090  137.9230 C   0  0  2  0  0  3  0  0  0  0  0  0
  185.2550  178.3460  142.5050 C   0  0  0  0  0  1  0  0  0  0  0  0
  191.8690  176.4720  138.6560 N   0  0  0  0  0  0  0  0  0  0  0  0
  189.2670  177.2000  142.4840 C   0  0  0  0  0  0  0  0  0  0  0  0
  187.7090  177.0610  136.4920 C   0  0  0  0  0  2  0  0  0  0  0  0
  183.6100  177.8690  139.3930 C   0  0  2  0  0  3  0  0  0  0  0  0
  188.4720  175.3730  139.3060 O   0  0  0  0  0  0  0  0  0  0  0  0
  188.0790  178.3720  137.1710 C   0  0  0  0  0  2  0  0  0  0  0  0
  184.7510  177.7710  138.3830 C   0  0  1  0  0  0  0  0  0  0  0  0
  188.4470  179.8790  141.9280 O   0  0  0  0  0  0  0  0  0  0  0  0
  186.1640  178.5030  140.1600 C   0  0  2  0  0  3  0  0  0  0  0  0
  190.6550  176.1970  139.1630 C   0  0  0  0  0  0  0  0  0  0  0  0
  186.2380  179.0590  141.5850 C   0  0  2  0  0  3  0  0  0  0  0  0
  189.6510  175.5500  138.5640 C   0  0  0  0  0  0  0  0  0  0  0  0
  188.0390  177.7840  142.7850 O   0  0  0  0  0  0  0  0  0  0  0  0
  187.1350  179.1510  139.3350 O   0  0  0  0  0  0  0  0  0  0  0  0
  189.7350  175.0920  137.2100 N   0  0  0  0  0  0  0  0  0  0  0  0
  189.4400  176.5810  141.1610 C   0  0  0  0  0  0  0  0  0  0  0  0
  188.7860  176.6420  135.5000 C   0  0  2  0  0  3  0  0  0  0  0  0
  188.2610  175.7080  134.6060 O   0  0  0  0  0  1  0  0  0  0  0  0
  185.4590  178.7030  137.4120 C   0  0  0  0  0  2  0  0  0  0  0  0
  190.2390  177.2030  143.3890 C   0  0  0  0  0  2  0  0  0  0  0  0
  190.5520  176.6900  140.4280 C   0  0  0  0  0  0  0  0  0  0  0  0
  185.4080  176.3950  138.5320 C   0  0  0  0  0  1  0  0  0  0  0  0
  188.3630  175.8950  140.5740 O   0  0  0  0  0  0  0  0  0  0  0  0
  190.0460  176.0740  136.1680 C   0  0  0  0  0  2  0  0  0  0  0  0
  187.6250  178.9450  142.1290 C   0  0  0  0  0  0  0  0  0  0  0  0
  189.0860  173.8370  136.8540 C   0  0  0  0  0  2  0  0  0  0  0  0
  187.8120  173.7870  137.4210 O   0  0  0  0  0  1  0  0  0  0  0  0
  182.4520  178.6470  138.7730 C   0  0  2  0  0  3  0  0  0  0  0  0
  182.0380  177.9460  136.4470 O   0  0  0  0  0  1  0  0  0  0  0  0
  181.6090  177.8370  137.7800 C   0  0  1  0  0  3  0  0  0  0  0  0
  181.4020  176.5060  138.2330 O   0  0  0  0  0  0  0  0  0  0  0  0
  179.2290  173.8480  135.2450 O   0  0  0  0  0  1  0  0  0  0  0  0
  182.3510  174.5860  137.0890 C   0  0  1  0  0  3  0  0  0  0  0  0
  181.6560  173.2620  136.0940 P   0  0  2  0  0  0  0  0  0  0  0  0
  181.9800  173.4800  134.6330 O   0  0  0  0  0  0  0  0  0  0  0  0
  179.2670  172.4800  137.1920 C   0  0  0  0  0  1  0  0  0  0  0  0
  179.9160  173.6210  136.4360 C   0  0  2  0  0  0  0  0  0  0  0  0
  182.2280  171.6260  136.6300 C   0  0  0  0  0  1  0  0  0  0  0  0
  181.2290  175.6180  137.1540 C   0  0  1  0  0  3  0  0  0  0  0  0
  179.8960  174.8800  137.2960 C   0  0  0  0  0  2  0  0  0  0  0  0
  182.6490  174.1020  138.3670 O   0  0  0  0  0  1  0  0  0  0  0  0
  182.9360  179.7950  138.1350 O   0  0  0  0  0  0  0  0  0  0  0  0
  182.1420  180.8460  138.6080 C   0  0  0  0  0  2  0  0  0  0  0  0
  181.0490  181.1690  137.6050 C   0  0  0  0  0  2  0  0  0  0  0  0
  180.2310  182.3320  138.1310 C   0  0  0  0  0  2  0  0  0  0  0  0
  179.6950  183.0560  137.0670 O   0  0  0  0  0  0  0  0  0  0  0  0
  180.9420  184.0960  136.5780 P   0  0  0  0  0  0  0  0  0  0  0  0
  181.2270  184.2950  135.1070 O   0  0  0  0  0  0  0  0  0  0  0  0
  181.7720  184.8290  137.6100 O   0  0  0  0  0  0  0  0  0  0  0  0
  193.8720  177.6070  139.6320 C   0  0  0  0  0  2  0  0  0  0  0  0
  194.6880  176.9080  140.7050 C   0  0  0  0  0  2  0  0  0  0  0  0
  196.6840  175.6200  140.5350 O   0  0  0  0  0  0  0  0  0  0  0  0
  195.0160  175.0940  138.9910 N   0  0  0  0  0  2  0  0  0  0  0  0
  195.5270  175.8400  140.0960 C   0  0  0  0  0  0  0  0  0  0  0  0
  196.5560  173.5310  136.2890 O   0  0  0  0  0  1  0  0  0  0  0  0
  195.5230  174.1580  136.9870 C   0  0  2  0  0  3  0  0  0  0  0  0
  195.7710  174.0790  138.3870 N   0  0  0  0  0  0  0  0  0  0  0  0
  194.8270  173.1910  137.7600 N   0  0  0  0  0  2  0  0  0  0  0  0
  2  1  1  0  0  0  0
  3 14  1  0  0  0  0
  4 19  1  0  0  0  0
  6 15  1  0  0  0  0
  6  2  2  0  0  0  0
  7 18  1  0  0  0  0
  7 25  2  0  0  0  0
  8 11  1  0  0  0  0
  9  3  1  0  0  0  0
 10 28  1  0  0  0  0
 11  4  1  0  0  0  0
 12 27  1  0  0  0  0
 12  9  1  0  0  0  0
 12  3  1  0  0  0  0
 13 30  2  0  0  0  0
 14 16  1  0  0  0  0
 15 26  1  0  0  0  0
 16 30  1  0  0  0  0
 16  5  1  0  0  0  0
 17 15  2  0  0  0  0
 17 10  1  0  0  0  0
 19 14  1  0  0  0  0
 20 17  1  0  0  0  0
 21  7  1  0  0  0  0
 22 29  1  0  0  0  0
 22  8  1  0  0  0  0
 23 22  1  0  0  0  0
 24  4  1  0  0  0  0
 24 12  1  0  0  0  0
 26  1  1  0  0  0  0
 26 21  2  0  0  0  0
 28 21  1  0  0  0  0
 29 20  1  0  0  0  0
 30 18  1  0  0  0  0
 31 20  1  0  0  0  0
 31 32  1  0  0  0  0
 33  9  1  0  0  0  0
 34 35  1  0  0  0  0
 35 36  1  0  0  0  0
 35 33  1  0  0  0  0
 37 42  1  0  0  0  0
 38 44  1  0  0  0  0
 38 46  1  0  0  0  0
 39 42  1  0  0  0  0
 39 43  1  0  0  0  0
 39 38  1  0  0  0  0
 40 39  2  0  0  0  0
 42 41  1  0  0  0  0
 42 45  1  0  0  0  0
 44 45  1  0  0  0  0
 44 36  1  0  0  0  0
 47 48  1  0  0  0  0
 47 33  1  0  0  0  0
 49 50  1  0  0  0  0
 49 48  1  0  0  0  0
 51 50  1  0  0  0  0
 52 51  1  0  0  0  0
 52 54  2  0  0  0  0
 53 52  2  0  0  0  0
 55  2  1  0  0  0  0
 55 56  1  0  0  0  0
 58 59  1  0  0  0  0
 59 57  2  0  0  0  0
 59 56  1  0  0  0  0
 60 61  1  0  0  0  0
 61 63  1  0  0  0  0
 61 62  1  0  0  0  0
 62 58  1  0  0  0  0
 63 62  1  0  0  0  0
M  END
>  <MODEL>
7

>  <REMARK>
 VINA RESULT:      -0.4      4.874     10.916
  Name = 
  15 active torsions:
  status: ('A' for Active; 'I' for Inactive)
    1  A    between atoms: C_3  and  C_41
    2  A    between atoms: C_10  and  C_11
    3  A    between atoms: C_10  and  C_21
    4  A    between atoms: C_10  and  O_62
    5  A    between atoms: C_11  and  O_63
    6  A    between atoms: C_13  and  C_41
    7  A    between atoms: C_13  and  C_44
    8  A    between atoms: N_14  and  N_28
    9  A    between atoms: O_18  and  C_22
   10  A    between atoms: O_18  and  P_30
   11  A    between atoms: C_22  and  C_39
   12  A    between atoms: C_39  and  C_52
   13  A    between atoms: C_43  and  O_63
   14  A    between atoms: N_46  and  C_53
   15  A    between atoms: C_52  and  O_62
                            x       y       z     vdW  Elec       q    Type
                         _______ _______ _______ _____ _____    ______ ____

>  <TORSDO>
F 15

$$$$
=
 OpenBabel11062418043D

 63 69  0  0  1  0  0  0  0  0999 V2000
  194.3730  176.1530  136.9020 O   0  0  0  0  0  0  0  0  0  0  0  0
  194.1820  176.1330  135.5950 C   0  0  0  0  0  0  0  0  0  0  0  0
  188.9610  178.4380  140.9850 C   0  0  2  0  0  3  0  0  0  0  0  0
  189.3940  178.7890  138.3450 C   0  0  2  0  0  3  0  0  0  0  0  0
  191.2070  177.4750  142.7210 C   0  0  0  0  0  1  0  0  0  0  0  0
  192.9370  175.7280  135.2350 N   0  0  0  0  0  0  0  0  0  0  0  0
  193.8250  175.9950  139.8280 C   0  0  0  0  0  0  0  0  0  0  0  0
  188.6260  177.0620  136.6380 C   0  0  0  0  0  2  0  0  0  0  0  0
  187.8370  177.7070  141.6210 C   0  0  2  0  0  3  0  0  0  0  0  0
  190.7600  174.8390  138.0000 O   0  0  0  0  0  0  0  0  0  0  0  0
  189.5960  178.1930  136.9490 C   0  0  0  0  0  2  0  0  0  0  0  0
  187.9430  177.6880  140.0990 C   0  0  1  0  0  0  0  0  0  0  0  0
  193.3700  178.7920  140.1800 O   0  0  0  0  0  0  0  0  0  0  0  0
  190.2900  177.9620  140.4250 C   0  0  2  0  0  3  0  0  0  0  0  0
  192.3680  175.4770  136.4260 C   0  0  0  0  0  0  0  0  0  0  0  0
  191.4140  178.2480  141.4250 C   0  0  2  0  0  3  0  0  0  0  0  0
  191.1270  175.0400  136.6590 C   0  0  0  0  0  0  0  0  0  0  0  0
  193.2680  176.6240  140.9390 O   0  0  0  0  0  0  0  0  0  0  0  0
  190.5410  178.6570  139.2010 O   0  0  0  0  0  0  0  0  0  0  0  0
  190.1820  174.8240  135.6060 N   0  0  0  0  0  0  0  0  0  0  0  0
  192.9330  175.6070  138.7240 C   0  0  0  0  0  0  0  0  0  0  0  0
  188.6380  176.7320  135.1510 C   0  0  2  0  0  3  0  0  0  0  0  0
  187.4840  176.0220  134.8200 O   0  0  0  0  0  1  0  0  0  0  0  0
  187.9620  178.7110  138.9720 C   0  0  0  0  0  2  0  0  0  0  0  0
  195.1300  175.7490  139.7940 C   0  0  0  0  0  2  0  0  0  0  0  0
  193.2460  175.7450  137.4320 C   0  0  0  0  0  0  0  0  0  0  0  0
  188.2520  176.2540  139.6560 C   0  0  0  0  0  1  0  0  0  0  0  0
  191.6420  175.1360  139.0140 O   0  0  0  0  0  0  0  0  0  0  0  0
  189.8800  175.9440  134.7100 C   0  0  0  0  0  2  0  0  0  0  0  0
  192.7470  177.9150  140.8360 C   0  0  0  0  0  0  0  0  0  0  0  0
  189.2430  173.7150  135.7240 C   0  0  0  0  0  2  0  0  0  0  0  0
  189.6840  172.6390  134.9510 O   0  0  0  0  0  1  0  0  0  0  0  0
  186.7400  178.6840  142.0390 C   0  0  2  0  0  3  0  0  0  0  0  0
  185.2560  179.1770  143.9430 O   0  0  0  0  0  1  0  0  0  0  0  0
  186.5550  178.8110  143.5560 C   0  0  1  0  0  3  0  0  0  0  0  0
  187.0890  177.6890  144.2440 O   0  0  0  0  0  0  0  0  0  0  0  0
  190.8300  177.7990  146.8350 O   0  0  0  0  0  1  0  0  0  0  0  0
  187.1840  178.3700  146.5730 C   0  0  1  0  0  3  0  0  0  0  0  0
  188.4410  178.2630  147.8510 P   0  0  2  0  0  0  0  0  0  0  0  0
  189.0540  179.6240  148.0970 O   0  0  0  0  0  0  0  0  0  0  0  0
  189.7270  175.8490  147.6380 C   0  0  0  0  0  1  0  0  0  0  0  0
  189.5820  177.1890  146.9460 C   0  0  2  0  0  0  0  0  0  0  0  0
  187.7930  177.5730  149.3980 C   0  0  0  0  0  1  0  0  0  0  0  0
  187.9510  178.0880  145.2850 C   0  0  1  0  0  3  0  0  0  0  0  0
  188.9770  176.9860  145.5610 C   0  0  0  0  0  2  0  0  0  0  0  0
  186.2100  177.3900  146.7920 O   0  0  0  0  0  1  0  0  0  0  0  0
  185.5230  178.3100  141.4560 O   0  0  0  0  0  0  0  0  0  0  0  0
  185.0420  179.4650  140.8290 C   0  0  0  0  0  2  0  0  0  0  0  0
  184.2640  179.0950  139.5780 C   0  0  0  0  0  2  0  0  0  0  0  0
  182.7930  178.9980  139.9290 C   0  0  0  0  0  2  0  0  0  0  0  0
  182.1740  178.0420  139.1240 O   0  0  0  0  0  0  0  0  0  0  0  0
  181.0890  178.9210  138.1620 P   0  0  0  0  0  0  0  0  0  0  0  0
  179.6380  178.5050  138.0840 O   0  0  0  0  0  0  0  0  0  0  0  0
  181.5680  180.1260  137.3800 O   0  0  0  0  0  0  0  0  0  0  0  0
  195.2350  176.4860  134.6050 C   0  0  0  0  0  2  0  0  0  0  0  0
  196.5890  176.0360  135.1230 C   0  0  0  0  0  2  0  0  0  0  0  0
  196.9670  174.4060  136.8190 O   0  0  0  0  0  0  0  0  0  0  0  0
  195.8820  173.6310  134.9050 N   0  0  0  0  0  2  0  0  0  0  0  0
  196.4910  174.6600  135.6830 C   0  0  0  0  0  0  0  0  0  0  0  0
  194.4900  170.4420  135.0000 O   0  0  0  0  0  1  0  0  0  0  0  0
  194.4930  171.8370  134.9780 C   0  0  2  0  0  3  0  0  0  0  0  0
  195.7670  172.3220  135.3930 N   0  0  0  0  0  0  0  0  0  0  0  0
  194.6500  172.3250  136.3020 N   0  0  0  0  0  2  0  0  0  0  0  0
  1 26  1  0  0  0  0
  2  1  1  0  0  0  0
  3  9  1  0  0  0  0
  4 24  1  0  0  0  0
  4 19  1  0  0  0  0
  6  2  2  0  0  0  0
  6 15  1  0  0  0  0
  7 18  1  0  0  0  0
  8 11  1  0  0  0  0
  9 33  1  0  0  0  0
 10 28  1  0  0  0  0
 11  4  1  0  0  0  0
 12  3  1  0  0  0  0
 12  9  1  0  0  0  0
 13 30  2  0  0  0  0
 14  3  1  0  0  0  0
 14 16  1  0  0  0  0
 15 17  2  0  0  0  0
 15 26  1  0  0  0  0
 16  5  1  0  0  0  0
 17 10  1  0  0  0  0
 19 14  1  0  0  0  0
 20 31  1  0  0  0  0
 20 17  1  0  0  0  0
 21 28  1  0  0  0  0
 21  7  1  0  0  0  0
 22  8  1  0  0  0  0
 23 22  1  0  0  0  0
 24 12  1  0  0  0  0
 25  7  2  0  0  0  0
 26 21  2  0  0  0  0
 27 12  1  0  0  0  0
 29 22  1  0  0  0  0
 29 20  1  0  0  0  0
 30 18  1  0  0  0  0
 30 16  1  0  0  0  0
 32 31  1  0  0  0  0
 33 35  1  0  0  0  0
 35 34  1  0  0  0  0
 35 36  1  0  0  0  0
 36 44  1  0  0  0  0
 37 42  1  0  0  0  0
 38 46  1  0  0  0  0
 38 39  1  0  0  0  0
 39 40  2  0  0  0  0
 39 43  1  0  0  0  0
 42 41  1  0  0  0  0
 42 39  1  0  0  0  0
 44 45  1  0  0  0  0
 44 38  1  0  0  0  0
 45 42  1  0  0  0  0
 47 33  1  0  0  0  0
 48 47  1  0  0  0  0
 49 50  1  0  0  0  0
 49 48  1  0  0  0  0
 51 50  1  0  0  0  0
 52 51  1  0  0  0  0
 53 52  2  0  0  0  0
 54 52  2  0  0  0  0
 55 56  1  0  0  0  0
 55  2  1  0  0  0  0
 56 59  1  0  0  0  0
 58 62  1  0  0  0  0
 58 59  1  0  0  0  0
 59 57  2  0  0  0  0
 61 60  1  0  0  0  0
 61 62  1  0  0  0  0
 61 63  1  0  0  0  0
 62 63  1  0  0  0  0
M  END
>  <MODEL>
8

>  <REMARK>
 VINA RESULT:      -0.2      4.900     10.830
  Name = 
  15 active torsions:
  status: ('A' for Active; 'I' for Inactive)
    1  A    between atoms: C_3  and  C_41
    2  A    between atoms: C_10  and  C_11
    3  A    between atoms: C_10  and  C_21
    4  A    between atoms: C_10  and  O_62
    5  A    between atoms: C_11  and  O_63
    6  A    between atoms: C_13  and  C_41
    7  A    between atoms: C_13  and  C_44
    8  A    between atoms: N_14  and  N_28
    9  A    between atoms: O_18  and  C_22
   10  A    between atoms: O_18  and  P_30
   11  A    between atoms: C_22  and  C_39
   12  A    between atoms: C_39  and  C_52
   13  A    between atoms: C_43  and  O_63
   14  A    between atoms: N_46  and  C_53
   15  A    between atoms: C_52  and  O_62
                            x       y       z     vdW  Elec       q    Type
                         _______ _______ _______ _____ _____    ______ ____

>  <TORSDO>
F 15

$$$$
=
 OpenBabel11062418043D

 63 69  0  0  1  0  0  0  0  0999 V2000
  191.8690  177.4790  141.0210 O   0  0  0  0  0  0  0  0  0  0  0  0
  192.7760  177.3650  140.0660 C   0  0  0  0  0  0  0  0  0  0  0  0
  185.0680  178.4150  139.0040 C   0  0  2  0  0  3  0  0  0  0  0  0
  187.3460  178.7760  137.6020 C   0  0  2  0  0  3  0  0  0  0  0  0
  185.2150  178.1300  141.9840 C   0  0  0  0  0  1  0  0  0  0  0  0
  192.3530  176.6380  139.0010 N   0  0  0  0  0  0  0  0  0  0  0  0
  189.2720  177.2840  142.4710 C   0  0  0  0  0  0  0  0  0  0  0  0
  188.4460  176.8510  136.3490 C   0  0  0  0  0  2  0  0  0  0  0  0
  183.9870  177.4390  138.7230 C   0  0  2  0  0  3  0  0  0  0  0  0
  188.9880  175.3090  139.2960 O   0  0  0  0  0  0  0  0  0  0  0  0
  188.6400  178.2060  137.0160 C   0  0  0  0  0  2  0  0  0  0  0  0
  185.2430  177.3960  137.8570 C   0  0  1  0  0  0  0  0  0  0  0  0
  188.3370  179.8770  141.7220 O   0  0  0  0  0  0  0  0  0  0  0  0
  186.3810  178.2830  139.7560 C   0  0  2  0  0  3  0  0  0  0  0  0
  191.1100  176.2890  139.3740 C   0  0  0  0  0  0  0  0  0  0  0  0
  186.2470  178.8860  141.1580 C   0  0  2  0  0  3  0  0  0  0  0  0
  190.2310  175.5510  138.6880 C   0  0  0  0  0  0  0  0  0  0  0  0
  187.9790  177.7840  142.6060 O   0  0  0  0  0  0  0  0  0  0  0  0
  187.3950  178.9760  139.0240 O   0  0  0  0  0  0  0  0  0  0  0  0
  190.5070  175.0610  137.3720 N   0  0  0  0  0  0  0  0  0  0  0  0
  189.6430  176.6400  141.2020 C   0  0  0  0  0  0  0  0  0  0  0  0
  189.6600  176.4840  135.5050 C   0  0  2  0  0  3  0  0  0  0  0  0
  189.3110  175.4870  134.5940 O   0  0  0  0  0  1  0  0  0  0  0  0
  185.9930  178.3490  136.9390 C   0  0  0  0  0  2  0  0  0  0  0  0
  190.1280  177.3860  143.4820 C   0  0  0  0  0  2  0  0  0  0  0  0
  190.8240  176.8100  140.5990 C   0  0  0  0  0  0  0  0  0  0  0  0
  185.9730  176.0770  138.1340 C   0  0  0  0  0  1  0  0  0  0  0  0
  188.6940  175.8600  140.5210 O   0  0  0  0  0  0  0  0  0  0  0  0
  190.8690  176.0320  136.3360 C   0  0  0  0  0  2  0  0  0  0  0  0
  187.5650  178.8910  141.8620 C   0  0  0  0  0  0  0  0  0  0  0  0
  189.9940  173.7510  136.9920 C   0  0  0  0  0  2  0  0  0  0  0  0
  190.9850  173.0330  136.3200 O   0  0  0  0  0  1  0  0  0  0  0  0
  182.8580  178.1100  137.9440 C   0  0  2  0  0  3  0  0  0  0  0  0
  182.9640  178.4590  135.5070 O   0  0  0  0  0  1  0  0  0  0  0  0
  182.6500  177.5510  136.5310 C   0  0  1  0  0  3  0  0  0  0  0  0
  183.2340  176.2640  136.3860 O   0  0  0  0  0  0  0  0  0  0  0  0
  179.3110  174.6860  134.7010 O   0  0  0  0  0  1  0  0  0  0  0  0
  182.5450  173.9360  136.3360 C   0  0  1  0  0  3  0  0  0  0  0  0
  180.9940  173.1050  135.9740 P   0  0  2  0  0  0  0  0  0  0  0  0
  181.0580  172.4460  134.6140 O   0  0  0  0  0  0  0  0  0  0  0  0
  178.9310  174.5590  137.0460 C   0  0  0  0  0  1  0  0  0  0  0  0
  179.9560  174.5860  135.9320 C   0  0  2  0  0  0  0  0  0  0  0  0
  180.5540  171.8880  137.2450 C   0  0  0  0  0  1  0  0  0  0  0  0
  182.3280  175.3520  135.8100 C   0  0  1  0  0  3  0  0  0  0  0  0
  180.8920  175.7750  136.1270 C   0  0  0  0  0  2  0  0  0  0  0  0
  182.7560  173.9500  137.7180 O   0  0  0  0  0  1  0  0  0  0  0  0
  183.0880  179.4880  137.8640 O   0  0  0  0  0  0  0  0  0  0  0  0
  181.8340  180.0610  137.6270 C   0  0  0  0  0  2  0  0  0  0  0  0
  181.2840  180.6660  138.9070 C   0  0  0  0  0  2  0  0  0  0  0  0
  179.9410  180.0290  139.2100 C   0  0  0  0  0  2  0  0  0  0  0  0
  180.0410  179.2260  140.3450 O   0  0  0  0  0  0  0  0  0  0  0  0
  179.8430  180.2900  141.6490 P   0  0  0  0  0  0  0  0  0  0  0  0
  180.1510  179.8300  143.0550 O   0  0  0  0  0  0  0  0  0  0  0  0
  179.3590  181.7050  141.4110 O   0  0  0  0  0  0  0  0  0  0  0  0
  194.1420  177.9460  140.1580 C   0  0  0  0  0  2  0  0  0  0  0  0
  195.0870  176.9270  140.7670 C   0  0  0  0  0  2  0  0  0  0  0  0
  196.7410  175.4700  139.8620 O   0  0  0  0  0  0  0  0  0  0  0  0
  194.8800  175.8420  138.5060 N   0  0  0  0  0  2  0  0  0  0  0  0
  195.6260  176.0310  139.7070 C   0  0  0  0  0  0  0  0  0  0  0  0
  195.1510  174.8100  135.1920 O   0  0  0  0  0  1  0  0  0  0  0  0
  194.4990  175.2170  136.3570 C   0  0  2  0  0  3  0  0  0  0  0  0
  195.3480  175.0070  137.4820 N   0  0  0  0  0  0  0  0  0  0  0  0
  194.2800  174.0870  137.1900 N   0  0  0  0  0  2  0  0  0  0  0  0
  2 55  1  0  0  0  0
  2  1  1  0  0  0  0
  3 14  1  0  0  0  0
  4 19  1  0  0  0  0
  6 15  1  0  0  0  0
  6  2  2  0  0  0  0
  7 18  1  0  0  0  0
  7 25  2  0  0  0  0
  8 11  1  0  0  0  0
  9  3  1  0  0  0  0
 10 28  1  0  0  0  0
 11  4  1  0  0  0  0
 12 27  1  0  0  0  0
 12  9  1  0  0  0  0
 12  3  1  0  0  0  0
 13 30  2  0  0  0  0
 14 16  1  0  0  0  0
 15 26  1  0  0  0  0
 16 30  1  0  0  0  0
 16  5  1  0  0  0  0
 17 10  1  0  0  0  0
 17 15  2  0  0  0  0
 19 14  1  0  0  0  0
 20 17  1  0  0  0  0
 21  7  1  0  0  0  0
 22 29  1  0  0  0  0
 22  8  1  0  0  0  0
 23 22  1  0  0  0  0
 24  4  1  0  0  0  0
 24 12  1  0  0  0  0
 26  1  1  0  0  0  0
 26 21  2  0  0  0  0
 28 21  1  0  0  0  0
 29 20  1  0  0  0  0
 30 18  1  0  0  0  0
 31 20  1  0  0  0  0
 32 31  1  0  0  0  0
 33  9  1  0  0  0  0
 34 35  1  0  0  0  0
 35 33  1  0  0  0  0
 36 35  1  0  0  0  0
 37 42  1  0  0  0  0
 38 46  1  0  0  0  0
 39 38  1  0  0  0  0
 39 43  1  0  0  0  0
 40 39  2  0  0  0  0
 42 39  1  0  0  0  0
 42 45  1  0  0  0  0
 42 41  1  0  0  0  0
 44 45  1  0  0  0  0
 44 38  1  0  0  0  0
 44 36  1  0  0  0  0
 47 33  1  0  0  0  0
 48 47  1  0  0  0  0
 48 49  1  0  0  0  0
 49 50  1  0  0  0  0
 50 51  1  0  0  0  0
 51 52  1  0  0  0  0
 52 53  2  0  0  0  0
 54 52  2  0  0  0  0
 55 56  1  0  0  0  0
 58 59  1  0  0  0  0
 59 57  2  0  0  0  0
 59 56  1  0  0  0  0
 60 61  1  0  0  0  0
 61 63  1  0  0  0  0
 61 62  1  0  0  0  0
 62 58  1  0  0  0  0
 63 62  1  0  0  0  0
M  END
>  <MODEL>
9

>  <REMARK>
 VINA RESULT:      -0.0      4.679     10.652
  Name = 
  15 active torsions:
  status: ('A' for Active; 'I' for Inactive)
    1  A    between atoms: C_3  and  C_41
    2  A    between atoms: C_10  and  C_11
    3  A    between atoms: C_10  and  C_21
    4  A    between atoms: C_10  and  O_62
    5  A    between atoms: C_11  and  O_63
    6  A    between atoms: C_13  and  C_41
    7  A    between atoms: C_13  and  C_44
    8  A    between atoms: N_14  and  N_28
    9  A    between atoms: O_18  and  C_22
   10  A    between atoms: O_18  and  P_30
   11  A    between atoms: C_22  and  C_39
   12  A    between atoms: C_39  and  C_52
   13  A    between atoms: C_43  and  O_63
   14  A    between atoms: N_46  and  C_53
   15  A    between atoms: C_52  and  O_62
                            x       y       z     vdW  Elec       q    Type
                         _______ _______ _______ _____ _____    ______ ____

>  <TORSDO>
F 15

$$$$
