=
 OpenBabel11062412333D

 33 35  0  0  1  0  0  0  0  0999 V2000
  188.3470  178.0650  141.7100 C   0  0  0  0  0  0  0  0  0  0  0  0
  187.0380  178.1780  142.2780 N   0  0  0  0  0  2  0  0  0  0  0  0
  188.5850  178.5690  140.5780 O   0  0  0  0  0  0  0  0  0  0  0  0
  189.4520  177.3760  142.4750 C   0  0  2  0  0  0  0  0  0  0  0  0
  190.5720  177.2340  141.6520 O   0  0  0  0  0  1  0  0  0  0  0  0
  189.0030  175.9770  142.8730 C   0  0  0  0  0  1  0  0  0  0  0  0
  191.0270  179.1110  143.5570 C   0  0  0  0  0  1  0  0  0  0  0  0
  189.8510  178.1550  143.7480 C   0  0  2  0  0  3  0  0  0  0  0  0
  189.9430  177.3030  145.0340 C   0  0  2  0  0  3  0  0  0  0  0  0
  189.7180  177.5550  147.5390 C   0  0  0  0  0  2  0  0  0  0  0  0
  186.5930  179.2430  147.0630 O   0  0  0  0  0  1  0  0  0  0  0  0
  188.8920  178.1840  148.6550 C   0  0  0  0  0  2  0  0  0  0  0  0
  187.4660  177.6380  148.6250 C   0  0  0  0  0  2  0  0  0  0  0  0
  189.0910  177.8710  146.1790 C   0  0  2  0  0  3  0  0  0  0  0  0
  187.6670  177.3030  146.1380 C   0  0  0  0  0  2  0  0  0  0  0  0
  186.8090  177.8790  147.2650 C   0  0  2  0  0  3  0  0  0  0  0  0
  191.3850  177.0040  145.4620 C   0  0  0  0  0  2  0  0  0  0  0  0
  191.8910  175.8870  144.7930 O   0  0  0  0  0  1  0  0  0  0  0  0
  185.9770  178.9250  141.6240 C   0  0  0  0  0  2  0  0  0  0  0  0
  182.3640  178.6000  142.9930 C   0  0  0  0  0  2  0  0  0  0  0  0
  184.7640  178.9560  142.4970 C   0  0  0  0  0  0  0  0  0  0  0  0
  183.5200  178.6950  142.0250 C   0  0  0  0  0  0  0  0  0  0  0  0
  182.5590  179.4730  144.1480 N   0  0  0  0  0  2  0  0  0  0  0  0
  183.7820  179.0460  144.8140 C   0  0  0  0  0  2  0  0  0  0  0  0
  184.9810  179.3740  143.9300 C   0  0  0  0  0  2  0  0  0  0  0  0
  183.1550  177.0200  140.1870 C   0  0  0  0  0  3  0  0  0  0  0  0
  183.1610  179.3800  139.6510 C   0  0  0  0  0  3  0  0  0  0  0  0
  182.9560  179.0750  138.3040 C   0  0  0  0  0  3  0  0  0  0  0  0
  182.9550  176.7080  138.8380 C   0  0  0  0  0  0  0  0  0  0  0  0
  182.8520  177.7430  137.8970 C   0  0  0  0  0  3  0  0  0  0  0  0
  183.2490  178.3560  140.6070 C   0  0  0  0  0  0  0  0  0  0  0  0
  183.8860  174.7170  137.7020 C   0  0  0  0  0  1  0  0  0  0  0  0
  182.8740  175.3640  138.4600 O   0  0  0  0  0  0  0  0  0  0  0  0
  1  2  1  0  0  0  0
  1  4  1  0  0  0  0
  3  1  2  0  0  0  0
  4  6  1  1  0  0  0
  4  8  1  0  0  0  0
  5  4  1  0  0  0  0
  8  7  1  6  0  0  0
  8  9  1  0  0  0  0
  9 17  1  1  0  0  0
 10 12  1  0  0  0  0
 13 12  1  0  0  0  0
 14  9  1  6  0  0  0
 14 10  1  0  0  0  0
 15 14  1  0  0  0  0
 15 16  1  0  0  0  0
 16 11  1  6  0  0  0
 16 13  1  0  0  0  0
 18 17  1  0  0  0  0
 19  2  1  0  0  0  0
 19 21  1  0  0  0  0
 20 23  1  0  0  0  0
 21 25  1  0  0  0  0
 22 21  2  0  0  0  0
 22 20  1  0  0  0  0
 23 24  1  0  0  0  0
 25 24  1  0  0  0  0
 26 31  1  0  0  0  0
 27 31  2  0  0  0  0
 28 27  1  0  0  0  0
 29 26  2  0  0  0  0
 30 28  2  0  0  0  0
 30 29  1  0  0  0  0
 31 22  1  0  0  0  0
 32 33  1  0  0  0  0
 33 29  1  0  0  0  0
M  END
>  <MODEL>
1

>  <REMARK>
 VINA RESULT:      -8.4      0.000      0.000
  Name = 
  9 active torsions:
  status: ('A' for Active; 'I' for Inactive)
    1  A    between atoms: C_1  and  C_21
    2  A    between atoms: C_5  and  N_7
    3  A    between atoms: C_5  and  C_14
    4  A    between atoms: C_15  and  C_27
    5  A    between atoms: C_16  and  C_33
    6  A    between atoms: C_20  and  C_27
    7  A    between atoms: C_21  and  C_25
    8  A    between atoms: C_23  and  O_24
    9  A    between atoms: C_25  and  C_27
                            x       y       z     vdW  Elec       q    Type
                         _______ _______ _______ _____ _____    ______ ____

>  <TORSDO>
F 9

$$$$
=
 OpenBabel11062412333D

 33 35  0  0  1  0  0  0  0  0999 V2000
  188.2740  178.0620  141.7270 C   0  0  0  0  0  0  0  0  0  0  0  0
  186.9680  178.1300  142.3070 N   0  0  0  0  0  2  0  0  0  0  0  0
  188.4900  178.5930  140.6030 O   0  0  0  0  0  0  0  0  0  0  0  0
  189.4020  177.3850  142.4690 C   0  0  2  0  0  0  0  0  0  0  0  0
  190.5080  177.2590  141.6240 O   0  0  0  0  0  1  0  0  0  0  0  0
  188.9790  175.9800  142.8750 C   0  0  0  0  0  1  0  0  0  0  0  0
  190.9820  179.1340  143.5230 C   0  0  0  0  0  1  0  0  0  0  0  0
  189.8160  178.1690  143.7340 C   0  0  2  0  0  3  0  0  0  0  0  0
  189.9370  177.3180  145.0190 C   0  0  2  0  0  3  0  0  0  0  0  0
  189.7260  177.5250  147.5290 C   0  0  0  0  0  2  0  0  0  0  0  0
  186.6370  179.2900  147.0990 O   0  0  0  0  0  1  0  0  0  0  0  0
  188.9170  178.1490  148.6610 C   0  0  0  0  0  2  0  0  0  0  0  0
  187.4790  177.6350  148.6250 C   0  0  0  0  0  2  0  0  0  0  0  0
  189.1020  177.8820  146.1780 C   0  0  2  0  0  3  0  0  0  0  0  0
  187.6650  177.3450  146.1320 C   0  0  0  0  0  2  0  0  0  0  0  0
  186.8230  177.9170  147.2730 C   0  0  2  0  0  3  0  0  0  0  0  0
  191.3880  177.0300  145.4220 C   0  0  0  0  0  2  0  0  0  0  0  0
  191.8590  175.8620  144.8190 O   0  0  0  0  0  1  0  0  0  0  0  0
  185.8820  178.8610  141.6760 C   0  0  0  0  0  2  0  0  0  0  0  0
  182.2930  178.6110  143.1230 C   0  0  0  0  0  2  0  0  0  0  0  0
  184.6940  178.8920  142.5830 C   0  0  0  0  0  0  0  0  0  0  0  0
  183.4280  178.7150  142.1300 C   0  0  0  0  0  0  0  0  0  0  0  0
  182.5570  179.4010  144.3220 N   0  0  0  0  0  2  0  0  0  0  0  0
  183.7760  178.8810  144.9270 C   0  0  0  0  0  2  0  0  0  0  0  0
  184.9650  179.2110  144.0320 C   0  0  0  0  0  2  0  0  0  0  0  0
  182.5880  179.5020  139.8970 C   0  0  0  0  0  3  0  0  0  0  0  0
  183.2450  177.1890  140.1630 C   0  0  0  0  0  3  0  0  0  0  0  0
  182.8980  176.9370  138.8340 C   0  0  0  0  0  3  0  0  0  0  0  0
  182.2320  179.2550  138.5660 C   0  0  0  0  0  0  0  0  0  0  0  0
  182.3940  177.9670  138.0370 C   0  0  0  0  0  3  0  0  0  0  0  0
  183.1060  178.4770  140.7030 C   0  0  0  0  0  0  0  0  0  0  0  0
  181.5800  181.6270  138.2980 C   0  0  0  0  0  1  0  0  0  0  0  0
  181.7140  180.3030  137.7990 O   0  0  0  0  0  0  0  0  0  0  0  0
  1  2  1  0  0  0  0
  1  4  1  0  0  0  0
  3  1  2  0  0  0  0
  4  6  1  1  0  0  0
  4  8  1  0  0  0  0
  5  4  1  0  0  0  0
  8  7  1  6  0  0  0
  8  9  1  0  0  0  0
  9 17  1  1  0  0  0
 10 12  1  0  0  0  0
 13 12  1  0  0  0  0
 14  9  1  6  0  0  0
 14 10  1  0  0  0  0
 15 14  1  0  0  0  0
 15 16  1  0  0  0  0
 16 11  1  6  0  0  0
 16 13  1  0  0  0  0
 18 17  1  0  0  0  0
 19  2  1  0  0  0  0
 19 21  1  0  0  0  0
 20 23  1  0  0  0  0
 21 25  1  0  0  0  0
 22 21  2  0  0  0  0
 22 20  1  0  0  0  0
 23 24  1  0  0  0  0
 25 24  1  0  0  0  0
 26 31  1  0  0  0  0
 27 31  2  0  0  0  0
 28 27  1  0  0  0  0
 29 26  2  0  0  0  0
 30 29  1  0  0  0  0
 30 28  2  0  0  0  0
 31 22  1  0  0  0  0
 33 32  1  0  0  0  0
 33 29  1  0  0  0  0
M  END
>  <MODEL>
2

>  <REMARK>
 VINA RESULT:      -8.3      1.048      1.773
  Name = 
  9 active torsions:
  status: ('A' for Active; 'I' for Inactive)
    1  A    between atoms: C_1  and  C_21
    2  A    between atoms: C_5  and  N_7
    3  A    between atoms: C_5  and  C_14
    4  A    between atoms: C_15  and  C_27
    5  A    between atoms: C_16  and  C_33
    6  A    between atoms: C_20  and  C_27
    7  A    between atoms: C_21  and  C_25
    8  A    between atoms: C_23  and  O_24
    9  A    between atoms: C_25  and  C_27
                            x       y       z     vdW  Elec       q    Type
                         _______ _______ _______ _____ _____    ______ ____

>  <TORSDO>
F 9

$$$$
=
 OpenBabel11062412333D

 33 35  0  0  1  0  0  0  0  0999 V2000
  190.2670  177.2200  141.3170 C   0  0  0  0  0  0  0  0  0  0  0  0
  188.8850  177.3460  140.9650 N   0  0  0  0  0  2  0  0  0  0  0  0
  191.1570  177.4060  140.4420 O   0  0  0  0  0  0  0  0  0  0  0  0
  190.6640  176.9000  142.7390 C   0  0  2  0  0  0  0  0  0  0  0  0
  192.0570  176.8440  142.8330 O   0  0  0  0  0  1  0  0  0  0  0  0
  190.1290  175.5280  143.1240 C   0  0  0  0  0  1  0  0  0  0  0  0
  191.0640  179.1310  143.9740 C   0  0  0  0  0  1  0  0  0  0  0  0
  190.1280  177.9460  143.7410 C   0  0  2  0  0  3  0  0  0  0  0  0
  189.5290  177.3600  145.0390 C   0  0  2  0  0  3  0  0  0  0  0  0
  187.8320  177.7660  146.8680 C   0  0  0  0  0  2  0  0  0  0  0  0
  185.6710  179.3360  144.4800 O   0  0  0  0  0  1  0  0  0  0  0  0
  186.5090  178.4420  147.2080 C   0  0  0  0  0  2  0  0  0  0  0  0
  185.3850  177.8580  146.3540 C   0  0  0  0  0  2  0  0  0  0  0  0
  188.1670  177.9780  145.3900 C   0  0  2  0  0  3  0  0  0  0  0  0
  187.0510  177.3700  144.5300 C   0  0  0  0  0  2  0  0  0  0  0  0
  185.6950  177.9930  144.8620 C   0  0  2  0  0  3  0  0  0  0  0  0
  190.5070  177.3780  146.2210 C   0  0  0  0  0  2  0  0  0  0  0  0
  191.4190  176.3230  146.1380 O   0  0  0  0  0  1  0  0  0  0  0  0
  188.4640  177.7550  139.6360 C   0  0  0  0  0  2  0  0  0  0  0  0
  184.7730  178.5650  138.7630 C   0  0  0  0  0  2  0  0  0  0  0  0
  187.0520  178.2470  139.6790 C   0  0  0  0  0  0  0  0  0  0  0  0
  186.2280  178.1860  138.6040 C   0  0  0  0  0  0  0  0  0  0  0  0
  184.5950  179.5900  139.7870 N   0  0  0  0  0  2  0  0  0  0  0  0
  185.0910  179.0420  141.0430 C   0  0  0  0  0  2  0  0  0  0  0  0
  186.6070  178.8940  140.9660 C   0  0  0  0  0  2  0  0  0  0  0  0
  186.5630  176.2540  137.0320 C   0  0  0  0  0  3  0  0  0  0  0  0
  187.2080  178.4770  136.3270 C   0  0  0  0  0  3  0  0  0  0  0  0
  187.6540  177.9620  135.1080 C   0  0  0  0  0  3  0  0  0  0  0  0
  187.0130  175.7300  135.8150 C   0  0  0  0  0  0  0  0  0  0  0  0
  187.5560  176.5930  134.8510 C   0  0  0  0  0  3  0  0  0  0  0  0
  186.6460  177.6310  137.2950 C   0  0  0  0  0  0  0  0  0  0  0  0
  187.9730  173.5920  135.0230 C   0  0  0  0  0  1  0  0  0  0  0  0
  186.9180  174.3530  135.5960 O   0  0  0  0  0  0  0  0  0  0  0  0
  1  4  1  0  0  0  0
  2  1  1  0  0  0  0
  3  1  2  0  0  0  0
  4  5  1  0  0  0  0
  4  6  1  1  0  0  0
  4  8  1  0  0  0  0
  8  7  1  1  0  0  0
  8  9  1  0  0  0  0
  9 17  1  1  0  0  0
 10 12  1  0  0  0  0
 13 12  1  0  0  0  0
 14  9  1  6  0  0  0
 14 10  1  0  0  0  0
 15 16  1  0  0  0  0
 15 14  1  0  0  0  0
 16 11  1  1  0  0  0
 16 13  1  0  0  0  0
 18 17  1  0  0  0  0
 19 21  1  0  0  0  0
 19  2  1  0  0  0  0
 20 23  1  0  0  0  0
 21 25  1  0  0  0  0
 22 20  1  0  0  0  0
 22 21  2  0  0  0  0
 23 24  1  0  0  0  0
 25 24  1  0  0  0  0
 26 31  1  0  0  0  0
 27 31  2  0  0  0  0
 28 27  1  0  0  0  0
 29 26  2  0  0  0  0
 30 28  2  0  0  0  0
 30 29  1  0  0  0  0
 31 22  1  0  0  0  0
 32 33  1  0  0  0  0
 33 29  1  0  0  0  0
M  END
>  <MODEL>
3

>  <REMARK>
 VINA RESULT:      -8.2      2.737      3.507
  Name = 
  9 active torsions:
  status: ('A' for Active; 'I' for Inactive)
    1  A    between atoms: C_1  and  C_21
    2  A    between atoms: C_5  and  N_7
    3  A    between atoms: C_5  and  C_14
    4  A    between atoms: C_15  and  C_27
    5  A    between atoms: C_16  and  C_33
    6  A    between atoms: C_20  and  C_27
    7  A    between atoms: C_21  and  C_25
    8  A    between atoms: C_23  and  O_24
    9  A    between atoms: C_25  and  C_27
                            x       y       z     vdW  Elec       q    Type
                         _______ _______ _______ _____ _____    ______ ____

>  <TORSDO>
F 9

$$$$
=
 OpenBabel11062412333D

 33 35  0  0  1  0  0  0  0  0999 V2000
  189.4840  177.7480  141.5080 C   0  0  0  0  0  0  0  0  0  0  0  0
  189.9300  177.8510  140.1520 N   0  0  0  0  0  2  0  0  0  0  0  0
  188.3090  178.0960  141.8110 O   0  0  0  0  0  0  0  0  0  0  0  0
  190.4030  177.1940  142.5710 C   0  0  2  0  0  0  0  0  0  0  0  0
  191.7320  177.3430  142.1640 O   0  0  0  0  0  1  0  0  0  0  0  0
  190.1460  175.7040  142.7450 C   0  0  0  0  0  1  0  0  0  0  0  0
  191.0140  179.1860  144.0960 C   0  0  0  0  0  1  0  0  0  0  0  0
  190.2070  177.8980  143.9320 C   0  0  2  0  0  3  0  0  0  0  0  0
  190.2630  176.9670  145.1640 C   0  0  2  0  0  3  0  0  0  0  0  0
  187.7970  177.5200  145.2150 C   0  0  0  0  0  2  0  0  0  0  0  0
  187.7700  176.9590  148.7540 O   0  0  0  0  0  1  0  0  0  0  0  0
  186.5500  177.5560  146.0900 C   0  0  0  0  0  2  0  0  0  0  0  0
  186.7480  178.5310  147.2490 C   0  0  0  0  0  2  0  0  0  0  0  0
  189.0060  177.0740  146.0400 C   0  0  2  0  0  3  0  0  0  0  0  0
  189.2220  178.0650  147.1910 C   0  0  0  0  0  2  0  0  0  0  0  0
  187.9800  178.1630  148.0780 C   0  0  2  0  0  3  0  0  0  0  0  0
  191.5590  177.1050  145.9720 C   0  0  0  0  0  2  0  0  0  0  0  0
  192.0310  175.8580  146.3890 O   0  0  0  0  0  1  0  0  0  0  0  0
  189.0450  178.2780  139.0810 C   0  0  0  0  0  2  0  0  0  0  0  0
  188.1780  176.0340  136.0400 C   0  0  0  0  0  2  0  0  0  0  0  0
  189.1160  177.3090  137.9450 C   0  0  0  0  0  0  0  0  0  0  0  0
  188.0150  176.8990  137.2690 C   0  0  0  0  0  0  0  0  0  0  0  0
  189.3590  175.1810  136.1380 N   0  0  0  0  0  2  0  0  0  0  0  0
  190.5180  176.0550  136.2720 C   0  0  0  0  0  2  0  0  0  0  0  0
  190.4780  176.7430  137.6320 C   0  0  0  0  0  2  0  0  0  0  0  0
  186.4170  178.2570  138.6540 C   0  0  0  0  0  3  0  0  0  0  0  0
  185.5490  176.8580  136.8820 C   0  0  0  0  0  3  0  0  0  0  0  0
  184.2500  177.2500  137.2070 C   0  0  0  0  0  3  0  0  0  0  0  0
  185.1170  178.6510  138.9890 C   0  0  0  0  0  0  0  0  0  0  0  0
  184.0330  178.1460  138.2570 C   0  0  0  0  0  3  0  0  0  0  0  0
  186.6460  177.3670  137.5930 C   0  0  0  0  0  0  0  0  0  0  0  0
  185.0170  179.1250  141.4150 C   0  0  0  0  0  1  0  0  0  0  0  0
  184.9320  179.5340  140.0570 O   0  0  0  0  0  0  0  0  0  0  0  0
  1  3  2  0  0  0  0
  1  4  1  0  0  0  0
  2  1  1  0  0  0  0
  4  6  1  1  0  0  0
  4  8  1  0  0  0  0
  5  4  1  0  0  0  0
  8  7  1  1  0  0  0
  8  9  1  0  0  0  0
  9 17  1  1  0  0  0
 10 14  1  0  0  0  0
 10 12  1  0  0  0  0
 12 13  1  0  0  0  0
 13 16  1  0  0  0  0
 14  9  1  6  0  0  0
 14 15  1  0  0  0  0
 15 16  1  0  0  0  0
 16 11  1  6  0  0  0
 17 18  1  0  0  0  0
 19  2  1  0  0  0  0
 20 23  1  0  0  0  0
 20 22  1  0  0  0  0
 21 19  1  0  0  0  0
 22 31  1  0  0  0  0
 22 21  2  0  0  0  0
 23 24  1  0  0  0  0
 24 25  1  0  0  0  0
 25 21  1  0  0  0  0
 26 29  1  0  0  0  0
 27 28  2  0  0  0  0
 27 31  1  0  0  0  0
 28 30  1  0  0  0  0
 29 33  1  0  0  0  0
 30 29  2  0  0  0  0
 31 26  2  0  0  0  0
 33 32  1  0  0  0  0
M  END
>  <MODEL>
4

>  <REMARK>
 VINA RESULT:      -8.0      2.886      4.678
  Name = 
  9 active torsions:
  status: ('A' for Active; 'I' for Inactive)
    1  A    between atoms: C_1  and  C_21
    2  A    between atoms: C_5  and  N_7
    3  A    between atoms: C_5  and  C_14
    4  A    between atoms: C_15  and  C_27
    5  A    between atoms: C_16  and  C_33
    6  A    between atoms: C_20  and  C_27
    7  A    between atoms: C_21  and  C_25
    8  A    between atoms: C_23  and  O_24
    9  A    between atoms: C_25  and  C_27
                            x       y       z     vdW  Elec       q    Type
                         _______ _______ _______ _____ _____    ______ ____

>  <TORSDO>
F 9

$$$$
=
 OpenBabel11062412333D

 33 35  0  0  1  0  0  0  0  0999 V2000
  189.9440  177.2260  141.6830 C   0  0  0  0  0  0  0  0  0  0  0  0
  190.5800  177.1660  140.4020 N   0  0  0  0  0  2  0  0  0  0  0  0
  188.7290  177.5570  141.7650 O   0  0  0  0  0  0  0  0  0  0  0  0
  190.7110  176.8610  142.9310 C   0  0  2  0  0  0  0  0  0  0  0  0
  192.0730  177.0990  142.7290 O   0  0  0  0  0  1  0  0  0  0  0  0
  190.5490  175.3740  143.2170 C   0  0  0  0  0  1  0  0  0  0  0  0
  190.8270  179.0650  144.2700 C   0  0  0  0  0  1  0  0  0  0  0  0
  190.2320  177.6620  144.1620 C   0  0  2  0  0  3  0  0  0  0  0  0
  190.2370  176.8790  145.4940 C   0  0  2  0  0  3  0  0  0  0  0  0
  187.7910  177.5070  145.3810 C   0  0  0  0  0  2  0  0  0  0  0  0
  187.5550  177.1260  148.9360 O   0  0  0  0  0  1  0  0  0  0  0  0
  186.5000  177.6240  146.1830 C   0  0  0  0  0  2  0  0  0  0  0  0
  186.6670  178.6500  147.3020 C   0  0  0  0  0  2  0  0  0  0  0  0
  188.9390  177.0670  146.2930 C   0  0  2  0  0  3  0  0  0  0  0  0
  189.1240  178.1090  147.4040 C   0  0  0  0  0  2  0  0  0  0  0  0
  187.8400  178.2870  148.2150 C   0  0  2  0  0  3  0  0  0  0  0  0
  191.4920  177.1280  146.3400 C   0  0  0  0  0  2  0  0  0  0  0  0
  192.1500  175.9310  146.6340 O   0  0  0  0  0  1  0  0  0  0  0  0
  189.8500  177.4060  139.1680 C   0  0  0  0  0  2  0  0  0  0  0  0
  190.6410  175.7480  135.7530 C   0  0  0  0  0  2  0  0  0  0  0  0
  190.5300  176.7120  138.0310 C   0  0  0  0  0  0  0  0  0  0  0  0
  189.8640  176.3090  136.9220 C   0  0  0  0  0  0  0  0  0  0  0  0
  191.8500  175.0580  136.1940 N   0  0  0  0  0  2  0  0  0  0  0  0
  192.6740  176.0300  136.9000 C   0  0  0  0  0  2  0  0  0  0  0  0
  191.9970  176.4090  138.2130 C   0  0  0  0  0  2  0  0  0  0  0  0
  187.4840  175.5170  137.0830 C   0  0  0  0  0  3  0  0  0  0  0  0
  187.9440  177.6910  136.1250 C   0  0  0  0  0  3  0  0  0  0  0  0
  186.5800  177.8780  135.8940 C   0  0  0  0  0  3  0  0  0  0  0  0
  186.1170  175.6960  136.8490 C   0  0  0  0  0  0  0  0  0  0  0  0
  185.6680  176.8850  136.2560 C   0  0  0  0  0  3  0  0  0  0  0  0
  188.4080  176.5150  136.7340 C   0  0  0  0  0  0  0  0  0  0  0  0
  185.6670  173.3790  137.5930 C   0  0  0  0  0  1  0  0  0  0  0  0
  185.2310  174.6750  137.2060 O   0  0  0  0  0  0  0  0  0  0  0  0
  1  3  2  0  0  0  0
  1  4  1  0  0  0  0
  2  1  1  0  0  0  0
  4  6  1  1  0  0  0
  4  8  1  0  0  0  0
  5  4  1  0  0  0  0
  8  7  1  1  0  0  0
  8  9  1  0  0  0  0
  9 17  1  1  0  0  0
 10 12  1  0  0  0  0
 10 14  1  0  0  0  0
 12 13  1  0  0  0  0
 13 16  1  0  0  0  0
 14  9  1  6  0  0  0
 14 15  1  0  0  0  0
 15 16  1  0  0  0  0
 16 11  1  6  0  0  0
 17 18  1  0  0  0  0
 19  2  1  0  0  0  0
 20 23  1  0  0  0  0
 20 22  1  0  0  0  0
 21 25  1  0  0  0  0
 21 19  1  0  0  0  0
 22 21  2  0  0  0  0
 23 24  1  0  0  0  0
 24 25  1  0  0  0  0
 27 31  1  0  0  0  0
 28 27  2  0  0  0  0
 28 30  1  0  0  0  0
 29 26  1  0  0  0  0
 29 33  1  0  0  0  0
 30 29  2  0  0  0  0
 31 22  1  0  0  0  0
 31 26  2  0  0  0  0
 33 32  1  0  0  0  0
M  END
>  <MODEL>
5

>  <REMARK>
 VINA RESULT:      -7.7      3.500      5.347
  Name = 
  9 active torsions:
  status: ('A' for Active; 'I' for Inactive)
    1  A    between atoms: C_1  and  C_21
    2  A    between atoms: C_5  and  N_7
    3  A    between atoms: C_5  and  C_14
    4  A    between atoms: C_15  and  C_27
    5  A    between atoms: C_16  and  C_33
    6  A    between atoms: C_20  and  C_27
    7  A    between atoms: C_21  and  C_25
    8  A    between atoms: C_23  and  O_24
    9  A    between atoms: C_25  and  C_27
                            x       y       z     vdW  Elec       q    Type
                         _______ _______ _______ _____ _____    ______ ____

>  <TORSDO>
F 9

$$$$
=
 OpenBabel11062412333D

 33 35  0  0  1  0  0  0  0  0999 V2000
  188.4940  177.5400  140.6790 C   0  0  0  0  0  0  0  0  0  0  0  0
  187.4670  177.8320  141.6320 N   0  0  0  0  0  2  0  0  0  0  0  0
  189.5250  176.9100  141.0410 O   0  0  0  0  0  0  0  0  0  0  0  0
  188.3330  177.9540  139.2350 C   0  0  2  0  0  0  0  0  0  0  0  0
  189.0590  179.1250  139.0010 O   0  0  0  0  0  1  0  0  0  0  0  0
  186.8700  178.2650  138.9510 C   0  0  0  0  0  1  0  0  0  0  0  0
  190.2290  177.0590  137.7290 C   0  0  0  0  0  1  0  0  0  0  0  0
  188.8100  176.8560  138.2590 C   0  0  2  0  0  3  0  0  0  0  0  0
  187.7880  176.4620  137.1690 C   0  0  2  0  0  3  0  0  0  0  0  0
  188.4220  174.0710  136.6490 C   0  0  0  0  0  2  0  0  0  0  0  0
  185.2850  172.9740  137.9900 O   0  0  0  0  0  1  0  0  0  0  0  0
  188.0100  172.6120  136.8150 C   0  0  0  0  0  2  0  0  0  0  0  0
  186.6710  172.3620  136.1240 C   0  0  0  0  0  2  0  0  0  0  0  0
  187.3640  174.9890  137.2650 C   0  0  2  0  0  3  0  0  0  0  0  0
  186.0230  174.7560  136.5570 C   0  0  0  0  0  2  0  0  0  0  0  0
  185.5860  173.2950  136.6650 C   0  0  2  0  0  3  0  0  0  0  0  0
  188.2260  176.8590  135.7540 C   0  0  0  0  0  2  0  0  0  0  0  0
  187.4390  177.8980  135.2530 O   0  0  0  0  0  1  0  0  0  0  0  0
  187.5340  177.3600  143.0050 C   0  0  0  0  0  2  0  0  0  0  0  0
  185.4730  178.9850  145.8590 C   0  0  0  0  0  2  0  0  0  0  0  0
  186.4400  177.9820  143.8110 C   0  0  0  0  0  0  0  0  0  0  0  0
  186.5610  178.2200  145.1400 C   0  0  0  0  0  0  0  0  0  0  0  0
  184.1640  178.7500  145.2550 N   0  0  0  0  0  2  0  0  0  0  0  0
  184.2370  179.1990  143.8710 C   0  0  0  0  0  2  0  0  0  0  0  0
  185.1500  178.2660  143.0830 C   0  0  0  0  0  2  0  0  0  0  0  0
  189.0110  177.6750  145.2710 C   0  0  0  0  0  3  0  0  0  0  0  0
  187.6950  177.6980  147.3010 C   0  0  0  0  0  3  0  0  0  0  0  0
  188.8240  177.3330  148.0380 C   0  0  0  0  0  3  0  0  0  0  0  0
  190.1450  177.3040  146.0020 C   0  0  0  0  0  0  0  0  0  0  0  0
  190.0460  177.1380  147.3910 C   0  0  0  0  0  3  0  0  0  0  0  0
  187.7800  177.8860  145.9130 C   0  0  0  0  0  0  0  0  0  0  0  0
  191.6660  177.7570  144.1040 C   0  0  0  0  0  1  0  0  0  0  0  0
  191.3490  177.0980  145.3220 O   0  0  0  0  0  0  0  0  0  0  0  0
  1  3  2  0  0  0  0
  1  2  1  0  0  0  0
  2 19  1  0  0  0  0
  4  6  1  6  0  0  0
  4  1  1  0  0  0  0
  5  4  1  0  0  0  0
  8  7  1  6  0  0  0
  8  4  1  0  0  0  0
  9 17  1  6  0  0  0
  9  8  1  0  0  0  0
 10 12  1  0  0  0  0
 10 14  1  0  0  0  0
 13 16  1  0  0  0  0
 13 12  1  0  0  0  0
 14  9  1  6  0  0  0
 15 16  1  0  0  0  0
 15 14  1  0  0  0  0
 16 11  1  1  0  0  0
 18 17  1  0  0  0  0
 19 21  1  0  0  0  0
 21 22  2  0  0  0  0
 22 20  1  0  0  0  0
 22 31  1  0  0  0  0
 23 20  1  0  0  0  0
 24 23  1  0  0  0  0
 25 21  1  0  0  0  0
 25 24  1  0  0  0  0
 26 31  2  0  0  0  0
 26 29  1  0  0  0  0
 27 28  2  0  0  0  0
 29 30  2  0  0  0  0
 30 28  1  0  0  0  0
 31 27  1  0  0  0  0
 32 33  1  0  0  0  0
 33 29  1  0  0  0  0
M  END
>  <MODEL>
6

>  <REMARK>
 VINA RESULT:      -7.6      2.785      8.187
  Name = 
  9 active torsions:
  status: ('A' for Active; 'I' for Inactive)
    1  A    between atoms: C_1  and  C_21
    2  A    between atoms: C_5  and  N_7
    3  A    between atoms: C_5  and  C_14
    4  A    between atoms: C_15  and  C_27
    5  A    between atoms: C_16  and  C_33
    6  A    between atoms: C_20  and  C_27
    7  A    between atoms: C_21  and  C_25
    8  A    between atoms: C_23  and  O_24
    9  A    between atoms: C_25  and  C_27
                            x       y       z     vdW  Elec       q    Type
                         _______ _______ _______ _____ _____    ______ ____

>  <TORSDO>
F 9

$$$$
=
 OpenBabel11062412333D

 33 35  0  0  1  0  0  0  0  0999 V2000
  184.4430  178.8140  140.5010 C   0  0  0  0  0  0  0  0  0  0  0  0
  184.7570  178.0080  141.6410 N   0  0  0  0  0  2  0  0  0  0  0  0
  185.2150  179.7540  140.1640 O   0  0  0  0  0  0  0  0  0  0  0  0
  183.2090  178.5220  139.6790 C   0  0  2  0  0  0  0  0  0  0  0  0
  182.3100  179.5860  139.7940 O   0  0  0  0  0  1  0  0  0  0  0  0
  182.5140  177.2810  140.2220 C   0  0  0  0  0  1  0  0  0  0  0  0
  182.3210  178.2100  137.2760 C   0  0  0  0  0  1  0  0  0  0  0  0
  183.5440  178.2970  138.1890 C   0  0  2  0  0  3  0  0  0  0  0  0
  184.6040  177.2070  137.9140 C   0  0  2  0  0  3  0  0  0  0  0  0
  186.0640  177.2550  135.8510 C   0  0  0  0  0  2  0  0  0  0  0  0
  188.3810  179.3790  137.5720 O   0  0  0  0  0  1  0  0  0  0  0  0
  187.3010  177.8820  135.2190 C   0  0  0  0  0  2  0  0  0  0  0  0
  188.5430  177.5350  136.0380 C   0  0  0  0  0  2  0  0  0  0  0  0
  185.8820  177.7750  137.2790 C   0  0  2  0  0  3  0  0  0  0  0  0
  187.1180  177.4060  138.1090 C   0  0  0  0  0  2  0  0  0  0  0  0
  188.3920  177.9850  137.4920 C   0  0  2  0  0  3  0  0  0  0  0  0
  184.0500  176.0000  137.1480 C   0  0  0  0  0  2  0  0  0  0  0  0
  183.8140  174.9210  138.0030 O   0  0  0  0  0  1  0  0  0  0  0  0
  185.9870  178.1870  142.3950 C   0  0  0  0  0  2  0  0  0  0  0  0
  186.2600  178.0080  146.2580 C   0  0  0  0  0  2  0  0  0  0  0  0
  185.6860  178.2210  143.8590 C   0  0  0  0  0  0  0  0  0  0  0  0
  186.5760  177.8070  144.7940 C   0  0  0  0  0  0  0  0  0  0  0  0
  184.8230  177.9450  146.5100 N   0  0  0  0  0  2  0  0  0  0  0  0
  184.1980  179.0060  145.7320 C   0  0  0  0  0  2  0  0  0  0  0  0
  184.3000  178.6710  144.2470 C   0  0  0  0  0  2  0  0  0  0  0  0
  189.0180  177.5040  145.3010 C   0  0  0  0  0  3  0  0  0  0  0  0
  188.1240  176.6260  143.2320 C   0  0  0  0  0  3  0  0  0  0  0  0
  189.3950  176.1720  142.8740 C   0  0  0  0  0  3  0  0  0  0  0  0
  190.2960  177.0560  144.9470 C   0  0  0  0  0  0  0  0  0  0  0  0
  190.4780  176.3840  143.7300 C   0  0  0  0  0  3  0  0  0  0  0  0
  187.9200  177.2840  144.4550 C   0  0  0  0  0  0  0  0  0  0  0  0
  191.7690  176.3740  146.8140 C   0  0  0  0  0  1  0  0  0  0  0  0
  191.3630  177.3010  145.8160 O   0  0  0  0  0  0  0  0  0  0  0  0
  1  2  1  0  0  0  0
  2 19  1  0  0  0  0
  3  1  2  0  0  0  0
  4  5  1  0  0  0  0
  4  6  1  1  0  0  0
  4  1  1  0  0  0  0
  8  7  1  6  0  0  0
  8  4  1  0  0  0  0
  9 17  1  6  0  0  0
  9  8  1  0  0  0  0
 10 14  1  0  0  0  0
 12 10  1  0  0  0  0
 12 13  1  0  0  0  0
 13 16  1  0  0  0  0
 14  9  1  1  0  0  0
 14 15  1  0  0  0  0
 16 11  1  6  0  0  0
 16 15  1  0  0  0  0
 17 18  1  0  0  0  0
 19 21  1  0  0  0  0
 20 23  1  0  0  0  0
 21 25  1  0  0  0  0
 21 22  2  0  0  0  0
 22 20  1  0  0  0  0
 24 23  1  0  0  0  0
 25 24  1  0  0  0  0
 27 31  1  0  0  0  0
 28 27  2  0  0  0  0
 28 30  1  0  0  0  0
 29 26  1  0  0  0  0
 29 33  1  0  0  0  0
 30 29  2  0  0  0  0
 31 22  1  0  0  0  0
 31 26  2  0  0  0  0
 33 32  1  0  0  0  0
M  END
>  <MODEL>
7

>  <REMARK>
 VINA RESULT:      -7.6      2.535      8.337
  Name = 
  9 active torsions:
  status: ('A' for Active; 'I' for Inactive)
    1  A    between atoms: C_1  and  C_21
    2  A    between atoms: C_5  and  N_7
    3  A    between atoms: C_5  and  C_14
    4  A    between atoms: C_15  and  C_27
    5  A    between atoms: C_16  and  C_33
    6  A    between atoms: C_20  and  C_27
    7  A    between atoms: C_21  and  C_25
    8  A    between atoms: C_23  and  O_24
    9  A    between atoms: C_25  and  C_27
                            x       y       z     vdW  Elec       q    Type
                         _______ _______ _______ _____ _____    ______ ____

>  <TORSDO>
F 9

$$$$
=
 OpenBabel11062412333D

 33 35  0  0  1  0  0  0  0  0999 V2000
  189.9280  176.8330  141.4570 C   0  0  0  0  0  0  0  0  0  0  0  0
  189.9790  177.4260  140.1560 N   0  0  0  0  0  2  0  0  0  0  0  0
  190.7130  175.8900  141.7490 O   0  0  0  0  0  0  0  0  0  0  0  0
  188.9600  177.3550  142.4930 C   0  0  2  0  0  0  0  0  0  0  0  0
  188.2290  176.2910  143.0280 O   0  0  0  0  0  1  0  0  0  0  0  0
  187.9660  178.3020  141.8350 C   0  0  0  0  0  1  0  0  0  0  0  0
  190.9070  178.9000  143.1910 C   0  0  0  0  0  1  0  0  0  0  0  0
  189.6810  178.1030  143.6360 C   0  0  2  0  0  3  0  0  0  0  0  0
  189.9110  177.2710  144.9180 C   0  0  2  0  0  3  0  0  0  0  0  0
  189.8800  177.5100  147.4350 C   0  0  0  0  0  2  0  0  0  0  0  0
  186.7300  179.2040  147.2100 O   0  0  0  0  0  1  0  0  0  0  0  0
  189.1430  178.1330  148.6150 C   0  0  0  0  0  2  0  0  0  0  0  0
  187.7170  177.5890  148.6920 C   0  0  0  0  0  2  0  0  0  0  0  0
  189.1510  177.8340  146.1290 C   0  0  2  0  0  3  0  0  0  0  0  0
  187.7270  177.2670  146.1950 C   0  0  0  0  0  2  0  0  0  0  0  0
  186.9580  177.8380  147.3870 C   0  0  2  0  0  3  0  0  0  0  0  0
  191.3930  177.0150  145.2190 C   0  0  0  0  0  2  0  0  0  0  0  0
  191.7780  175.7350  144.8130 O   0  0  0  0  0  1  0  0  0  0  0  0
  190.9660  177.0250  139.1660 C   0  0  0  0  0  2  0  0  0  0  0  0
  190.1920  176.3280  135.4310 C   0  0  0  0  0  2  0  0  0  0  0  0
  190.3460  177.0140  137.8050 C   0  0  0  0  0  0  0  0  0  0  0  0
  190.9430  176.4280  136.7390 C   0  0  0  0  0  0  0  0  0  0  0  0
  189.2730  177.4480  135.2530 N   0  0  0  0  0  2  0  0  0  0  0  0
  188.3240  177.4120  136.3590 C   0  0  0  0  0  2  0  0  0  0  0  0
  189.0450  177.7630  137.6560 C   0  0  0  0  0  2  0  0  0  0  0  0
  193.4200  176.3570  136.3210 C   0  0  0  0  0  3  0  0  0  0  0  0
  192.3380  174.4460  137.3340 C   0  0  0  0  0  3  0  0  0  0  0  0
  193.5610  173.7720  137.3710 C   0  0  0  0  0  3  0  0  0  0  0  0
  194.6480  175.6870  136.3500 C   0  0  0  0  0  0  0  0  0  0  0  0
  194.7130  174.3910  136.8820 C   0  0  0  0  0  3  0  0  0  0  0  0
  192.2580  175.7490  136.8210 C   0  0  0  0  0  0  0  0  0  0  0  0
  195.7020  177.4720  135.0000 C   0  0  0  0  0  1  0  0  0  0  0  0
  195.7800  176.3260  135.8360 O   0  0  0  0  0  0  0  0  0  0  0  0
  1  3  2  0  0  0  0
  1  4  1  0  0  0  0
  2  1  1  0  0  0  0
  4  6  1  6  0  0  0
  4  5  1  0  0  0  0
  4  8  1  0  0  0  0
  8  7  1  6  0  0  0
  8  9  1  0  0  0  0
  9 17  1  1  0  0  0
 10 12  1  0  0  0  0
 12 13  1  0  0  0  0
 14  9  1  6  0  0  0
 14 15  1  0  0  0  0
 14 10  1  0  0  0  0
 15 16  1  0  0  0  0
 16 11  1  6  0  0  0
 16 13  1  0  0  0  0
 18 17  1  0  0  0  0
 19  2  1  0  0  0  0
 20 22  1  0  0  0  0
 21 19  1  0  0  0  0
 22 31  1  0  0  0  0
 22 21  2  0  0  0  0
 23 20  1  0  0  0  0
 23 24  1  0  0  0  0
 24 25  1  0  0  0  0
 25 21  1  0  0  0  0
 26 29  2  0  0  0  0
 26 31  1  0  0  0  0
 27 28  1  0  0  0  0
 29 30  1  0  0  0  0
 30 28  2  0  0  0  0
 31 27  2  0  0  0  0
 32 33  1  0  0  0  0
 33 29  1  0  0  0  0
M  END
>  <MODEL>
8

>  <REMARK>
 VINA RESULT:      -7.5      4.701      7.254
  Name = 
  9 active torsions:
  status: ('A' for Active; 'I' for Inactive)
    1  A    between atoms: C_1  and  C_21
    2  A    between atoms: C_5  and  N_7
    3  A    between atoms: C_5  and  C_14
    4  A    between atoms: C_15  and  C_27
    5  A    between atoms: C_16  and  C_33
    6  A    between atoms: C_20  and  C_27
    7  A    between atoms: C_21  and  C_25
    8  A    between atoms: C_23  and  O_24
    9  A    between atoms: C_25  and  C_27
                            x       y       z     vdW  Elec       q    Type
                         _______ _______ _______ _____ _____    ______ ____

>  <TORSDO>
F 9

$$$$
=
 OpenBabel11062412333D

 33 35  0  0  1  0  0  0  0  0999 V2000
  190.0680  177.5010  141.2730 C   0  0  0  0  0  0  0  0  0  0  0  0
  190.7190  177.2020  140.0340 N   0  0  0  0  0  2  0  0  0  0  0  0
  188.9760  178.1340  141.2710 O   0  0  0  0  0  0  0  0  0  0  0  0
  190.6650  177.0340  142.5790 C   0  0  2  0  0  0  0  0  0  0  0  0
  192.0550  176.9530  142.4540 O   0  0  0  0  0  1  0  0  0  0  0  0
  190.1570  175.6370  142.9040 C   0  0  0  0  0  1  0  0  0  0  0  0
  191.3310  179.0970  143.9810 C   0  0  0  0  0  1  0  0  0  0  0  0
  190.3140  177.9790  143.7490 C   0  0  2  0  0  3  0  0  0  0  0  0
  189.8580  177.2730  145.0450 C   0  0  2  0  0  3  0  0  0  0  0  0
  188.4460  177.5900  147.1180 C   0  0  0  0  0  2  0  0  0  0  0  0
  185.9740  179.2750  145.1450 O   0  0  0  0  0  1  0  0  0  0  0  0
  187.1900  178.2500  147.6770 C   0  0  0  0  0  2  0  0  0  0  0  0
  185.9510  177.7070  146.9670 C   0  0  0  0  0  2  0  0  0  0  0  0
  188.5650  177.8730  145.6190 C   0  0  2  0  0  3  0  0  0  0  0  0
  187.3330  177.3080  144.9010 C   0  0  0  0  0  2  0  0  0  0  0  0
  186.0430  177.9150  145.4540 C   0  0  2  0  0  3  0  0  0  0  0  0
  190.9690  177.1530  146.0950 C   0  0  0  0  0  2  0  0  0  0  0  0
  191.8410  176.1050  145.7920 O   0  0  0  0  0  1  0  0  0  0  0  0
  190.1260  177.5410  138.7510 C   0  0  0  0  0  2  0  0  0  0  0  0
  190.8100  175.5970  135.4660 C   0  0  0  0  0  2  0  0  0  0  0  0
  190.7640  176.7330  137.6670 C   0  0  0  0  0  0  0  0  0  0  0  0
  190.0700  176.2790  136.5940 C   0  0  0  0  0  0  0  0  0  0  0  0
  191.9880  174.8850  135.9530 N   0  0  0  0  0  2  0  0  0  0  0  0
  192.8630  175.8670  136.5790 C   0  0  0  0  0  2  0  0  0  0  0  0
  192.2150  176.3750  137.8630 C   0  0  0  0  0  2  0  0  0  0  0  0
  187.6540  175.6710  136.9230 C   0  0  0  0  0  3  0  0  0  0  0  0
  188.2120  177.6240  135.6090 C   0  0  0  0  0  3  0  0  0  0  0  0
  186.8550  177.8540  135.3720 C   0  0  0  0  0  3  0  0  0  0  0  0
  186.2930  175.8920  136.6850 C   0  0  0  0  0  0  0  0  0  0  0  0
  185.8970  176.9910  135.9090 C   0  0  0  0  0  3  0  0  0  0  0  0
  188.6240  176.5390  136.3980 C   0  0  0  0  0  0  0  0  0  0  0  0
  185.1310  173.7070  136.6780 C   0  0  0  0  0  1  0  0  0  0  0  0
  185.3590  175.0000  137.2220 O   0  0  0  0  0  0  0  0  0  0  0  0
  1  4  1  0  0  0  0
  2  1  1  0  0  0  0
  3  1  2  0  0  0  0
  4  6  1  1  0  0  0
  4  8  1  0  0  0  0
  5  4  1  0  0  0  0
  8  7  1  1  0  0  0
  8  9  1  0  0  0  0
  9 17  1  1  0  0  0
 10 12  1  0  0  0  0
 13 12  1  0  0  0  0
 14  9  1  6  0  0  0
 14 10  1  0  0  0  0
 15 16  1  0  0  0  0
 15 14  1  0  0  0  0
 16 11  1  1  0  0  0
 16 13  1  0  0  0  0
 18 17  1  0  0  0  0
 19  2  1  0  0  0  0
 20 23  1  0  0  0  0
 20 22  1  0  0  0  0
 21 25  1  0  0  0  0
 21 19  1  0  0  0  0
 22 21  2  0  0  0  0
 23 24  1  0  0  0  0
 24 25  1  0  0  0  0
 27 31  1  0  0  0  0
 28 27  2  0  0  0  0
 28 30  1  0  0  0  0
 29 26  1  0  0  0  0
 29 33  1  0  0  0  0
 30 29  2  0  0  0  0
 31 22  1  0  0  0  0
 31 26  2  0  0  0  0
 32 33  1  0  0  0  0
M  END
>  <MODEL>
9

>  <REMARK>
 VINA RESULT:      -7.4      3.675      5.477
  Name = 
  9 active torsions:
  status: ('A' for Active; 'I' for Inactive)
    1  A    between atoms: C_1  and  C_21
    2  A    between atoms: C_5  and  N_7
    3  A    between atoms: C_5  and  C_14
    4  A    between atoms: C_15  and  C_27
    5  A    between atoms: C_16  and  C_33
    6  A    between atoms: C_20  and  C_27
    7  A    between atoms: C_21  and  C_25
    8  A    between atoms: C_23  and  O_24
    9  A    between atoms: C_25  and  C_27
                            x       y       z     vdW  Elec       q    Type
                         _______ _______ _______ _____ _____    ______ ____

>  <TORSDO>
F 9

$$$$
