=
 OpenBabel11062418113D

 25 28  0  0  1  0  0  0  0  0999 V2000
  184.3220  179.1580  145.1690 N   0  0  0  0  0  0  0  0  0  0  0  0
  187.6610  177.7080  145.9440 C   0  0  0  0  0  3  0  0  0  0  0  0
  186.8740  177.3980  143.2330 C   0  0  0  0  0  3  0  0  0  0  0  0
  188.5040  177.0610  145.0240 C   0  0  0  0  0  3  0  0  0  0  0  0
  188.1170  176.9040  143.6690 C   0  0  0  0  0  0  0  0  0  0  0  0
  186.0530  178.0300  144.1650 C   0  0  0  0  0  0  0  0  0  0  0  0
  185.3580  178.8880  146.1150 C   0  0  0  0  0  0  0  0  0  0  0  0
  185.3130  179.2290  147.3270 O   0  0  0  0  0  0  0  0  0  0  0  0
  183.9410  178.7420  142.8490 N   0  0  0  0  0  2  0  0  0  0  0  0
  186.4400  178.1790  145.4700 C   0  0  0  0  0  0  0  0  0  0  0  0
  184.7270  178.6550  144.0410 C   0  0  0  0  0  0  0  0  0  0  0  0
  183.0660  177.4930  140.9260 C   0  0  0  0  0  2  0  0  0  0  0  0
  182.1430  178.8630  138.2380 C   0  0  1  0  0  0  0  0  0  0  0  0
  182.1880  178.5690  140.2730 C   0  0  2  0  0  3  0  0  0  0  0  0
  182.9070  178.0970  137.3510 O   0  0  0  0  0  1  0  0  0  0  0  0
  181.3060  179.8920  137.4760 C   0  0  0  0  0  1  0  0  0  0  0  0
  180.0260  178.3750  139.3950 C   0  0  0  0  0  1  0  0  0  0  0  0
  185.0380  179.1200  140.7000 C   0  0  0  0  0  2  0  0  0  0  0  0
  184.4680  179.1890  139.2850 C   0  0  0  0  0  2  0  0  0  0  0  0
  184.3060  178.1050  141.5920 C   0  0  1  0  0  3  0  0  0  0  0  0
  181.4180  177.9830  139.1790 N   0  0  0  0  0  0  0  0  0  0  0  0
  182.9680  179.5110  139.3450 C   0  0  1  0  0  3  0  0  0  0  0  0
  190.4200  176.3130  140.9100 O   0  0  0  0  0  0  0  0  0  0  0  0
  189.6830  176.9460  141.7090 C   0  0  0  0  0  3  0  0  0  0  0  0
  188.9710  176.2480  142.7280 N   0  0  0  0  0  2  0  0  0  0  0  0
  1  7  1  0  0  0  0
  3  5  2  0  0  0  0
  3  6  1  0  0  0  0
  4  2  2  0  0  0  0
  5  4  1  0  0  0  0
  6 10  2  0  0  0  0
  7  8  2  0  0  0  0
  9 11  1  0  0  0  0
 10  2  1  0  0  0  0
 10  7  1  0  0  0  0
 11  6  1  0  0  0  0
 11  1  2  0  0  0  0
 12 20  1  0  0  0  0
 13 16  1  6  0  0  0
 13 21  1  0  0  0  0
 13 22  1  0  0  0  0
 14 12  1  6  0  0  0
 15 13  1  0  0  0  0
 18 20  1  0  0  0  0
 19 18  1  0  0  0  0
 20  9  1  1  0  0  0
 21 17  1  0  0  0  0
 21 14  1  0  0  0  0
 22 19  1  6  0  0  0
 22 14  1  0  0  0  0
 23 24  2  0  0  0  0
 24 25  1  0  0  0  0
 25  5  1  0  0  0  0
M  END
>  <MODEL>
1

>  <REMARK>
 VINA RESULT:      -8.9      0.000      0.000
  Name = 
  2 active torsions:
  status: ('A' for Active; 'I' for Inactive)
    1  A    between atoms: C_8  and  N_23
    2  A    between atoms: N_17  and  C_19
                            x       y       z     vdW  Elec       q    Type
                         _______ _______ _______ _____ _____    ______ ____

>  <TORSDO>
F 2

$$$$
=
 OpenBabel11062418113D

 25 28  0  0  1  0  0  0  0  0999 V2000
  191.9810  176.2600  145.8590 N   0  0  0  0  0  0  0  0  0  0  0  0
  189.0190  176.9890  147.9910 C   0  0  0  0  0  3  0  0  0  0  0  0
  188.7160  177.7990  145.2860 C   0  0  0  0  0  3  0  0  0  0  0  0
  187.8310  177.6000  147.5570 C   0  0  0  0  0  3  0  0  0  0  0  0
  187.6730  178.0060  146.2080 C   0  0  0  0  0  0  0  0  0  0  0  0
  189.8880  177.1980  145.7420 C   0  0  0  0  0  0  0  0  0  0  0  0
  191.3420  176.2140  147.1350 C   0  0  0  0  0  0  0  0  0  0  0  0
  191.8660  175.7230  148.1690 O   0  0  0  0  0  0  0  0  0  0  0  0
  191.4350  177.0500  143.6720 N   0  0  0  0  0  2  0  0  0  0  0  0
  190.0260  176.8060  147.0480 C   0  0  0  0  0  0  0  0  0  0  0  0
  191.1360  176.8350  145.0550 C   0  0  0  0  0  0  0  0  0  0  0  0
  191.3390  178.1980  141.5050 C   0  0  0  0  0  2  0  0  0  0  0  0
  190.4610  176.7830  138.8260 C   0  0  1  0  0  0  0  0  0  0  0  0
  191.5520  177.0120  140.5540 C   0  0  2  0  0  3  0  0  0  0  0  0
  189.4750  177.6950  138.4330 O   0  0  0  0  0  1  0  0  0  0  0  0
  190.5880  175.6540  137.8010 C   0  0  0  0  0  1  0  0  0  0  0  0
  192.9150  176.8720  138.6550 C   0  0  0  0  0  1  0  0  0  0  0  0
  189.3190  176.9320  142.4570 C   0  0  0  0  0  2  0  0  0  0  0  0
  189.0310  176.8160  140.9620 C   0  0  0  0  0  2  0  0  0  0  0  0
  190.5650  177.7810  142.7630 C   0  0  1  0  0  3  0  0  0  0  0  0
  191.7040  177.4980  139.1840 N   0  0  0  0  0  0  0  0  0  0  0  0
  190.2600  176.2460  140.2390 C   0  0  1  0  0  3  0  0  0  0  0  0
  184.1860  179.0320  145.9800 O   0  0  0  0  0  0  0  0  0  0  0  0
  185.2150  178.4590  146.4220 C   0  0  0  0  0  3  0  0  0  0  0  0
  186.4660  178.6260  145.7590 N   0  0  0  0  0  2  0  0  0  0  0  0
  1  7  1  0  0  0  0
  3  6  2  0  0  0  0
  3  5  1  0  0  0  0
  4  2  1  0  0  0  0
  5  4  2  0  0  0  0
  6 10  1  0  0  0  0
  7  8  2  0  0  0  0
  9 11  1  0  0  0  0
 10  7  1  0  0  0  0
 10  2  2  0  0  0  0
 11  6  1  0  0  0  0
 11  1  2  0  0  0  0
 12 20  1  0  0  0  0
 13 16  1  6  0  0  0
 13 21  1  0  0  0  0
 13 22  1  0  0  0  0
 14 12  1  1  0  0  0
 15 13  1  0  0  0  0
 17 21  1  0  0  0  0
 18 20  1  0  0  0  0
 19 18  1  0  0  0  0
 20  9  1  1  0  0  0
 21 14  1  0  0  0  0
 22 14  1  0  0  0  0
 22 19  1  1  0  0  0
 23 24  2  0  0  0  0
 25  5  1  0  0  0  0
 25 24  1  0  0  0  0
M  END
>  <MODEL>
2

>  <REMARK>
 VINA RESULT:      -7.4      4.898      7.190
  Name = 
  2 active torsions:
  status: ('A' for Active; 'I' for Inactive)
    1  A    between atoms: C_8  and  N_23
    2  A    between atoms: N_17  and  C_19
                            x       y       z     vdW  Elec       q    Type
                         _______ _______ _______ _____ _____    ______ ____

>  <TORSDO>
F 2

$$$$
=
 OpenBabel11062418113D

 25 28  0  0  1  0  0  0  0  0999 V2000
  187.4240  178.5890  140.1870 N   0  0  0  0  0  0  0  0  0  0  0  0
  186.9120  178.1630  143.8490 C   0  0  0  0  0  3  0  0  0  0  0  0
  189.3430  177.0490  142.8900 C   0  0  0  0  0  3  0  0  0  0  0  0
  187.8030  177.5260  144.7290 C   0  0  0  0  0  3  0  0  0  0  0  0
  189.0180  176.9690  144.2570 C   0  0  0  0  0  0  0  0  0  0  0  0
  188.4400  177.6800  142.0350 C   0  0  0  0  0  0  0  0  0  0  0  0
  186.6200  178.7940  141.3490 C   0  0  0  0  0  0  0  0  0  0  0  0
  185.5130  179.3930  141.3450 O   0  0  0  0  0  0  0  0  0  0  0  0
  189.5200  177.5600  139.6860 N   0  0  0  0  0  2  0  0  0  0  0  0
  187.2710  178.2180  142.5050 C   0  0  0  0  0  0  0  0  0  0  0  0
  188.4770  177.9390  140.5880 C   0  0  0  0  0  0  0  0  0  0  0  0
  190.8910  175.6290  139.0400 C   0  0  0  0  0  2  0  0  0  0  0  0
  193.5340  175.8680  137.3340 C   0  0  1  0  0  0  0  0  0  0  0  0
  191.5450  176.1700  137.7610 C   0  0  2  0  0  3  0  0  0  0  0  0
  194.3860  175.1550  138.1840 O   0  0  0  0  0  1  0  0  0  0  0  0
  194.2910  176.3490  136.0940 C   0  0  0  0  0  1  0  0  0  0  0  0
  191.8590  175.1020  135.7000 C   0  0  0  0  0  1  0  0  0  0  0  0
  191.8900  177.6460  140.2730 C   0  0  0  0  0  2  0  0  0  0  0  0
  193.1240  177.1510  139.5230 C   0  0  0  0  0  2  0  0  0  0  0  0
  190.6620  176.7430  140.0710 C   0  0  1  0  0  3  0  0  0  0  0  0
  192.2910  175.1030  137.0970 N   0  0  0  0  0  0  0  0  0  0  0  0
  192.8010  177.0110  138.0280 C   0  0  1  0  0  3  0  0  0  0  0  0
  191.9960  176.2030  146.2100 O   0  0  0  0  0  0  0  0  0  0  0  0
  191.2390  176.8170  145.4140 C   0  0  0  0  0  3  0  0  0  0  0  0
  189.9300  176.3210  145.1480 N   0  0  0  0  0  2  0  0  0  0  0  0
  1 11  2  0  0  0  0
  1  7  1  0  0  0  0
  2  4  1  0  0  0  0
  3  5  1  0  0  0  0
  5  4  2  0  0  0  0
  5 25  1  0  0  0  0
  6 10  1  0  0  0  0
  6  3  2  0  0  0  0
  7 10  1  0  0  0  0
  8  7  2  0  0  0  0
  9 11  1  0  0  0  0
 10  2  2  0  0  0  0
 11  6  1  0  0  0  0
 12 20  1  0  0  0  0
 13 16  1  6  0  0  0
 13 22  1  0  0  0  0
 13 15  1  0  0  0  0
 14 22  1  0  0  0  0
 14 12  1  1  0  0  0
 17 21  1  0  0  0  0
 19 18  1  0  0  0  0
 20  9  1  6  0  0  0
 20 18  1  0  0  0  0
 21 13  1  0  0  0  0
 21 14  1  0  0  0  0
 22 19  1  1  0  0  0
 24 23  2  0  0  0  0
 25 24  1  0  0  0  0
M  END
>  <MODEL>
3

>  <REMARK>
 VINA RESULT:      -7.1      3.993      7.630
  Name = 
  2 active torsions:
  status: ('A' for Active; 'I' for Inactive)
    1  A    between atoms: C_8  and  N_23
    2  A    between atoms: N_17  and  C_19
                            x       y       z     vdW  Elec       q    Type
                         _______ _______ _______ _____ _____    ______ ____

>  <TORSDO>
F 2

$$$$
=
 OpenBabel11062418113D

 25 28  0  0  1  0  0  0  0  0999 V2000
  186.1500  178.2120  144.9430 N   0  0  0  0  0  0  0  0  0  0  0  0
  187.7180  178.1070  148.3170 C   0  0  0  0  0  3  0  0  0  0  0  0
  189.4910  177.4290  146.2040 C   0  0  0  0  0  3  0  0  0  0  0  0
  189.0580  177.7770  148.5850 C   0  0  0  0  0  3  0  0  0  0  0  0
  189.9470  177.4380  147.5340 C   0  0  0  0  0  0  0  0  0  0  0  0
  188.1560  177.7530  145.9640 C   0  0  0  0  0  0  0  0  0  0  0  0
  186.0390  178.3730  146.3580 C   0  0  0  0  0  0  0  0  0  0  0  0
  184.9820  178.7210  146.9480 O   0  0  0  0  0  0  0  0  0  0  0  0
  187.8630  177.5980  143.3970 N   0  0  0  0  0  2  0  0  0  0  0  0
  187.3080  178.0830  146.9870 C   0  0  0  0  0  0  0  0  0  0  0  0
  187.3780  177.8480  144.7190 C   0  0  0  0  0  0  0  0  0  0  0  0
  189.1530  176.1310  141.9090 C   0  0  0  0  0  2  0  0  0  0  0  0
  190.5990  177.1450  139.2960 C   0  0  1  0  0  0  0  0  0  0  0  0
  189.0160  176.8930  140.5840 C   0  0  2  0  0  3  0  0  0  0  0  0
  191.8750  176.6350  139.5640 O   0  0  0  0  0  1  0  0  0  0  0  0
  190.5830  177.8730  137.9510 C   0  0  0  0  0  1  0  0  0  0  0  0
  188.5630  176.0560  138.4440 C   0  0  0  0  0  1  0  0  0  0  0  0
  190.1600  178.2700  142.9080 C   0  0  0  0  0  2  0  0  0  0  0  0
  190.9840  178.1560  141.6280 C   0  0  0  0  0  2  0  0  0  0  0  0
  189.1960  177.0890  143.1080 C   0  0  1  0  0  3  0  0  0  0  0  0
  189.5780  176.0950  139.4960 N   0  0  0  0  0  0  0  0  0  0  0  0
  190.0480  178.0170  140.4190 C   0  0  1  0  0  3  0  0  0  0  0  0
  193.1080  175.6330  147.6570 O   0  0  0  0  0  0  0  0  0  0  0  0
  191.9020  175.8710  147.3940 C   0  0  0  0  0  3  0  0  0  0  0  0
  191.3110  177.1030  147.8010 N   0  0  0  0  0  2  0  0  0  0  0  0
  1  7  1  0  0  0  0
  2  4  1  0  0  0  0
  3  5  1  0  0  0  0
  5 25  1  0  0  0  0
  5  4  2  0  0  0  0
  6  3  2  0  0  0  0
  6 10  1  0  0  0  0
  7  8  2  0  0  0  0
  7 10  1  0  0  0  0
  9 11  1  0  0  0  0
 10  2  2  0  0  0  0
 11  1  2  0  0  0  0
 11  6  1  0  0  0  0
 12 20  1  0  0  0  0
 13 16  1  6  0  0  0
 13 21  1  0  0  0  0
 13 15  1  0  0  0  0
 13 22  1  0  0  0  0
 14 12  1  1  0  0  0
 17 21  1  0  0  0  0
 18 20  1  0  0  0  0
 19 18  1  0  0  0  0
 20  9  1  6  0  0  0
 21 14  1  0  0  0  0
 22 14  1  0  0  0  0
 22 19  1  1  0  0  0
 24 23  2  0  0  0  0
 24 25  1  0  0  0  0
M  END
>  <MODEL>
4

>  <REMARK>
 VINA RESULT:      -7.0      4.780      5.907
  Name = 
  2 active torsions:
  status: ('A' for Active; 'I' for Inactive)
    1  A    between atoms: C_8  and  N_23
    2  A    between atoms: N_17  and  C_19
                            x       y       z     vdW  Elec       q    Type
                         _______ _______ _______ _____ _____    ______ ____

>  <TORSDO>
F 2

$$$$
=
 OpenBabel11062418113D

 25 28  0  0  1  0  0  0  0  0999 V2000
  189.2820  177.0570  146.4620 N   0  0  0  0  0  0  0  0  0  0  0  0
  185.7720  178.0520  147.1940 C   0  0  0  0  0  3  0  0  0  0  0  0
  186.5410  178.4550  144.4900 C   0  0  0  0  0  3  0  0  0  0  0  0
  184.8610  178.5780  146.2620 C   0  0  0  0  0  3  0  0  0  0  0  0
  185.2390  178.7810  144.9110 C   0  0  0  0  0  0  0  0  0  0  0  0
  187.4290  177.9410  145.4340 C   0  0  0  0  0  0  0  0  0  0  0  0
  188.2100  177.1890  147.3950 C   0  0  0  0  0  0  0  0  0  0  0  0
  188.2860  176.8610  148.6080 O   0  0  0  0  0  0  0  0  0  0  0  0
  189.6310  177.5120  144.1430 N   0  0  0  0  0  2  0  0  0  0  0  0
  187.0500  177.7460  146.7360 C   0  0  0  0  0  0  0  0  0  0  0  0
  188.8270  177.4980  145.3260 C   0  0  0  0  0  0  0  0  0  0  0  0
  190.4130  178.5540  142.0630 C   0  0  0  0  0  2  0  0  0  0  0  0
  190.9720  176.9360  139.4140 C   0  0  1  0  0  0  0  0  0  0  0  0
  191.1410  177.3680  141.4170 C   0  0  2  0  0  3  0  0  0  0  0  0
  190.1880  177.7010  138.5430 O   0  0  0  0  0  1  0  0  0  0  0  0
  191.6540  175.7930  138.6580 C   0  0  0  0  0  1  0  0  0  0  0  0
  193.2200  177.3260  140.3380 C   0  0  0  0  0  1  0  0  0  0  0  0
  188.3110  177.0820  142.1340 C   0  0  0  0  0  2  0  0  0  0  0  0
  188.7390  176.8720  140.6830 C   0  0  0  0  0  2  0  0  0  0  0  0
  189.1980  178.0920  142.8800 C   0  0  1  0  0  3  0  0  0  0  0  0
  191.8480  177.8150  140.2180 N   0  0  0  0  0  0  0  0  0  0  0  0
  190.2090  176.4340  140.6340 C   0  0  1  0  0  3  0  0  0  0  0  0
  182.1780  179.4410  143.0500 O   0  0  0  0  0  0  0  0  0  0  0  0
  182.9420  178.9360  143.9130 C   0  0  0  0  0  3  0  0  0  0  0  0
  184.3160  179.3140  143.9580 N   0  0  0  0  0  2  0  0  0  0  0  0
  1  7  1  0  0  0  0
  3  5  2  0  0  0  0
  3  6  1  0  0  0  0
  4  2  2  0  0  0  0
  5  4  1  0  0  0  0
  6 10  2  0  0  0  0
  7  8  2  0  0  0  0
  9 11  1  0  0  0  0
 10  2  1  0  0  0  0
 10  7  1  0  0  0  0
 11  6  1  0  0  0  0
 11  1  2  0  0  0  0
 12 20  1  0  0  0  0
 13 16  1  6  0  0  0
 13 21  1  0  0  0  0
 13 22  1  0  0  0  0
 14 12  1  6  0  0  0
 15 13  1  0  0  0  0
 18 20  1  0  0  0  0
 19 18  1  0  0  0  0
 20  9  1  1  0  0  0
 21 17  1  0  0  0  0
 21 14  1  0  0  0  0
 22 19  1  6  0  0  0
 22 14  1  0  0  0  0
 23 24  2  0  0  0  0
 24 25  1  0  0  0  0
 25  5  1  0  0  0  0
M  END
>  <MODEL>
5

>  <REMARK>
 VINA RESULT:      -6.9      3.517      6.776
  Name = 
  2 active torsions:
  status: ('A' for Active; 'I' for Inactive)
    1  A    between atoms: C_8  and  N_23
    2  A    between atoms: N_17  and  C_19
                            x       y       z     vdW  Elec       q    Type
                         _______ _______ _______ _____ _____    ______ ____

>  <TORSDO>
F 2

$$$$
=
 OpenBabel11062418113D

 25 28  0  0  1  0  0  0  0  0999 V2000
  192.0560  177.5000  141.2310 N   0  0  0  0  0  0  0  0  0  0  0  0
  191.9120  176.3750  137.6870 C   0  0  0  0  0  3  0  0  0  0  0  0
  189.3780  176.4790  138.9640 C   0  0  0  0  0  3  0  0  0  0  0  0
  190.7440  176.0260  136.9880 C   0  0  0  0  0  3  0  0  0  0  0  0
  189.4760  176.0770  137.6200 C   0  0  0  0  0  0  0  0  0  0  0  0
  190.5510  176.8130  139.6390 C   0  0  0  0  0  0  0  0  0  0  0  0
  192.7280  177.1940  140.0090 C   0  0  0  0  0  0  0  0  0  0  0  0
  193.9720  177.2940  139.8430 O   0  0  0  0  0  0  0  0  0  0  0  0
  189.8040  177.4810  142.0260 N   0  0  0  0  0  2  0  0  0  0  0  0
  191.7690  176.7640  139.0150 C   0  0  0  0  0  0  0  0  0  0  0  0
  190.7940  177.2740  141.0140 C   0  0  0  0  0  0  0  0  0  0  0  0
  187.8290  176.5790  143.1700 C   0  0  0  0  0  2  0  0  0  0  0  0
  185.6830  178.3840  144.6150 C   0  0  1  0  0  0  0  0  0  0  0  0
  187.5730  177.6900  144.1970 C   0  0  2  0  0  3  0  0  0  0  0  0
  184.5400  177.8780  143.9860 O   0  0  0  0  0  1  0  0  0  0  0  0
  185.3050  179.4740  145.6200 C   0  0  0  0  0  1  0  0  0  0  0  0
  187.0400  177.5010  146.4700 C   0  0  0  0  0  1  0  0  0  0  0  0
  187.6350  178.3730  141.3450 C   0  0  0  0  0  2  0  0  0  0  0  0
  186.3810  178.6800  142.1590 C   0  0  0  0  0  2  0  0  0  0  0  0
  188.3980  177.1420  141.8600 C   0  0  1  0  0  3  0  0  0  0  0  0
  186.5200  177.2760  145.1220 N   0  0  0  0  0  0  0  0  0  0  0  0
  186.7520  178.8600  143.6380 C   0  0  1  0  0  3  0  0  0  0  0  0
  185.9920  175.9210  136.5710 O   0  0  0  0  0  0  0  0  0  0  0  0
  187.0050  176.2690  137.2300 C   0  0  0  0  0  3  0  0  0  0  0  0
  188.2840  175.7250  136.9130 N   0  0  0  0  0  2  0  0  0  0  0  0
  2 10  1  0  0  0  0
  3  6  1  0  0  0  0
  4  5  1  0  0  0  0
  4  2  2  0  0  0  0
  5  3  2  0  0  0  0
  6 11  1  0  0  0  0
  7  1  1  0  0  0  0
  8  7  2  0  0  0  0
 10  6  2  0  0  0  0
 10  7  1  0  0  0  0
 11  1  2  0  0  0  0
 11  9  1  0  0  0  0
 13 21  1  0  0  0  0
 13 16  1  1  0  0  0
 14 12  1  6  0  0  0
 14 21  1  0  0  0  0
 15 13  1  0  0  0  0
 18 20  1  0  0  0  0
 18 19  1  0  0  0  0
 20  9  1  1  0  0  0
 20 12  1  0  0  0  0
 21 17  1  0  0  0  0
 22 19  1  6  0  0  0
 22 14  1  0  0  0  0
 22 13  1  0  0  0  0
 23 24  2  0  0  0  0
 25 24  1  0  0  0  0
 25  5  1  0  0  0  0
M  END
>  <MODEL>
6

>  <REMARK>
 VINA RESULT:      -6.8      3.673      7.264
  Name = 
  2 active torsions:
  status: ('A' for Active; 'I' for Inactive)
    1  A    between atoms: C_8  and  N_23
    2  A    between atoms: N_17  and  C_19
                            x       y       z     vdW  Elec       q    Type
                         _______ _______ _______ _____ _____    ______ ____

>  <TORSDO>
F 2

$$$$
=
 OpenBabel11062418113D

 25 28  0  0  1  0  0  0  0  0999 V2000
  189.0060  176.8340  143.4020 N   0  0  0  0  0  0  0  0  0  0  0  0
  185.6550  178.4460  143.5370 C   0  0  0  0  0  3  0  0  0  0  0  0
  186.8380  178.4680  140.9550 C   0  0  0  0  0  3  0  0  0  0  0  0
  184.9830  179.0240  142.4470 C   0  0  0  0  0  3  0  0  0  0  0  0
  185.5680  179.0370  141.1560 C   0  0  0  0  0  0  0  0  0  0  0  0
  187.4890  177.9070  142.0530 C   0  0  0  0  0  0  0  0  0  0  0  0
  187.8580  177.2240  144.1560 C   0  0  0  0  0  0  0  0  0  0  0  0
  187.7120  177.0010  145.3860 O   0  0  0  0  0  0  0  0  0  0  0  0
  189.7370  177.0100  141.1350 N   0  0  0  0  0  2  0  0  0  0  0  0
  186.9100  177.8970  143.2950 C   0  0  0  0  0  0  0  0  0  0  0  0
  188.7910  177.2350  142.1840 C   0  0  0  0  0  0  0  0  0  0  0  0
  190.9540  177.6430  139.1000 C   0  0  0  0  0  2  0  0  0  0  0  0
  191.4330  175.6770  136.6800 C   0  0  1  0  0  0  0  0  0  0  0  0
  191.4700  176.2700  138.6490 C   0  0  2  0  0  3  0  0  0  0  0  0
  190.9370  176.4930  135.6580 O   0  0  0  0  0  1  0  0  0  0  0  0
  191.9260  174.3440  136.1120 C   0  0  0  0  0  1  0  0  0  0  0  0
  193.5950  175.6830  137.8570 C   0  0  0  0  0  1  0  0  0  0  0  0
  188.5850  176.6580  139.0100 C   0  0  0  0  0  2  0  0  0  0  0  0
  189.1130  176.2130  137.6490 C   0  0  0  0  0  2  0  0  0  0  0  0
  189.5850  177.5320  139.7850 C   0  0  1  0  0  3  0  0  0  0  0  0
  192.3860  176.4320  137.5210 N   0  0  0  0  0  0  0  0  0  0  0  0
  190.4480  175.4740  137.8260 C   0  0  1  0  0  3  0  0  0  0  0  0
  182.9790  179.8920  138.7400 O   0  0  0  0  0  0  0  0  0  0  0  0
  183.5230  179.3460  139.7340 C   0  0  0  0  0  3  0  0  0  0  0  0
  184.8870  179.6220  140.0420 N   0  0  0  0  0  2  0  0  0  0  0  0
  1  7  1  0  0  0  0
  3  5  2  0  0  0  0
  3  6  1  0  0  0  0
  4  2  2  0  0  0  0
  5  4  1  0  0  0  0
  6 11  1  0  0  0  0
  6 10  2  0  0  0  0
  7  8  2  0  0  0  0
  9 11  1  0  0  0  0
 10  2  1  0  0  0  0
 10  7  1  0  0  0  0
 11  1  2  0  0  0  0
 12 20  1  0  0  0  0
 13 16  1  6  0  0  0
 13 21  1  0  0  0  0
 13 22  1  0  0  0  0
 14 12  1  6  0  0  0
 15 13  1  0  0  0  0
 18 20  1  0  0  0  0
 19 18  1  0  0  0  0
 20  9  1  1  0  0  0
 21 17  1  0  0  0  0
 21 14  1  0  0  0  0
 22 19  1  6  0  0  0
 22 14  1  0  0  0  0
 23 24  2  0  0  0  0
 24 25  1  0  0  0  0
 25  5  1  0  0  0  0
M  END
>  <MODEL>
7

>  <REMARK>
 VINA RESULT:      -6.8      3.384      7.204
  Name = 
  2 active torsions:
  status: ('A' for Active; 'I' for Inactive)
    1  A    between atoms: C_8  and  N_23
    2  A    between atoms: N_17  and  C_19
                            x       y       z     vdW  Elec       q    Type
                         _______ _______ _______ _____ _____    ______ ____

>  <TORSDO>
F 2

$$$$
=
 OpenBabel11062418113D

 25 28  0  0  1  0  0  0  0  0999 V2000
  187.6270  178.3600  139.1890 N   0  0  0  0  0  0  0  0  0  0  0  0
  188.8220  177.7780  142.6650 C   0  0  0  0  0  3  0  0  0  0  0  0
  186.0310  178.2650  142.4760 C   0  0  0  0  0  3  0  0  0  0  0  0
  188.0170  177.7800  143.8170 C   0  0  0  0  0  3  0  0  0  0  0  0
  186.6230  178.0220  143.7280 C   0  0  0  0  0  0  0  0  0  0  0  0
  186.8510  178.2650  141.3490 C   0  0  0  0  0  0  0  0  0  0  0  0
  188.6980  178.0840  140.0920 C   0  0  0  0  0  0  0  0  0  0  0  0
  189.8950  177.9170  139.7370 O   0  0  0  0  0  0  0  0  0  0  0  0
  185.2750  178.7400  139.3510 N   0  0  0  0  0  2  0  0  0  0  0  0
  188.1960  178.0260  141.4470 C   0  0  0  0  0  0  0  0  0  0  0  0
  186.5580  178.4690  139.9220 C   0  0  0  0  0  0  0  0  0  0  0  0
  183.1140  179.9050  139.3870 C   0  0  0  0  0  2  0  0  0  0  0  0
  180.4170  178.5920  138.4130 C   0  0  1  0  0  0  0  0  0  0  0  0
  182.3850  179.1680  138.2560 C   0  0  2  0  0  3  0  0  0  0  0  0
  179.6480  178.8450  139.5550 O   0  0  0  0  0  1  0  0  0  0  0  0
  179.5840  177.8640  137.3560 C   0  0  0  0  0  1  0  0  0  0  0  0
  181.0610  180.0490  136.5360 C   0  0  0  0  0  1  0  0  0  0  0  0
  183.4410  177.6230  140.5150 C   0  0  0  0  0  2  0  0  0  0  0  0
  181.9490  177.5560  140.1980 C   0  0  0  0  0  2  0  0  0  0  0  0
  184.0740  178.9730  140.1400 C   0  0  1  0  0  3  0  0  0  0  0  0
  181.1080  179.8250  137.9800 N   0  0  0  0  0  0  0  0  0  0  0  0
  181.7210  177.8610  138.7100 C   0  0  1  0  0  3  0  0  0  0  0  0
  184.0650  178.9240  146.1590 O   0  0  0  0  0  0  0  0  0  0  0  0
  184.7580  178.9740  145.1110 C   0  0  0  0  0  3  0  0  0  0  0  0
  185.7980  178.0230  144.8960 N   0  0  0  0  0  2  0  0  0  0  0  0
  1 11  2  0  0  0  0
  1  7  1  0  0  0  0
  2  4  1  0  0  0  0
  3  5  1  0  0  0  0
  5  4  2  0  0  0  0
  5 25  1  0  0  0  0
  6 10  1  0  0  0  0
  6  3  2  0  0  0  0
  7 10  1  0  0  0  0
  8  7  2  0  0  0  0
  9 11  1  0  0  0  0
 10  2  2  0  0  0  0
 11  6  1  0  0  0  0
 12 20  1  0  0  0  0
 13 16  1  6  0  0  0
 13 22  1  0  0  0  0
 13 15  1  0  0  0  0
 14 22  1  0  0  0  0
 14 12  1  1  0  0  0
 17 21  1  0  0  0  0
 19 18  1  0  0  0  0
 20  9  1  6  0  0  0
 20 18  1  0  0  0  0
 21 14  1  0  0  0  0
 21 13  1  0  0  0  0
 22 19  1  1  0  0  0
 24 23  2  0  0  0  0
 25 24  1  0  0  0  0
M  END
>  <MODEL>
8

>  <REMARK>
 VINA RESULT:      -6.7      1.982      4.329
  Name = 
  2 active torsions:
  status: ('A' for Active; 'I' for Inactive)
    1  A    between atoms: C_8  and  N_23
    2  A    between atoms: N_17  and  C_19
                            x       y       z     vdW  Elec       q    Type
                         _______ _______ _______ _____ _____    ______ ____

>  <TORSDO>
F 2

$$$$
=
 OpenBabel11062418113D

 25 28  0  0  1  0  0  0  0  0999 V2000
  193.2350  177.1110  138.6440 N   0  0  0  0  0  0  0  0  0  0  0  0
  191.7340  175.3280  135.7420 C   0  0  0  0  0  3  0  0  0  0  0  0
  189.9960  175.5550  137.9770 C   0  0  0  0  0  3  0  0  0  0  0  0
  190.4330  174.7990  135.6930 C   0  0  0  0  0  3  0  0  0  0  0  0
  189.5600  174.9100  136.8050 C   0  0  0  0  0  0  0  0  0  0  0  0
  191.2930  176.0650  138.0040 C   0  0  0  0  0  0  0  0  0  0  0  0
  193.3540  176.6100  137.3120 C   0  0  0  0  0  0  0  0  0  0  0  0
  194.3850  176.7340  136.6000 O   0  0  0  0  0  0  0  0  0  0  0  0
  191.5600  177.1380  140.3450 N   0  0  0  0  0  2  0  0  0  0  0  0
  192.1240  175.9550  136.9210 C   0  0  0  0  0  0  0  0  0  0  0  0
  192.0410  176.7890  139.0440 C   0  0  0  0  0  0  0  0  0  0  0  0
  190.4590  175.9830  142.2110 C   0  0  0  0  0  2  0  0  0  0  0  0
  189.3170  177.4730  144.7450 C   0  0  1  0  0  0  0  0  0  0  0  0
  190.7430  176.9690  143.3520 C   0  0  2  0  0  3  0  0  0  0  0  0
  188.0220  176.9420  144.7220 O   0  0  0  0  0  1  0  0  0  0  0  0
  189.4830  178.4320  145.9260 C   0  0  0  0  0  1  0  0  0  0  0  0
  191.4450  176.5270  145.5420 C   0  0  0  0  0  1  0  0  0  0  0  0
  189.3300  177.9210  140.9630 C   0  0  0  0  0  2  0  0  0  0  0  0
  188.6600  178.0520  142.3280 C   0  0  0  0  0  2  0  0  0  0  0  0
  190.2720  176.7090  140.8710 C   0  0  1  0  0  3  0  0  0  0  0  0
  190.3160  176.3900  144.6240 N   0  0  0  0  0  0  0  0  0  0  0  0
  189.7300  178.1200  143.4280 C   0  0  1  0  0  3  0  0  0  0  0  0
  185.9460  174.5840  137.1210 O   0  0  0  0  0  0  0  0  0  0  0  0
  187.0880  175.1080  137.1850 C   0  0  0  0  0  3  0  0  0  0  0  0
  188.2350  174.3760  136.7600 N   0  0  0  0  0  2  0  0  0  0  0  0
  1 11  2  0  0  0  0
  2 10  1  0  0  0  0
  3  6  1  0  0  0  0
  4  2  2  0  0  0  0
  4  5  1  0  0  0  0
  5  3  2  0  0  0  0
  6 11  1  0  0  0  0
  7  1  1  0  0  0  0
  8  7  2  0  0  0  0
 10  7  1  0  0  0  0
 10  6  2  0  0  0  0
 11  9  1  0  0  0  0
 13 16  1  1  0  0  0
 14 12  1  6  0  0  0
 14 22  1  0  0  0  0
 14 21  1  0  0  0  0
 15 13  1  0  0  0  0
 18 19  1  0  0  0  0
 20  9  1  1  0  0  0
 20 18  1  0  0  0  0
 20 12  1  0  0  0  0
 21 13  1  0  0  0  0
 21 17  1  0  0  0  0
 22 19  1  6  0  0  0
 22 13  1  0  0  0  0
 23 24  2  0  0  0  0
 25  5  1  0  0  0  0
 25 24  1  0  0  0  0
M  END
>  <MODEL>
9

>  <REMARK>
 VINA RESULT:      -6.6      5.061      9.217
  Name = 
  2 active torsions:
  status: ('A' for Active; 'I' for Inactive)
    1  A    between atoms: C_8  and  N_23
    2  A    between atoms: N_17  and  C_19
                            x       y       z     vdW  Elec       q    Type
                         _______ _______ _______ _____ _____    ______ ____

>  <TORSDO>
F 2

$$$$
