=
 OpenBabel11062416313D

 29 32  0  0  1  0  0  0  0  0999 V2000
  181.5390  179.3090  143.4640 S   0  0  0  0  0  0  0  0  0  0  0  0
  181.2710  178.9130  140.9010 O   0  0  0  0  0  0  0  0  0  0  0  0
  186.4670  178.7290  147.4210 C   0  0  0  0  0  2  0  0  0  0  0  0
  185.6120  178.2020  144.7810 C   0  0  0  0  0  0  0  0  0  0  0  0
  186.1750  177.7600  142.4230 N   0  0  0  0  0  2  0  0  0  0  0  0
  185.0770  178.8900  146.9850 N   0  0  0  0  0  0  0  0  0  0  0  0
  186.2780  178.6060  140.1190 C   0  0  0  0  0  2  0  0  0  0  0  0
  183.3200  178.4580  141.8550 N   0  0  0  0  0  0  0  0  0  0  0  0
  183.9090  178.5150  143.0880 C   0  0  0  0  0  0  0  0  0  0  0  0
  183.9330  177.9540  140.6300 C   0  0  0  0  0  2  0  0  0  0  0  0
  184.7010  178.7080  145.7510 C   0  0  0  0  0  0  0  0  0  0  0  0
  186.8140  177.7460  145.1680 C   0  0  0  0  0  3  0  0  0  0  0  0
  184.8200  179.0150  140.0060 C   0  0  0  0  0  2  0  0  0  0  0  0
  183.0540  178.9470  144.0910 C   0  0  0  0  0  0  0  0  0  0  0  0
  183.4350  179.0490  145.3870 N   0  0  0  0  0  0  0  0  0  0  0  0
  182.0290  178.8730  141.9070 C   0  0  0  0  0  0  0  0  0  0  0  0
  187.1620  177.6290  146.6230 C   0  0  0  0  0  2  0  0  0  0  0  0
  185.2310  178.1580  143.4210 C   0  0  0  0  0  0  0  0  0  0  0  0
  186.7850  178.7530  141.5480 C   0  0  2  0  0  3  0  0  0  0  0  0
  188.3050  178.6520  141.6060 C   0  0  0  0  0  2  0  0  0  0  0  0
  188.8080  177.2780  141.1910 C   0  0  0  0  0  2  0  0  0  0  0  0
  189.0770  176.4470  142.4270 C   0  0  0  0  0  2  0  0  0  0  0  0
  190.5520  176.3170  142.6290 C   0  0  0  0  0  3  0  0  0  0  0  0
  191.1600  176.6520  143.7740 C   0  0  0  0  0  3  0  0  0  0  0  0
  190.4320  177.1800  144.9750 C   0  0  2  0  0  3  0  0  0  0  0  0
  190.3940  178.6310  144.9180 N   0  0  0  0  0  1  0  0  0  0  0  0
  192.1230  176.0140  146.1830 O   0  0  0  0  0  0  0  0  0  0  0  0
  190.5980  177.1380  147.4720 O   0  0  0  0  0  1  0  0  0  0  0  0
  191.0990  176.7440  146.2370 C   0  0  0  0  0  0  0  0  0  0  0  0
  1 14  1  0  0  0  0
  2 16  2  0  0  0  0
  4 12  2  0  0  0  0
  4 11  1  0  0  0  0
  5 18  1  0  0  0  0
  6  3  1  0  0  0  0
  7 19  1  0  0  0  0
  8 16  1  0  0  0  0
  8  9  1  0  0  0  0
  9 18  2  0  0  0  0
  9 14  1  0  0  0  0
 10  8  1  0  0  0  0
 11  6  2  0  0  0  0
 12 17  1  0  0  0  0
 13  7  1  0  0  0  0
 13 10  1  0  0  0  0
 14 15  2  0  0  0  0
 15 11  1  0  0  0  0
 16  1  1  0  0  0  0
 17  3  1  0  0  0  0
 18  4  1  0  0  0  0
 19 20  1  6  0  0  0
 19  5  1  0  0  0  0
 21 20  1  0  0  0  0
 21 22  1  0  0  0  0
 22 23  1  0  0  0  0
 23 24  2  0  0  0  0
 24 25  1  0  0  0  0
 25 26  1  6  0  0  0
 25 29  1  0  0  0  0
 27 29  2  0  0  0  0
 29 28  1  0  0  0  0
M  END
>  <MODEL>
1

>  <REMARK>
 VINA RESULT:      -8.8      0.000      0.000
  Name = 
  6 active torsions:
  status: ('A' for Active; 'I' for Inactive)
    1  A    between atoms: C_1  and  C_18
    2  A    between atoms: C_9  and  CA_14
    3  A    between atoms: C_13  and  C_18
    4  A    between atoms: C_13  and  C_24
    5  A    between atoms: CA_14  and  C_15
    6  A    between atoms: C_24  and  C_29
                            x       y       z     vdW  Elec       q    Type
                         _______ _______ _______ _____ _____    ______ ____

>  <TORSDO>
F 6

$$$$
=
 OpenBabel11062416313D

 29 32  0  0  1  0  0  0  0  0999 V2000
  185.7530  178.6030  147.0040 S   0  0  0  0  0  0  0  0  0  0  0  0
  183.5750  179.0100  145.6280 O   0  0  0  0  0  0  0  0  0  0  0  0
  191.6260  176.8500  145.3590 C   0  0  0  0  0  2  0  0  0  0  0  0
  188.9970  177.1550  144.3720 C   0  0  0  0  0  0  0  0  0  0  0  0
  187.4770  177.4570  142.4560 N   0  0  0  0  0  2  0  0  0  0  0  0
  190.4770  177.1330  146.2240 N   0  0  0  0  0  0  0  0  0  0  0  0
  186.0210  178.9680  141.1790 C   0  0  0  0  0  2  0  0  0  0  0  0
  185.4500  178.2890  144.4950 N   0  0  0  0  0  0  0  0  0  0  0  0
  186.7510  177.9670  144.7710 C   0  0  0  0  0  0  0  0  0  0  0  0
  184.7940  178.1850  143.1960 C   0  0  0  0  0  2  0  0  0  0  0  0
  189.2790  177.3380  145.7560 C   0  0  0  0  0  0  0  0  0  0  0  0
  189.9220  176.6050  143.5700 C   0  0  0  0  0  3  0  0  0  0  0  0
  185.1300  179.3890  142.3350 C   0  0  0  0  0  2  0  0  0  0  0  0
  187.0740  178.0690  146.1150 C   0  0  0  0  0  0  0  0  0  0  0  0
  188.3030  177.7700  146.6000 N   0  0  0  0  0  0  0  0  0  0  0  0
  184.7880  178.6650  145.6190 C   0  0  0  0  0  0  0  0  0  0  0  0
  191.1980  176.0490  144.1330 C   0  0  0  0  0  2  0  0  0  0  0  0
  187.7330  177.5280  143.8610 C   0  0  0  0  0  0  0  0  0  0  0  0
  187.4390  178.6710  141.6520 C   0  0  2  0  0  3  0  0  0  0  0  0
  188.4010  178.5610  140.4740 C   0  0  0  0  0  2  0  0  0  0  0  0
  187.7820  177.8300  139.2920 C   0  0  0  0  0  2  0  0  0  0  0  0
  188.8370  176.9820  138.6170 C   0  0  0  0  0  2  0  0  0  0  0  0
  190.0840  176.9870  139.4410 C   0  0  0  0  0  3  0  0  0  0  0  0
  191.2390  176.4630  139.0140 C   0  0  0  0  0  3  0  0  0  0  0  0
  191.4110  175.8260  137.6660 C   0  0  2  0  0  3  0  0  0  0  0  0
  191.2670  174.3860  137.7900 N   0  0  0  0  0  1  0  0  0  0  0  0
  192.9760  175.9340  135.8710 O   0  0  0  0  0  0  0  0  0  0  0  0
  193.7520  176.6850  137.8930 O   0  0  0  0  0  1  0  0  0  0  0  0
  192.7510  176.1490  137.0910 C   0  0  0  0  0  0  0  0  0  0  0  0
  3  6  1  0  0  0  0
  4 11  1  0  0  0  0
  5 18  1  0  0  0  0
  7 19  1  0  0  0  0
  7 13  1  0  0  0  0
  8  9  1  0  0  0  0
  8 16  1  0  0  0  0
  9 14  1  0  0  0  0
 10  8  1  0  0  0  0
 11  6  2  0  0  0  0
 11 15  1  0  0  0  0
 12 17  1  0  0  0  0
 12  4  2  0  0  0  0
 13 10  1  0  0  0  0
 14 15  2  0  0  0  0
 14  1  1  0  0  0  0
 16  2  2  0  0  0  0
 16  1  1  0  0  0  0
 17  3  1  0  0  0  0
 18  4  1  0  0  0  0
 18  9  2  0  0  0  0
 19 20  1  6  0  0  0
 19  5  1  0  0  0  0
 21 20  1  0  0  0  0
 22 21  1  0  0  0  0
 22 23  1  0  0  0  0
 24 23  2  0  0  0  0
 25 26  1  1  0  0  0
 25 24  1  0  0  0  0
 27 29  2  0  0  0  0
 29 25  1  0  0  0  0
 29 28  1  0  0  0  0
M  END
>  <MODEL>
2

>  <REMARK>
 VINA RESULT:      -8.7      3.770      5.224
  Name = 
  6 active torsions:
  status: ('A' for Active; 'I' for Inactive)
    1  A    between atoms: C_1  and  C_18
    2  A    between atoms: C_9  and  CA_14
    3  A    between atoms: C_13  and  C_18
    4  A    between atoms: C_13  and  C_24
    5  A    between atoms: CA_14  and  C_15
    6  A    between atoms: C_24  and  C_29
                            x       y       z     vdW  Elec       q    Type
                         _______ _______ _______ _____ _____    ______ ____

>  <TORSDO>
F 6

$$$$
=
 OpenBabel11062416313D

 29 32  0  0  1  0  0  0  0  0999 V2000
  185.9370  178.5300  146.9760 S   0  0  0  0  0  0  0  0  0  0  0  0
  183.7520  178.9740  145.6230 O   0  0  0  0  0  0  0  0  0  0  0  0
  191.7650  176.6900  145.2670 C   0  0  0  0  0  2  0  0  0  0  0  0
  189.1310  177.0390  144.3080 C   0  0  0  0  0  0  0  0  0  0  0  0
  187.5970  177.3690  142.4070 N   0  0  0  0  0  2  0  0  0  0  0  0
  190.6300  176.9890  146.1440 N   0  0  0  0  0  0  0  0  0  0  0  0
  186.1520  178.9060  141.1490 C   0  0  0  0  0  2  0  0  0  0  0  0
  185.6040  178.2270  144.4700 N   0  0  0  0  0  0  0  0  0  0  0  0
  186.9020  177.8840  144.7310 C   0  0  0  0  0  0  0  0  0  0  0  0
  184.9330  178.1370  143.1760 C   0  0  0  0  0  2  0  0  0  0  0  0
  189.4300  177.2130  145.6890 C   0  0  0  0  0  0  0  0  0  0  0  0
  190.0390  176.4760  143.4960 C   0  0  0  0  0  3  0  0  0  0  0  0
  185.2790  179.3380  142.3150 C   0  0  0  0  0  2  0  0  0  0  0  0
  187.2400  177.9780  146.0730 C   0  0  0  0  0  0  0  0  0  0  0  0
  188.4690  177.6590  146.5440 N   0  0  0  0  0  0  0  0  0  0  0  0
  184.9590  178.6100  145.6010 C   0  0  0  0  0  0  0  0  0  0  0  0
  191.3120  175.8990  144.0430 C   0  0  0  0  0  2  0  0  0  0  0  0
  187.8680  177.4330  143.8100 C   0  0  0  0  0  0  0  0  0  0  0  0
  187.5690  178.5860  141.6070 C   0  0  2  0  0  3  0  0  0  0  0  0
  188.5170  178.4640  140.4190 C   0  0  0  0  0  2  0  0  0  0  0  0
  187.8100  177.9700  139.1660 C   0  0  0  0  0  2  0  0  0  0  0  0
  188.6090  178.3710  137.9460 C   0  0  0  0  0  2  0  0  0  0  0  0
  188.4300  177.3470  136.8730 C   0  0  0  0  0  3  0  0  0  0  0  0
  189.4110  176.5240  136.4830 C   0  0  0  0  0  3  0  0  0  0  0  0
  190.7860  176.5330  137.0830 C   0  0  2  0  0  3  0  0  0  0  0  0
  191.7650  176.2320  136.0540 N   0  0  0  0  0  1  0  0  0  0  0  0
  191.1550  174.3300  137.9160 O   0  0  0  0  0  0  0  0  0  0  0  0
  190.7020  175.9160  139.5080 O   0  0  0  0  0  1  0  0  0  0  0  0
  190.8930  175.5320  138.1860 C   0  0  0  0  0  0  0  0  0  0  0  0
  3  6  1  0  0  0  0
  4 11  1  0  0  0  0
  5 18  1  0  0  0  0
  7 19  1  0  0  0  0
  7 13  1  0  0  0  0
  8  9  1  0  0  0  0
  8 16  1  0  0  0  0
  9 14  1  0  0  0  0
 10  8  1  0  0  0  0
 11  6  2  0  0  0  0
 11 15  1  0  0  0  0
 12 17  1  0  0  0  0
 12  4  2  0  0  0  0
 13 10  1  0  0  0  0
 14 15  2  0  0  0  0
 14  1  1  0  0  0  0
 16  2  2  0  0  0  0
 16  1  1  0  0  0  0
 17  3  1  0  0  0  0
 18  4  1  0  0  0  0
 18  9  2  0  0  0  0
 19 20  1  6  0  0  0
 19  5  1  0  0  0  0
 21 20  1  0  0  0  0
 22 21  1  0  0  0  0
 23 22  1  0  0  0  0
 24 23  2  0  0  0  0
 24 25  1  0  0  0  0
 25 26  1  6  0  0  0
 25 29  1  0  0  0  0
 27 29  2  0  0  0  0
 29 28  1  0  0  0  0
M  END
>  <MODEL>
3

>  <REMARK>
 VINA RESULT:      -8.5      3.617      5.297
  Name = 
  6 active torsions:
  status: ('A' for Active; 'I' for Inactive)
    1  A    between atoms: C_1  and  C_18
    2  A    between atoms: C_9  and  CA_14
    3  A    between atoms: C_13  and  C_18
    4  A    between atoms: C_13  and  C_24
    5  A    between atoms: CA_14  and  C_15
    6  A    between atoms: C_24  and  C_29
                            x       y       z     vdW  Elec       q    Type
                         _______ _______ _______ _____ _____    ______ ____

>  <TORSDO>
F 6

$$$$
=
 OpenBabel11062416313D

 29 32  0  0  1  0  0  0  0  0999 V2000
  185.7280  178.5850  147.0500 S   0  0  0  0  0  0  0  0  0  0  0  0
  183.5820  178.9740  145.6200 O   0  0  0  0  0  0  0  0  0  0  0  0
  191.6550  176.8830  145.5530 C   0  0  0  0  0  2  0  0  0  0  0  0
  189.0490  177.1660  144.5000 C   0  0  0  0  0  0  0  0  0  0  0  0
  187.5750  177.4560  142.5460 N   0  0  0  0  0  2  0  0  0  0  0  0
  190.4820  177.1560  146.3880 N   0  0  0  0  0  0  0  0  0  0  0  0
  186.1390  178.9550  141.2330 C   0  0  0  0  0  2  0  0  0  0  0  0
  185.4900  178.2700  144.5350 N   0  0  0  0  0  0  0  0  0  0  0  0
  186.7870  177.9590  144.8420 C   0  0  0  0  0  0  0  0  0  0  0  0
  184.8690  178.1610  143.2190 C   0  0  0  0  0  2  0  0  0  0  0  0
  189.2940  177.3510  145.8910 C   0  0  0  0  0  0  0  0  0  0  0  0
  189.9980  176.6240  143.7220 C   0  0  0  0  0  3  0  0  0  0  0  0
  185.2160  179.3680  142.3670 C   0  0  0  0  0  2  0  0  0  0  0  0
  187.0750  178.0630  146.1950 C   0  0  0  0  0  0  0  0  0  0  0  0
  188.2930  177.7750  146.7100 N   0  0  0  0  0  0  0  0  0  0  0  0
  184.7970  178.6400  145.6410 C   0  0  0  0  0  0  0  0  0  0  0  0
  191.2640  176.0790  144.3160 C   0  0  0  0  0  2  0  0  0  0  0  0
  187.7950  177.5290  143.9570 C   0  0  0  0  0  0  0  0  0  0  0  0
  187.5470  178.6700  141.7420 C   0  0  2  0  0  3  0  0  0  0  0  0
  188.5390  178.5690  140.5880 C   0  0  0  0  0  2  0  0  0  0  0  0
  188.8630  177.1260  140.2330 C   0  0  0  0  0  2  0  0  0  0  0  0
  189.5550  177.0820  138.8880 C   0  0  0  0  0  2  0  0  0  0  0  0
  189.4400  178.4160  138.2250 C   0  0  0  0  0  3  0  0  0  0  0  0
  188.6000  178.6520  137.2090 C   0  0  0  0  0  3  0  0  0  0  0  0
  187.6820  177.6130  136.6360 C   0  0  2  0  0  3  0  0  0  0  0  0
  187.6240  177.7620  135.1930 N   0  0  0  0  0  1  0  0  0  0  0  0
  186.0090  178.7550  137.8920 O   0  0  0  0  0  1  0  0  0  0  0  0
  185.3600  176.7480  136.9950 O   0  0  0  0  0  0  0  0  0  0  0  0
  186.3090  177.7410  137.2090 C   0  0  0  0  0  0  0  0  0  0  0  0
  2 16  2  0  0  0  0
  3  6  1  0  0  0  0
  4 11  1  0  0  0  0
  5 18  1  0  0  0  0
  7 19  1  0  0  0  0
  7 13  1  0  0  0  0
  8  9  1  0  0  0  0
  8 16  1  0  0  0  0
  9 14  1  0  0  0  0
 10  8  1  0  0  0  0
 11  6  2  0  0  0  0
 11 15  1  0  0  0  0
 12 17  1  0  0  0  0
 12  4  2  0  0  0  0
 13 10  1  0  0  0  0
 14 15  2  0  0  0  0
 14  1  1  0  0  0  0
 16  1  1  0  0  0  0
 17  3  1  0  0  0  0
 18  4  1  0  0  0  0
 18  9  2  0  0  0  0
 19 20  1  6  0  0  0
 19  5  1  0  0  0  0
 21 20  1  0  0  0  0
 22 21  1  0  0  0  0
 23 22  1  0  0  0  0
 24 23  2  0  0  0  0
 25 26  1  6  0  0  0
 25 29  1  0  0  0  0
 25 24  1  0  0  0  0
 28 29  2  0  0  0  0
 29 27  1  0  0  0  0
M  END
>  <MODEL>
4

>  <REMARK>
 VINA RESULT:      -8.5      3.061      5.717
  Name = 
  6 active torsions:
  status: ('A' for Active; 'I' for Inactive)
    1  A    between atoms: C_1  and  C_18
    2  A    between atoms: C_9  and  CA_14
    3  A    between atoms: C_13  and  C_18
    4  A    between atoms: C_13  and  C_24
    5  A    between atoms: CA_14  and  C_15
    6  A    between atoms: C_24  and  C_29
                            x       y       z     vdW  Elec       q    Type
                         _______ _______ _______ _____ _____    ______ ____

>  <TORSDO>
F 6

$$$$
=
 OpenBabel11062416313D

 29 32  0  0  1  0  0  0  0  0999 V2000
  191.6700  177.4540  144.7880 S   0  0  0  0  0  0  0  0  0  0  0  0
  191.6980  176.7830  147.3080 O   0  0  0  0  0  0  0  0  0  0  0  0
  186.9720  178.7740  140.7310 C   0  0  0  0  0  2  0  0  0  0  0  0
  187.5120  177.7900  143.3230 C   0  0  0  0  0  0  0  0  0  0  0  0
  186.7440  177.3520  145.6230 N   0  0  0  0  0  2  0  0  0  0  0  0
  188.3240  178.4550  141.1970 N   0  0  0  0  0  0  0  0  0  0  0  0
  186.8150  177.9930  147.9930 C   0  0  0  0  0  2  0  0  0  0  0  0
  189.6490  177.0720  146.2890 N   0  0  0  0  0  0  0  0  0  0  0  0
  189.1580  177.4120  145.0590 C   0  0  0  0  0  0  0  0  0  0  0  0
  188.8600  176.6850  147.4550 C   0  0  0  0  0  2  0  0  0  0  0  0
  188.5740  178.0640  142.4150 C   0  0  0  0  0  0  0  0  0  0  0  0
  186.2460  177.7650  142.8800 C   0  0  0  0  0  3  0  0  0  0  0  0
  188.3220  177.9150  148.1620 C   0  0  0  0  0  2  0  0  0  0  0  0
  190.1450  177.6370  144.1110 C   0  0  0  0  0  0  0  0  0  0  0  0
  189.8680  177.9600  142.8250 N   0  0  0  0  0  0  0  0  0  0  0  0
  191.0070  177.0650  146.2920 C   0  0  0  0  0  0  0  0  0  0  0  0
  185.9380  177.8850  141.4160 C   0  0  0  0  0  2  0  0  0  0  0  0
  187.8050  177.5160  144.6780 C   0  0  0  0  0  0  0  0  0  0  0  0
  186.4380  178.4090  146.5770 C   0  0  2  0  0  3  0  0  0  0  0  0
  184.9650  178.7950  146.4900 C   0  0  0  0  0  2  0  0  0  0  0  0
  184.5880  179.3240  145.1140 C   0  0  0  0  0  2  0  0  0  0  0  0
  183.1710  178.9080  144.7860 C   0  0  0  0  0  2  0  0  0  0  0  0
  182.9540  178.9990  143.3100 C   0  0  0  0  0  3  0  0  0  0  0  0
  181.7490  178.8600  142.7440 C   0  0  0  0  0  3  0  0  0  0  0  0
  180.4910  178.6110  143.5230 C   0  0  2  0  0  3  0  0  0  0  0  0
  179.7220  177.5620  142.8770 N   0  0  0  0  0  1  0  0  0  0  0  0
  178.9310  180.0400  144.6200 O   0  0  0  0  0  1  0  0  0  0  0  0
  179.7090  180.8040  142.6040 O   0  0  0  0  0  0  0  0  0  0  0  0
  179.6680  179.8530  143.6170 C   0  0  0  0  0  0  0  0  0  0  0  0
  1 16  1  0  0  0  0
  3  6  1  0  0  0  0
  3 17  1  0  0  0  0
  4 18  1  0  0  0  0
  5 19  1  0  0  0  0
  6 11  2  0  0  0  0
  7 13  1  0  0  0  0
  8 16  1  0  0  0  0
  8 10  1  0  0  0  0
  9  8  1  0  0  0  0
 10 13  1  0  0  0  0
 11 15  1  0  0  0  0
 11  4  1  0  0  0  0
 12  4  2  0  0  0  0
 14  1  1  0  0  0  0
 14  9  1  0  0  0  0
 15 14  2  0  0  0  0
 16  2  2  0  0  0  0
 17 12  1  0  0  0  0
 18  9  2  0  0  0  0
 18  5  1  0  0  0  0
 19 20  1  1  0  0  0
 19  7  1  0  0  0  0
 21 20  1  0  0  0  0
 22 21  1  0  0  0  0
 23 22  1  0  0  0  0
 24 23  2  0  0  0  0
 24 25  1  0  0  0  0
 25 26  1  6  0  0  0
 25 29  1  0  0  0  0
 28 29  2  0  0  0  0
 29 27  1  0  0  0  0
M  END
>  <MODEL>
5

>  <REMARK>
 VINA RESULT:      -8.1      2.740      8.249
  Name = 
  6 active torsions:
  status: ('A' for Active; 'I' for Inactive)
    1  A    between atoms: C_1  and  C_18
    2  A    between atoms: C_9  and  CA_14
    3  A    between atoms: C_13  and  C_18
    4  A    between atoms: C_13  and  C_24
    5  A    between atoms: CA_14  and  C_15
    6  A    between atoms: C_24  and  C_29
                            x       y       z     vdW  Elec       q    Type
                         _______ _______ _______ _____ _____    ______ ____

>  <TORSDO>
F 6

$$$$
=
 OpenBabel11062416313D

 29 32  0  0  1  0  0  0  0  0999 V2000
  188.1080  178.2230  137.2280 S   0  0  0  0  0  0  0  0  0  0  0  0
  190.3630  177.0970  136.5590 O   0  0  0  0  0  0  0  0  0  0  0  0
  185.3250  179.2970  142.8300 C   0  0  0  0  0  2  0  0  0  0  0  0
  187.4900  177.9640  141.5980 C   0  0  0  0  0  0  0  0  0  0  0  0
  189.7240  176.9400  141.7800 N   0  0  0  0  0  2  0  0  0  0  0  0
  185.4680  179.1820  141.3760 N   0  0  0  0  0  0  0  0  0  0  0  0
  192.1310  177.1110  141.3180 C   0  0  0  0  0  2  0  0  0  0  0  0
  189.8030  177.1460  138.7950 N   0  0  0  0  0  0  0  0  0  0  0  0
  188.7860  177.6080  139.5840 C   0  0  0  0  0  0  0  0  0  0  0  0
  190.9650  176.3860  139.2450 C   0  0  0  0  0  2  0  0  0  0  0  0
  186.5020  178.6240  140.8130 C   0  0  0  0  0  0  0  0  0  0  0  0
  187.2760  177.7640  142.9080 C   0  0  0  0  0  3  0  0  0  0  0  0
  192.0180  177.3170  139.8180 C   0  0  0  0  0  2  0  0  0  0  0  0
  187.7620  178.2120  138.8710 C   0  0  0  0  0  0  0  0  0  0  0  0
  186.6510  178.7130  139.4630 N   0  0  0  0  0  0  0  0  0  0  0  0
  189.5730  177.4210  137.4850 C   0  0  0  0  0  0  0  0  0  0  0  0
  185.9530  178.0980  143.5330 C   0  0  0  0  0  2  0  0  0  0  0  0
  188.6760  177.5000  140.9850 C   0  0  0  0  0  0  0  0  0  0  0  0
  190.9330  177.7060  142.0500 C   0  0  2  0  0  3  0  0  0  0  0  0
  191.1900  177.7860  143.5510 C   0  0  0  0  0  2  0  0  0  0  0  0
  190.2150  178.7200  144.2520 C   0  0  0  0  0  2  0  0  0  0  0  0
  190.0190  178.2620  145.6810 C   0  0  0  0  0  2  0  0  0  0  0  0
  189.0340  177.1390  145.7130 C   0  0  0  0  0  3  0  0  0  0  0  0
  187.9720  177.1270  146.5280 C   0  0  0  0  0  3  0  0  0  0  0  0
  187.6510  178.2370  147.4850 C   0  0  2  0  0  3  0  0  0  0  0  0
  187.8420  177.7730  148.8470 N   0  0  0  0  0  1  0  0  0  0  0  0
  185.9450  179.9000  147.5570 O   0  0  0  0  0  1  0  0  0  0  0  0
  185.2600  177.8250  146.8660 O   0  0  0  0  0  0  0  0  0  0  0  0
  186.2430  178.7030  147.3060 C   0  0  0  0  0  0  0  0  0  0  0  0
  1 16  1  0  0  0  0
  1 14  1  0  0  0  0
  2 16  2  0  0  0  0
  3 17  1  0  0  0  0
  4 12  2  0  0  0  0
  5 19  1  0  0  0  0
  6  3  1  0  0  0  0
  7 19  1  0  0  0  0
  8 10  1  0  0  0  0
  8  9  1  0  0  0  0
  9 18  2  0  0  0  0
 10 13  1  0  0  0  0
 11  6  2  0  0  0  0
 11  4  1  0  0  0  0
 12 17  1  0  0  0  0
 13  7  1  0  0  0  0
 14 15  2  0  0  0  0
 14  9  1  0  0  0  0
 15 11  1  0  0  0  0
 16  8  1  0  0  0  0
 18  4  1  0  0  0  0
 18  5  1  0  0  0  0
 19 20  1  1  0  0  0
 20 21  1  0  0  0  0
 21 22  1  0  0  0  0
 22 23  1  0  0  0  0
 23 24  2  0  0  0  0
 24 25  1  0  0  0  0
 25 26  1  1  0  0  0
 28 29  2  0  0  0  0
 29 25  1  0  0  0  0
 29 27  1  0  0  0  0
M  END
>  <MODEL>
6

>  <REMARK>
 VINA RESULT:      -7.9      3.576      5.824
  Name = 
  6 active torsions:
  status: ('A' for Active; 'I' for Inactive)
    1  A    between atoms: C_1  and  C_18
    2  A    between atoms: C_9  and  CA_14
    3  A    between atoms: C_13  and  C_18
    4  A    between atoms: C_13  and  C_24
    5  A    between atoms: CA_14  and  C_15
    6  A    between atoms: C_24  and  C_29
                            x       y       z     vdW  Elec       q    Type
                         _______ _______ _______ _____ _____    ______ ____

>  <TORSDO>
F 6

$$$$
=
 OpenBabel11062416313D

 29 32  0  0  1  0  0  0  0  0999 V2000
  190.0560  177.4690  147.4040 S   0  0  0  0  0  0  0  0  0  0  0  0
  187.8670  177.5930  148.8160 O   0  0  0  0  0  0  0  0  0  0  0  0
  191.1540  177.4090  141.1540 C   0  0  0  0  0  2  0  0  0  0  0  0
  189.1030  177.2670  143.0910 C   0  0  0  0  0  0  0  0  0  0  0  0
  186.7240  177.5330  143.6790 N   0  0  0  0  0  2  0  0  0  0  0  0
  191.4190  177.2720  142.5880 N   0  0  0  0  0  0  0  0  0  0  0  0
  185.0040  178.8630  144.8200 C   0  0  0  0  0  2  0  0  0  0  0  0
  187.6680  177.5220  146.5200 N   0  0  0  0  0  0  0  0  0  0  0  0
  188.4850  177.4640  145.4240 C   0  0  0  0  0  0  0  0  0  0  0  0
  186.2090  177.4920  146.5090 C   0  0  0  0  0  2  0  0  0  0  0  0
  190.4720  177.2730  143.4820 C   0  0  0  0  0  0  0  0  0  0  0  0
  188.7790  177.0860  141.8020 C   0  0  0  0  0  3  0  0  0  0  0  0
  185.6530  178.8680  146.1940 C   0  0  0  0  0  2  0  0  0  0  0  0
  189.8330  177.4090  145.7410 C   0  0  0  0  0  0  0  0  0  0  0  0
  190.8050  177.3220  144.8010 N   0  0  0  0  0  0  0  0  0  0  0  0
  188.3890  177.5420  147.6700 C   0  0  0  0  0  0  0  0  0  0  0  0
  189.8280  176.7500  140.7820 C   0  0  0  0  0  2  0  0  0  0  0  0
  188.0950  177.4220  144.0700 C   0  0  0  0  0  0  0  0  0  0  0  0
  186.0510  178.8230  143.7140 C   0  0  2  0  0  3  0  0  0  0  0  0
  185.4290  179.1370  142.3570 C   0  0  0  0  0  2  0  0  0  0  0  0
  183.9760  178.6930  142.2730 C   0  0  0  0  0  2  0  0  0  0  0  0
  183.7490  177.9590  140.9690 C   0  0  0  0  0  2  0  0  0  0  0  0
  183.5890  178.9490  139.8610 C   0  0  0  0  0  3  0  0  0  0  0  0
  184.3720  178.9570  138.7760 C   0  0  0  0  0  3  0  0  0  0  0  0
  185.4840  177.9750  138.5490 C   0  0  2  0  0  3  0  0  0  0  0  0
  186.7420  178.5620  138.9730 N   0  0  0  0  0  1  0  0  0  0  0  0
  186.5520  177.9640  136.4190 O   0  0  0  0  0  0  0  0  0  0  0  0
  184.5690  176.8200  136.5260 O   0  0  0  0  0  1  0  0  0  0  0  0
  185.5690  177.5890  137.1090 C   0  0  0  0  0  0  0  0  0  0  0  0
  1 16  1  0  0  0  0
  3  6  1  0  0  0  0
  4 11  1  0  0  0  0
  4 18  1  0  0  0  0
  5 19  1  0  0  0  0
  5 18  1  0  0  0  0
  6 11  2  0  0  0  0
  7 13  1  0  0  0  0
  8 16  1  0  0  0  0
  9 14  1  0  0  0  0
  9  8  1  0  0  0  0
 10  8  1  0  0  0  0
 11 15  1  0  0  0  0
 12  4  2  0  0  0  0
 13 10  1  0  0  0  0
 14  1  1  0  0  0  0
 15 14  2  0  0  0  0
 16  2  2  0  0  0  0
 17  3  1  0  0  0  0
 17 12  1  0  0  0  0
 18  9  2  0  0  0  0
 19 20  1  6  0  0  0
 19  7  1  0  0  0  0
 21 20  1  0  0  0  0
 22 21  1  0  0  0  0
 23 22  1  0  0  0  0
 24 23  2  0  0  0  0
 25 24  1  0  0  0  0
 25 26  1  6  0  0  0
 27 29  2  0  0  0  0
 28 29  1  0  0  0  0
 29 25  1  0  0  0  0
M  END
>  <MODEL>
7

>  <REMARK>
 VINA RESULT:      -7.9      2.992      7.275
  Name = 
  6 active torsions:
  status: ('A' for Active; 'I' for Inactive)
    1  A    between atoms: C_1  and  C_18
    2  A    between atoms: C_9  and  CA_14
    3  A    between atoms: C_13  and  C_18
    4  A    between atoms: C_13  and  C_24
    5  A    between atoms: CA_14  and  C_15
    6  A    between atoms: C_24  and  C_29
                            x       y       z     vdW  Elec       q    Type
                         _______ _______ _______ _____ _____    ______ ____

>  <TORSDO>
F 6

$$$$
=
 OpenBabel11062416313D

 29 32  0  0  1  0  0  0  0  0999 V2000
  188.5230  177.1210  147.6420 S   0  0  0  0  0  0  0  0  0  0  0  0
  191.1200  176.8770  147.6000 O   0  0  0  0  0  0  0  0  0  0  0  0
  184.2330  178.3030  143.1170 C   0  0  0  0  0  2  0  0  0  0  0  0
  187.0090  178.2090  143.6330 C   0  0  0  0  0  0  0  0  0  0  0  0
  189.3130  177.9970  142.7850 N   0  0  0  0  0  2  0  0  0  0  0  0
  184.7890  178.1440  144.4630 N   0  0  0  0  0  0  0  0  0  0  0  0
  191.3120  176.5920  142.5340 C   0  0  0  0  0  2  0  0  0  0  0  0
  190.0520  177.4000  145.6240 N   0  0  0  0  0  0  0  0  0  0  0  0
  188.7770  177.6110  145.1750 C   0  0  0  0  0  0  0  0  0  0  0  0
  191.2740  177.5300  144.8370 C   0  0  0  0  0  2  0  0  0  0  0  0
  186.0680  178.0360  144.6880 C   0  0  0  0  0  0  0  0  0  0  0  0
  186.5950  178.6550  142.4370 C   0  0  0  0  0  3  0  0  0  0  0  0
  191.5070  176.2800  144.0080 C   0  0  0  0  0  2  0  0  0  0  0  0
  187.8160  177.5130  146.1700 C   0  0  0  0  0  0  0  0  0  0  0  0
  186.4970  177.7130  145.9390 N   0  0  0  0  0  0  0  0  0  0  0  0
  190.0650  177.1120  146.9500 C   0  0  0  0  0  0  0  0  0  0  0  0
  185.1790  179.1080  142.2310 C   0  0  0  0  0  2  0  0  0  0  0  0
  188.3760  177.9380  143.8640 C   0  0  0  0  0  0  0  0  0  0  0  0
  189.8370  176.7720  142.1970 C   0  0  2  0  0  3  0  0  0  0  0  0
  189.6130  176.7670  140.6880 C   0  0  0  0  0  2  0  0  0  0  0  0
  190.9170  176.8760  139.9120 C   0  0  0  0  0  2  0  0  0  0  0  0
  190.8770  175.9350  138.7280 C   0  0  0  0  0  2  0  0  0  0  0  0
  191.0640  176.7140  137.4660 C   0  0  0  0  0  3  0  0  0  0  0  0
  190.0420  177.2430  136.7810 C   0  0  0  0  0  3  0  0  0  0  0  0
  188.6090  177.1210  137.2060 C   0  0  2  0  0  3  0  0  0  0  0  0
  187.8070  176.6690  136.0830 N   0  0  0  0  0  1  0  0  0  0  0  0
  186.8620  178.6970  137.5900 O   0  0  0  0  0  0  0  0  0  0  0  0
  188.9450  179.3570  138.2810 O   0  0  0  0  0  1  0  0  0  0  0  0
  188.0870  178.4300  137.7010 C   0  0  0  0  0  0  0  0  0  0  0  0
  3  6  1  0  0  0  0
  4 18  1  0  0  0  0
  4 11  1  0  0  0  0
  5 18  1  0  0  0  0
  6 11  2  0  0  0  0
  7 13  1  0  0  0  0
  8 16  1  0  0  0  0
  9  8  1  0  0  0  0
  9 14  1  0  0  0  0
 10  8  1  0  0  0  0
 11 15  1  0  0  0  0
 12  4  2  0  0  0  0
 13 10  1  0  0  0  0
 14  1  1  0  0  0  0
 15 14  2  0  0  0  0
 16  2  2  0  0  0  0
 16  1  1  0  0  0  0
 17 12  1  0  0  0  0
 17  3  1  0  0  0  0
 18  9  2  0  0  0  0
 19 20  1  6  0  0  0
 19  7  1  0  0  0  0
 19  5  1  0  0  0  0
 21 20  1  0  0  0  0
 22 21  1  0  0  0  0
 23 22  1  0  0  0  0
 24 25  1  0  0  0  0
 24 23  2  0  0  0  0
 25 26  1  6  0  0  0
 25 29  1  0  0  0  0
 27 29  2  0  0  0  0
 29 28  1  0  0  0  0
M  END
>  <MODEL>
8

>  <REMARK>
 VINA RESULT:      -7.9      3.439      6.606
  Name = 
  6 active torsions:
  status: ('A' for Active; 'I' for Inactive)
    1  A    between atoms: C_1  and  C_18
    2  A    between atoms: C_9  and  CA_14
    3  A    between atoms: C_13  and  C_18
    4  A    between atoms: C_13  and  C_24
    5  A    between atoms: CA_14  and  C_15
    6  A    between atoms: C_24  and  C_29
                            x       y       z     vdW  Elec       q    Type
                         _______ _______ _______ _____ _____    ______ ____

>  <TORSDO>
F 6

$$$$
=
 OpenBabel11062416313D

 29 32  0  0  1  0  0  0  0  0999 V2000
  188.1020  177.2690  147.2330 S   0  0  0  0  0  0  0  0  0  0  0  0
  190.6820  177.0680  147.5600 O   0  0  0  0  0  0  0  0  0  0  0  0
  184.4680  178.2260  142.1190 C   0  0  0  0  0  2  0  0  0  0  0  0
  187.1460  178.1970  143.0170 C   0  0  0  0  0  0  0  0  0  0  0  0
  189.5480  177.9960  142.5050 N   0  0  0  0  0  2  0  0  0  0  0  0
  184.8340  178.1220  143.5340 N   0  0  0  0  0  0  0  0  0  0  0  0
  191.5800  176.6170  142.5830 C   0  0  0  0  0  2  0  0  0  0  0  0
  189.8930  177.5070  145.4380 N   0  0  0  0  0  0  0  0  0  0  0  0
  188.6900  177.6810  144.8100 C   0  0  0  0  0  0  0  0  0  0  0  0
  191.2110  177.6310  144.8240 C   0  0  0  0  0  2  0  0  0  0  0  0
  186.0700  178.0430  143.9370 C   0  0  0  0  0  0  0  0  0  0  0  0
  186.8960  178.5960  141.7600 C   0  0  0  0  0  3  0  0  0  0  0  0
  191.5710  176.3580  144.0800 C   0  0  0  0  0  2  0  0  0  0  0  0
  187.6020  177.6000  145.6650 C   0  0  0  0  0  0  0  0  0  0  0  0
  186.3250  177.7690  145.2460 N   0  0  0  0  0  0  0  0  0  0  0  0
  189.7250  177.2630  146.7630 C   0  0  0  0  0  0  0  0  0  0  0  0
  185.5180  179.0180  141.3440 C   0  0  0  0  0  2  0  0  0  0  0  0
  188.4710  177.9570  143.4450 C   0  0  0  0  0  0  0  0  0  0  0  0
  190.1640  176.7610  142.0380 C   0  0  2  0  0  3  0  0  0  0  0  0
  190.1510  176.7020  140.5140 C   0  0  0  0  0  2  0  0  0  0  0  0
  189.9290  178.0700  139.8870 C   0  0  0  0  0  2  0  0  0  0  0  0
  189.4910  177.8980  138.4490 C   0  0  0  0  0  2  0  0  0  0  0  0
  188.2080  177.1340  138.4070 C   0  0  0  0  0  3  0  0  0  0  0  0
  188.0100  176.0910  137.5910 C   0  0  0  0  0  3  0  0  0  0  0  0
  189.0520  175.5720  136.6440 C   0  0  2  0  0  3  0  0  0  0  0  0
  188.4320  175.2550  135.3700 N   0  0  0  0  0  1  0  0  0  0  0  0
  189.2160  173.2180  136.9800 O   0  0  0  0  0  0  0  0  0  0  0  0
  190.8770  174.4630  137.9510 O   0  0  0  0  0  1  0  0  0  0  0  0
  189.7150  174.3530  137.1970 C   0  0  0  0  0  0  0  0  0  0  0  0
  3  6  1  0  0  0  0
  4 18  1  0  0  0  0
  4 11  1  0  0  0  0
  5 18  1  0  0  0  0
  6 11  2  0  0  0  0
  7 13  1  0  0  0  0
  8 16  1  0  0  0  0
  9  8  1  0  0  0  0
  9 14  1  0  0  0  0
 10  8  1  0  0  0  0
 11 15  1  0  0  0  0
 12  4  2  0  0  0  0
 13 10  1  0  0  0  0
 14  1  1  0  0  0  0
 15 14  2  0  0  0  0
 16  1  1  0  0  0  0
 16  2  2  0  0  0  0
 17 12  1  0  0  0  0
 17  3  1  0  0  0  0
 18  9  2  0  0  0  0
 19 20  1  6  0  0  0
 19  5  1  0  0  0  0
 19  7  1  0  0  0  0
 21 20  1  0  0  0  0
 22 21  1  0  0  0  0
 23 22  1  0  0  0  0
 24 23  2  0  0  0  0
 25 26  1  6  0  0  0
 25 29  1  0  0  0  0
 25 24  1  0  0  0  0
 27 29  2  0  0  0  0
 29 28  1  0  0  0  0
M  END
>  <MODEL>
9

>  <REMARK>
 VINA RESULT:      -7.9      3.804      6.667
  Name = 
  6 active torsions:
  status: ('A' for Active; 'I' for Inactive)
    1  A    between atoms: C_1  and  C_18
    2  A    between atoms: C_9  and  CA_14
    3  A    between atoms: C_13  and  C_18
    4  A    between atoms: C_13  and  C_24
    5  A    between atoms: CA_14  and  C_15
    6  A    between atoms: C_24  and  C_29
                            x       y       z     vdW  Elec       q    Type
                         _______ _______ _______ _____ _____    ______ ____

>  <TORSDO>
F 6

$$$$
