=
 OpenBabel11062412013D

 64 70  0  0  1  0  0  0  0  0999 V2000
  186.3690  177.0900  137.4060 C   0  0  0  0  0  2  0  0  0  0  0  0
  184.0670  177.9280  137.5910 N   0  0  0  0  0  0  0  0  0  0  0  0
  183.6110  176.8640  137.0020 C   0  0  0  0  0  0  0  0  0  0  0  0
  186.5510  174.6040  136.8210 N   0  0  0  0  0  0  0  0  0  0  0  0
  184.4520  175.7080  136.8460 N   0  0  0  0  0  0  0  0  0  0  0  0
  185.7360  175.7660  137.0570 C   0  0  0  0  0  0  0  0  0  0  0  0
  185.3890  177.9400  138.2120 C   0  0  0  0  0  2  0  0  0  0  0  0
  185.9570  173.4150  136.5430 O   0  0  0  0  0  0  0  0  0  0  0  0
  186.8270  172.4310  137.0250 C   0  0  0  0  0  1  0  0  0  0  0  0
  182.2370  176.8890  136.4100 C   0  0  2  0  0  3  0  0  0  0  0  0
  181.8940  178.2020  136.0930 O   0  0  0  0  0  1  0  0  0  0  0  0
  180.1400  174.3690  137.9550 C   0  0  2  0  0  3  0  0  0  0  0  0
  181.1850  176.2840  137.3370 C   0  0  1  0  0  3  0  0  0  0  0  0
  181.2870  174.8790  137.3110 O   0  0  0  0  0  0  0  0  0  0  0  0
  181.3520  176.7400  138.6620 O   0  0  0  0  0  0  0  0  0  0  0  0
  180.0210  174.8780  139.3950 C   0  0  0  0  0  2  0  0  0  0  0  0
  180.1670  176.3920  139.3290 C   0  0  1  0  0  3  0  0  0  0  0  0
  180.1200  172.8440  137.8760 C   0  0  0  0  0  2  0  0  0  0  0  0
  179.6990  170.5530  134.8830 O   0  0  0  0  0  1  0  0  0  0  0  0
  180.0310  173.1530  135.3870 F   0  0  0  0  0  0  0  0  0  0  0  0
  180.2060  172.2840  136.4520 C   0  0  2  0  0  0  0  0  0  0  0  0
  180.0400  170.7860  136.2160 C   0  0  2  0  0  3  0  0  0  0  0  0
  181.4310  171.4110  136.2790 C   0  0  0  0  0  2  0  0  0  0  0  0
  180.0990  177.0310  140.7080 C   0  0  0  0  0  2  0  0  0  0  0  0
  178.9490  178.7020  142.0990 C   0  0  0  0  0  2  0  0  0  0  0  0
  180.0860  179.5110  141.5030 C   0  0  2  0  0  3  0  0  0  0  0  0
  179.4110  178.3940  140.6860 C   0  0  1  0  0  3  0  0  0  0  0  0
  181.5880  179.1400  143.4610 C   0  0  0  0  0  3  0  0  0  0  0  0
  182.8310  178.8240  144.0130 C   0  0  0  0  0  3  0  0  0  0  0  0
  181.4420  179.1630  142.0730 C   0  0  0  0  0  0  0  0  0  0  0  0
  182.5080  178.8610  141.2730 N   0  0  0  0  0  0  0  0  0  0  0  0
  183.9200  178.5380  143.1800 C   0  0  0  0  0  0  0  0  0  0  0  0
  183.7280  178.5610  141.7910 C   0  0  0  0  0  3  0  0  0  0  0  0
  185.2370  178.2300  143.7580 C   0  0  0  0  0  0  0  0  0  0  0  0
  186.0680  177.5420  143.1030 O   0  0  0  0  0  0  0  0  0  0  0  0
  186.5900  178.1200  145.8140 C   0  0  0  0  0  1  0  0  0  0  0  0
  185.5660  178.7130  145.0270 O   0  0  0  0  0  0  0  0  0  0  0  0
  187.9880  174.6840  137.1010 C   0  0  0  0  0  2  0  0  0  0  0  0
  188.7860  175.4800  136.0670 C   0  0  0  0  0  2  0  0  0  0  0  0
  190.2940  175.3150  136.2460 C   0  0  2  0  0  3  0  0  0  0  0  0
  189.9590  177.6260  136.7740 O   0  0  0  0  0  1  0  0  0  0  0  0
  190.9000  176.5920  136.8430 C   0  0  1  0  0  3  0  0  0  0  0  0
  191.4290  176.3800  138.2710 C   0  0  1  0  0  3  0  0  0  0  0  0
  193.5940  176.9650  138.9600 O   0  0  0  0  0  0  0  0  0  0  0  0
  192.9170  176.2210  138.2710 C   0  0  0  0  0  0  0  0  0  0  0  0
  193.5800  175.2080  137.3880 C   0  0  0  0  0  2  0  0  0  0  0  0
  194.8160  174.6330  138.0580 C   0  0  0  0  0  2  0  0  0  0  0  0
  194.9820  173.7560  135.8470 O   0  0  0  0  0  1  0  0  0  0  0  0
  195.6960  173.9400  137.0320 C   0  0  1  0  0  3  0  0  0  0  0  0
  197.9200  172.5150  135.8260 C   0  0  0  0  0  1  0  0  0  0  0  0
  196.9220  174.7940  136.7510 C   0  0  2  0  0  3  0  0  0  0  0  0
  199.0690  174.8110  135.3220 C   0  0  0  0  0  1  0  0  0  0  0  0
  198.0620  174.0040  136.1160 C   0  0  0  0  0  0  0  0  0  0  0  0
  198.0980  174.3130  137.5970 C   0  0  0  0  0  2  0  0  0  0  0  0
  191.0270  177.4780  139.2580 C   0  0  0  0  0  2  0  0  0  0  0  0
  188.6300  177.4670  139.9820 C   0  0  0  0  0  1  0  0  0  0  0  0
  190.0330  176.9490  140.2930 C   0  0  2  0  0  3  0  0  0  0  0  0
  189.6590  176.3720  143.7660 C   0  0  0  0  0  2  0  0  0  0  0  0
  189.6370  178.2520  142.3110 C   0  0  0  0  0  2  0  0  0  0  0  0
  190.3830  176.0270  142.4750 C   0  0  0  0  0  2  0  0  0  0  0  0
  189.5360  177.8760  143.7650 C   0  0  0  0  0  2  0  0  0  0  0  0
  190.4800  177.2430  141.6670 N   0  0  0  0  0  0  0  0  0  0  0  0
  190.9090  174.9690  135.0320 O   0  0  0  0  0  0  0  0  0  0  0  0
  191.1850  173.6030  135.1310 C   0  0  0  0  0  1  0  0  0  0  0  0
  1  7  1  0  0  0  0
  2  7  1  0  0  0  0
  3  2  2  0  0  0  0
  4  6  1  0  0  0  0
  4 38  1  0  0  0  0
  5  3  1  0  0  0  0
  5  6  2  0  0  0  0
  6  1  1  0  0  0  0
  8  4  1  0  0  0  0
  8  9  1  0  0  0  0
 10 11  1  1  0  0  0
 10  3  1  0  0  0  0
 12 18  1  1  0  0  0
 12 16  1  0  0  0  0
 13 10  1  6  0  0  0
 13 15  1  0  0  0  0
 14 13  1  0  0  0  0
 14 12  1  0  0  0  0
 15 17  1  0  0  0  0
 17 16  1  0  0  0  0
 17 24  1  1  0  0  0
 21 20  1  6  0  0  0
 21 18  1  0  0  0  0
 22 19  1  6  0  0  0
 22 23  1  0  0  0  0
 22 21  1  0  0  0  0
 23 21  1  0  0  0  0
 26 30  1  1  0  0  0
 26 25  1  0  0  0  0
 27 24  1  1  0  0  0
 27 26  1  0  0  0  0
 27 25  1  0  0  0  0
 28 29  1  0  0  0  0
 30 28  2  0  0  0  0
 31 33  2  0  0  0  0
 31 30  1  0  0  0  0
 32 34  1  0  0  0  0
 32 29  2  0  0  0  0
 33 32  1  0  0  0  0
 34 37  1  0  0  0  0
 35 34  2  0  0  0  0
 37 36  1  0  0  0  0
 39 38  1  0  0  0  0
 40 39  1  6  0  0  0
 40 42  1  0  0  0  0
 42 41  1  1  0  0  0
 42 43  1  0  0  0  0
 43 55  1  1  0  0  0
 45 43  1  0  0  0  0
 45 44  2  0  0  0  0
 46 47  1  0  0  0  0
 46 45  1  0  0  0  0
 49 48  1  6  0  0  0
 49 47  1  0  0  0  0
 50 53  1  0  0  0  0
 51 49  1  1  0  0  0
 51 54  1  0  0  0  0
 52 53  1  0  0  0  0
 53 51  1  0  0  0  0
 53 54  1  0  0  0  0
 55 57  1  0  0  0  0
 57 56  1  6  0  0  0
 57 62  1  0  0  0  0
 59 61  1  0  0  0  0
 60 58  1  0  0  0  0
 61 58  1  0  0  0  0
 62 59  1  0  0  0  0
 62 60  1  0  0  0  0
 63 64  1  0  0  0  0
 63 40  1  0  0  0  0
M  END
>  <MODEL>
1

>  <REMARK>
 VINA RESULT:      -6.4      0.000      0.000
  Name = 
  24 active torsions:
  status: ('A' for Active; 'I' for Inactive)
    1  A    between atoms: C_1  and  C_10
    2  A    between atoms: C_1  and  C_38
    3  A    between atoms: C_3  and  C_6
    4  A    between atoms: C_3  and  C_15
    5  A    between atoms: C_5  and  O_35
    6  A    between atoms: C_5  and  C_36
    7  A    between atoms: C_6  and  O_29
    8  A    between atoms: C_6  and  C_53
    9  A    between atoms: O_9  and  N_27
   10  A    between atoms: C_12  and  C_58
   11  A    between atoms: C_12  and  C_63
   12  A    between atoms: C_13  and  C_26
   13  A    between atoms: C_13  and  C_60
   14  A    between atoms: C_15  and  N_27
   15  A    between atoms: C_18  and  C_22
   16  A    between atoms: C_18  and  C_59
   17  A    between atoms: C_19  and  C_25
   18  A    between atoms: C_22  and  N_40
   19  A    between atoms: C_24  and  C_60
   20  A    between atoms: C_25  and  C_32
   21  A    between atoms: C_26  and  C_57
   22  A    between atoms: C_31  and  C_62
   23  A    between atoms: C_53  and  C_59
   24  A    between atoms: C_57  and  C_59
                            x       y       z     vdW  Elec       q    Type
                         _______ _______ _______ _____ _____    ______ ____

>  <TORSDO>
F 24

$$$$
=
 OpenBabel11062412013D

 64 70  0  0  1  0  0  0  0  0999 V2000
  183.4290  179.1570  144.0400 C   0  0  0  0  0  2  0  0  0  0  0  0
  185.6710  178.6670  144.9170 N   0  0  0  0  0  0  0  0  0  0  0  0
  185.9210  177.8950  143.9030 C   0  0  0  0  0  0  0  0  0  0  0  0
  183.0760  178.4930  141.5930 N   0  0  0  0  0  0  0  0  0  0  0  0
  185.0750  177.9330  142.7400 N   0  0  0  0  0  0  0  0  0  0  0  0
  183.9220  178.5390  142.7560 C   0  0  0  0  0  0  0  0  0  0  0  0
  184.6110  179.6700  144.8600 C   0  0  0  0  0  2  0  0  0  0  0  0
  183.5540  177.9630  140.4380 O   0  0  0  0  0  0  0  0  0  0  0  0
  184.5170  178.8660  139.9730 C   0  0  0  0  0  1  0  0  0  0  0  0
  187.0390  176.9050  143.9970 C   0  0  2  0  0  3  0  0  0  0  0  0
  187.1860  176.4970  145.3210 O   0  0  0  0  0  1  0  0  0  0  0  0
  190.5000  177.9800  144.0190 C   0  0  2  0  0  3  0  0  0  0  0  0
  188.3610  177.4600  143.4720 C   0  0  1  0  0  3  0  0  0  0  0  0
  189.3800  177.2200  144.4170 O   0  0  0  0  0  0  0  0  0  0  0  0
  188.7130  176.8640  142.2440 O   0  0  0  0  0  0  0  0  0  0  0  0
  190.9690  177.6100  142.6070 C   0  0  0  0  0  2  0  0  0  0  0  0
  189.7350  177.6680  141.7160 C   0  0  1  0  0  3  0  0  0  0  0  0
  191.6190  177.8580  145.0510 C   0  0  0  0  0  2  0  0  0  0  0  0
  192.0740  175.5030  147.9890 O   0  0  0  0  0  1  0  0  0  0  0  0
  190.2400  177.1940  147.0400 F   0  0  0  0  0  0  0  0  0  0  0  0
  191.3090  176.9020  146.2080 C   0  0  2  0  0  0  0  0  0  0  0  0
  192.3800  175.9320  146.6970 C   0  0  2  0  0  3  0  0  0  0  0  0
  191.2880  175.4620  145.7390 C   0  0  0  0  0  2  0  0  0  0  0  0
  190.0540  177.2880  140.2780 C   0  0  0  0  0  2  0  0  0  0  0  0
  188.9160  177.9530  138.2010 C   0  0  0  0  0  2  0  0  0  0  0  0
  189.0040  176.4460  138.0490 C   0  0  2  0  0  3  0  0  0  0  0  0
  188.7970  177.0780  139.4370 C   0  0  1  0  0  3  0  0  0  0  0  0
  191.3680  176.8710  137.3740 C   0  0  0  0  0  3  0  0  0  0  0  0
  192.6670  176.4330  137.1080 C   0  0  0  0  0  3  0  0  0  0  0  0
  190.4020  175.9450  137.7710 C   0  0  0  0  0  0  0  0  0  0  0  0
  190.7410  174.6280  137.9100 N   0  0  0  0  0  0  0  0  0  0  0  0
  192.9940  175.0770  137.2340 C   0  0  0  0  0  0  0  0  0  0  0  0
  191.9970  174.1810  137.6470 C   0  0  0  0  0  3  0  0  0  0  0  0
  194.3540  174.6100  136.9310 C   0  0  0  0  0  0  0  0  0  0  0  0
  194.7310  174.4990  135.7300 O   0  0  0  0  0  0  0  0  0  0  0  0
  195.4800  172.9610  138.3750 C   0  0  0  0  0  1  0  0  0  0  0  0
  195.2300  174.3010  137.9750 O   0  0  0  0  0  0  0  0  0  0  0  0
  181.7990  179.2140  141.6230 C   0  0  0  0  0  2  0  0  0  0  0  0
  180.5710  178.3230  141.4300 C   0  0  0  0  0  2  0  0  0  0  0  0
  180.3550  177.9410  139.9660 C   0  0  2  0  0  3  0  0  0  0  0  0
  179.1160  179.9770  140.1930 O   0  0  0  0  0  1  0  0  0  0  0  0
  179.4490  178.9710  139.2790 C   0  0  1  0  0  3  0  0  0  0  0  0
  180.0710  179.5360  137.9910 C   0  0  1  0  0  3  0  0  0  0  0  0
  178.9350  177.8250  136.8570 O   0  0  0  0  0  0  0  0  0  0  0  0
  179.8840  178.5900  136.8470 C   0  0  0  0  0  0  0  0  0  0  0  0
  180.8830  178.5300  135.7320 C   0  0  0  0  0  2  0  0  0  0  0  0
  180.9870  177.1200  135.1740 C   0  0  0  0  0  2  0  0  0  0  0  0
  181.5200  174.9110  135.8950 O   0  0  0  0  0  1  0  0  0  0  0  0
  181.8420  176.2560  136.0850 C   0  0  1  0  0  3  0  0  0  0  0  0
  183.6900  174.9040  137.8690 C   0  0  0  0  0  1  0  0  0  0  0  0
  183.3120  176.4710  135.7610 C   0  0  2  0  0  3  0  0  0  0  0  0
  185.6340  175.4380  136.2010 C   0  0  0  0  0  1  0  0  0  0  0  0
  184.2430  175.7410  136.7230 C   0  0  0  0  0  0  0  0  0  0  0  0
  183.9930  177.2220  136.9020 C   0  0  0  0  0  2  0  0  0  0  0  0
  179.5560  180.9240  137.6030 C   0  0  0  0  0  2  0  0  0  0  0  0
  181.9500  181.4240  138.1400 C   0  0  0  0  0  1  0  0  0  0  0  0
  180.7150  181.8960  137.3750 C   0  0  2  0  0  3  0  0  0  0  0  0
  179.2390  184.9210  136.2760 C   0  0  0  0  0  2  0  0  0  0  0  0
  181.3180  184.2490  137.2150 C   0  0  0  0  0  2  0  0  0  0  0  0
  179.0690  183.5930  136.9970 C   0  0  0  0  0  2  0  0  0  0  0  0
  180.5640  185.4660  136.7530 C   0  0  0  0  0  2  0  0  0  0  0  0
  180.3230  183.2820  137.6840 N   0  0  0  0  0  0  0  0  0  0  0  0
  179.8380  176.6410  139.8570 O   0  0  0  0  0  0  0  0  0  0  0  0
  180.8660  175.7950  140.2800 C   0  0  0  0  0  1  0  0  0  0  0  0
  1  7  1  0  0  0  0
  3 10  1  0  0  0  0
  3  2  2  0  0  0  0
  4 38  1  0  0  0  0
  4  6  1  0  0  0  0
  5  6  2  0  0  0  0
  5  3  1  0  0  0  0
  6  1  1  0  0  0  0
  7  2  1  0  0  0  0
  8  4  1  0  0  0  0
  9  8  1  0  0  0  0
 10 11  1  1  0  0  0
 12 14  1  0  0  0  0
 12 18  1  1  0  0  0
 13 10  1  1  0  0  0
 13 14  1  0  0  0  0
 15 13  1  0  0  0  0
 16 12  1  0  0  0  0
 17 24  1  6  0  0  0
 17 15  1  0  0  0  0
 17 16  1  0  0  0  0
 18 21  1  0  0  0  0
 21 22  1  0  0  0  0
 21 20  1  1  0  0  0
 22 19  1  1  0  0  0
 23 21  1  0  0  0  0
 23 22  1  0  0  0  0
 25 27  1  0  0  0  0
 26 30  1  1  0  0  0
 26 25  1  0  0  0  0
 26 27  1  0  0  0  0
 27 24  1  1  0  0  0
 28 30  1  0  0  0  0
 29 32  1  0  0  0  0
 29 28  2  0  0  0  0
 30 31  2  0  0  0  0
 32 33  2  0  0  0  0
 33 31  1  0  0  0  0
 34 32  1  0  0  0  0
 34 37  1  0  0  0  0
 35 34  2  0  0  0  0
 37 36  1  0  0  0  0
 39 38  1  0  0  0  0
 40 39  1  1  0  0  0
 42 40  1  0  0  0  0
 42 41  1  1  0  0  0
 43 55  1  6  0  0  0
 43 42  1  0  0  0  0
 45 44  2  0  0  0  0
 45 43  1  0  0  0  0
 46 45  1  0  0  0  0
 47 46  1  0  0  0  0
 47 49  1  0  0  0  0
 49 48  1  6  0  0  0
 51 49  1  1  0  0  0
 51 53  1  0  0  0  0
 51 54  1  0  0  0  0
 52 53  1  0  0  0  0
 53 54  1  0  0  0  0
 53 50  1  0  0  0  0
 57 55  1  0  0  0  0
 57 62  1  0  0  0  0
 57 56  1  1  0  0  0
 58 61  1  0  0  0  0
 58 60  1  0  0  0  0
 59 62  1  0  0  0  0
 60 62  1  0  0  0  0
 61 59  1  0  0  0  0
 63 40  1  0  0  0  0
 63 64  1  0  0  0  0
M  END
>  <MODEL>
2

>  <REMARK>
 VINA RESULT:      -5.9      3.660     11.864
  Name = 
  24 active torsions:
  status: ('A' for Active; 'I' for Inactive)
    1  A    between atoms: C_1  and  C_10
    2  A    between atoms: C_1  and  C_38
    3  A    between atoms: C_3  and  C_6
    4  A    between atoms: C_3  and  C_15
    5  A    between atoms: C_5  and  O_35
    6  A    between atoms: C_5  and  C_36
    7  A    between atoms: C_6  and  O_29
    8  A    between atoms: C_6  and  C_53
    9  A    between atoms: O_9  and  N_27
   10  A    between atoms: C_12  and  C_58
   11  A    between atoms: C_12  and  C_63
   12  A    between atoms: C_13  and  C_26
   13  A    between atoms: C_13  and  C_60
   14  A    between atoms: C_15  and  N_27
   15  A    between atoms: C_18  and  C_22
   16  A    between atoms: C_18  and  C_59
   17  A    between atoms: C_19  and  C_25
   18  A    between atoms: C_22  and  N_40
   19  A    between atoms: C_24  and  C_60
   20  A    between atoms: C_25  and  C_32
   21  A    between atoms: C_26  and  C_57
   22  A    between atoms: C_31  and  C_62
   23  A    between atoms: C_53  and  C_59
   24  A    between atoms: C_57  and  C_59
                            x       y       z     vdW  Elec       q    Type
                         _______ _______ _______ _____ _____    ______ ____

>  <TORSDO>
F 24

$$$$
=
 OpenBabel11062412013D

 64 70  0  0  1  0  0  0  0  0999 V2000
  189.2570  178.2600  140.1730 C   0  0  0  0  0  2  0  0  0  0  0  0
  187.3000  178.4620  138.7010 N   0  0  0  0  0  0  0  0  0  0  0  0
  188.0160  178.1300  137.6690 C   0  0  0  0  0  0  0  0  0  0  0  0
  191.2460  177.0300  139.1330 N   0  0  0  0  0  0  0  0  0  0  0  0
  189.3190  177.5480  137.8510 N   0  0  0  0  0  0  0  0  0  0  0  0
  189.9150  177.5600  139.0100 C   0  0  0  0  0  0  0  0  0  0  0  0
  187.7380  178.1470  140.0580 C   0  0  0  0  0  2  0  0  0  0  0  0
  191.8050  176.3720  138.0840 O   0  0  0  0  0  0  0  0  0  0  0  0
  193.1690  176.2760  138.3760 C   0  0  0  0  0  1  0  0  0  0  0  0
  187.5100  178.4440  136.2970 C   0  0  2  0  0  3  0  0  0  0  0  0
  187.0640  179.7630  136.2590 O   0  0  0  0  0  1  0  0  0  0  0  0
  185.8890  175.3740  135.2550 C   0  0  2  0  0  3  0  0  0  0  0  0
  186.3920  177.5030  135.8530 C   0  0  1  0  0  3  0  0  0  0  0  0
  186.8430  176.1690  135.9250 O   0  0  0  0  0  0  0  0  0  0  0  0
  185.2480  177.6530  136.6640 O   0  0  0  0  0  0  0  0  0  0  0  0
  184.4960  175.5090  135.8780 C   0  0  0  0  0  2  0  0  0  0  0  0
  184.2130  177.0030  135.9750 C   0  0  1  0  0  3  0  0  0  0  0  0
  186.3580  173.9210  135.1960 C   0  0  0  0  0  2  0  0  0  0  0  0
  189.4030  173.3570  137.3850 O   0  0  0  0  0  1  0  0  0  0  0  0
  186.7690  173.6890  137.6610 F   0  0  0  0  0  0  0  0  0  0  0  0
  187.2410  173.4940  136.3730 C   0  0  2  0  0  0  0  0  0  0  0  0
  188.7380  173.2870  136.1600 C   0  0  2  0  0  3  0  0  0  0  0  0
  187.7850  172.0950  136.1710 C   0  0  0  0  0  2  0  0  0  0  0  0
  182.8590  177.2850  136.6100 C   0  0  0  0  0  2  0  0  0  0  0  0
  180.6530  176.2750  137.0170 C   0  0  0  0  0  2  0  0  0  0  0  0
  180.3750  177.1870  135.8370 C   0  0  2  0  0  3  0  0  0  0  0  0
  181.7340  176.4760  135.9690 C   0  0  1  0  0  3  0  0  0  0  0  0
  179.8740  179.0360  137.4350 C   0  0  0  0  0  3  0  0  0  0  0  0
  179.8630  180.3880  137.7850 C   0  0  0  0  0  3  0  0  0  0  0  0
  180.3790  178.6560  136.1900 C   0  0  0  0  0  0  0  0  0  0  0  0
  180.8700  179.6050  135.3390 N   0  0  0  0  0  0  0  0  0  0  0  0
  180.3500  181.3510  136.8930 C   0  0  0  0  0  0  0  0  0  0  0  0
  180.8600  180.9260  135.6570 C   0  0  0  0  0  3  0  0  0  0  0  0
  180.3170  182.7770  137.2480 C   0  0  0  0  0  0  0  0  0  0  0  0
  179.6320  183.1660  138.2350 O   0  0  0  0  0  0  0  0  0  0  0  0
  180.4300  184.7080  135.7220 C   0  0  0  0  0  1  0  0  0  0  0  0
  181.0560  183.6960  136.4980 O   0  0  0  0  0  0  0  0  0  0  0  0
  191.8820  177.0210  140.4540 C   0  0  0  0  0  2  0  0  0  0  0  0
  191.1660  177.8770  141.5010 C   0  0  0  0  0  2  0  0  0  0  0  0
  191.0220  177.1560  142.8400 C   0  0  2  0  0  3  0  0  0  0  0  0
  190.5140  179.4320  143.3840 O   0  0  0  0  0  1  0  0  0  0  0  0
  190.6630  178.1580  143.9450 C   0  0  1  0  0  3  0  0  0  0  0  0
  189.4260  177.7280  144.7510 C   0  0  1  0  0  3  0  0  0  0  0  0
  188.3920  176.3710  143.1410 O   0  0  0  0  0  0  0  0  0  0  0  0
  188.2950  177.3640  143.8410 C   0  0  0  0  0  0  0  0  0  0  0  0
  187.0840  178.2390  143.7370 C   0  0  0  0  0  2  0  0  0  0  0  0
  185.9070  177.4680  143.1640 C   0  0  0  0  0  2  0  0  0  0  0  0
  184.9920  179.6470  143.4770 O   0  0  0  0  0  1  0  0  0  0  0  0
  184.7490  178.4090  142.8800 C   0  0  1  0  0  3  0  0  0  0  0  0
  182.0230  178.8290  141.9740 C   0  0  0  0  0  1  0  0  0  0  0  0
  184.5990  178.5970  141.3790 C   0  0  2  0  0  3  0  0  0  0  0  0
  182.9500  179.5310  139.6300 C   0  0  0  0  0  1  0  0  0  0  0  0
  183.1520  178.8160  140.9510 C   0  0  0  0  0  0  0  0  0  0  0  0
  183.7820  177.4500  140.7890 C   0  0  0  0  0  2  0  0  0  0  0  0
  189.6860  176.5850  145.7360 C   0  0  0  0  0  2  0  0  0  0  0  0
  191.4840  176.1270  147.4180 C   0  0  0  0  0  1  0  0  0  0  0  0
  190.3780  177.0960  147.0000 C   0  0  2  0  0  3  0  0  0  0  0  0
  187.0110  177.6750  147.9270 C   0  0  0  0  0  2  0  0  0  0  0  0
  189.0900  178.8050  148.1600 C   0  0  0  0  0  2  0  0  0  0  0  0
  188.1520  176.6820  147.7760 C   0  0  0  0  0  2  0  0  0  0  0  0
  187.6350  178.9110  148.5290 C   0  0  0  0  0  2  0  0  0  0  0  0
  189.4050  177.3780  148.0700 N   0  0  0  0  0  0  0  0  0  0  0  0
  192.1870  176.4370  143.1510 O   0  0  0  0  0  0  0  0  0  0  0  0
  191.7520  175.3160  143.8620 C   0  0  0  0  0  1  0  0  0  0  0  0
  2  7  1  0  0  0  0
  3  5  1  0  0  0  0
  3  2  2  0  0  0  0
  4 38  1  0  0  0  0
  5  6  2  0  0  0  0
  6  4  1  0  0  0  0
  6  1  1  0  0  0  0
  7  1  1  0  0  0  0
  8  9  1  0  0  0  0
  8  4  1  0  0  0  0
 10 11  1  1  0  0  0
 10  3  1  0  0  0  0
 12 18  1  1  0  0  0
 12 16  1  0  0  0  0
 12 14  1  0  0  0  0
 13 14  1  0  0  0  0
 13 10  1  1  0  0  0
 13 15  1  0  0  0  0
 16 17  1  0  0  0  0
 17 24  1  1  0  0  0
 17 15  1  0  0  0  0
 18 21  1  0  0  0  0
 21 20  1  1  0  0  0
 22 23  1  0  0  0  0
 22 21  1  0  0  0  0
 22 19  1  1  0  0  0
 23 21  1  0  0  0  0
 26 27  1  0  0  0  0
 26 30  1  1  0  0  0
 26 25  1  0  0  0  0
 27 24  1  1  0  0  0
 27 25  1  0  0  0  0
 28 29  1  0  0  0  0
 30 28  2  0  0  0  0
 31 33  2  0  0  0  0
 31 30  1  0  0  0  0
 32 34  1  0  0  0  0
 32 29  2  0  0  0  0
 33 32  1  0  0  0  0
 34 35  2  0  0  0  0
 36 37  1  0  0  0  0
 37 34  1  0  0  0  0
 38 39  1  0  0  0  0
 40 39  1  6  0  0  0
 40 63  1  0  0  0  0
 40 42  1  0  0  0  0
 42 41  1  6  0  0  0
 42 43  1  0  0  0  0
 43 55  1  6  0  0  0
 44 45  2  0  0  0  0
 45 43  1  0  0  0  0
 46 45  1  0  0  0  0
 47 46  1  0  0  0  0
 49 47  1  0  0  0  0
 49 48  1  1  0  0  0
 51 49  1  1  0  0  0
 52 53  1  0  0  0  0
 53 51  1  0  0  0  0
 53 50  1  0  0  0  0
 54 53  1  0  0  0  0
 54 51  1  0  0  0  0
 55 57  1  0  0  0  0
 57 56  1  1  0  0  0
 57 62  1  0  0  0  0
 58 61  1  0  0  0  0
 59 61  1  0  0  0  0
 60 58  1  0  0  0  0
 60 62  1  0  0  0  0
 62 59  1  0  0  0  0
 63 64  1  0  0  0  0
M  END
>  <MODEL>
3

>  <REMARK>
 VINA RESULT:      -5.6      3.399      8.369
  Name = 
  24 active torsions:
  status: ('A' for Active; 'I' for Inactive)
    1  A    between atoms: C_1  and  C_10
    2  A    between atoms: C_1  and  C_38
    3  A    between atoms: C_3  and  C_6
    4  A    between atoms: C_3  and  C_15
    5  A    between atoms: C_5  and  O_35
    6  A    between atoms: C_5  and  C_36
    7  A    between atoms: C_6  and  O_29
    8  A    between atoms: C_6  and  C_53
    9  A    between atoms: O_9  and  N_27
   10  A    between atoms: C_12  and  C_58
   11  A    between atoms: C_12  and  C_63
   12  A    between atoms: C_13  and  C_26
   13  A    between atoms: C_13  and  C_60
   14  A    between atoms: C_15  and  N_27
   15  A    between atoms: C_18  and  C_22
   16  A    between atoms: C_18  and  C_59
   17  A    between atoms: C_19  and  C_25
   18  A    between atoms: C_22  and  N_40
   19  A    between atoms: C_24  and  C_60
   20  A    between atoms: C_25  and  C_32
   21  A    between atoms: C_26  and  C_57
   22  A    between atoms: C_31  and  C_62
   23  A    between atoms: C_53  and  C_59
   24  A    between atoms: C_57  and  C_59
                            x       y       z     vdW  Elec       q    Type
                         _______ _______ _______ _____ _____    ______ ____

>  <TORSDO>
F 24

$$$$
=
 OpenBabel11062412013D

 64 70  0  0  1  0  0  0  0  0999 V2000
  184.9850  178.9070  141.6710 C   0  0  0  0  0  2  0  0  0  0  0  0
  182.8640  178.7830  142.9070 N   0  0  0  0  0  0  0  0  0  0  0  0
  182.1940  178.7680  141.7940 C   0  0  0  0  0  0  0  0  0  0  0  0
  184.7970  178.3510  139.1790 N   0  0  0  0  0  0  0  0  0  0  0  0
  182.8670  178.5160  140.5480 N   0  0  0  0  0  0  0  0  0  0  0  0
  184.1660  178.5390  140.4580 C   0  0  0  0  0  0  0  0  0  0  0  0
  184.2810  178.4290  142.9400 C   0  0  0  0  0  2  0  0  0  0  0  0
  184.0440  177.9860  138.1090 O   0  0  0  0  0  0  0  0  0  0  0  0
  183.8800  176.6000  138.2130 C   0  0  0  0  0  1  0  0  0  0  0  0
  180.7360  179.1060  141.8150 C   0  0  2  0  0  3  0  0  0  0  0  0
  180.0250  178.0510  142.3830 O   0  0  0  0  0  1  0  0  0  0  0  0
  179.5300  181.0720  139.0190 C   0  0  2  0  0  3  0  0  0  0  0  0
  180.1850  179.4180  140.4250 C   0  0  1  0  0  3  0  0  0  0  0  0
  180.2900  180.8010  140.1770 O   0  0  0  0  0  0  0  0  0  0  0  0
  180.8870  178.7090  139.4280 O   0  0  0  0  0  0  0  0  0  0  0  0
  180.0210  180.2650  137.8130 C   0  0  0  0  0  2  0  0  0  0  0  0
  180.1010  178.8150  138.2700 C   0  0  1  0  0  3  0  0  0  0  0  0
  179.5050  182.5740  138.7400 C   0  0  0  0  0  2  0  0  0  0  0  0
  181.9720  184.9340  137.0880 O   0  0  0  0  0  1  0  0  0  0  0  0
  181.9820  182.5720  138.3330 F   0  0  0  0  0  0  0  0  0  0  0  0
  180.7420  183.1000  138.0050 C   0  0  2  0  0  0  0  0  0  0  0  0
  180.6800  184.4420  137.2820 C   0  0  2  0  0  3  0  0  0  0  0  0
  180.5170  183.1360  136.5080 C   0  0  0  0  0  2  0  0  0  0  0  0
  180.6100  177.8980  137.1680 C   0  0  0  0  0  2  0  0  0  0  0  0
  182.1100  178.4060  135.2860 C   0  0  0  0  0  2  0  0  0  0  0  0
  180.9560  177.7060  134.5940 C   0  0  2  0  0  3  0  0  0  0  0  0
  180.7020  178.6050  135.8180 C   0  0  1  0  0  3  0  0  0  0  0  0
  182.0960  175.5460  135.1050 C   0  0  0  0  0  3  0  0  0  0  0  0
  182.0700  174.1720  135.3540 C   0  0  0  0  0  3  0  0  0  0  0  0
  180.8970  176.2200  134.8630 C   0  0  0  0  0  0  0  0  0  0  0  0
  179.7160  175.5340  134.8880 N   0  0  0  0  0  0  0  0  0  0  0  0
  180.8530  173.4790  135.3550 C   0  0  0  0  0  0  0  0  0  0  0  0
  179.6710  174.1960  135.1190 C   0  0  0  0  0  3  0  0  0  0  0  0
  180.8250  172.0280  135.5910 C   0  0  0  0  0  0  0  0  0  0  0  0
  181.5070  171.2560  134.8610 O   0  0  0  0  0  0  0  0  0  0  0  0
  180.4050  171.6970  137.9960 C   0  0  0  0  0  1  0  0  0  0  0  0
  180.0510  171.5110  136.6330 O   0  0  0  0  0  0  0  0  0  0  0  0
  186.2620  178.3460  139.1110 C   0  0  0  0  0  2  0  0  0  0  0  0
  186.8230  178.2380  137.6920 C   0  0  0  0  0  2  0  0  0  0  0  0
  188.0030  177.2710  137.6070 C   0  0  2  0  0  3  0  0  0  0  0  0
  189.1850  179.3150  138.0040 O   0  0  0  0  0  1  0  0  0  0  0  0
  189.3120  178.0490  137.4210 C   0  0  1  0  0  3  0  0  0  0  0  0
  190.5340  177.2820  137.9540 C   0  0  1  0  0  3  0  0  0  0  0  0
  189.5530  176.3350  139.8630 O   0  0  0  0  0  0  0  0  0  0  0  0
  190.4270  177.0660  139.4310 C   0  0  0  0  0  0  0  0  0  0  0  0
  191.3360  177.7880  140.3780 C   0  0  0  0  0  2  0  0  0  0  0  0
  191.9070  176.8330  141.4120 C   0  0  0  0  0  2  0  0  0  0  0  0
  191.3320  178.6850  142.7990 O   0  0  0  0  0  1  0  0  0  0  0  0
  191.5650  177.3090  142.8140 C   0  0  1  0  0  3  0  0  0  0  0  0
  190.2010  178.6210  145.0150 C   0  0  0  0  0  1  0  0  0  0  0  0
  190.3160  176.5940  143.3050 C   0  0  2  0  0  3  0  0  0  0  0  0
  188.1600  177.0240  144.6540 C   0  0  0  0  0  1  0  0  0  0  0  0
  189.6340  177.3210  144.4590 C   0  0  0  0  0  0  0  0  0  0  0  0
  190.5160  176.1250  144.7440 C   0  0  0  0  0  2  0  0  0  0  0  0
  190.7890  175.9450  137.2530 C   0  0  0  0  0  2  0  0  0  0  0  0
  193.2770  176.2320  137.2660 C   0  0  0  0  0  1  0  0  0  0  0  0
  192.1180  175.3350  137.7010 C   0  0  2  0  0  3  0  0  0  0  0  0
  192.9680  173.0830  135.1040 C   0  0  0  0  0  2  0  0  0  0  0  0
  191.0780  173.4990  136.4870 C   0  0  0  0  0  2  0  0  0  0  0  0
  193.4040  173.8300  136.3550 C   0  0  0  0  0  2  0  0  0  0  0  0
  191.5770  172.5790  135.4060 C   0  0  0  0  0  2  0  0  0  0  0  0
  192.2490  173.9390  137.2470 N   0  0  0  0  0  0  0  0  0  0  0  0
  187.8090  176.3310  136.5830 O   0  0  0  0  0  0  0  0  0  0  0  0
  186.7800  176.8490  135.7940 C   0  0  0  0  0  1  0  0  0  0  0  0
  1  7  1  0  0  0  0
  2  7  1  0  0  0  0
  3 10  1  0  0  0  0
  3  2  2  0  0  0  0
  4  6  1  0  0  0  0
  5  3  1  0  0  0  0
  6  5  2  0  0  0  0
  6  1  1  0  0  0  0
  8  9  1  0  0  0  0
  8  4  1  0  0  0  0
 10 11  1  6  0  0  0
 12 18  1  6  0  0  0
 12 14  1  0  0  0  0
 13 10  1  1  0  0  0
 14 13  1  0  0  0  0
 15 13  1  0  0  0  0
 16 17  1  0  0  0  0
 16 12  1  0  0  0  0
 17 24  1  6  0  0  0
 17 15  1  0  0  0  0
 21 20  1  1  0  0  0
 21 18  1  0  0  0  0
 22 19  1  6  0  0  0
 22 21  1  0  0  0  0
 23 22  1  0  0  0  0
 23 21  1  0  0  0  0
 25 27  1  0  0  0  0
 26 30  1  1  0  0  0
 26 25  1  0  0  0  0
 26 27  1  0  0  0  0
 27 24  1  1  0  0  0
 28 29  1  0  0  0  0
 29 32  2  0  0  0  0
 30 31  1  0  0  0  0
 30 28  2  0  0  0  0
 31 33  2  0  0  0  0
 32 34  1  0  0  0  0
 33 32  1  0  0  0  0
 34 37  1  0  0  0  0
 35 34  2  0  0  0  0
 37 36  1  0  0  0  0
 38  4  1  0  0  0  0
 39 38  1  0  0  0  0
 40 39  1  6  0  0  0
 42 40  1  0  0  0  0
 42 43  1  0  0  0  0
 42 41  1  1  0  0  0
 43 55  1  6  0  0  0
 43 45  1  0  0  0  0
 45 44  2  0  0  0  0
 45 46  1  0  0  0  0
 46 47  1  0  0  0  0
 47 49  1  0  0  0  0
 49 48  1  6  0  0  0
 51 49  1  1  0  0  0
 51 53  1  0  0  0  0
 51 54  1  0  0  0  0
 53 52  1  0  0  0  0
 53 54  1  0  0  0  0
 53 50  1  0  0  0  0
 55 57  1  0  0  0  0
 57 56  1  6  0  0  0
 58 61  1  0  0  0  0
 58 60  1  0  0  0  0
 59 62  1  0  0  0  0
 60 62  1  0  0  0  0
 61 59  1  0  0  0  0
 62 57  1  0  0  0  0
 63 40  1  0  0  0  0
 64 63  1  0  0  0  0
M  END
>  <MODEL>
4

>  <REMARK>
 VINA RESULT:      -4.8      3.115      7.858
  Name = 
  24 active torsions:
  status: ('A' for Active; 'I' for Inactive)
    1  A    between atoms: C_1  and  C_10
    2  A    between atoms: C_1  and  C_38
    3  A    between atoms: C_3  and  C_6
    4  A    between atoms: C_3  and  C_15
    5  A    between atoms: C_5  and  O_35
    6  A    between atoms: C_5  and  C_36
    7  A    between atoms: C_6  and  O_29
    8  A    between atoms: C_6  and  C_53
    9  A    between atoms: O_9  and  N_27
   10  A    between atoms: C_12  and  C_58
   11  A    between atoms: C_12  and  C_63
   12  A    between atoms: C_13  and  C_26
   13  A    between atoms: C_13  and  C_60
   14  A    between atoms: C_15  and  N_27
   15  A    between atoms: C_18  and  C_22
   16  A    between atoms: C_18  and  C_59
   17  A    between atoms: C_19  and  C_25
   18  A    between atoms: C_22  and  N_40
   19  A    between atoms: C_24  and  C_60
   20  A    between atoms: C_25  and  C_32
   21  A    between atoms: C_26  and  C_57
   22  A    between atoms: C_31  and  C_62
   23  A    between atoms: C_53  and  C_59
   24  A    between atoms: C_57  and  C_59
                            x       y       z     vdW  Elec       q    Type
                         _______ _______ _______ _____ _____    ______ ____

>  <TORSDO>
F 24

$$$$
=
 OpenBabel11062412013D

 64 70  0  0  1  0  0  0  0  0999 V2000
  186.7260  177.9350  138.4580 C   0  0  0  0  0  2  0  0  0  0  0  0
  187.2180  177.4210  136.1060 N   0  0  0  0  0  0  0  0  0  0  0  0
  185.9640  177.1660  135.8790 C   0  0  0  0  0  0  0  0  0  0  0  0
  184.2430  178.2840  138.9720 N   0  0  0  0  0  0  0  0  0  0  0  0
  184.9620  177.5650  136.8290 N   0  0  0  0  0  0  0  0  0  0  0  0
  185.2800  177.9610  138.0290 C   0  0  0  0  0  0  0  0  0  0  0  0
  187.6300  178.2170  137.2590 C   0  0  0  0  0  2  0  0  0  0  0  0
  182.9510  178.3350  138.5550 O   0  0  0  0  0  0  0  0  0  0  0  0
  182.6090  179.6920  138.5380 C   0  0  0  0  0  1  0  0  0  0  0  0
  185.5890  176.3740  134.6660 C   0  0  2  0  0  3  0  0  0  0  0  0
  184.2020  176.2680  134.5940 O   0  0  0  0  0  1  0  0  0  0  0  0
  188.1730  173.8330  134.7270 C   0  0  2  0  0  3  0  0  0  0  0  0
  186.2200  174.9840  134.6530 C   0  0  1  0  0  3  0  0  0  0  0  0
  187.5780  175.0800  135.0160 O   0  0  0  0  0  0  0  0  0  0  0  0
  185.5570  174.1160  135.5460 O   0  0  0  0  0  0  0  0  0  0  0  0
  187.4900  172.6860  135.4790 C   0  0  0  0  0  2  0  0  0  0  0  0
  185.9970  172.8260  135.2090 C   0  0  1  0  0  3  0  0  0  0  0  0
  189.6760  173.8870  134.9950 C   0  0  0  0  0  2  0  0  0  0  0  0
  190.7380  175.4480  138.2840 O   0  0  0  0  0  1  0  0  0  0  0  0
  189.3000  173.3700  137.4220 F   0  0  0  0  0  0  0  0  0  0  0  0
  190.0480  174.0490  136.4720 C   0  0  2  0  0  0  0  0  0  0  0  0
  190.8970  175.2370  136.9140 C   0  0  2  0  0  3  0  0  0  0  0  0
  191.5360  173.8690  136.6850 C   0  0  0  0  0  2  0  0  0  0  0  0
  185.1870  171.7580  135.9290 C   0  0  0  0  0  2  0  0  0  0  0  0
  183.9560  169.6310  135.8200 C   0  0  0  0  0  2  0  0  0  0  0  0
  183.2070  170.4860  134.8140 C   0  0  2  0  0  3  0  0  0  0  0  0
  184.7280  170.6430  134.9920 C   0  0  1  0  0  3  0  0  0  0  0  0
  181.4990  171.2180  136.4800 C   0  0  0  0  0  3  0  0  0  0  0  0
  180.7100  172.2030  137.0790 C   0  0  0  0  0  3  0  0  0  0  0  0
  182.3690  171.5720  135.4470 C   0  0  0  0  0  0  0  0  0  0  0  0
  182.4510  172.8770  135.0470 N   0  0  0  0  0  0  0  0  0  0  0  0
  180.7910  173.5310  136.6430 C   0  0  0  0  0  0  0  0  0  0  0  0
  181.6860  173.8480  135.6100 C   0  0  0  0  0  3  0  0  0  0  0  0
  179.9440  174.5660  137.2550 C   0  0  0  0  0  0  0  0  0  0  0  0
  179.9310  174.7120  138.5090 O   0  0  0  0  0  0  0  0  0  0  0  0
  179.6480  176.6360  135.9510 C   0  0  0  0  0  1  0  0  0  0  0  0
  179.1640  175.3930  136.4420 O   0  0  0  0  0  0  0  0  0  0  0  0
  184.6260  178.7620  140.3040 C   0  0  0  0  0  2  0  0  0  0  0  0
  183.9800  177.9920  141.4570 C   0  0  0  0  0  2  0  0  0  0  0  0
  183.6100  178.9030  142.6270 C   0  0  2  0  0  3  0  0  0  0  0  0
  184.5730  180.6410  143.9610 O   0  0  0  0  0  1  0  0  0  0  0  0
  184.8780  179.4500  143.2940 C   0  0  1  0  0  3  0  0  0  0  0  0
  185.5480  178.4190  144.2180 C   0  0  1  0  0  3  0  0  0  0  0  0
  187.4850  178.6500  142.9150 O   0  0  0  0  0  0  0  0  0  0  0  0
  186.8190  177.9080  143.6160 C   0  0  0  0  0  0  0  0  0  0  0  0
  187.2410  176.4840  143.8120 C   0  0  0  0  0  2  0  0  0  0  0  0
  188.2130  176.0530  142.7270 C   0  0  0  0  0  2  0  0  0  0  0  0
  190.2320  175.6480  143.9290 O   0  0  0  0  0  1  0  0  0  0  0  0
  189.6140  176.5410  143.0520 C   0  0  1  0  0  3  0  0  0  0  0  0
  191.7390  178.5190  143.1120 C   0  0  0  0  0  1  0  0  0  0  0  0
  190.4320  176.6360  141.7740 C   0  0  2  0  0  3  0  0  0  0  0  0
  192.7030  177.4960  140.9050 C   0  0  0  0  0  1  0  0  0  0  0  0
  191.5350  177.6860  141.8530 C   0  0  0  0  0  0  0  0  0  0  0  0
  190.2430  178.0100  141.1360 C   0  0  0  0  0  2  0  0  0  0  0  0
  185.8170  178.9290  145.6360 C   0  0  0  0  0  2  0  0  0  0  0  0
  185.6870  177.7200  147.8250 C   0  0  0  0  0  1  0  0  0  0  0  0
  186.4450  177.8380  146.5030 C   0  0  2  0  0  3  0  0  0  0  0  0
  189.4730  176.8490  148.0490 C   0  0  0  0  0  2  0  0  0  0  0  0
  188.1960  178.8460  147.8620 C   0  0  0  0  0  2  0  0  0  0  0  0
  188.5540  176.7570  146.8410 C   0  0  0  0  0  2  0  0  0  0  0  0
  189.4790  178.3090  148.4340 C   0  0  0  0  0  2  0  0  0  0  0  0
  187.8940  178.0510  146.6700 N   0  0  0  0  0  0  0  0  0  0  0  0
  182.7900  178.2300  143.5460 O   0  0  0  0  0  0  0  0  0  0  0  0
  181.5890  178.9440  143.5650 C   0  0  0  0  0  1  0  0  0  0  0  0
  2  7  1  0  0  0  0
  3  2  2  0  0  0  0
  3  5  1  0  0  0  0
  4 38  1  0  0  0  0
  5  6  2  0  0  0  0
  6  1  1  0  0  0  0
  6  4  1  0  0  0  0
  7  1  1  0  0  0  0
  8  4  1  0  0  0  0
  9  8  1  0  0  0  0
 10 11  1  1  0  0  0
 10  3  1  0  0  0  0
 12 18  1  1  0  0  0
 12 14  1  0  0  0  0
 12 16  1  0  0  0  0
 13 10  1  1  0  0  0
 13 14  1  0  0  0  0
 13 15  1  0  0  0  0
 17 16  1  0  0  0  0
 17 15  1  0  0  0  0
 17 24  1  1  0  0  0
 18 21  1  0  0  0  0
 21 23  1  0  0  0  0
 21 22  1  0  0  0  0
 21 20  1  1  0  0  0
 22 19  1  1  0  0  0
 23 22  1  0  0  0  0
 26 27  1  0  0  0  0
 26 30  1  1  0  0  0
 26 25  1  0  0  0  0
 27 25  1  0  0  0  0
 27 24  1  1  0  0  0
 28 29  1  0  0  0  0
 30 28  2  0  0  0  0
 31 30  1  0  0  0  0
 31 33  2  0  0  0  0
 32 29  2  0  0  0  0
 32 34  1  0  0  0  0
 33 32  1  0  0  0  0
 34 35  2  0  0  0  0
 36 37  1  0  0  0  0
 37 34  1  0  0  0  0
 38 39  1  0  0  0  0
 40 39  1  6  0  0  0
 40 42  1  0  0  0  0
 40 63  1  0  0  0  0
 42 41  1  1  0  0  0
 42 43  1  0  0  0  0
 43 55  1  1  0  0  0
 44 45  2  0  0  0  0
 45 46  1  0  0  0  0
 45 43  1  0  0  0  0
 47 49  1  0  0  0  0
 47 46  1  0  0  0  0
 49 48  1  1  0  0  0
 51 53  1  0  0  0  0
 51 49  1  1  0  0  0
 52 53  1  0  0  0  0
 53 50  1  0  0  0  0
 54 51  1  0  0  0  0
 54 53  1  0  0  0  0
 55 57  1  0  0  0  0
 57 62  1  0  0  0  0
 57 56  1  1  0  0  0
 58 61  1  0  0  0  0
 59 61  1  0  0  0  0
 60 58  1  0  0  0  0
 62 60  1  0  0  0  0
 62 59  1  0  0  0  0
 63 64  1  0  0  0  0
M  END
>  <MODEL>
5

>  <REMARK>
 VINA RESULT:      -4.4      3.169      8.531
  Name = 
  24 active torsions:
  status: ('A' for Active; 'I' for Inactive)
    1  A    between atoms: C_1  and  C_10
    2  A    between atoms: C_1  and  C_38
    3  A    between atoms: C_3  and  C_6
    4  A    between atoms: C_3  and  C_15
    5  A    between atoms: C_5  and  O_35
    6  A    between atoms: C_5  and  C_36
    7  A    between atoms: C_6  and  O_29
    8  A    between atoms: C_6  and  C_53
    9  A    between atoms: O_9  and  N_27
   10  A    between atoms: C_12  and  C_58
   11  A    between atoms: C_12  and  C_63
   12  A    between atoms: C_13  and  C_26
   13  A    between atoms: C_13  and  C_60
   14  A    between atoms: C_15  and  N_27
   15  A    between atoms: C_18  and  C_22
   16  A    between atoms: C_18  and  C_59
   17  A    between atoms: C_19  and  C_25
   18  A    between atoms: C_22  and  N_40
   19  A    between atoms: C_24  and  C_60
   20  A    between atoms: C_25  and  C_32
   21  A    between atoms: C_26  and  C_57
   22  A    between atoms: C_31  and  C_62
   23  A    between atoms: C_53  and  C_59
   24  A    between atoms: C_57  and  C_59
                            x       y       z     vdW  Elec       q    Type
                         _______ _______ _______ _____ _____    ______ ____

>  <TORSDO>
F 24

$$$$
=
 OpenBabel11062412013D

 64 70  0  0  1  0  0  0  0  0999 V2000
  183.9440  179.8850  137.9220 C   0  0  0  0  0  2  0  0  0  0  0  0
  181.5220  180.0290  138.3080 N   0  0  0  0  0  0  0  0  0  0  0  0
  181.3910  178.7550  138.0860 C   0  0  0  0  0  0  0  0  0  0  0  0
  184.8830  177.5030  137.9350 N   0  0  0  0  0  0  0  0  0  0  0  0
  182.5480  177.9020  138.0670 N   0  0  0  0  0  0  0  0  0  0  0  0
  183.7550  178.3920  138.0240 C   0  0  0  0  0  0  0  0  0  0  0  0
  182.8170  180.6050  138.6600 C   0  0  0  0  0  2  0  0  0  0  0  0
  184.6920  176.1650  138.0640 O   0  0  0  0  0  0  0  0  0  0  0  0
  184.3010  175.7110  136.7990 C   0  0  0  0  0  1  0  0  0  0  0  0
  180.0370  178.2060  137.7610 C   0  0  2  0  0  3  0  0  0  0  0  0
  179.1670  179.2570  137.4770 O   0  0  0  0  0  1  0  0  0  0  0  0
  178.9770  175.2290  139.5350 C   0  0  2  0  0  3  0  0  0  0  0  0
  179.4660  177.3460  138.8860 C   0  0  1  0  0  3  0  0  0  0  0  0
  179.7490  175.9890  138.6310 O   0  0  0  0  0  0  0  0  0  0  0  0
  180.0130  177.7110  140.1340 O   0  0  0  0  0  0  0  0  0  0  0  0
  179.2920  175.5840  140.9930 C   0  0  0  0  0  2  0  0  0  0  0  0
  179.1920  177.1010  141.0950 C   0  0  1  0  0  3  0  0  0  0  0  0
  179.1470  173.7370  139.2540 C   0  0  0  0  0  2  0  0  0  0  0  0
  180.0500  173.3230  135.5940 O   0  0  0  0  0  1  0  0  0  0  0  0
  181.2730  173.7870  137.9210 F   0  0  0  0  0  0  0  0  0  0  0  0
  179.9370  173.4200  137.9800 C   0  0  2  0  0  0  0  0  0  0  0  0
  179.1940  173.1320  136.6800 C   0  0  2  0  0  3  0  0  0  0  0  0
  179.7200  171.9880  137.5420 C   0  0  0  0  0  2  0  0  0  0  0  0
  179.5140  177.5980  142.4960 C   0  0  0  0  0  2  0  0  0  0  0  0
  179.2680  179.3690  144.1860 C   0  0  0  0  0  2  0  0  0  0  0  0
  180.1920  180.0190  143.1740 C   0  0  2  0  0  3  0  0  0  0  0  0
  179.0900  179.0490  142.7130 C   0  0  1  0  0  3  0  0  0  0  0  0
  182.2200  179.2490  144.4070 C   0  0  0  0  0  3  0  0  0  0  0  0
  183.5150  178.7270  144.4380 C   0  0  0  0  0  3  0  0  0  0  0  0
  181.5920  179.4500  143.1770 C   0  0  0  0  0  0  0  0  0  0  0  0
  182.2420  179.1200  142.0210 N   0  0  0  0  0  0  0  0  0  0  0  0
  184.1760  178.4140  143.2430 C   0  0  0  0  0  0  0  0  0  0  0  0
  183.5060  178.6200  142.0290 C   0  0  0  0  0  3  0  0  0  0  0  0
  185.5490  177.8880  143.2710 C   0  0  0  0  0  0  0  0  0  0  0  0
  186.3020  178.0350  142.2670 O   0  0  0  0  0  0  0  0  0  0  0  0
  187.1150  176.3360  144.3690 C   0  0  0  0  0  1  0  0  0  0  0  0
  186.0200  177.2390  144.4150 O   0  0  0  0  0  0  0  0  0  0  0  0
  186.2320  178.0770  137.9250 C   0  0  0  0  0  2  0  0  0  0  0  0
  187.0660  177.6990  136.6990 C   0  0  0  0  0  2  0  0  0  0  0  0
  188.1620  176.6880  137.0330 C   0  0  2  0  0  3  0  0  0  0  0  0
  189.4010  178.7340  137.1370 O   0  0  0  0  0  1  0  0  0  0  0  0
  189.5410  177.3550  136.9460 C   0  0  1  0  0  3  0  0  0  0  0  0
  190.5580  176.7320  137.9170 C   0  0  1  0  0  3  0  0  0  0  0  0
  191.8430  176.4110  135.9800 O   0  0  0  0  0  0  0  0  0  0  0  0
  191.8020  176.3180  137.1950 C   0  0  0  0  0  0  0  0  0  0  0  0
  192.9620  175.7340  137.9420 C   0  0  0  0  0  2  0  0  0  0  0  0
  193.9650  175.1140  136.9830 C   0  0  0  0  0  2  0  0  0  0  0  0
  194.0070  172.8210  137.6360 O   0  0  0  0  0  1  0  0  0  0  0  0
  194.7410  174.0080  137.6770 C   0  0  1  0  0  3  0  0  0  0  0  0
  197.0740  174.2870  139.3820 C   0  0  0  0  0  1  0  0  0  0  0  0
  196.0720  173.7990  136.9730 C   0  0  2  0  0  3  0  0  0  0  0  0
  198.5430  173.2590  137.4770 C   0  0  0  0  0  1  0  0  0  0  0  0
  197.2670  173.9530  137.9080 C   0  0  0  0  0  0  0  0  0  0  0  0
  196.8810  175.0940  136.9920 C   0  0  0  0  0  2  0  0  0  0  0  0
  190.9220  177.6270  139.1040 C   0  0  0  0  0  2  0  0  0  0  0  0
  189.1200  178.3220  140.6970 C   0  0  0  0  0  1  0  0  0  0  0  0
  190.1330  177.2320  140.3530 C   0  0  2  0  0  3  0  0  0  0  0  0
  190.8020  177.3640  143.8270 C   0  0  0  0  0  2  0  0  0  0  0  0
  191.9160  177.9980  141.8230 C   0  0  0  0  0  2  0  0  0  0  0  0
  190.2300  176.5820  142.6550 C   0  0  0  0  0  2  0  0  0  0  0  0
  192.0930  177.9580  143.3170 C   0  0  0  0  0  2  0  0  0  0  0  0
  191.0310  176.8860  141.4690 N   0  0  0  0  0  0  0  0  0  0  0  0
  188.0770  175.5630  136.1980 O   0  0  0  0  0  0  0  0  0  0  0  0
  187.9640  176.0700  134.9020 C   0  0  0  0  0  1  0  0  0  0  0  0
  1  6  1  0  0  0  0
  1  7  1  0  0  0  0
  2  7  1  0  0  0  0
  3  2  2  0  0  0  0
  4  6  1  0  0  0  0
  4  8  1  0  0  0  0
  5  3  1  0  0  0  0
  6  5  2  0  0  0  0
  9  8  1  0  0  0  0
 10 11  1  1  0  0  0
 10  3  1  0  0  0  0
 12 18  1  1  0  0  0
 12 16  1  0  0  0  0
 13 10  1  6  0  0  0
 13 15  1  0  0  0  0
 14 13  1  0  0  0  0
 14 12  1  0  0  0  0
 15 17  1  0  0  0  0
 16 17  1  0  0  0  0
 17 24  1  1  0  0  0
 21 20  1  6  0  0  0
 21 18  1  0  0  0  0
 22 19  1  6  0  0  0
 22 23  1  0  0  0  0
 22 21  1  0  0  0  0
 23 21  1  0  0  0  0
 26 30  1  1  0  0  0
 26 25  1  0  0  0  0
 27 24  1  1  0  0  0
 27 26  1  0  0  0  0
 27 25  1  0  0  0  0
 28 29  1  0  0  0  0
 30 28  2  0  0  0  0
 31 33  2  0  0  0  0
 31 30  1  0  0  0  0
 32 34  1  0  0  0  0
 32 29  2  0  0  0  0
 33 32  1  0  0  0  0
 34 37  1  0  0  0  0
 35 34  2  0  0  0  0
 36 37  1  0  0  0  0
 38  4  1  0  0  0  0
 39 38  1  0  0  0  0
 40 39  1  6  0  0  0
 42 40  1  0  0  0  0
 42 41  1  1  0  0  0
 42 43  1  0  0  0  0
 43 55  1  1  0  0  0
 44 45  2  0  0  0  0
 45 43  1  0  0  0  0
 45 46  1  0  0  0  0
 47 49  1  0  0  0  0
 47 46  1  0  0  0  0
 49 48  1  6  0  0  0
 51 54  1  0  0  0  0
 51 49  1  1  0  0  0
 51 53  1  0  0  0  0
 52 53  1  0  0  0  0
 53 50  1  0  0  0  0
 54 53  1  0  0  0  0
 55 57  1  0  0  0  0
 57 56  1  1  0  0  0
 57 62  1  0  0  0  0
 59 61  1  0  0  0  0
 60 58  1  0  0  0  0
 61 58  1  0  0  0  0
 62 59  1  0  0  0  0
 62 60  1  0  0  0  0
 63 40  1  0  0  0  0
 64 63  1  0  0  0  0
M  END
>  <MODEL>
6

>  <REMARK>
 VINA RESULT:      -4.4      1.777      2.374
  Name = 
  24 active torsions:
  status: ('A' for Active; 'I' for Inactive)
    1  A    between atoms: C_1  and  C_10
    2  A    between atoms: C_1  and  C_38
    3  A    between atoms: C_3  and  C_6
    4  A    between atoms: C_3  and  C_15
    5  A    between atoms: C_5  and  O_35
    6  A    between atoms: C_5  and  C_36
    7  A    between atoms: C_6  and  O_29
    8  A    between atoms: C_6  and  C_53
    9  A    between atoms: O_9  and  N_27
   10  A    between atoms: C_12  and  C_58
   11  A    between atoms: C_12  and  C_63
   12  A    between atoms: C_13  and  C_26
   13  A    between atoms: C_13  and  C_60
   14  A    between atoms: C_15  and  N_27
   15  A    between atoms: C_18  and  C_22
   16  A    between atoms: C_18  and  C_59
   17  A    between atoms: C_19  and  C_25
   18  A    between atoms: C_22  and  N_40
   19  A    between atoms: C_24  and  C_60
   20  A    between atoms: C_25  and  C_32
   21  A    between atoms: C_26  and  C_57
   22  A    between atoms: C_31  and  C_62
   23  A    between atoms: C_53  and  C_59
   24  A    between atoms: C_57  and  C_59
                            x       y       z     vdW  Elec       q    Type
                         _______ _______ _______ _____ _____    ______ ____

>  <TORSDO>
F 24

$$$$
=
 OpenBabel11062412013D

 64 70  0  0  1  0  0  0  0  0999 V2000
  183.4180  179.6890  144.6420 C   0  0  0  0  0  2  0  0  0  0  0  0
  185.6040  178.9870  145.5190 N   0  0  0  0  0  0  0  0  0  0  0  0
  185.7170  178.0970  144.5790 C   0  0  0  0  0  0  0  0  0  0  0  0
  182.9040  178.8550  142.2770 N   0  0  0  0  0  0  0  0  0  0  0  0
  184.8470  178.1400  143.4340 N   0  0  0  0  0  0  0  0  0  0  0  0
  183.7850  178.8940  143.4130 C   0  0  0  0  0  0  0  0  0  0  0  0
  184.6840  180.1130  145.3850 C   0  0  0  0  0  2  0  0  0  0  0  0
  183.2710  178.1610  141.1690 O   0  0  0  0  0  0  0  0  0  0  0  0
  183.8730  179.0930  140.3170 C   0  0  0  0  0  1  0  0  0  0  0  0
  186.6970  176.9790  144.7460 C   0  0  2  0  0  3  0  0  0  0  0  0
  186.9880  176.8170  146.0990 O   0  0  0  0  0  1  0  0  0  0  0  0
  190.2460  177.0180  144.0100 C   0  0  2  0  0  3  0  0  0  0  0  0
  187.9870  177.2050  143.9590 C   0  0  1  0  0  3  0  0  0  0  0  0
  189.0560  176.5580  144.6120 O   0  0  0  0  0  0  0  0  0  0  0  0
  187.8740  176.7110  142.6430 O   0  0  0  0  0  0  0  0  0  0  0  0
  190.2740  176.7300  142.5050 C   0  0  0  0  0  2  0  0  0  0  0  0
  188.9600  177.2580  141.9430 C   0  0  1  0  0  3  0  0  0  0  0  0
  191.4630  176.4420  144.7320 C   0  0  0  0  0  2  0  0  0  0  0  0
  192.5110  176.3730  148.3760 O   0  0  0  0  0  1  0  0  0  0  0  0
  191.0350  177.8820  146.7430 F   0  0  0  0  0  0  0  0  0  0  0  0
  191.4570  176.6580  146.2490 C   0  0  2  0  0  0  0  0  0  0  0  0
  192.2940  175.7510  147.1460 C   0  0  2  0  0  3  0  0  0  0  0  0
  190.8000  175.4970  146.9650 C   0  0  0  0  0  2  0  0  0  0  0  0
  188.8400  177.0070  140.4480 C   0  0  0  0  0  2  0  0  0  0  0  0
  189.6010  178.7080  138.8410 C   0  0  0  0  0  2  0  0  0  0  0  0
  188.3820  178.1330  138.1450 C   0  0  2  0  0  3  0  0  0  0  0  0
  188.4180  178.2570  139.6790 C   0  0  1  0  0  3  0  0  0  0  0  0
  187.4920  176.0620  137.0750 C   0  0  0  0  0  3  0  0  0  0  0  0
  187.6590  174.7700  136.5740 C   0  0  0  0  0  3  0  0  0  0  0  0
  188.5930  176.7380  137.6060 C   0  0  0  0  0  0  0  0  0  0  0  0
  189.8200  176.1350  137.6130 N   0  0  0  0  0  0  0  0  0  0  0  0
  188.9180  174.1570  136.6080 C   0  0  0  0  0  0  0  0  0  0  0  0
  190.0000  174.8750  137.1390 C   0  0  0  0  0  3  0  0  0  0  0  0
  189.0920  172.7870  136.1040 C   0  0  0  0  0  0  0  0  0  0  0  0
  190.0660  172.5100  135.3500 O   0  0  0  0  0  0  0  0  0  0  0  0
  187.3700  171.1260  135.5160 C   0  0  0  0  0  1  0  0  0  0  0  0
  188.1820  171.7930  136.4720 O   0  0  0  0  0  0  0  0  0  0  0  0
  181.7350  179.7400  142.2620 C   0  0  0  0  0  2  0  0  0  0  0  0
  180.3980  179.0110  142.1190 C   0  0  0  0  0  2  0  0  0  0  0  0
  180.2780  178.2740  140.7860 C   0  0  2  0  0  3  0  0  0  0  0  0
  179.4050  180.4360  140.2430 O   0  0  0  0  0  1  0  0  0  0  0  0
  179.4700  179.1150  139.7880 C   0  0  1  0  0  3  0  0  0  0  0  0
  180.0220  179.0180  138.3560 C   0  0  1  0  0  3  0  0  0  0  0  0
  180.5960  176.7440  138.2840 O   0  0  0  0  0  0  0  0  0  0  0  0
  179.8890  177.6250  137.8250 C   0  0  0  0  0  0  0  0  0  0  0  0
  178.9490  177.3210  136.6980 C   0  0  0  0  0  2  0  0  0  0  0  0
  179.6890  176.6860  135.5340 C   0  0  0  0  0  2  0  0  0  0  0  0
  180.5940  174.5620  136.1320 O   0  0  0  0  0  1  0  0  0  0  0  0
  180.9020  175.9200  136.0350 C   0  0  1  0  0  3  0  0  0  0  0  0
  183.5350  175.5510  137.2020 C   0  0  0  0  0  1  0  0  0  0  0  0
  182.0590  176.1050  135.0660 C   0  0  2  0  0  3  0  0  0  0  0  0
  184.5570  175.5260  134.7940 C   0  0  0  0  0  1  0  0  0  0  0  0
  183.4200  175.8990  135.7230 C   0  0  0  0  0  0  0  0  0  0  0  0
  182.9060  177.3030  135.4880 C   0  0  0  0  0  2  0  0  0  0  0  0
  179.3920  180.0080  137.3730 C   0  0  0  0  0  2  0  0  0  0  0  0
  181.7400  180.8460  137.6060 C   0  0  0  0  0  1  0  0  0  0  0  0
  180.4430  180.9630  136.8070 C   0  0  2  0  0  3  0  0  0  0  0  0
  181.0030  184.3330  135.8760 C   0  0  0  0  0  2  0  0  0  0  0  0
  180.3700  183.1640  137.8470 C   0  0  0  0  0  2  0  0  0  0  0  0
  180.4390  182.9710  135.5030 C   0  0  0  0  0  2  0  0  0  0  0  0
  180.5990  184.5520  137.3140 C   0  0  0  0  0  2  0  0  0  0  0  0
  179.9260  182.3410  136.7200 N   0  0  0  0  0  0  0  0  0  0  0  0
  179.7150  177.0010  140.9650 O   0  0  0  0  0  0  0  0  0  0  0  0
  179.4690  176.8930  142.3360 C   0  0  0  0  0  1  0  0  0  0  0  0
  1  7  1  0  0  0  0
  3 10  1  0  0  0  0
  3  2  2  0  0  0  0
  4  6  1  0  0  0  0
  5  3  1  0  0  0  0
  6  5  2  0  0  0  0
  6  1  1  0  0  0  0
  7  2  1  0  0  0  0
  8  4  1  0  0  0  0
  9  8  1  0  0  0  0
 10 11  1  1  0  0  0
 12 14  1  0  0  0  0
 12 18  1  1  0  0  0
 13 14  1  0  0  0  0
 13 10  1  1  0  0  0
 15 13  1  0  0  0  0
 16 12  1  0  0  0  0
 17 24  1  6  0  0  0
 17 16  1  0  0  0  0
 17 15  1  0  0  0  0
 18 21  1  0  0  0  0
 21 20  1  1  0  0  0
 21 23  1  0  0  0  0
 21 22  1  0  0  0  0
 22 19  1  1  0  0  0
 23 22  1  0  0  0  0
 25 27  1  0  0  0  0
 26 30  1  1  0  0  0
 26 25  1  0  0  0  0
 26 27  1  0  0  0  0
 27 24  1  1  0  0  0
 28 30  1  0  0  0  0
 29 32  1  0  0  0  0
 29 28  2  0  0  0  0
 30 31  2  0  0  0  0
 32 33  2  0  0  0  0
 33 31  1  0  0  0  0
 34 37  1  0  0  0  0
 34 32  1  0  0  0  0
 35 34  2  0  0  0  0
 36 37  1  0  0  0  0
 38  4  1  0  0  0  0
 39 38  1  0  0  0  0
 40 63  1  0  0  0  0
 40 39  1  1  0  0  0
 42 41  1  1  0  0  0
 42 40  1  0  0  0  0
 43 55  1  6  0  0  0
 43 42  1  0  0  0  0
 45 44  2  0  0  0  0
 45 43  1  0  0  0  0
 46 45  1  0  0  0  0
 47 49  1  0  0  0  0
 47 46  1  0  0  0  0
 49 48  1  6  0  0  0
 51 54  1  0  0  0  0
 51 53  1  0  0  0  0
 51 49  1  1  0  0  0
 52 53  1  0  0  0  0
 53 50  1  0  0  0  0
 54 53  1  0  0  0  0
 57 55  1  0  0  0  0
 57 56  1  1  0  0  0
 58 61  1  0  0  0  0
 60 58  1  0  0  0  0
 60 62  1  0  0  0  0
 61 59  1  0  0  0  0
 62 57  1  0  0  0  0
 62 59  1  0  0  0  0
 63 64  1  0  0  0  0
M  END
>  <MODEL>
7

>  <REMARK>
 VINA RESULT:      -4.2      4.135     11.832
  Name = 
  24 active torsions:
  status: ('A' for Active; 'I' for Inactive)
    1  A    between atoms: C_1  and  C_10
    2  A    between atoms: C_1  and  C_38
    3  A    between atoms: C_3  and  C_6
    4  A    between atoms: C_3  and  C_15
    5  A    between atoms: C_5  and  O_35
    6  A    between atoms: C_5  and  C_36
    7  A    between atoms: C_6  and  O_29
    8  A    between atoms: C_6  and  C_53
    9  A    between atoms: O_9  and  N_27
   10  A    between atoms: C_12  and  C_58
   11  A    between atoms: C_12  and  C_63
   12  A    between atoms: C_13  and  C_26
   13  A    between atoms: C_13  and  C_60
   14  A    between atoms: C_15  and  N_27
   15  A    between atoms: C_18  and  C_22
   16  A    between atoms: C_18  and  C_59
   17  A    between atoms: C_19  and  C_25
   18  A    between atoms: C_22  and  N_40
   19  A    between atoms: C_24  and  C_60
   20  A    between atoms: C_25  and  C_32
   21  A    between atoms: C_26  and  C_57
   22  A    between atoms: C_31  and  C_62
   23  A    between atoms: C_53  and  C_59
   24  A    between atoms: C_57  and  C_59
                            x       y       z     vdW  Elec       q    Type
                         _______ _______ _______ _____ _____    ______ ____

>  <TORSDO>
F 24

$$$$
=
 OpenBabel11062412013D

 64 70  0  0  1  0  0  0  0  0999 V2000
  182.3730  174.8210  138.4490 C   0  0  0  0  0  2  0  0  0  0  0  0
  180.2970  176.1100  138.1860 N   0  0  0  0  0  0  0  0  0  0  0  0
  180.5290  176.2620  136.9160 C   0  0  0  0  0  0  0  0  0  0  0  0
  183.4090  174.0140  136.2520 N   0  0  0  0  0  0  0  0  0  0  0  0
  181.5270  175.4580  136.2630 N   0  0  0  0  0  0  0  0  0  0  0  0
  182.3820  174.7480  136.9420 C   0  0  0  0  0  0  0  0  0  0  0  0
  180.9480  175.0500  138.9510 C   0  0  0  0  0  2  0  0  0  0  0  0
  183.3770  173.9330  134.8960 O   0  0  0  0  0  0  0  0  0  0  0  0
  183.3020  172.5680  134.5970 C   0  0  0  0  0  1  0  0  0  0  0  0
  179.8130  177.3410  136.1670 C   0  0  2  0  0  3  0  0  0  0  0  0
  180.0700  177.2080  134.8050 O   0  0  0  0  0  1  0  0  0  0  0  0
  179.8540  180.9620  136.3390 C   0  0  2  0  0  3  0  0  0  0  0  0
  180.2040  178.7410  136.6370 C   0  0  1  0  0  3  0  0  0  0  0  0
  179.3000  179.6840  136.1080 O   0  0  0  0  0  0  0  0  0  0  0  0
  180.1970  178.8260  138.0450 O   0  0  0  0  0  0  0  0  0  0  0  0
  180.0950  181.2180  137.8300 C   0  0  0  0  0  2  0  0  0  0  0  0
  180.8720  180.0170  138.3520 C   0  0  1  0  0  3  0  0  0  0  0  0
  178.9830  182.0410  135.6990 C   0  0  0  0  0  2  0  0  0  0  0  0
  181.4790  184.8690  136.0900 O   0  0  0  0  0  1  0  0  0  0  0  0
  179.2200  184.3580  134.7620 F   0  0  0  0  0  0  0  0  0  0  0  0
  179.5890  183.4480  135.7410 C   0  0  2  0  0  0  0  0  0  0  0  0
  180.8660  183.6990  136.5380 C   0  0  2  0  0  3  0  0  0  0  0  0
  179.5020  184.0410  137.1320 C   0  0  0  0  0  2  0  0  0  0  0  0
  181.1560  180.1270  139.8430 C   0  0  0  0  0  2  0  0  0  0  0  0
  179.5470  178.5850  140.8850 C   0  0  0  0  0  2  0  0  0  0  0  0
  180.0240  179.4000  142.0730 C   0  0  2  0  0  3  0  0  0  0  0  0
  179.8840  180.0520  140.6850 C   0  0  1  0  0  3  0  0  0  0  0  0
  181.6880  178.8620  143.8520 C   0  0  0  0  0  3  0  0  0  0  0  0
  182.9880  178.5720  144.2710 C   0  0  0  0  0  3  0  0  0  0  0  0
  181.4390  179.0850  142.4970 C   0  0  0  0  0  0  0  0  0  0  0  0
  182.4640  179.0010  141.5960 N   0  0  0  0  0  0  0  0  0  0  0  0
  184.0320  178.5110  143.3390 C   0  0  0  0  0  0  0  0  0  0  0  0
  183.7380  178.7290  141.9850 C   0  0  0  0  0  3  0  0  0  0  0  0
  185.4060  178.2300  143.7800 C   0  0  0  0  0  0  0  0  0  0  0  0
  186.2150  177.6550  143.0000 O   0  0  0  0  0  0  0  0  0  0  0  0
  186.9560  178.0460  145.6860 C   0  0  0  0  0  1  0  0  0  0  0  0
  185.8150  178.6150  145.0600 O   0  0  0  0  0  0  0  0  0  0  0  0
  184.3360  173.1930  137.0360 C   0  0  0  0  0  2  0  0  0  0  0  0
  185.7330  173.7970  137.1910 C   0  0  0  0  0  2  0  0  0  0  0  0
  185.8290  175.1960  136.5850 C   0  0  2  0  0  3  0  0  0  0  0  0
  187.1470  176.4540  135.0320 O   0  0  0  0  0  1  0  0  0  0  0  0
  187.2140  175.4070  135.9580 C   0  0  1  0  0  3  0  0  0  0  0  0
  188.3090  175.6310  137.0140 C   0  0  1  0  0  3  0  0  0  0  0  0
  189.4160  173.6190  137.4960 O   0  0  0  0  0  0  0  0  0  0  0  0
  189.4250  174.6490  136.8430 C   0  0  0  0  0  0  0  0  0  0  0  0
  190.5770  174.9480  135.9320 C   0  0  0  0  0  2  0  0  0  0  0  0
  191.8650  175.1000  136.7220 C   0  0  0  0  0  2  0  0  0  0  0  0
  194.2090  175.0590  136.2850 O   0  0  0  0  0  1  0  0  0  0  0  0
  193.0080  174.4050  136.0020 C   0  0  1  0  0  3  0  0  0  0  0  0
  195.4860  173.0620  135.3060 C   0  0  0  0  0  1  0  0  0  0  0  0
  193.1020  172.9610  136.4680 C   0  0  2  0  0  3  0  0  0  0  0  0
  194.8390  171.1090  136.9230 C   0  0  0  0  0  1  0  0  0  0  0  0
  194.4200  172.2980  136.0810 C   0  0  0  0  0  0  0  0  0  0  0  0
  193.1770  172.0280  135.2610 C   0  0  0  0  0  2  0  0  0  0  0  0
  188.8730  177.0540  137.0410 C   0  0  0  0  0  2  0  0  0  0  0  0
  188.9580  179.1870  138.3500 C   0  0  0  0  0  1  0  0  0  0  0  0
  188.7200  177.6790  138.4280 C   0  0  2  0  0  3  0  0  0  0  0  0
  190.1480  177.6750  141.6680 C   0  0  0  0  0  2  0  0  0  0  0  0
  190.9350  177.5290  139.4290 C   0  0  0  0  0  2  0  0  0  0  0  0
  189.0180  177.2190  140.7580 C   0  0  0  0  0  2  0  0  0  0  0  0
  191.4090  177.5000  140.8560 C   0  0  0  0  0  2  0  0  0  0  0  0
  189.5700  176.9980  139.4210 N   0  0  0  0  0  0  0  0  0  0  0  0
  185.5390  176.1800  137.5440 O   0  0  0  0  0  0  0  0  0  0  0  0
  185.0610  177.2740  136.8200 C   0  0  0  0  0  1  0  0  0  0  0  0
  1  7  1  0  0  0  0
  2  7  1  0  0  0  0
  3  2  2  0  0  0  0
  4  6  1  0  0  0  0
  4 38  1  0  0  0  0
  5  3  1  0  0  0  0
  5  6  2  0  0  0  0
  6  1  1  0  0  0  0
  8  4  1  0  0  0  0
  9  8  1  0  0  0  0
 10 11  1  6  0  0  0
 10  3  1  0  0  0  0
 12 18  1  1  0  0  0
 12 16  1  0  0  0  0
 13 10  1  1  0  0  0
 13 15  1  0  0  0  0
 14 12  1  0  0  0  0
 14 13  1  0  0  0  0
 15 17  1  0  0  0  0
 16 17  1  0  0  0  0
 17 24  1  1  0  0  0
 18 21  1  0  0  0  0
 21 20  1  6  0  0  0
 21 22  1  0  0  0  0
 21 23  1  0  0  0  0
 22 19  1  6  0  0  0
 22 23  1  0  0  0  0
 25 26  1  0  0  0  0
 26 30  1  6  0  0  0
 27 24  1  6  0  0  0
 27 25  1  0  0  0  0
 27 26  1  0  0  0  0
 28 29  1  0  0  0  0
 30 28  2  0  0  0  0
 31 33  2  0  0  0  0
 31 30  1  0  0  0  0
 32 34  1  0  0  0  0
 32 29  2  0  0  0  0
 33 32  1  0  0  0  0
 34 37  1  0  0  0  0
 35 34  2  0  0  0  0
 37 36  1  0  0  0  0
 38 39  1  0  0  0  0
 40 39  1  1  0  0  0
 40 63  1  0  0  0  0
 42 41  1  6  0  0  0
 42 40  1  0  0  0  0
 42 43  1  0  0  0  0
 43 55  1  6  0  0  0
 45 43  1  0  0  0  0
 45 44  2  0  0  0  0
 46 47  1  0  0  0  0
 46 45  1  0  0  0  0
 49 48  1  1  0  0  0
 49 47  1  0  0  0  0
 50 53  1  0  0  0  0
 51 49  1  6  0  0  0
 53 51  1  0  0  0  0
 53 52  1  0  0  0  0
 54 53  1  0  0  0  0
 54 51  1  0  0  0  0
 55 57  1  0  0  0  0
 57 56  1  6  0  0  0
 57 62  1  0  0  0  0
 59 61  1  0  0  0  0
 60 58  1  0  0  0  0
 61 58  1  0  0  0  0
 62 59  1  0  0  0  0
 62 60  1  0  0  0  0
 64 63  1  0  0  0  0
M  END
>  <MODEL>
8

>  <REMARK>
 VINA RESULT:      -4.0      3.055      5.046
  Name = 
  24 active torsions:
  status: ('A' for Active; 'I' for Inactive)
    1  A    between atoms: C_1  and  C_10
    2  A    between atoms: C_1  and  C_38
    3  A    between atoms: C_3  and  C_6
    4  A    between atoms: C_3  and  C_15
    5  A    between atoms: C_5  and  O_35
    6  A    between atoms: C_5  and  C_36
    7  A    between atoms: C_6  and  O_29
    8  A    between atoms: C_6  and  C_53
    9  A    between atoms: O_9  and  N_27
   10  A    between atoms: C_12  and  C_58
   11  A    between atoms: C_12  and  C_63
   12  A    between atoms: C_13  and  C_26
   13  A    between atoms: C_13  and  C_60
   14  A    between atoms: C_15  and  N_27
   15  A    between atoms: C_18  and  C_22
   16  A    between atoms: C_18  and  C_59
   17  A    between atoms: C_19  and  C_25
   18  A    between atoms: C_22  and  N_40
   19  A    between atoms: C_24  and  C_60
   20  A    between atoms: C_25  and  C_32
   21  A    between atoms: C_26  and  C_57
   22  A    between atoms: C_31  and  C_62
   23  A    between atoms: C_53  and  C_59
   24  A    between atoms: C_57  and  C_59
                            x       y       z     vdW  Elec       q    Type
                         _______ _______ _______ _____ _____    ______ ____

>  <TORSDO>
F 24

$$$$
=
 OpenBabel11062412013D

 64 70  0  0  1  0  0  0  0  0999 V2000
  187.5900  178.2900  138.6340 C   0  0  0  0  0  2  0  0  0  0  0  0
  187.8710  177.9580  136.2150 N   0  0  0  0  0  0  0  0  0  0  0  0
  186.6000  177.7280  136.0790 C   0  0  0  0  0  0  0  0  0  0  0  0
  185.1650  178.6120  139.3870 N   0  0  0  0  0  0  0  0  0  0  0  0
  185.6880  178.0580  137.1410 N   0  0  0  0  0  0  0  0  0  0  0  0
  186.1130  178.3570  138.3350 C   0  0  0  0  0  0  0  0  0  0  0  0
  188.3910  178.6590  137.3860 C   0  0  0  0  0  2  0  0  0  0  0  0
  183.8430  178.7030  139.0890 O   0  0  0  0  0  0  0  0  0  0  0  0
  183.4920  180.0390  139.3120 C   0  0  0  0  0  1  0  0  0  0  0  0
  186.1110  177.0350  134.8460 C   0  0  2  0  0  3  0  0  0  0  0  0
  184.7190  177.0570  134.8230 O   0  0  0  0  0  1  0  0  0  0  0  0
  188.4520  174.2790  134.5950 C   0  0  2  0  0  3  0  0  0  0  0  0
  186.6110  175.5960  134.7440 C   0  0  1  0  0  3  0  0  0  0  0  0
  188.0030  175.5640  134.9670 O   0  0  0  0  0  0  0  0  0  0  0  0
  185.9680  174.7650  135.6840 O   0  0  0  0  0  0  0  0  0  0  0  0
  187.7490  173.1760  135.3930 C   0  0  0  0  0  2  0  0  0  0  0  0
  186.2550  173.4510  135.2820 C   0  0  1  0  0  3  0  0  0  0  0  0
  189.9730  174.1950  134.7080 C   0  0  0  0  0  2  0  0  0  0  0  0
  191.8790  174.6270  137.9580 O   0  0  0  0  0  1  0  0  0  0  0  0
  189.5860  173.5580  137.1040 F   0  0  0  0  0  0  0  0  0  0  0  0
  190.4890  173.9590  136.1310 C   0  0  2  0  0  0  0  0  0  0  0  0
  191.8190  174.5670  136.5650 C   0  0  2  0  0  3  0  0  0  0  0  0
  191.7390  173.1060  136.1270 C   0  0  0  0  0  2  0  0  0  0  0  0
  185.4310  172.4390  136.0620 C   0  0  0  0  0  2  0  0  0  0  0  0
  184.3620  170.2230  136.0860 C   0  0  0  0  0  2  0  0  0  0  0  0
  183.3820  171.0420  135.2650 C   0  0  2  0  0  3  0  0  0  0  0  0
  184.8940  171.3170  135.1760 C   0  0  1  0  0  3  0  0  0  0  0  0
  182.0970  171.6330  137.3210 C   0  0  0  0  0  3  0  0  0  0  0  0
  181.3620  172.5350  138.0920 C   0  0  0  0  0  3  0  0  0  0  0  0
  182.5930  172.0400  136.0800 C   0  0  0  0  0  0  0  0  0  0  0  0
  182.3690  173.3160  135.6450 N   0  0  0  0  0  0  0  0  0  0  0  0
  181.1220  173.8330  137.6230 C   0  0  0  0  0  0  0  0  0  0  0  0
  181.6480  174.2050  136.3770 C   0  0  0  0  0  3  0  0  0  0  0  0
  180.3270  174.7770  138.4220 C   0  0  0  0  0  0  0  0  0  0  0  0
  179.1040  174.5480  138.6380 O   0  0  0  0  0  0  0  0  0  0  0  0
  180.2150  176.8510  139.7470 C   0  0  0  0  0  1  0  0  0  0  0  0
  180.9340  175.9190  138.9510 O   0  0  0  0  0  0  0  0  0  0  0  0
  185.6670  178.9830  140.7140 C   0  0  0  0  0  2  0  0  0  0  0  0
  184.6350  178.8530  141.8350 C   0  0  0  0  0  2  0  0  0  0  0  0
  185.2080  179.2400  143.1980 C   0  0  2  0  0  3  0  0  0  0  0  0
  185.7080  176.9030  143.0470 O   0  0  0  0  0  1  0  0  0  0  0  0
  185.7380  177.9950  143.9220 C   0  0  1  0  0  3  0  0  0  0  0  0
  187.1340  178.2170  144.5280 C   0  0  1  0  0  3  0  0  0  0  0  0
  186.0900  177.6040  146.5380 O   0  0  0  0  0  0  0  0  0  0  0  0
  187.1120  178.0070  146.0100 C   0  0  0  0  0  0  0  0  0  0  0  0
  188.3050  178.3480  146.8500 C   0  0  0  0  0  2  0  0  0  0  0  0
  188.3860  177.4430  148.0670 C   0  0  0  0  0  2  0  0  0  0  0  0
  189.2590  175.2270  148.1840 O   0  0  0  0  0  1  0  0  0  0  0  0
  189.6200  176.5610  147.9850 C   0  0  1  0  0  3  0  0  0  0  0  0
  192.1870  175.2340  147.6980 C   0  0  0  0  0  1  0  0  0  0  0  0
  190.2630  176.7080  146.6150 C   0  0  2  0  0  3  0  0  0  0  0  0
  192.0540  175.6160  145.1130 C   0  0  0  0  0  1  0  0  0  0  0  0
  191.6070  175.9930  146.5120 C   0  0  0  0  0  0  0  0  0  0  0  0
  191.5690  177.4900  146.7330 C   0  0  0  0  0  2  0  0  0  0  0  0
  188.2350  177.3590  143.9000 C   0  0  0  0  0  2  0  0  0  0  0  0
  188.6020  176.6710  141.5210 C   0  0  0  0  0  1  0  0  0  0  0  0
  188.5790  177.8490  142.4940 C   0  0  2  0  0  3  0  0  0  0  0  0
  192.0490  178.0080  143.1760 C   0  0  0  0  0  2  0  0  0  0  0  0
  190.1040  179.2220  143.8040 C   0  0  0  0  0  2  0  0  0  0  0  0
  190.9470  177.7710  142.1550 C   0  0  0  0  0  2  0  0  0  0  0  0
  191.5980  179.2040  143.9800 C   0  0  0  0  0  2  0  0  0  0  0  0
  189.8200  178.6420  142.4900 N   0  0  0  0  0  0  0  0  0  0  0  0
  184.2520  179.9190  143.9690 O   0  0  0  0  0  0  0  0  0  0  0  0
  183.3880  178.9300  144.4450 C   0  0  0  0  0  1  0  0  0  0  0  0
  2  7  1  0  0  0  0
  3  2  2  0  0  0  0
  3  5  1  0  0  0  0
  4 38  1  0  0  0  0
  5  6  2  0  0  0  0
  6  1  1  0  0  0  0
  6  4  1  0  0  0  0
  7  1  1  0  0  0  0
  8  9  1  0  0  0  0
  8  4  1  0  0  0  0
 10 11  1  1  0  0  0
 10  3  1  0  0  0  0
 12 18  1  1  0  0  0
 12 14  1  0  0  0  0
 12 16  1  0  0  0  0
 13 10  1  1  0  0  0
 13 14  1  0  0  0  0
 13 15  1  0  0  0  0
 17 16  1  0  0  0  0
 17 15  1  0  0  0  0
 17 24  1  1  0  0  0
 18 21  1  0  0  0  0
 21 22  1  0  0  0  0
 21 20  1  1  0  0  0
 22 19  1  1  0  0  0
 23 21  1  0  0  0  0
 23 22  1  0  0  0  0
 26 30  1  1  0  0  0
 26 25  1  0  0  0  0
 27 26  1  0  0  0  0
 27 24  1  1  0  0  0
 27 25  1  0  0  0  0
 28 29  1  0  0  0  0
 30 28  2  0  0  0  0
 31 30  1  0  0  0  0
 31 33  2  0  0  0  0
 32 29  2  0  0  0  0
 32 34  1  0  0  0  0
 33 32  1  0  0  0  0
 34 35  2  0  0  0  0
 34 37  1  0  0  0  0
 37 36  1  0  0  0  0
 38 39  1  0  0  0  0
 40 39  1  6  0  0  0
 40 42  1  0  0  0  0
 40 63  1  0  0  0  0
 42 41  1  6  0  0  0
 42 43  1  0  0  0  0
 43 55  1  6  0  0  0
 43 45  1  0  0  0  0
 45 44  2  0  0  0  0
 45 46  1  0  0  0  0
 46 47  1  0  0  0  0
 49 47  1  0  0  0  0
 49 48  1  6  0  0  0
 51 54  1  0  0  0  0
 51 49  1  1  0  0  0
 52 53  1  0  0  0  0
 53 51  1  0  0  0  0
 53 54  1  0  0  0  0
 53 50  1  0  0  0  0
 57 56  1  6  0  0  0
 57 55  1  0  0  0  0
 58 61  1  0  0  0  0
 59 61  1  0  0  0  0
 60 62  1  0  0  0  0
 60 58  1  0  0  0  0
 62 57  1  0  0  0  0
 62 59  1  0  0  0  0
 63 64  1  0  0  0  0
M  END
>  <MODEL>
9

>  <REMARK>
 VINA RESULT:      -3.8      3.077      8.708
  Name = 
  24 active torsions:
  status: ('A' for Active; 'I' for Inactive)
    1  A    between atoms: C_1  and  C_10
    2  A    between atoms: C_1  and  C_38
    3  A    between atoms: C_3  and  C_6
    4  A    between atoms: C_3  and  C_15
    5  A    between atoms: C_5  and  O_35
    6  A    between atoms: C_5  and  C_36
    7  A    between atoms: C_6  and  O_29
    8  A    between atoms: C_6  and  C_53
    9  A    between atoms: O_9  and  N_27
   10  A    between atoms: C_12  and  C_58
   11  A    between atoms: C_12  and  C_63
   12  A    between atoms: C_13  and  C_26
   13  A    between atoms: C_13  and  C_60
   14  A    between atoms: C_15  and  N_27
   15  A    between atoms: C_18  and  C_22
   16  A    between atoms: C_18  and  C_59
   17  A    between atoms: C_19  and  C_25
   18  A    between atoms: C_22  and  N_40
   19  A    between atoms: C_24  and  C_60
   20  A    between atoms: C_25  and  C_32
   21  A    between atoms: C_26  and  C_57
   22  A    between atoms: C_31  and  C_62
   23  A    between atoms: C_53  and  C_59
   24  A    between atoms: C_57  and  C_59
                            x       y       z     vdW  Elec       q    Type
                         _______ _______ _______ _____ _____    ______ ____

>  <TORSDO>
F 24

$$$$
