=
 OpenBabel11062410593D

 49 54  0  0  1  0  0  0  0  0999 V2000
  188.8480  177.2000  141.2650 C   0  0  2  0  0  3  0  0  0  0  0  0
  185.0360  177.9790  138.4420 O   0  0  0  0  0  0  0  0  0  0  0  0
  187.3590  178.1470  138.6400 N   0  0  0  0  0  0  0  0  0  0  0  0
  187.3100  178.5540  139.9780 N   0  0  0  0  0  2  0  0  0  0  0  0
  186.2800  176.9580  136.7440 N   0  0  0  0  0  2  0  0  0  0  0  0
  186.1720  177.7170  137.9550 C   0  0  0  0  0  0  0  0  0  0  0  0
  188.9960  179.1350  136.8070 Cl  0  0  0  0  0  0  0  0  0  0  0  0
  190.4190  177.1020  139.4890 O   0  0  0  0  0  0  0  0  0  0  0  0
  188.6860  177.9550  138.0980 C   0  0  1  0  0  3  0  0  0  0  0  0
  189.6040  178.2270  139.2640 C   0  0  1  0  0  3  0  0  0  0  0  0
  190.1860  176.6900  140.8120 C   0  0  0  0  0  2  0  0  0  0  0  0
  188.6870  178.4520  140.4600 C   0  0  2  0  0  3  0  0  0  0  0  0
  185.1160  176.4210  136.0530 C   0  0  0  0  0  2  0  0  0  0  0  0
  184.6370  175.1580  136.7450 C   0  0  0  0  0  2  0  0  0  0  0  0
  182.7500  173.5370  136.7760 C   0  0  1  0  0  3  0  0  0  0  0  0
  183.6390  174.4090  135.8730 C   0  0  1  0  0  3  0  0  0  0  0  0
  182.1910  174.8110  136.1420 C   0  0  1  0  0  0  0  0  0  0  0  0
  182.9250  171.8300  135.0810 O   0  0  0  0  0  0  0  0  0  0  0  0
  180.3880  171.9790  137.7240 C   0  0  0  0  0  1  0  0  0  0  0  0
  181.1510  171.5600  136.5470 N   0  0  0  0  0  2  0  0  0  0  0  0
  182.2950  172.2780  136.0770 C   0  0  0  0  0  0  0  0  0  0  0  0
  181.2770  174.6620  135.0300 N   0  0  0  0  0  0  0  0  0  0  0  0
  180.0930  174.6540  135.2160 O   0  0  0  0  0  0  0  0  0  0  0  0
  181.9220  175.9050  137.0750 N   0  0  0  0  0  2  0  0  0  0  0  0
  182.3390  175.9340  139.4940 C   0  0  0  0  0  2  0  0  0  0  0  0
  179.9940  175.6050  138.5400 C   0  0  0  0  0  2  0  0  0  0  0  0
  181.7070  177.2030  140.0700 C   0  0  0  0  0  2  0  0  0  0  0  0
  181.4950  175.3480  138.3480 C   0  0  1  0  0  3  0  0  0  0  0  0
  180.2510  176.9590  140.4970 C   0  0  0  0  0  2  0  0  0  0  0  0
  179.6880  175.7050  139.9660 N   0  0  0  0  0  2  0  0  0  0  0  0
  188.8850  177.4640  142.6430 O   0  0  0  0  0  0  0  0  0  0  0  0
  188.6640  176.3090  143.2540 O   0  0  0  0  0  0  0  0  0  0  0  0
  187.4280  176.4350  143.9110 C   0  0  0  0  0  2  0  0  0  0  0  0
  185.2120  178.7360  147.0390 O   0  0  0  0  0  0  0  0  0  0  0  0
  184.9390  178.5130  144.6530 C   0  0  0  0  0  0  0  0  0  0  0  0
  183.5810  178.9260  144.5120 N   0  0  0  0  0  2  0  0  0  0  0  0
  185.6730  178.5150  145.8870 C   0  0  0  0  0  0  0  0  0  0  0  0
  187.0600  177.9010  144.1560 C   0  0  2  0  0  3  0  0  0  0  0  0
  187.0140  178.1730  145.5980 N   0  0  0  0  0  0  0  0  0  0  0  0
  185.6990  178.1760  143.6620 N   0  0  0  0  0  0  0  0  0  0  0  0
  188.0660  177.8900  146.5700 C   0  0  0  0  0  0  0  0  0  0  0  0
  187.7800  178.4290  147.9530 C   0  0  0  0  0  2  0  0  0  0  0  0
  187.7080  176.9290  147.6760 C   0  0  0  0  0  2  0  0  0  0  0  0
  189.5160  177.9970  146.1380 C   0  0  0  0  0  2  0  0  0  0  0  0
  190.3400  176.8810  146.7530 C   0  0  0  0  0  1  0  0  0  0  0  0
  182.9330  179.0170  143.2080 C   0  0  0  0  0  2  0  0  0  0  0  0
  181.4550  179.1310  143.3830 C   0  0  0  0  0  0  0  0  0  0  0  0
  180.7410  180.0560  142.6290 O   0  0  0  0  0  0  0  0  0  0  0  0
  180.8580  178.4070  144.2160 O   0  0  0  0  0  1  0  0  0  0  0  0
  1 31  1  1  0  0  0
  3  4  1  0  0  0  0
  5  6  1  0  0  0  0
  6  2  2  0  0  0  0
  6  3  1  0  0  0  0
  8 11  1  0  0  0  0
  9  7  1  6  0  0  0
  9  3  1  0  0  0  0
  9 10  1  0  0  0  0
 10  8  1  1  0  0  0
 10 12  1  0  0  0  0
 11  1  1  0  0  0  0
 12  4  1  6  0  0  0
 12  1  1  0  0  0  0
 13  5  1  0  0  0  0
 13 14  1  0  0  0  0
 15 21  1  6  0  0  0
 16 17  1  0  0  0  0
 16 14  1  1  0  0  0
 16 15  1  0  0  0  0
 17 22  1  6  0  0  0
 17 15  1  0  0  0  0
 17 24  1  0  0  0  0
 18 21  2  0  0  0  0
 20 19  1  0  0  0  0
 21 20  1  0  0  0  0
 22 23  2  0  0  0  0
 25 27  1  0  0  0  0
 26 30  1  0  0  0  0
 27 29  1  0  0  0  0
 28 24  1  6  0  0  0
 28 26  1  0  0  0  0
 28 25  1  0  0  0  0
 30 29  1  0  0  0  0
 31 32  1  0  0  0  0
 32 33  1  0  0  0  0
 35 37  1  0  0  0  0
 36 35  1  0  0  0  0
 37 34  2  0  0  0  0
 38 33  1  1  0  0  0
 38 39  1  0  0  0  0
 39 37  1  0  0  0  0
 39 41  1  0  0  0  0
 40 38  1  0  0  0  0
 40 35  2  0  0  0  0
 41 43  1  0  0  0  0
 41 42  1  0  0  0  0
 43 42  1  0  0  0  0
 44 41  1  0  0  0  0
 44 45  1  0  0  0  0
 46 47  1  0  0  0  0
 46 36  1  0  0  0  0
 47 49  1  0  0  0  0
 48 47  2  0  0  0  0
M  END
>  <MODEL>
1

>  <REMARK>
 VINA RESULT:      -7.8      0.000      0.000
  Name = 
  15 active torsions:
  status: ('A' for Active; 'I' for Inactive)
    1  A    between atoms: C_1  and  O_23
    2  A    between atoms: C_5  and  C_20
    3  A    between atoms: C_6  and  N_9
    4  A    between atoms: C_6  and  C_17
    5  A    between atoms: C_11  and  C_18
    6  A    between atoms: C_11  and  N_21
    7  A    between atoms: C_12  and  C_40
    8  A    between atoms: C_19  and  N_27
    9  A    between atoms: C_19  and  C_28
   10  A    between atoms: O_23  and  O_24
   11  A    between atoms: O_24  and  C_40
   12  A    between atoms: C_25  and  C_28
   13  A    between atoms: C_30  and  N_37
   14  A    between atoms: N_37  and  C_41
   15  A    between atoms: N_38  and  C_41
                            x       y       z     vdW  Elec       q    Type
                         _______ _______ _______ _____ _____    ______ ____

>  <TORSDO>
F 15

$$$$
=
 OpenBabel11062410593D

 49 54  0  0  1  0  0  0  0  0999 V2000
  189.0540  177.3100  139.8740 C   0  0  2  0  0  3  0  0  0  0  0  0
  185.1910  177.8110  137.0590 O   0  0  0  0  0  0  0  0  0  0  0  0
  187.5230  177.6860  137.1320 N   0  0  0  0  0  0  0  0  0  0  0  0
  187.6220  178.4560  138.2970 N   0  0  0  0  0  2  0  0  0  0  0  0
  186.1670  176.1830  135.6930 N   0  0  0  0  0  2  0  0  0  0  0  0
  186.2450  177.2590  136.6360 C   0  0  0  0  0  0  0  0  0  0  0  0
  189.1440  177.8670  135.0450 Cl  0  0  0  0  0  0  0  0  0  0  0  0
  190.4710  176.4860  138.1570 O   0  0  0  0  0  0  0  0  0  0  0  0
  188.7720  177.1580  136.6300 C   0  0  1  0  0  3  0  0  0  0  0  0
  189.7980  177.6090  137.6400 C   0  0  1  0  0  3  0  0  0  0  0  0
  190.2790  176.5020  139.5490 C   0  0  0  0  0  2  0  0  0  0  0  0
  189.0040  178.2940  138.7470 C   0  0  2  0  0  3  0  0  0  0  0  0
  184.8970  175.6490  135.2210 C   0  0  0  0  0  2  0  0  0  0  0  0
  184.2530  174.8040  136.3040 C   0  0  0  0  0  2  0  0  0  0  0  0
  182.1000  173.8570  137.1180 C   0  0  1  0  0  3  0  0  0  0  0  0
  182.8680  174.3390  135.8750 C   0  0  1  0  0  3  0  0  0  0  0  0
  181.7440  175.1890  136.4590 C   0  0  1  0  0  0  0  0  0  0  0  0
  181.3310  171.9800  135.8140 O   0  0  0  0  0  0  0  0  0  0  0  0
  179.6640  173.3670  138.7700 C   0  0  0  0  0  1  0  0  0  0  0  0
  179.9590  172.5510  137.5920 N   0  0  0  0  0  2  0  0  0  0  0  0
  181.1250  172.7520  136.7890 C   0  0  0  0  0  0  0  0  0  0  0  0
  180.5250  175.2480  135.6810 N   0  0  0  0  0  0  0  0  0  0  0  0
  179.9080  176.2710  135.5980 O   0  0  0  0  0  0  0  0  0  0  0  0
  182.0870  176.3800  137.2360 N   0  0  0  0  0  2  0  0  0  0  0  0
  182.9340  176.4420  139.5390 C   0  0  0  0  0  2  0  0  0  0  0  0
  180.5120  177.0260  138.9840 C   0  0  0  0  0  2  0  0  0  0  0  0
  182.9690  177.9030  139.9930 C   0  0  0  0  0  2  0  0  0  0  0  0
  181.7270  176.1590  138.6270 C   0  0  1  0  0  3  0  0  0  0  0  0
  181.6430  178.3170  140.6520 C   0  0  0  0  0  2  0  0  0  0  0  0
  180.5460  177.3650  140.4050 N   0  0  0  0  0  2  0  0  0  0  0  0
  189.2230  177.9420  141.1150 O   0  0  0  0  0  0  0  0  0  0  0  0
  188.0670  177.8310  141.7560 O   0  0  0  0  0  0  0  0  0  0  0  0
  188.2780  178.3380  143.0490 C   0  0  0  0  0  2  0  0  0  0  0  0
  187.6270  178.2030  147.4700 O   0  0  0  0  0  0  0  0  0  0  0  0
  189.3450  177.3170  146.0300 C   0  0  0  0  0  0  0  0  0  0  0  0
  190.3970  177.1260  146.9740 N   0  0  0  0  0  2  0  0  0  0  0  0
  188.0230  177.7720  146.3550 C   0  0  0  0  0  0  0  0  0  0  0  0
  188.1380  177.2480  144.1170 C   0  0  2  0  0  3  0  0  0  0  0  0
  187.2360  177.7020  145.1820 N   0  0  0  0  0  0  0  0  0  0  0  0
  189.4350  177.0100  144.7760 N   0  0  0  0  0  0  0  0  0  0  0  0
  185.8840  178.2240  145.0120 C   0  0  0  0  0  0  0  0  0  0  0  0
  184.9870  177.9950  146.2070 C   0  0  0  0  0  2  0  0  0  0  0  0
  185.5090  179.3940  145.8870 C   0  0  0  0  0  2  0  0  0  0  0  0
  185.1980  178.0700  143.6690 C   0  0  0  0  0  2  0  0  0  0  0  0
  183.7900  178.6350  143.7190 C   0  0  0  0  0  1  0  0  0  0  0  0
  191.6800  176.5440  146.5950 C   0  0  0  0  0  2  0  0  0  0  0  0
  192.2500  175.7800  147.7430 C   0  0  0  0  0  0  0  0  0  0  0  0
  193.1960  176.3770  148.5680 O   0  0  0  0  0  1  0  0  0  0  0  0
  191.8900  174.5960  147.9570 O   0  0  0  0  0  0  0  0  0  0  0  0
  1 31  1  1  0  0  0
  3  4  1  0  0  0  0
  5  6  1  0  0  0  0
  6  2  2  0  0  0  0
  6  3  1  0  0  0  0
  8 11  1  0  0  0  0
  9  7  1  6  0  0  0
  9  3  1  0  0  0  0
  9 10  1  0  0  0  0
 10  8  1  1  0  0  0
 10 12  1  0  0  0  0
 11  1  1  0  0  0  0
 12  4  1  6  0  0  0
 12  1  1  0  0  0  0
 13  5  1  0  0  0  0
 13 14  1  0  0  0  0
 15 21  1  6  0  0  0
 16 14  1  1  0  0  0
 16 17  1  0  0  0  0
 16 15  1  0  0  0  0
 17 22  1  6  0  0  0
 17 15  1  0  0  0  0
 17 24  1  0  0  0  0
 18 21  2  0  0  0  0
 20 19  1  0  0  0  0
 21 20  1  0  0  0  0
 23 22  2  0  0  0  0
 25 27  1  0  0  0  0
 26 30  1  0  0  0  0
 27 29  1  0  0  0  0
 28 24  1  6  0  0  0
 28 26  1  0  0  0  0
 28 25  1  0  0  0  0
 30 29  1  0  0  0  0
 31 32  1  0  0  0  0
 32 33  1  0  0  0  0
 35 37  1  0  0  0  0
 35 36  1  0  0  0  0
 37 34  2  0  0  0  0
 38 33  1  6  0  0  0
 38 40  1  0  0  0  0
 38 39  1  0  0  0  0
 39 37  1  0  0  0  0
 40 35  2  0  0  0  0
 41 39  1  0  0  0  0
 41 43  1  0  0  0  0
 41 42  1  0  0  0  0
 43 42  1  0  0  0  0
 44 45  1  0  0  0  0
 44 41  1  0  0  0  0
 46 36  1  0  0  0  0
 46 47  1  0  0  0  0
 47 49  2  0  0  0  0
 47 48  1  0  0  0  0
M  END
>  <MODEL>
2

>  <REMARK>
 VINA RESULT:      -7.0      2.109      4.271
  Name = 
  15 active torsions:
  status: ('A' for Active; 'I' for Inactive)
    1  A    between atoms: C_1  and  O_23
    2  A    between atoms: C_5  and  C_20
    3  A    between atoms: C_6  and  N_9
    4  A    between atoms: C_6  and  C_17
    5  A    between atoms: C_11  and  C_18
    6  A    between atoms: C_11  and  N_21
    7  A    between atoms: C_12  and  C_40
    8  A    between atoms: C_19  and  N_27
    9  A    between atoms: C_19  and  C_28
   10  A    between atoms: O_23  and  O_24
   11  A    between atoms: O_24  and  C_40
   12  A    between atoms: C_25  and  C_28
   13  A    between atoms: C_30  and  N_37
   14  A    between atoms: N_37  and  C_41
   15  A    between atoms: N_38  and  C_41
                            x       y       z     vdW  Elec       q    Type
                         _______ _______ _______ _____ _____    ______ ____

>  <TORSDO>
F 15

$$$$
=
 OpenBabel11062410593D

 49 54  0  0  1  0  0  0  0  0999 V2000
  189.3070  177.5920  140.4830 C   0  0  2  0  0  3  0  0  0  0  0  0
  186.2790  178.3930  136.8380 O   0  0  0  0  0  0  0  0  0  0  0  0
  188.4040  177.6390  137.4530 N   0  0  0  0  0  0  0  0  0  0  0  0
  188.5790  178.6310  138.4240 N   0  0  0  0  0  2  0  0  0  0  0  0
  186.8560  176.2510  136.0930 N   0  0  0  0  0  2  0  0  0  0  0  0
  187.1440  177.4730  136.7850 C   0  0  0  0  0  0  0  0  0  0  0  0
  190.2820  176.7910  135.7880 Cl  0  0  0  0  0  0  0  0  0  0  0  0
  190.6100  175.9750  139.3340 O   0  0  0  0  0  0  0  0  0  0  0  0
  189.4700  176.6650  137.3630 C   0  0  1  0  0  3  0  0  0  0  0  0
  190.4270  177.0620  138.4600 C   0  0  1  0  0  3  0  0  0  0  0  0
  190.2330  176.4150  140.6140 C   0  0  0  0  0  2  0  0  0  0  0  0
  189.7490  178.2120  139.1940 C   0  0  2  0  0  3  0  0  0  0  0  0
  185.5650  175.9920  135.4710 C   0  0  0  0  0  2  0  0  0  0  0  0
  184.7040  175.1470  136.3920 C   0  0  0  0  0  2  0  0  0  0  0  0
  182.5310  176.2570  136.8770 C   0  0  1  0  0  3  0  0  0  0  0  0
  183.9610  176.0230  137.3910 C   0  0  1  0  0  3  0  0  0  0  0  0
  182.7830  175.3100  138.0500 C   0  0  1  0  0  0  0  0  0  0  0  0
  182.7660  178.5250  137.6650 O   0  0  0  0  0  0  0  0  0  0  0  0
  179.6080  176.8560  136.8390 C   0  0  0  0  0  1  0  0  0  0  0  0
  180.5810  177.8530  137.2890 N   0  0  0  0  0  2  0  0  0  0  0  0
  181.9880  177.6010  137.3040 C   0  0  0  0  0  0  0  0  0  0  0  0
  182.4250  175.7720  139.3740 N   0  0  0  0  0  0  0  0  0  0  0  0
  181.3700  175.4720  139.8550 O   0  0  0  0  0  0  0  0  0  0  0  0
  182.5630  173.8930  137.7640 N   0  0  0  0  0  2  0  0  0  0  0  0
  181.8250  172.8910  135.6490 C   0  0  0  0  0  2  0  0  0  0  0  0
  180.2300  173.1940  137.6180 C   0  0  0  0  0  2  0  0  0  0  0  0
  181.5320  171.4100  135.9010 C   0  0  0  0  0  2  0  0  0  0  0  0
  181.4360  173.7620  136.8560 C   0  0  1  0  0  3  0  0  0  0  0  0
  180.0680  171.1920  136.3170 C   0  0  0  0  0  2  0  0  0  0  0  0
  179.3790  172.4360  136.7040 N   0  0  0  0  0  2  0  0  0  0  0  0
  189.4900  178.4590  141.5720 O   0  0  0  0  0  0  0  0  0  0  0  0
  189.0440  177.8190  142.6440 O   0  0  0  0  0  0  0  0  0  0  0  0
  187.6430  177.8070  142.5470 C   0  0  0  0  0  2  0  0  0  0  0  0
  185.9120  178.8570  146.5330 O   0  0  0  0  0  0  0  0  0  0  0  0
  187.6800  177.3690  145.8450 C   0  0  0  0  0  0  0  0  0  0  0  0
  188.3940  177.2350  147.0720 N   0  0  0  0  0  2  0  0  0  0  0  0
  186.4600  178.1080  145.6810 C   0  0  0  0  0  0  0  0  0  0  0  0
  186.9980  177.0470  143.7110 C   0  0  2  0  0  3  0  0  0  0  0  0
  185.9920  177.8920  144.3650 N   0  0  0  0  0  0  0  0  0  0  0  0
  188.0030  176.7580  144.7500 N   0  0  0  0  0  0  0  0  0  0  0  0
  184.8800  178.5810  143.7150 C   0  0  0  0  0  0  0  0  0  0  0  0
  183.7970  179.0260  144.6710 C   0  0  0  0  0  2  0  0  0  0  0  0
  184.7330  180.0480  144.0310 C   0  0  0  0  0  2  0  0  0  0  0  0
  184.3740  178.0680  142.3820 C   0  0  0  0  0  2  0  0  0  0  0  0
  184.5790  179.1080  141.2960 C   0  0  0  0  0  1  0  0  0  0  0  0
  189.5620  176.3690  147.1960 C   0  0  0  0  0  2  0  0  0  0  0  0
  190.7990  177.1330  146.8640 C   0  0  0  0  0  0  0  0  0  0  0  0
  191.8490  177.1780  147.7740 O   0  0  0  0  0  1  0  0  0  0  0  0
  190.8910  177.7470  145.7720 O   0  0  0  0  0  0  0  0  0  0  0  0
  1 11  1  0  0  0  0
  1 31  1  1  0  0  0
  3  4  1  0  0  0  0
  5  6  1  0  0  0  0
  6  2  2  0  0  0  0
  6  3  1  0  0  0  0
  8 11  1  0  0  0  0
  9  7  1  6  0  0  0
  9  3  1  0  0  0  0
  9 10  1  0  0  0  0
 10 12  1  0  0  0  0
 10  8  1  1  0  0  0
 12  4  1  6  0  0  0
 12  1  1  0  0  0  0
 13  5  1  0  0  0  0
 13 14  1  0  0  0  0
 15 21  1  1  0  0  0
 15 16  1  0  0  0  0
 15 17  1  0  0  0  0
 16 14  1  6  0  0  0
 16 17  1  0  0  0  0
 17 24  1  6  0  0  0
 17 22  1  0  0  0  0
 19 20  1  0  0  0  0
 20 21  1  0  0  0  0
 21 18  2  0  0  0  0
 22 23  2  0  0  0  0
 25 27  1  0  0  0  0
 25 28  1  0  0  0  0
 27 29  1  0  0  0  0
 28 26  1  0  0  0  0
 28 24  1  1  0  0  0
 29 30  1  0  0  0  0
 30 26  1  0  0  0  0
 31 32  1  0  0  0  0
 33 32  1  0  0  0  0
 35 36  1  0  0  0  0
 36 46  1  0  0  0  0
 37 35  1  0  0  0  0
 37 34  2  0  0  0  0
 38 33  1  6  0  0  0
 38 39  1  0  0  0  0
 38 40  1  0  0  0  0
 39 37  1  0  0  0  0
 40 35  2  0  0  0  0
 41 43  1  0  0  0  0
 41 39  1  0  0  0  0
 41 42  1  0  0  0  0
 43 42  1  0  0  0  0
 44 41  1  0  0  0  0
 45 44  1  0  0  0  0
 47 46  1  0  0  0  0
 47 48  1  0  0  0  0
 49 47  2  0  0  0  0
M  END
>  <MODEL>
3

>  <REMARK>
 VINA RESULT:      -6.6      2.275      4.719
  Name = 
  15 active torsions:
  status: ('A' for Active; 'I' for Inactive)
    1  A    between atoms: C_1  and  O_23
    2  A    between atoms: C_5  and  C_20
    3  A    between atoms: C_6  and  N_9
    4  A    between atoms: C_6  and  C_17
    5  A    between atoms: C_11  and  C_18
    6  A    between atoms: C_11  and  N_21
    7  A    between atoms: C_12  and  C_40
    8  A    between atoms: C_19  and  N_27
    9  A    between atoms: C_19  and  C_28
   10  A    between atoms: O_23  and  O_24
   11  A    between atoms: O_24  and  C_40
   12  A    between atoms: C_25  and  C_28
   13  A    between atoms: C_30  and  N_37
   14  A    between atoms: N_37  and  C_41
   15  A    between atoms: N_38  and  C_41
                            x       y       z     vdW  Elec       q    Type
                         _______ _______ _______ _____ _____    ______ ____

>  <TORSDO>
F 15

$$$$
=
 OpenBabel11062410593D

 49 54  0  0  1  0  0  0  0  0999 V2000
  181.7260  176.4710  137.6700 C   0  0  2  0  0  3  0  0  0  0  0  0
  184.5930  180.0220  139.1780 O   0  0  0  0  0  0  0  0  0  0  0  0
  182.7990  178.6260  139.7220 N   0  0  0  0  0  0  0  0  0  0  0  0
  182.2270  178.7060  138.4470 N   0  0  0  0  0  2  0  0  0  0  0  0
  184.8240  178.7870  141.1520 N   0  0  0  0  0  2  0  0  0  0  0  0
  184.0910  179.1920  139.9890 C   0  0  0  0  0  0  0  0  0  0  0  0
  181.4500  178.6630  142.0010 Cl  0  0  0  0  0  0  0  0  0  0  0  0
  181.1330  175.7300  139.8450 O   0  0  0  0  0  0  0  0  0  0  0  0
  182.1300  177.7370  140.6460 C   0  0  1  0  0  3  0  0  0  0  0  0
  181.0120  177.1320  139.8340 C   0  0  1  0  0  3  0  0  0  0  0  0
  181.2390  175.3210  138.5050 C   0  0  0  0  0  2  0  0  0  0  0  0
  181.2070  177.6600  138.4170 C   0  0  2  0  0  3  0  0  0  0  0  0
  186.1730  179.2620  141.4290 C   0  0  0  0  0  2  0  0  0  0  0  0
  186.7680  178.4870  142.5910 C   0  0  0  0  0  2  0  0  0  0  0  0
  189.0260  177.9520  141.6930 C   0  0  1  0  0  3  0  0  0  0  0  0
  187.6620  177.3620  142.0890 C   0  0  1  0  0  3  0  0  0  0  0  0
  188.8830  177.1290  142.9740 C   0  0  1  0  0  0  0  0  0  0  0  0
  188.9630  176.6150  139.6870 O   0  0  0  0  0  0  0  0  0  0  0  0
  191.9900  177.7750  141.3990 C   0  0  0  0  0  1  0  0  0  0  0  0
  191.0930  177.1060  140.4570 N   0  0  0  0  0  2  0  0  0  0  0  0
  189.6690  177.1840  140.5630 C   0  0  0  0  0  0  0  0  0  0  0  0
  189.4200  175.7850  142.9710 N   0  0  0  0  0  0  0  0  0  0  0  0
  190.5480  175.5830  143.3180 O   0  0  0  0  0  0  0  0  0  0  0  0
  189.0110  177.8870  144.2180 N   0  0  0  0  0  2  0  0  0  0  0  0
  189.4380  176.8720  146.4120 C   0  0  0  0  0  2  0  0  0  0  0  0
  187.1670  177.8750  145.8170 C   0  0  0  0  0  2  0  0  0  0  0  0
  189.4280  177.9860  147.4610 C   0  0  0  0  0  2  0  0  0  0  0  0
  188.4060  177.1280  145.3000 C   0  0  1  0  0  3  0  0  0  0  0  0
  188.0170  178.2070  148.0290 C   0  0  0  0  0  2  0  0  0  0  0  0
  186.9580  177.5670  147.2290 N   0  0  0  0  0  2  0  0  0  0  0  0
  181.1790  176.3830  136.3810 O   0  0  0  0  0  0  0  0  0  0  0  0
  182.2020  176.3130  135.5400 O   0  0  0  0  0  0  0  0  0  0  0  0
  182.1720  175.0240  134.9820 C   0  0  0  0  0  2  0  0  0  0  0  0
  184.8710  172.9920  137.9100 O   0  0  0  0  0  0  0  0  0  0  0  0
  185.1380  174.9190  136.4850 C   0  0  0  0  0  0  0  0  0  0  0  0
  186.2220  175.5740  137.1400 N   0  0  0  0  0  2  0  0  0  0  0  0
  184.5900  173.6490  136.8720 C   0  0  0  0  0  0  0  0  0  0  0  0
  183.5640  174.3860  134.9480 C   0  0  2  0  0  3  0  0  0  0  0  0
  183.6300  173.2750  135.9050 N   0  0  0  0  0  0  0  0  0  0  0  0
  184.5800  175.3530  135.4010 N   0  0  0  0  0  0  0  0  0  0  0  0
  182.7090  172.1440  135.9890 C   0  0  0  0  0  0  0  0  0  0  0  0
  182.8220  171.1790  134.8320 C   0  0  0  0  0  2  0  0  0  0  0  0
  183.3370  170.7920  136.2160 C   0  0  0  0  0  2  0  0  0  0  0  0
  181.2940  172.3820  136.4780 C   0  0  0  0  0  2  0  0  0  0  0  0
  180.4400  171.1460  136.2620 C   0  0  0  0  0  1  0  0  0  0  0  0
  186.8100  176.8040  136.6200 C   0  0  0  0  0  2  0  0  0  0  0  0
  188.0740  176.4940  135.8900 C   0  0  0  0  0  0  0  0  0  0  0  0
  189.2940  176.8930  136.4220 O   0  0  0  0  0  1  0  0  0  0  0  0
  188.0380  175.8870  134.7910 O   0  0  0  0  0  0  0  0  0  0  0  0
  1 31  1  6  0  0  0
  1 12  1  0  0  0  0
  1 11  1  0  0  0  0
  2  6  2  0  0  0  0
  3  6  1  0  0  0  0
  3  9  1  0  0  0  0
  4  3  1  0  0  0  0
  5 13  1  0  0  0  0
  6  5  1  0  0  0  0
  9  7  1  1  0  0  0
 10  8  1  6  0  0  0
 10  9  1  0  0  0  0
 11  8  1  0  0  0  0
 12  4  1  1  0  0  0
 12 10  1  0  0  0  0
 13 14  1  0  0  0  0
 15 21  1  6  0  0  0
 15 16  1  0  0  0  0
 15 17  1  0  0  0  0
 16 14  1  1  0  0  0
 16 17  1  0  0  0  0
 17 22  1  6  0  0  0
 17 24  1  0  0  0  0
 18 21  2  0  0  0  0
 20 21  1  0  0  0  0
 20 19  1  0  0  0  0
 22 23  2  0  0  0  0
 25 27  1  0  0  0  0
 26 30  1  0  0  0  0
 27 29  1  0  0  0  0
 28 24  1  6  0  0  0
 28 26  1  0  0  0  0
 28 25  1  0  0  0  0
 30 29  1  0  0  0  0
 32 31  1  0  0  0  0
 33 32  1  0  0  0  0
 35 37  1  0  0  0  0
 35 36  1  0  0  0  0
 37 34  2  0  0  0  0
 38 33  1  1  0  0  0
 38 40  1  0  0  0  0
 38 39  1  0  0  0  0
 39 41  1  0  0  0  0
 39 37  1  0  0  0  0
 40 35  2  0  0  0  0
 41 43  1  0  0  0  0
 41 44  1  0  0  0  0
 42 41  1  0  0  0  0
 42 43  1  0  0  0  0
 45 44  1  0  0  0  0
 46 36  1  0  0  0  0
 47 48  1  0  0  0  0
 47 46  1  0  0  0  0
 49 47  2  0  0  0  0
M  END
>  <MODEL>
4

>  <REMARK>
 VINA RESULT:      -6.4      2.810     10.085
  Name = 
  15 active torsions:
  status: ('A' for Active; 'I' for Inactive)
    1  A    between atoms: C_1  and  O_23
    2  A    between atoms: C_5  and  C_20
    3  A    between atoms: C_6  and  N_9
    4  A    between atoms: C_6  and  C_17
    5  A    between atoms: C_11  and  C_18
    6  A    between atoms: C_11  and  N_21
    7  A    between atoms: C_12  and  C_40
    8  A    between atoms: C_19  and  N_27
    9  A    between atoms: C_19  and  C_28
   10  A    between atoms: O_23  and  O_24
   11  A    between atoms: O_24  and  C_40
   12  A    between atoms: C_25  and  C_28
   13  A    between atoms: C_30  and  N_37
   14  A    between atoms: N_37  and  C_41
   15  A    between atoms: N_38  and  C_41
                            x       y       z     vdW  Elec       q    Type
                         _______ _______ _______ _____ _____    ______ ____

>  <TORSDO>
F 15

$$$$
=
 OpenBabel11062410593D

 49 54  0  0  1  0  0  0  0  0999 V2000
  185.3220  178.3870  141.2920 C   0  0  2  0  0  3  0  0  0  0  0  0
  180.6410  177.3410  141.5950 O   0  0  0  0  0  0  0  0  0  0  0  0
  182.2670  178.6180  140.5070 N   0  0  0  0  0  0  0  0  0  0  0  0
  182.9850  178.8760  141.6800 N   0  0  0  0  0  2  0  0  0  0  0  0
  180.6900  177.1550  139.2640 N   0  0  0  0  0  2  0  0  0  0  0  0
  181.1660  177.6970  140.5030 C   0  0  0  0  0  0  0  0  0  0  0  0
  181.8120  180.3800  138.5820 Cl  0  0  0  0  0  0  0  0  0  0  0  0
  185.2270  179.1690  139.0530 O   0  0  0  0  0  0  0  0  0  0  0  0
  182.8590  179.1330  139.2920 C   0  0  1  0  0  3  0  0  0  0  0  0
  184.1540  179.7580  139.7470 C   0  0  1  0  0  3  0  0  0  0  0  0
  186.0890  178.6260  140.0220 C   0  0  0  0  0  2  0  0  0  0  0  0
  184.2590  179.4390  141.2340 C   0  0  2  0  0  3  0  0  0  0  0  0
  179.6350  176.1530  139.2040 C   0  0  0  0  0  2  0  0  0  0  0  0
  179.9540  175.1260  138.1330 C   0  0  0  0  0  2  0  0  0  0  0  0
  182.2550  174.3140  137.6440 C   0  0  1  0  0  3  0  0  0  0  0  0
  181.2600  175.4670  137.4280 C   0  0  1  0  0  3  0  0  0  0  0  0
  181.5870  174.5130  136.2830 C   0  0  1  0  0  0  0  0  0  0  0  0
  183.9500  176.0070  137.9290 O   0  0  0  0  0  0  0  0  0  0  0  0
  184.5550  172.4640  137.2060 C   0  0  0  0  0  1  0  0  0  0  0  0
  184.7650  173.8920  137.4530 N   0  0  0  0  0  2  0  0  0  0  0  0
  183.6850  174.8000  137.6800 C   0  0  0  0  0  0  0  0  0  0  0  0
  182.3940  175.0620  135.2140 N   0  0  0  0  0  0  0  0  0  0  0  0
  182.1320  176.1320  134.7460 O   0  0  0  0  0  0  0  0  0  0  0  0
  180.6110  173.4890  135.9130 N   0  0  0  0  0  2  0  0  0  0  0  0
  180.0030  171.4130  137.0730 C   0  0  0  0  0  2  0  0  0  0  0  0
  181.6330  171.4240  135.1090 C   0  0  0  0  0  2  0  0  0  0  0  0
  179.1690  170.5600  136.1140 C   0  0  0  0  0  2  0  0  0  0  0  0
  181.1060  172.1890  136.3320 C   0  0  1  0  0  3  0  0  0  0  0  0
  180.0600  169.6280  135.2760 C   0  0  0  0  0  2  0  0  0  0  0  0
  181.4890  169.9860  135.3240 N   0  0  0  0  0  2  0  0  0  0  0  0
  186.1730  178.5610  142.3950 O   0  0  0  0  0  0  0  0  0  0  0  0
  186.9350  177.4780  142.4580 O   0  0  0  0  0  0  0  0  0  0  0  0
  188.2570  177.9080  142.2490 C   0  0  0  0  0  2  0  0  0  0  0  0
  192.3560  177.6400  140.4860 O   0  0  0  0  0  0  0  0  0  0  0  0
  190.1550  177.1780  139.6170 C   0  0  0  0  0  0  0  0  0  0  0  0
  190.4140  177.2440  138.2160 N   0  0  0  0  0  2  0  0  0  0  0  0
  191.1500  177.3110  140.6430 C   0  0  0  0  0  0  0  0  0  0  0  0
  189.1120  176.8210  141.5930 C   0  0  2  0  0  3  0  0  0  0  0  0
  190.5310  177.0530  141.8870 N   0  0  0  0  0  0  0  0  0  0  0  0
  188.9990  176.8970  140.1250 N   0  0  0  0  0  0  0  0  0  0  0  0
  191.1250  177.2410  143.2080 C   0  0  0  0  0  0  0  0  0  0  0  0
  190.2890  176.6850  144.3370 C   0  0  0  0  0  2  0  0  0  0  0  0
  191.5820  175.9910  143.9150 C   0  0  0  0  0  2  0  0  0  0  0  0
  191.8200  178.5510  143.5220 C   0  0  0  0  0  2  0  0  0  0  0  0
  190.8840  179.4880  144.2640 C   0  0  0  0  0  1  0  0  0  0  0  0
  189.3770  176.9790  137.2240 C   0  0  0  0  0  2  0  0  0  0  0  0
  188.5940  178.2220  136.9640 C   0  0  0  0  0  0  0  0  0  0  0  0
  187.2530  178.1320  136.6100 O   0  0  0  0  0  0  0  0  0  0  0  0
  189.1450  179.3480  137.0490 O   0  0  0  0  0  1  0  0  0  0  0  0
  1 31  1  1  0  0  0
  3  4  1  0  0  0  0
  5  6  1  0  0  0  0
  6  3  1  0  0  0  0
  6  2  2  0  0  0  0
  8 11  1  0  0  0  0
  9  7  1  1  0  0  0
  9 10  1  0  0  0  0
  9  3  1  0  0  0  0
 10  8  1  6  0  0  0
 10 12  1  0  0  0  0
 11  1  1  0  0  0  0
 12  1  1  0  0  0  0
 12  4  1  6  0  0  0
 13  5  1  0  0  0  0
 14 13  1  0  0  0  0
 15 21  1  6  0  0  0
 16 15  1  0  0  0  0
 16 14  1  1  0  0  0
 17 22  1  6  0  0  0
 17 16  1  0  0  0  0
 17 15  1  0  0  0  0
 19 20  1  0  0  0  0
 20 21  1  0  0  0  0
 21 18  2  0  0  0  0
 23 22  2  0  0  0  0
 24 17  1  0  0  0  0
 26 30  1  0  0  0  0
 26 28  1  0  0  0  0
 27 25  1  0  0  0  0
 28 24  1  6  0  0  0
 28 25  1  0  0  0  0
 29 30  1  0  0  0  0
 29 27  1  0  0  0  0
 31 32  1  0  0  0  0
 33 32  1  0  0  0  0
 34 37  2  0  0  0  0
 35 40  2  0  0  0  0
 35 37  1  0  0  0  0
 36 35  1  0  0  0  0
 37 39  1  0  0  0  0
 38 39  1  0  0  0  0
 38 33  1  1  0  0  0
 39 41  1  0  0  0  0
 40 38  1  0  0  0  0
 41 44  1  0  0  0  0
 41 43  1  0  0  0  0
 41 42  1  0  0  0  0
 43 42  1  0  0  0  0
 44 45  1  0  0  0  0
 46 36  1  0  0  0  0
 47 49  1  0  0  0  0
 47 46  1  0  0  0  0
 48 47  2  0  0  0  0
M  END
>  <MODEL>
5

>  <REMARK>
 VINA RESULT:      -6.2      2.797      5.839
  Name = 
  15 active torsions:
  status: ('A' for Active; 'I' for Inactive)
    1  A    between atoms: C_1  and  O_23
    2  A    between atoms: C_5  and  C_20
    3  A    between atoms: C_6  and  N_9
    4  A    between atoms: C_6  and  C_17
    5  A    between atoms: C_11  and  C_18
    6  A    between atoms: C_11  and  N_21
    7  A    between atoms: C_12  and  C_40
    8  A    between atoms: C_19  and  N_27
    9  A    between atoms: C_19  and  C_28
   10  A    between atoms: O_23  and  O_24
   11  A    between atoms: O_24  and  C_40
   12  A    between atoms: C_25  and  C_28
   13  A    between atoms: C_30  and  N_37
   14  A    between atoms: N_37  and  C_41
   15  A    between atoms: N_38  and  C_41
                            x       y       z     vdW  Elec       q    Type
                         _______ _______ _______ _____ _____    ______ ____

>  <TORSDO>
F 15

$$$$
=
 OpenBabel11062410593D

 49 54  0  0  1  0  0  0  0  0999 V2000
  189.3470  176.9550  140.3590 C   0  0  2  0  0  3  0  0  0  0  0  0
  184.8300  178.2490  139.3470 O   0  0  0  0  0  0  0  0  0  0  0  0
  187.0520  178.2710  138.6250 N   0  0  0  0  0  0  0  0  0  0  0  0
  187.5640  178.5250  139.9020 N   0  0  0  0  0  2  0  0  0  0  0  0
  185.2170  177.3620  137.2180 N   0  0  0  0  0  2  0  0  0  0  0  0
  185.6590  177.9840  138.4310 C   0  0  0  0  0  0  0  0  0  0  0  0
  187.9350  179.3720  136.3830 Cl  0  0  0  0  0  0  0  0  0  0  0  0
  190.0900  176.9760  138.1050 O   0  0  0  0  0  0  0  0  0  0  0  0
  188.0420  178.0710  137.5890 C   0  0  1  0  0  3  0  0  0  0  0  0
  189.3610  178.1610  138.3150 C   0  0  1  0  0  3  0  0  0  0  0  0
  190.3520  176.4300  139.3740 C   0  0  0  0  0  2  0  0  0  0  0  0
  189.0040  178.2970  139.7910 C   0  0  2  0  0  3  0  0  0  0  0  0
  183.8320  176.9700  137.0000 C   0  0  0  0  0  2  0  0  0  0  0  0
  183.7570  175.9040  135.9230 C   0  0  0  0  0  2  0  0  0  0  0  0
  182.5950  173.8240  135.2040 C   0  0  1  0  0  3  0  0  0  0  0  0
  182.9800  174.6900  136.4150 C   0  0  1  0  0  3  0  0  0  0  0  0
  183.7030  173.3720  136.1560 C   0  0  1  0  0  0  0  0  0  0  0  0
  181.2660  171.8370  135.5270 O   0  0  0  0  0  0  0  0  0  0  0  0
  180.0030  175.2780  135.4690 C   0  0  0  0  0  1  0  0  0  0  0  0
  180.0630  173.8170  135.5300 N   0  0  0  0  0  2  0  0  0  0  0  0
  181.2910  173.0930  135.4210 C   0  0  0  0  0  0  0  0  0  0  0  0
  183.4010  172.2940  137.0730 N   0  0  0  0  0  0  0  0  0  0  0  0
  183.7830  171.1810  136.8460 O   0  0  0  0  0  0  0  0  0  0  0  0
  185.0540  173.4030  135.5970 N   0  0  0  0  0  2  0  0  0  0  0  0
  186.5760  172.6360  137.3640 C   0  0  0  0  0  2  0  0  0  0  0  0
  187.0650  174.7290  135.9870 C   0  0  0  0  0  2  0  0  0  0  0  0
  187.8650  172.1440  136.7000 C   0  0  0  0  0  2  0  0  0  0  0  0
  185.9820  173.8470  136.6240 C   0  0  1  0  0  3  0  0  0  0  0  0
  188.8870  173.2830  136.5520 C   0  0  0  0  0  2  0  0  0  0  0  0
  188.3040  174.6220  136.7540 N   0  0  0  0  0  2  0  0  0  0  0  0
  189.9400  177.0590  141.6270 O   0  0  0  0  0  0  0  0  0  0  0  0
  189.1760  176.3650  142.4590 O   0  0  0  0  0  0  0  0  0  0  0  0
  189.6050  176.6870  143.7580 C   0  0  0  0  0  2  0  0  0  0  0  0
  186.4270  177.3400  146.8320 O   0  0  0  0  0  0  0  0  0  0  0  0
  186.5880  177.8810  144.4880 C   0  0  0  0  0  0  0  0  0  0  0  0
  185.2080  178.0500  144.1690 N   0  0  0  0  0  2  0  0  0  0  0  0
  187.0990  177.6100  145.8020 C   0  0  0  0  0  0  0  0  0  0  0  0
  188.8450  177.8880  144.3280 C   0  0  2  0  0  3  0  0  0  0  0  0
  188.5110  177.6470  145.7370 N   0  0  0  0  0  0  0  0  0  0  0  0
  187.5510  178.0470  143.6400 N   0  0  0  0  0  0  0  0  0  0  0  0
  189.4390  177.2620  146.7970 C   0  0  0  0  0  0  0  0  0  0  0  0
  189.4180  178.1890  147.9910 C   0  0  0  0  0  2  0  0  0  0  0  0
  188.8150  176.7890  148.0860 C   0  0  0  0  0  2  0  0  0  0  0  0
  190.8140  176.7460  146.4210 C   0  0  0  0  0  2  0  0  0  0  0  0
  191.6240  176.4290  147.6640 C   0  0  0  0  0  1  0  0  0  0  0  0
  184.7660  178.4450  142.8350 C   0  0  0  0  0  2  0  0  0  0  0  0
  183.3700  178.9680  142.8980 C   0  0  0  0  0  0  0  0  0  0  0  0
  182.4640  178.6370  141.8970 O   0  0  0  0  0  0  0  0  0  0  0  0
  183.0150  179.7160  143.8420 O   0  0  0  0  0  1  0  0  0  0  0  0
  1 31  1  1  0  0  0
  3  4  1  0  0  0  0
  5  6  1  0  0  0  0
  6  3  1  0  0  0  0
  6  2  2  0  0  0  0
  8 11  1  0  0  0  0
  9  7  1  6  0  0  0
  9 10  1  0  0  0  0
  9  3  1  0  0  0  0
 10  8  1  1  0  0  0
 10 12  1  0  0  0  0
 11  1  1  0  0  0  0
 12  4  1  6  0  0  0
 12  1  1  0  0  0  0
 13  5  1  0  0  0  0
 14 13  1  0  0  0  0
 15 21  1  1  0  0  0
 15 17  1  0  0  0  0
 15 16  1  0  0  0  0
 16 14  1  6  0  0  0
 17 24  1  6  0  0  0
 17 16  1  0  0  0  0
 17 22  1  0  0  0  0
 19 20  1  0  0  0  0
 21 18  2  0  0  0  0
 21 20  1  0  0  0  0
 23 22  2  0  0  0  0
 26 28  1  0  0  0  0
 26 30  1  0  0  0  0
 27 25  1  0  0  0  0
 28 24  1  6  0  0  0
 28 25  1  0  0  0  0
 29 27  1  0  0  0  0
 29 30  1  0  0  0  0
 31 32  1  0  0  0  0
 32 33  1  0  0  0  0
 35 37  1  0  0  0  0
 36 35  1  0  0  0  0
 37 34  2  0  0  0  0
 38 33  1  6  0  0  0
 38 39  1  0  0  0  0
 39 37  1  0  0  0  0
 39 41  1  0  0  0  0
 40 38  1  0  0  0  0
 40 35  2  0  0  0  0
 41 42  1  0  0  0  0
 41 43  1  0  0  0  0
 42 43  1  0  0  0  0
 44 41  1  0  0  0  0
 44 45  1  0  0  0  0
 46 47  1  0  0  0  0
 46 36  1  0  0  0  0
 47 49  1  0  0  0  0
 48 47  2  0  0  0  0
M  END
>  <MODEL>
6

>  <REMARK>
 VINA RESULT:      -6.0      1.943      3.371
  Name = 
  15 active torsions:
  status: ('A' for Active; 'I' for Inactive)
    1  A    between atoms: C_1  and  O_23
    2  A    between atoms: C_5  and  C_20
    3  A    between atoms: C_6  and  N_9
    4  A    between atoms: C_6  and  C_17
    5  A    between atoms: C_11  and  C_18
    6  A    between atoms: C_11  and  N_21
    7  A    between atoms: C_12  and  C_40
    8  A    between atoms: C_19  and  N_27
    9  A    between atoms: C_19  and  C_28
   10  A    between atoms: O_23  and  O_24
   11  A    between atoms: O_24  and  C_40
   12  A    between atoms: C_25  and  C_28
   13  A    between atoms: C_30  and  N_37
   14  A    between atoms: N_37  and  C_41
   15  A    between atoms: N_38  and  C_41
                            x       y       z     vdW  Elec       q    Type
                         _______ _______ _______ _____ _____    ______ ____

>  <TORSDO>
F 15

$$$$
=
 OpenBabel11062410593D

 49 54  0  0  1  0  0  0  0  0999 V2000
  184.8360  179.2190  143.0720 C   0  0  2  0  0  3  0  0  0  0  0  0
  181.5180  179.1000  139.5970 O   0  0  0  0  0  0  0  0  0  0  0  0
  181.9330  178.8240  141.8800 N   0  0  0  0  0  0  0  0  0  0  0  0
  183.1580  178.1780  141.6750 N   0  0  0  0  0  2  0  0  0  0  0  0
  180.1880  180.3780  141.0370 N   0  0  0  0  0  2  0  0  0  0  0  0
  181.2160  179.4120  140.7840 C   0  0  0  0  0  0  0  0  0  0  0  0
  180.1370  178.1400  143.7040 Cl  0  0  0  0  0  0  0  0  0  0  0  0
  183.2930  179.5940  144.8360 O   0  0  0  0  0  0  0  0  0  0  0  0
  181.5860  179.0700  143.2620 C   0  0  1  0  0  3  0  0  0  0  0  0
  182.7730  178.5570  144.0390 C   0  0  1  0  0  3  0  0  0  0  0  0
  184.6360  179.7610  144.4600 C   0  0  0  0  0  2  0  0  0  0  0  0
  183.7980  178.1440  142.9900 C   0  0  2  0  0  3  0  0  0  0  0  0
  179.4870  181.0710  139.9650 C   0  0  0  0  0  2  0  0  0  0  0  0
  180.4470  181.9760  139.2160 C   0  0  0  0  0  2  0  0  0  0  0  0
  180.8010  183.3400  137.1650 C   0  0  1  0  0  3  0  0  0  0  0  0
  179.7430  182.6760  138.0620 C   0  0  1  0  0  3  0  0  0  0  0  0
  180.0810  182.0740  136.7010 C   0  0  1  0  0  0  0  0  0  0  0  0
  180.3900  184.7640  135.2620 O   0  0  0  0  0  0  0  0  0  0  0  0
  179.4140  185.4740  138.7240 C   0  0  0  0  0  1  0  0  0  0  0  0
  179.6310  185.6060  137.2820 N   0  0  0  0  0  2  0  0  0  0  0  0
  180.2790  184.5950  136.5060 C   0  0  0  0  0  0  0  0  0  0  0  0
  179.0680  182.2150  135.6770 N   0  0  0  0  0  0  0  0  0  0  0  0
  179.2300  181.7300  134.5940 O   0  0  0  0  0  0  0  0  0  0  0  0
  180.9110  180.8710  136.6450 N   0  0  0  0  0  2  0  0  0  0  0  0
  181.0990  178.8890  135.2090 C   0  0  0  0  0  2  0  0  0  0  0  0
  179.3680  179.0310  137.0800 C   0  0  0  0  0  2  0  0  0  0  0  0
  181.6270  177.7330  136.0610 C   0  0  0  0  0  2  0  0  0  0  0  0
  180.1560  179.8030  136.0120 C   0  0  1  0  0  3  0  0  0  0  0  0
  180.4780  176.9440  136.7080 C   0  0  0  0  0  2  0  0  0  0  0  0
  179.1830  177.6460  136.6540 N   0  0  0  0  0  2  0  0  0  0  0  0
  186.1360  178.7030  142.9500 O   0  0  0  0  0  0  0  0  0  0  0  0
  186.4400  178.7470  141.6610 O   0  0  0  0  0  0  0  0  0  0  0  0
  187.8400  178.8390  141.5840 C   0  0  0  0  0  2  0  0  0  0  0  0
  192.0070  177.2480  141.2850 O   0  0  0  0  0  0  0  0  0  0  0  0
  190.0930  177.1410  139.8220 C   0  0  0  0  0  0  0  0  0  0  0  0
  190.7340  176.8430  138.5840 N   0  0  0  0  0  2  0  0  0  0  0  0
  190.7620  177.2520  141.0880 C   0  0  0  0  0  0  0  0  0  0  0  0
  188.4910  177.4670  141.3870 C   0  0  2  0  0  3  0  0  0  0  0  0
  189.7790  177.4180  142.0890 N   0  0  0  0  0  0  0  0  0  0  0  0
  188.8120  177.2540  139.9640 N   0  0  0  0  0  0  0  0  0  0  0  0
  190.0160  177.7390  143.4940 C   0  0  0  0  0  0  0  0  0  0  0  0
  191.4780  177.9030  143.8430 C   0  0  0  0  0  2  0  0  0  0  0  0
  190.5560  179.1180  143.7770 C   0  0  0  0  0  2  0  0  0  0  0  0
  189.1860  177.0490  144.5580 C   0  0  0  0  0  2  0  0  0  0  0  0
  189.7160  177.3720  145.9420 C   0  0  0  0  0  1  0  0  0  0  0  0
  189.9780  176.6240  137.3550 C   0  0  0  0  0  2  0  0  0  0  0  0
  189.5230  175.2040  137.2850 C   0  0  0  0  0  0  0  0  0  0  0  0
  190.3850  174.1840  137.6700 O   0  0  0  0  0  1  0  0  0  0  0  0
  188.3720  174.9270  136.8660 O   0  0  0  0  0  0  0  0  0  0  0  0
  1 31  1  1  0  0  0
  1 11  1  0  0  0  0
  2  6  2  0  0  0  0
  3  9  1  0  0  0  0
  4  3  1  0  0  0  0
  6  5  1  0  0  0  0
  6  3  1  0  0  0  0
  9  7  1  1  0  0  0
  9 10  1  0  0  0  0
 10  8  1  1  0  0  0
 11  8  1  0  0  0  0
 12  4  1  6  0  0  0
 12  1  1  0  0  0  0
 12 10  1  0  0  0  0
 13  5  1  0  0  0  0
 14 13  1  0  0  0  0
 15 21  1  6  0  0  0
 15 16  1  0  0  0  0
 16 14  1  1  0  0  0
 17 22  1  6  0  0  0
 17 15  1  0  0  0  0
 17 16  1  0  0  0  0
 18 21  2  0  0  0  0
 20 19  1  0  0  0  0
 21 20  1  0  0  0  0
 23 22  2  0  0  0  0
 24 17  1  0  0  0  0
 25 28  1  0  0  0  0
 25 27  1  0  0  0  0
 27 29  1  0  0  0  0
 28 24  1  1  0  0  0
 28 26  1  0  0  0  0
 30 29  1  0  0  0  0
 30 26  1  0  0  0  0
 32 31  1  0  0  0  0
 33 32  1  0  0  0  0
 35 40  2  0  0  0  0
 35 37  1  0  0  0  0
 36 35  1  0  0  0  0
 37 34  2  0  0  0  0
 37 39  1  0  0  0  0
 38 33  1  6  0  0  0
 38 39  1  0  0  0  0
 39 41  1  0  0  0  0
 40 38  1  0  0  0  0
 41 43  1  0  0  0  0
 41 42  1  0  0  0  0
 41 44  1  0  0  0  0
 43 42  1  0  0  0  0
 44 45  1  0  0  0  0
 46 36  1  0  0  0  0
 47 46  1  0  0  0  0
 47 48  1  0  0  0  0
 49 47  2  0  0  0  0
M  END
>  <MODEL>
7

>  <REMARK>
 VINA RESULT:      -5.9      4.541      7.722
  Name = 
  15 active torsions:
  status: ('A' for Active; 'I' for Inactive)
    1  A    between atoms: C_1  and  O_23
    2  A    between atoms: C_5  and  C_20
    3  A    between atoms: C_6  and  N_9
    4  A    between atoms: C_6  and  C_17
    5  A    between atoms: C_11  and  C_18
    6  A    between atoms: C_11  and  N_21
    7  A    between atoms: C_12  and  C_40
    8  A    between atoms: C_19  and  N_27
    9  A    between atoms: C_19  and  C_28
   10  A    between atoms: O_23  and  O_24
   11  A    between atoms: O_24  and  C_40
   12  A    between atoms: C_25  and  C_28
   13  A    between atoms: C_30  and  N_37
   14  A    between atoms: N_37  and  C_41
   15  A    between atoms: N_38  and  C_41
                            x       y       z     vdW  Elec       q    Type
                         _______ _______ _______ _____ _____    ______ ____

>  <TORSDO>
F 15

$$$$
=
 OpenBabel11062410593D

 49 54  0  0  1  0  0  0  0  0999 V2000
  187.4310  177.9960  137.7690 C   0  0  2  0  0  3  0  0  0  0  0  0
  189.6150  175.9750  141.5430 O   0  0  0  0  0  0  0  0  0  0  0  0
  189.8680  176.7480  139.3520 N   0  0  0  0  0  0  0  0  0  0  0  0
  188.6300  176.2470  138.9320 N   0  0  0  0  0  2  0  0  0  0  0  0
  191.3120  177.5490  141.2080 N   0  0  0  0  0  2  0  0  0  0  0  0
  190.2460  176.7150  140.7370 C   0  0  0  0  0  0  0  0  0  0  0  0
  192.1040  176.6640  137.9350 Cl  0  0  0  0  0  0  0  0  0  0  0  0
  189.4180  178.8700  136.8090 O   0  0  0  0  0  0  0  0  0  0  0  0
  190.5980  177.5060  138.3600 C   0  0  1  0  0  3  0  0  0  0  0  0
  189.6790  177.5340  137.1650 C   0  0  1  0  0  3  0  0  0  0  0  0
  188.0240  179.0410  136.8670 C   0  0  0  0  0  2  0  0  0  0  0  0
  188.3930  176.8580  137.6250 C   0  0  2  0  0  3  0  0  0  0  0  0
  191.6830  177.6230  142.6140 C   0  0  0  0  0  2  0  0  0  0  0  0
  190.5690  178.2740  143.4120 C   0  0  0  0  0  2  0  0  0  0  0  0
  189.6480  178.1070  145.7180 C   0  0  1  0  0  3  0  0  0  0  0  0
  190.0160  177.3110  144.4540 C   0  0  1  0  0  3  0  0  0  0  0  0
  188.5520  177.5750  144.7940 C   0  0  1  0  0  0  0  0  0  0  0  0
  190.6790  176.3670  147.0320 O   0  0  0  0  0  0  0  0  0  0  0  0
  188.0230  178.6260  148.1660 C   0  0  0  0  0  1  0  0  0  0  0  0
  189.0130  177.5480  148.1270 N   0  0  0  0  0  2  0  0  0  0  0  0
  189.8170  177.2850  146.9740 C   0  0  0  0  0  0  0  0  0  0  0  0
  187.7920  176.4290  145.2460 N   0  0  0  0  0  0  0  0  0  0  0  0
  186.7630  176.5810  145.8400 O   0  0  0  0  0  0  0  0  0  0  0  0
  187.8220  178.5950  144.0420 N   0  0  0  0  0  2  0  0  0  0  0  0
  185.5820  177.9360  143.2850 C   0  0  0  0  0  2  0  0  0  0  0  0
  187.3920  178.6700  141.6410 C   0  0  0  0  0  2  0  0  0  0  0  0
  184.8760  179.1840  142.7500 C   0  0  0  0  0  2  0  0  0  0  0  0
  187.0870  177.9540  142.9650 C   0  0  1  0  0  3  0  0  0  0  0  0
  185.1400  179.3760  141.2480 C   0  0  0  0  0  2  0  0  0  0  0  0
  186.2490  178.5510  140.7390 N   0  0  0  0  0  2  0  0  0  0  0  0
  186.1460  177.6580  137.3170 O   0  0  0  0  0  0  0  0  0  0  0  0
  186.3050  176.7080  136.4050 O   0  0  0  0  0  0  0  0  0  0  0  0
  185.0420  176.1220  136.2150 C   0  0  0  0  0  2  0  0  0  0  0  0
  181.7650  173.3410  137.4450 O   0  0  0  0  0  0  0  0  0  0  0  0
  182.1950  175.6740  137.8760 C   0  0  0  0  0  0  0  0  0  0  0  0
  180.8880  176.1110  138.2410 N   0  0  0  0  0  2  0  0  0  0  0  0
  182.5520  174.3160  137.5750 C   0  0  0  0  0  0  0  0  0  0  0  0
  184.4320  175.6430  137.5360 C   0  0  2  0  0  3  0  0  0  0  0  0
  183.9530  174.2630  137.3960 N   0  0  0  0  0  0  0  0  0  0  0  0
  183.2370  176.4410  137.8660 N   0  0  0  0  0  0  0  0  0  0  0  0
  184.7230  173.1210  136.9100 C   0  0  0  0  0  0  0  0  0  0  0  0
  183.8720  171.9360  136.5160 C   0  0  0  0  0  2  0  0  0  0  0  0
  184.5610  172.7830  135.4500 C   0  0  0  0  0  2  0  0  0  0  0  0
  186.0230  172.7620  137.6010 C   0  0  0  0  0  2  0  0  0  0  0  0
  187.2110  173.2100  136.7710 C   0  0  0  0  0  1  0  0  0  0  0  0
  180.6190  177.4850  138.6540 C   0  0  0  0  0  2  0  0  0  0  0  0
  180.6950  177.5920  140.1410 C   0  0  0  0  0  0  0  0  0  0  0  0
  181.8870  177.9730  140.7460 O   0  0  0  0  0  0  0  0  0  0  0  0
  179.6910  177.3270  140.8470 O   0  0  0  0  0  1  0  0  0  0  0  0
  1 31  1  6  0  0  0
  3  6  1  0  0  0  0
  4  3  1  0  0  0  0
  5 13  1  0  0  0  0
  6  5  1  0  0  0  0
  6  2  2  0  0  0  0
  8 11  1  0  0  0  0
  9  7  1  6  0  0  0
  9  3  1  0  0  0  0
 10  8  1  1  0  0  0
 10 12  1  0  0  0  0
 10  9  1  0  0  0  0
 11  1  1  0  0  0  0
 12  1  1  0  0  0  0
 12  4  1  1  0  0  0
 13 14  1  0  0  0  0
 15 21  1  1  0  0  0
 16 14  1  6  0  0  0
 16 17  1  0  0  0  0
 16 15  1  0  0  0  0
 17 24  1  6  0  0  0
 17 22  1  0  0  0  0
 17 15  1  0  0  0  0
 20 19  1  0  0  0  0
 21 18  2  0  0  0  0
 21 20  1  0  0  0  0
 22 23  2  0  0  0  0
 26 28  1  0  0  0  0
 27 25  1  0  0  0  0
 28 25  1  0  0  0  0
 28 24  1  1  0  0  0
 29 27  1  0  0  0  0
 30 29  1  0  0  0  0
 30 26  1  0  0  0  0
 32 31  1  0  0  0  0
 33 32  1  0  0  0  0
 34 37  2  0  0  0  0
 35 36  1  0  0  0  0
 36 46  1  0  0  0  0
 37 35  1  0  0  0  0
 38 33  1  6  0  0  0
 38 40  1  0  0  0  0
 39 38  1  0  0  0  0
 39 37  1  0  0  0  0
 40 35  2  0  0  0  0
 41 39  1  0  0  0  0
 41 44  1  0  0  0  0
 42 41  1  0  0  0  0
 43 42  1  0  0  0  0
 43 41  1  0  0  0  0
 45 44  1  0  0  0  0
 46 47  1  0  0  0  0
 47 48  2  0  0  0  0
 47 49  1  0  0  0  0
M  END
>  <MODEL>
8

>  <REMARK>
 VINA RESULT:      -5.8      2.270      8.804
  Name = 
  15 active torsions:
  status: ('A' for Active; 'I' for Inactive)
    1  A    between atoms: C_1  and  O_23
    2  A    between atoms: C_5  and  C_20
    3  A    between atoms: C_6  and  N_9
    4  A    between atoms: C_6  and  C_17
    5  A    between atoms: C_11  and  C_18
    6  A    between atoms: C_11  and  N_21
    7  A    between atoms: C_12  and  C_40
    8  A    between atoms: C_19  and  N_27
    9  A    between atoms: C_19  and  C_28
   10  A    between atoms: O_23  and  O_24
   11  A    between atoms: O_24  and  C_40
   12  A    between atoms: C_25  and  C_28
   13  A    between atoms: C_30  and  N_37
   14  A    between atoms: N_37  and  C_41
   15  A    between atoms: N_38  and  C_41
                            x       y       z     vdW  Elec       q    Type
                         _______ _______ _______ _____ _____    ______ ____

>  <TORSDO>
F 15

$$$$
=
 OpenBabel11062410593D

 49 54  0  0  1  0  0  0  0  0999 V2000
  190.1350  177.8730  142.4700 C   0  0  2  0  0  3  0  0  0  0  0  0
  185.3420  177.6500  142.1830 O   0  0  0  0  0  0  0  0  0  0  0  0
  187.1980  177.5640  143.6010 N   0  0  0  0  0  0  0  0  0  0  0  0
  187.9690  176.8200  142.7020 N   0  0  0  0  0  2  0  0  0  0  0  0
  185.3200  179.1460  143.9820 N   0  0  0  0  0  2  0  0  0  0  0  0
  185.9190  178.0930  143.2160 C   0  0  0  0  0  0  0  0  0  0  0  0
  187.1210  177.1790  146.2210 Cl  0  0  0  0  0  0  0  0  0  0  0  0
  190.1880  178.5170  144.7540 O   0  0  0  0  0  0  0  0  0  0  0  0
  187.8740  177.9630  144.8160 C   0  0  1  0  0  3  0  0  0  0  0  0
  189.2810  177.4470  144.6420 C   0  0  1  0  0  3  0  0  0  0  0  0
  190.9190  178.5560  143.5540 C   0  0  0  0  0  2  0  0  0  0  0  0
  189.3310  176.8680  143.2330 C   0  0  2  0  0  3  0  0  0  0  0  0
  184.0690  179.7800  143.5920 C   0  0  0  0  0  2  0  0  0  0  0  0
  183.3330  178.9070  142.5920 C   0  0  0  0  0  2  0  0  0  0  0  0
  181.2290  179.7120  141.5360 C   0  0  1  0  0  3  0  0  0  0  0  0
  181.8260  179.0250  142.7760 C   0  0  1  0  0  3  0  0  0  0  0  0
  181.0340  178.2120  141.7560 C   0  0  1  0  0  0  0  0  0  0  0  0
  179.7710  180.8790  143.0630 O   0  0  0  0  0  0  0  0  0  0  0  0
  179.3060  180.6060  139.4360 C   0  0  0  0  0  1  0  0  0  0  0  0
  179.0920  180.9280  140.8480 N   0  0  0  0  0  2  0  0  0  0  0  0
  180.0020  180.5260  141.8750 C   0  0  0  0  0  0  0  0  0  0  0  0
  179.7270  177.7610  142.1850 N   0  0  0  0  0  0  0  0  0  0  0  0
  179.4600  177.6970  143.3510 O   0  0  0  0  0  0  0  0  0  0  0  0
  181.7570  177.3460  140.8250 N   0  0  0  0  0  2  0  0  0  0  0  0
  182.6400  177.7400  138.5690 C   0  0  0  0  0  2  0  0  0  0  0  0
  180.3320  176.7180  138.9460 C   0  0  0  0  0  2  0  0  0  0  0  0
  182.9130  176.3800  137.9220 C   0  0  0  0  0  2  0  0  0  0  0  0
  181.3900  177.7030  139.4650 C   0  0  1  0  0  3  0  0  0  0  0  0
  181.6800  175.8640  137.1630 C   0  0  0  0  0  2  0  0  0  0  0  0
  180.4420  176.5920  137.4950 N   0  0  0  0  0  2  0  0  0  0  0  0
  191.0160  177.2620  141.5650 O   0  0  0  0  0  0  0  0  0  0  0  0
  190.5090  177.4540  140.3550 O   0  0  0  0  0  0  0  0  0  0  0  0
  191.3980  176.8520  139.4490 C   0  0  0  0  0  2  0  0  0  0  0  0
  190.6370  176.3930  135.0680 O   0  0  0  0  0  0  0  0  0  0  0  0
  189.1860  176.4940  136.9910 C   0  0  0  0  0  0  0  0  0  0  0  0
  187.9560  176.8530  136.3650 N   0  0  0  0  0  2  0  0  0  0  0  0
  190.4130  176.2230  136.2960 C   0  0  0  0  0  0  0  0  0  0  0  0
  190.6910  175.8360  138.5480 C   0  0  2  0  0  3  0  0  0  0  0  0
  191.3610  175.7720  137.2430 N   0  0  0  0  0  0  0  0  0  0  0  0
  189.3150  176.2790  138.2610 N   0  0  0  0  0  0  0  0  0  0  0  0
  192.7840  175.5460  137.0060 C   0  0  0  0  0  0  0  0  0  0  0  0
  193.1720  175.5820  135.5460 C   0  0  0  0  0  2  0  0  0  0  0  0
  193.5650  176.7240  136.4800 C   0  0  0  0  0  2  0  0  0  0  0  0
  193.5100  174.4980  137.8260 C   0  0  0  0  0  2  0  0  0  0  0  0
  194.8940  174.2410  137.2600 C   0  0  0  0  0  1  0  0  0  0  0  0
  186.7160  176.9950  137.1210 C   0  0  0  0  0  2  0  0  0  0  0  0
  186.6200  178.3720  137.6850 C   0  0  0  0  0  0  0  0  0  0  0  0
  185.9890  178.5750  138.9070 O   0  0  0  0  0  1  0  0  0  0  0  0
  187.0940  179.3500  137.0550 O   0  0  0  0  0  0  0  0  0  0  0  0
  1 31  1  6  0  0  0
  1 12  1  0  0  0  0
  1 11  1  0  0  0  0
  2  6  2  0  0  0  0
  3  9  1  0  0  0  0
  4  3  1  0  0  0  0
  6  3  1  0  0  0  0
  6  5  1  0  0  0  0
  9  7  1  1  0  0  0
 10  8  1  6  0  0  0
 10  9  1  0  0  0  0
 11  8  1  0  0  0  0
 12  4  1  6  0  0  0
 12 10  1  0  0  0  0
 13  5  1  0  0  0  0
 14 13  1  0  0  0  0
 15 17  1  0  0  0  0
 15 21  1  1  0  0  0
 15 16  1  0  0  0  0
 16 14  1  6  0  0  0
 17 24  1  6  0  0  0
 17 22  1  0  0  0  0
 17 16  1  0  0  0  0
 19 20  1  0  0  0  0
 20 21  1  0  0  0  0
 21 18  2  0  0  0  0
 22 23  2  0  0  0  0
 25 28  1  0  0  0  0
 26 28  1  0  0  0  0
 27 25  1  0  0  0  0
 28 24  1  1  0  0  0
 29 30  1  0  0  0  0
 29 27  1  0  0  0  0
 30 26  1  0  0  0  0
 32 31  1  0  0  0  0
 33 32  1  0  0  0  0
 34 37  2  0  0  0  0
 35 40  2  0  0  0  0
 36 35  1  0  0  0  0
 36 46  1  0  0  0  0
 37 35  1  0  0  0  0
 37 39  1  0  0  0  0
 38 33  1  1  0  0  0
 39 38  1  0  0  0  0
 40 38  1  0  0  0  0
 41 39  1  0  0  0  0
 41 44  1  0  0  0  0
 42 43  1  0  0  0  0
 42 41  1  0  0  0  0
 43 41  1  0  0  0  0
 45 44  1  0  0  0  0
 46 47  1  0  0  0  0
 47 48  1  0  0  0  0
 49 47  2  0  0  0  0
M  END
>  <MODEL>
9

>  <REMARK>
 VINA RESULT:      -5.8      3.163      7.768
  Name = 
  15 active torsions:
  status: ('A' for Active; 'I' for Inactive)
    1  A    between atoms: C_1  and  O_23
    2  A    between atoms: C_5  and  C_20
    3  A    between atoms: C_6  and  N_9
    4  A    between atoms: C_6  and  C_17
    5  A    between atoms: C_11  and  C_18
    6  A    between atoms: C_11  and  N_21
    7  A    between atoms: C_12  and  C_40
    8  A    between atoms: C_19  and  N_27
    9  A    between atoms: C_19  and  C_28
   10  A    between atoms: O_23  and  O_24
   11  A    between atoms: O_24  and  C_40
   12  A    between atoms: C_25  and  C_28
   13  A    between atoms: C_30  and  N_37
   14  A    between atoms: N_37  and  C_41
   15  A    between atoms: N_38  and  C_41
                            x       y       z     vdW  Elec       q    Type
                         _______ _______ _______ _____ _____    ______ ____

>  <TORSDO>
F 15

$$$$
