=
 OpenBabel11062414383D

 38 41  0  0  1  0  0  0  0  0999 V2000
  183.6550  178.7410  144.0130 C   0  0  0  0  0  0  0  0  0  0  0  0
  190.8250  177.1550  139.4760 C   0  0  0  0  0  2  0  0  0  0  0  0
  181.1400  178.6300  143.8740 C   0  0  0  0  0  1  0  0  0  0  0  0
  182.5200  178.6730  143.3140 C   0  0  0  0  0  0  0  0  0  0  0  0
  190.7430  176.7390  137.9860 C   0  0  2  0  0  3  0  0  0  0  0  0
  184.6790  178.6860  140.4940 N   0  0  0  0  0  0  0  0  0  0  0  0
  189.5990  178.3590  141.3380 C   0  0  0  0  0  2  0  0  0  0  0  0
  184.0470  178.6880  141.7720 C   0  0  0  0  0  0  0  0  0  0  0  0
  185.6460  178.7580  138.7010 C   0  0  2  0  0  3  0  0  0  0  0  0
  188.3220  177.2680  137.9420 C   0  0  0  0  0  0  0  0  0  0  0  0
  184.8020  178.7790  143.0560 C   0  0  2  0  0  3  0  0  0  0  0  0
  189.2350  177.5290  142.5270 C   0  0  0  0  0  0  0  0  0  0  0  0
  189.4640  177.5350  140.0720 C   0  0  1  0  0  3  0  0  0  0  0  0
  182.7660  178.6440  141.9160 N   0  0  0  0  0  0  0  0  0  0  0  0
  188.6170  178.2530  139.0330 C   0  0  0  0  0  2  0  0  0  0  0  0
  188.1220  177.7650  143.1660 C   0  0  0  0  0  0  0  0  0  0  0  0
  186.0190  178.5160  140.0400 N   0  0  0  0  0  2  0  0  0  0  0  0
  189.3350  176.5310  137.4740 C   0  0  0  0  0  3  0  0  0  0  0  0
  184.3030  178.8810  139.1250 N   0  0  0  0  0  0  0  0  0  0  0  0
  187.0090  177.9900  143.8090 C   0  0  0  0  0  3  0  0  0  0  0  0
  185.8010  177.5260  137.8600 C   0  0  0  0  0  3  0  0  0  0  0  0
  185.7040  177.5650  143.2270 C   0  0  0  0  0  2  0  0  0  0  0  0
  186.9500  176.9220  137.5230 C   0  0  0  0  0  3  0  0  0  0  0  0
  193.6190  176.7030  137.6260 O   0  0  0  0  0  0  0  0  0  0  0  0
  192.9930  175.6100  137.5560 C   0  0  0  0  0  0  0  0  0  0  0  0
  191.5730  175.5680  137.7250 N   0  0  0  0  0  2  0  0  0  0  0  0
  193.7360  174.3530  137.2650 C   0  0  0  0  0  2  0  0  0  0  0  0
  195.6110  174.0560  139.0160 C   0  0  0  0  0  1  0  0  0  0  0  0
  195.9750  174.9770  136.8870 O   0  0  0  0  0  0  0  0  0  0  0  0
  195.1690  174.4900  137.6620 C   0  0  0  0  0  0  0  0  0  0  0  0
  182.4530  180.3680  138.6070 C   0  0  0  0  0  1  0  0  0  0  0  0
  183.9220  180.2790  138.9670 C   0  0  0  0  0  2  0  0  0  0  0  0
  184.9850  179.0570  146.0760 C   0  0  0  0  0  2  0  0  0  0  0  0
  183.8260  178.8200  145.4780 C   0  0  0  0  0  3  0  0  0  0  0  0
  190.2310  176.5910  143.1220 C   0  0  0  0  0  2  0  0  0  0  0  0
  191.2780  177.3580  143.9150 C   0  0  0  0  0  2  0  0  0  0  0  0
  190.2170  177.2120  146.1630 C   0  0  0  0  0  1  0  0  0  0  0  0
  191.4040  176.7890  145.3160 C   0  0  0  0  0  2  0  0  0  0  0  0
  1 34  1  0  0  0  0
  2 13  1  0  0  0  0
  4  3  1  0  0  0  0
  4  1  2  0  0  0  0
  5 26  1  1  0  0  0
  5  2  1  0  0  0  0
  6  8  1  0  0  0  0
  7 12  1  0  0  0  0
  8 14  2  0  0  0  0
  8 11  1  0  0  0  0
  9 21  1  6  0  0  0
  9 19  1  0  0  0  0
  9 17  1  0  0  0  0
 10 15  1  0  0  0  0
 11 22  1  1  0  0  0
 11  1  1  0  0  0  0
 12 35  1  0  0  0  0
 12 16  2  0  0  0  0
 13 15  1  6  0  0  0
 13  7  1  0  0  0  0
 14  4  1  0  0  0  0
 16 20  2  0  0  0  0
 17  6  1  0  0  0  0
 18 10  2  0  0  0  0
 18  5  1  0  0  0  0
 19  6  1  0  0  0  0
 22 20  1  0  0  0  0
 23 21  2  0  0  0  0
 23 10  1  0  0  0  0
 25 24  2  0  0  0  0
 25 26  1  0  0  0  0
 27 25  1  0  0  0  0
 27 30  1  0  0  0  0
 29 30  2  0  0  0  0
 30 28  1  0  0  0  0
 31 32  1  0  0  0  0
 32 19  1  0  0  0  0
 34 33  2  0  0  0  0
 35 36  1  0  0  0  0
 36 38  1  0  0  0  0
 38 37  1  0  0  0  0
M  END
>  <MODEL>
1

>  <REMARK>
 VINA RESULT:      -8.9      0.000      0.000
  Name = 
  8 active torsions:
  status: ('A' for Active; 'I' for Inactive)
    1  A    between atoms: C_1  and  C_28
    2  A    between atoms: C_5  and  C_32
    3  A    between atoms: C_5  and  C_38
    4  A    between atoms: C_7  and  N_35
    5  A    between atoms: C_12  and  C_15
    6  A    between atoms: C_12  and  C_20
    7  A    between atoms: C_15  and  C_29
    8  A    between atoms: C_23  and  N_31
                            x       y       z     vdW  Elec       q    Type
                         _______ _______ _______ _____ _____    ______ ____

>  <TORSDO>
F 8

$$$$
=
 OpenBabel11062414383D

 38 41  0  0  1  0  0  0  0  0999 V2000
  184.5840  178.9680  143.8280 C   0  0  0  0  0  0  0  0  0  0  0  0
  190.1920  177.1160  137.5330 C   0  0  0  0  0  2  0  0  0  0  0  0
  182.1400  178.8210  144.4310 C   0  0  0  0  0  1  0  0  0  0  0  0
  183.2980  178.8350  143.4940 C   0  0  0  0  0  0  0  0  0  0  0  0
  189.6990  176.5860  136.1650 C   0  0  2  0  0  3  0  0  0  0  0  0
  184.5530  178.6550  140.1760 N   0  0  0  0  0  0  0  0  0  0  0  0
  189.5150  178.4460  139.5810 C   0  0  0  0  0  2  0  0  0  0  0  0
  184.3160  178.7480  141.5790 C   0  0  0  0  0  0  0  0  0  0  0  0
  184.9610  178.6000  138.1800 C   0  0  2  0  0  3  0  0  0  0  0  0
  187.3520  177.0850  136.7860 C   0  0  0  0  0  0  0  0  0  0  0  0
  185.4050  178.9450  142.5800 C   0  0  2  0  0  3  0  0  0  0  0  0
  189.5370  177.7050  140.8800 C   0  0  0  0  0  0  0  0  0  0  0  0
  189.0490  177.5260  138.4700 C   0  0  1  0  0  3  0  0  0  0  0  0
  183.1330  178.7010  142.0900 N   0  0  0  0  0  0  0  0  0  0  0  0
  187.9160  178.1540  137.6720 C   0  0  0  0  0  2  0  0  0  0  0  0
  188.6470  177.9780  141.7960 C   0  0  0  0  0  0  0  0  0  0  0  0
  185.7110  178.4650  139.3680 N   0  0  0  0  0  2  0  0  0  0  0  0
  188.2110  176.3250  136.0980 C   0  0  0  0  0  3  0  0  0  0  0  0
  183.7930  178.7410  138.9640 N   0  0  0  0  0  0  0  0  0  0  0  0
  187.7590  178.2390  142.7160 C   0  0  0  0  0  3  0  0  0  0  0  0
  184.9070  177.3090  137.4180 C   0  0  0  0  0  3  0  0  0  0  0  0
  186.3570  177.7570  142.5680 C   0  0  0  0  0  2  0  0  0  0  0  0
  185.9290  176.6930  136.8070 C   0  0  0  0  0  3  0  0  0  0  0  0
  189.9790  174.1130  137.6490 O   0  0  0  0  0  0  0  0  0  0  0  0
  190.5580  174.2100  136.5340 C   0  0  0  0  0  0  0  0  0  0  0  0
  190.4560  175.4080  135.7570 N   0  0  0  0  0  2  0  0  0  0  0  0
  191.3830  173.0770  136.0310 C   0  0  0  0  0  2  0  0  0  0  0  0
  193.5940  173.8550  137.1150 C   0  0  0  0  0  1  0  0  0  0  0  0
  193.3350  173.5460  134.8010 O   0  0  0  0  0  0  0  0  0  0  0  0
  192.8120  173.4890  135.9010 C   0  0  0  0  0  0  0  0  0  0  0  0
  181.8350  180.1410  138.6410 C   0  0  0  0  0  1  0  0  0  0  0  0
  183.3380  180.1190  138.8260 C   0  0  0  0  0  2  0  0  0  0  0  0
  185.3650  178.1780  146.0400 C   0  0  0  0  0  2  0  0  0  0  0  0
  185.1660  179.1610  145.1720 C   0  0  0  0  0  3  0  0  0  0  0  0
  190.6910  176.8260  141.2260 C   0  0  0  0  0  2  0  0  0  0  0  0
  191.4820  177.4170  142.3830 C   0  0  0  0  0  2  0  0  0  0  0  0
  190.8650  177.0330  144.7640 C   0  0  0  0  0  1  0  0  0  0  0  0
  191.5390  176.4380  143.5400 C   0  0  0  0  0  2  0  0  0  0  0  0
  1 34  1  0  0  0  0
  4  1  2  0  0  0  0
  4  3  1  0  0  0  0
  5 26  1  1  0  0  0
  5  2  1  0  0  0  0
  6  8  1  0  0  0  0
  7 12  1  0  0  0  0
  8 14  2  0  0  0  0
  8 11  1  0  0  0  0
  9 21  1  6  0  0  0
  9 19  1  0  0  0  0
  9 17  1  0  0  0  0
 10 23  1  0  0  0  0
 10 15  1  0  0  0  0
 11 22  1  1  0  0  0
 11  1  1  0  0  0  0
 12 35  1  0  0  0  0
 12 16  2  0  0  0  0
 13  2  1  6  0  0  0
 13  7  1  0  0  0  0
 14  4  1  0  0  0  0
 15 13  1  0  0  0  0
 16 20  2  0  0  0  0
 17  6  1  0  0  0  0
 18  5  1  0  0  0  0
 18 10  2  0  0  0  0
 19  6  1  0  0  0  0
 22 20  1  0  0  0  0
 23 21  2  0  0  0  0
 25 24  2  0  0  0  0
 26 25  1  0  0  0  0
 27 25  1  0  0  0  0
 29 30  2  0  0  0  0
 30 27  1  0  0  0  0
 30 28  1  0  0  0  0
 31 32  1  0  0  0  0
 32 19  1  0  0  0  0
 34 33  2  0  0  0  0
 35 36  1  0  0  0  0
 36 38  1  0  0  0  0
 38 37  1  0  0  0  0
M  END
>  <MODEL>
2

>  <REMARK>
 VINA RESULT:      -8.7      1.529      1.832
  Name = 
  8 active torsions:
  status: ('A' for Active; 'I' for Inactive)
    1  A    between atoms: C_1  and  C_28
    2  A    between atoms: C_5  and  C_32
    3  A    between atoms: C_5  and  C_38
    4  A    between atoms: C_7  and  N_35
    5  A    between atoms: C_12  and  C_15
    6  A    between atoms: C_12  and  C_20
    7  A    between atoms: C_15  and  C_29
    8  A    between atoms: C_23  and  N_31
                            x       y       z     vdW  Elec       q    Type
                         _______ _______ _______ _____ _____    ______ ____

>  <TORSDO>
F 8

$$$$
=
 OpenBabel11062414383D

 38 41  0  0  1  0  0  0  0  0999 V2000
  182.1640  178.1740  137.9260 C   0  0  0  0  0  0  0  0  0  0  0  0
  188.8680  178.0030  143.3600 C   0  0  0  0  0  2  0  0  0  0  0  0
  181.3890  177.3180  135.6840 C   0  0  0  0  0  1  0  0  0  0  0  0
  182.4070  177.6640  136.7150 C   0  0  0  0  0  0  0  0  0  0  0  0
  190.2050  177.3400  142.9460 C   0  0  2  0  0  3  0  0  0  0  0  0
  185.8080  177.8340  137.7240 N   0  0  0  0  0  0  0  0  0  0  0  0
  186.7600  179.0920  142.4710 C   0  0  0  0  0  2  0  0  0  0  0  0
  184.3910  177.8650  137.5720 C   0  0  0  0  0  0  0  0  0  0  0  0
  187.8290  177.8850  137.9840 C   0  0  2  0  0  3  0  0  0  0  0  0
  189.4110  177.1310  140.6080 C   0  0  0  0  0  0  0  0  0  0  0  0
  183.4680  178.3830  138.6250 C   0  0  2  0  0  3  0  0  0  0  0  0
  185.4760  178.4010  142.8040 C   0  0  0  0  0  0  0  0  0  0  0  0
  187.8470  178.0660  142.2170 C   0  0  1  0  0  3  0  0  0  0  0  0
  183.7970  177.4760  136.4950 N   0  0  0  0  0  0  0  0  0  0  0  0
  188.5530  178.3250  140.8950 C   0  0  0  0  0  2  0  0  0  0  0  0
  184.4950  178.4080  141.9420 C   0  0  0  0  0  0  0  0  0  0  0  0
  186.7000  177.9870  138.8250 N   0  0  0  0  0  2  0  0  0  0  0  0
  190.1690  176.6520  141.6000 C   0  0  0  0  0  3  0  0  0  0  0  0
  186.9610  177.6820  136.8870 N   0  0  0  0  0  0  0  0  0  0  0  0
  183.5110  178.4040  141.0850 C   0  0  0  0  0  3  0  0  0  0  0  0
  188.6020  176.6290  138.2580 C   0  0  0  0  0  3  0  0  0  0  0  0
  183.5640  177.5290  139.8800 C   0  0  0  0  0  2  0  0  0  0  0  0
  189.2930  176.3370  139.3690 C   0  0  0  0  0  3  0  0  0  0  0  0
  191.9890  178.0010  145.1330 O   0  0  0  0  0  0  0  0  0  0  0  0
  191.5640  176.8170  145.0440 C   0  0  0  0  0  0  0  0  0  0  0  0
  190.6820  176.4340  143.9850 N   0  0  0  0  0  2  0  0  0  0  0  0
  192.0080  175.7990  146.0360 C   0  0  0  0  0  2  0  0  0  0  0  0
  192.6970  176.0420  148.5130 C   0  0  0  0  0  1  0  0  0  0  0  0
  190.6330  176.7830  147.6740 O   0  0  0  0  0  0  0  0  0  0  0  0
  191.7030  176.2550  147.4240 C   0  0  0  0  0  0  0  0  0  0  0  0
  186.8140  178.4690  134.5940 C   0  0  0  0  0  1  0  0  0  0  0  0
  187.0480  178.8640  136.0370 C   0  0  0  0  0  2  0  0  0  0  0  0
  180.5900  179.7370  139.0240 C   0  0  0  0  0  2  0  0  0  0  0  0
  180.8630  178.5400  138.5210 C   0  0  0  0  0  3  0  0  0  0  0  0
  185.2260  177.9050  144.1880 C   0  0  0  0  0  2  0  0  0  0  0  0
  185.2530  179.0570  145.1800 C   0  0  0  0  0  2  0  0  0  0  0  0
  186.9680  177.9160  146.5790 C   0  0  0  0  0  1  0  0  0  0  0  0
  185.5890  178.5510  146.5710 C   0  0  0  0  0  2  0  0  0  0  0  0
  1 34  1  0  0  0  0
  1 11  1  0  0  0  0
  3  4  1  0  0  0  0
  4  1  2  0  0  0  0
  5  2  1  0  0  0  0
  5 26  1  1  0  0  0
  6 17  1  0  0  0  0
  7 12  1  0  0  0  0
  8  6  1  0  0  0  0
  8 11  1  0  0  0  0
  9 21  1  1  0  0  0
  9 17  1  0  0  0  0
 10 15  1  0  0  0  0
 10 18  2  0  0  0  0
 11 22  1  1  0  0  0
 12 35  1  0  0  0  0
 13 15  1  6  0  0  0
 13  7  1  0  0  0  0
 13  2  1  0  0  0  0
 14  4  1  0  0  0  0
 14  8  2  0  0  0  0
 16 12  2  0  0  0  0
 18  5  1  0  0  0  0
 19  6  1  0  0  0  0
 19  9  1  0  0  0  0
 20 16  2  0  0  0  0
 21 23  2  0  0  0  0
 22 20  1  0  0  0  0
 23 10  1  0  0  0  0
 25 24  2  0  0  0  0
 25 27  1  0  0  0  0
 26 25  1  0  0  0  0
 27 30  1  0  0  0  0
 30 29  2  0  0  0  0
 30 28  1  0  0  0  0
 31 32  1  0  0  0  0
 32 19  1  0  0  0  0
 34 33  2  0  0  0  0
 35 36  1  0  0  0  0
 36 38  1  0  0  0  0
 38 37  1  0  0  0  0
M  END
>  <MODEL>
3

>  <REMARK>
 VINA RESULT:      -8.4      3.309      5.939
  Name = 
  8 active torsions:
  status: ('A' for Active; 'I' for Inactive)
    1  A    between atoms: C_1  and  C_28
    2  A    between atoms: C_5  and  C_32
    3  A    between atoms: C_5  and  C_38
    4  A    between atoms: C_7  and  N_35
    5  A    between atoms: C_12  and  C_15
    6  A    between atoms: C_12  and  C_20
    7  A    between atoms: C_15  and  C_29
    8  A    between atoms: C_23  and  N_31
                            x       y       z     vdW  Elec       q    Type
                         _______ _______ _______ _____ _____    ______ ____

>  <TORSDO>
F 8

$$$$
=
 OpenBabel11062414383D

 38 41  0  0  1  0  0  0  0  0999 V2000
  189.2440  177.5290  144.7700 C   0  0  0  0  0  0  0  0  0  0  0  0
  186.0080  177.5270  136.7680 C   0  0  0  0  0  2  0  0  0  0  0  0
  188.6140  177.1260  147.1780 C   0  0  0  0  0  1  0  0  0  0  0  0
  188.3370  177.4220  145.7440 C   0  0  0  0  0  0  0  0  0  0  0  0
  184.4910  177.3240  136.5280 C   0  0  2  0  0  3  0  0  0  0  0  0
  186.0050  178.1130  143.1560 N   0  0  0  0  0  0  0  0  0  0  0  0
  187.7310  178.2850  138.4640 C   0  0  0  0  0  2  0  0  0  0  0  0
  187.1290  177.8510  143.9930 C   0  0  0  0  0  0  0  0  0  0  0  0
  184.4530  178.5650  141.9150 C   0  0  2  0  0  3  0  0  0  0  0  0
  184.0480  177.5480  138.9560 C   0  0  0  0  0  0  0  0  0  0  0  0
  188.5360  177.8490  143.4940 C   0  0  2  0  0  3  0  0  0  0  0  0
  188.7200  177.2520  138.8990 C   0  0  0  0  0  0  0  0  0  0  0  0
  186.3730  177.6430  138.2530 C   0  0  1  0  0  3  0  0  0  0  0  0
  187.0190  177.6270  145.2580 N   0  0  0  0  0  0  0  0  0  0  0  0
  185.2850  178.3930  139.0050 C   0  0  0  0  0  2  0  0  0  0  0  0
  189.1580  177.2520  140.1290 C   0  0  0  0  0  0  0  0  0  0  0  0
  185.8000  178.1800  141.7480 N   0  0  0  0  0  2  0  0  0  0  0  0
  183.6980  177.0190  137.7790 C   0  0  0  0  0  3  0  0  0  0  0  0
  184.6230  178.4570  143.3150 N   0  0  0  0  0  0  0  0  0  0  0  0
  189.5970  177.2400  141.3580 C   0  0  0  0  0  3  0  0  0  0  0  0
  183.5160  177.4980  141.4340 C   0  0  0  0  0  3  0  0  0  0  0  0
  188.7300  176.7450  142.4640 C   0  0  0  0  0  2  0  0  0  0  0  0
  183.3350  177.0980  140.1670 C   0  0  0  0  0  3  0  0  0  0  0  0
  184.6040  174.4490  136.8670 O   0  0  0  0  0  0  0  0  0  0  0  0
  184.3240  174.9050  135.7260 C   0  0  0  0  0  0  0  0  0  0  0  0
  184.2550  176.3170  135.5000 N   0  0  0  0  0  2  0  0  0  0  0  0
  184.0920  173.9670  134.5940 C   0  0  0  0  0  2  0  0  0  0  0  0
  181.6300  173.4450  135.1750 C   0  0  0  0  0  1  0  0  0  0  0  0
  183.3010  171.7990  135.0610 O   0  0  0  0  0  0  0  0  0  0  0  0
  183.0260  172.9820  134.9430 C   0  0  0  0  0  0  0  0  0  0  0  0
  184.2070  179.7350  145.3380 C   0  0  0  0  0  1  0  0  0  0  0  0
  184.5630  179.8050  143.8670 C   0  0  0  0  0  2  0  0  0  0  0  0
  191.5610  178.2860  144.3380 C   0  0  0  0  0  2  0  0  0  0  0  0
  190.7130  177.4150  144.8700 C   0  0  0  0  0  3  0  0  0  0  0  0
  189.3780  176.3690  137.8930 C   0  0  0  0  0  2  0  0  0  0  0  0
  189.8680  177.1870  136.7070 C   0  0  0  0  0  2  0  0  0  0  0  0
  188.7200  175.2320  135.6800 C   0  0  0  0  0  1  0  0  0  0  0  0
  189.4340  176.5430  135.4040 C   0  0  0  0  0  2  0  0  0  0  0  0
  1 34  1  0  0  0  0
  1  4  2  0  0  0  0
  4  3  1  0  0  0  0
  5 26  1  6  0  0  0
  5  2  1  0  0  0  0
  5 18  1  0  0  0  0
  6 19  1  0  0  0  0
  6  8  1  0  0  0  0
  7 12  1  0  0  0  0
  8 14  2  0  0  0  0
  9 21  1  6  0  0  0
  9 19  1  0  0  0  0
 10 15  1  0  0  0  0
 10 23  1  0  0  0  0
 11 22  1  6  0  0  0
 11  8  1  0  0  0  0
 11  1  1  0  0  0  0
 12 16  2  0  0  0  0
 13  2  1  6  0  0  0
 13  7  1  0  0  0  0
 13 15  1  0  0  0  0
 14  4  1  0  0  0  0
 16 20  2  0  0  0  0
 17  9  1  0  0  0  0
 17  6  1  0  0  0  0
 18 10  2  0  0  0  0
 19 32  1  0  0  0  0
 20 22  1  0  0  0  0
 23 21  2  0  0  0  0
 25 24  2  0  0  0  0
 26 25  1  0  0  0  0
 27 30  1  0  0  0  0
 27 25  1  0  0  0  0
 30 29  2  0  0  0  0
 30 28  1  0  0  0  0
 32 31  1  0  0  0  0
 33 34  2  0  0  0  0
 35 12  1  0  0  0  0
 36 35  1  0  0  0  0
 38 37  1  0  0  0  0
 38 36  1  0  0  0  0
M  END
>  <MODEL>
4

>  <REMARK>
 VINA RESULT:      -7.2      3.535      6.937
  Name = 
  8 active torsions:
  status: ('A' for Active; 'I' for Inactive)
    1  A    between atoms: C_1  and  C_28
    2  A    between atoms: C_5  and  C_32
    3  A    between atoms: C_5  and  C_38
    4  A    between atoms: C_7  and  N_35
    5  A    between atoms: C_12  and  C_15
    6  A    between atoms: C_12  and  C_20
    7  A    between atoms: C_15  and  C_29
    8  A    between atoms: C_23  and  N_31
                            x       y       z     vdW  Elec       q    Type
                         _______ _______ _______ _____ _____    ______ ____

>  <TORSDO>
F 8

$$$$
=
 OpenBabel11062414383D

 38 41  0  0  1  0  0  0  0  0999 V2000
  189.3320  177.3590  144.9100 C   0  0  0  0  0  0  0  0  0  0  0  0
  186.1160  177.6220  136.9050 C   0  0  0  0  0  2  0  0  0  0  0  0
  188.6820  176.9390  147.3100 C   0  0  0  0  0  1  0  0  0  0  0  0
  188.4200  177.2700  145.8810 C   0  0  0  0  0  0  0  0  0  0  0  0
  184.5930  177.4830  136.6580 C   0  0  2  0  0  3  0  0  0  0  0  0
  186.1220  178.0970  143.3020 N   0  0  0  0  0  0  0  0  0  0  0  0
  187.8630  178.2830  138.6160 C   0  0  0  0  0  2  0  0  0  0  0  0
  187.2330  177.7760  144.1350 C   0  0  0  0  0  0  0  0  0  0  0  0
  184.5910  178.6310  142.0670 C   0  0  2  0  0  3  0  0  0  0  0  0
  184.1530  177.6820  139.0890 C   0  0  0  0  0  0  0  0  0  0  0  0
  188.6400  177.7280  143.6380 C   0  0  2  0  0  3  0  0  0  0  0  0
  188.8110  177.2040  139.0350 C   0  0  0  0  0  0  0  0  0  0  0  0
  186.4820  177.6980  138.3920 C   0  0  1  0  0  3  0  0  0  0  0  0
  187.1120  177.5350  145.3970 N   0  0  0  0  0  0  0  0  0  0  0  0
  185.4220  178.4770  139.1550 C   0  0  0  0  0  2  0  0  0  0  0  0
  189.2460  177.1660  140.2650 C   0  0  0  0  0  0  0  0  0  0  0  0
  185.9230  178.1960  141.8940 N   0  0  0  0  0  2  0  0  0  0  0  0
  183.7860  177.1870  137.9030 C   0  0  0  0  0  3  0  0  0  0  0  0
  184.7540  178.4920  143.4640 N   0  0  0  0  0  0  0  0  0  0  0  0
  189.6820  177.1160  141.4940 C   0  0  0  0  0  3  0  0  0  0  0  0
  183.6140  177.6090  141.5660 C   0  0  0  0  0  3  0  0  0  0  0  0
  188.7930  176.6350  142.5900 C   0  0  0  0  0  2  0  0  0  0  0  0
  183.4210  177.2380  140.2920 C   0  0  0  0  0  3  0  0  0  0  0  0
  184.9840  174.6170  136.8300 O   0  0  0  0  0  0  0  0  0  0  0  0
  184.5330  175.0950  135.7550 C   0  0  0  0  0  0  0  0  0  0  0  0
  184.3200  176.5030  135.6130 N   0  0  0  0  0  2  0  0  0  0  0  0
  184.2450  174.1900  134.6080 C   0  0  0  0  0  2  0  0  0  0  0  0
  184.7130  171.6920  135.0690 C   0  0  0  0  0  1  0  0  0  0  0  0
  182.6450  172.7140  135.5060 O   0  0  0  0  0  0  0  0  0  0  0  0
  183.7850  172.8570  135.0990 C   0  0  0  0  0  0  0  0  0  0  0  0
  184.4820  179.7410  145.5290 C   0  0  0  0  0  1  0  0  0  0  0  0
  184.7460  179.8310  144.0400 C   0  0  0  0  0  2  0  0  0  0  0  0
  191.6770  177.9890  144.4300 C   0  0  0  0  0  2  0  0  0  0  0  0
  190.7950  177.1860  145.0100 C   0  0  0  0  0  3  0  0  0  0  0  0
  189.4360  176.3150  138.0140 C   0  0  0  0  0  2  0  0  0  0  0  0
  190.6960  176.9540  137.4500 C   0  0  0  0  0  2  0  0  0  0  0  0
  192.1170  174.9150  137.6000 C   0  0  0  0  0  1  0  0  0  0  0  0
  191.9300  176.3410  138.0860 C   0  0  0  0  0  2  0  0  0  0  0  0
  1 34  1  0  0  0  0
  1  4  2  0  0  0  0
  4  3  1  0  0  0  0
  5 26  1  6  0  0  0
  5  2  1  0  0  0  0
  5 18  1  0  0  0  0
  6 19  1  0  0  0  0
  6  8  1  0  0  0  0
  7 12  1  0  0  0  0
  8 14  2  0  0  0  0
  9 21  1  6  0  0  0
  9 19  1  0  0  0  0
 10 15  1  0  0  0  0
 10 23  1  0  0  0  0
 11 22  1  6  0  0  0
 11  8  1  0  0  0  0
 11  1  1  0  0  0  0
 12 16  2  0  0  0  0
 13  2  1  6  0  0  0
 13  7  1  0  0  0  0
 13 15  1  0  0  0  0
 14  4  1  0  0  0  0
 16 20  2  0  0  0  0
 17  9  1  0  0  0  0
 17  6  1  0  0  0  0
 18 10  2  0  0  0  0
 19 32  1  0  0  0  0
 20 22  1  0  0  0  0
 23 21  2  0  0  0  0
 25 24  2  0  0  0  0
 26 25  1  0  0  0  0
 27 30  1  0  0  0  0
 27 25  1  0  0  0  0
 28 30  1  0  0  0  0
 30 29  2  0  0  0  0
 32 31  1  0  0  0  0
 33 34  2  0  0  0  0
 35 12  1  0  0  0  0
 36 35  1  0  0  0  0
 36 38  1  0  0  0  0
 37 38  1  0  0  0  0
M  END
>  <MODEL>
5

>  <REMARK>
 VINA RESULT:      -7.1      3.393      6.597
  Name = 
  8 active torsions:
  status: ('A' for Active; 'I' for Inactive)
    1  A    between atoms: C_1  and  C_28
    2  A    between atoms: C_5  and  C_32
    3  A    between atoms: C_5  and  C_38
    4  A    between atoms: C_7  and  N_35
    5  A    between atoms: C_12  and  C_15
    6  A    between atoms: C_12  and  C_20
    7  A    between atoms: C_15  and  C_29
    8  A    between atoms: C_23  and  N_31
                            x       y       z     vdW  Elec       q    Type
                         _______ _______ _______ _____ _____    ______ ____

>  <TORSDO>
F 8

$$$$
=
 OpenBabel11062414383D

 38 41  0  0  1  0  0  0  0  0999 V2000
  190.9920  177.2070  141.4420 C   0  0  0  0  0  0  0  0  0  0  0  0
  182.5170  178.8120  141.1340 C   0  0  0  0  0  2  0  0  0  0  0  0
  193.0940  177.3050  140.0530 C   0  0  0  0  0  1  0  0  0  0  0  0
  191.6200  177.2670  140.2650 C   0  0  0  0  0  0  0  0  0  0  0  0
  181.8370  179.2230  139.8050 C   0  0  2  0  0  3  0  0  0  0  0  0
  188.3330  177.2560  138.9200 N   0  0  0  0  0  0  0  0  0  0  0  0
  184.5120  177.6080  142.1290 C   0  0  0  0  0  2  0  0  0  0  0  0
  189.5230  177.2550  139.7050 C   0  0  0  0  0  0  0  0  0  0  0  0
  186.5930  177.1820  137.8610 C   0  0  2  0  0  3  0  0  0  0  0  0
  183.9030  178.6820  138.5480 C   0  0  0  0  0  0  0  0  0  0  0  0
  189.5190  177.1710  141.1950 C   0  0  2  0  0  3  0  0  0  0  0  0
  185.4270  178.4410  142.9680 C   0  0  0  0  0  0  0  0  0  0  0  0
  183.9920  178.4280  140.9640 C   0  0  1  0  0  3  0  0  0  0  0  0
  190.7020  177.2930  139.1830 N   0  0  0  0  0  0  0  0  0  0  0  0
  184.1970  177.7020  139.6430 C   0  0  0  0  0  2  0  0  0  0  0  0
  186.7110  178.2010  142.9600 C   0  0  0  0  0  0  0  0  0  0  0  0
  186.9470  177.4300  139.2040 N   0  0  0  0  0  2  0  0  0  0  0  0
  182.7950  179.4230  138.6510 C   0  0  0  0  0  3  0  0  0  0  0  0
  187.9660  177.0540  137.5490 N   0  0  0  0  0  0  0  0  0  0  0  0
  187.9960  177.9730  142.9540 C   0  0  0  0  0  3  0  0  0  0  0  0
  186.0380  178.4120  137.2060 C   0  0  0  0  0  3  0  0  0  0  0  0
  188.8300  178.3900  141.7910 C   0  0  0  0  0  2  0  0  0  0  0  0
  184.8770  179.0200  137.4920 C   0  0  0  0  0  3  0  0  0  0  0  0
  179.2470  179.7000  138.5940 O   0  0  0  0  0  0  0  0  0  0  0  0
  179.7170  180.5790  139.3660 C   0  0  0  0  0  0  0  0  0  0  0  0
  180.9910  180.3970  139.9920 N   0  0  0  0  0  2  0  0  0  0  0  0
  178.9520  181.8330  139.6080 C   0  0  0  0  0  2  0  0  0  0  0  0
  178.9330  184.3010  138.8490 C   0  0  0  0  0  1  0  0  0  0  0  0
  180.0400  182.6010  137.6670 O   0  0  0  0  0  0  0  0  0  0  0  0
  179.3650  182.8910  138.6400 C   0  0  0  0  0  0  0  0  0  0  0  0
  189.0080  175.5590  135.9430 C   0  0  0  0  0  1  0  0  0  0  0  0
  188.2120  175.6530  137.2280 C   0  0  0  0  0  2  0  0  0  0  0  0
  191.3960  176.1210  143.6300 C   0  0  0  0  0  2  0  0  0  0  0  0
  191.5840  177.1330  142.7930 C   0  0  0  0  0  3  0  0  0  0  0  0
  184.8700  179.3850  143.9800 C   0  0  0  0  0  2  0  0  0  0  0  0
  184.5720  178.6570  145.2810 C   0  0  0  0  0  2  0  0  0  0  0  0
  186.5650  177.8480  146.5340 C   0  0  0  0  0  1  0  0  0  0  0  0
  185.6070  179.0080  146.3340 C   0  0  0  0  0  2  0  0  0  0  0  0
  1 34  1  0  0  0  0
  3  4  1  0  0  0  0
  4  1  2  0  0  0  0
  5 26  1  1  0  0  0
  5  2  1  0  0  0  0
  6 17  1  0  0  0  0
  6  8  1  0  0  0  0
  7 12  1  0  0  0  0
  8 11  1  0  0  0  0
  9 21  1  6  0  0  0
  9 17  1  0  0  0  0
 10 18  2  0  0  0  0
 10 15  1  0  0  0  0
 11  1  1  0  0  0  0
 11 22  1  1  0  0  0
 12 35  1  0  0  0  0
 13 15  1  6  0  0  0
 13  2  1  0  0  0  0
 13  7  1  0  0  0  0
 14  8  2  0  0  0  0
 14  4  1  0  0  0  0
 16 12  2  0  0  0  0
 18  5  1  0  0  0  0
 19  9  1  0  0  0  0
 19  6  1  0  0  0  0
 20 16  2  0  0  0  0
 21 23  2  0  0  0  0
 22 20  1  0  0  0  0
 23 10  1  0  0  0  0
 24 25  2  0  0  0  0
 25 27  1  0  0  0  0
 25 26  1  0  0  0  0
 29 30  2  0  0  0  0
 30 28  1  0  0  0  0
 30 27  1  0  0  0  0
 31 32  1  0  0  0  0
 32 19  1  0  0  0  0
 34 33  2  0  0  0  0
 35 36  1  0  0  0  0
 36 38  1  0  0  0  0
 38 37  1  0  0  0  0
M  END
>  <MODEL>
6

>  <REMARK>
 VINA RESULT:      -6.9      4.222      9.025
  Name = 
  8 active torsions:
  status: ('A' for Active; 'I' for Inactive)
    1  A    between atoms: C_1  and  C_28
    2  A    between atoms: C_5  and  C_32
    3  A    between atoms: C_5  and  C_38
    4  A    between atoms: C_7  and  N_35
    5  A    between atoms: C_12  and  C_15
    6  A    between atoms: C_12  and  C_20
    7  A    between atoms: C_15  and  C_29
    8  A    between atoms: C_23  and  N_31
                            x       y       z     vdW  Elec       q    Type
                         _______ _______ _______ _____ _____    ______ ____

>  <TORSDO>
F 8

$$$$
=
 OpenBabel11062414383D

 38 41  0  0  1  0  0  0  0  0999 V2000
  190.6800  175.7780  137.0610 C   0  0  0  0  0  0  0  0  0  0  0  0
  183.5800  179.1340  140.6440 C   0  0  0  0  0  2  0  0  0  0  0  0
  192.7260  174.4040  137.5930 C   0  0  0  0  0  1  0  0  0  0  0  0
  191.5630  175.2740  137.9260 C   0  0  0  0  0  0  0  0  0  0  0  0
  183.3520  179.0530  142.1740 C   0  0  2  0  0  3  0  0  0  0  0  0
  189.6190  176.9890  140.3540 N   0  0  0  0  0  0  0  0  0  0  0  0
  185.3520  179.1100  138.8320 C   0  0  0  0  0  2  0  0  0  0  0  0
  190.2130  176.3990  139.2000 C   0  0  0  0  0  0  0  0  0  0  0  0
  188.7590  177.9220  141.9490 C   0  0  2  0  0  3  0  0  0  0  0  0
  185.6690  178.2390  142.5050 C   0  0  0  0  0  0  0  0  0  0  0  0
  189.6910  176.6040  137.8170 C   0  0  2  0  0  3  0  0  0  0  0  0
  185.2660  177.9880  137.8470 C   0  0  0  0  0  0  0  0  0  0  0  0
  184.9580  178.6170  140.2110 C   0  0  1  0  0  3  0  0  0  0  0  0
  191.2720  175.6650  139.2600 N   0  0  0  0  0  0  0  0  0  0  0  0
  186.0070  178.9840  141.2500 C   0  0  0  0  0  2  0  0  0  0  0  0
  186.3600  177.4720  137.3560 C   0  0  0  0  0  0  0  0  0  0  0  0
  188.3800  177.6410  140.6190 N   0  0  0  0  0  2  0  0  0  0  0  0
  184.3970  178.2530  142.9180 C   0  0  0  0  0  3  0  0  0  0  0  0
  189.9740  177.2370  141.7200 N   0  0  0  0  0  0  0  0  0  0  0  0
  187.4480  176.9460  136.8640 C   0  0  0  0  0  3  0  0  0  0  0  0
  187.9220  177.1550  142.9290 C   0  0  0  0  0  3  0  0  0  0  0  0
  188.2850  176.0330  137.6920 C   0  0  0  0  0  2  0  0  0  0  0  0
  186.6140  177.3230  143.1740 C   0  0  0  0  0  3  0  0  0  0  0  0
  180.8510  180.2740  141.3640 O   0  0  0  0  0  0  0  0  0  0  0  0
  180.8060  179.2160  142.0480 C   0  0  0  0  0  0  0  0  0  0  0  0
  182.0090  178.5700  142.4760 N   0  0  0  0  0  2  0  0  0  0  0  0
  179.4870  178.6470  142.4390 C   0  0  0  0  0  2  0  0  0  0  0  0
  178.9310  179.7360  144.7140 C   0  0  0  0  0  1  0  0  0  0  0  0
  179.6780  177.5210  144.4980 O   0  0  0  0  0  0  0  0  0  0  0  0
  179.3790  178.5550  143.9250 C   0  0  0  0  0  0  0  0  0  0  0  0
  191.7020  178.2570  143.0890 C   0  0  0  0  0  1  0  0  0  0  0  0
  191.0420  178.2290  141.7260 C   0  0  0  0  0  2  0  0  0  0  0  0
  191.6400  176.0040  134.7900 C   0  0  0  0  0  2  0  0  0  0  0  0
  190.6500  175.6310  135.5920 C   0  0  0  0  0  3  0  0  0  0  0  0
  183.9510  177.6080  137.2530 C   0  0  0  0  0  2  0  0  0  0  0  0
  183.6610  176.1360  137.5000 C   0  0  0  0  0  2  0  0  0  0  0  0
  182.3160  175.9960  139.5910 C   0  0  0  0  0  1  0  0  0  0  0  0
  182.2670  175.9600  138.0740 C   0  0  0  0  0  2  0  0  0  0  0  0
  1 11  1  0  0  0  0
  1  4  2  0  0  0  0
  2  5  1  0  0  0  0
  3  4  1  0  0  0  0
  4 14  1  0  0  0  0
  5 26  1  6  0  0  0
  5 18  1  0  0  0  0
  6 17  1  0  0  0  0
  6 19  1  0  0  0  0
  8 14  2  0  0  0  0
  8  6  1  0  0  0  0
  9 21  1  1  0  0  0
 10 18  2  0  0  0  0
 10 23  1  0  0  0  0
 11 22  1  1  0  0  0
 11  8  1  0  0  0  0
 12  7  1  0  0  0  0
 13  7  1  6  0  0  0
 13  2  1  0  0  0  0
 13 15  1  0  0  0  0
 15 10  1  0  0  0  0
 16 12  2  0  0  0  0
 17  9  1  0  0  0  0
 19 32  1  0  0  0  0
 19  9  1  0  0  0  0
 20 16  2  0  0  0  0
 20 22  1  0  0  0  0
 21 23  2  0  0  0  0
 24 25  2  0  0  0  0
 25 27  1  0  0  0  0
 25 26  1  0  0  0  0
 27 30  1  0  0  0  0
 30 29  2  0  0  0  0
 30 28  1  0  0  0  0
 32 31  1  0  0  0  0
 33 34  2  0  0  0  0
 34  1  1  0  0  0  0
 35 36  1  0  0  0  0
 35 12  1  0  0  0  0
 36 38  1  0  0  0  0
 38 37  1  0  0  0  0
M  END
>  <MODEL>
7

>  <REMARK>
 VINA RESULT:      -6.9      3.989     10.086
  Name = 
  8 active torsions:
  status: ('A' for Active; 'I' for Inactive)
    1  A    between atoms: C_1  and  C_28
    2  A    between atoms: C_5  and  C_32
    3  A    between atoms: C_5  and  C_38
    4  A    between atoms: C_7  and  N_35
    5  A    between atoms: C_12  and  C_15
    6  A    between atoms: C_12  and  C_20
    7  A    between atoms: C_15  and  C_29
    8  A    between atoms: C_23  and  N_31
                            x       y       z     vdW  Elec       q    Type
                         _______ _______ _______ _____ _____    ______ ____

>  <TORSDO>
F 8

$$$$
=
 OpenBabel11062414383D

 38 41  0  0  1  0  0  0  0  0999 V2000
  182.3180  178.0390  139.2340 C   0  0  0  0  0  0  0  0  0  0  0  0
  189.6260  175.5480  135.3730 C   0  0  0  0  0  2  0  0  0  0  0  0
  180.4280  177.1860  140.6680 C   0  0  0  0  0  1  0  0  0  0  0  0
  181.5770  177.0450  139.7300 C   0  0  0  0  0  0  0  0  0  0  0  0
  190.0460  174.0580  135.3620 C   0  0  2  0  0  3  0  0  0  0  0  0
  183.7160  174.9680  137.8010 N   0  0  0  0  0  0  0  0  0  0  0  0
  187.6470  177.1170  135.5750 C   0  0  0  0  0  2  0  0  0  0  0  0
  183.0150  176.0080  138.4780 C   0  0  0  0  0  0  0  0  0  0  0  0
  184.7190  173.5410  136.7460 C   0  0  2  0  0  3  0  0  0  0  0  0
  187.8330  173.3970  136.2600 C   0  0  0  0  0  0  0  0  0  0  0  0
  183.3500  177.4540  138.3240 C   0  0  2  0  0  3  0  0  0  0  0  0
  187.6670  178.0510  136.7430 C   0  0  0  0  0  0  0  0  0  0  0  0
  188.2330  175.7770  135.9750 C   0  0  1  0  0  3  0  0  0  0  0  0
  182.0100  175.7800  139.2550 N   0  0  0  0  0  0  0  0  0  0  0  0
  187.3040  174.6330  135.6000 C   0  0  0  0  0  2  0  0  0  0  0  0
  186.5490  178.3740  137.3330 C   0  0  0  0  0  0  0  0  0  0  0  0
  184.9440  174.8930  137.0810 N   0  0  0  0  0  2  0  0  0  0  0  0
  189.1440  173.1500  136.1670 C   0  0  0  0  0  3  0  0  0  0  0  0
  183.5210  173.5810  137.4960 N   0  0  0  0  0  0  0  0  0  0  0  0
  185.4370  178.6990  137.9340 C   0  0  0  0  0  3  0  0  0  0  0  0
  185.7100  172.6390  137.4200 C   0  0  0  0  0  3  0  0  0  0  0  0
  184.7560  177.7280  138.8370 C   0  0  0  0  0  2  0  0  0  0  0  0
  187.0270  172.5710  137.1810 C   0  0  0  0  0  3  0  0  0  0  0  0
  191.1340  174.5020  138.0110 O   0  0  0  0  0  0  0  0  0  0  0  0
  191.9200  174.1380  137.0950 C   0  0  0  0  0  0  0  0  0  0  0  0
  191.4390  173.9050  135.7670 N   0  0  0  0  0  2  0  0  0  0  0  0
  193.3710  173.9780  137.3890 C   0  0  0  0  0  2  0  0  0  0  0  0
  194.8230  175.4890  135.8800 C   0  0  0  0  0  1  0  0  0  0  0  0
  194.1100  176.1210  138.0260 O   0  0  0  0  0  0  0  0  0  0  0  0
  194.0950  175.2630  137.1590 C   0  0  0  0  0  0  0  0  0  0  0  0
  181.4140  172.4600  137.0470 C   0  0  0  0  0  1  0  0  0  0  0  0
  182.4130  173.4870  136.5550 C   0  0  0  0  0  2  0  0  0  0  0  0
  182.1630  180.3930  138.4860 C   0  0  0  0  0  2  0  0  0  0  0  0
  182.1720  179.4910  139.4580 C   0  0  0  0  0  3  0  0  0  0  0  0
  188.9160  178.7880  137.0950 C   0  0  0  0  0  2  0  0  0  0  0  0
  189.0570  178.9050  138.6050 C   0  0  0  0  0  2  0  0  0  0  0  0
  189.0430  177.4840  140.6490 C   0  0  0  0  0  1  0  0  0  0  0  0
  189.4880  177.5780  139.2010 C   0  0  0  0  0  2  0  0  0  0  0  0
  1 34  1  0  0  0  0
  1  4  2  0  0  0  0
  4  3  1  0  0  0  0
  5  2  1  0  0  0  0
  5 26  1  1  0  0  0
  5 18  1  0  0  0  0
  6  8  1  0  0  0  0
  7 13  1  0  0  0  0
  7 12  1  0  0  0  0
  8 14  2  0  0  0  0
  9 17  1  0  0  0  0
  9 21  1  1  0  0  0
  9 19  1  0  0  0  0
 10 23  1  0  0  0  0
 11  8  1  0  0  0  0
 11 22  1  1  0  0  0
 11  1  1  0  0  0  0
 12 35  1  0  0  0  0
 12 16  2  0  0  0  0
 13  2  1  6  0  0  0
 14  4  1  0  0  0  0
 15 13  1  0  0  0  0
 15 10  1  0  0  0  0
 16 20  2  0  0  0  0
 17  6  1  0  0  0  0
 18 10  2  0  0  0  0
 19  6  1  0  0  0  0
 20 22  1  0  0  0  0
 23 21  2  0  0  0  0
 25 27  1  0  0  0  0
 25 24  2  0  0  0  0
 26 25  1  0  0  0  0
 28 30  1  0  0  0  0
 30 27  1  0  0  0  0
 30 29  2  0  0  0  0
 32 31  1  0  0  0  0
 32 19  1  0  0  0  0
 33 34  2  0  0  0  0
 35 36  1  0  0  0  0
 36 38  1  0  0  0  0
 38 37  1  0  0  0  0
M  END
>  <MODEL>
8

>  <REMARK>
 VINA RESULT:      -6.6      3.281      5.058
  Name = 
  8 active torsions:
  status: ('A' for Active; 'I' for Inactive)
    1  A    between atoms: C_1  and  C_28
    2  A    between atoms: C_5  and  C_32
    3  A    between atoms: C_5  and  C_38
    4  A    between atoms: C_7  and  N_35
    5  A    between atoms: C_12  and  C_15
    6  A    between atoms: C_12  and  C_20
    7  A    between atoms: C_15  and  C_29
    8  A    between atoms: C_23  and  N_31
                            x       y       z     vdW  Elec       q    Type
                         _______ _______ _______ _____ _____    ______ ____

>  <TORSDO>
F 8

$$$$
=
 OpenBabel11062414383D

 38 41  0  0  1  0  0  0  0  0999 V2000
  190.7160  177.3210  141.1020 C   0  0  0  0  0  0  0  0  0  0  0  0
  182.2380  178.3920  139.8830 C   0  0  0  0  0  2  0  0  0  0  0  0
  192.9220  177.3040  139.8800 C   0  0  0  0  0  1  0  0  0  0  0  0
  191.4380  177.2220  139.9820 C   0  0  0  0  0  0  0  0  0  0  0  0
  181.6570  178.5420  138.4550 C   0  0  2  0  0  3  0  0  0  0  0  0
  188.2790  176.8110  138.4120 N   0  0  0  0  0  0  0  0  0  0  0  0
  184.1900  177.4780  141.2150 C   0  0  0  0  0  2  0  0  0  0  0  0
  189.3980  177.0040  139.2740 C   0  0  0  0  0  0  0  0  0  0  0  0
  186.6390  176.4710  137.2500 C   0  0  2  0  0  3  0  0  0  0  0  0
  183.8420  177.9140  137.4690 C   0  0  0  0  0  0  0  0  0  0  0  0
  189.2720  177.1660  140.7520 C   0  0  2  0  0  3  0  0  0  0  0  0
  184.9970  178.4850  141.9700 C   0  0  0  0  0  0  0  0  0  0  0  0
  183.7370  178.0650  139.8930 C   0  0  1  0  0  3  0  0  0  0  0  0
  190.6140  177.0200  138.8440 N   0  0  0  0  0  0  0  0  0  0  0  0
  184.0820  177.1450  138.7320 C   0  0  0  0  0  2  0  0  0  0  0  0
  186.2850  178.3170  142.1000 C   0  0  0  0  0  0  0  0  0  0  0  0
  186.8690  176.9550  138.5560 N   0  0  0  0  0  2  0  0  0  0  0  0
  182.6990  178.6010  137.3610 C   0  0  0  0  0  3  0  0  0  0  0  0
  188.0380  176.3680  137.0700 N   0  0  0  0  0  0  0  0  0  0  0  0
  187.5740  178.1610  142.2300 C   0  0  0  0  0  3  0  0  0  0  0  0
  186.0910  177.5450  136.3580 C   0  0  0  0  0  3  0  0  0  0  0  0
  188.4860  178.4260  141.0810 C   0  0  0  0  0  2  0  0  0  0  0  0
  184.8870  178.1280  136.4480 C   0  0  0  0  0  3  0  0  0  0  0  0
  182.3850  181.3410  138.6250 O   0  0  0  0  0  0  0  0  0  0  0  0
  181.1700  181.0480  138.4670 C   0  0  0  0  0  0  0  0  0  0  0  0
  180.7510  179.6830  138.3770 N   0  0  0  0  0  2  0  0  0  0  0  0
  180.1520  182.1340  138.4020 C   0  0  0  0  0  2  0  0  0  0  0  0
  180.4790  182.5640  135.8770 C   0  0  0  0  0  1  0  0  0  0  0  0
  180.7090  184.2390  137.5060 O   0  0  0  0  0  0  0  0  0  0  0  0
  180.4570  183.0680  137.2780 C   0  0  0  0  0  0  0  0  0  0  0  0
  189.2960  174.6940  135.8400 C   0  0  0  0  0  1  0  0  0  0  0  0
  188.3670  174.9490  137.0090 C   0  0  0  0  0  2  0  0  0  0  0  0
  191.2240  178.6720  143.1130 C   0  0  0  0  0  2  0  0  0  0  0  0
  191.1950  177.5030  142.4870 C   0  0  0  0  0  3  0  0  0  0  0  0
  184.3190  179.5510  142.7630 C   0  0  0  0  0  2  0  0  0  0  0  0
  184.6060  179.3750  144.2460 C   0  0  0  0  0  2  0  0  0  0  0  0
  182.1840  178.8440  144.0130 C   0  0  0  0  0  1  0  0  0  0  0  0
  183.3500  178.9420  144.9800 C   0  0  0  0  0  2  0  0  0  0  0  0
  1 34  1  0  0  0  0
  2 13  1  0  0  0  0
  3  4  1  0  0  0  0
  4  1  2  0  0  0  0
  5 26  1  1  0  0  0
  5  2  1  0  0  0  0
  6 17  1  0  0  0  0
  6  8  1  0  0  0  0
  7 12  1  0  0  0  0
  8 11  1  0  0  0  0
  9 21  1  6  0  0  0
  9 17  1  0  0  0  0
 10 15  1  0  0  0  0
 11 22  1  6  0  0  0
 11  1  1  0  0  0  0
 12 16  2  0  0  0  0
 12 35  1  0  0  0  0
 13 15  1  6  0  0  0
 13  7  1  0  0  0  0
 14  8  2  0  0  0  0
 14  4  1  0  0  0  0
 16 20  2  0  0  0  0
 18 10  2  0  0  0  0
 18  5  1  0  0  0  0
 19  9  1  0  0  0  0
 19  6  1  0  0  0  0
 21 23  2  0  0  0  0
 22 20  1  0  0  0  0
 23 10  1  0  0  0  0
 25 24  2  0  0  0  0
 26 25  1  0  0  0  0
 27 25  1  0  0  0  0
 28 30  1  0  0  0  0
 30 29  2  0  0  0  0
 30 27  1  0  0  0  0
 31 32  1  0  0  0  0
 32 19  1  0  0  0  0
 34 33  2  0  0  0  0
 35 36  1  0  0  0  0
 36 38  1  0  0  0  0
 37 38  1  0  0  0  0
M  END
>  <MODEL>
9

>  <REMARK>
 VINA RESULT:      -6.4      3.843      8.853
  Name = 
  8 active torsions:
  status: ('A' for Active; 'I' for Inactive)
    1  A    between atoms: C_1  and  C_28
    2  A    between atoms: C_5  and  C_32
    3  A    between atoms: C_5  and  C_38
    4  A    between atoms: C_7  and  N_35
    5  A    between atoms: C_12  and  C_15
    6  A    between atoms: C_12  and  C_20
    7  A    between atoms: C_15  and  C_29
    8  A    between atoms: C_23  and  N_31
                            x       y       z     vdW  Elec       q    Type
                         _______ _______ _______ _____ _____    ______ ____

>  <TORSDO>
F 8

$$$$
