=
 OpenBabel11062416343D

 29 35  0  0  1  0  0  0  0  0999 V2000
  184.4950  178.1870  142.6650 N   0  0  0  0  0  0  0  0  0  0  0  0
  181.8240  178.7470  140.3200 C   0  0  1  0  0  0  0  0  0  0  0  0
  181.3580  179.3780  141.6370 C   0  0  0  0  0  2  0  0  0  0  0  0
  186.8070  177.8460  143.5410 C   0  0  2  0  0  3  0  0  0  0  0  0
  182.8390  179.3260  143.7200 N   0  0  0  0  0  0  0  0  0  0  0  0
  182.1070  176.0310  139.9220 O   0  0  0  0  0  0  0  0  0  0  0  0
  181.2970  179.2120  138.9860 C   0  0  0  0  0  2  0  0  0  0  0  0
  183.2400  178.1260  140.4310 C   0  0  1  0  0  3  0  0  0  0  0  0
  180.7210  177.9510  139.6320 C   0  0  1  0  0  3  0  0  0  0  0  0
  184.1060  178.8360  143.7850 C   0  0  0  0  0  0  0  0  0  0  0  0
  183.3940  178.1700  141.9010 C   0  0  0  0  0  0  0  0  0  0  0  0
  184.3680  179.0990  146.1170 O   0  0  0  0  0  1  0  0  0  0  0  0
  186.1070  177.9840  144.9070 C   0  0  1  0  0  3  0  0  0  0  0  0
  187.0950  178.2570  145.9400 N   0  0  0  0  0  1  0  0  0  0  0  0
  182.4150  178.8520  142.5320 C   0  0  0  0  0  0  0  0  0  0  0  0
  181.2940  176.6920  138.9910 C   0  0  0  0  0  2  0  0  0  0  0  0
  185.8680  177.8180  142.3160 C   0  0  2  0  0  3  0  0  0  0  0  0
  185.0560  179.0970  144.9020 C   0  0  1  0  0  3  0  0  0  0  0  0
  183.3410  176.6970  139.8760 C   0  0  0  0  0  2  0  0  0  0  0  0
  187.8590  176.3630  143.5180 S   0  0  0  0  0  0  0  0  0  0  0  0
  189.3550  177.3320  143.8540 C   0  0  0  0  0  1  0  0  0  0  0  0
  186.3900  178.7460  141.3190 N   0  0  0  0  0  2  0  0  0  0  0  0
  186.5140  178.4730  138.6940 S   0  0  0  0  0  0  0  0  0  0  0  0
  189.0450  178.4770  138.4560 C   0  0  0  0  0  1  0  0  0  0  0  0
  186.3940  177.2720  137.7980 O   0  0  0  0  0  0  0  0  0  0  0  0
  188.0550  178.9060  139.5190 C   0  0  2  0  0  0  0  0  0  0  0  0
  185.3100  179.3670  138.7870 O   0  0  0  0  0  0  0  0  0  0  0  0
  187.0990  177.9800  140.3020 C   0  0  1  0  0  0  0  0  0  0  0  0
  188.5460  177.9960  140.6070 C   0  0  0  0  0  2  0  0  0  0  0  0
  1 10  1  0  0  0  0
  2  7  1  6  0  0  0
  2  8  1  0  0  0  0
  2  3  1  0  0  0  0
  3 15  1  0  0  0  0
  4 20  1  1  0  0  0
  4 13  1  0  0  0  0
  5 10  2  0  0  0  0
  8 19  1  1  0  0  0
  8 11  1  0  0  0  0
  9  7  1  6  0  0  0
  9  2  1  0  0  0  0
 10 18  1  0  0  0  0
 11 15  2  0  0  0  0
 11  1  1  0  0  0  0
 13 14  1  1  0  0  0
 15  5  1  0  0  0  0
 16  9  1  0  0  0  0
 16  6  1  0  0  0  0
 17 22  1  6  0  0  0
 17  1  1  0  0  0  0
 17  4  1  0  0  0  0
 18 13  1  0  0  0  0
 18 12  1  1  0  0  0
 19  6  1  0  0  0  0
 20 21  1  0  0  0  0
 23 27  2  0  0  0  0
 23 26  1  0  0  0  0
 23 28  1  0  0  0  0
 25 23  2  0  0  0  0
 26 24  1  6  0  0  0
 26 28  1  0  0  0  0
 26 29  1  0  0  0  0
 28 29  1  0  0  0  0
 28 22  1  1  0  0  0
M  END
>  <MODEL>
1

>  <REMARK>
 VINA RESULT:      -6.2      0.000      0.000
  Name = 
  3 active torsions:
  status: ('A' for Active; 'I' for Inactive)
    1  A    between atoms: C_6  and  S_24
    2  A    between atoms: N_13  and  C_22
    3  A    between atoms: N_13  and  C_25
                            x       y       z     vdW  Elec       q    Type
                         _______ _______ _______ _____ _____    ______ ____

>  <TORSDO>
F 3

$$$$
=
 OpenBabel11062416343D

 29 35  0  0  1  0  0  0  0  0999 V2000
  189.1120  177.3700  138.7070 N   0  0  0  0  0  0  0  0  0  0  0  0
  188.6090  177.1410  142.2620 C   0  0  1  0  0  0  0  0  0  0  0  0
  187.5030  178.0690  141.7470 C   0  0  0  0  0  2  0  0  0  0  0  0
  189.7710  176.7170  136.3890 C   0  0  2  0  0  3  0  0  0  0  0  0
  187.3050  178.6280  139.2600 N   0  0  0  0  0  0  0  0  0  0  0  0
  191.2870  177.8030  142.3060 O   0  0  0  0  0  0  0  0  0  0  0  0
  188.4540  176.3530  143.5390 C   0  0  0  0  0  2  0  0  0  0  0  0
  189.5200  176.6170  141.1230 C   0  0  1  0  0  3  0  0  0  0  0  0
  189.2530  177.6580  143.5440 C   0  0  1  0  0  3  0  0  0  0  0  0
  188.0710  178.1090  138.2630 C   0  0  0  0  0  0  0  0  0  0  0  0
  189.0680  177.5160  140.0380 C   0  0  0  0  0  0  0  0  0  0  0  0
  187.1830  179.4440  136.5300 O   0  0  0  0  0  1  0  0  0  0  0  0
  189.0380  178.0200  136.0160 C   0  0  1  0  0  3  0  0  0  0  0  0
  188.7350  178.0220  134.5940 N   0  0  0  0  0  1  0  0  0  0  0  0
  187.9910  178.2610  140.3600 C   0  0  0  0  0  0  0  0  0  0  0  0
  190.7530  177.3850  143.5320 C   0  0  0  0  0  2  0  0  0  0  0  0
  189.9230  176.4530  137.9030 C   0  0  2  0  0  3  0  0  0  0  0  0
  187.7430  178.1970  136.8130 C   0  0  1  0  0  3  0  0  0  0  0  0
  191.0230  176.7580  141.4100 C   0  0  0  0  0  2  0  0  0  0  0  0
  191.4130  176.6710  135.6110 S   0  0  0  0  0  0  0  0  0  0  0  0
  192.2470  176.5300  137.2150 C   0  0  0  0  0  1  0  0  0  0  0  0
  189.5210  175.0760  138.1700 N   0  0  0  0  0  2  0  0  0  0  0  0
  189.9630  173.3040  136.2600 S   0  0  0  0  0  0  0  0  0  0  0  0
  187.6700  172.2050  136.2600 C   0  0  0  0  0  1  0  0  0  0  0  0
  189.9520  173.4130  134.7610 O   0  0  0  0  0  0  0  0  0  0  0  0
  188.4540  173.0780  137.2180 C   0  0  2  0  0  0  0  0  0  0  0  0
  191.3100  173.2830  136.9250 O   0  0  0  0  0  0  0  0  0  0  0  0
  188.8920  174.5370  136.9710 C   0  0  1  0  0  0  0  0  0  0  0  0
  187.4800  174.2190  137.2680 C   0  0  0  0  0  2  0  0  0  0  0  0
  1 11  1  0  0  0  0
  2  3  1  6  0  0  0
  2  7  1  0  0  0  0
  2  9  1  0  0  0  0
  4 20  1  6  0  0  0
  4 17  1  0  0  0  0
  5 15  1  0  0  0  0
  6 16  1  0  0  0  0
  7  9  1  0  0  0  0
  8 19  1  1  0  0  0
  8  2  1  0  0  0  0
  9 16  1  6  0  0  0
 10  1  1  0  0  0  0
 10  5  2  0  0  0  0
 11 15  2  0  0  0  0
 11  8  1  0  0  0  0
 13 14  1  6  0  0  0
 13  4  1  0  0  0  0
 13 18  1  0  0  0  0
 15  3  1  0  0  0  0
 17 22  1  6  0  0  0
 17  1  1  0  0  0  0
 18 12  1  1  0  0  0
 18 10  1  0  0  0  0
 19  6  1  0  0  0  0
 20 21  1  0  0  0  0
 23 27  2  0  0  0  0
 23 28  1  0  0  0  0
 23 26  1  0  0  0  0
 25 23  2  0  0  0  0
 26 24  1  6  0  0  0
 26 29  1  0  0  0  0
 28 26  1  0  0  0  0
 28 29  1  0  0  0  0
 28 22  1  1  0  0  0
M  END
>  <MODEL>
2

>  <REMARK>
 VINA RESULT:      -6.2      4.919      7.687
  Name = 
  3 active torsions:
  status: ('A' for Active; 'I' for Inactive)
    1  A    between atoms: C_6  and  S_24
    2  A    between atoms: N_13  and  C_22
    3  A    between atoms: N_13  and  C_25
                            x       y       z     vdW  Elec       q    Type
                         _______ _______ _______ _____ _____    ______ ____

>  <TORSDO>
F 3

$$$$
=
 OpenBabel11062416343D

 29 35  0  0  1  0  0  0  0  0999 V2000
  182.9620  178.7460  141.7160 N   0  0  0  0  0  0  0  0  0  0  0  0
  186.0960  177.7770  143.1930 C   0  0  1  0  0  0  0  0  0  0  0  0
  185.2020  178.2040  144.3620 C   0  0  0  0  0  2  0  0  0  0  0  0
  181.0500  178.8080  140.1120 C   0  0  2  0  0  3  0  0  0  0  0  0
  182.8040  178.9990  143.9660 N   0  0  0  0  0  0  0  0  0  0  0  0
  187.0980  179.5140  141.2980 O   0  0  0  0  0  0  0  0  0  0  0  0
  187.2410  176.8130  143.3790 C   0  0  0  0  0  2  0  0  0  0  0  0
  185.3710  177.8800  141.8260 C   0  0  1  0  0  3  0  0  0  0  0  0
  187.5170  178.3160  143.3180 C   0  0  1  0  0  3  0  0  0  0  0  0
  182.1600  179.0220  142.7690 C   0  0  0  0  0  0  0  0  0  0  0  0
  184.1850  178.6510  142.2560 C   0  0  0  0  0  0  0  0  0  0  0  0
  180.2050  180.0940  143.5450 O   0  0  0  0  0  1  0  0  0  0  0  0
  180.4180  179.7080  141.1920 C   0  0  1  0  0  3  0  0  0  0  0  0
  178.9830  179.7990  140.9760 N   0  0  0  0  0  1  0  0  0  0  0  0
  184.0830  178.7990  143.5920 C   0  0  0  0  0  0  0  0  0  0  0  0
  188.0530  178.7230  141.9500 C   0  0  0  0  0  2  0  0  0  0  0  0
  182.5190  178.4050  140.3620 C   0  0  2  0  0  3  0  0  0  0  0  0
  180.6880  179.1830  142.6040 C   0  0  1  0  0  3  0  0  0  0  0  0
  186.1810  178.6090  140.7430 C   0  0  0  0  0  2  0  0  0  0  0  0
  180.9200  179.5960  138.4780 S   0  0  0  0  0  0  0  0  0  0  0  0
  182.5560  180.3620  138.6400 C   0  0  0  0  0  1  0  0  0  0  0  0
  182.6410  176.9670  140.1510 N   0  0  0  0  0  2  0  0  0  0  0  0
  183.2360  176.6490  137.5960 S   0  0  0  0  0  0  0  0  0  0  0  0
  181.9660  174.4820  137.2040 C   0  0  0  0  0  1  0  0  0  0  0  0
  182.6650  177.2540  136.3440 O   0  0  0  0  0  0  0  0  0  0  0  0
  182.4750  175.2360  138.4140 C   0  0  2  0  0  0  0  0  0  0  0  0
  184.5430  177.2100  138.0810 O   0  0  0  0  0  0  0  0  0  0  0  0
  182.0060  176.6300  138.8830 C   0  0  1  0  0  0  0  0  0  0  0  0
  181.1430  175.4450  139.0750 C   0  0  0  0  0  2  0  0  0  0  0  0
  1 11  1  0  0  0  0
  1 10  1  0  0  0  0
  2  9  1  0  0  0  0
  2  7  1  1  0  0  0
  2  3  1  0  0  0  0
  4 20  1  6  0  0  0
  4 17  1  0  0  0  0
  4 13  1  0  0  0  0
  6 16  1  0  0  0  0
  8 19  1  6  0  0  0
  8 11  1  0  0  0  0
  8  2  1  0  0  0  0
  9 16  1  6  0  0  0
  9  7  1  0  0  0  0
 10  5  2  0  0  0  0
 11 15  2  0  0  0  0
 13 14  1  6  0  0  0
 13 18  1  0  0  0  0
 15  5  1  0  0  0  0
 15  3  1  0  0  0  0
 17 22  1  1  0  0  0
 17  1  1  0  0  0  0
 18 10  1  0  0  0  0
 18 12  1  1  0  0  0
 19  6  1  0  0  0  0
 20 21  1  0  0  0  0
 23 27  2  0  0  0  0
 23 26  1  0  0  0  0
 23 28  1  0  0  0  0
 25 23  2  0  0  0  0
 26 24  1  6  0  0  0
 26 28  1  0  0  0  0
 26 29  1  0  0  0  0
 28 29  1  0  0  0  0
 28 22  1  1  0  0  0
M  END
>  <MODEL>
3

>  <REMARK>
 VINA RESULT:      -6.1      2.593      5.822
  Name = 
  3 active torsions:
  status: ('A' for Active; 'I' for Inactive)
    1  A    between atoms: C_6  and  S_24
    2  A    between atoms: N_13  and  C_22
    3  A    between atoms: N_13  and  C_25
                            x       y       z     vdW  Elec       q    Type
                         _______ _______ _______ _____ _____    ______ ____

>  <TORSDO>
F 3

$$$$
=
 OpenBabel11062416343D

 29 35  0  0  1  0  0  0  0  0999 V2000
  185.6010  177.2650  137.4820 N   0  0  0  0  0  0  0  0  0  0  0  0
  189.0270  176.1850  137.3020 C   0  0  1  0  0  0  0  0  0  0  0  0
  189.0100  177.3400  138.3090 C   0  0  0  0  0  2  0  0  0  0  0  0
  183.1070  177.1620  137.4190 C   0  0  2  0  0  3  0  0  0  0  0  0
  186.8320  178.5440  138.8960 N   0  0  0  0  0  0  0  0  0  0  0  0
  188.5890  176.4880  134.5950 O   0  0  0  0  0  0  0  0  0  0  0  0
  190.0920  175.1180  137.3350 C   0  0  0  0  0  2  0  0  0  0  0  0
  187.6180  175.8690  136.7400 C   0  0  1  0  0  3  0  0  0  0  0  0
  190.2050  176.2710  136.3360 C   0  0  1  0  0  3  0  0  0  0  0  0
  185.5930  178.2130  138.4450 C   0  0  0  0  0  0  0  0  0  0  0  0
  186.9020  177.0660  137.2340 C   0  0  0  0  0  0  0  0  0  0  0  0
  184.4650  180.0480  139.4130 O   0  0  0  0  0  1  0  0  0  0  0  0
  183.2220  178.5950  137.9720 C   0  0  1  0  0  3  0  0  0  0  0  0
  181.9480  179.0020  138.5460 N   0  0  0  0  0  1  0  0  0  0  0  0
  187.6280  177.8250  138.0800 C   0  0  0  0  0  0  0  0  0  0  0  0
  189.7790  175.8330  134.9390 C   0  0  0  0  0  2  0  0  0  0  0  0
  184.4420  176.4980  137.0180 C   0  0  2  0  0  3  0  0  0  0  0  0
  184.3180  178.7130  139.0330 C   0  0  1  0  0  3  0  0  0  0  0  0
  187.5670  175.7500  135.2090 C   0  0  0  0  0  2  0  0  0  0  0  0
  181.9750  177.1230  135.9970 S   0  0  0  0  0  0  0  0  0  0  0  0
  183.3320  177.3720  134.8200 C   0  0  0  0  0  1  0  0  0  0  0  0
  184.4770  175.1580  137.5920 N   0  0  0  0  0  2  0  0  0  0  0  0
  185.4450  172.8450  136.7580 S   0  0  0  0  0  0  0  0  0  0  0  0
  183.2330  171.6950  136.2600 C   0  0  0  0  0  1  0  0  0  0  0  0
  186.0130  172.4070  135.4360 O   0  0  0  0  0  0  0  0  0  0  0  0
  183.6720  172.8950  137.0720 C   0  0  2  0  0  0  0  0  0  0  0  0
  186.4320  173.1390  137.8520 O   0  0  0  0  0  0  0  0  0  0  0  0
  184.3030  174.1900  136.5160 C   0  0  1  0  0  0  0  0  0  0  0  0
  182.8600  173.9220  136.3370 C   0  0  0  0  0  2  0  0  0  0  0  0
  1 10  1  0  0  0  0
  2  7  1  1  0  0  0
  2  3  1  0  0  0  0
  4 20  1  6  0  0  0
  4 13  1  0  0  0  0
  6 16  1  0  0  0  0
  6 19  1  0  0  0  0
  8 19  1  6  0  0  0
  8 11  1  0  0  0  0
  8  2  1  0  0  0  0
  9 16  1  6  0  0  0
  9  2  1  0  0  0  0
  9  7  1  0  0  0  0
 10  5  2  0  0  0  0
 10 18  1  0  0  0  0
 11  1  1  0  0  0  0
 11 15  2  0  0  0  0
 13 14  1  1  0  0  0
 13 18  1  0  0  0  0
 15  3  1  0  0  0  0
 15  5  1  0  0  0  0
 17  4  1  0  0  0  0
 17  1  1  0  0  0  0
 17 22  1  1  0  0  0
 18 12  1  6  0  0  0
 21 20  1  0  0  0  0
 23 26  1  0  0  0  0
 23 27  2  0  0  0  0
 25 23  2  0  0  0  0
 26 24  1  6  0  0  0
 28 23  1  0  0  0  0
 28 26  1  0  0  0  0
 28 22  1  1  0  0  0
 29 28  1  0  0  0  0
 29 26  1  0  0  0  0
M  END
>  <MODEL>
4

>  <REMARK>
 VINA RESULT:      -6.1      4.326      7.572
  Name = 
  3 active torsions:
  status: ('A' for Active; 'I' for Inactive)
    1  A    between atoms: C_6  and  S_24
    2  A    between atoms: N_13  and  C_22
    3  A    between atoms: N_13  and  C_25
                            x       y       z     vdW  Elec       q    Type
                         _______ _______ _______ _____ _____    ______ ____

>  <TORSDO>
F 3

$$$$
=
 OpenBabel11062416343D

 29 35  0  0  1  0  0  0  0  0999 V2000
  184.7470  178.3520  139.5610 N   0  0  0  0  0  0  0  0  0  0  0  0
  188.2410  177.7540  138.9510 C   0  0  1  0  0  0  0  0  0  0  0  0
  188.1250  178.0290  140.4540 C   0  0  0  0  0  2  0  0  0  0  0  0
  182.2670  178.2130  139.3010 C   0  0  2  0  0  3  0  0  0  0  0  0
  185.8590  178.5210  141.5320 N   0  0  0  0  0  0  0  0  0  0  0  0
  187.8420  179.6570  136.9950 O   0  0  0  0  0  0  0  0  0  0  0  0
  189.3750  176.9400  138.3780 C   0  0  0  0  0  2  0  0  0  0  0  0
  186.8680  177.8010  138.2330 C   0  0  1  0  0  3  0  0  0  0  0  0
  189.4310  178.4670  138.3180 C   0  0  1  0  0  3  0  0  0  0  0  0
  184.6540  178.4940  140.9010 C   0  0  0  0  0  0  0  0  0  0  0  0
  186.0640  178.4010  139.3200 C   0  0  0  0  0  0  0  0  0  0  0  0
  183.3850  179.2830  142.7300 O   0  0  0  0  0  1  0  0  0  0  0  0
  182.2740  178.9940  140.6290 C   0  0  1  0  0  3  0  0  0  0  0  0
  180.9640  178.9050  141.2560 N   0  0  0  0  0  1  0  0  0  0  0  0
  186.7180  178.4970  140.4950 C   0  0  0  0  0  0  0  0  0  0  0  0
  189.0660  178.9770  136.9280 C   0  0  0  0  0  2  0  0  0  0  0  0
  183.6520  177.9950  138.6550 C   0  0  2  0  0  3  0  0  0  0  0  0
  183.3370  178.4690  141.5970 C   0  0  1  0  0  3  0  0  0  0  0  0
  186.8590  178.6580  136.9580 C   0  0  0  0  0  2  0  0  0  0  0  0
  181.1710  179.0230  138.0980 S   0  0  0  0  0  0  0  0  0  0  0  0
  181.9680  180.6330  138.3500 C   0  0  0  0  0  1  0  0  0  0  0  0
  183.7650  176.5910  138.2750 N   0  0  0  0  0  2  0  0  0  0  0  0
  184.9550  175.2500  136.3350 S   0  0  0  0  0  0  0  0  0  0  0  0
  182.8950  174.7580  134.9290 C   0  0  0  0  0  1  0  0  0  0  0  0
  185.7220  175.6980  135.1220 O   0  0  0  0  0  0  0  0  0  0  0  0
  183.1550  175.1770  136.3610 C   0  0  2  0  0  0  0  0  0  0  0  0
  185.7650  174.7580  137.5010 O   0  0  0  0  0  0  0  0  0  0  0  0
  183.7910  176.5070  136.8210 C   0  0  1  0  0  0  0  0  0  0  0  0
  182.4020  176.4740  136.3140 C   0  0  0  0  0  2  0  0  0  0  0  0
  1 10  1  0  0  0  0
  2  7  1  6  0  0  0
  2  3  1  0  0  0  0
  3 15  1  0  0  0  0
  4 20  1  6  0  0  0
  4 13  1  0  0  0  0
  8 19  1  6  0  0  0
  8  2  1  0  0  0  0
  8 11  1  0  0  0  0
  9 16  1  6  0  0  0
  9  7  1  0  0  0  0
  9  2  1  0  0  0  0
 10  5  2  0  0  0  0
 10 18  1  0  0  0  0
 11  1  1  0  0  0  0
 11 15  2  0  0  0  0
 13 14  1  1  0  0  0
 13 18  1  0  0  0  0
 15  5  1  0  0  0  0
 16  6  1  0  0  0  0
 17 22  1  1  0  0  0
 17  4  1  0  0  0  0
 17  1  1  0  0  0  0
 18 12  1  1  0  0  0
 19  6  1  0  0  0  0
 20 21  1  0  0  0  0
 23 26  1  0  0  0  0
 23 28  1  0  0  0  0
 23 27  2  0  0  0  0
 25 23  2  0  0  0  0
 26 24  1  6  0  0  0
 26 28  1  0  0  0  0
 28 22  1  1  0  0  0
 29 26  1  0  0  0  0
 29 28  1  0  0  0  0
M  END
>  <MODEL>
5

>  <REMARK>
 VINA RESULT:      -5.8      2.925      6.163
  Name = 
  3 active torsions:
  status: ('A' for Active; 'I' for Inactive)
    1  A    between atoms: C_6  and  S_24
    2  A    between atoms: N_13  and  C_22
    3  A    between atoms: N_13  and  C_25
                            x       y       z     vdW  Elec       q    Type
                         _______ _______ _______ _____ _____    ______ ____

>  <TORSDO>
F 3

$$$$
=
 OpenBabel11062416343D

 29 35  0  0  1  0  0  0  0  0999 V2000
  189.2280  176.9020  139.1820 N   0  0  0  0  0  0  0  0  0  0  0  0
  190.3820  177.9500  142.4240 C   0  0  1  0  0  0  0  0  0  0  0  0
  191.6280  177.9160  141.5320 C   0  0  0  0  0  2  0  0  0  0  0  0
  187.7070  176.5900  137.2270 C   0  0  2  0  0  3  0  0  0  0  0  0
  191.4670  177.2510  139.0690 N   0  0  0  0  0  0  0  0  0  0  0  0
  188.9960  175.7040  143.2300 O   0  0  0  0  0  0  0  0  0  0  0  0
  190.3040  178.8290  143.6470 C   0  0  0  0  0  2  0  0  0  0  0  0
  189.0940  177.5600  141.6560 C   0  0  1  0  0  3  0  0  0  0  0  0
  190.6330  177.3430  143.8000 C   0  0  1  0  0  3  0  0  0  0  0  0
  190.3210  176.9750  138.3910 C   0  0  0  0  0  0  0  0  0  0  0  0
  189.7160  177.0280  140.4230 C   0  0  0  0  0  0  0  0  0  0  0  0
  191.3610  176.3090  136.3790 O   0  0  0  0  0  1  0  0  0  0  0  0
  188.9870  176.0560  136.5560 C   0  0  1  0  0  3  0  0  0  0  0  0
  188.8120  176.0340  135.1120 N   0  0  0  0  0  1  0  0  0  0  0  0
  191.0460  177.2390  140.3490 C   0  0  0  0  0  0  0  0  0  0  0  0
  189.4140  176.5540  144.2630 C   0  0  0  0  0  2  0  0  0  0  0  0
  187.8350  176.9180  138.7300 C   0  0  2  0  0  3  0  0  0  0  0  0
  190.2130  176.9020  136.9070 C   0  0  1  0  0  3  0  0  0  0  0  0
  188.2310  176.5100  142.3730 C   0  0  0  0  0  2  0  0  0  0  0  0
  186.3340  175.4220  136.9880 S   0  0  0  0  0  0  0  0  0  0  0  0
  187.4190  173.9890  137.2350 C   0  0  0  0  0  1  0  0  0  0  0  0
  187.2570  178.2380  138.9610 N   0  0  0  0  0  2  0  0  0  0  0  0
  185.4540  178.9490  140.7570 S   0  0  0  0  0  0  0  0  0  0  0  0
  183.6110  179.6460  139.1510 C   0  0  0  0  0  1  0  0  0  0  0  0
  184.4840  178.1520  141.5840 O   0  0  0  0  0  0  0  0  0  0  0  0
  185.1050  179.4200  139.0530 C   0  0  2  0  0  0  0  0  0  0  0  0
  186.6940  179.4340  141.4540 O   0  0  0  0  0  0  0  0  0  0  0  0
  185.8380  178.0760  139.2530 C   0  0  1  0  0  0  0  0  0  0  0  0
  185.0600  178.3310  138.0220 C   0  0  0  0  0  2  0  0  0  0  0  0
  1 11  1  0  0  0  0
  2  3  1  6  0  0  0
  2  7  1  0  0  0  0
  2  9  1  0  0  0  0
  4 20  1  1  0  0  0
  4 17  1  0  0  0  0
  5 15  1  0  0  0  0
  6 16  1  0  0  0  0
  8 19  1  1  0  0  0
  8  2  1  0  0  0  0
  9  7  1  1  0  0  0
  9 16  1  0  0  0  0
 10  5  2  0  0  0  0
 10  1  1  0  0  0  0
 11  8  1  0  0  0  0
 13 14  1  6  0  0  0
 13 18  1  0  0  0  0
 13  4  1  0  0  0  0
 15 11  2  0  0  0  0
 15  3  1  0  0  0  0
 17 22  1  6  0  0  0
 17  1  1  0  0  0  0
 18 12  1  6  0  0  0
 18 10  1  0  0  0  0
 19  6  1  0  0  0  0
 20 21  1  0  0  0  0
 23 27  2  0  0  0  0
 23 25  2  0  0  0  0
 26 24  1  1  0  0  0
 26 28  1  0  0  0  0
 26 23  1  0  0  0  0
 28 22  1  6  0  0  0
 28 23  1  0  0  0  0
 29 26  1  0  0  0  0
 29 28  1  0  0  0  0
M  END
>  <MODEL>
6

>  <REMARK>
 VINA RESULT:      -5.7      3.599      7.604
  Name = 
  3 active torsions:
  status: ('A' for Active; 'I' for Inactive)
    1  A    between atoms: C_6  and  S_24
    2  A    between atoms: N_13  and  C_22
    3  A    between atoms: N_13  and  C_25
                            x       y       z     vdW  Elec       q    Type
                         _______ _______ _______ _____ _____    ______ ____

>  <TORSDO>
F 3

$$$$
=
 OpenBabel11062416343D

 29 35  0  0  1  0  0  0  0  0999 V2000
  180.8550  176.3770  138.6210 N   0  0  0  0  0  0  0  0  0  0  0  0
  180.1420  178.7670  141.2130 C   0  0  1  0  0  0  0  0  0  0  0  0
  179.3100  177.5260  141.5540 C   0  0  0  0  0  2  0  0  0  0  0  0
  182.1150  175.1560  136.8430 C   0  0  2  0  0  3  0  0  0  0  0  0
  179.3890  175.4400  140.0780 N   0  0  0  0  0  0  0  0  0  0  0  0
  179.6570  180.4080  139.0490 O   0  0  0  0  0  0  0  0  0  0  0  0
  180.5690  179.7530  142.2720 C   0  0  0  0  0  2  0  0  0  0  0  0
  180.9940  178.5740  139.9320 C   0  0  1  0  0  3  0  0  0  0  0  0
  179.3580  180.0620  141.3900 C   0  0  1  0  0  3  0  0  0  0  0  0
  180.1900  175.2610  138.9940 C   0  0  0  0  0  0  0  0  0  0  0  0
  180.3740  177.3280  139.4320 C   0  0  0  0  0  0  0  0  0  0  0  0
  179.2870  173.1790  138.3430 O   0  0  0  0  0  1  0  0  0  0  0  0
  180.9060  174.2020  136.9060 C   0  0  1  0  0  3  0  0  0  0  0  0
  181.2460  172.9370  136.2740 N   0  0  0  0  0  1  0  0  0  0  0  0
  179.5060  176.7640  140.2980 C   0  0  0  0  0  0  0  0  0  0  0  0
  179.7170  181.0550  140.2910 C   0  0  0  0  0  2  0  0  0  0  0  0
  181.9940  176.4340  137.7020 C   0  0  2  0  0  3  0  0  0  0  0  0
  180.4530  173.9460  138.3460 C   0  0  1  0  0  3  0  0  0  0  0  0
  180.8780  179.7290  138.9250 C   0  0  0  0  0  2  0  0  0  0  0  0
  182.4580  175.6270  135.1210 S   0  0  0  0  0  0  0  0  0  0  0  0
  181.3310  177.0460  135.2110 C   0  0  0  0  0  1  0  0  0  0  0  0
  183.2310  176.5940  138.4590 N   0  0  0  0  0  2  0  0  0  0  0  0
  184.6610  178.6460  139.3120 S   0  0  0  0  0  0  0  0  0  0  0  0
  186.5430  178.4980  137.6090 C   0  0  0  0  0  1  0  0  0  0  0  0
  184.5290  180.1270  139.0930 O   0  0  0  0  0  0  0  0  0  0  0  0
  185.4610  177.5650  138.1130 C   0  0  2  0  0  0  0  0  0  0  0  0
  184.1870  178.1140  140.6350 O   0  0  0  0  0  0  0  0  0  0  0  0
  183.9390  177.7600  137.9460 C   0  0  1  0  0  0  0  0  0  0  0  0
  184.7740  177.3510  136.7970 C   0  0  0  0  0  2  0  0  0  0  0  0
  1 10  1  0  0  0  0
  1 11  1  0  0  0  0
  2  9  1  0  0  0  0
  2  3  1  1  0  0  0
  2  7  1  0  0  0  0
  4 20  1  6  0  0  0
  4 13  1  0  0  0  0
  4 17  1  0  0  0  0
  5 15  1  0  0  0  0
  6 16  1  0  0  0  0
  8 19  1  6  0  0  0
  8  2  1  0  0  0  0
  9 16  1  6  0  0  0
  9  7  1  0  0  0  0
 10  5  2  0  0  0  0
 11  8  1  0  0  0  0
 11 15  2  0  0  0  0
 13 14  1  1  0  0  0
 13 18  1  0  0  0  0
 15  3  1  0  0  0  0
 17 22  1  1  0  0  0
 17  1  1  0  0  0  0
 18 12  1  6  0  0  0
 18 10  1  0  0  0  0
 19  6  1  0  0  0  0
 20 21  1  0  0  0  0
 23 27  2  0  0  0  0
 25 23  2  0  0  0  0
 26 24  1  6  0  0  0
 26 23  1  0  0  0  0
 28 26  1  0  0  0  0
 28 22  1  1  0  0  0
 28 23  1  0  0  0  0
 29 28  1  0  0  0  0
 29 26  1  0  0  0  0
M  END
>  <MODEL>
7

>  <REMARK>
 VINA RESULT:      -5.4      4.110      6.418
  Name = 
  3 active torsions:
  status: ('A' for Active; 'I' for Inactive)
    1  A    between atoms: C_6  and  S_24
    2  A    between atoms: N_13  and  C_22
    3  A    between atoms: N_13  and  C_25
                            x       y       z     vdW  Elec       q    Type
                         _______ _______ _______ _____ _____    ______ ____

>  <TORSDO>
F 3

$$$$
=
 OpenBabel11062416343D

 29 35  0  0  1  0  0  0  0  0999 V2000
  184.1200  177.0170  138.0160 N   0  0  0  0  0  0  0  0  0  0  0  0
  187.5880  177.2830  137.0980 C   0  0  1  0  0  0  0  0  0  0  0  0
  187.4000  178.2360  138.2830 C   0  0  0  0  0  2  0  0  0  0  0  0
  181.8530  176.0210  138.3380 C   0  0  2  0  0  3  0  0  0  0  0  0
  185.1220  178.4950  139.4160 N   0  0  0  0  0  0  0  0  0  0  0  0
  186.5070  177.6950  134.5940 O   0  0  0  0  0  0  0  0  0  0  0  0
  188.9310  176.6780  136.7710 C   0  0  0  0  0  2  0  0  0  0  0  0
  186.2810  176.5380  136.7240 C   0  0  1  0  0  3  0  0  0  0  0  0
  188.4340  177.8940  135.9870 C   0  0  1  0  0  3  0  0  0  0  0  0
  184.0000  177.7870  139.1200 C   0  0  0  0  0  0  0  0  0  0  0  0
  185.3290  177.3320  137.5310 C   0  0  0  0  0  0  0  0  0  0  0  0
  182.5560  178.9710  140.5650 O   0  0  0  0  0  1  0  0  0  0  0  0
  181.5950  177.3300  139.1100 C   0  0  1  0  0  3  0  0  0  0  0  0
  180.4130  177.1820  139.9450 N   0  0  0  0  0  1  0  0  0  0  0  0
  185.9200  178.2070  138.3690 C   0  0  0  0  0  0  0  0  0  0  0  0
  187.8930  177.4850  134.6210 C   0  0  0  0  0  2  0  0  0  0  0  0
  183.2160  175.9360  137.6170 C   0  0  2  0  0  3  0  0  0  0  0  0
  182.7890  177.7230  139.9850 C   0  0  1  0  0  3  0  0  0  0  0  0
  185.9490  176.5750  135.2250 C   0  0  0  0  0  2  0  0  0  0  0  0
  180.5240  175.7270  137.1330 S   0  0  0  0  0  0  0  0  0  0  0  0
  180.9170  177.2470  136.2230 C   0  0  0  0  0  1  0  0  0  0  0  0
  183.8200  174.6460  137.9320 N   0  0  0  0  0  2  0  0  0  0  0  0
  185.3570  172.9880  136.5650 S   0  0  0  0  0  0  0  0  0  0  0  0
  183.6430  171.1500  136.1830 C   0  0  0  0  0  1  0  0  0  0  0  0
  185.7710  172.9550  135.1200 O   0  0  0  0  0  0  0  0  0  0  0  0
  183.7800  172.3240  137.1290 C   0  0  2  0  0  0  0  0  0  0  0  0
  186.3720  173.5060  137.5450 O   0  0  0  0  0  0  0  0  0  0  0  0
  183.7900  173.8170  136.7340 C   0  0  1  0  0  0  0  0  0  0  0  0
  182.5300  173.0440  136.7140 C   0  0  0  0  0  2  0  0  0  0  0  0
  1 10  1  0  0  0  0
  2  7  1  1  0  0  0
  2  3  1  0  0  0  0
  3 15  1  0  0  0  0
  4 20  1  6  0  0  0
  4 13  1  0  0  0  0
  6 16  1  0  0  0  0
  6 19  1  0  0  0  0
  8 19  1  6  0  0  0
  8  2  1  0  0  0  0
  8 11  1  0  0  0  0
  9 16  1  6  0  0  0
  9  7  1  0  0  0  0
  9  2  1  0  0  0  0
 10  5  2  0  0  0  0
 10 18  1  0  0  0  0
 11  1  1  0  0  0  0
 11 15  2  0  0  0  0
 13 14  1  1  0  0  0
 13 18  1  0  0  0  0
 15  5  1  0  0  0  0
 17 22  1  1  0  0  0
 17  1  1  0  0  0  0
 17  4  1  0  0  0  0
 18 12  1  6  0  0  0
 21 20  1  0  0  0  0
 23 28  1  0  0  0  0
 23 26  1  0  0  0  0
 23 27  2  0  0  0  0
 25 23  2  0  0  0  0
 26 24  1  6  0  0  0
 28 26  1  0  0  0  0
 28 22  1  1  0  0  0
 29 28  1  0  0  0  0
 29 26  1  0  0  0  0
M  END
>  <MODEL>
8

>  <REMARK>
 VINA RESULT:      -5.4      3.984      7.068
  Name = 
  3 active torsions:
  status: ('A' for Active; 'I' for Inactive)
    1  A    between atoms: C_6  and  S_24
    2  A    between atoms: N_13  and  C_22
    3  A    between atoms: N_13  and  C_25
                            x       y       z     vdW  Elec       q    Type
                         _______ _______ _______ _____ _____    ______ ____

>  <TORSDO>
F 3

$$$$
=
 OpenBabel11062416343D

 29 35  0  0  1  0  0  0  0  0999 V2000
  183.3000  176.8500  138.1770 N   0  0  0  0  0  0  0  0  0  0  0  0
  185.9020  176.5250  135.7140 C   0  0  1  0  0  0  0  0  0  0  0  0
  184.9940  175.3050  135.5210 C   0  0  0  0  0  2  0  0  0  0  0  0
  181.6760  177.9260  139.7390 C   0  0  2  0  0  3  0  0  0  0  0  0
  182.9240  174.9590  136.9800 N   0  0  0  0  0  0  0  0  0  0  0  0
  187.5190  176.9150  137.9160 O   0  0  0  0  0  0  0  0  0  0  0  0
  186.7530  177.0680  134.5940 C   0  0  0  0  0  2  0  0  0  0  0  0
  185.4020  177.4610  136.8440 C   0  0  1  0  0  3  0  0  0  0  0  0
  187.3830  176.1650  135.6560 C   0  0  1  0  0  3  0  0  0  0  0  0
  182.4600  175.8220  137.9230 C   0  0  0  0  0  0  0  0  0  0  0  0
  184.3870  176.5690  137.4460 C   0  0  0  0  0  0  0  0  0  0  0  0
  180.7320  174.4270  138.7260 O   0  0  0  0  0  1  0  0  0  0  0  0
  181.1440  176.4860  139.8770 C   0  0  1  0  0  3  0  0  0  0  0  0
  179.8100  176.5090  140.4570 N   0  0  0  0  0  1  0  0  0  0  0  0
  184.1560  175.4470  136.7350 C   0  0  0  0  0  0  0  0  0  0  0  0
  188.1690  176.9800  136.6760 C   0  0  0  0  0  2  0  0  0  0  0  0
  182.9640  178.0780  138.9010 C   0  0  2  0  0  3  0  0  0  0  0  0
  181.1010  175.7590  138.5310 C   0  0  1  0  0  3  0  0  0  0  0  0
  186.4920  177.8670  137.8480 C   0  0  0  0  0  2  0  0  0  0  0  0
  181.9440  178.6600  141.3800 S   0  0  0  0  0  0  0  0  0  0  0  0
  183.7130  178.2590  141.3480 C   0  0  0  0  0  1  0  0  0  0  0  0
  182.7670  179.1710  137.9550 N   0  0  0  0  0  2  0  0  0  0  0  0
  181.3060  181.3250  138.4100 S   0  0  0  0  0  0  0  0  0  0  0  0
  179.6880  181.0720  136.4660 C   0  0  0  0  0  1  0  0  0  0  0  0
  180.1770  181.5940  139.3640 O   0  0  0  0  0  0  0  0  0  0  0  0
  181.0500  180.5140  136.8220 C   0  0  2  0  0  0  0  0  0  0  0  0
  182.6570  181.8620  138.7940 O   0  0  0  0  0  0  0  0  0  0  0  0
  181.3730  179.5890  138.0150 C   0  0  1  0  0  0  0  0  0  0  0  0
  180.6600  179.0650  136.8320 C   0  0  0  0  0  2  0  0  0  0  0  0
  1 17  1  0  0  0  0
  2  7  1  6  0  0  0
  2  8  1  0  0  0  0
  3  2  1  0  0  0  0
  3 15  1  0  0  0  0
  4 13  1  0  0  0  0
  4 20  1  1  0  0  0
  5 10  2  0  0  0  0
  8 11  1  0  0  0  0
  8 19  1  1  0  0  0
  9  7  1  6  0  0  0
  9  2  1  0  0  0  0
  9 16  1  0  0  0  0
 10  1  1  0  0  0  0
 10 18  1  0  0  0  0
 11  1  1  0  0  0  0
 13 14  1  6  0  0  0
 15  5  1  0  0  0  0
 15 11  2  0  0  0  0
 16  6  1  0  0  0  0
 17 22  1  6  0  0  0
 17  4  1  0  0  0  0
 18 12  1  1  0  0  0
 18 13  1  0  0  0  0
 19  6  1  0  0  0  0
 21 20  1  0  0  0  0
 23 27  2  0  0  0  0
 23 25  2  0  0  0  0
 26 24  1  1  0  0  0
 26 29  1  0  0  0  0
 26 28  1  0  0  0  0
 26 23  1  0  0  0  0
 28 22  1  6  0  0  0
 28 23  1  0  0  0  0
 29 28  1  0  0  0  0
M  END
>  <MODEL>
9

>  <REMARK>
 VINA RESULT:      -5.4      3.959      6.952
  Name = 
  3 active torsions:
  status: ('A' for Active; 'I' for Inactive)
    1  A    between atoms: C_6  and  S_24
    2  A    between atoms: N_13  and  C_22
    3  A    between atoms: N_13  and  C_25
                            x       y       z     vdW  Elec       q    Type
                         _______ _______ _______ _____ _____    ______ ____

>  <TORSDO>
F 3

$$$$
