=
 OpenBabel11062412393D

 32 35  0  0  1  0  0  0  0  0999 V2000
  189.4000  177.3070  138.9170 C   0  0  0  0  0  0  0  0  0  0  0  0
  191.4690  177.0350  140.1700 C   0  0  0  0  0  3  0  0  0  0  0  0
  191.6090  177.4510  142.6150 C   0  0  0  0  0  1  0  0  0  0  0  0
  190.7720  176.9810  138.9580 C   0  0  0  0  0  0  0  0  0  0  0  0
  190.8220  177.4100  141.3490 C   0  0  0  0  0  0  0  0  0  0  0  0
  189.4570  177.7420  141.3210 C   0  0  0  0  0  0  0  0  0  0  0  0
  188.7580  177.6810  140.1130 C   0  0  0  0  0  3  0  0  0  0  0  0
  187.4240  176.4490  137.6700 C   0  0  0  0  0  2  0  0  0  0  0  0
  188.3950  178.4860  136.8690 C   0  0  1  0  0  3  0  0  0  0  0  0
  187.3290  177.9190  137.7140 N   0  0  2  0  0  0  0  0  0  0  0  0
  188.9700  179.6520  137.5240 N   0  0  0  0  0  1  0  0  0  0  0  0
  188.6480  177.2330  137.5960 C   0  0  2  0  0  0  0  0  0  0  0  0
  191.5140  176.5760  137.7230 C   0  0  0  0  0  2  0  0  0  0  0  0
  194.5750  175.0150  137.1150 C   0  0  2  0  0  3  0  0  0  0  0  0
  192.5760  175.6380  138.0560 N   0  0  0  0  0  0  0  0  0  0  0  0
  192.2980  174.4100  137.3280 C   0  0  0  0  0  2  0  0  0  0  0  0
  193.6130  173.8970  136.8110 C   0  0  0  0  0  2  0  0  0  0  0  0
  193.7720  176.1560  137.5240 N   0  0  0  0  0  2  0  0  0  0  0  0
  195.3910  175.3810  135.8850 C   0  0  0  0  0  2  0  0  0  0  0  0
  196.8150  174.8620  135.9980 C   0  0  0  0  0  2  0  0  0  0  0  0
  197.6660  175.8770  136.4380 O   0  0  0  0  0  0  0  0  0  0  0  0
  197.9720  175.5400  137.6720 O   0  0  0  0  0  1  0  0  0  0  0  0
  188.7170  178.1290  142.5610 C   0  0  0  0  0  2  0  0  0  0  0  0
  187.4730  177.3840  142.6530 N   0  0  0  0  0  2  0  0  0  0  0  0
  187.4100  176.8180  143.9900 C   0  0  0  0  0  2  0  0  0  0  0  0
  186.2930  177.4730  144.7860 C   0  0  0  0  0  2  0  0  0  0  0  0
  186.7240  177.7290  146.2210 C   0  0  2  0  0  3  0  0  0  0  0  0
  186.0220  178.8190  146.7420 O   0  0  0  0  0  1  0  0  0  0  0  0
  188.1510  178.0110  146.2520 N   0  0  0  0  0  2  0  0  0  0  0  0
  188.8540  178.2450  148.5620 C   0  0  0  0  0  1  0  0  0  0  0  0
  188.7110  177.2980  147.3870 C   0  0  0  0  0  3  0  0  0  0  0  0
  190.0740  176.7520  147.0170 C   0  0  0  0  0  1  0  0  0  0  0  0
  1  4  2  0  0  0  0
  1  7  1  0  0  0  0
  2  5  2  0  0  0  0
  4  2  1  0  0  0  0
  5  3  1  0  0  0  0
  6  5  1  0  0  0  0
  6 23  1  0  0  0  0
  7  6  2  0  0  0  0
  9 11  1  1  0  0  0
  9 12  1  0  0  0  0
  9 10  1  0  0  0  0
 10  8  1  6  0  0  0
 12  8  1  0  0  0  0
 12 10  1  0  0  0  0
 12  1  1  1  0  0  0
 13 15  1  0  0  0  0
 13  4  1  0  0  0  0
 14 19  1  6  0  0  0
 14 18  1  0  0  0  0
 16 15  1  0  0  0  0
 17 14  1  0  0  0  0
 17 16  1  0  0  0  0
 18 15  1  0  0  0  0
 19 20  1  0  0  0  0
 20 21  1  0  0  0  0
 21 22  1  0  0  0  0
 23 24  1  0  0  0  0
 24 25  1  0  0  0  0
 25 26  1  0  0  0  0
 26 27  1  0  0  0  0
 27 29  1  0  0  0  0
 27 28  1  6  0  0  0
 29 31  1  0  0  0  0
 31 30  1  0  0  0  0
 32 31  1  0  0  0  0
M  END
>  <MODEL>
1

>  <REMARK>
 VINA RESULT:      -7.3      0.000      0.000
  Name = 
  13 active torsions:
  status: ('A' for Active; 'I' for Inactive)
    1  A    between atoms: C_2  and  C_4
    2  A    between atoms: C_3  and  C_23
    3  A    between atoms: C_3  and  N_26
    4  A    between atoms: C_4  and  C_25
    5  A    between atoms: C_6  and  C_29
    6  A    between atoms: N_8  and  C_22
    7  A    between atoms: C_11  and  N_12
    8  A    between atoms: N_12  and  C_15
    9  A    between atoms: C_15  and  C_23
   10  A    between atoms: C_17  and  C_22
   11  A    between atoms: O_19  and  C_25
   12  A    between atoms: N_26  and  C_27
   13  A    between atoms: C_27  and  C_30
                            x       y       z     vdW  Elec       q    Type
                         _______ _______ _______ _____ _____    ______ ____

>  <TORSDO>
F 13

$$$$
=
 OpenBabel11062412393D

 32 35  0  0  1  0  0  0  0  0999 V2000
  189.0230  177.9430  142.8430 C   0  0  0  0  0  0  0  0  0  0  0  0
  186.8210  178.2550  141.8550 C   0  0  0  0  0  3  0  0  0  0  0  0
  184.7320  178.1590  143.1970 C   0  0  0  0  0  1  0  0  0  0  0  0
  188.2110  178.1890  141.7160 C   0  0  0  0  0  0  0  0  0  0  0  0
  186.2180  178.0780  143.1020 C   0  0  0  0  0  0  0  0  0  0  0  0
  187.0150  177.8280  144.2320 C   0  0  0  0  0  0  0  0  0  0  0  0
  188.4040  177.7700  144.0970 C   0  0  0  0  0  3  0  0  0  0  0  0
  191.2450  178.7900  143.5770 C   0  0  0  0  0  2  0  0  0  0  0  0
  191.1860  176.5670  142.6880 C   0  0  1  0  0  3  0  0  0  0  0  0
  191.1660  177.3600  143.9300 N   0  0  2  0  0  0  0  0  0  0  0  0
  190.2400  175.4650  142.7960 N   0  0  0  0  0  1  0  0  0  0  0  0
  190.5350  177.8860  142.6840 C   0  0  2  0  0  0  0  0  0  0  0  0
  188.8040  178.3810  140.3550 C   0  0  0  0  0  2  0  0  0  0  0  0
  190.1170  176.2160  137.9530 C   0  0  2  0  0  3  0  0  0  0  0  0
  188.8410  177.1160  139.6360 N   0  0  0  0  0  0  0  0  0  0  0  0
  188.0650  177.2990  138.4190 C   0  0  0  0  0  2  0  0  0  0  0  0
  188.8080  176.6010  137.3140 C   0  0  0  0  0  2  0  0  0  0  0  0
  190.1730  176.9030  139.2340 N   0  0  0  0  0  2  0  0  0  0  0  0
  191.2920  176.6510  137.0910 C   0  0  0  0  0  2  0  0  0  0  0  0
  192.5690  175.9380  137.5040 C   0  0  0  0  0  2  0  0  0  0  0  0
  193.5720  176.8670  137.7860 O   0  0  0  0  0  0  0  0  0  0  0  0
  193.8320  176.6950  139.0640 O   0  0  0  0  0  1  0  0  0  0  0  0
  186.4170  177.6540  145.5910 C   0  0  0  0  0  2  0  0  0  0  0  0
  187.0560  178.5550  146.5360 N   0  0  0  0  0  2  0  0  0  0  0  0
  187.4520  177.7590  147.6860 C   0  0  0  0  0  2  0  0  0  0  0  0
  188.5850  176.8190  147.3100 C   0  0  0  0  0  2  0  0  0  0  0  0
  189.8570  177.1670  148.0660 C   0  0  2  0  0  3  0  0  0  0  0  0
  189.7900  178.4820  148.5310 O   0  0  0  0  0  1  0  0  0  0  0  0
  190.9990  177.0250  147.1750 N   0  0  0  0  0  2  0  0  0  0  0  0
  192.7820  176.0140  148.4750 C   0  0  0  0  0  1  0  0  0  0  0  0
  191.6490  175.7660  147.4990 C   0  0  0  0  0  3  0  0  0  0  0  0
  192.2060  175.1460  146.2340 C   0  0  0  0  0  1  0  0  0  0  0  0
  1  7  1  0  0  0  0
  2  5  2  0  0  0  0
  4  2  1  0  0  0  0
  4  1  2  0  0  0  0
  5  3  1  0  0  0  0
  5  6  1  0  0  0  0
  6 23  1  0  0  0  0
  7  6  2  0  0  0  0
  9 11  1  1  0  0  0
  9 10  1  0  0  0  0
 10  8  1  6  0  0  0
 12  9  1  0  0  0  0
 12  1  1  6  0  0  0
 12  8  1  0  0  0  0
 12 10  1  0  0  0  0
 13  4  1  0  0  0  0
 14 19  1  6  0  0  0
 14 18  1  0  0  0  0
 15 13  1  0  0  0  0
 16 15  1  0  0  0  0
 17 14  1  0  0  0  0
 17 16  1  0  0  0  0
 18 15  1  0  0  0  0
 19 20  1  0  0  0  0
 20 21  1  0  0  0  0
 21 22  1  0  0  0  0
 23 24  1  0  0  0  0
 24 25  1  0  0  0  0
 26 25  1  0  0  0  0
 26 27  1  0  0  0  0
 27 28  1  6  0  0  0
 29 31  1  0  0  0  0
 29 27  1  0  0  0  0
 31 30  1  0  0  0  0
 32 31  1  0  0  0  0
M  END
>  <MODEL>
2

>  <REMARK>
 VINA RESULT:      -7.1      2.422      4.821
  Name = 
  13 active torsions:
  status: ('A' for Active; 'I' for Inactive)
    1  A    between atoms: C_2  and  C_4
    2  A    between atoms: C_3  and  C_23
    3  A    between atoms: C_3  and  N_26
    4  A    between atoms: C_4  and  C_25
    5  A    between atoms: C_6  and  C_29
    6  A    between atoms: N_8  and  C_22
    7  A    between atoms: C_11  and  N_12
    8  A    between atoms: N_12  and  C_15
    9  A    between atoms: C_15  and  C_23
   10  A    between atoms: C_17  and  C_22
   11  A    between atoms: O_19  and  C_25
   12  A    between atoms: N_26  and  C_27
   13  A    between atoms: C_27  and  C_30
                            x       y       z     vdW  Elec       q    Type
                         _______ _______ _______ _____ _____    ______ ____

>  <TORSDO>
F 13

$$$$
=
 OpenBabel11062412393D

 32 35  0  0  1  0  0  0  0  0999 V2000
  189.5840  177.1540  138.5560 C   0  0  0  0  0  0  0  0  0  0  0  0
  191.6690  176.9260  139.7910 C   0  0  0  0  0  3  0  0  0  0  0  0
  191.8330  177.3930  142.2260 C   0  0  0  0  0  1  0  0  0  0  0  0
  190.9590  176.8410  138.5880 C   0  0  0  0  0  0  0  0  0  0  0  0
  191.0320  177.3190  140.9700 C   0  0  0  0  0  0  0  0  0  0  0  0
  189.6640  177.6370  140.9500 C   0  0  0  0  0  0  0  0  0  0  0  0
  188.9510  177.5450  139.7520 C   0  0  0  0  0  3  0  0  0  0  0  0
  187.6750  176.1470  137.3160 C   0  0  0  0  0  2  0  0  0  0  0  0
  188.4340  178.2880  136.5600 C   0  0  1  0  0  3  0  0  0  0  0  0
  187.4420  177.6000  137.4050 N   0  0  2  0  0  0  0  0  0  0  0  0
  188.9100  179.4850  137.2410 N   0  0  0  0  0  1  0  0  0  0  0  0
  188.8180  177.0460  137.2460 C   0  0  2  0  0  0  0  0  0  0  0  0
  191.6920  176.4190  137.3540 C   0  0  0  0  0  2  0  0  0  0  0  0
  194.9260  175.3430  136.6020 C   0  0  2  0  0  3  0  0  0  0  0  0
  192.9680  175.8120  137.7040 N   0  0  0  0  0  0  0  0  0  0  0  0
  192.8820  174.4070  137.3400 C   0  0  0  0  0  2  0  0  0  0  0  0
  194.2050  174.0270  136.7350 C   0  0  0  0  0  2  0  0  0  0  0  0
  193.9460  176.3840  136.8690 N   0  0  0  0  0  2  0  0  0  0  0  0
  195.4840  175.5180  135.1980 C   0  0  0  0  0  2  0  0  0  0  0  0
  196.9500  175.9190  135.2370 C   0  0  0  0  0  2  0  0  0  0  0  0
  197.3840  176.0310  136.5590 O   0  0  0  0  0  0  0  0  0  0  0  0
  198.4460  175.2570  136.6240 O   0  0  0  0  0  1  0  0  0  0  0  0
  188.9340  178.0420  142.1910 C   0  0  0  0  0  2  0  0  0  0  0  0
  188.0290  176.9830  142.6050 N   0  0  0  0  0  2  0  0  0  0  0  0
  188.5420  176.4460  143.8550 C   0  0  0  0  0  2  0  0  0  0  0  0
  189.1130  177.5640  144.7120 C   0  0  0  0  0  2  0  0  0  0  0  0
  188.3040  177.7430  145.9860 C   0  0  2  0  0  3  0  0  0  0  0  0
  188.8470  176.9620  147.0090 O   0  0  0  0  0  1  0  0  0  0  0  0
  186.9290  177.3360  145.7430 N   0  0  0  0  0  2  0  0  0  0  0  0
  185.3970  178.6560  147.0840 C   0  0  0  0  0  1  0  0  0  0  0  0
  186.1110  178.5370  145.7520 C   0  0  0  0  0  3  0  0  0  0  0  0
  185.0860  178.4580  144.6410 C   0  0  0  0  0  1  0  0  0  0  0  0
  1  4  2  0  0  0  0
  1  7  1  0  0  0  0
  2  5  2  0  0  0  0
  4  2  1  0  0  0  0
  5  3  1  0  0  0  0
  6  5  1  0  0  0  0
  6 23  1  0  0  0  0
  7  6  2  0  0  0  0
  9 11  1  1  0  0  0
  9 12  1  0  0  0  0
  9 10  1  0  0  0  0
 10  8  1  6  0  0  0
 12  8  1  0  0  0  0
 12 10  1  0  0  0  0
 12  1  1  1  0  0  0
 13 15  1  0  0  0  0
 13  4  1  0  0  0  0
 14 19  1  6  0  0  0
 14 17  1  0  0  0  0
 14 18  1  0  0  0  0
 16 15  1  0  0  0  0
 17 16  1  0  0  0  0
 18 15  1  0  0  0  0
 19 20  1  0  0  0  0
 20 21  1  0  0  0  0
 21 22  1  0  0  0  0
 23 24  1  0  0  0  0
 24 25  1  0  0  0  0
 25 26  1  0  0  0  0
 26 27  1  0  0  0  0
 27 28  1  1  0  0  0
 29 31  1  0  0  0  0
 29 27  1  0  0  0  0
 31 30  1  0  0  0  0
 32 31  1  0  0  0  0
M  END
>  <MODEL>
3

>  <REMARK>
 VINA RESULT:      -7.1      1.147      1.707
  Name = 
  13 active torsions:
  status: ('A' for Active; 'I' for Inactive)
    1  A    between atoms: C_2  and  C_4
    2  A    between atoms: C_3  and  C_23
    3  A    between atoms: C_3  and  N_26
    4  A    between atoms: C_4  and  C_25
    5  A    between atoms: C_6  and  C_29
    6  A    between atoms: N_8  and  C_22
    7  A    between atoms: C_11  and  N_12
    8  A    between atoms: N_12  and  C_15
    9  A    between atoms: C_15  and  C_23
   10  A    between atoms: C_17  and  C_22
   11  A    between atoms: O_19  and  C_25
   12  A    between atoms: N_26  and  C_27
   13  A    between atoms: C_27  and  C_30
                            x       y       z     vdW  Elec       q    Type
                         _______ _______ _______ _____ _____    ______ ____

>  <TORSDO>
F 13

$$$$
=
 OpenBabel11062412393D

 32 35  0  0  1  0  0  0  0  0999 V2000
  189.5200  177.7480  141.4660 C   0  0  0  0  0  0  0  0  0  0  0  0
  188.5160  177.5160  139.2620 C   0  0  0  0  0  3  0  0  0  0  0  0
  186.1990  178.2670  138.7680 C   0  0  0  0  0  1  0  0  0  0  0  0
  189.6070  177.3380  140.1190 C   0  0  0  0  0  0  0  0  0  0  0  0
  187.3330  178.0980  139.7220 C   0  0  0  0  0  0  0  0  0  0  0  0
  187.2330  178.5070  141.0630 C   0  0  0  0  0  0  0  0  0  0  0  0
  188.3240  178.3370  141.9190 C   0  0  0  0  0  3  0  0  0  0  0  0
  190.9190  178.6720  143.3070 C   0  0  0  0  0  2  0  0  0  0  0  0
  190.8470  176.2860  143.1090 C   0  0  1  0  0  3  0  0  0  0  0  0
  190.2650  177.4480  143.8050 N   0  0  2  0  0  0  0  0  0  0  0  0
  189.7950  175.3360  142.7800 N   0  0  0  0  0  1  0  0  0  0  0  0
  190.7170  177.5610  142.3870 C   0  0  2  0  0  0  0  0  0  0  0  0
  190.8490  176.7050  139.5750 C   0  0  0  0  0  2  0  0  0  0  0  0
  191.7030  174.5330  136.9800 C   0  0  2  0  0  3  0  0  0  0  0  0
  190.5420  175.9370  138.3770 N   0  0  0  0  0  0  0  0  0  0  0  0
  190.9320  176.7550  137.2390 C   0  0  0  0  0  2  0  0  0  0  0  0
  191.5770  175.8380  136.2380 C   0  0  0  0  0  2  0  0  0  0  0  0
  191.3910  174.8140  138.3730 N   0  0  0  0  0  2  0  0  0  0  0  0
  193.1170  173.9830  136.8760 C   0  0  0  0  0  2  0  0  0  0  0  0
  194.1480  175.0890  137.0300 C   0  0  0  0  0  2  0  0  0  0  0  0
  194.7360  175.0290  138.2950 O   0  0  0  0  0  0  0  0  0  0  0  0
  194.3020  176.1070  138.9120 O   0  0  0  0  0  1  0  0  0  0  0  0
  185.9950  179.1540  141.5960 C   0  0  0  0  0  2  0  0  0  0  0  0
  185.0960  178.1450  142.1310 N   0  0  0  0  0  2  0  0  0  0  0  0
  184.0650  178.8440  142.8800 C   0  0  0  0  0  2  0  0  0  0  0  0
  184.6820  179.5970  144.0470 C   0  0  0  0  0  2  0  0  0  0  0  0
  184.8400  178.6910  145.2580 C   0  0  2  0  0  3  0  0  0  0  0  0
  183.8310  178.9560  146.1860 O   0  0  0  0  0  1  0  0  0  0  0  0
  186.1380  178.9310  145.8700 N   0  0  0  0  0  2  0  0  0  0  0  0
  188.0990  177.8280  146.7780 C   0  0  0  0  0  1  0  0  0  0  0  0
  186.7460  177.6360  146.1220 C   0  0  0  0  0  3  0  0  0  0  0  0
  186.9270  176.9010  144.8110 C   0  0  0  0  0  1  0  0  0  0  0  0
  1  7  1  0  0  0  0
  2  5  2  0  0  0  0
  2  4  1  0  0  0  0
  3  5  1  0  0  0  0
  4  1  2  0  0  0  0
  5  6  1  0  0  0  0
  6 23  1  0  0  0  0
  6  7  2  0  0  0  0
  9 11  1  6  0  0  0
  9 10  1  0  0  0  0
 10  8  1  1  0  0  0
 12  1  1  6  0  0  0
 12  9  1  0  0  0  0
 12  8  1  0  0  0  0
 12 10  1  0  0  0  0
 13  4  1  0  0  0  0
 14 19  1  1  0  0  0
 14 18  1  0  0  0  0
 15 13  1  0  0  0  0
 16 15  1  0  0  0  0
 17 14  1  0  0  0  0
 17 16  1  0  0  0  0
 18 15  1  0  0  0  0
 19 20  1  0  0  0  0
 20 21  1  0  0  0  0
 21 22  1  0  0  0  0
 23 24  1  0  0  0  0
 24 25  1  0  0  0  0
 25 26  1  0  0  0  0
 26 27  1  0  0  0  0
 27 29  1  0  0  0  0
 27 28  1  1  0  0  0
 29 31  1  0  0  0  0
 31 30  1  0  0  0  0
 32 31  1  0  0  0  0
M  END
>  <MODEL>
4

>  <REMARK>
 VINA RESULT:      -6.9      1.993      3.843
  Name = 
  13 active torsions:
  status: ('A' for Active; 'I' for Inactive)
    1  A    between atoms: C_2  and  C_4
    2  A    between atoms: C_3  and  C_23
    3  A    between atoms: C_3  and  N_26
    4  A    between atoms: C_4  and  C_25
    5  A    between atoms: C_6  and  C_29
    6  A    between atoms: N_8  and  C_22
    7  A    between atoms: C_11  and  N_12
    8  A    between atoms: N_12  and  C_15
    9  A    between atoms: C_15  and  C_23
   10  A    between atoms: C_17  and  C_22
   11  A    between atoms: O_19  and  C_25
   12  A    between atoms: N_26  and  C_27
   13  A    between atoms: C_27  and  C_30
                            x       y       z     vdW  Elec       q    Type
                         _______ _______ _______ _____ _____    ______ ____

>  <TORSDO>
F 13

$$$$
=
 OpenBabel11062412393D

 32 35  0  0  1  0  0  0  0  0999 V2000
  181.5970  178.7100  142.6560 C   0  0  0  0  0  0  0  0  0  0  0  0
  183.5050  178.6820  141.1450 C   0  0  0  0  0  3  0  0  0  0  0  0
  185.8280  179.0880  141.9250 C   0  0  0  0  0  1  0  0  0  0  0  0
  182.1280  178.5550  141.3590 C   0  0  0  0  0  0  0  0  0  0  0  0
  184.3690  178.9630  142.2050 C   0  0  0  0  0  0  0  0  0  0  0  0
  183.8520  179.1240  143.5020 C   0  0  0  0  0  0  0  0  0  0  0  0
  182.4790  178.9900  143.7190 C   0  0  0  0  0  3  0  0  0  0  0  0
  179.7660  177.8970  144.1340 C   0  0  0  0  0  2  0  0  0  0  0  0
  179.2450  179.7390  142.6960 C   0  0  1  0  0  3  0  0  0  0  0  0
  179.6680  179.3660  144.0570 N   0  0  2  0  0  0  0  0  0  0  0  0
  179.9840  180.9150  142.2590 N   0  0  0  0  0  1  0  0  0  0  0  0
  180.1000  178.5570  142.8800 C   0  0  2  0  0  0  0  0  0  0  0  0
  181.2460  178.2580  140.1860 C   0  0  0  0  0  2  0  0  0  0  0  0
  181.1000  180.6280  137.6290 C   0  0  2  0  0  3  0  0  0  0  0  0
  181.7640  178.9010  138.9870 N   0  0  0  0  0  0  0  0  0  0  0  0
  181.1060  178.2720  137.8530 C   0  0  0  0  0  2  0  0  0  0  0  0
  180.7770  179.3650  136.8740 C   0  0  0  0  0  2  0  0  0  0  0  0
  181.3300  180.2400  139.0110 N   0  0  0  0  0  2  0  0  0  0  0  0
  179.9420  181.6120  137.5620 C   0  0  0  0  0  2  0  0  0  0  0  0
  180.3920  182.9490  136.9940 C   0  0  0  0  0  2  0  0  0  0  0  0
  181.5040  183.4210  137.6940 O   0  0  0  0  0  0  0  0  0  0  0  0
  181.8770  184.4960  137.0330 O   0  0  0  0  0  1  0  0  0  0  0  0
  184.7400  179.4040  144.6720 C   0  0  0  0  0  2  0  0  0  0  0  0
  184.1950  178.7880  145.8700 N   0  0  0  0  0  2  0  0  0  0  0  0
  185.3220  178.3950  146.7000 C   0  0  0  0  0  2  0  0  0  0  0  0
  186.5880  178.3130  145.8630 C   0  0  0  0  0  2  0  0  0  0  0  0
  187.5170  177.2280  146.3830 C   0  0  2  0  0  3  0  0  0  0  0  0
  187.8090  177.4560  147.7300 O   0  0  0  0  0  1  0  0  0  0  0  0
  188.7500  177.2410  145.6100 N   0  0  0  0  0  2  0  0  0  0  0  0
  188.0060  176.3260  143.4900 C   0  0  0  0  0  1  0  0  0  0  0  0
  188.4020  177.5810  144.2410 C   0  0  0  0  0  3  0  0  0  0  0  0
  189.5970  178.2150  143.5600 C   0  0  0  0  0  1  0  0  0  0  0  0
  1  7  1  0  0  0  0
  2  4  1  0  0  0  0
  2  5  2  0  0  0  0
  3  5  1  0  0  0  0
  4  1  2  0  0  0  0
  5  6  1  0  0  0  0
  6  7  2  0  0  0  0
  6 23  1  0  0  0  0
  9 11  1  6  0  0  0
  9 12  1  0  0  0  0
  9 10  1  0  0  0  0
 10  8  1  1  0  0  0
 12  1  1  6  0  0  0
 12 10  1  0  0  0  0
 12  8  1  0  0  0  0
 13  4  1  0  0  0  0
 14 19  1  1  0  0  0
 14 18  1  0  0  0  0
 15 18  1  0  0  0  0
 15 13  1  0  0  0  0
 16 15  1  0  0  0  0
 17 14  1  0  0  0  0
 17 16  1  0  0  0  0
 20 19  1  0  0  0  0
 20 21  1  0  0  0  0
 22 21  1  0  0  0  0
 23 24  1  0  0  0  0
 24 25  1  0  0  0  0
 26 27  1  0  0  0  0
 26 25  1  0  0  0  0
 27 28  1  1  0  0  0
 29 27  1  0  0  0  0
 30 31  1  0  0  0  0
 31 29  1  0  0  0  0
 32 31  1  0  0  0  0
M  END
>  <MODEL>
5

>  <REMARK>
 VINA RESULT:      -6.9      6.595     10.148
  Name = 
  13 active torsions:
  status: ('A' for Active; 'I' for Inactive)
    1  A    between atoms: C_2  and  C_4
    2  A    between atoms: C_3  and  C_23
    3  A    between atoms: C_3  and  N_26
    4  A    between atoms: C_4  and  C_25
    5  A    between atoms: C_6  and  C_29
    6  A    between atoms: N_8  and  C_22
    7  A    between atoms: C_11  and  N_12
    8  A    between atoms: N_12  and  C_15
    9  A    between atoms: C_15  and  C_23
   10  A    between atoms: C_17  and  C_22
   11  A    between atoms: O_19  and  C_25
   12  A    between atoms: N_26  and  C_27
   13  A    between atoms: C_27  and  C_30
                            x       y       z     vdW  Elec       q    Type
                         _______ _______ _______ _____ _____    ______ ____

>  <TORSDO>
F 13

$$$$
=
 OpenBabel11062412393D

 32 35  0  0  1  0  0  0  0  0999 V2000
  186.7150  178.1170  142.7060 C   0  0  0  0  0  0  0  0  0  0  0  0
  184.4150  178.8310  143.0560 C   0  0  0  0  0  3  0  0  0  0  0  0
  183.4020  179.0010  145.3190 C   0  0  0  0  0  1  0  0  0  0  0  0
  185.4760  178.5500  142.1890 C   0  0  0  0  0  0  0  0  0  0  0  0
  184.5640  178.6880  144.4370 C   0  0  0  0  0  0  0  0  0  0  0  0
  185.7910  178.2540  144.9640 C   0  0  0  0  0  0  0  0  0  0  0  0
  186.8550  177.9800  144.1010 C   0  0  0  0  0  3  0  0  0  0  0  0
  188.6820  178.9960  141.4600 C   0  0  0  0  0  2  0  0  0  0  0  0
  188.7340  176.6750  142.0440 C   0  0  1  0  0  3  0  0  0  0  0  0
  189.1720  178.0220  142.4510 N   0  0  2  0  0  0  0  0  0  0  0  0
  188.3100  175.9230  143.2180 N   0  0  0  0  0  1  0  0  0  0  0  0
  187.8670  177.8270  141.7560 C   0  0  2  0  0  0  0  0  0  0  0  0
  185.2610  178.7160  140.7170 C   0  0  0  0  0  2  0  0  0  0  0  0
  182.2460  177.9470  139.1360 C   0  0  2  0  0  3  0  0  0  0  0  0
  183.8520  178.9490  140.4350 N   0  0  0  0  0  0  0  0  0  0  0  0
  183.7900  179.7380  139.2140 C   0  0  0  0  0  2  0  0  0  0  0  0
  182.6540  179.1940  138.3950 C   0  0  0  0  0  2  0  0  0  0  0  0
  183.2740  177.7010  140.1350 N   0  0  0  0  0  2  0  0  0  0  0  0
  182.1580  176.7580  138.1930 C   0  0  0  0  0  2  0  0  0  0  0  0
  183.0570  175.6230  138.6560 C   0  0  0  0  0  2  0  0  0  0  0  0
  184.0400  175.3640  137.7000 O   0  0  0  0  0  0  0  0  0  0  0  0
  184.0020  174.0600  137.5310 O   0  0  0  0  0  1  0  0  0  0  0  0
  186.0050  178.1060  146.4370 C   0  0  0  0  0  2  0  0  0  0  0  0
  187.3350  178.5700  146.7960 N   0  0  0  0  0  2  0  0  0  0  0  0
  187.8710  177.6240  147.7620 C   0  0  0  0  0  2  0  0  0  0  0  0
  189.3540  177.8760  147.9760 C   0  0  0  0  0  2  0  0  0  0  0  0
  190.1950  176.8390  147.2480 C   0  0  2  0  0  3  0  0  0  0  0  0
  191.5280  176.9360  147.6530 O   0  0  0  0  0  1  0  0  0  0  0  0
  190.1050  177.0680  145.8140 N   0  0  0  0  0  2  0  0  0  0  0  0
  191.6770  178.4460  144.5810 C   0  0  0  0  0  1  0  0  0  0  0  0
  191.4620  177.1270  145.2970 C   0  0  0  0  0  3  0  0  0  0  0  0
  191.6810  175.9880  144.3240 C   0  0  0  0  0  1  0  0  0  0  0  0
  1  7  1  0  0  0  0
  2  5  2  0  0  0  0
  4  1  2  0  0  0  0
  4  2  1  0  0  0  0
  5  6  1  0  0  0  0
  5  3  1  0  0  0  0
  6 23  1  0  0  0  0
  7  6  2  0  0  0  0
  8 12  1  0  0  0  0
  9 10  1  0  0  0  0
  9 11  1  1  0  0  0
 10  8  1  6  0  0  0
 12  9  1  0  0  0  0
 12 10  1  0  0  0  0
 12  1  1  1  0  0  0
 13  4  1  0  0  0  0
 14 19  1  6  0  0  0
 14 18  1  0  0  0  0
 15 13  1  0  0  0  0
 16 15  1  0  0  0  0
 17 14  1  0  0  0  0
 17 16  1  0  0  0  0
 18 15  1  0  0  0  0
 19 20  1  0  0  0  0
 21 20  1  0  0  0  0
 22 21  1  0  0  0  0
 23 24  1  0  0  0  0
 24 25  1  0  0  0  0
 25 26  1  0  0  0  0
 27 28  1  1  0  0  0
 27 26  1  0  0  0  0
 29 27  1  0  0  0  0
 30 31  1  0  0  0  0
 31 29  1  0  0  0  0
 32 31  1  0  0  0  0
M  END
>  <MODEL>
6

>  <REMARK>
 VINA RESULT:      -6.7      5.485      8.035
  Name = 
  13 active torsions:
  status: ('A' for Active; 'I' for Inactive)
    1  A    between atoms: C_2  and  C_4
    2  A    between atoms: C_3  and  C_23
    3  A    between atoms: C_3  and  N_26
    4  A    between atoms: C_4  and  C_25
    5  A    between atoms: C_6  and  C_29
    6  A    between atoms: N_8  and  C_22
    7  A    between atoms: C_11  and  N_12
    8  A    between atoms: N_12  and  C_15
    9  A    between atoms: C_15  and  C_23
   10  A    between atoms: C_17  and  C_22
   11  A    between atoms: O_19  and  C_25
   12  A    between atoms: N_26  and  C_27
   13  A    between atoms: C_27  and  C_30
                            x       y       z     vdW  Elec       q    Type
                         _______ _______ _______ _____ _____    ______ ____

>  <TORSDO>
F 13

$$$$
=
 OpenBabel11062412393D

 32 35  0  0  1  0  0  0  0  0999 V2000
  190.6250  176.8830  138.7310 C   0  0  0  0  0  0  0  0  0  0  0  0
  188.6680  178.0310  139.6110 C   0  0  0  0  0  3  0  0  0  0  0  0
  188.1820  178.1610  142.0440 C   0  0  0  0  0  1  0  0  0  0  0  0
  189.4460  177.6270  138.5200 C   0  0  0  0  0  0  0  0  0  0  0  0
  189.0450  177.7060  140.9160 C   0  0  0  0  0  0  0  0  0  0  0  0
  190.2160  176.9620  141.1380 C   0  0  0  0  0  0  0  0  0  0  0  0
  190.9980  176.5650  140.0510 C   0  0  0  0  0  3  0  0  0  0  0  0
  192.9010  176.6270  137.7540 C   0  0  0  0  0  2  0  0  0  0  0  0
  191.2080  175.1470  136.9300 C   0  0  1  0  0  3  0  0  0  0  0  0
  192.3140  175.2820  137.8950 N   0  0  2  0  0  0  0  0  0  0  0  0
  190.0970  174.4420  137.5550 N   0  0  0  0  0  1  0  0  0  0  0  0
  191.4710  176.4600  137.5380 C   0  0  2  0  0  0  0  0  0  0  0  0
  188.9930  177.9980  137.1430 C   0  0  0  0  0  2  0  0  0  0  0  0
  186.0890  176.2180  136.3830 C   0  0  2  0  0  3  0  0  0  0  0  0
  187.5480  177.8680  137.0320 N   0  0  0  0  0  0  0  0  0  0  0  0
  187.2000  178.1760  135.6540 C   0  0  0  0  0  2  0  0  0  0  0  0
  186.1410  177.1940  135.2370 C   0  0  0  0  0  2  0  0  0  0  0  0
  187.2350  176.5100  137.2300 N   0  0  0  0  0  2  0  0  0  0  0  0
  186.1790  174.7850  135.8810 C   0  0  0  0  0  2  0  0  0  0  0  0
  186.5030  173.8270  137.0160 C   0  0  0  0  0  2  0  0  0  0  0  0
  186.8520  172.5750  136.5050 O   0  0  0  0  0  0  0  0  0  0  0  0
  187.7130  172.0920  137.3760 O   0  0  0  0  0  1  0  0  0  0  0  0
  190.6710  176.6090  142.5180 C   0  0  0  0  0  2  0  0  0  0  0  0
  191.8040  177.4370  142.8960 N   0  0  0  0  0  2  0  0  0  0  0  0
  191.5850  177.8610  144.2700 C   0  0  0  0  0  2  0  0  0  0  0  0
  191.3180  176.6550  145.1550 C   0  0  0  0  0  2  0  0  0  0  0  0
  191.1280  177.0730  146.6040 C   0  0  2  0  0  3  0  0  0  0  0  0
  192.1290  176.5100  147.3980 O   0  0  0  0  0  1  0  0  0  0  0  0
  189.8270  176.6170  147.0690 N   0  0  0  0  0  2  0  0  0  0  0  0
  188.3400  177.8480  148.5400 C   0  0  0  0  0  1  0  0  0  0  0  0
  188.9640  177.7830  147.1600 C   0  0  0  0  0  3  0  0  0  0  0  0
  187.8680  177.6820  146.1200 C   0  0  0  0  0  1  0  0  0  0  0  0
  1  7  1  0  0  0  0
  2  5  2  0  0  0  0
  4  1  2  0  0  0  0
  4  2  1  0  0  0  0
  5  6  1  0  0  0  0
  5  3  1  0  0  0  0
  6 23  1  0  0  0  0
  7  6  2  0  0  0  0
  9 12  1  0  0  0  0
  9 11  1  1  0  0  0
  9 10  1  0  0  0  0
 10  8  1  6  0  0  0
 12  8  1  0  0  0  0
 12 10  1  0  0  0  0
 12  1  1  1  0  0  0
 13  4  1  0  0  0  0
 14 19  1  6  0  0  0
 14 18  1  0  0  0  0
 15 13  1  0  0  0  0
 15 18  1  0  0  0  0
 16 15  1  0  0  0  0
 17 16  1  0  0  0  0
 17 14  1  0  0  0  0
 19 20  1  0  0  0  0
 21 20  1  0  0  0  0
 21 22  1  0  0  0  0
 23 24  1  0  0  0  0
 24 25  1  0  0  0  0
 25 26  1  0  0  0  0
 26 27  1  0  0  0  0
 27 29  1  0  0  0  0
 27 28  1  1  0  0  0
 29 31  1  0  0  0  0
 31 30  1  0  0  0  0
 32 31  1  0  0  0  0
M  END
>  <MODEL>
7

>  <REMARK>
 VINA RESULT:      -6.7      3.439      5.612
  Name = 
  13 active torsions:
  status: ('A' for Active; 'I' for Inactive)
    1  A    between atoms: C_2  and  C_4
    2  A    between atoms: C_3  and  C_23
    3  A    between atoms: C_3  and  N_26
    4  A    between atoms: C_4  and  C_25
    5  A    between atoms: C_6  and  C_29
    6  A    between atoms: N_8  and  C_22
    7  A    between atoms: C_11  and  N_12
    8  A    between atoms: N_12  and  C_15
    9  A    between atoms: C_15  and  C_23
   10  A    between atoms: C_17  and  C_22
   11  A    between atoms: O_19  and  C_25
   12  A    between atoms: N_26  and  C_27
   13  A    between atoms: C_27  and  C_30
                            x       y       z     vdW  Elec       q    Type
                         _______ _______ _______ _____ _____    ______ ____

>  <TORSDO>
F 13

$$$$
=
 OpenBabel11062412393D

 32 35  0  0  1  0  0  0  0  0999 V2000
  190.3480  177.0350  138.6980 C   0  0  0  0  0  0  0  0  0  0  0  0
  188.4590  178.4010  139.3960 C   0  0  0  0  0  3  0  0  0  0  0  0
  187.6490  178.4550  141.7440 C   0  0  0  0  0  1  0  0  0  0  0  0
  189.3230  177.9540  138.3910 C   0  0  0  0  0  0  0  0  0  0  0  0
  188.5960  177.9480  140.7090 C   0  0  0  0  0  0  0  0  0  0  0  0
  189.6100  177.0290  141.0280 C   0  0  0  0  0  0  0  0  0  0  0  0
  190.4790  176.5880  140.0270 C   0  0  0  0  0  3  0  0  0  0  0  0
  192.6980  176.7520  137.9260 C   0  0  0  0  0  2  0  0  0  0  0  0
  191.0840  175.2250  137.0320 C   0  0  1  0  0  3  0  0  0  0  0  0
  192.1050  175.4100  138.0790 N   0  0  2  0  0  0  0  0  0  0  0  0
  189.9280  174.5410  137.5940 N   0  0  0  0  0  1  0  0  0  0  0  0
  191.2910  176.5650  137.6000 C   0  0  2  0  0  0  0  0  0  0  0  0
  189.1290  178.4690  136.9990 C   0  0  0  0  0  2  0  0  0  0  0  0
  185.7220  177.7520  137.2400 C   0  0  2  0  0  3  0  0  0  0  0  0
  187.8660  177.9940  136.4550 N   0  0  0  0  0  0  0  0  0  0  0  0
  187.7440  176.5930  136.8310 C   0  0  0  0  0  2  0  0  0  0  0  0
  186.3110  176.3660  137.2220 C   0  0  0  0  0  2  0  0  0  0  0  0
  186.8370  178.6800  137.1270 N   0  0  0  0  0  2  0  0  0  0  0  0
  184.9750  178.0100  138.5390 C   0  0  0  0  0  2  0  0  0  0  0  0
  183.9480  179.1180  138.3700 C   0  0  0  0  0  2  0  0  0  0  0  0
  184.3300  180.2460  139.0980 O   0  0  0  0  0  0  0  0  0  0  0  0
  184.9030  179.7620  140.1800 O   0  0  0  0  0  1  0  0  0  0  0  0
  189.8090  176.5320  142.4240 C   0  0  0  0  0  2  0  0  0  0  0  0
  191.2260  176.3480  142.6900 N   0  0  0  0  0  2  0  0  0  0  0  0
  191.6510  177.4580  143.5280 C   0  0  0  0  0  2  0  0  0  0  0  0
  190.4860  177.9620  144.3630 C   0  0  0  0  0  2  0  0  0  0  0  0
  190.5910  177.4730  145.7980 C   0  0  2  0  0  3  0  0  0  0  0  0
  191.6500  176.5710  145.9180 O   0  0  0  0  0  1  0  0  0  0  0  0
  189.3480  176.8150  146.1730 N   0  0  0  0  0  2  0  0  0  0  0  0
  188.4670  177.8710  148.1720 C   0  0  0  0  0  1  0  0  0  0  0  0
  188.4410  177.8420  146.6570 C   0  0  0  0  0  3  0  0  0  0  0  0
  187.0340  177.5330  146.1880 C   0  0  0  0  0  1  0  0  0  0  0  0
  1  7  1  0  0  0  0
  2  5  2  0  0  0  0
  4  1  2  0  0  0  0
  4  2  1  0  0  0  0
  5  6  1  0  0  0  0
  5  3  1  0  0  0  0
  6 23  1  0  0  0  0
  7  6  2  0  0  0  0
  9 11  1  1  0  0  0
  9 12  1  0  0  0  0
  9 10  1  0  0  0  0
 10  8  1  6  0  0  0
 12  8  1  0  0  0  0
 12 10  1  0  0  0  0
 12  1  1  1  0  0  0
 13  4  1  0  0  0  0
 14 19  1  1  0  0  0
 15 16  1  0  0  0  0
 15 13  1  0  0  0  0
 15 18  1  0  0  0  0
 16 17  1  0  0  0  0
 17 14  1  0  0  0  0
 18 14  1  0  0  0  0
 20 19  1  0  0  0  0
 20 21  1  0  0  0  0
 21 22  1  0  0  0  0
 23 24  1  0  0  0  0
 24 25  1  0  0  0  0
 25 26  1  0  0  0  0
 26 27  1  0  0  0  0
 27 28  1  6  0  0  0
 27 29  1  0  0  0  0
 29 31  1  0  0  0  0
 31 30  1  0  0  0  0
 32 31  1  0  0  0  0
M  END
>  <MODEL>
8

>  <REMARK>
 VINA RESULT:      -6.6      3.441      6.257
  Name = 
  13 active torsions:
  status: ('A' for Active; 'I' for Inactive)
    1  A    between atoms: C_2  and  C_4
    2  A    between atoms: C_3  and  C_23
    3  A    between atoms: C_3  and  N_26
    4  A    between atoms: C_4  and  C_25
    5  A    between atoms: C_6  and  C_29
    6  A    between atoms: N_8  and  C_22
    7  A    between atoms: C_11  and  N_12
    8  A    between atoms: N_12  and  C_15
    9  A    between atoms: C_15  and  C_23
   10  A    between atoms: C_17  and  C_22
   11  A    between atoms: O_19  and  C_25
   12  A    between atoms: N_26  and  C_27
   13  A    between atoms: C_27  and  C_30
                            x       y       z     vdW  Elec       q    Type
                         _______ _______ _______ _____ _____    ______ ____

>  <TORSDO>
F 13

$$$$
=
 OpenBabel11062412393D

 32 35  0  0  1  0  0  0  0  0999 V2000
  187.4200  177.4690  143.6280 C   0  0  0  0  0  0  0  0  0  0  0  0
  185.4000  178.1660  144.7920 C   0  0  0  0  0  3  0  0  0  0  0  0
  183.5000  179.2600  143.6240 C   0  0  0  0  0  1  0  0  0  0  0  0
  186.6710  177.5810  144.8180 C   0  0  0  0  0  0  0  0  0  0  0  0
  184.8590  178.6450  143.5980 C   0  0  0  0  0  0  0  0  0  0  0  0
  185.5970  178.5430  142.4070 C   0  0  0  0  0  0  0  0  0  0  0  0
  186.8630  177.9520  142.4290 C   0  0  0  0  0  3  0  0  0  0  0  0
  188.8920  175.6200  142.8440 C   0  0  0  0  0  2  0  0  0  0  0  0
  189.9740  177.6710  143.4420 C   0  0  1  0  0  3  0  0  0  0  0  0
  189.4340  176.8860  142.3170 N   0  0  2  0  0  0  0  0  0  0  0  0
  189.6350  179.0760  143.2640 N   0  0  0  0  0  1  0  0  0  0  0  0
  188.7960  176.8190  143.6640 C   0  0  2  0  0  0  0  0  0  0  0  0
  187.2050  177.0880  146.1260 C   0  0  0  0  0  2  0  0  0  0  0  0
  189.9850  178.3260  147.8350 C   0  0  2  0  0  3  0  0  0  0  0  0
  187.9420  178.1450  146.8030 N   0  0  0  0  0  0  0  0  0  0  0  0
  187.6730  178.0040  148.2250 C   0  0  0  0  0  2  0  0  0  0  0  0
  188.9690  178.2530  148.9450 C   0  0  0  0  0  2  0  0  0  0  0  0
  189.3130  177.8770  146.6260 N   0  0  0  0  0  2  0  0  0  0  0  0
  191.1720  177.4200  148.1240 C   0  0  0  0  0  2  0  0  0  0  0  0
  191.3440  176.3770  147.0320 C   0  0  0  0  0  2  0  0  0  0  0  0
  192.5010  175.6290  147.2560 O   0  0  0  0  0  0  0  0  0  0  0  0
  192.8860  175.9720  148.4670 O   0  0  0  0  0  1  0  0  0  0  0  0
  185.0500  179.0230  141.1010 C   0  0  0  0  0  2  0  0  0  0  0  0
  185.9670  178.6880  140.0240 N   0  0  0  0  0  2  0  0  0  0  0  0
  185.1850  178.6280  138.7990 C   0  0  0  0  0  2  0  0  0  0  0  0
  185.8100  177.6450  137.8240 C   0  0  0  0  0  2  0  0  0  0  0  0
  187.2300  178.0580  137.4670 C   0  0  2  0  0  3  0  0  0  0  0  0
  187.2900  178.4510  136.1280 O   0  0  0  0  0  1  0  0  0  0  0  0
  188.1260  176.9330  137.6840 N   0  0  0  0  0  2  0  0  0  0  0  0
  190.2480  176.3780  138.7210 C   0  0  0  0  0  1  0  0  0  0  0  0
  189.4130  177.4730  138.0860 C   0  0  0  0  0  3  0  0  0  0  0  0
  189.2010  178.5860  139.0910 C   0  0  0  0  0  1  0  0  0  0  0  0
  1  4  1  0  0  0  0
  2  4  2  0  0  0  0
  4 13  1  0  0  0  0
  5  3  1  0  0  0  0
  5  2  1  0  0  0  0
  6  7  1  0  0  0  0
  6  5  2  0  0  0  0
  7  1  2  0  0  0  0
  8 12  1  0  0  0  0
  9 11  1  6  0  0  0
  9 12  1  0  0  0  0
 10  8  1  1  0  0  0
 10  9  1  0  0  0  0
 10 12  1  0  0  0  0
 12  1  1  1  0  0  0
 13 15  1  0  0  0  0
 14 19  1  1  0  0  0
 14 17  1  0  0  0  0
 15 16  1  0  0  0  0
 16 17  1  0  0  0  0
 18 15  1  0  0  0  0
 18 14  1  0  0  0  0
 20 21  1  0  0  0  0
 20 19  1  0  0  0  0
 21 22  1  0  0  0  0
 23  6  1  0  0  0  0
 24 23  1  0  0  0  0
 25 24  1  0  0  0  0
 26 25  1  0  0  0  0
 27 28  1  6  0  0  0
 27 29  1  0  0  0  0
 27 26  1  0  0  0  0
 29 31  1  0  0  0  0
 31 30  1  0  0  0  0
 31 32  1  0  0  0  0
M  END
>  <MODEL>
9

>  <REMARK>
 VINA RESULT:      -6.5      4.095      8.805
  Name = 
  13 active torsions:
  status: ('A' for Active; 'I' for Inactive)
    1  A    between atoms: C_2  and  C_4
    2  A    between atoms: C_3  and  C_23
    3  A    between atoms: C_3  and  N_26
    4  A    between atoms: C_4  and  C_25
    5  A    between atoms: C_6  and  C_29
    6  A    between atoms: N_8  and  C_22
    7  A    between atoms: C_11  and  N_12
    8  A    between atoms: N_12  and  C_15
    9  A    between atoms: C_15  and  C_23
   10  A    between atoms: C_17  and  C_22
   11  A    between atoms: O_19  and  C_25
   12  A    between atoms: N_26  and  C_27
   13  A    between atoms: C_27  and  C_30
                            x       y       z     vdW  Elec       q    Type
                         _______ _______ _______ _____ _____    ______ ____

>  <TORSDO>
F 13

$$$$
