=
 OpenBabel11062417303D

 47 53  0  0  1  0  0  0  0  0999 V2000
  190.8950  176.6880  143.3500 C   0  0  0  0  0  3  0  0  0  0  0  0
  191.5270  177.3780  141.0240 C   0  0  0  0  0  0  0  0  0  0  0  0
  191.6910  177.4340  142.4380 N   0  0  0  0  0  0  0  0  0  0  0  0
  188.7370  177.3990  142.4260 C   0  0  0  0  0  0  0  0  0  0  0  0
  189.0470  177.7050  141.1400 C   0  0  0  0  0  0  0  0  0  0  0  0
  192.7210  177.3550  140.2420 N   0  0  0  0  0  1  0  0  0  0  0  0
  189.6030  176.6610  143.2990 N   0  0  0  0  0  2  0  0  0  0  0  0
  190.3080  177.3530  140.4340 C   0  0  0  0  0  0  0  0  0  0  0  0
  188.0890  178.3550  140.3630 O   0  0  0  0  0  1  0  0  0  0  0  0
  181.1690  179.1810  142.8690 C   0  0  0  0  0  0  0  0  0  0  0  0
  179.7300  179.5220  142.7300 C   0  0  0  0  0  1  0  0  0  0  0  0
  183.2170  178.5280  141.8530 C   0  0  0  0  0  3  0  0  0  0  0  0
  187.4060  177.7290  142.9960 C   0  0  0  0  0  0  0  0  0  0  0  0
  185.5430  177.8880  146.9500 C   0  0  0  0  0  2  0  0  0  0  0  0
  185.1910  178.6310  145.6860 C   0  0  0  0  0  0  0  0  0  0  0  0
  186.2200  177.8920  142.2750 C   0  0  0  0  0  3  0  0  0  0  0  0
  185.9300  178.2770  144.4370 C   0  0  0  0  0  0  0  0  0  0  0  0
  185.9130  179.3650  146.7880 C   0  0  0  0  0  2  0  0  0  0  0  0
  181.8960  178.8410  141.7690 N   0  0  0  0  0  0  0  0  0  0  0  0
  183.8630  178.5540  143.0920 C   0  0  0  0  0  0  0  0  0  0  0  0
  185.2930  178.2370  143.2330 C   0  0  0  0  0  0  0  0  0  0  0  0
  183.1300  178.9060  144.2460 C   0  0  0  0  0  0  0  0  0  0  0  0
  181.7750  179.2200  144.1280 C   0  0  0  0  0  3  0  0  0  0  0  0
  187.2330  177.9760  144.3160 N   0  0  0  0  0  2  0  0  0  0  0  0
  183.7700  178.9510  145.5370 N   0  0  0  0  0  2  0  0  0  0  0  0
  189.9880  175.9510  138.3650 C   0  0  0  0  0  3  0  0  0  0  0  0
  190.1290  177.1280  138.9740 C   0  0  0  0  0  3  0  0  0  0  0  0
  187.7290  176.1180  135.9530 C   0  0  1  0  0  3  0  0  0  0  0  0
  189.7860  175.8120  136.8760 C   0  0  2  0  0  0  0  0  0  0  0  0
  189.7190  177.1670  136.2380 C   0  0  0  0  0  3  0  0  0  0  0  0
  188.5300  177.3430  135.7190 C   0  0  0  0  0  3  0  0  0  0  0  0
  188.5220  175.2040  136.6830 O   0  0  0  0  0  0  0  0  0  0  0  0
  192.9450  175.1480  135.3720 C   0  0  0  0  0  2  0  0  0  0  0  0
  191.7560  174.4220  137.2890 C   0  0  0  0  0  2  0  0  0  0  0  0
  191.6090  175.7240  135.3830 N   0  0  0  0  0  2  0  0  0  0  0  0
  190.8370  174.9520  136.2790 N   0  0  2  0  0  0  0  0  0  0  0  0
  193.1410  174.4710  136.7020 C   0  0  2  0  0  3  0  0  0  0  0  0
  194.0520  175.2700  137.5850 C   0  0  0  0  0  0  0  0  0  0  0  0
  194.0360  176.5310  137.5330 O   0  0  0  0  0  0  0  0  0  0  0  0
  195.1960  173.1190  138.4110 C   0  0  0  0  0  1  0  0  0  0  0  0
  195.5390  175.2340  139.4320 O   0  0  0  0  0  0  0  0  0  0  0  0
  194.9560  174.5850  138.5230 C   0  0  0  0  0  0  0  0  0  0  0  0
  186.4770  176.4320  136.7070 C   0  0  0  0  0  0  0  0  0  0  0  0
  185.7020  175.5020  137.0670 O   0  0  0  0  0  0  0  0  0  0  0  0
  186.1760  177.7650  136.9970 O   0  0  0  0  0  0  0  0  0  0  0  0
  185.5840  178.1650  138.2270 C   0  0  0  0  0  2  0  0  0  0  0  0
  184.0720  178.1840  138.1050 C   0  0  0  0  0  1  0  0  0  0  0  0
  2  3  1  0  0  0  0
  3  1  2  0  0  0  0
  4 13  1  0  0  0  0
  4  7  1  0  0  0  0
  5  4  2  0  0  0  0
  6  2  1  0  0  0  0
  7  1  1  0  0  0  0
  8  2  2  0  0  0  0
  8  5  1  0  0  0  0
  9  5  1  0  0  0  0
 10 23  1  0  0  0  0
 11 10  1  0  0  0  0
 12 20  2  0  0  0  0
 13 24  1  0  0  0  0
 15 18  1  0  0  0  0
 15 14  1  0  0  0  0
 16 13  2  0  0  0  0
 16 21  1  0  0  0  0
 17 15  1  0  0  0  0
 18 14  1  0  0  0  0
 19 12  1  0  0  0  0
 19 10  2  0  0  0  0
 20 21  1  0  0  0  0
 20 22  1  0  0  0  0
 21 17  2  0  0  0  0
 22 25  1  0  0  0  0
 23 22  2  0  0  0  0
 24 17  1  0  0  0  0
 25 15  1  0  0  0  0
 26 27  2  0  0  0  0
 27  8  1  0  0  0  0
 28 32  1  0  0  0  0
 28 43  1  1  0  0  0
 29 26  1  1  0  0  0
 30 29  1  0  0  0  0
 31 28  1  0  0  0  0
 31 30  2  0  0  0  0
 32 29  1  0  0  0  0
 33 35  1  0  0  0  0
 33 37  1  0  0  0  0
 35 36  1  0  0  0  0
 36 29  1  0  0  0  0
 36 34  1  1  0  0  0
 37 34  1  0  0  0  0
 37 38  1  1  0  0  0
 38 42  1  0  0  0  0
 39 38  2  0  0  0  0
 40 42  1  0  0  0  0
 42 41  2  0  0  0  0
 43 45  1  0  0  0  0
 43 44  2  0  0  0  0
 45 46  1  0  0  0  0
 47 46  1  0  0  0  0
M  END
>  <MODEL>
1

>  <REMARK>
 VINA RESULT:     -10.0      0.000      0.000
  Name = 
  9 active torsions:
  status: ('A' for Active; 'I' for Inactive)
    1  A    between atoms: C_2  and  O_26
    2  A    between atoms: C_5  and  C_8
    3  A    between atoms: C_8  and  O_26
    4  A    between atoms: C_13  and  C_14
    5  A    between atoms: C_16  and  C_20
    6  A    between atoms: C_16  and  N_36
    7  A    between atoms: C_19  and  C_46
    8  A    between atoms: C_19  and  C_47
    9  A    between atoms: C_27  and  C_42
                            x       y       z     vdW  Elec       q    Type
                         _______ _______ _______ _____ _____    ______ ____

>  <TORSDO>
F 9

$$$$
=
 OpenBabel11062417303D

 47 53  0  0  1  0  0  0  0  0999 V2000
  191.1690  177.3280  143.8550 C   0  0  0  0  0  3  0  0  0  0  0  0
  191.8000  177.4690  141.4330 C   0  0  0  0  0  0  0  0  0  0  0  0
  191.9030  177.9090  142.7840 N   0  0  0  0  0  0  0  0  0  0  0  0
  188.9770  177.4960  142.7670 C   0  0  0  0  0  0  0  0  0  0  0  0
  189.2960  177.4980  141.4480 C   0  0  0  0  0  0  0  0  0  0  0  0
  193.0170  177.3980  140.6910 N   0  0  0  0  0  1  0  0  0  0  0  0
  189.8930  177.1250  143.8060 N   0  0  0  0  0  2  0  0  0  0  0  0
  190.6170  177.1380  140.8640 C   0  0  0  0  0  0  0  0  0  0  0  0
  188.2970  177.7980  140.5220 O   0  0  0  0  0  1  0  0  0  0  0  0
  181.3560  179.0870  142.5790 C   0  0  0  0  0  0  0  0  0  0  0  0
  179.9260  179.3920  142.3220 C   0  0  0  0  0  1  0  0  0  0  0  0
  183.4980  178.4900  141.7360 C   0  0  0  0  0  3  0  0  0  0  0  0
  187.5960  177.7900  143.2250 C   0  0  0  0  0  0  0  0  0  0  0  0
  185.4050  177.8860  147.0090 C   0  0  0  0  0  2  0  0  0  0  0  0
  185.1410  178.6250  145.7220 C   0  0  0  0  0  0  0  0  0  0  0  0
  186.4700  177.9270  142.4070 C   0  0  0  0  0  3  0  0  0  0  0  0
  185.9910  178.2950  144.5380 C   0  0  0  0  0  0  0  0  0  0  0  0
  185.7500  179.3720  146.8820 C   0  0  0  0  0  2  0  0  0  0  0  0
  182.1800  178.7690  141.5440 N   0  0  0  0  0  0  0  0  0  0  0  0
  184.0370  178.5260  143.0250 C   0  0  0  0  0  0  0  0  0  0  0  0
  185.4580  178.2440  143.2850 C   0  0  0  0  0  0  0  0  0  0  0  0
  183.2020  178.8540  144.1160 C   0  0  0  0  0  0  0  0  0  0  0  0
  181.8540  179.1360  143.8850 C   0  0  0  0  0  3  0  0  0  0  0  0
  187.3060  178.0270  144.5260 N   0  0  0  0  0  2  0  0  0  0  0  0
  183.7300  178.9090  145.4560 N   0  0  0  0  0  2  0  0  0  0  0  0
  190.6070  177.1610  138.3450 C   0  0  0  0  0  3  0  0  0  0  0  0
  190.5220  176.5230  139.5120 C   0  0  0  0  0  3  0  0  0  0  0  0
  192.1390  174.9890  136.3750 C   0  0  1  0  0  3  0  0  0  0  0  0
  190.5220  176.4570  137.0130 C   0  0  2  0  0  0  0  0  0  0  0  0
  190.0300  175.0540  137.2040 C   0  0  0  0  0  3  0  0  0  0  0  0
  190.9680  174.2140  136.8460 C   0  0  0  0  0  3  0  0  0  0  0  0
  191.8420  176.3640  136.5070 O   0  0  0  0  0  0  0  0  0  0  0  0
  187.6180  177.1080  135.0570 C   0  0  0  0  0  2  0  0  0  0  0  0
  188.8580  178.2290  136.7360 C   0  0  0  0  0  2  0  0  0  0  0  0
  188.8100  176.3450  135.3960 N   0  0  0  0  0  2  0  0  0  0  0  0
  189.6880  177.2290  136.0600 N   0  0  2  0  0  0  0  0  0  0  0  0
  187.5140  178.2250  136.0600 C   0  0  2  0  0  3  0  0  0  0  0  0
  186.4290  177.9550  137.0590 C   0  0  0  0  0  0  0  0  0  0  0  0
  186.3140  178.6880  138.0800 O   0  0  0  0  0  0  0  0  0  0  0  0
  184.1720  177.0850  136.1860 C   0  0  0  0  0  1  0  0  0  0  0  0
  185.7880  175.6770  137.2050 O   0  0  0  0  0  0  0  0  0  0  0  0
  185.4870  176.8460  136.8410 C   0  0  0  0  0  0  0  0  0  0  0  0
  193.3620  174.6470  137.1640 C   0  0  0  0  0  0  0  0  0  0  0  0
  193.9760  175.5460  137.8030 O   0  0  0  0  0  0  0  0  0  0  0  0
  193.8160  173.3260  137.1740 O   0  0  0  0  0  0  0  0  0  0  0  0
  194.3750  172.7000  136.0260 C   0  0  0  0  0  2  0  0  0  0  0  0
  195.8080  173.1520  135.8220 C   0  0  0  0  0  1  0  0  0  0  0  0
  2  3  1  0  0  0  0
  3  1  2  0  0  0  0
  4 13  1  0  0  0  0
  4  7  1  0  0  0  0
  5  4  2  0  0  0  0
  6  2  1  0  0  0  0
  7  1  1  0  0  0  0
  8  2  2  0  0  0  0
  8  5  1  0  0  0  0
  9  5  1  0  0  0  0
 10 23  1  0  0  0  0
 11 10  1  0  0  0  0
 12 20  2  0  0  0  0
 13 24  1  0  0  0  0
 15 18  1  0  0  0  0
 15 14  1  0  0  0  0
 16 13  2  0  0  0  0
 16 21  1  0  0  0  0
 17 15  1  0  0  0  0
 18 14  1  0  0  0  0
 19 12  1  0  0  0  0
 19 10  2  0  0  0  0
 20 21  1  0  0  0  0
 20 22  1  0  0  0  0
 21 17  2  0  0  0  0
 22 25  1  0  0  0  0
 23 22  2  0  0  0  0
 24 17  1  0  0  0  0
 25 15  1  0  0  0  0
 26 27  2  0  0  0  0
 27  8  1  0  0  0  0
 28 32  1  0  0  0  0
 28 31  1  0  0  0  0
 28 43  1  1  0  0  0
 29 30  1  0  0  0  0
 29 26  1  1  0  0  0
 31 30  2  0  0  0  0
 32 29  1  0  0  0  0
 33 35  1  0  0  0  0
 33 37  1  0  0  0  0
 35 36  1  0  0  0  0
 36 34  1  1  0  0  0
 36 29  1  0  0  0  0
 37 34  1  0  0  0  0
 37 38  1  1  0  0  0
 38 39  2  0  0  0  0
 40 42  1  0  0  0  0
 42 38  1  0  0  0  0
 42 41  2  0  0  0  0
 43 45  1  0  0  0  0
 43 44  2  0  0  0  0
 46 45  1  0  0  0  0
 47 46  1  0  0  0  0
M  END
>  <MODEL>
2

>  <REMARK>
 VINA RESULT:      -9.3      1.205      4.900
  Name = 
  9 active torsions:
  status: ('A' for Active; 'I' for Inactive)
    1  A    between atoms: C_2  and  O_26
    2  A    between atoms: C_5  and  C_8
    3  A    between atoms: C_8  and  O_26
    4  A    between atoms: C_13  and  C_14
    5  A    between atoms: C_16  and  C_20
    6  A    between atoms: C_16  and  N_36
    7  A    between atoms: C_19  and  C_46
    8  A    between atoms: C_19  and  C_47
    9  A    between atoms: C_27  and  C_42
                            x       y       z     vdW  Elec       q    Type
                         _______ _______ _______ _____ _____    ______ ____

>  <TORSDO>
F 9

$$$$
=
 OpenBabel11062417303D

 47 53  0  0  1  0  0  0  0  0999 V2000
  182.8990  178.6380  143.7060 C   0  0  0  0  0  3  0  0  0  0  0  0
  185.3910  178.7820  143.9370 C   0  0  0  0  0  0  0  0  0  0  0  0
  184.0750  179.2370  144.2360 N   0  0  0  0  0  2  0  0  0  0  0  0
  183.6240  178.7090  141.3640 C   0  0  0  0  0  0  0  0  0  0  0  0
  184.9770  178.7110  141.4680 C   0  0  0  0  0  0  0  0  0  0  0  0
  186.3180  178.7520  145.0210 N   0  0  0  0  0  1  0  0  0  0  0  0
  182.7430  178.3840  142.4480 N   0  0  0  0  0  0  0  0  0  0  0  0
  185.7630  178.3980  142.6930 C   0  0  0  0  0  0  0  0  0  0  0  0
  185.7310  178.9630  140.3220 O   0  0  0  0  0  1  0  0  0  0  0  0
  179.9460  182.3850  135.5670 C   0  0  0  0  0  0  0  0  0  0  0  0
  179.2500  183.2650  134.5940 C   0  0  0  0  0  1  0  0  0  0  0  0
  181.1240  182.1430  137.6180 C   0  0  0  0  0  3  0  0  0  0  0  0
  182.9520  178.9520  140.0620 C   0  0  0  0  0  0  0  0  0  0  0  0
  182.2410  176.7640  136.3420 C   0  0  0  0  0  2  0  0  0  0  0  0
  181.4580  177.8930  136.9640 C   0  0  0  0  0  0  0  0  0  0  0  0
  182.5030  180.1880  139.5870 C   0  0  0  0  0  2  0  0  0  0  0  0
  182.0140  178.5400  138.1900 C   0  0  0  0  0  0  0  0  0  0  0  0
  180.9130  176.4890  137.0530 C   0  0  0  0  0  2  0  0  0  0  0  0
  180.4840  182.9150  136.6990 N   0  0  0  0  0  0  0  0  0  0  0  0
  181.2410  180.7660  137.4110 C   0  0  0  0  0  0  0  0  0  0  0  0
  181.9130  179.8850  138.3810 C   0  0  0  0  0  0  0  0  0  0  0  0
  180.6900  180.1920  136.2440 C   0  0  0  0  0  0  0  0  0  0  0  0
  180.0400  181.0120  135.3200 C   0  0  0  0  0  3  0  0  0  0  0  0
  182.6420  177.9430  139.2150 N   0  0  0  0  0  0  0  0  0  0  0  0
  180.7860  178.7740  136.0060 N   0  0  0  0  0  2  0  0  0  0  0  0
  188.2440  178.4010  142.2510 C   0  0  0  0  0  3  0  0  0  0  0  0
  187.0810  177.7690  142.4080 C   0  0  0  0  0  3  0  0  0  0  0  0
  190.8270  176.9370  143.7110 C   0  0  1  0  0  3  0  0  0  0  0  0
  189.5440  177.6820  141.9860 C   0  0  2  0  0  0  0  0  0  0  0  0
  189.3560  176.2040  142.1480 C   0  0  0  0  0  3  0  0  0  0  0  0
  190.0870  175.7820  143.1490 C   0  0  0  0  0  3  0  0  0  0  0  0
  190.4570  178.0930  142.9870 O   0  0  0  0  0  0  0  0  0  0  0  0
  190.4340  177.0830  138.5900 C   0  0  0  0  0  2  0  0  0  0  0  0
  189.0570  178.6060  139.7730 C   0  0  0  0  0  2  0  0  0  0  0  0
  190.5780  176.8820  140.0240 N   0  0  0  0  0  2  0  0  0  0  0  0
  190.0850  178.0460  140.6540 N   0  0  2  0  0  0  0  0  0  0  0  0
  189.2970  178.0500  138.3960 C   0  0  2  0  0  3  0  0  0  0  0  0
  188.0700  177.3460  137.8970 C   0  0  0  0  0  0  0  0  0  0  0  0
  187.9610  176.0960  138.0330 O   0  0  0  0  0  0  0  0  0  0  0  0
  185.6180  177.5400  137.1480 C   0  0  0  0  0  1  0  0  0  0  0  0
  187.2080  179.2710  136.8140 O   0  0  0  0  0  0  0  0  0  0  0  0
  186.9870  178.1140  137.2640 C   0  0  0  0  0  0  0  0  0  0  0  0
  190.5190  177.1160  145.1620 C   0  0  0  0  0  0  0  0  0  0  0  0
  191.4270  176.9660  146.0270 O   0  0  0  0  0  0  0  0  0  0  0  0
  189.2160  177.4410  145.5450 O   0  0  0  0  0  0  0  0  0  0  0  0
  188.6400  176.9850  146.7630 C   0  0  0  0  0  2  0  0  0  0  0  0
  188.6580  178.0890  147.8030 C   0  0  0  0  0  1  0  0  0  0  0  0
  1  3  1  0  0  0  0
  2  3  1  0  0  0  0
  2  6  1  0  0  0  0
  4  5  2  0  0  0  0
  4  7  1  0  0  0  0
  5  8  1  0  0  0  0
  7  1  2  0  0  0  0
  8  2  2  0  0  0  0
  9  5  1  0  0  0  0
 10 19  1  0  0  0  0
 11 10  1  0  0  0  0
 13  4  1  0  0  0  0
 14 15  1  0  0  0  0
 14 18  1  0  0  0  0
 15 18  1  0  0  0  0
 15 17  1  0  0  0  0
 16 13  1  0  0  0  0
 17 21  2  0  0  0  0
 17 24  1  0  0  0  0
 19 12  2  0  0  0  0
 20 12  1  0  0  0  0
 20 21  1  0  0  0  0
 21 16  1  0  0  0  0
 22 20  2  0  0  0  0
 23 10  2  0  0  0  0
 23 22  1  0  0  0  0
 24 13  2  0  0  0  0
 25 22  1  0  0  0  0
 25 15  1  0  0  0  0
 26 27  2  0  0  0  0
 27  8  1  0  0  0  0
 28 43  1  1  0  0  0
 29 30  1  0  0  0  0
 29 26  1  1  0  0  0
 29 32  1  0  0  0  0
 30 31  2  0  0  0  0
 31 28  1  0  0  0  0
 32 28  1  0  0  0  0
 33 35  1  0  0  0  0
 35 36  1  0  0  0  0
 36 34  1  6  0  0  0
 36 29  1  0  0  0  0
 37 38  1  1  0  0  0
 37 33  1  0  0  0  0
 37 34  1  0  0  0  0
 38 39  2  0  0  0  0
 40 42  1  0  0  0  0
 41 42  2  0  0  0  0
 42 38  1  0  0  0  0
 43 45  1  0  0  0  0
 43 44  2  0  0  0  0
 45 46  1  0  0  0  0
 46 47  1  0  0  0  0
M  END
>  <MODEL>
3

>  <REMARK>
 VINA RESULT:      -9.0      3.258      7.598
  Name = 
  9 active torsions:
  status: ('A' for Active; 'I' for Inactive)
    1  A    between atoms: C_2  and  O_26
    2  A    between atoms: C_5  and  C_8
    3  A    between atoms: C_8  and  O_26
    4  A    between atoms: C_13  and  C_14
    5  A    between atoms: C_16  and  C_20
    6  A    between atoms: C_16  and  N_36
    7  A    between atoms: C_19  and  C_46
    8  A    between atoms: C_19  and  C_47
    9  A    between atoms: C_27  and  C_42
                            x       y       z     vdW  Elec       q    Type
                         _______ _______ _______ _____ _____    ______ ____

>  <TORSDO>
F 9

$$$$
=
 OpenBabel11062417303D

 47 53  0  0  1  0  0  0  0  0999 V2000
  189.5900  177.3570  138.3630 C   0  0  0  0  0  3  0  0  0  0  0  0
  187.5980  178.4810  137.3380 C   0  0  0  0  0  0  0  0  0  0  0  0
  189.0000  178.3750  137.5630 N   0  0  0  0  0  0  0  0  0  0  0  0
  188.1480  177.7120  140.3130 C   0  0  0  0  0  0  0  0  0  0  0  0
  187.0300  178.2530  139.7660 C   0  0  0  0  0  0  0  0  0  0  0  0
  187.1890  178.8220  136.0140 N   0  0  0  0  0  1  0  0  0  0  0  0
  189.1730  177.0630  139.5500 N   0  0  0  0  0  2  0  0  0  0  0  0
  186.6860  178.2790  138.3170 C   0  0  0  0  0  0  0  0  0  0  0  0
  186.0630  178.7850  140.6180 O   0  0  0  0  0  1  0  0  0  0  0  0
  191.4920  176.5970  147.2570 C   0  0  0  0  0  0  0  0  0  0  0  0
  192.3050  176.3080  148.4660 C   0  0  0  0  0  1  0  0  0  0  0  0
  191.3440  176.7540  144.8890 C   0  0  0  0  0  3  0  0  0  0  0  0
  188.3400  177.6680  141.7850 C   0  0  0  0  0  0  0  0  0  0  0  0
  186.1770  178.9650  145.3590 C   0  0  0  0  0  2  0  0  0  0  0  0
  187.1850  177.8560  145.1890 C   0  0  0  0  0  0  0  0  0  0  0  0
  189.5230  177.3340  142.4500 C   0  0  0  0  0  3  0  0  0  0  0  0
  187.8640  177.7240  143.8650 C   0  0  0  0  0  0  0  0  0  0  0  0
  185.7230  177.5030  145.3080 C   0  0  0  0  0  2  0  0  0  0  0  0
  192.0560  176.5040  146.0210 N   0  0  0  0  0  0  0  0  0  0  0  0
  189.9970  177.1170  144.9780 C   0  0  0  0  0  0  0  0  0  0  0  0
  189.1810  177.3860  143.7830 C   0  0  0  0  0  0  0  0  0  0  0  0
  189.3910  177.2190  146.2490 C   0  0  0  0  0  0  0  0  0  0  0  0
  190.1480  176.9570  147.3920 C   0  0  0  0  0  3  0  0  0  0  0  0
  187.3220  177.8950  142.6490 N   0  0  0  0  0  2  0  0  0  0  0  0
  188.0010  177.5820  146.3730 N   0  0  0  0  0  2  0  0  0  0  0  0
  184.4560  177.1360  138.0590 C   0  0  0  0  0  3  0  0  0  0  0  0
  185.2230  178.2260  138.0530 C   0  0  0  0  0  3  0  0  0  0  0  0
  181.5320  177.8680  139.4230 C   0  0  1  0  0  3  0  0  0  0  0  0
  182.9690  177.1730  137.8020 C   0  0  2  0  0  0  0  0  0  0  0  0
  182.5320  178.5780  137.5160 C   0  0  0  0  0  3  0  0  0  0  0  0
  181.7140  178.9770  138.4580 C   0  0  0  0  0  3  0  0  0  0  0  0
  182.3310  176.7800  139.0030 O   0  0  0  0  0  0  0  0  0  0  0  0
  183.6120  174.7960  135.2290 C   0  0  0  0  0  2  0  0  0  0  0  0
  182.3450  174.8780  137.2300 C   0  0  0  0  0  2  0  0  0  0  0  0
  183.6680  176.1310  135.8060 N   0  0  0  0  0  2  0  0  0  0  0  0
  182.5970  176.2290  136.7210 N   0  0  2  0  0  0  0  0  0  0  0  0
  182.9370  173.9100  136.2420 C   0  0  2  0  0  3  0  0  0  0  0  0
  183.9280  173.0140  136.9200 C   0  0  0  0  0  0  0  0  0  0  0  0
  184.5990  173.4420  137.9010 O   0  0  0  0  0  0  0  0  0  0  0  0
  185.2180  171.2830  135.5210 C   0  0  0  0  0  1  0  0  0  0  0  0
  183.3280  170.7210  136.8430 O   0  0  0  0  0  0  0  0  0  0  0  0
  184.1100  171.6300  136.4540 C   0  0  0  0  0  0  0  0  0  0  0  0
  181.9190  178.2890  140.8040 C   0  0  0  0  0  0  0  0  0  0  0  0
  183.1260  178.2310  141.1710 O   0  0  0  0  0  0  0  0  0  0  0  0
  180.9270  178.7370  141.6800 O   0  0  0  0  0  0  0  0  0  0  0  0
  181.2050  179.1080  143.0250 C   0  0  0  0  0  2  0  0  0  0  0  0
  180.2120  178.4560  143.9690 C   0  0  0  0  0  1  0  0  0  0  0  0
  1  7  1  0  0  0  0
  2  3  1  0  0  0  0
  2  8  2  0  0  0  0
  3  1  2  0  0  0  0
  4 13  1  0  0  0  0
  5  4  2  0  0  0  0
  5  9  1  0  0  0  0
  6  2  1  0  0  0  0
  7  4  1  0  0  0  0
  8  5  1  0  0  0  0
 10 23  1  0  0  0  0
 10 11  1  0  0  0  0
 12 20  2  0  0  0  0
 12 19  1  0  0  0  0
 13 16  2  0  0  0  0
 13 24  1  0  0  0  0
 15 18  1  0  0  0  0
 15 14  1  0  0  0  0
 15 25  1  0  0  0  0
 16 21  1  0  0  0  0
 17 15  1  0  0  0  0
 18 14  1  0  0  0  0
 19 10  2  0  0  0  0
 20 22  1  0  0  0  0
 21 17  2  0  0  0  0
 21 20  1  0  0  0  0
 22 25  1  0  0  0  0
 22 23  2  0  0  0  0
 24 17  1  0  0  0  0
 27 26  2  0  0  0  0
 27  8  1  0  0  0  0
 28 43  1  1  0  0  0
 29 26  1  1  0  0  0
 29 32  1  0  0  0  0
 30 29  1  0  0  0  0
 30 31  2  0  0  0  0
 31 28  1  0  0  0  0
 32 28  1  0  0  0  0
 33 35  1  0  0  0  0
 33 37  1  0  0  0  0
 35 36  1  0  0  0  0
 36 34  1  1  0  0  0
 36 29  1  0  0  0  0
 37 38  1  1  0  0  0
 37 34  1  0  0  0  0
 38 39  2  0  0  0  0
 40 42  1  0  0  0  0
 42 41  2  0  0  0  0
 42 38  1  0  0  0  0
 43 44  2  0  0  0  0
 43 45  1  0  0  0  0
 45 46  1  0  0  0  0
 46 47  1  0  0  0  0
M  END
>  <MODEL>
4

>  <REMARK>
 VINA RESULT:      -8.8      3.599      7.361
  Name = 
  9 active torsions:
  status: ('A' for Active; 'I' for Inactive)
    1  A    between atoms: C_2  and  O_26
    2  A    between atoms: C_5  and  C_8
    3  A    between atoms: C_8  and  O_26
    4  A    between atoms: C_13  and  C_14
    5  A    between atoms: C_16  and  C_20
    6  A    between atoms: C_16  and  N_36
    7  A    between atoms: C_19  and  C_46
    8  A    between atoms: C_19  and  C_47
    9  A    between atoms: C_27  and  C_42
                            x       y       z     vdW  Elec       q    Type
                         _______ _______ _______ _____ _____    ______ ____

>  <TORSDO>
F 9

$$$$
=
 OpenBabel11062417303D

 47 53  0  0  1  0  0  0  0  0999 V2000
  189.7150  177.3290  138.4530 C   0  0  0  0  0  3  0  0  0  0  0  0
  187.7340  178.4800  137.4350 C   0  0  0  0  0  0  0  0  0  0  0  0
  189.1350  178.3560  137.6570 N   0  0  0  0  0  0  0  0  0  0  0  0
  188.2810  177.6970  140.4080 C   0  0  0  0  0  0  0  0  0  0  0  0
  187.1680  178.2520  139.8640 C   0  0  0  0  0  0  0  0  0  0  0  0
  187.3260  178.8290  136.1130 N   0  0  0  0  0  1  0  0  0  0  0  0
  189.2970  177.0370  139.6410 N   0  0  0  0  0  2  0  0  0  0  0  0
  186.8220  178.2860  138.4160 C   0  0  0  0  0  0  0  0  0  0  0  0
  186.2090  178.7940  140.7200 O   0  0  0  0  0  1  0  0  0  0  0  0
  191.6180  176.5010  147.3410 C   0  0  0  0  0  0  0  0  0  0  0  0
  192.4270  176.1920  148.5480 C   0  0  0  0  0  1  0  0  0  0  0  0
  191.4670  176.6640  144.9740 C   0  0  0  0  0  3  0  0  0  0  0  0
  188.4750  177.6470  141.8790 C   0  0  0  0  0  0  0  0  0  0  0  0
  186.3510  178.9860  145.4600 C   0  0  0  0  0  2  0  0  0  0  0  0
  187.3340  177.8560  145.2860 C   0  0  0  0  0  0  0  0  0  0  0  0
  189.6530  177.2860  142.5400 C   0  0  0  0  0  3  0  0  0  0  0  0
  188.0060  177.7110  143.9600 C   0  0  0  0  0  0  0  0  0  0  0  0
  185.8650  177.5350  145.4080 C   0  0  0  0  0  2  0  0  0  0  0  0
  192.1760  176.3960  146.1040 N   0  0  0  0  0  0  0  0  0  0  0  0
  190.1290  177.0560  145.0670 C   0  0  0  0  0  0  0  0  0  0  0  0
  189.3160  177.3440  143.8740 C   0  0  0  0  0  0  0  0  0  0  0  0
  189.5280  177.1700  146.3390 C   0  0  0  0  0  0  0  0  0  0  0  0
  190.2820  176.8890  147.4810 C   0  0  0  0  0  3  0  0  0  0  0  0
  187.4650  177.8940  142.7450 N   0  0  0  0  0  2  0  0  0  0  0  0
  188.1470  177.5630  146.4680 N   0  0  0  0  0  2  0  0  0  0  0  0
  184.5550  177.1950  138.2830 C   0  0  0  0  0  3  0  0  0  0  0  0
  185.3570  178.2510  138.1550 C   0  0  0  0  0  3  0  0  0  0  0  0
  182.1070  175.8330  136.5230 C   0  0  1  0  0  3  0  0  0  0  0  0
  183.0700  177.2510  138.0190 C   0  0  2  0  0  0  0  0  0  0  0  0
  182.3760  176.1440  138.7530 C   0  0  0  0  0  3  0  0  0  0  0  0
  181.8330  175.3240  137.8870 C   0  0  0  0  0  3  0  0  0  0  0  0
  182.8850  177.0070  136.6360 O   0  0  0  0  0  0  0  0  0  0  0  0
  180.4910  179.5910  138.7600 C   0  0  0  0  0  2  0  0  0  0  0  0
  182.4750  178.8170  139.8010 C   0  0  0  0  0  2  0  0  0  0  0  0
  181.1990  178.6770  137.8770 N   0  0  0  0  0  2  0  0  0  0  0  0
  182.5250  178.5880  138.3540 N   0  0  2  0  0  0  0  0  0  0  0  0
  181.1850  179.5350  140.0950 C   0  0  2  0  0  3  0  0  0  0  0  0
  180.3750  178.7630  141.0920 C   0  0  0  0  0  0  0  0  0  0  0  0
  179.7780  177.7070  140.7400 O   0  0  0  0  0  0  0  0  0  0  0  0
  180.0190  178.2620  143.5900 C   0  0  0  0  0  1  0  0  0  0  0  0
  180.4420  180.4460  142.7610 O   0  0  0  0  0  0  0  0  0  0  0  0
  180.2870  179.2260  142.4860 C   0  0  0  0  0  0  0  0  0  0  0  0
  182.8290  174.8120  135.7050 C   0  0  0  0  0  0  0  0  0  0  0  0
  183.3600  175.1370  134.6060 O   0  0  0  0  0  0  0  0  0  0  0  0
  182.9000  173.4960  136.1690 O   0  0  0  0  0  0  0  0  0  0  0  0
  184.1180  172.7620  136.2100 C   0  0  0  0  0  2  0  0  0  0  0  0
  184.8320  172.9960  137.5270 C   0  0  0  0  0  1  0  0  0  0  0  0
  1  7  1  0  0  0  0
  2  3  1  0  0  0  0
  2  8  2  0  0  0  0
  3  1  2  0  0  0  0
  4 13  1  0  0  0  0
  5  4  2  0  0  0  0
  5  9  1  0  0  0  0
  6  2  1  0  0  0  0
  7  4  1  0  0  0  0
  8  5  1  0  0  0  0
 10 23  1  0  0  0  0
 10 11  1  0  0  0  0
 12 20  2  0  0  0  0
 12 19  1  0  0  0  0
 13 16  2  0  0  0  0
 13 24  1  0  0  0  0
 15 18  1  0  0  0  0
 15 14  1  0  0  0  0
 15 25  1  0  0  0  0
 16 21  1  0  0  0  0
 17 15  1  0  0  0  0
 18 14  1  0  0  0  0
 19 10  2  0  0  0  0
 20 22  1  0  0  0  0
 21 17  2  0  0  0  0
 21 20  1  0  0  0  0
 22 25  1  0  0  0  0
 22 23  2  0  0  0  0
 24 17  1  0  0  0  0
 27 26  2  0  0  0  0
 27  8  1  0  0  0  0
 28 43  1  6  0  0  0
 28 32  1  0  0  0  0
 28 31  1  0  0  0  0
 29 26  1  1  0  0  0
 29 36  1  0  0  0  0
 29 30  1  0  0  0  0
 31 30  2  0  0  0  0
 32 29  1  0  0  0  0
 33 37  1  0  0  0  0
 34 37  1  0  0  0  0
 35 36  1  0  0  0  0
 35 33  1  0  0  0  0
 36 34  1  1  0  0  0
 37 38  1  1  0  0  0
 38 42  1  0  0  0  0
 39 38  2  0  0  0  0
 42 41  2  0  0  0  0
 42 40  1  0  0  0  0
 43 45  1  0  0  0  0
 44 43  2  0  0  0  0
 45 46  1  0  0  0  0
 46 47  1  0  0  0  0
M  END
>  <MODEL>
5

>  <REMARK>
 VINA RESULT:      -8.6      3.585      8.398
  Name = 
  9 active torsions:
  status: ('A' for Active; 'I' for Inactive)
    1  A    between atoms: C_2  and  O_26
    2  A    between atoms: C_5  and  C_8
    3  A    between atoms: C_8  and  O_26
    4  A    between atoms: C_13  and  C_14
    5  A    between atoms: C_16  and  C_20
    6  A    between atoms: C_16  and  N_36
    7  A    between atoms: C_19  and  C_46
    8  A    between atoms: C_19  and  C_47
    9  A    between atoms: C_27  and  C_42
                            x       y       z     vdW  Elec       q    Type
                         _______ _______ _______ _____ _____    ______ ____

>  <TORSDO>
F 9

$$$$
=
 OpenBabel11062417303D

 47 53  0  0  1  0  0  0  0  0999 V2000
  181.7640  179.3460  143.9840 C   0  0  0  0  0  3  0  0  0  0  0  0
  180.6450  178.6120  141.8640 C   0  0  0  0  0  0  0  0  0  0  0  0
  180.7890  178.5840  143.2810 N   0  0  0  0  0  0  0  0  0  0  0  0
  183.6720  178.6100  142.6300 C   0  0  0  0  0  0  0  0  0  0  0  0
  183.0910  178.2790  141.4480 C   0  0  0  0  0  0  0  0  0  0  0  0
  179.3100  178.6220  141.3590 N   0  0  0  0  0  1  0  0  0  0  0  0
  183.0140  179.3680  143.6540 N   0  0  0  0  0  2  0  0  0  0  0  0
  181.7060  178.6220  141.0240 C   0  0  0  0  0  0  0  0  0  0  0  0
  183.8590  177.6110  140.4950 O   0  0  0  0  0  1  0  0  0  0  0  0
  190.2110  176.9660  146.5240 C   0  0  0  0  0  0  0  0  0  0  0  0
  191.3350  176.6760  147.4510 C   0  0  0  0  0  1  0  0  0  0  0  0
  187.8880  177.3440  146.1920 C   0  0  0  0  0  3  0  0  0  0  0  0
  185.0940  178.2880  142.9050 C   0  0  0  0  0  0  0  0  0  0  0  0
  188.6710  177.2560  140.6080 C   0  0  0  0  0  2  0  0  0  0  0  0
  188.5470  177.8990  141.9670 C   0  0  0  0  0  0  0  0  0  0  0  0
  185.6440  178.0030  144.1580 C   0  0  0  0  0  2  0  0  0  0  0  0
  187.1840  178.0150  142.5650 C   0  0  0  0  0  0  0  0  0  0  0  0
  188.9080  178.7590  140.7810 C   0  0  0  0  0  2  0  0  0  0  0  0
  188.9430  177.0740  147.0070 N   0  0  0  0  0  0  0  0  0  0  0  0
  188.0920  177.5200  144.8210 C   0  0  0  0  0  0  0  0  0  0  0  0
  186.9860  177.8270  143.9000 C   0  0  0  0  0  0  0  0  0  0  0  0
  189.3990  177.4140  144.2970 C   0  0  0  0  0  0  0  0  0  0  0  0
  190.4620  177.1350  145.1590 C   0  0  0  0  0  3  0  0  0  0  0  0
  186.0360  178.3080  141.9330 N   0  0  0  0  0  0  0  0  0  0  0  0
  189.6440  177.6000  142.8890 N   0  0  0  0  0  2  0  0  0  0  0  0
  180.6740  178.2260  138.7600 C   0  0  0  0  0  3  0  0  0  0  0  0
  181.5660  178.8160  139.5550 C   0  0  0  0  0  3  0  0  0  0  0  0
  182.2160  177.7720  135.8680 C   0  0  1  0  0  3  0  0  0  0  0  0
  180.5840  178.4970  137.2790 C   0  0  2  0  0  0  0  0  0  0  0  0
  180.1150  177.2690  136.5590 C   0  0  0  0  0  3  0  0  0  0  0  0
  181.0620  176.8490  135.7580 C   0  0  0  0  0  3  0  0  0  0  0  0
  181.8990  178.7630  136.8250 O   0  0  0  0  0  0  0  0  0  0  0  0
  179.0470  181.6140  138.0550 C   0  0  0  0  0  2  0  0  0  0  0  0
  180.4710  180.7620  136.3630 C   0  0  0  0  0  2  0  0  0  0  0  0
  179.2430  180.1840  138.2350 N   0  0  0  0  0  2  0  0  0  0  0  0
  179.7280  179.6780  137.0090 N   0  0  2  0  0  0  0  0  0  0  0  0
  180.0000  182.0540  136.9760 C   0  0  2  0  0  3  0  0  0  0  0  0
  181.1590  182.8090  137.5550 C   0  0  0  0  0  0  0  0  0  0  0  0
  181.8730  182.2800  138.4510 O   0  0  0  0  0  0  0  0  0  0  0  0
  180.8120  184.7000  135.8470 C   0  0  0  0  0  1  0  0  0  0  0  0
  182.3080  184.8780  137.6800 O   0  0  0  0  0  0  0  0  0  0  0  0
  181.4740  184.1610  137.0670 C   0  0  0  0  0  0  0  0  0  0  0  0
  183.4520  177.0380  136.2760 C   0  0  0  0  0  0  0  0  0  0  0  0
  183.6940  175.8900  135.8070 O   0  0  0  0  0  0  0  0  0  0  0  0
  184.3270  177.6350  137.1870 O   0  0  0  0  0  0  0  0  0  0  0  0
  185.6170  177.1050  137.4690 C   0  0  0  0  0  2  0  0  0  0  0  0
  186.6910  178.1220  137.1340 C   0  0  0  0  0  1  0  0  0  0  0  0
  2  3  1  0  0  0  0
  3  1  2  0  0  0  0
  4 13  1  0  0  0  0
  4  7  1  0  0  0  0
  5  4  2  0  0  0  0
  6  2  1  0  0  0  0
  7  1  1  0  0  0  0
  8  5  1  0  0  0  0
  8  2  2  0  0  0  0
  9  5  1  0  0  0  0
 10 19  1  0  0  0  0
 10 11  1  0  0  0  0
 12 19  2  0  0  0  0
 13 16  1  0  0  0  0
 14 18  1  0  0  0  0
 14 15  1  0  0  0  0
 15 17  1  0  0  0  0
 15 25  1  0  0  0  0
 17 21  2  0  0  0  0
 18 15  1  0  0  0  0
 20 12  1  0  0  0  0
 21 16  1  0  0  0  0
 21 20  1  0  0  0  0
 22 20  2  0  0  0  0
 22 23  1  0  0  0  0
 23 10  2  0  0  0  0
 24 17  1  0  0  0  0
 24 13  2  0  0  0  0
 25 22  1  0  0  0  0
 26 27  2  0  0  0  0
 27  8  1  0  0  0  0
 28 43  1  1  0  0  0
 28 32  1  0  0  0  0
 29 26  1  1  0  0  0
 30 29  1  0  0  0  0
 31 28  1  0  0  0  0
 31 30  2  0  0  0  0
 32 29  1  0  0  0  0
 33 35  1  0  0  0  0
 34 37  1  0  0  0  0
 36 34  1  1  0  0  0
 36 29  1  0  0  0  0
 36 35  1  0  0  0  0
 37 38  1  1  0  0  0
 37 33  1  0  0  0  0
 38 39  2  0  0  0  0
 40 42  1  0  0  0  0
 42 38  1  0  0  0  0
 42 41  2  0  0  0  0
 43 45  1  0  0  0  0
 44 43  2  0  0  0  0
 45 46  1  0  0  0  0
 47 46  1  0  0  0  0
M  END
>  <MODEL>
6

>  <REMARK>
 VINA RESULT:      -8.5      4.169      9.498
  Name = 
  9 active torsions:
  status: ('A' for Active; 'I' for Inactive)
    1  A    between atoms: C_2  and  O_26
    2  A    between atoms: C_5  and  C_8
    3  A    between atoms: C_8  and  O_26
    4  A    between atoms: C_13  and  C_14
    5  A    between atoms: C_16  and  C_20
    6  A    between atoms: C_16  and  N_36
    7  A    between atoms: C_19  and  C_46
    8  A    between atoms: C_19  and  C_47
    9  A    between atoms: C_27  and  C_42
                            x       y       z     vdW  Elec       q    Type
                         _______ _______ _______ _____ _____    ______ ____

>  <TORSDO>
F 9

$$$$
=
 OpenBabel11062417303D

 47 53  0  0  1  0  0  0  0  0999 V2000
  190.2680  176.1780  142.5900 C   0  0  0  0  0  3  0  0  0  0  0  0
  190.8780  177.1660  140.3680 C   0  0  0  0  0  0  0  0  0  0  0  0
  191.1110  176.9680  141.7600 N   0  0  0  0  0  0  0  0  0  0  0  0
  188.1770  177.2780  141.9320 C   0  0  0  0  0  0  0  0  0  0  0  0
  188.4660  177.7550  140.6940 C   0  0  0  0  0  0  0  0  0  0  0  0
  192.0240  177.1350  139.5190 N   0  0  0  0  0  1  0  0  0  0  0  0
  188.9830  176.3100  142.6180 N   0  0  0  0  0  2  0  0  0  0  0  0
  189.6410  177.3800  139.8610 C   0  0  0  0  0  0  0  0  0  0  0  0
  187.5630  178.6320  140.0930 O   0  0  0  0  0  1  0  0  0  0  0  0
  180.7780  179.3910  143.1230 C   0  0  0  0  0  0  0  0  0  0  0  0
  179.3490  179.7970  143.1270 C   0  0  0  0  0  1  0  0  0  0  0  0
  182.6850  178.6580  141.9070 C   0  0  0  0  0  3  0  0  0  0  0  0
  186.9250  177.6600  142.6310 C   0  0  0  0  0  0  0  0  0  0  0  0
  185.4640  177.8590  146.7490 C   0  0  0  0  0  2  0  0  0  0  0  0
  185.0250  178.6310  145.5300 C   0  0  0  0  0  0  0  0  0  0  0  0
  185.6830  177.8840  142.0300 C   0  0  0  0  0  3  0  0  0  0  0  0
  185.6220  178.2570  144.2130 C   0  0  0  0  0  0  0  0  0  0  0  0
  185.8840  179.3200  146.5610 C   0  0  0  0  0  2  0  0  0  0  0  0
  181.3770  179.0300  141.9550 N   0  0  0  0  0  0  0  0  0  0  0  0
  183.4490  178.6410  143.0770 C   0  0  0  0  0  0  0  0  0  0  0  0
  184.8700  178.2590  143.0760 C   0  0  0  0  0  0  0  0  0  0  0  0
  182.8490  179.0130  144.3000 C   0  0  0  0  0  0  0  0  0  0  0  0
  181.5040  179.3890  144.3170 C   0  0  0  0  0  3  0  0  0  0  0  0
  186.8920  177.9010  143.9630 N   0  0  0  0  0  2  0  0  0  0  0  0
  183.6120  179.0150  145.5230 N   0  0  0  0  0  2  0  0  0  0  0  0
  188.7570  176.4850  137.6780 C   0  0  0  0  0  3  0  0  0  0  0  0
  189.3700  177.4240  138.3980 C   0  0  0  0  0  3  0  0  0  0  0  0
  186.3790  176.8440  135.4060 C   0  0  1  0  0  3  0  0  0  0  0  0
  188.5010  176.6180  136.1980 C   0  0  2  0  0  0  0  0  0  0  0  0
  188.2460  178.0530  135.8470 C   0  0  0  0  0  3  0  0  0  0  0  0
  187.0210  178.1790  135.4030 C   0  0  0  0  0  3  0  0  0  0  0  0
  187.3070  175.9090  135.9170 O   0  0  0  0  0  0  0  0  0  0  0  0
  191.2510  174.4240  135.6460 C   0  0  0  0  0  2  0  0  0  0  0  0
  189.1740  174.8900  134.6030 C   0  0  0  0  0  2  0  0  0  0  0  0
  190.5970  175.5440  136.3050 N   0  0  0  0  0  2  0  0  0  0  0  0
  189.6130  176.0280  135.4150 N   0  0  2  0  0  0  0  0  0  0  0  0
  190.2560  173.8460  134.6760 C   0  0  2  0  0  3  0  0  0  0  0  0
  189.6970  172.5510  135.1840 C   0  0  0  0  0  0  0  0  0  0  0  0
  190.2510  171.4590  134.8770 O   0  0  0  0  0  0  0  0  0  0  0  0
  187.1650  172.2310  135.5030 C   0  0  0  0  0  1  0  0  0  0  0  0
  188.6220  172.8250  137.2800 O   0  0  0  0  0  0  0  0  0  0  0  0
  188.5100  172.5530  136.0550 C   0  0  0  0  0  0  0  0  0  0  0  0
  185.1380  176.8470  136.2380 C   0  0  0  0  0  0  0  0  0  0  0  0
  184.3000  175.9080  136.1320 O   0  0  0  0  0  0  0  0  0  0  0  0
  184.9160  177.9050  137.1220 O   0  0  0  0  0  0  0  0  0  0  0  0
  184.2090  177.7440  138.3460 C   0  0  0  0  0  2  0  0  0  0  0  0
  182.9810  178.6340  138.3690 C   0  0  0  0  0  1  0  0  0  0  0  0
  1  7  1  0  0  0  0
  2  3  1  0  0  0  0
  3  1  2  0  0  0  0
  4  7  1  0  0  0  0
  4 13  1  0  0  0  0
  5  4  2  0  0  0  0
  6  2  1  0  0  0  0
  8  2  2  0  0  0  0
  8  5  1  0  0  0  0
  9  5  1  0  0  0  0
 10 11  1  0  0  0  0
 10 23  1  0  0  0  0
 12 19  1  0  0  0  0
 12 20  2  0  0  0  0
 13 24  1  0  0  0  0
 15 18  1  0  0  0  0
 15 14  1  0  0  0  0
 16 13  2  0  0  0  0
 16 21  1  0  0  0  0
 17 15  1  0  0  0  0
 18 14  1  0  0  0  0
 19 10  2  0  0  0  0
 20 22  1  0  0  0  0
 21 20  1  0  0  0  0
 21 17  2  0  0  0  0
 22 23  2  0  0  0  0
 22 25  1  0  0  0  0
 24 17  1  0  0  0  0
 25 15  1  0  0  0  0
 26 27  2  0  0  0  0
 27  8  1  0  0  0  0
 28 32  1  0  0  0  0
 28 43  1  1  0  0  0
 29 26  1  1  0  0  0
 30 29  1  0  0  0  0
 31 28  1  0  0  0  0
 31 30  2  0  0  0  0
 32 29  1  0  0  0  0
 33 35  1  0  0  0  0
 34 37  1  0  0  0  0
 36 34  1  1  0  0  0
 36 29  1  0  0  0  0
 36 35  1  0  0  0  0
 37 38  1  1  0  0  0
 37 33  1  0  0  0  0
 38 42  1  0  0  0  0
 39 38  2  0  0  0  0
 40 42  1  0  0  0  0
 42 41  2  0  0  0  0
 43 45  1  0  0  0  0
 44 43  2  0  0  0  0
 45 46  1  0  0  0  0
 46 47  1  0  0  0  0
M  END
>  <MODEL>
7

>  <REMARK>
 VINA RESULT:      -8.4      2.086      2.678
  Name = 
  9 active torsions:
  status: ('A' for Active; 'I' for Inactive)
    1  A    between atoms: C_2  and  O_26
    2  A    between atoms: C_5  and  C_8
    3  A    between atoms: C_8  and  O_26
    4  A    between atoms: C_13  and  C_14
    5  A    between atoms: C_16  and  C_20
    6  A    between atoms: C_16  and  N_36
    7  A    between atoms: C_19  and  C_46
    8  A    between atoms: C_19  and  C_47
    9  A    between atoms: C_27  and  C_42
                            x       y       z     vdW  Elec       q    Type
                         _______ _______ _______ _____ _____    ______ ____

>  <TORSDO>
F 9

$$$$
=
 OpenBabel11062417303D

 47 53  0  0  1  0  0  0  0  0999 V2000
  182.2040  179.4110  144.5390 C   0  0  0  0  0  3  0  0  0  0  0  0
  180.8880  178.6530  142.5460 C   0  0  0  0  0  0  0  0  0  0  0  0
  181.1510  178.6620  143.9450 N   0  0  0  0  0  0  0  0  0  0  0  0
  183.9670  178.5750  143.0540 C   0  0  0  0  0  0  0  0  0  0  0  0
  183.2790  178.2290  141.9360 C   0  0  0  0  0  0  0  0  0  0  0  0
  179.5150  178.6930  142.1550 N   0  0  0  0  0  1  0  0  0  0  0  0
  183.4220  179.3820  144.1050 N   0  0  0  0  0  2  0  0  0  0  0  0
  181.8740  178.6040  141.6190 C   0  0  0  0  0  0  0  0  0  0  0  0
  183.9430  177.5080  140.9430 O   0  0  0  0  0  1  0  0  0  0  0  0
  190.7330  176.7120  146.4300 C   0  0  0  0  0  0  0  0  0  0  0  0
  191.9140  176.3810  147.2670 C   0  0  0  0  0  1  0  0  0  0  0  0
  188.4010  177.1510  146.2760 C   0  0  0  0  0  3  0  0  0  0  0  0
  185.3980  178.2140  143.2190 C   0  0  0  0  0  0  0  0  0  0  0  0
  188.7680  177.1340  140.6490 C   0  0  0  0  0  2  0  0  0  0  0  0
  188.7610  177.7580  142.0220 C   0  0  0  0  0  0  0  0  0  0  0  0
  186.0310  177.8960  144.4230 C   0  0  0  0  0  2  0  0  0  0  0  0
  187.4490  177.8970  142.7210 C   0  0  0  0  0  0  0  0  0  0  0  0
  189.0560  178.6280  140.8250 C   0  0  0  0  0  2  0  0  0  0  0  0
  189.5070  176.8430  147.0070 N   0  0  0  0  0  0  0  0  0  0  0  0
  188.5080  177.3440  144.8960 C   0  0  0  0  0  0  0  0  0  0  0  0
  187.3450  177.6920  144.0640 C   0  0  0  0  0  0  0  0  0  0  0  0
  189.7700  177.2150  144.2760 C   0  0  0  0  0  0  0  0  0  0  0  0
  190.8860  176.8970  145.0530 C   0  0  0  0  0  3  0  0  0  0  0  0
  186.2660  178.2270  142.1800 N   0  0  0  0  0  0  0  0  0  0  0  0
  189.9150  177.4170  142.8560 N   0  0  0  0  0  2  0  0  0  0  0  0
  180.9090  177.9350  139.3900 C   0  0  0  0  0  3  0  0  0  0  0  0
  181.6150  178.7610  140.1620 C   0  0  0  0  0  3  0  0  0  0  0  0
  179.7210  180.1190  137.2080 C   0  0  1  0  0  3  0  0  0  0  0  0
  180.6740  178.1800  137.9200 C   0  0  2  0  0  0  0  0  0  0  0  0
  181.7340  179.0890  137.3750 C   0  0  0  0  0  3  0  0  0  0  0  0
  181.1820  180.2080  136.9780 C   0  0  0  0  0  3  0  0  0  0  0  0
  179.4420  178.8690  137.8060 O   0  0  0  0  0  0  0  0  0  0  0  0
  181.8630  175.6140  135.7550 C   0  0  0  0  0  2  0  0  0  0  0  0
  181.0560  175.7640  137.9780 C   0  0  0  0  0  2  0  0  0  0  0  0
  181.4130  176.9690  136.0370 N   0  0  0  0  0  2  0  0  0  0  0  0
  180.5860  176.8980  137.1790 N   0  0  2  0  0  0  0  0  0  0  0  0
  181.8400  174.8650  137.0610 C   0  0  2  0  0  3  0  0  0  0  0  0
  183.2280  174.6630  137.5900 C   0  0  0  0  0  0  0  0  0  0  0  0
  183.8060  175.5930  138.2190 O   0  0  0  0  0  0  0  0  0  0  0  0
  183.1740  172.2010  136.8460 C   0  0  0  0  0  1  0  0  0  0  0  0
  185.1320  173.2530  137.6790 O   0  0  0  0  0  0  0  0  0  0  0  0
  183.9110  173.3750  137.3920 C   0  0  0  0  0  0  0  0  0  0  0  0
  179.2490  181.2290  138.0900 C   0  0  0  0  0  0  0  0  0  0  0  0
  179.0240  181.0160  139.3150 O   0  0  0  0  0  0  0  0  0  0  0  0
  179.0530  182.4980  137.5390 O   0  0  0  0  0  0  0  0  0  0  0  0
  179.7850  183.6400  137.9680 C   0  0  0  0  0  2  0  0  0  0  0  0
  180.8660  183.9840  136.9610 C   0  0  0  0  0  1  0  0  0  0  0  0
  2  3  1  0  0  0  0
  3  1  2  0  0  0  0
  4 13  1  0  0  0  0
  4  7  1  0  0  0  0
  5  4  2  0  0  0  0
  6  2  1  0  0  0  0
  7  1  1  0  0  0  0
  8  5  1  0  0  0  0
  8  2  2  0  0  0  0
  9  5  1  0  0  0  0
 10 19  1  0  0  0  0
 10 11  1  0  0  0  0
 12 19  2  0  0  0  0
 13 16  1  0  0  0  0
 14 18  1  0  0  0  0
 14 15  1  0  0  0  0
 15 17  1  0  0  0  0
 15 25  1  0  0  0  0
 17 21  2  0  0  0  0
 18 15  1  0  0  0  0
 20 12  1  0  0  0  0
 21 16  1  0  0  0  0
 21 20  1  0  0  0  0
 22 20  2  0  0  0  0
 22 23  1  0  0  0  0
 23 10  2  0  0  0  0
 24 17  1  0  0  0  0
 24 13  2  0  0  0  0
 25 22  1  0  0  0  0
 26 27  2  0  0  0  0
 27  8  1  0  0  0  0
 28 32  1  0  0  0  0
 28 43  1  1  0  0  0
 29 26  1  1  0  0  0
 30 29  1  0  0  0  0
 31 28  1  0  0  0  0
 31 30  2  0  0  0  0
 32 29  1  0  0  0  0
 33 35  1  0  0  0  0
 33 37  1  0  0  0  0
 35 36  1  0  0  0  0
 36 29  1  0  0  0  0
 36 34  1  1  0  0  0
 37 38  1  1  0  0  0
 37 34  1  0  0  0  0
 38 39  2  0  0  0  0
 40 42  1  0  0  0  0
 42 38  1  0  0  0  0
 42 41  2  0  0  0  0
 43 44  2  0  0  0  0
 45 46  1  0  0  0  0
 45 43  1  0  0  0  0
 47 46  1  0  0  0  0
M  END
>  <MODEL>
8

>  <REMARK>
 VINA RESULT:      -8.1      4.240      8.726
  Name = 
  9 active torsions:
  status: ('A' for Active; 'I' for Inactive)
    1  A    between atoms: C_2  and  O_26
    2  A    between atoms: C_5  and  C_8
    3  A    between atoms: C_8  and  O_26
    4  A    between atoms: C_13  and  C_14
    5  A    between atoms: C_16  and  C_20
    6  A    between atoms: C_16  and  N_36
    7  A    between atoms: C_19  and  C_46
    8  A    between atoms: C_19  and  C_47
    9  A    between atoms: C_27  and  C_42
                            x       y       z     vdW  Elec       q    Type
                         _______ _______ _______ _____ _____    ______ ____

>  <TORSDO>
F 9

$$$$
=
 OpenBabel11062417303D

 47 53  0  0  1  0  0  0  0  0999 V2000
  184.0250  180.0200  144.3690 C   0  0  0  0  0  3  0  0  0  0  0  0
  182.0280  178.9430  143.3030 C   0  0  0  0  0  0  0  0  0  0  0  0
  182.8550  179.2140  144.4310 N   0  0  0  0  0  2  0  0  0  0  0  0
  185.0370  178.8350  142.4750 C   0  0  0  0  0  0  0  0  0  0  0  0
  183.9590  178.3060  141.8410 C   0  0  0  0  0  0  0  0  0  0  0  0
  180.6180  178.9640  143.5250 N   0  0  0  0  0  1  0  0  0  0  0  0
  184.9480  179.8550  143.4790 N   0  0  0  0  0  0  0  0  0  0  0  0
  182.5350  178.6720  142.0780 C   0  0  0  0  0  0  0  0  0  0  0  0
  184.1760  177.3780  140.8230 O   0  0  0  0  0  1  0  0  0  0  0  0
  191.1440  176.7710  138.1070 C   0  0  0  0  0  0  0  0  0  0  0  0
  192.1660  176.3790  137.1030 C   0  0  0  0  0  1  0  0  0  0  0  0
  188.9350  177.5060  138.5880 C   0  0  0  0  0  3  0  0  0  0  0  0
  186.4190  178.4530  142.0910 C   0  0  0  0  0  0  0  0  0  0  0  0
  190.3450  178.2020  144.0040 C   0  0  0  0  0  2  0  0  0  0  0  0
  189.8010  177.4540  142.8120 C   0  0  0  0  0  0  0  0  0  0  0  0
  186.8840  178.2500  140.7880 C   0  0  0  0  0  3  0  0  0  0  0  0
  188.4540  177.8430  142.2970 C   0  0  0  0  0  0  0  0  0  0  0  0
  189.9070  176.7410  144.1370 C   0  0  0  0  0  2  0  0  0  0  0  0
  189.9000  177.1450  137.7000 N   0  0  0  0  0  0  0  0  0  0  0  0
  189.2090  177.4970  139.9580 C   0  0  0  0  0  0  0  0  0  0  0  0
  188.1950  177.8660  140.9590 C   0  0  0  0  0  0  0  0  0  0  0  0
  190.4920  177.1120  140.4040 C   0  0  0  0  0  0  0  0  0  0  0  0
  191.4620  176.7480  139.4680 C   0  0  0  0  0  3  0  0  0  0  0  0
  187.3740  178.1920  143.0140 N   0  0  0  0  0  2  0  0  0  0  0  0
  190.8030  177.0830  141.8120 N   0  0  0  0  0  2  0  0  0  0  0  0
  181.5510  179.4560  139.8950 C   0  0  0  0  0  3  0  0  0  0  0  0
  181.6820  178.5510  140.8650 C   0  0  0  0  0  3  0  0  0  0  0  0
  181.4150  177.9920  136.9310 C   0  0  1  0  0  3  0  0  0  0  0  0
  180.6790  179.2450  138.6830 C   0  0  2  0  0  0  0  0  0  0  0  0
  180.0460  177.8870  138.7360 C   0  0  0  0  0  3  0  0  0  0  0  0
  180.4820  177.1670  137.7330 C   0  0  0  0  0  3  0  0  0  0  0  0
  181.5300  179.2570  137.5510 O   0  0  0  0  0  0  0  0  0  0  0  0
  179.5840  182.6330  138.6730 C   0  0  0  0  0  2  0  0  0  0  0  0
  179.5480  180.8000  137.1710 C   0  0  0  0  0  2  0  0  0  0  0  0
  180.1070  181.4410  139.3220 N   0  0  0  0  0  2  0  0  0  0  0  0
  179.6810  180.3350  138.5530 N   0  0  2  0  0  0  0  0  0  0  0  0
  179.4130  182.2990  137.2150 C   0  0  2  0  0  3  0  0  0  0  0  0
  180.4820  182.9430  136.3850 C   0  0  0  0  0  0  0  0  0  0  0  0
  180.8740  182.3900  135.3200 O   0  0  0  0  0  0  0  0  0  0  0  0
  180.3350  185.5040  136.5640 C   0  0  0  0  0  1  0  0  0  0  0  0
  182.1890  184.2610  137.3710 O   0  0  0  0  0  0  0  0  0  0  0  0
  181.0640  184.2280  136.8030 C   0  0  0  0  0  0  0  0  0  0  0  0
  182.7570  177.3420  136.8330 C   0  0  0  0  0  0  0  0  0  0  0  0
  182.8680  176.1880  136.3300 O   0  0  0  0  0  0  0  0  0  0  0  0
  183.8780  178.0230  137.3120 O   0  0  0  0  0  0  0  0  0  0  0  0
  185.1230  177.3760  137.5500 C   0  0  0  0  0  2  0  0  0  0  0  0
  186.0130  177.4720  136.3260 C   0  0  0  0  0  1  0  0  0  0  0  0
  1  3  1  0  0  0  0
  2  6  1  0  0  0  0
  2  3  1  0  0  0  0
  4  7  1  0  0  0  0
  5  8  1  0  0  0  0
  5  4  2  0  0  0  0
  7  1  2  0  0  0  0
  8  2  2  0  0  0  0
  9  5  1  0  0  0  0
 10 23  1  0  0  0  0
 11 10  1  0  0  0  0
 12 20  2  0  0  0  0
 13  4  1  0  0  0  0
 13 24  1  0  0  0  0
 14 18  1  0  0  0  0
 15 14  1  0  0  0  0
 15 18  1  0  0  0  0
 16 21  1  0  0  0  0
 16 13  2  0  0  0  0
 17 15  1  0  0  0  0
 17 24  1  0  0  0  0
 19 10  2  0  0  0  0
 19 12  1  0  0  0  0
 20 22  1  0  0  0  0
 20 21  1  0  0  0  0
 21 17  2  0  0  0  0
 22 25  1  0  0  0  0
 23 22  2  0  0  0  0
 25 15  1  0  0  0  0
 26 27  2  0  0  0  0
 27  8  1  0  0  0  0
 28 43  1  1  0  0  0
 28 32  1  0  0  0  0
 28 31  1  0  0  0  0
 29 30  1  0  0  0  0
 29 26  1  1  0  0  0
 31 30  2  0  0  0  0
 32 29  1  0  0  0  0
 33 35  1  0  0  0  0
 34 37  1  0  0  0  0
 36 34  1  6  0  0  0
 36 29  1  0  0  0  0
 36 35  1  0  0  0  0
 37 38  1  6  0  0  0
 37 33  1  0  0  0  0
 38 42  1  0  0  0  0
 39 38  2  0  0  0  0
 40 42  1  0  0  0  0
 42 41  2  0  0  0  0
 43 45  1  0  0  0  0
 44 43  2  0  0  0  0
 45 46  1  0  0  0  0
 47 46  1  0  0  0  0
M  END
>  <MODEL>
9

>  <REMARK>
 VINA RESULT:      -8.0      3.475      9.702
  Name = 
  9 active torsions:
  status: ('A' for Active; 'I' for Inactive)
    1  A    between atoms: C_2  and  O_26
    2  A    between atoms: C_5  and  C_8
    3  A    between atoms: C_8  and  O_26
    4  A    between atoms: C_13  and  C_14
    5  A    between atoms: C_16  and  C_20
    6  A    between atoms: C_16  and  N_36
    7  A    between atoms: C_19  and  C_46
    8  A    between atoms: C_19  and  C_47
    9  A    between atoms: C_27  and  C_42
                            x       y       z     vdW  Elec       q    Type
                         _______ _______ _______ _____ _____    ______ ____

>  <TORSDO>
F 9

$$$$
