=
 OpenBabel11062416013D

 36 40  0  0  1  0  0  0  0  0999 V2000
  184.1930  179.9360  139.0200 N   0  0  0  0  0  2  0  0  0  0  0  0
  184.7620  179.6210  140.2630 N   0  0  0  0  0  2  0  0  0  0  0  0
  182.7670  179.6750  139.1400 C   0  0  2  0  0  3  0  0  0  0  0  0
  182.5530  178.1570  140.1010 S   0  0  0  0  0  0  0  0  0  0  0  0
  184.2840  178.2960  140.6170 C   0  0  2  0  0  3  0  0  0  0  0  0
  180.8280  180.7690  136.0870 C   0  0  2  0  0  3  0  0  0  0  0  0
  180.4220  182.1950  136.2020 C   0  0  0  0  0  0  0  0  0  0  0  0
  179.7170  184.8340  136.7520 C   0  0  0  0  0  0  0  0  0  0  0  0
  182.1850  179.5070  137.8130 N   0  0  1  0  0  0  0  0  0  0  0  0
  180.8570  181.6380  138.4950 C   0  0  0  0  0  2  0  0  0  0  0  0
  179.7350  180.0100  135.6600 O   0  0  0  0  0  1  0  0  0  0  0  0
  180.4330  182.6650  137.5100 C   0  0  0  0  0  0  0  0  0  0  0  0
  179.7070  184.3620  135.4290 C   0  0  0  0  0  3  0  0  0  0  0  0
  180.0840  183.9830  137.8050 C   0  0  0  0  0  3  0  0  0  0  0  0
  180.8310  179.2380  138.0040 O   0  0  0  0  0  0  0  0  0  0  0  0
  179.3650  186.1500  137.0190 O   0  0  0  0  0  1  0  0  0  0  0  0
  181.1410  180.4740  137.5470 C   0  0  1  0  0  0  0  0  0  0  0  0
  180.0610  183.0350  135.1460 C   0  0  0  0  0  3  0  0  0  0  0  0
  184.4010  178.0970  142.1180 C   0  0  0  0  0  2  0  0  0  0  0  0
  185.5970  178.7660  142.6190 N   0  0  0  0  0  0  0  0  0  0  0  0
  185.3520  179.2830  143.9730 C   0  0  0  0  0  2  0  0  0  0  0  0
  185.7070  178.2990  145.0950 C   0  0  0  0  0  2  0  0  0  0  0  0
  184.6360  178.4720  147.2230 O   0  0  0  0  0  1  0  0  0  0  0  0
  185.6800  178.9820  146.4520 C   0  0  0  0  0  2  0  0  0  0  0  0
  186.6890  177.8030  142.6340 C   0  0  0  0  0  2  0  0  0  0  0  0
  187.8170  178.3030  141.7550 C   0  0  0  0  0  2  0  0  0  0  0  0
  189.1390  177.8120  142.3050 C   0  0  0  0  0  2  0  0  0  0  0  0
  188.8870  176.9930  143.5640 C   0  0  0  0  0  2  0  0  0  0  0  0
  189.7550  178.8430  144.7560 O   0  0  0  0  0  1  0  0  0  0  0  0
  191.2870  176.8390  147.0560 N   0  0  0  0  0  0  0  0  0  0  0  0
  189.7410  177.4450  144.7500 C   0  0  1  0  0  0  0  0  0  0  0  0
  189.0930  176.9730  146.0610 C   0  0  0  0  0  2  0  0  0  0  0  0
  192.0750  177.8930  144.1550 O   0  0  0  0  0  1  0  0  0  0  0  0
  191.1920  176.9000  144.5870 C   0  0  1  0  0  3  0  0  0  0  0  0
  191.7550  176.2060  145.8380 C   0  0  0  0  0  2  0  0  0  0  0  0
  190.0550  177.1840  147.1940 C   0  0  0  0  0  3  0  0  0  0  0  0
  1  2  1  0  0  0  0
  2  5  1  0  0  0  0
  3  1  1  6  0  0  0
  3  4  1  0  0  0  0
  4  5  1  0  0  0  0
  5 19  1  1  0  0  0
  6 11  1  1  0  0  0
  6  7  1  0  0  0  0
  6 17  1  0  0  0  0
  7 12  1  0  0  0  0
  8 16  1  0  0  0  0
  8 14  1  0  0  0  0
  9 15  1  1  0  0  0
  9  3  1  0  0  0  0
 12 14  2  0  0  0  0
 12 10  1  0  0  0  0
 13  8  2  0  0  0  0
 17  9  1  0  0  0  0
 17 15  1  0  0  0  0
 17 10  1  1  0  0  0
 18 13  1  0  0  0  0
 18  7  2  0  0  0  0
 19 20  1  0  0  0  0
 20 25  1  0  0  0  0
 20 21  1  0  0  0  0
 21 22  1  0  0  0  0
 22 24  1  0  0  0  0
 24 23  1  0  0  0  0
 26 27  1  0  0  0  0
 26 25  1  0  0  0  0
 27 28  1  0  0  0  0
 28 31  1  0  0  0  0
 30 36  2  0  0  0  0
 31 29  1  1  0  0  0
 31 32  1  0  0  0  0
 32 36  1  0  0  0  0
 34 33  1  1  0  0  0
 34 31  1  0  0  0  0
 34 35  1  0  0  0  0
 35 30  1  0  0  0  0
M  END
>  <MODEL>
1

>  <REMARK>
 VINA RESULT:      -7.8      0.000      0.000
  Name = 
  11 active torsions:
  status: ('A' for Active; 'I' for Inactive)
    1  A    between atoms: C_3  and  C_17
    2  A    between atoms: C_3  and  C_19
    3  A    between atoms: C_4  and  C_5
    4  A    between atoms: C_4  and  N_23
    5  A    between atoms: C_5  and  C_31
    6  A    between atoms: N_9  and  C_12
    7  A    between atoms: C_15  and  C_19
    8  A    between atoms: C_15  and  C_20
    9  A    between atoms: C_20  and  N_23
   10  A    between atoms: N_23  and  C_28
   11  A    between atoms: C_25  and  C_28
                            x       y       z     vdW  Elec       q    Type
                         _______ _______ _______ _____ _____    ______ ____

>  <TORSDO>
F 11

$$$$
=
 OpenBabel11062416013D

 36 40  0  0  1  0  0  0  0  0999 V2000
  185.4680  179.7850  141.5880 N   0  0  0  0  0  2  0  0  0  0  0  0
  185.3030  179.5820  140.2100 N   0  0  0  0  0  2  0  0  0  0  0  0
  184.7130  178.7360  142.2540 C   0  0  2  0  0  3  0  0  0  0  0  0
  183.1640  178.4970  141.3490 S   0  0  0  0  0  0  0  0  0  0  0  0
  183.8770  179.4410  139.9760 C   0  0  2  0  0  3  0  0  0  0  0  0
  185.4060  178.9960  145.9600 C   0  0  2  0  0  3  0  0  0  0  0  0
  186.7410  178.4290  146.2870 C   0  0  0  0  0  0  0  0  0  0  0  0
  189.2240  177.2040  146.6050 C   0  0  0  0  0  0  0  0  0  0  0  0
  184.4260  179.1340  143.6280 N   0  0  1  0  0  0  0  0  0  0  0  0
  186.3020  177.4100  144.1600 C   0  0  0  0  0  2  0  0  0  0  0  0
  184.4610  178.5150  146.8690 O   0  0  0  0  0  1  0  0  0  0  0  0
  187.2240  177.5640  145.3130 C   0  0  0  0  0  0  0  0  0  0  0  0
  188.7380  178.0800  147.5900 C   0  0  0  0  0  3  0  0  0  0  0  0
  188.4660  176.9420  145.4540 C   0  0  0  0  0  3  0  0  0  0  0  0
  183.9270  178.0020  144.2720 O   0  0  0  0  0  0  0  0  0  0  0  0
  190.4610  176.5980  146.7670 O   0  0  0  0  0  1  0  0  0  0  0  0
  185.1920  178.3680  144.5900 C   0  0  1  0  0  0  0  0  0  0  0  0
  187.4890  178.6990  147.4350 C   0  0  0  0  0  3  0  0  0  0  0  0
  183.6470  178.7130  138.6630 C   0  0  0  0  0  2  0  0  0  0  0  0
  184.5930  177.6110  138.5300 N   0  0  0  0  0  0  0  0  0  0  0  0
  183.8700  176.3590  138.2660 C   0  0  0  0  0  2  0  0  0  0  0  0
  182.6450  176.5190  137.3570 C   0  0  0  0  0  2  0  0  0  0  0  0
  181.6700  175.6380  139.3520 O   0  0  0  0  0  1  0  0  0  0  0  0
  181.3670  176.1470  138.0900 C   0  0  0  0  0  2  0  0  0  0  0  0
  185.4980  177.9140  137.4300 C   0  0  0  0  0  2  0  0  0  0  0  0
  186.4600  176.7610  137.2330 C   0  0  0  0  0  2  0  0  0  0  0  0
  187.8810  177.2810  137.2590 C   0  0  0  0  0  2  0  0  0  0  0  0
  188.6840  176.4980  138.2900 C   0  0  0  0  0  2  0  0  0  0  0  0
  189.6260  178.5990  138.8350 O   0  0  0  0  0  1  0  0  0  0  0  0
  189.8260  177.8220  142.1530 N   0  0  0  0  0  0  0  0  0  0  0  0
  189.2420  177.3820  139.4070 C   0  0  1  0  0  0  0  0  0  0  0  0
  188.1380  177.6720  140.4350 C   0  0  0  0  0  2  0  0  0  0  0  0
  191.6790  177.2540  139.6250 O   0  0  0  0  0  1  0  0  0  0  0  0
  190.4770  176.6870  140.0560 C   0  0  1  0  0  3  0  0  0  0  0  0
  190.4420  176.6350  141.5920 C   0  0  0  0  0  2  0  0  0  0  0  0
  188.7460  178.3100  141.6510 C   0  0  0  0  0  3  0  0  0  0  0  0
  1  3  1  0  0  0  0
  2  1  1  0  0  0  0
  3  4  1  6  0  0  0
  3  9  1  0  0  0  0
  5 19  1  6  0  0  0
  5  2  1  0  0  0  0
  5  4  1  0  0  0  0
  6  7  1  0  0  0  0
  6 11  1  1  0  0  0
  7 18  1  0  0  0  0
  8 16  1  0  0  0  0
  8 13  1  0  0  0  0
  9 15  1  1  0  0  0
  9 17  1  0  0  0  0
 10 12  1  0  0  0  0
 12 14  1  0  0  0  0
 12  7  2  0  0  0  0
 14  8  2  0  0  0  0
 15 17  1  0  0  0  0
 17 10  1  6  0  0  0
 17  6  1  0  0  0  0
 18 13  2  0  0  0  0
 20 19  1  0  0  0  0
 21 20  1  0  0  0  0
 22 24  1  0  0  0  0
 22 21  1  0  0  0  0
 24 23  1  0  0  0  0
 25 20  1  0  0  0  0
 26 27  1  0  0  0  0
 26 25  1  0  0  0  0
 27 28  1  0  0  0  0
 28 31  1  0  0  0  0
 31 29  1  6  0  0  0
 31 34  1  0  0  0  0
 31 32  1  0  0  0  0
 32 36  1  0  0  0  0
 34 33  1  1  0  0  0
 34 35  1  0  0  0  0
 35 30  1  0  0  0  0
 36 30  2  0  0  0  0
M  END
>  <MODEL>
2

>  <REMARK>
 VINA RESULT:      -7.8      3.987      8.670
  Name = 
  11 active torsions:
  status: ('A' for Active; 'I' for Inactive)
    1  A    between atoms: C_3  and  C_17
    2  A    between atoms: C_3  and  C_19
    3  A    between atoms: C_4  and  C_5
    4  A    between atoms: C_4  and  N_23
    5  A    between atoms: C_5  and  C_31
    6  A    between atoms: N_9  and  C_12
    7  A    between atoms: C_15  and  C_19
    8  A    between atoms: C_15  and  C_20
    9  A    between atoms: C_20  and  N_23
   10  A    between atoms: N_23  and  C_28
   11  A    between atoms: C_25  and  C_28
                            x       y       z     vdW  Elec       q    Type
                         _______ _______ _______ _____ _____    ______ ____

>  <TORSDO>
F 11

$$$$
=
 OpenBabel11062416013D

 36 40  0  0  1  0  0  0  0  0999 V2000
  185.7510  179.7700  141.7350 N   0  0  0  0  0  2  0  0  0  0  0  0
  185.6800  179.4850  140.3630 N   0  0  0  0  0  2  0  0  0  0  0  0
  185.1460  178.6410  142.4230 C   0  0  2  0  0  3  0  0  0  0  0  0
  183.6960  178.1160  141.4770 S   0  0  0  0  0  0  0  0  0  0  0  0
  184.3060  179.1050  140.0860 C   0  0  2  0  0  3  0  0  0  0  0  0
  185.5360  178.9560  146.1690 C   0  0  2  0  0  3  0  0  0  0  0  0
  186.8560  178.4290  146.6080 C   0  0  0  0  0  0  0  0  0  0  0  0
  189.3370  177.2760  147.1350 C   0  0  0  0  0  0  0  0  0  0  0  0
  184.7410  179.0440  143.7660 N   0  0  1  0  0  0  0  0  0  0  0  0
  186.6140  177.3780  144.4650 C   0  0  0  0  0  2  0  0  0  0  0  0
  184.5350  178.4570  147.0070 O   0  0  0  0  0  1  0  0  0  0  0  0
  187.4370  177.5680  145.6850 C   0  0  0  0  0  0  0  0  0  0  0  0
  188.7510  178.1480  148.0680 C   0  0  0  0  0  3  0  0  0  0  0  0
  188.6800  176.9820  145.9310 C   0  0  0  0  0  3  0  0  0  0  0  0
  184.2230  177.9050  144.3820 O   0  0  0  0  0  0  0  0  0  0  0  0
  190.5740  176.7060  147.4020 O   0  0  0  0  0  1  0  0  0  0  0  0
  185.4480  178.3090  144.7940 C   0  0  1  0  0  0  0  0  0  0  0  0
  187.5030  178.7310  147.8080 C   0  0  0  0  0  3  0  0  0  0  0  0
  184.2520  178.2950  138.8030 C   0  0  0  0  0  2  0  0  0  0  0  0
  183.2070  177.2820  138.8940 N   0  0  0  0  0  0  0  0  0  0  0  0
  181.9410  177.8170  138.3720 C   0  0  0  0  0  2  0  0  0  0  0  0
  180.7100  177.4480  139.2080 C   0  0  0  0  0  2  0  0  0  0  0  0
  180.8770  179.8010  139.5850 O   0  0  0  0  0  1  0  0  0  0  0  0
  180.0860  178.6810  139.8400 C   0  0  0  0  0  2  0  0  0  0  0  0
  183.6240  176.1230  138.1170 C   0  0  0  0  0  2  0  0  0  0  0  0
  184.4880  176.5740  136.9580 C   0  0  0  0  0  2  0  0  0  0  0  0
  185.7410  175.7260  136.9030 C   0  0  0  0  0  2  0  0  0  0  0  0
  186.6720  176.2740  135.8300 C   0  0  0  0  0  2  0  0  0  0  0  0
  188.9570  176.8190  135.5520 O   0  0  0  0  0  1  0  0  0  0  0  0
  188.9990  178.7480  138.3690 N   0  0  0  0  0  0  0  0  0  0  0  0
  187.8720  177.0260  136.4090 C   0  0  1  0  0  0  0  0  0  0  0  0
  187.5720  178.5330  136.4340 C   0  0  0  0  0  2  0  0  0  0  0  0
  189.3150  175.6270  137.8100 O   0  0  0  0  0  1  0  0  0  0  0  0
  188.2020  176.4710  137.8270 C   0  0  1  0  0  3  0  0  0  0  0  0
  188.3800  177.5520  138.9060 C   0  0  0  0  0  2  0  0  0  0  0  0
  188.6290  179.2360  137.2360 C   0  0  0  0  0  3  0  0  0  0  0  0
  1  3  1  0  0  0  0
  2  1  1  0  0  0  0
  3  4  1  6  0  0  0
  3  9  1  0  0  0  0
  5 19  1  6  0  0  0
  5  2  1  0  0  0  0
  5  4  1  0  0  0  0
  6  7  1  0  0  0  0
  6 11  1  1  0  0  0
  7 18  1  0  0  0  0
  8 16  1  0  0  0  0
  8 13  1  0  0  0  0
  9 15  1  6  0  0  0
  9 17  1  0  0  0  0
 10 12  1  0  0  0  0
 12 14  1  0  0  0  0
 12  7  2  0  0  0  0
 14  8  2  0  0  0  0
 15 17  1  0  0  0  0
 17 10  1  6  0  0  0
 17  6  1  0  0  0  0
 18 13  2  0  0  0  0
 19 20  1  0  0  0  0
 21 20  1  0  0  0  0
 21 22  1  0  0  0  0
 22 24  1  0  0  0  0
 23 24  1  0  0  0  0
 25 20  1  0  0  0  0
 26 25  1  0  0  0  0
 27 26  1  0  0  0  0
 28 31  1  0  0  0  0
 28 27  1  0  0  0  0
 30 35  1  0  0  0  0
 31 29  1  6  0  0  0
 31 32  1  0  0  0  0
 31 34  1  0  0  0  0
 32 36  1  0  0  0  0
 34 33  1  6  0  0  0
 34 35  1  0  0  0  0
 36 30  2  0  0  0  0
M  END
>  <MODEL>
3

>  <REMARK>
 VINA RESULT:      -7.6      3.655      9.499
  Name = 
  11 active torsions:
  status: ('A' for Active; 'I' for Inactive)
    1  A    between atoms: C_3  and  C_17
    2  A    between atoms: C_3  and  C_19
    3  A    between atoms: C_4  and  C_5
    4  A    between atoms: C_4  and  N_23
    5  A    between atoms: C_5  and  C_31
    6  A    between atoms: N_9  and  C_12
    7  A    between atoms: C_15  and  C_19
    8  A    between atoms: C_15  and  C_20
    9  A    between atoms: C_20  and  N_23
   10  A    between atoms: N_23  and  C_28
   11  A    between atoms: C_25  and  C_28
                            x       y       z     vdW  Elec       q    Type
                         _______ _______ _______ _____ _____    ______ ____

>  <TORSDO>
F 11

$$$$
=
 OpenBabel11062416013D

 36 40  0  0  1  0  0  0  0  0999 V2000
  190.0840  175.8000  142.0290 N   0  0  0  0  0  2  0  0  0  0  0  0
  190.2590  176.0410  143.3990 N   0  0  0  0  0  2  0  0  0  0  0  0
  190.1280  177.0960  141.3710 C   0  0  2  0  0  3  0  0  0  0  0  0
  189.2370  178.2820  142.4080 S   0  0  0  0  0  0  0  0  0  0  0  0
  189.3150  177.0830  143.7640 C   0  0  2  0  0  3  0  0  0  0  0  0
  190.0180  176.4330  137.6520 C   0  0  2  0  0  3  0  0  0  0  0  0
  191.3300  175.9280  137.1680 C   0  0  0  0  0  0  0  0  0  0  0  0
  193.9200  175.1120  136.5430 C   0  0  0  0  0  0  0  0  0  0  0  0
  189.4890  177.0050  140.0630 N   0  0  1  0  0  0  0  0  0  0  0  0
  191.9570  176.9690  139.2370 C   0  0  0  0  0  2  0  0  0  0  0  0
  189.5580  177.4330  136.7910 O   0  0  0  0  0  1  0  0  0  0  0  0
  192.3820  176.2240  138.0250 C   0  0  0  0  0  0  0  0  0  0  0  0
  192.8560  174.8110  135.6760 C   0  0  0  0  0  3  0  0  0  0  0  0
  193.6860  175.8230  137.7300 C   0  0  0  0  0  3  0  0  0  0  0  0
  189.8260  178.1700  139.3750 O   0  0  0  0  0  0  0  0  0  0  0  0
  195.2070  174.7020  136.2280 O   0  0  0  0  0  1  0  0  0  0  0  0
  190.4520  177.0360  138.9810 C   0  0  1  0  0  0  0  0  0  0  0  0
  191.5510  175.2180  135.9850 C   0  0  0  0  0  3  0  0  0  0  0  0
  189.7770  177.7640  145.0400 C   0  0  0  0  0  2  0  0  0  0  0  0
  189.1500  177.1360  146.1970 N   0  0  0  0  0  0  0  0  0  0  0  0
  190.1600  176.8600  147.2280 C   0  0  0  0  0  2  0  0  0  0  0  0
  191.5460  176.5100  146.6730 C   0  0  0  0  0  2  0  0  0  0  0  0
  192.8480  176.6360  148.6710 O   0  0  0  0  0  1  0  0  0  0  0  0
  192.3740  175.7560  147.7000 C   0  0  0  0  0  2  0  0  0  0  0  0
  188.1330  178.0410  146.7150 C   0  0  0  0  0  2  0  0  0  0  0  0
  186.7580  177.5280  146.3380 C   0  0  0  0  0  2  0  0  0  0  0  0
  185.8460  178.7000  146.0480 C   0  0  0  0  0  2  0  0  0  0  0  0
  184.6800  178.2290  145.1890 C   0  0  0  0  0  2  0  0  0  0  0  0
  184.7570  180.3440  144.1320 O   0  0  0  0  0  1  0  0  0  0  0  0
  184.2650  178.9890  141.0370 N   0  0  0  0  0  0  0  0  0  0  0  0
  184.5750  178.9840  143.8630 C   0  0  1  0  0  0  0  0  0  0  0  0
  185.7030  178.5340  142.9220 C   0  0  0  0  0  2  0  0  0  0  0  0
  182.3300  179.8560  143.4140 O   0  0  0  0  0  1  0  0  0  0  0  0
  183.1660  178.7510  143.2390 C   0  0  1  0  0  3  0  0  0  0  0  0
  183.1870  178.3400  141.7570 C   0  0  0  0  0  2  0  0  0  0  0  0
  185.4460  179.0730  141.5440 C   0  0  0  0  0  3  0  0  0  0  0  0
  1  2  1  0  0  0  0
  2  5  1  0  0  0  0
  3  1  1  1  0  0  0
  3  4  1  0  0  0  0
  4  5  1  0  0  0  0
  5 19  1  1  0  0  0
  6 11  1  6  0  0  0
  6 17  1  0  0  0  0
  7  6  1  0  0  0  0
  7 12  1  0  0  0  0
  8 14  1  0  0  0  0
  9 15  1  6  0  0  0
  9  3  1  0  0  0  0
 12 10  1  0  0  0  0
 13 18  1  0  0  0  0
 13  8  2  0  0  0  0
 14 12  2  0  0  0  0
 16  8  1  0  0  0  0
 17 10  1  1  0  0  0
 17 15  1  0  0  0  0
 17  9  1  0  0  0  0
 18  7  2  0  0  0  0
 19 20  1  0  0  0  0
 20 25  1  0  0  0  0
 20 21  1  0  0  0  0
 22 21  1  0  0  0  0
 22 24  1  0  0  0  0
 24 23  1  0  0  0  0
 26 25  1  0  0  0  0
 27 26  1  0  0  0  0
 28 27  1  0  0  0  0
 30 36  2  0  0  0  0
 30 35  1  0  0  0  0
 31 29  1  1  0  0  0
 31 28  1  0  0  0  0
 32 31  1  0  0  0  0
 34 33  1  6  0  0  0
 34 31  1  0  0  0  0
 35 34  1  0  0  0  0
 36 32  1  0  0  0  0
M  END
>  <MODEL>
4

>  <REMARK>
 VINA RESULT:      -7.6      4.884      9.802
  Name = 
  11 active torsions:
  status: ('A' for Active; 'I' for Inactive)
    1  A    between atoms: C_3  and  C_17
    2  A    between atoms: C_3  and  C_19
    3  A    between atoms: C_4  and  C_5
    4  A    between atoms: C_4  and  N_23
    5  A    between atoms: C_5  and  C_31
    6  A    between atoms: N_9  and  C_12
    7  A    between atoms: C_15  and  C_19
    8  A    between atoms: C_15  and  C_20
    9  A    between atoms: C_20  and  N_23
   10  A    between atoms: N_23  and  C_28
   11  A    between atoms: C_25  and  C_28
                            x       y       z     vdW  Elec       q    Type
                         _______ _______ _______ _____ _____    ______ ____

>  <TORSDO>
F 11

$$$$
=
 OpenBabel11062416013D

 36 40  0  0  1  0  0  0  0  0999 V2000
  185.6330  179.6940  141.2370 N   0  0  0  0  0  2  0  0  0  0  0  0
  184.9540  179.5750  140.0160 N   0  0  0  0  0  2  0  0  0  0  0  0
  185.3170  178.5000  142.0050 C   0  0  2  0  0  3  0  0  0  0  0  0
  183.5700  178.1120  141.7450 S   0  0  0  0  0  0  0  0  0  0  0  0
  183.5750  179.2490  140.3350 C   0  0  2  0  0  3  0  0  0  0  0  0
  187.2820  178.2920  145.2260 C   0  0  2  0  0  3  0  0  0  0  0  0
  188.5940  177.6270  145.0020 C   0  0  0  0  0  0  0  0  0  0  0  0
  190.9160  176.2580  144.2970 C   0  0  0  0  0  0  0  0  0  0  0  0
  185.5650  178.7470  143.4210 N   0  0  1  0  0  0  0  0  0  0  0  0
  187.3530  176.8860  143.0870 C   0  0  0  0  0  2  0  0  0  0  0  0
  186.6770  177.7520  146.3640 O   0  0  0  0  0  1  0  0  0  0  0  0
  188.6300  176.8600  143.8430 C   0  0  0  0  0  0  0  0  0  0  0  0
  190.8820  177.0340  145.4680 C   0  0  0  0  0  3  0  0  0  0  0  0
  189.7840  176.1690  143.4740 C   0  0  0  0  0  3  0  0  0  0  0  0
  185.2270  177.5730  144.0930 O   0  0  0  0  0  0  0  0  0  0  0  0
  192.0750  175.5800  143.9510 O   0  0  0  0  0  1  0  0  0  0  0  0
  186.5490  177.8390  143.9710 C   0  0  1  0  0  0  0  0  0  0  0  0
  189.7160  177.7260  145.8270 C   0  0  0  0  0  3  0  0  0  0  0  0
  182.9150  178.5970  139.1320 C   0  0  0  0  0  2  0  0  0  0  0  0
  183.5920  177.3470  138.8070 N   0  0  0  0  0  0  0  0  0  0  0  0
  182.6300  176.2360  138.8220 C   0  0  0  0  0  2  0  0  0  0  0  0
  181.1620  176.6740  138.7350 C   0  0  0  0  0  2  0  0  0  0  0  0
  180.4320  174.8220  140.0550 O   0  0  0  0  0  1  0  0  0  0  0  0
  180.3790  176.2120  139.9520 C   0  0  0  0  0  2  0  0  0  0  0  0
  184.1900  177.4800  137.4860 C   0  0  0  0  0  2  0  0  0  0  0  0
  185.0640  176.2760  137.2010 C   0  0  0  0  0  2  0  0  0  0  0  0
  186.4120  176.7400  136.6930 C   0  0  0  0  0  2  0  0  0  0  0  0
  186.7840  178.0480  137.3790 C   0  0  0  0  0  2  0  0  0  0  0  0
  188.7820  179.3000  137.5720 O   0  0  0  0  0  1  0  0  0  0  0  0
  190.3570  176.8120  139.3000 N   0  0  0  0  0  0  0  0  0  0  0  0
  188.2240  178.0600  137.8970 C   0  0  1  0  0  0  0  0  0  0  0  0
  188.2220  177.9300  139.4280 C   0  0  0  0  0  2  0  0  0  0  0  0
  189.8720  177.4030  136.2080 O   0  0  0  0  0  1  0  0  0  0  0  0
  189.0350  176.9180  137.2150 C   0  0  1  0  0  3  0  0  0  0  0  0
  189.8390  176.0400  138.1880 C   0  0  0  0  0  2  0  0  0  0  0  0
  189.6230  177.6790  139.9070 C   0  0  0  0  0  3  0  0  0  0  0  0
  2  5  1  0  0  0  0
  2  1  1  0  0  0  0
  3  1  1  6  0  0  0
  3  9  1  0  0  0  0
  4  3  1  0  0  0  0
  5 19  1  6  0  0  0
  5  4  1  0  0  0  0
  6 11  1  1  0  0  0
  7  6  1  0  0  0  0
  7 18  1  0  0  0  0
  8 13  1  0  0  0  0
  9 17  1  0  0  0  0
  9 15  1  1  0  0  0
 10 12  1  0  0  0  0
 12  7  2  0  0  0  0
 13 18  2  0  0  0  0
 14 12  1  0  0  0  0
 14  8  2  0  0  0  0
 16  8  1  0  0  0  0
 17 10  1  6  0  0  0
 17 15  1  0  0  0  0
 17  6  1  0  0  0  0
 20 21  1  0  0  0  0
 20 19  1  0  0  0  0
 22 21  1  0  0  0  0
 22 24  1  0  0  0  0
 24 23  1  0  0  0  0
 25 20  1  0  0  0  0
 26 25  1  0  0  0  0
 27 26  1  0  0  0  0
 27 28  1  0  0  0  0
 28 31  1  0  0  0  0
 30 36  2  0  0  0  0
 31 29  1  6  0  0  0
 31 32  1  0  0  0  0
 32 36  1  0  0  0  0
 34 33  1  6  0  0  0
 34 31  1  0  0  0  0
 34 35  1  0  0  0  0
 35 30  1  0  0  0  0
M  END
>  <MODEL>
5

>  <REMARK>
 VINA RESULT:      -7.6      4.126      9.249
  Name = 
  11 active torsions:
  status: ('A' for Active; 'I' for Inactive)
    1  A    between atoms: C_3  and  C_17
    2  A    between atoms: C_3  and  C_19
    3  A    between atoms: C_4  and  C_5
    4  A    between atoms: C_4  and  N_23
    5  A    between atoms: C_5  and  C_31
    6  A    between atoms: N_9  and  C_12
    7  A    between atoms: C_15  and  C_19
    8  A    between atoms: C_15  and  C_20
    9  A    between atoms: C_20  and  N_23
   10  A    between atoms: N_23  and  C_28
   11  A    between atoms: C_25  and  C_28
                            x       y       z     vdW  Elec       q    Type
                         _______ _______ _______ _____ _____    ______ ____

>  <TORSDO>
F 11

$$$$
=
 OpenBabel11062416013D

 36 40  0  0  1  0  0  0  0  0999 V2000
  190.2180  176.0180  141.2720 N   0  0  0  0  0  2  0  0  0  0  0  0
  190.0750  176.1780  139.8860 N   0  0  0  0  0  2  0  0  0  0  0  0
  190.9920  177.1560  141.7420 C   0  0  2  0  0  3  0  0  0  0  0  0
  192.2900  177.4920  140.5280 S   0  0  0  0  0  0  0  0  0  0  0  0
  191.4030  176.4340  139.3560 C   0  0  2  0  0  3  0  0  0  0  0  0
  191.0410  176.8270  145.5060 C   0  0  2  0  0  3  0  0  0  0  0  0
  189.7040  177.1360  146.0800 C   0  0  0  0  0  0  0  0  0  0  0  0
  187.1330  177.8700  146.8630 C   0  0  0  0  0  0  0  0  0  0  0  0
  191.5920  176.8420  143.0340 N   0  0  1  0  0  0  0  0  0  0  0  0
  189.5500  178.1860  143.9280 C   0  0  0  0  0  2  0  0  0  0  0  0
  192.0260  177.4940  146.2400 O   0  0  0  0  0  1  0  0  0  0  0  0
  188.8980  177.8780  145.2260 C   0  0  0  0  0  0  0  0  0  0  0  0
  187.9470  177.1190  147.7280 C   0  0  0  0  0  3  0  0  0  0  0  0
  187.6070  178.2530  145.6000 C   0  0  0  0  0  3  0  0  0  0  0  0
  191.9750  178.0580  143.5990 O   0  0  0  0  0  0  0  0  0  0  0  0
  185.8530  178.2330  147.2580 O   0  0  0  0  0  1  0  0  0  0  0  0
  190.8810  177.4630  144.1320 C   0  0  1  0  0  0  0  0  0  0  0  0
  189.2410  176.7460  147.3390 C   0  0  0  0  0  3  0  0  0  0  0  0
  191.2870  177.1250  138.0080 C   0  0  0  0  0  2  0  0  0  0  0  0
  190.5030  176.3050  137.0910 N   0  0  0  0  0  0  0  0  0  0  0  0
  189.4830  177.1290  136.4270 C   0  0  0  0  0  2  0  0  0  0  0  0
  188.0690  176.9600  136.9950 C   0  0  0  0  0  2  0  0  0  0  0  0
  188.4960  179.2420  137.5570 O   0  0  0  0  0  1  0  0  0  0  0  0
  187.6740  178.1540  137.8480 C   0  0  0  0  0  2  0  0  0  0  0  0
  191.4060  175.7270  136.1060 C   0  0  0  0  0  2  0  0  0  0  0  0
  191.5820  174.2480  136.3870 C   0  0  0  0  0  2  0  0  0  0  0  0
  193.0200  173.8530  136.1260 C   0  0  0  0  0  2  0  0  0  0  0  0
  193.7500  173.7050  137.4540 C   0  0  0  0  0  2  0  0  0  0  0  0
  194.6750  175.6180  138.4930 O   0  0  0  0  0  1  0  0  0  0  0  0
  197.6560  175.2480  136.8680 N   0  0  0  0  0  0  0  0  0  0  0  0
  194.9740  174.6150  137.5660 C   0  0  1  0  0  0  0  0  0  0  0  0
  196.1660  173.8110  138.1090 C   0  0  0  0  0  2  0  0  0  0  0  0
  194.8630  176.5810  136.1090 O   0  0  0  0  0  1  0  0  0  0  0  0
  195.2820  175.2500  136.1770 C   0  0  1  0  0  3  0  0  0  0  0  0
  196.7530  175.1400  135.7400 C   0  0  0  0  0  2  0  0  0  0  0  0
  197.4190  174.6260  137.9700 C   0  0  0  0  0  3  0  0  0  0  0  0
  1  3  1  0  0  0  0
  2  1  1  0  0  0  0
  3  4  1  6  0  0  0
  3  9  1  0  0  0  0
  5 19  1  6  0  0  0
  5  2  1  0  0  0  0
  5  4  1  0  0  0  0
  6  7  1  0  0  0  0
  6 11  1  1  0  0  0
  7 18  1  0  0  0  0
  8 16  1  0  0  0  0
  8 13  1  0  0  0  0
  9 15  1  6  0  0  0
  9 17  1  0  0  0  0
 10 12  1  0  0  0  0
 12 14  1  0  0  0  0
 12  7  2  0  0  0  0
 14  8  2  0  0  0  0
 15 17  1  0  0  0  0
 17 10  1  6  0  0  0
 17  6  1  0  0  0  0
 18 13  2  0  0  0  0
 20 19  1  0  0  0  0
 21 22  1  0  0  0  0
 21 20  1  0  0  0  0
 22 24  1  0  0  0  0
 23 24  1  0  0  0  0
 25 26  1  0  0  0  0
 25 20  1  0  0  0  0
 27 26  1  0  0  0  0
 27 28  1  0  0  0  0
 28 31  1  0  0  0  0
 30 36  2  0  0  0  0
 31 32  1  0  0  0  0
 31 29  1  1  0  0  0
 34 33  1  1  0  0  0
 34 31  1  0  0  0  0
 35 34  1  0  0  0  0
 35 30  1  0  0  0  0
 36 32  1  0  0  0  0
M  END
>  <MODEL>
6

>  <REMARK>
 VINA RESULT:      -7.5      6.255     11.090
  Name = 
  11 active torsions:
  status: ('A' for Active; 'I' for Inactive)
    1  A    between atoms: C_3  and  C_17
    2  A    between atoms: C_3  and  C_19
    3  A    between atoms: C_4  and  C_5
    4  A    between atoms: C_4  and  N_23
    5  A    between atoms: C_5  and  C_31
    6  A    between atoms: N_9  and  C_12
    7  A    between atoms: C_15  and  C_19
    8  A    between atoms: C_15  and  C_20
    9  A    between atoms: C_20  and  N_23
   10  A    between atoms: N_23  and  C_28
   11  A    between atoms: C_25  and  C_28
                            x       y       z     vdW  Elec       q    Type
                         _______ _______ _______ _____ _____    ______ ____

>  <TORSDO>
F 11

$$$$
=
 OpenBabel11062416013D

 36 40  0  0  1  0  0  0  0  0999 V2000
  190.2550  176.0110  141.3040 N   0  0  0  0  0  2  0  0  0  0  0  0
  190.1220  176.1570  139.9160 N   0  0  0  0  0  2  0  0  0  0  0  0
  191.0550  177.1340  141.7640 C   0  0  2  0  0  3  0  0  0  0  0  0
  192.3670  177.4230  140.5520 S   0  0  0  0  0  0  0  0  0  0  0  0
  191.4580  176.3730  139.3890 C   0  0  2  0  0  3  0  0  0  0  0  0
  191.0680  176.8160  145.5300 C   0  0  2  0  0  3  0  0  0  0  0  0
  189.7270  177.1320  146.0900 C   0  0  0  0  0  0  0  0  0  0  0  0
  187.1520  177.8810  146.8470 C   0  0  0  0  0  0  0  0  0  0  0  0
  191.6420  176.8210  143.0630 N   0  0  1  0  0  0  0  0  0  0  0  0
  189.5980  178.1770  143.9340 C   0  0  0  0  0  2  0  0  0  0  0  0
  192.0490  177.4800  146.2710 O   0  0  0  0  0  1  0  0  0  0  0  0
  188.9320  177.8750  145.2260 C   0  0  0  0  0  0  0  0  0  0  0  0
  187.9540  177.1280  147.7210 C   0  0  0  0  0  3  0  0  0  0  0  0
  187.6400  178.2580  145.5870 C   0  0  0  0  0  3  0  0  0  0  0  0
  192.0250  178.0370  143.6280 O   0  0  0  0  0  0  0  0  0  0  0  0
  185.8700  178.2500  147.2280 O   0  0  0  0  0  1  0  0  0  0  0  0
  190.9230  177.4490  144.1520 C   0  0  1  0  0  0  0  0  0  0  0  0
  189.2500  176.7480  147.3450 C   0  0  0  0  0  3  0  0  0  0  0  0
  191.3650  177.0500  138.0320 C   0  0  0  0  0  2  0  0  0  0  0  0
  191.7060  176.1040  136.9760 N   0  0  0  0  0  0  0  0  0  0  0  0
  192.0980  174.8150  137.5640 C   0  0  0  0  0  2  0  0  0  0  0  0
  193.2870  174.1420  136.8700 C   0  0  0  0  0  2  0  0  0  0  0  0
  194.7120  175.2600  138.4270 O   0  0  0  0  0  1  0  0  0  0  0  0
  194.5660  174.9360  137.0780 C   0  0  0  0  0  2  0  0  0  0  0  0
  190.5410  175.9350  136.1180 C   0  0  0  0  0  2  0  0  0  0  0  0
  189.6790  174.8090  136.6510 C   0  0  0  0  0  2  0  0  0  0  0  0
  188.2570  175.2980  136.8150 C   0  0  0  0  0  2  0  0  0  0  0  0
  188.0490  176.5390  135.9580 C   0  0  0  0  0  2  0  0  0  0  0  0
  187.0410  178.6710  135.7640 O   0  0  0  0  0  1  0  0  0  0  0  0
  185.9520  178.6190  139.0000 N   0  0  0  0  0  0  0  0  0  0  0  0
  187.2700  177.6390  136.6810 C   0  0  1  0  0  0  0  0  0  0  0  0
  185.9050  177.0950  137.1300 C   0  0  0  0  0  2  0  0  0  0  0  0
  188.7000  179.4060  137.5950 O   0  0  0  0  0  1  0  0  0  0  0  0
  188.1100  178.1730  137.8800 C   0  0  1  0  0  3  0  0  0  0  0  0
  187.3390  178.2550  139.2080 C   0  0  0  0  0  2  0  0  0  0  0  0
  185.2580  178.0810  138.0580 C   0  0  0  0  0  3  0  0  0  0  0  0
  1  3  1  0  0  0  0
  2  1  1  0  0  0  0
  3  4  1  6  0  0  0
  3  9  1  0  0  0  0
  5 19  1  6  0  0  0
  5  2  1  0  0  0  0
  5  4  1  0  0  0  0
  6  7  1  0  0  0  0
  6 11  1  1  0  0  0
  7 18  1  0  0  0  0
  8 16  1  0  0  0  0
  8 13  1  0  0  0  0
  9 15  1  6  0  0  0
  9 17  1  0  0  0  0
 10 12  1  0  0  0  0
 12 14  1  0  0  0  0
 12  7  2  0  0  0  0
 14  8  2  0  0  0  0
 15 17  1  0  0  0  0
 17 10  1  6  0  0  0
 17  6  1  0  0  0  0
 18 13  2  0  0  0  0
 20 21  1  0  0  0  0
 20 19  1  0  0  0  0
 22 24  1  0  0  0  0
 22 21  1  0  0  0  0
 24 23  1  0  0  0  0
 25 26  1  0  0  0  0
 25 20  1  0  0  0  0
 26 27  1  0  0  0  0
 28 31  1  0  0  0  0
 28 27  1  0  0  0  0
 30 35  1  0  0  0  0
 31 29  1  6  0  0  0
 31 32  1  0  0  0  0
 31 34  1  0  0  0  0
 32 36  1  0  0  0  0
 34 33  1  6  0  0  0
 34 35  1  0  0  0  0
 36 30  2  0  0  0  0
M  END
>  <MODEL>
7

>  <REMARK>
 VINA RESULT:      -7.4      5.010     11.097
  Name = 
  11 active torsions:
  status: ('A' for Active; 'I' for Inactive)
    1  A    between atoms: C_3  and  C_17
    2  A    between atoms: C_3  and  C_19
    3  A    between atoms: C_4  and  C_5
    4  A    between atoms: C_4  and  N_23
    5  A    between atoms: C_5  and  C_31
    6  A    between atoms: N_9  and  C_12
    7  A    between atoms: C_15  and  C_19
    8  A    between atoms: C_15  and  C_20
    9  A    between atoms: C_20  and  N_23
   10  A    between atoms: N_23  and  C_28
   11  A    between atoms: C_25  and  C_28
                            x       y       z     vdW  Elec       q    Type
                         _______ _______ _______ _____ _____    ______ ____

>  <TORSDO>
F 11

$$$$
=
 OpenBabel11062416013D

 36 40  0  0  1  0  0  0  0  0999 V2000
  190.9260  176.3660  139.8530 N   0  0  0  0  0  2  0  0  0  0  0  0
  190.2240  177.4800  140.3370 N   0  0  0  0  0  2  0  0  0  0  0  0
  190.5320  176.2020  138.4630 C   0  0  2  0  0  3  0  0  0  0  0  0
  188.7570  176.5280  138.3390 S   0  0  0  0  0  0  0  0  0  0  0  0
  188.8280  177.2780  139.9870 C   0  0  2  0  0  3  0  0  0  0  0  0
  192.5660  173.4910  136.7900 C   0  0  2  0  0  3  0  0  0  0  0  0
  193.8610  174.0320  136.2980 C   0  0  0  0  0  0  0  0  0  0  0  0
  196.1450  175.3500  135.3990 C   0  0  0  0  0  0  0  0  0  0  0  0
  190.8150  174.8370  138.0300 N   0  0  1  0  0  0  0  0  0  0  0  0
  192.5660  176.0380  136.5250 C   0  0  0  0  0  2  0  0  0  0  0  0
  191.9790  172.7120  135.7890 O   0  0  0  0  0  1  0  0  0  0  0  0
  193.8590  175.4130  136.1500 C   0  0  0  0  0  0  0  0  0  0  0  0
  196.1500  173.9530  135.5500 C   0  0  0  0  0  3  0  0  0  0  0  0
  194.9930  176.0910  135.7020 C   0  0  0  0  0  3  0  0  0  0  0  0
  190.4750  174.7710  136.6800 O   0  0  0  0  0  0  0  0  0  0  0  0
  197.2860  176.0010  134.9510 O   0  0  0  0  0  1  0  0  0  0  0  0
  191.7980  174.7940  136.9670 C   0  0  1  0  0  0  0  0  0  0  0  0
  195.0040  173.2840  136.0030 C   0  0  0  0  0  3  0  0  0  0  0  0
  188.1060  178.6140  139.9880 C   0  0  0  0  0  2  0  0  0  0  0  0
  187.4260  178.8140  141.2620 N   0  0  0  0  0  0  0  0  0  0  0  0
  185.9870  179.0130  141.0370 C   0  0  0  0  0  2  0  0  0  0  0  0
  185.5070  178.6040  139.6390 C   0  0  0  0  0  2  0  0  0  0  0  0
  184.1840  180.5160  139.0900 O   0  0  0  0  0  1  0  0  0  0  0  0
  184.1170  179.1490  139.3560 C   0  0  0  0  0  2  0  0  0  0  0  0
  187.6500  177.6380  142.0910 C   0  0  0  0  0  2  0  0  0  0  0  0
  186.6580  177.6280  143.2360 C   0  0  0  0  0  2  0  0  0  0  0  0
  187.4050  177.6530  144.5510 C   0  0  0  0  0  2  0  0  0  0  0  0
  188.6590  176.7970  144.4330 C   0  0  0  0  0  2  0  0  0  0  0  0
  189.8390  178.6660  145.2760 O   0  0  0  0  0  1  0  0  0  0  0  0
  191.8500  176.7130  147.2250 N   0  0  0  0  0  0  0  0  0  0  0  0
  189.7920  177.2700  145.3450 C   0  0  1  0  0  0  0  0  0  0  0  0
  189.4800  176.8810  146.7990 C   0  0  0  0  0  2  0  0  0  0  0  0
  191.9140  177.6090  144.1690 O   0  0  0  0  0  1  0  0  0  0  0  0
  191.1440  176.6680  144.8560 C   0  0  1  0  0  3  0  0  0  0  0  0
  191.9840  176.0110  145.9640 C   0  0  0  0  0  2  0  0  0  0  0  0
  190.6990  177.1080  147.6460 C   0  0  0  0  0  3  0  0  0  0  0  0
  1  2  1  0  0  0  0
  3  4  1  1  0  0  0
  3  1  1  0  0  0  0
  4  5  1  0  0  0  0
  5 19  1  6  0  0  0
  5  2  1  0  0  0  0
  6 11  1  6  0  0  0
  6 17  1  0  0  0  0
  7  6  1  0  0  0  0
  8 13  2  0  0  0  0
  8 14  1  0  0  0  0
  9 15  1  6  0  0  0
  9  3  1  0  0  0  0
 12  7  1  0  0  0  0
 12 10  1  0  0  0  0
 13 18  1  0  0  0  0
 14 12  2  0  0  0  0
 15 17  1  0  0  0  0
 16  8  1  0  0  0  0
 17 10  1  6  0  0  0
 17  9  1  0  0  0  0
 18  7  2  0  0  0  0
 19 20  1  0  0  0  0
 20 25  1  0  0  0  0
 21 20  1  0  0  0  0
 22 21  1  0  0  0  0
 23 24  1  0  0  0  0
 24 22  1  0  0  0  0
 25 26  1  0  0  0  0
 26 27  1  0  0  0  0
 28 27  1  0  0  0  0
 28 31  1  0  0  0  0
 30 36  2  0  0  0  0
 31 29  1  6  0  0  0
 31 32  1  0  0  0  0
 32 36  1  0  0  0  0
 34 33  1  1  0  0  0
 34 31  1  0  0  0  0
 34 35  1  0  0  0  0
 35 30  1  0  0  0  0
M  END
>  <MODEL>
8

>  <REMARK>
 VINA RESULT:      -7.0      5.779     10.025
  Name = 
  11 active torsions:
  status: ('A' for Active; 'I' for Inactive)
    1  A    between atoms: C_3  and  C_17
    2  A    between atoms: C_3  and  C_19
    3  A    between atoms: C_4  and  C_5
    4  A    between atoms: C_4  and  N_23
    5  A    between atoms: C_5  and  C_31
    6  A    between atoms: N_9  and  C_12
    7  A    between atoms: C_15  and  C_19
    8  A    between atoms: C_15  and  C_20
    9  A    between atoms: C_20  and  N_23
   10  A    between atoms: N_23  and  C_28
   11  A    between atoms: C_25  and  C_28
                            x       y       z     vdW  Elec       q    Type
                         _______ _______ _______ _____ _____    ______ ____

>  <TORSDO>
F 11

$$$$
=
 OpenBabel11062416013D

 36 40  0  0  1  0  0  0  0  0999 V2000
  185.7560  179.7020  141.6450 N   0  0  0  0  0  2  0  0  0  0  0  0
  185.6510  179.3780  140.2840 N   0  0  0  0  0  2  0  0  0  0  0  0
  185.1250  178.6170  142.3780 C   0  0  2  0  0  3  0  0  0  0  0  0
  183.6410  178.1140  141.4730 S   0  0  0  0  0  0  0  0  0  0  0  0
  184.2600  179.0380  140.0420 C   0  0  2  0  0  3  0  0  0  0  0  0
  185.5740  179.0010  146.1110 C   0  0  2  0  0  3  0  0  0  0  0  0
  186.8670  178.4120  146.5500 C   0  0  0  0  0  0  0  0  0  0  0  0
  189.2870  177.1370  147.0810 C   0  0  0  0  0  0  0  0  0  0  0  0
  184.7580  179.0740  143.7140 N   0  0  1  0  0  0  0  0  0  0  0  0
  186.5430  177.3240  144.4370 C   0  0  0  0  0  2  0  0  0  0  0  0
  184.5570  178.5800  146.9710 O   0  0  0  0  0  1  0  0  0  0  0  0
  187.3900  177.4980  145.6430 C   0  0  0  0  0  0  0  0  0  0  0  0
  188.7600  178.0620  147.9980 C   0  0  0  0  0  3  0  0  0  0  0  0
  188.6010  176.8500  145.8920 C   0  0  0  0  0  3  0  0  0  0  0  0
  184.1840  177.9820  144.3640 O   0  0  0  0  0  0  0  0  0  0  0  0
  190.4920  176.5050  147.3500 O   0  0  0  0  0  1  0  0  0  0  0  0
  185.4350  178.3260  144.7530 C   0  0  1  0  0  0  0  0  0  0  0  0
  187.5430  178.7070  147.7360 C   0  0  0  0  0  3  0  0  0  0  0  0
  184.1550  178.1920  138.7860 C   0  0  0  0  0  2  0  0  0  0  0  0
  182.7810  177.7420  138.5980 N   0  0  0  0  0  0  0  0  0  0  0  0
  181.9580  178.8440  138.0790 C   0  0  0  0  0  2  0  0  0  0  0  0
  180.5130  178.8470  138.5920 C   0  0  0  0  0  2  0  0  0  0  0  0
  180.6560  180.3690  140.4290 O   0  0  0  0  0  1  0  0  0  0  0  0
  180.1310  180.2090  139.1460 C   0  0  0  0  0  2  0  0  0  0  0  0
  182.7860  176.6300  137.6580 C   0  0  0  0  0  2  0  0  0  0  0  0
  183.8330  176.8730  136.5910 C   0  0  0  0  0  2  0  0  0  0  0  0
  184.2810  175.5490  136.0120 C   0  0  0  0  0  2  0  0  0  0  0  0
  185.3020  174.9120  136.9440 C   0  0  0  0  0  2  0  0  0  0  0  0
  185.3040  173.0040  138.3430 O   0  0  0  0  0  1  0  0  0  0  0  0
  184.7530  170.8890  135.7200 N   0  0  0  0  0  0  0  0  0  0  0  0
  185.1850  173.3880  137.0040 C   0  0  1  0  0  0  0  0  0  0  0  0
  183.7940  172.9580  136.5120 C   0  0  0  0  0  2  0  0  0  0  0  0
  187.3510  172.2430  136.9720 O   0  0  0  0  0  1  0  0  0  0  0  0
  186.3270  172.7420  136.1630 C   0  0  1  0  0  3  0  0  0  0  0  0
  185.8580  171.6570  135.1800 C   0  0  0  0  0  2  0  0  0  0  0  0
  183.7730  171.4680  136.3220 C   0  0  0  0  0  3  0  0  0  0  0  0
  1  3  1  0  0  0  0
  2  1  1  0  0  0  0
  3  4  1  6  0  0  0
  3  9  1  0  0  0  0
  5 19  1  6  0  0  0
  5  2  1  0  0  0  0
  5  4  1  0  0  0  0
  6  7  1  0  0  0  0
  6 11  1  1  0  0  0
  7 18  1  0  0  0  0
  8 16  1  0  0  0  0
  8 13  1  0  0  0  0
  9 15  1  1  0  0  0
  9 17  1  0  0  0  0
 10 12  1  0  0  0  0
 12 14  1  0  0  0  0
 12  7  2  0  0  0  0
 14  8  2  0  0  0  0
 15 17  1  0  0  0  0
 17 10  1  6  0  0  0
 17  6  1  0  0  0  0
 18 13  2  0  0  0  0
 20 19  1  0  0  0  0
 21 22  1  0  0  0  0
 21 20  1  0  0  0  0
 22 24  1  0  0  0  0
 24 23  1  0  0  0  0
 25 20  1  0  0  0  0
 26 25  1  0  0  0  0
 27 26  1  0  0  0  0
 27 28  1  0  0  0  0
 28 31  1  0  0  0  0
 30 36  2  0  0  0  0
 31 29  1  1  0  0  0
 32 31  1  0  0  0  0
 34 33  1  1  0  0  0
 34 31  1  0  0  0  0
 35 30  1  0  0  0  0
 35 34  1  0  0  0  0
 36 32  1  0  0  0  0
M  END
>  <MODEL>
9

>  <REMARK>
 VINA RESULT:      -6.9      4.314     10.252
  Name = 
  11 active torsions:
  status: ('A' for Active; 'I' for Inactive)
    1  A    between atoms: C_3  and  C_17
    2  A    between atoms: C_3  and  C_19
    3  A    between atoms: C_4  and  C_5
    4  A    between atoms: C_4  and  N_23
    5  A    between atoms: C_5  and  C_31
    6  A    between atoms: N_9  and  C_12
    7  A    between atoms: C_15  and  C_19
    8  A    between atoms: C_15  and  C_20
    9  A    between atoms: C_20  and  N_23
   10  A    between atoms: N_23  and  C_28
   11  A    between atoms: C_25  and  C_28
                            x       y       z     vdW  Elec       q    Type
                         _______ _______ _______ _____ _____    ______ ____

>  <TORSDO>
F 11

$$$$
