=
 OpenBabel11062412143D

 55 60  0  0  1  0  0  0  0  0999 V2000
  184.3170  177.5930  138.0420 C   0  0  1  0  0  3  0  0  0  0  0  0
  183.2610  173.4430  137.4850 C   0  0  0  0  0  3  0  0  0  0  0  0
  185.2340  179.8310  137.7600 O   0  0  0  0  0  1  0  0  0  0  0  0
  185.0160  171.3790  136.4120 O   0  0  0  0  0  0  0  0  0  0  0  0
  181.9600  175.4610  134.6400 O   0  0  0  0  0  1  0  0  0  0  0  0
  182.3320  175.0830  135.9260 C   0  0  0  0  0  0  0  0  0  0  0  0
  190.8400  174.3740  134.6740 C   0  0  1  0  0  3  0  0  0  0  0  0
  185.2130  171.9280  135.2980 C   0  0  0  0  0  0  0  0  0  0  0  0
  186.8640  171.9120  134.5940 S   0  0  0  0  0  0  0  0  0  0  0  0
  189.0420  178.2860  135.9260 O   0  0  0  0  0  0  0  0  0  0  0  0
  184.9480  178.8300  138.7000 C   0  0  2  0  0  3  0  0  0  0  0  0
  189.6400  173.6190  135.2280 C   0  0  0  0  0  2  0  0  0  0  0  0
  188.2710  178.9720  138.1370 C   0  0  0  0  0  2  0  0  0  0  0  0
  189.8220  176.9790  137.4170 C   0  0  2  0  0  3  0  0  0  0  0  0
  188.8800  176.0460  138.1990 C   0  0  0  0  0  2  0  0  0  0  0  0
  182.8750  175.6990  138.2040 C   0  0  0  0  0  0  0  0  0  0  0  0
  188.0570  176.7770  139.2470 C   0  0  0  0  0  2  0  0  0  0  0  0
  184.1750  172.5630  134.5970 O   0  0  0  0  0  0  0  0  0  0  0  0
  183.3530  174.4170  138.4890 C   0  0  0  0  0  3  0  0  0  0  0  0
  182.0730  177.8740  138.3980 C   0  0  1  0  0  3  0  0  0  0  0  0
  188.4160  174.1140  134.6110 N   0  0  0  0  0  2  0  0  0  0  0  0
  183.1990  176.9840  138.9150 C   0  0  2  0  0  3  0  0  0  0  0  0
  186.2080  178.4430  139.4660 C   0  0  0  0  0  2  0  0  0  0  0  0
  182.1710  171.4300  135.4440 C   0  0  0  0  0  1  0  0  0  0  0  0
  190.4960  176.6490  135.0620 N   0  0  0  0  0  2  0  0  0  0  0  0
  182.7770  173.7670  136.1990 C   0  0  0  0  0  0  0  0  0  0  0  0
  191.1630  175.5070  135.5370 N   0  0  0  0  0  2  0  0  0  0  0  0
  189.4320  178.4510  137.2700 C   0  0  1  0  0  3  0  0  0  0  0  0
  187.2890  177.8820  138.5440 C   0  0  1  0  0  3  0  0  0  0  0  0
  182.3350  176.0160  136.9720 C   0  0  0  0  0  0  0  0  0  0  0  0
  182.3720  177.5150  136.9490 C   0  0  2  0  0  0  0  0  0  0  0  0
  182.8390  172.7540  135.0870 C   0  0  1  0  0  3  0  0  0  0  0  0
  187.3010  173.5200  135.3280 C   0  0  0  0  0  2  0  0  0  0  0  0
  189.3800  176.9190  135.9630 C   0  0  2  0  0  3  0  0  0  0  0  0
  183.7140  177.9080  136.7830 O   0  0  0  0  0  0  0  0  0  0  0  0
  181.5230  178.1140  136.0150 O   0  0  0  0  0  1  0  0  0  0  0  0
  193.6260  175.1650  134.6380 O   0  0  0  0  0  0  0  0  0  0  0  0
  193.3520  173.9350  134.6590 C   0  0  0  0  0  0  0  0  0  0  0  0
  191.9960  173.4860  134.6450 N   0  0  0  0  0  2  0  0  0  0  0  0
  194.4400  172.9270  134.8150 C   0  0  0  0  0  2  0  0  0  0  0  0
  194.2550  172.1570  136.0470 N   0  0  0  0  0  2  0  0  0  0  0  0
  195.9620  170.6830  137.0360 C   0  0  0  0  0  1  0  0  0  0  0  0
  195.2950  172.7740  138.2120 C   0  0  0  0  0  1  0  0  0  0  0  0
  195.4840  172.1160  136.8480 C   0  0  0  0  0  0  0  0  0  0  0  0
  196.5600  172.8870  136.1060 C   0  0  0  0  0  1  0  0  0  0  0  0
  180.7860  177.4450  138.7980 O   0  0  0  0  0  0  0  0  0  0  0  0
  179.3520  179.2660  138.3280 C   0  0  0  0  0  1  0  0  0  0  0  0
  180.1520  178.5430  139.4040 C   0  0  2  0  0  3  0  0  0  0  0  0
  181.1680  179.4920  140.0330 C   0  0  0  0  0  2  0  0  0  0  0  0
  182.2580  178.4850  141.9070 O   0  0  0  0  0  0  0  0  0  0  0  0
  181.3030  179.1940  141.4900 C   0  0  0  0  0  0  0  0  0  0  0  0
  179.6780  178.7960  143.3670 C   0  0  0  0  0  0  0  0  0  0  0  0
  179.7180  177.5410  143.2320 O   0  0  0  0  0  0  0  0  0  0  0  0
  180.2860  179.6480  142.3870 N   0  0  0  0  0  2  0  0  0  0  0  0
  178.9310  179.3680  144.4360 N   0  0  0  0  0  1  0  0  0  0  0  0
  1 35  1  6  0  0  0
  1 11  1  0  0  0  0
  1 22  1  0  0  0  0
  2 19  1  0  0  0  0
  5  6  1  0  0  0  0
  6 26  1  0  0  0  0
  6 30  2  0  0  0  0
  7 39  1  1  0  0  0
  7 12  1  0  0  0  0
  7 27  1  0  0  0  0
  8  4  2  0  0  0  0
  9  8  1  0  0  0  0
  9 33  1  0  0  0  0
 10 34  1  0  0  0  0
 10 28  1  0  0  0  0
 11  3  1  6  0  0  0
 11 23  1  0  0  0  0
 14 15  1  1  0  0  0
 15 17  1  0  0  0  0
 16 19  2  0  0  0  0
 18 32  1  0  0  0  0
 18  8  1  0  0  0  0
 20 46  1  1  0  0  0
 20 22  1  0  0  0  0
 21 12  1  0  0  0  0
 21 33  1  0  0  0  0
 22 16  1  6  0  0  0
 25 27  1  0  0  0  0
 26  2  2  0  0  0  0
 28 14  1  0  0  0  0
 28 13  1  1  0  0  0
 29 13  1  1  0  0  0
 29 17  1  0  0  0  0
 29 23  1  0  0  0  0
 30 16  1  0  0  0  0
 31 36  1  6  0  0  0
 31 30  1  0  0  0  0
 31 20  1  0  0  0  0
 32 24  1  1  0  0  0
 32 26  1  0  0  0  0
 34 25  1  6  0  0  0
 34 14  1  0  0  0  0
 35 31  1  0  0  0  0
 37 38  2  0  0  0  0
 38 40  1  0  0  0  0
 39 38  1  0  0  0  0
 40 41  1  0  0  0  0
 41 44  1  0  0  0  0
 44 42  1  0  0  0  0
 44 43  1  0  0  0  0
 45 44  1  0  0  0  0
 46 48  1  0  0  0  0
 48 47  1  6  0  0  0
 48 49  1  0  0  0  0
 49 51  1  0  0  0  0
 51 50  2  0  0  0  0
 51 54  1  0  0  0  0
 52 55  1  0  0  0  0
 53 52  2  0  0  0  0
 54 52  1  0  0  0  0
M  END
>  <MODEL>
1

>  <REMARK>
 VINA RESULT:      -4.2      0.000      0.000
  Name = 
  8 active torsions:
  status: ('A' for Active; 'I' for Inactive)
    1  A    between atoms: O_6  and  C_27
    2  A    between atoms: O_6  and  C_44
    3  A    between atoms: C_10  and  C_53
    4  A    between atoms: C_11  and  N_47
    5  A    between atoms: N_19  and  C_33
    6  A    between atoms: N_19  and  C_51
    7  A    between atoms: C_33  and  C_45
    8  A    between atoms: C_44  and  C_53
                            x       y       z     vdW  Elec       q    Type
                         _______ _______ _______ _____ _____    ______ ____

>  <TORSDO>
F 8

$$$$
=
 OpenBabel11062412143D

 55 60  0  0  1  0  0  0  0  0999 V2000
  183.3480  177.0560  137.3500 C   0  0  1  0  0  3  0  0  0  0  0  0
  184.8440  179.7870  140.3420 C   0  0  0  0  0  3  0  0  0  0  0  0
  182.9440  175.0900  135.9700 O   0  0  0  0  0  1  0  0  0  0  0  0
  187.6120  179.9670  141.2370 O   0  0  0  0  0  0  0  0  0  0  0  0
  183.2730  176.8460  142.0000 O   0  0  0  0  0  1  0  0  0  0  0  0
  183.5180  177.8730  141.0940 C   0  0  0  0  0  0  0  0  0  0  0  0
  191.1000  175.1290  138.0220 C   0  0  1  0  0  3  0  0  0  0  0  0
  187.7030  178.7820  141.6480 C   0  0  0  0  0  0  0  0  0  0  0  0
  189.2030  177.8540  141.3160 S   0  0  0  0  0  0  0  0  0  0  0  0
  187.2620  173.8290  136.1030 O   0  0  0  0  0  0  0  0  0  0  0  0
  183.0600  176.4880  135.9510 C   0  0  2  0  0  3  0  0  0  0  0  0
  190.4160  176.3530  138.6150 C   0  0  0  0  0  2  0  0  0  0  0  0
  185.8100  175.0820  134.5950 C   0  0  0  0  0  2  0  0  0  0  0  0
  188.3000  175.5120  135.3090 C   0  0  2  0  0  3  0  0  0  0  0  0
  187.8760  176.9390  135.6990 C   0  0  0  0  0  2  0  0  0  0  0  0
  183.1620  178.8530  138.9080 C   0  0  0  0  0  0  0  0  0  0  0  0
  186.5950  177.3850  135.0140 C   0  0  0  0  0  2  0  0  0  0  0  0
  186.6560  178.1650  142.3510 O   0  0  0  0  0  0  0  0  0  0  0  0
  184.1870  179.7820  139.1030 C   0  0  0  0  0  3  0  0  0  0  0  0
  181.2920  177.7330  138.0950 C   0  0  1  0  0  3  0  0  0  0  0  0
  189.2750  175.9400  139.4230 N   0  0  0  0  0  2  0  0  0  0  0  0
  182.5860  178.3740  137.6040 C   0  0  2  0  0  3  0  0  0  0  0  0
  184.1400  176.9200  134.9670 C   0  0  0  0  0  2  0  0  0  0  0  0
  185.4600  180.0680  143.3340 C   0  0  0  0  0  1  0  0  0  0  0  0
  189.5100  173.9460  136.7900 N   0  0  0  0  0  2  0  0  0  0  0  0
  184.5370  178.8280  141.3320 C   0  0  0  0  0  0  0  0  0  0  0  0
  190.5750  174.8580  136.6860 N   0  0  0  0  0  2  0  0  0  0  0  0
  187.2170  174.5220  134.8770 C   0  0  1  0  0  3  0  0  0  0  0  0
  185.5150  176.3720  135.3480 C   0  0  1  0  0  3  0  0  0  0  0  0
  182.8020  177.9510  139.8910 C   0  0  0  0  0  0  0  0  0  0  0  0
  182.0270  176.9080  139.1430 C   0  0  2  0  0  0  0  0  0  0  0  0
  185.3630  178.7410  142.5870 C   0  0  1  0  0  3  0  0  0  0  0  0
  188.5400  177.1400  139.7770 C   0  0  0  0  0  2  0  0  0  0  0  0
  188.2690  174.6870  136.5860 C   0  0  2  0  0  3  0  0  0  0  0  0
  182.9430  176.1540  138.3840 O   0  0  0  0  0  0  0  0  0  0  0  0
  181.2010  176.1040  139.9320 O   0  0  0  0  0  1  0  0  0  0  0  0
  193.1050  173.3090  136.9950 O   0  0  0  0  0  0  0  0  0  0  0  0
  193.4700  174.4610  137.3550 C   0  0  0  0  0  0  0  0  0  0  0  0
  192.5290  175.3900  137.8990 N   0  0  0  0  0  2  0  0  0  0  0  0
  194.8690  174.9160  137.1120 C   0  0  0  0  0  2  0  0  0  0  0  0
  195.6630  173.8390  136.5170 N   0  0  0  0  0  2  0  0  0  0  0  0
  197.6860  172.4600  136.7880 C   0  0  0  0  0  1  0  0  0  0  0  0
  197.0330  174.0700  138.5720 C   0  0  0  0  0  1  0  0  0  0  0  0
  197.0230  173.8020  137.0700 C   0  0  0  0  0  0  0  0  0  0  0  0
  197.8390  174.8900  136.3980 C   0  0  0  0  0  1  0  0  0  0  0  0
  180.3920  178.6550  138.6790 O   0  0  0  0  0  0  0  0  0  0  0  0
  179.2290  177.5880  136.9170 C   0  0  0  0  0  1  0  0  0  0  0  0
  179.3450  178.8500  137.7610 C   0  0  2  0  0  3  0  0  0  0  0  0
  179.6090  180.0600  136.8690 C   0  0  0  0  0  2  0  0  0  0  0  0
  178.9560  181.6460  138.5330 O   0  0  0  0  0  0  0  0  0  0  0  0
  179.8360  181.2700  137.7130 C   0  0  0  0  0  0  0  0  0  0  0  0
  181.0040  183.4700  137.3660 C   0  0  0  0  0  0  0  0  0  0  0  0
  179.9440  184.0610  137.0200 O   0  0  0  0  0  0  0  0  0  0  0  0
  181.0220  182.0440  137.5110 N   0  0  0  0  0  2  0  0  0  0  0  0
  182.2130  184.2110  137.5030 N   0  0  0  0  0  1  0  0  0  0  0  0
  1 22  1  0  0  0  0
  1 35  1  1  0  0  0
  2 26  1  0  0  0  0
  4  8  2  0  0  0  0
  6 26  2  0  0  0  0
  6  5  1  0  0  0  0
  7 39  1  6  0  0  0
  7 12  1  0  0  0  0
  8 18  1  0  0  0  0
  9  8  1  0  0  0  0
 11  3  1  1  0  0  0
 11  1  1  0  0  0  0
 12 21  1  0  0  0  0
 14 15  1  1  0  0  0
 14 34  1  0  0  0  0
 16 19  1  0  0  0  0
 16 30  2  0  0  0  0
 17 29  1  0  0  0  0
 17 15  1  0  0  0  0
 18 32  1  0  0  0  0
 19  2  2  0  0  0  0
 20 46  1  1  0  0  0
 20 31  1  0  0  0  0
 21 33  1  0  0  0  0
 22 20  1  0  0  0  0
 22 16  1  1  0  0  0
 23 29  1  0  0  0  0
 23 11  1  0  0  0  0
 26 32  1  0  0  0  0
 27 25  1  0  0  0  0
 27  7  1  0  0  0  0
 28 13  1  1  0  0  0
 28 14  1  0  0  0  0
 28 10  1  0  0  0  0
 29 13  1  6  0  0  0
 30  6  1  0  0  0  0
 31 30  1  0  0  0  0
 31 36  1  1  0  0  0
 32 24  1  6  0  0  0
 33  9  1  0  0  0  0
 34 10  1  6  0  0  0
 34 25  1  0  0  0  0
 35 31  1  0  0  0  0
 37 38  2  0  0  0  0
 38 39  1  0  0  0  0
 40 38  1  0  0  0  0
 41 44  1  0  0  0  0
 41 40  1  0  0  0  0
 42 44  1  0  0  0  0
 44 43  1  0  0  0  0
 45 44  1  0  0  0  0
 48 47  1  6  0  0  0
 48 46  1  0  0  0  0
 49 51  1  0  0  0  0
 49 48  1  0  0  0  0
 51 50  2  0  0  0  0
 52 55  1  0  0  0  0
 52 54  1  0  0  0  0
 53 52  2  0  0  0  0
 54 51  1  0  0  0  0
M  END
>  <MODEL>
2

>  <REMARK>
 VINA RESULT:      -4.0      3.072      5.455
  Name = 
  8 active torsions:
  status: ('A' for Active; 'I' for Inactive)
    1  A    between atoms: O_6  and  C_27
    2  A    between atoms: O_6  and  C_44
    3  A    between atoms: C_10  and  C_53
    4  A    between atoms: C_11  and  N_47
    5  A    between atoms: N_19  and  C_33
    6  A    between atoms: N_19  and  C_51
    7  A    between atoms: C_33  and  C_45
    8  A    between atoms: C_44  and  C_53
                            x       y       z     vdW  Elec       q    Type
                         _______ _______ _______ _____ _____    ______ ____

>  <TORSDO>
F 8

$$$$
=
 OpenBabel11062412143D

 55 60  0  0  1  0  0  0  0  0999 V2000
  184.6040  177.5760  137.9770 C   0  0  1  0  0  3  0  0  0  0  0  0
  183.3290  173.4820  137.4690 C   0  0  0  0  0  3  0  0  0  0  0  0
  185.6390  179.7590  137.6690 O   0  0  0  0  0  1  0  0  0  0  0  0
  184.9720  171.3140  136.4240 O   0  0  0  0  0  0  0  0  0  0  0  0
  182.1390  175.5320  134.5990 O   0  0  0  0  0  1  0  0  0  0  0  0
  182.4900  175.1510  135.8900 C   0  0  0  0  0  0  0  0  0  0  0  0
  190.9480  173.9740  134.6560 C   0  0  1  0  0  3  0  0  0  0  0  0
  185.1980  171.8390  135.3030 C   0  0  0  0  0  0  0  0  0  0  0  0
  186.8460  171.7260  134.6010 S   0  0  0  0  0  0  0  0  0  0  0  0
  189.3610  177.9900  135.8580 O   0  0  0  0  0  0  0  0  0  0  0  0
  185.3000  178.7860  138.6200 C   0  0  2  0  0  3  0  0  0  0  0  0
  189.7090  173.2900  135.2180 C   0  0  0  0  0  2  0  0  0  0  0  0
  188.6260  178.7440  138.0600 C   0  0  0  0  0  2  0  0  0  0  0  0
  190.0690  176.6620  137.3660 C   0  0  2  0  0  3  0  0  0  0  0  0
  189.0790  175.7900  138.1590 C   0  0  0  0  0  2  0  0  0  0  0  0
  183.0630  175.7640  138.1610 C   0  0  0  0  0  0  0  0  0  0  0  0
  188.2950  176.5770  139.1960 C   0  0  0  0  0  2  0  0  0  0  0  0
  184.1950  172.5200  134.5940 O   0  0  0  0  0  0  0  0  0  0  0  0
  183.4720  174.4620  138.4620 C   0  0  0  0  0  3  0  0  0  0  0  0
  182.3780  177.9810  138.3270 C   0  0  1  0  0  3  0  0  0  0  0  0
  188.5130  173.8420  134.5940 N   0  0  0  0  0  2  0  0  0  0  0  0
  183.4550  177.0390  138.8560 C   0  0  2  0  0  3  0  0  0  0  0  0
  186.5370  178.3420  139.3920 C   0  0  0  0  0  2  0  0  0  0  0  0
  182.1330  171.5050  135.4520 C   0  0  0  0  0  1  0  0  0  0  0  0
  190.7250  176.2680  135.0160 N   0  0  0  0  0  2  0  0  0  0  0  0
  182.8640  173.8150  136.1790 C   0  0  0  0  0  0  0  0  0  0  0  0
  191.3310  175.0980  135.5060 N   0  0  0  0  0  2  0  0  0  0  0  0
  189.7590  178.1510  137.2000 C   0  0  1  0  0  3  0  0  0  0  0  0
  187.5870  177.7120  138.4790 C   0  0  1  0  0  3  0  0  0  0  0  0
  182.5420  176.0940  136.9240 C   0  0  0  0  0  0  0  0  0  0  0  0
  182.6590  177.5890  136.8820 C   0  0  2  0  0  0  0  0  0  0  0  0
  182.8720  172.7870  135.0790 C   0  0  1  0  0  3  0  0  0  0  0  0
  187.3680  173.3180  135.3160 C   0  0  0  0  0  2  0  0  0  0  0  0
  189.6250  176.6080  135.9120 C   0  0  2  0  0  3  0  0  0  0  0  0
  184.0200  177.9080  136.7140 O   0  0  0  0  0  0  0  0  0  0  0  0
  181.8430  178.2210  135.9410 O   0  0  0  0  0  1  0  0  0  0  0  0
  193.7310  174.5560  135.2040 O   0  0  0  0  0  0  0  0  0  0  0  0
  193.4080  173.3650  134.9490 C   0  0  0  0  0  0  0  0  0  0  0  0
  192.0550  173.0250  134.6390 N   0  0  0  0  0  2  0  0  0  0  0  0
  194.4120  172.2700  135.0780 C   0  0  0  0  0  2  0  0  0  0  0  0
  194.4730  171.7910  136.4610 N   0  0  0  0  0  2  0  0  0  0  0  0
  196.0540  172.7940  138.0610 C   0  0  0  0  0  1  0  0  0  0  0  0
  196.8670  172.0010  135.8450 C   0  0  0  0  0  1  0  0  0  0  0  0
  195.8540  171.7610  136.9610 C   0  0  0  0  0  0  0  0  0  0  0  0
  196.1190  170.3840  137.5410 C   0  0  0  0  0  1  0  0  0  0  0  0
  181.0700  177.6260  138.7310 O   0  0  0  0  0  0  0  0  0  0  0  0
  180.5360  177.2640  141.0060 C   0  0  0  0  0  1  0  0  0  0  0  0
  180.8070  178.3090  139.9310 C   0  0  2  0  0  3  0  0  0  0  0  0
  179.6060  179.2410  139.7860 C   0  0  0  0  0  2  0  0  0  0  0  0
  179.7310  181.3190  140.9590 O   0  0  0  0  0  0  0  0  0  0  0  0
  180.0480  180.6590  139.9330 C   0  0  0  0  0  0  0  0  0  0  0  0
  180.4040  182.5710  138.3390 C   0  0  0  0  0  0  0  0  0  0  0  0
  179.2480  183.0400  138.5300 O   0  0  0  0  0  0  0  0  0  0  0  0
  180.7550  181.2800  138.8560 N   0  0  0  0  0  2  0  0  0  0  0  0
  181.3260  183.2760  137.5130 N   0  0  0  0  0  1  0  0  0  0  0  0
  1 35  1  6  0  0  0
  1 11  1  0  0  0  0
  1 22  1  0  0  0  0
  2 19  1  0  0  0  0
  5  6  1  0  0  0  0
  6 26  1  0  0  0  0
  6 30  2  0  0  0  0
  7 39  1  1  0  0  0
  7 12  1  0  0  0  0
  7 27  1  0  0  0  0
  8  4  2  0  0  0  0
  9  8  1  0  0  0  0
  9 33  1  0  0  0  0
 10 34  1  0  0  0  0
 10 28  1  0  0  0  0
 11  3  1  6  0  0  0
 11 23  1  0  0  0  0
 14 15  1  1  0  0  0
 15 17  1  0  0  0  0
 16 19  2  0  0  0  0
 18 32  1  0  0  0  0
 18  8  1  0  0  0  0
 20 46  1  1  0  0  0
 20 22  1  0  0  0  0
 21 12  1  0  0  0  0
 21 33  1  0  0  0  0
 22 16  1  6  0  0  0
 25 27  1  0  0  0  0
 26  2  2  0  0  0  0
 28 14  1  0  0  0  0
 28 13  1  1  0  0  0
 29 13  1  1  0  0  0
 29 17  1  0  0  0  0
 29 23  1  0  0  0  0
 30 16  1  0  0  0  0
 31 36  1  6  0  0  0
 31 30  1  0  0  0  0
 31 20  1  0  0  0  0
 32 24  1  1  0  0  0
 32 26  1  0  0  0  0
 34 25  1  6  0  0  0
 34 14  1  0  0  0  0
 35 31  1  0  0  0  0
 38 40  1  0  0  0  0
 38 37  2  0  0  0  0
 39 38  1  0  0  0  0
 40 41  1  0  0  0  0
 41 44  1  0  0  0  0
 43 44  1  0  0  0  0
 44 45  1  0  0  0  0
 44 42  1  0  0  0  0
 46 48  1  0  0  0  0
 48 47  1  1  0  0  0
 49 48  1  0  0  0  0
 49 51  1  0  0  0  0
 51 50  2  0  0  0  0
 52 53  2  0  0  0  0
 52 54  1  0  0  0  0
 54 51  1  0  0  0  0
 55 52  1  0  0  0  0
M  END
>  <MODEL>
3

>  <REMARK>
 VINA RESULT:      -3.9      1.543      2.101
  Name = 
  8 active torsions:
  status: ('A' for Active; 'I' for Inactive)
    1  A    between atoms: O_6  and  C_27
    2  A    between atoms: O_6  and  C_44
    3  A    between atoms: C_10  and  C_53
    4  A    between atoms: C_11  and  N_47
    5  A    between atoms: N_19  and  C_33
    6  A    between atoms: N_19  and  C_51
    7  A    between atoms: C_33  and  C_45
    8  A    between atoms: C_44  and  C_53
                            x       y       z     vdW  Elec       q    Type
                         _______ _______ _______ _____ _____    ______ ____

>  <TORSDO>
F 8

$$$$
=
 OpenBabel11062412143D

 55 60  0  0  1  0  0  0  0  0999 V2000
  184.5090  178.4320  141.4200 C   0  0  1  0  0  3  0  0  0  0  0  0
  183.4800  175.6250  138.3040 C   0  0  0  0  0  3  0  0  0  0  0  0
  185.5770  180.1880  142.7280 O   0  0  0  0  0  1  0  0  0  0  0  0
  185.3800  174.1580  136.6520 O   0  0  0  0  0  0  0  0  0  0  0  0
  183.2360  179.1010  136.9920 O   0  0  0  0  0  1  0  0  0  0  0  0
  183.1680  178.0090  137.8520 C   0  0  0  0  0  0  0  0  0  0  0  0
  191.5940  176.2300  138.3850 C   0  0  1  0  0  3  0  0  0  0  0  0
  185.9430  175.1670  136.1560 C   0  0  0  0  0  0  0  0  0  0  0  0
  187.7280  175.1730  135.9740 S   0  0  0  0  0  0  0  0  0  0  0  0
  189.6880  179.0990  141.2550 O   0  0  0  0  0  0  0  0  0  0  0  0
  184.9620  178.9300  142.8020 C   0  0  2  0  0  3  0  0  0  0  0  0
  190.2460  175.5840  138.0990 C   0  0  0  0  0  2  0  0  0  0  0  0
  188.2970  178.6130  143.2000 C   0  0  0  0  0  2  0  0  0  0  0  0
  189.8960  177.0540  141.8180 C   0  0  2  0  0  3  0  0  0  0  0  0
  188.7130  176.0830  141.6620 C   0  0  0  0  0  2  0  0  0  0  0  0
  182.9990  177.1370  140.1050 C   0  0  0  0  0  0  0  0  0  0  0  0
  187.6400  176.2830  142.7190 C   0  0  0  0  0  2  0  0  0  0  0  0
  185.2080  176.2940  135.7530 O   0  0  0  0  0  0  0  0  0  0  0  0
  183.3000  175.8410  139.6780 C   0  0  0  0  0  3  0  0  0  0  0  0
  182.2840  178.9640  141.3550 C   0  0  1  0  0  3  0  0  0  0  0  0
  189.3020  176.5930  137.6350 N   0  0  0  0  0  2  0  0  0  0  0  0
  183.1460  177.7120  141.4860 C   0  0  2  0  0  3  0  0  0  0  0  0
  185.8980  177.9170  143.4530 C   0  0  0  0  0  2  0  0  0  0  0  0
  182.9870  175.3630  135.2890 C   0  0  0  0  0  1  0  0  0  0  0  0
  191.2570  177.9290  139.9490 N   0  0  0  0  0  2  0  0  0  0  0  0
  183.4400  176.6990  137.3880 C   0  0  0  0  0  0  0  0  0  0  0  0
  191.6850  176.5990  139.7950 N   0  0  0  0  0  2  0  0  0  0  0  0
  189.6450  178.4090  142.4830 C   0  0  1  0  0  3  0  0  0  0  0  0
  187.1850  177.7290  142.6510 C   0  0  1  0  0  3  0  0  0  0  0  0
  182.8890  178.1870  139.2140 C   0  0  0  0  0  0  0  0  0  0  0  0
  183.0040  179.4010  140.0860 C   0  0  2  0  0  0  0  0  0  0  0  0
  183.7980  176.4770  135.9430 C   0  0  1  0  0  3  0  0  0  0  0  0
  187.9920  175.9700  137.5900 C   0  0  0  0  0  2  0  0  0  0  0  0
  189.9300  177.9010  140.5550 C   0  0  2  0  0  3  0  0  0  0  0  0
  184.3480  179.5100  140.4940 O   0  0  0  0  0  0  0  0  0  0  0  0
  182.5210  180.5850  139.5240 O   0  0  0  0  0  1  0  0  0  0  0  0
  193.8590  176.6350  136.6270 O   0  0  0  0  0  0  0  0  0  0  0  0
  193.7680  175.5400  137.2440 C   0  0  0  0  0  0  0  0  0  0  0  0
  192.6560  175.2720  138.1000 N   0  0  0  0  0  2  0  0  0  0  0  0
  194.8810  174.5490  137.1820 C   0  0  0  0  0  2  0  0  0  0  0  0
  196.1780  175.2270  137.2380 N   0  0  0  0  0  2  0  0  0  0  0  0
  198.3660  174.5070  136.3660 C   0  0  0  0  0  1  0  0  0  0  0  0
  197.0560  176.2410  135.1520 C   0  0  0  0  0  1  0  0  0  0  0  0
  196.9640  174.9900  136.0210 C   0  0  0  0  0  0  0  0  0  0  0  0
  196.2710  173.9110  135.2100 C   0  0  0  0  0  1  0  0  0  0  0  0
  180.9170  178.6850  141.1220 O   0  0  0  0  0  0  0  0  0  0  0  0
  179.9030  180.1040  142.7180 C   0  0  0  0  0  1  0  0  0  0  0  0
  180.2190  179.8980  141.2430 C   0  0  2  0  0  3  0  0  0  0  0  0
  178.9310  179.8810  140.4240 C   0  0  0  0  0  2  0  0  0  0  0  0
  179.6190  179.8990  138.1360 O   0  0  0  0  0  0  0  0  0  0  0  0
  179.1580  180.5520  139.1100 C   0  0  0  0  0  0  0  0  0  0  0  0
  179.8790  182.8560  138.4060 C   0  0  0  0  0  0  0  0  0  0  0  0
  181.0930  182.5240  138.3090 O   0  0  0  0  0  0  0  0  0  0  0  0
  178.9310  181.9600  139.0020 N   0  0  0  0  0  2  0  0  0  0  0  0
  179.4710  184.1670  138.0260 N   0  0  0  0  0  1  0  0  0  0  0  0
  1 35  1  6  0  0  0
  1 22  1  0  0  0  0
  1 11  1  0  0  0  0
  2 19  1  0  0  0  0
  5  6  1  0  0  0  0
  6 30  2  0  0  0  0
  7 39  1  1  0  0  0
  7 27  1  0  0  0  0
  8  4  2  0  0  0  0
  9  8  1  0  0  0  0
  9 33  1  0  0  0  0
 10 28  1  0  0  0  0
 11  3  1  6  0  0  0
 11 23  1  0  0  0  0
 12  7  1  0  0  0  0
 14 15  1  6  0  0  0
 14 28  1  0  0  0  0
 15 17  1  0  0  0  0
 18 32  1  0  0  0  0
 18  8  1  0  0  0  0
 19 16  2  0  0  0  0
 20 46  1  6  0  0  0
 20 22  1  0  0  0  0
 21 12  1  0  0  0  0
 22 16  1  6  0  0  0
 26  6  1  0  0  0  0
 26  2  2  0  0  0  0
 27 25  1  0  0  0  0
 28 13  1  6  0  0  0
 29 17  1  1  0  0  0
 29 13  1  0  0  0  0
 29 23  1  0  0  0  0
 30 31  1  0  0  0  0
 30 16  1  0  0  0  0
 31 36  1  6  0  0  0
 31 35  1  0  0  0  0
 31 20  1  0  0  0  0
 32 24  1  1  0  0  0
 32 26  1  0  0  0  0
 33 21  1  0  0  0  0
 34 25  1  1  0  0  0
 34 10  1  0  0  0  0
 34 14  1  0  0  0  0
 37 38  2  0  0  0  0
 38 39  1  0  0  0  0
 40 41  1  0  0  0  0
 40 38  1  0  0  0  0
 43 44  1  0  0  0  0
 44 42  1  0  0  0  0
 44 41  1  0  0  0  0
 45 44  1  0  0  0  0
 46 48  1  0  0  0  0
 48 47  1  1  0  0  0
 49 48  1  0  0  0  0
 50 51  2  0  0  0  0
 51 49  1  0  0  0  0
 52 54  1  0  0  0  0
 53 52  2  0  0  0  0
 54 51  1  0  0  0  0
 55 52  1  0  0  0  0
M  END
>  <MODEL>
4

>  <REMARK>
 VINA RESULT:      -3.4      2.962      4.082
  Name = 
  8 active torsions:
  status: ('A' for Active; 'I' for Inactive)
    1  A    between atoms: O_6  and  C_27
    2  A    between atoms: O_6  and  C_44
    3  A    between atoms: C_10  and  C_53
    4  A    between atoms: C_11  and  N_47
    5  A    between atoms: N_19  and  C_33
    6  A    between atoms: N_19  and  C_51
    7  A    between atoms: C_33  and  C_45
    8  A    between atoms: C_44  and  C_53
                            x       y       z     vdW  Elec       q    Type
                         _______ _______ _______ _____ _____    ______ ____

>  <TORSDO>
F 8

$$$$
=
 OpenBabel11062412143D

 55 60  0  0  1  0  0  0  0  0999 V2000
  184.1340  177.9170  139.5280 C   0  0  1  0  0  3  0  0  0  0  0  0
  183.7040  174.0560  137.6410 C   0  0  0  0  0  3  0  0  0  0  0  0
  184.8710  180.1610  140.1220 O   0  0  0  0  0  1  0  0  0  0  0  0
  185.8910  172.3850  136.6860 O   0  0  0  0  0  0  0  0  0  0  0  0
  183.1170  176.7500  135.1380 O   0  0  0  0  0  1  0  0  0  0  0  0
  183.1250  176.0440  136.3370 C   0  0  0  0  0  0  0  0  0  0  0  0
  191.6470  175.8220  137.6730 C   0  0  1  0  0  3  0  0  0  0  0  0
  186.3560  173.2180  135.8660 C   0  0  0  0  0  0  0  0  0  0  0  0
  188.1350  173.4160  135.7340 S   0  0  0  0  0  0  0  0  0  0  0  0
  189.1840  179.2240  139.2430 O   0  0  0  0  0  0  0  0  0  0  0  0
  184.4170  178.9390  140.6400 C   0  0  2  0  0  3  0  0  0  0  0  0
  190.4160  174.9280  137.6140 C   0  0  0  0  0  2  0  0  0  0  0  0
  187.7270  179.2760  141.2000 C   0  0  0  0  0  2  0  0  0  0  0  0
  189.6090  177.5730  140.5230 C   0  0  2  0  0  3  0  0  0  0  0  0
  188.5730  176.4500  140.7100 C   0  0  0  0  0  2  0  0  0  0  0  0
  182.9020  176.0290  138.7480 C   0  0  0  0  0  0  0  0  0  0  0  0
  187.4080  176.8600  141.5960 C   0  0  0  0  0  2  0  0  0  0  0  0
  185.5160  174.0030  135.0600 O   0  0  0  0  0  0  0  0  0  0  0  0
  183.3970  174.7250  138.8350 C   0  0  0  0  0  3  0  0  0  0  0  0
  181.8700  178.0590  139.2230 C   0  0  1  0  0  3  0  0  0  0  0  0
  189.3880  175.5530  136.7910 N   0  0  0  0  0  2  0  0  0  0  0  0
  182.8730  177.0790  139.8240 C   0  0  2  0  0  3  0  0  0  0  0  0
  185.4240  178.3770  141.6380 C   0  0  0  0  0  2  0  0  0  0  0  0
  183.4720  172.6550  134.9230 C   0  0  0  0  0  1  0  0  0  0  0  0
  190.9820  177.9030  138.4940 N   0  0  0  0  0  2  0  0  0  0  0  0
  183.5950  174.7090  136.3940 C   0  0  0  0  0  0  0  0  0  0  0  0
  191.5860  176.6840  138.8500 N   0  0  0  0  0  2  0  0  0  0  0  0
  189.1390  179.0250  140.6380 C   0  0  1  0  0  3  0  0  0  0  0  0
  186.7800  178.1020  140.9900 C   0  0  1  0  0  3  0  0  0  0  0  0
  182.7250  176.6590  137.5310 C   0  0  0  0  0  0  0  0  0  0  0  0
  182.6210  178.1090  137.8990 C   0  0  2  0  0  0  0  0  0  0  0  0
  184.0840  174.0350  135.1390 C   0  0  1  0  0  3  0  0  0  0  0  0
  188.1750  174.7720  136.9490 C   0  0  0  0  0  2  0  0  0  0  0  0
  189.6270  177.9030  139.0380 C   0  0  2  0  0  3  0  0  0  0  0  0
  183.9060  178.5520  138.2670 O   0  0  0  0  0  0  0  0  0  0  0  0
  182.0340  178.9260  136.9300 O   0  0  0  0  0  1  0  0  0  0  0  0
  193.3210  174.9070  135.4950 O   0  0  0  0  0  0  0  0  0  0  0  0
  193.6460  174.5950  136.6720 C   0  0  0  0  0  0  0  0  0  0  0  0
  192.8390  174.9920  137.7830 N   0  0  0  0  0  2  0  0  0  0  0  0
  194.9410  173.9030  136.9350 C   0  0  0  0  0  2  0  0  0  0  0  0
  195.6950  173.7340  135.6910 N   0  0  0  0  0  2  0  0  0  0  0  0
  197.6630  174.1760  137.1040 C   0  0  0  0  0  1  0  0  0  0  0  0
  196.8760  175.9060  135.4960 C   0  0  0  0  0  1  0  0  0  0  0  0
  196.9980  174.4070  135.7540 C   0  0  0  0  0  0  0  0  0  0  0  0
  197.8890  173.8210  134.6750 C   0  0  0  0  0  1  0  0  0  0  0  0
  180.5710  177.5190  139.0790 O   0  0  0  0  0  0  0  0  0  0  0  0
  178.9310  178.9590  138.1680 C   0  0  0  0  0  1  0  0  0  0  0  0
  179.6600  178.5280  139.4340 C   0  0  2  0  0  3  0  0  0  0  0  0
  180.3740  179.7220  140.0640 C   0  0  0  0  0  2  0  0  0  0  0  0
  180.0420  180.9400  142.0930 O   0  0  0  0  0  0  0  0  0  0  0  0
  180.0070  179.8250  141.5070 C   0  0  0  0  0  0  0  0  0  0  0  0
  180.2850  178.3290  143.5090 C   0  0  0  0  0  0  0  0  0  0  0  0
  181.3590  178.8870  143.8680 O   0  0  0  0  0  0  0  0  0  0  0  0
  179.7050  178.6290  142.2330 N   0  0  0  0  0  2  0  0  0  0  0  0
  179.7090  177.3140  144.3260 N   0  0  0  0  0  1  0  0  0  0  0  0
  1 35  1  6  0  0  0
  1 22  1  0  0  0  0
  1 11  1  0  0  0  0
  2 19  1  0  0  0  0
  5  6  1  0  0  0  0
  6 26  1  0  0  0  0
  6 30  2  0  0  0  0
  7 39  1  1  0  0  0
  7 27  1  0  0  0  0
  8  4  2  0  0  0  0
  9  8  1  0  0  0  0
  9 33  1  0  0  0  0
 10 28  1  0  0  0  0
 11  3  1  6  0  0  0
 11 23  1  0  0  0  0
 12  7  1  0  0  0  0
 14 28  1  0  0  0  0
 14 15  1  6  0  0  0
 15 17  1  0  0  0  0
 16 19  2  0  0  0  0
 18 32  1  0  0  0  0
 18  8  1  0  0  0  0
 20 46  1  6  0  0  0
 20 22  1  0  0  0  0
 21 33  1  0  0  0  0
 21 12  1  0  0  0  0
 22 16  1  6  0  0  0
 25 27  1  0  0  0  0
 26  2  2  0  0  0  0
 28 13  1  6  0  0  0
 29 13  1  1  0  0  0
 29 17  1  0  0  0  0
 29 23  1  0  0  0  0
 30 31  1  0  0  0  0
 30 16  1  0  0  0  0
 31 36  1  6  0  0  0
 31 35  1  0  0  0  0
 31 20  1  0  0  0  0
 32 24  1  1  0  0  0
 32 26  1  0  0  0  0
 34 25  1  1  0  0  0
 34 10  1  0  0  0  0
 34 14  1  0  0  0  0
 37 38  2  0  0  0  0
 38 40  1  0  0  0  0
 38 39  1  0  0  0  0
 41 44  1  0  0  0  0
 41 40  1  0  0  0  0
 43 44  1  0  0  0  0
 44 42  1  0  0  0  0
 45 44  1  0  0  0  0
 46 48  1  0  0  0  0
 48 47  1  6  0  0  0
 48 49  1  0  0  0  0
 49 51  1  0  0  0  0
 51 50  2  0  0  0  0
 51 54  1  0  0  0  0
 52 53  2  0  0  0  0
 52 55  1  0  0  0  0
 54 52  1  0  0  0  0
M  END
>  <MODEL>
5

>  <REMARK>
 VINA RESULT:      -3.1      1.923      2.293
  Name = 
  8 active torsions:
  status: ('A' for Active; 'I' for Inactive)
    1  A    between atoms: O_6  and  C_27
    2  A    between atoms: O_6  and  C_44
    3  A    between atoms: C_10  and  C_53
    4  A    between atoms: C_11  and  N_47
    5  A    between atoms: N_19  and  C_33
    6  A    between atoms: N_19  and  C_51
    7  A    between atoms: C_33  and  C_45
    8  A    between atoms: C_44  and  C_53
                            x       y       z     vdW  Elec       q    Type
                         _______ _______ _______ _____ _____    ______ ____

>  <TORSDO>
F 8

$$$$
=
 OpenBabel11062412143D

 55 60  0  0  1  0  0  0  0  0999 V2000
  183.0490  176.7660  137.9730 C   0  0  1  0  0  3  0  0  0  0  0  0
  186.1400  179.3990  139.4450 C   0  0  0  0  0  3  0  0  0  0  0  0
  181.7460  174.8020  137.3600 O   0  0  0  0  0  1  0  0  0  0  0  0
  189.0080  178.9570  139.1800 O   0  0  0  0  0  0  0  0  0  0  0  0
  184.8830  177.2630  142.2230 O   0  0  0  0  0  1  0  0  0  0  0  0
  184.9150  178.0430  141.0720 C   0  0  0  0  0  0  0  0  0  0  0  0
  189.8630  172.9440  136.1740 C   0  0  1  0  0  3  0  0  0  0  0  0
  189.0390  177.8640  139.8020 C   0  0  0  0  0  0  0  0  0  0  0  0
  190.0610  176.5280  139.1730 S   0  0  0  0  0  0  0  0  0  0  0  0
  185.4060  172.4590  136.1860 O   0  0  0  0  0  0  0  0  0  0  0  0
  182.1030  176.0990  136.9630 C   0  0  2  0  0  3  0  0  0  0  0  0
  189.7310  174.3800  136.6630 C   0  0  0  0  0  2  0  0  0  0  0  0
  183.7200  173.8240  135.0680 C   0  0  0  0  0  2  0  0  0  0  0  0
  186.3130  173.6670  134.6830 C   0  0  2  0  0  3  0  0  0  0  0  0
  186.3660  175.1970  134.8450 C   0  0  0  0  0  2  0  0  0  0  0  0
  183.8710  178.7530  139.0060 C   0  0  0  0  0  0  0  0  0  0  0  0
  185.0240  175.8660  134.5970 C   0  0  0  0  0  2  0  0  0  0  0  0
  188.2850  177.6600  140.9690 O   0  0  0  0  0  0  0  0  0  0  0  0
  185.0380  179.3910  138.5770 C   0  0  0  0  0  3  0  0  0  0  0  0
  181.6590  178.0720  139.2390 C   0  0  1  0  0  3  0  0  0  0  0  0
  188.9760  174.4110  137.9100 N   0  0  0  0  0  2  0  0  0  0  0  0
  182.7250  178.2630  138.1650 C   0  0  2  0  0  3  0  0  0  0  0  0
  182.7350  176.0770  135.5750 C   0  0  0  0  0  2  0  0  0  0  0  0
  187.9880  179.9370  141.8330 C   0  0  0  0  0  1  0  0  0  0  0  0
  187.7130  172.0670  135.9430 N   0  0  0  0  0  2  0  0  0  0  0  0
  186.1000  178.7120  140.6780 C   0  0  0  0  0  0  0  0  0  0  0  0
  188.7870  172.6330  135.2360 N   0  0  0  0  0  2  0  0  0  0  0  0
  184.9830  172.9530  134.9360 C   0  0  1  0  0  3  0  0  0  0  0  0
  184.0130  175.2410  135.5410 C   0  0  1  0  0  3  0  0  0  0  0  0
  183.7920  178.1350  140.2390 C   0  0  0  0  0  0  0  0  0  0  0  0
  182.5950  177.2410  140.1060 C   0  0  2  0  0  0  0  0  0  0  0  0
  187.3420  178.5900  141.5200 C   0  0  1  0  0  3  0  0  0  0  0  0
  188.6950  175.8030  138.2100 C   0  0  0  0  0  2  0  0  0  0  0  0
  186.6630  173.0760  136.0400 C   0  0  2  0  0  3  0  0  0  0  0  0
  182.9520  176.1670  139.2690 O   0  0  0  0  0  0  0  0  0  0  0  0
  182.0390  176.8120  141.3140 O   0  0  0  0  0  1  0  0  0  0  0  0
  192.4650  173.8100  137.1030 O   0  0  0  0  0  0  0  0  0  0  0  0
  192.3930  173.2120  135.9960 C   0  0  0  0  0  0  0  0  0  0  0  0
  191.1310  172.7900  135.4720 N   0  0  0  0  0  2  0  0  0  0  0  0
  193.6360  172.8310  135.2660 C   0  0  0  0  0  2  0  0  0  0  0  0
  194.7790  173.6020  135.7610 N   0  0  0  0  0  2  0  0  0  0  0  0
  195.5590  171.2970  136.1470 C   0  0  0  0  0  1  0  0  0  0  0  0
  195.4790  172.9140  138.0390 C   0  0  0  0  0  1  0  0  0  0  0  0
  195.7010  172.7620  136.5370 C   0  0  0  0  0  0  0  0  0  0  0  0
  197.1190  173.2050  136.2300 C   0  0  0  0  0  1  0  0  0  0  0  0
  181.2750  179.2770  139.8720 O   0  0  0  0  0  0  0  0  0  0  0  0
  180.7700  181.3800  138.9150 C   0  0  0  0  0  1  0  0  0  0  0  0
  180.3570  179.9180  139.0230 C   0  0  2  0  0  3  0  0  0  0  0  0
  178.9330  179.8100  139.5630 C   0  0  0  0  0  2  0  0  0  0  0  0
  178.9840  181.2380  141.4780 O   0  0  0  0  0  0  0  0  0  0  0  0
  178.9310  180.0590  141.0350 C   0  0  0  0  0  0  0  0  0  0  0  0
  179.8710  178.8530  143.0310 C   0  0  0  0  0  0  0  0  0  0  0  0
  180.9290  179.5410  143.0390 O   0  0  0  0  0  0  0  0  0  0  0  0
  178.9590  178.9420  141.9280 N   0  0  0  0  0  2  0  0  0  0  0  0
  179.6380  177.9030  144.0660 N   0  0  0  0  0  1  0  0  0  0  0  0
  1 22  1  0  0  0  0
  1 35  1  1  0  0  0
  2 26  1  0  0  0  0
  4  8  2  0  0  0  0
  6  5  1  0  0  0  0
  7 39  1  6  0  0  0
  7 12  1  0  0  0  0
  8 18  1  0  0  0  0
  9  8  1  0  0  0  0
 11  3  1  1  0  0  0
 11  1  1  0  0  0  0
 12 21  1  0  0  0  0
 13 29  1  0  0  0  0
 14 15  1  1  0  0  0
 14 28  1  0  0  0  0
 14 34  1  0  0  0  0
 16 30  2  0  0  0  0
 17 15  1  0  0  0  0
 18 32  1  0  0  0  0
 19 16  1  0  0  0  0
 19  2  2  0  0  0  0
 20 46  1  1  0  0  0
 20 31  1  0  0  0  0
 21 33  1  0  0  0  0
 22 16  1  1  0  0  0
 22 20  1  0  0  0  0
 23 11  1  0  0  0  0
 26  6  2  0  0  0  0
 26 32  1  0  0  0  0
 27 25  1  0  0  0  0
 27  7  1  0  0  0  0
 28 13  1  1  0  0  0
 28 10  1  0  0  0  0
 29 17  1  6  0  0  0
 29 23  1  0  0  0  0
 30  6  1  0  0  0  0
 31 30  1  0  0  0  0
 31 36  1  1  0  0  0
 32 24  1  6  0  0  0
 33  9  1  0  0  0  0
 34 25  1  6  0  0  0
 34 10  1  0  0  0  0
 35 31  1  0  0  0  0
 38 37  2  0  0  0  0
 39 38  1  0  0  0  0
 40 41  1  0  0  0  0
 40 38  1  0  0  0  0
 41 44  1  0  0  0  0
 42 44  1  0  0  0  0
 44 43  1  0  0  0  0
 45 44  1  0  0  0  0
 48 47  1  1  0  0  0
 48 49  1  0  0  0  0
 48 46  1  0  0  0  0
 49 51  1  0  0  0  0
 51 50  2  0  0  0  0
 51 54  1  0  0  0  0
 52 53  2  0  0  0  0
 52 55  1  0  0  0  0
 54 52  1  0  0  0  0
M  END
>  <MODEL>
6

>  <REMARK>
 VINA RESULT:      -2.5      2.197      5.021
  Name = 
  8 active torsions:
  status: ('A' for Active; 'I' for Inactive)
    1  A    between atoms: O_6  and  C_27
    2  A    between atoms: O_6  and  C_44
    3  A    between atoms: C_10  and  C_53
    4  A    between atoms: C_11  and  N_47
    5  A    between atoms: N_19  and  C_33
    6  A    between atoms: N_19  and  C_51
    7  A    between atoms: C_33  and  C_45
    8  A    between atoms: C_44  and  C_53
                            x       y       z     vdW  Elec       q    Type
                         _______ _______ _______ _____ _____    ______ ____

>  <TORSDO>
F 8

$$$$
=
 OpenBabel11062412143D

 55 60  0  0  1  0  0  0  0  0999 V2000
  184.9390  178.4170  141.1800 C   0  0  1  0  0  3  0  0  0  0  0  0
  184.1800  175.6550  137.9480 C   0  0  0  0  0  3  0  0  0  0  0  0
  185.8910  180.1510  142.5990 O   0  0  0  0  0  1  0  0  0  0  0  0
  186.2140  174.2040  136.4480 O   0  0  0  0  0  0  0  0  0  0  0  0
  184.0570  179.1490  136.6680 O   0  0  0  0  0  1  0  0  0  0  0  0
  183.9120  178.0450  137.5030 C   0  0  0  0  0  0  0  0  0  0  0  0
  192.2570  176.2340  138.7430 C   0  0  1  0  0  3  0  0  0  0  0  0
  186.8190  175.2190  136.0160 C   0  0  0  0  0  0  0  0  0  0  0  0
  188.6140  175.2210  135.9900 S   0  0  0  0  0  0  0  0  0  0  0  0
  190.1130  179.0700  141.4750 O   0  0  0  0  0  0  0  0  0  0  0  0
  185.2710  178.8940  142.6030 C   0  0  2  0  0  3  0  0  0  0  0  0
  190.9370  175.5960  138.3320 C   0  0  0  0  0  2  0  0  0  0  0  0
  188.5580  178.5620  143.2850 C   0  0  0  0  0  2  0  0  0  0  0  0
  190.2680  177.0170  142.0260 C   0  0  2  0  0  3  0  0  0  0  0  0
  189.1010  176.0510  141.7550 C   0  0  0  0  0  2  0  0  0  0  0  0
  183.5460  177.1440  139.7200 C   0  0  0  0  0  0  0  0  0  0  0  0
  187.9400  176.2400  142.7170 C   0  0  0  0  0  2  0  0  0  0  0  0
  186.1250  176.3530  135.5660 O   0  0  0  0  0  0  0  0  0  0  0  0
  183.8810  175.8520  139.3040 C   0  0  0  0  0  3  0  0  0  0  0  0
  182.7280  178.9560  140.9280 C   0  0  1  0  0  3  0  0  0  0  0  0
  190.0390  176.6150  137.8020 N   0  0  0  0  0  2  0  0  0  0  0  0
  183.5740  177.7000  141.1170 C   0  0  2  0  0  3  0  0  0  0  0  0
  186.1440  177.8700  143.3180 C   0  0  0  0  0  2  0  0  0  0  0  0
  183.9510  175.4340  134.8980 C   0  0  0  0  0  1  0  0  0  0  0  0
  191.7880  177.9130  140.2950 N   0  0  0  0  0  2  0  0  0  0  0  0
  184.2210  176.7410  137.0470 C   0  0  0  0  0  0  0  0  0  0  0  0
  192.2260  176.5840  140.1610 N   0  0  0  0  0  2  0  0  0  0  0  0
  189.9620  178.3640  142.6850 C   0  0  1  0  0  3  0  0  0  0  0  0
  187.4960  177.6890  142.6290 C   0  0  1  0  0  3  0  0  0  0  0  0
  183.5160  178.2060  138.8370 C   0  0  0  0  0  0  0  0  0  0  0  0
  183.5570  179.4080  139.7340 C   0  0  2  0  0  0  0  0  0  0  0  0
  184.7040  176.5380  135.6350 C   0  0  1  0  0  3  0  0  0  0  0  0
  188.7370  175.9960  137.6340 C   0  0  0  0  0  2  0  0  0  0  0  0
  190.4130  177.8810  140.7820 C   0  0  2  0  0  3  0  0  0  0  0  0
  184.8610  179.5080  140.2580 O   0  0  0  0  0  0  0  0  0  0  0  0
  183.1270  180.6000  139.1470 O   0  0  0  0  0  1  0  0  0  0  0  0
  194.3020  176.3500  136.6960 O   0  0  0  0  0  0  0  0  0  0  0  0
  194.3390  175.4030  137.5270 C   0  0  0  0  0  0  0  0  0  0  0  0
  193.3380  175.2770  138.5390 N   0  0  0  0  0  2  0  0  0  0  0  0
  195.4950  174.4610  137.5390 C   0  0  0  0  0  2  0  0  0  0  0  0
  196.6450  175.0490  136.8500 N   0  0  0  0  0  2  0  0  0  0  0  0
  197.1120  172.6400  136.6290 C   0  0  0  0  0  1  0  0  0  0  0  0
  198.8370  174.1560  137.5900 C   0  0  0  0  0  1  0  0  0  0  0  0
  197.6890  174.0490  136.5920 C   0  0  0  0  0  0  0  0  0  0  0  0
  198.2540  174.2990  135.2060 C   0  0  0  0  0  1  0  0  0  0  0  0
  181.3860  178.6840  140.5730 O   0  0  0  0  0  0  0  0  0  0  0  0
  181.0120  178.8170  142.9050 C   0  0  0  0  0  1  0  0  0  0  0  0
  180.5690  179.3060  141.5320 C   0  0  2  0  0  3  0  0  0  0  0  0
  179.0960  178.9750  141.3040 C   0  0  0  0  0  2  0  0  0  0  0  0
  178.9370  176.6210  141.6810 O   0  0  0  0  0  0  0  0  0  0  0  0
  178.9620  177.5620  140.8430 C   0  0  0  0  0  0  0  0  0  0  0  0
  179.7710  176.2750  138.8400 C   0  0  0  0  0  0  0  0  0  0  0  0
  180.8000  175.8530  139.4360 O   0  0  0  0  0  0  0  0  0  0  0  0
  178.9530  177.2890  139.4390 N   0  0  0  0  0  2  0  0  0  0  0  0
  179.4840  175.8220  137.5200 N   0  0  0  0  0  1  0  0  0  0  0  0
  1 35  1  6  0  0  0
  1 11  1  0  0  0  0
  2 19  1  0  0  0  0
  5  6  1  0  0  0  0
  6 30  2  0  0  0  0
  7 39  1  1  0  0  0
  7 27  1  0  0  0  0
  8  4  2  0  0  0  0
  9  8  1  0  0  0  0
  9 33  1  0  0  0  0
 10 28  1  0  0  0  0
 11  3  1  6  0  0  0
 11 23  1  0  0  0  0
 12  7  1  0  0  0  0
 14 15  1  6  0  0  0
 14 28  1  0  0  0  0
 15 17  1  0  0  0  0
 18 32  1  0  0  0  0
 18  8  1  0  0  0  0
 19 16  2  0  0  0  0
 20 46  1  6  0  0  0
 20 22  1  0  0  0  0
 21 12  1  0  0  0  0
 22 16  1  6  0  0  0
 22  1  1  0  0  0  0
 26  6  1  0  0  0  0
 26  2  2  0  0  0  0
 27 25  1  0  0  0  0
 28 13  1  6  0  0  0
 29 17  1  1  0  0  0
 29 13  1  0  0  0  0
 29 23  1  0  0  0  0
 30 16  1  0  0  0  0
 30 31  1  0  0  0  0
 31 36  1  6  0  0  0
 31 35  1  0  0  0  0
 31 20  1  0  0  0  0
 32 24  1  1  0  0  0
 32 26  1  0  0  0  0
 33 21  1  0  0  0  0
 34 25  1  1  0  0  0
 34 10  1  0  0  0  0
 34 14  1  0  0  0  0
 37 38  2  0  0  0  0
 38 40  1  0  0  0  0
 38 39  1  0  0  0  0
 41 40  1  0  0  0  0
 44 42  1  0  0  0  0
 44 41  1  0  0  0  0
 44 43  1  0  0  0  0
 45 44  1  0  0  0  0
 46 48  1  0  0  0  0
 48 47  1  1  0  0  0
 49 48  1  0  0  0  0
 51 49  1  0  0  0  0
 51 50  2  0  0  0  0
 52 53  2  0  0  0  0
 52 54  1  0  0  0  0
 54 51  1  0  0  0  0
 55 52  1  0  0  0  0
M  END
>  <MODEL>
7

>  <REMARK>
 VINA RESULT:      -2.0      2.938      3.995
  Name = 
  8 active torsions:
  status: ('A' for Active; 'I' for Inactive)
    1  A    between atoms: O_6  and  C_27
    2  A    between atoms: O_6  and  C_44
    3  A    between atoms: C_10  and  C_53
    4  A    between atoms: C_11  and  N_47
    5  A    between atoms: N_19  and  C_33
    6  A    between atoms: N_19  and  C_51
    7  A    between atoms: C_33  and  C_45
    8  A    between atoms: C_44  and  C_53
                            x       y       z     vdW  Elec       q    Type
                         _______ _______ _______ _____ _____    ______ ____

>  <TORSDO>
F 8

$$$$
=
 OpenBabel11062412143D

 55 60  0  0  1  0  0  0  0  0999 V2000
  184.3630  178.2120  140.1660 C   0  0  1  0  0  3  0  0  0  0  0  0
  182.8450  174.7660  138.0520 C   0  0  0  0  0  3  0  0  0  0  0  0
  185.5320  180.2640  140.7590 O   0  0  0  0  0  1  0  0  0  0  0  0
  184.3620  173.1210  136.1850 O   0  0  0  0  0  0  0  0  0  0  0  0
  181.8070  177.8770  136.2890 O   0  0  0  0  0  1  0  0  0  0  0  0
  182.1230  176.9810  137.3060 C   0  0  0  0  0  0  0  0  0  0  0  0
  190.5050  175.9120  135.5570 C   0  0  1  0  0  3  0  0  0  0  0  0
  184.6290  174.0440  135.3730 C   0  0  0  0  0  0  0  0  0  0  0  0
  186.2740  174.1300  134.6580 S   0  0  0  0  0  0  0  0  0  0  0  0
  189.1540  179.1730  138.3210 O   0  0  0  0  0  0  0  0  0  0  0  0
  185.1250  179.0100  141.2360 C   0  0  2  0  0  3  0  0  0  0  0  0
  189.2210  175.1330  135.8120 C   0  0  0  0  0  2  0  0  0  0  0  0
  188.4480  179.0030  140.6510 C   0  0  0  0  0  2  0  0  0  0  0  0
  189.7670  177.3050  139.1430 C   0  0  2  0  0  3  0  0  0  0  0  0
  188.7180  176.2460  139.5270 C   0  0  0  0  0  2  0  0  0  0  0  0
  182.7130  176.5780  139.6200 C   0  0  0  0  0  0  0  0  0  0  0  0
  187.9750  176.5850  140.8080 C   0  0  0  0  0  2  0  0  0  0  0  0
  183.6770  175.0130  135.0200 O   0  0  0  0  0  0  0  0  0  0  0  0
  183.0390  175.2450  139.3560 C   0  0  0  0  0  3  0  0  0  0  0  0
  182.1630  178.5700  140.6880 C   0  0  1  0  0  3  0  0  0  0  0  0
  188.0670  175.9610  135.4880 N   0  0  0  0  0  2  0  0  0  0  0  0
  183.1750  177.4320  140.7680 C   0  0  2  0  0  3  0  0  0  0  0  0
  186.3260  178.2160  141.7380 C   0  0  0  0  0  2  0  0  0  0  0  0
  181.5490  173.8610  135.4240 C   0  0  0  0  0  1  0  0  0  0  0  0
  190.4190  177.8680  136.8260 N   0  0  0  0  0  2  0  0  0  0  0  0
  182.4120  175.6240  137.0190 C   0  0  0  0  0  0  0  0  0  0  0  0
  190.9470  176.5660  136.7860 N   0  0  0  0  0  2  0  0  0  0  0  0
  189.5490  178.7470  139.6050 C   0  0  1  0  0  3  0  0  0  0  0  0
  187.3440  177.9540  140.6290 C   0  0  1  0  0  3  0  0  0  0  0  0
  182.2230  177.4140  138.6350 C   0  0  0  0  0  0  0  0  0  0  0  0
  182.4320  178.7860  139.2050 C   0  0  2  0  0  0  0  0  0  0  0  0
  182.3680  175.1370  135.5950 C   0  0  1  0  0  3  0  0  0  0  0  0
  186.8860  175.2560  135.9520 C   0  0  0  0  0  2  0  0  0  0  0  0
  189.3330  177.8760  137.8020 C   0  0  2  0  0  3  0  0  0  0  0  0
  183.8110  179.0650  139.1590 O   0  0  0  0  0  0  0  0  0  0  0  0
  181.6650  179.7950  138.6180 O   0  0  0  0  0  1  0  0  0  0  0  0
  193.3630  176.3330  135.7590 O   0  0  0  0  0  0  0  0  0  0  0  0
  192.9500  175.2390  135.2890 C   0  0  0  0  0  0  0  0  0  0  0  0
  191.5510  174.9890  135.1350 N   0  0  0  0  0  2  0  0  0  0  0  0
  193.9120  174.1400  134.9900 C   0  0  0  0  0  2  0  0  0  0  0  0
  195.2350  174.4520  135.5370 N   0  0  0  0  0  2  0  0  0  0  0  0
  195.2260  172.0680  136.1570 C   0  0  0  0  0  1  0  0  0  0  0  0
  195.0540  173.8120  137.9260 C   0  0  0  0  0  1  0  0  0  0  0  0
  195.6400  173.4780  136.5580 C   0  0  0  0  0  0  0  0  0  0  0  0
  197.1520  173.5170  136.6790 C   0  0  0  0  0  1  0  0  0  0  0  0
  180.8320  178.1590  140.9340 O   0  0  0  0  0  0  0  0  0  0  0  0
  179.2830  179.5570  142.0480 C   0  0  0  0  0  1  0  0  0  0  0  0
  180.4810  178.6300  142.2100 C   0  0  2  0  0  3  0  0  0  0  0  0
  181.6410  179.3760  142.8640 C   0  0  0  0  0  2  0  0  0  0  0  0
  181.4780  178.1250  144.8930 O   0  0  0  0  0  0  0  0  0  0  0  0
  182.2180  178.5490  143.9650 C   0  0  0  0  0  0  0  0  0  0  0  0
  184.4200  178.5120  145.1770 C   0  0  0  0  0  0  0  0  0  0  0  0
  183.9980  179.2450  146.1140 O   0  0  0  0  0  0  0  0  0  0  0  0
  183.6300  178.3230  143.9960 N   0  0  0  0  0  2  0  0  0  0  0  0
  185.7320  177.9630  145.2450 N   0  0  0  0  0  1  0  0  0  0  0  0
  1 35  1  6  0  0  0
  1 22  1  0  0  0  0
  1 11  1  0  0  0  0
  2 19  1  0  0  0  0
  5  6  1  0  0  0  0
  6 30  2  0  0  0  0
  7 39  1  1  0  0  0
  7 12  1  0  0  0  0
  7 27  1  0  0  0  0
  8  4  2  0  0  0  0
  9  8  1  0  0  0  0
  9 33  1  0  0  0  0
 10 28  1  0  0  0  0
 11  3  1  6  0  0  0
 11 23  1  0  0  0  0
 14 15  1  1  0  0  0
 14 28  1  0  0  0  0
 15 17  1  0  0  0  0
 18  8  1  0  0  0  0
 18 32  1  0  0  0  0
 19 16  2  0  0  0  0
 20 22  1  0  0  0  0
 20 46  1  6  0  0  0
 21 12  1  0  0  0  0
 21 33  1  0  0  0  0
 22 16  1  6  0  0  0
 26  6  1  0  0  0  0
 26  2  2  0  0  0  0
 27 25  1  0  0  0  0
 28 13  1  1  0  0  0
 29 13  1  1  0  0  0
 29 17  1  0  0  0  0
 29 23  1  0  0  0  0
 30 31  1  0  0  0  0
 30 16  1  0  0  0  0
 31 36  1  6  0  0  0
 31 20  1  0  0  0  0
 32 24  1  1  0  0  0
 32 26  1  0  0  0  0
 34 25  1  6  0  0  0
 34 10  1  0  0  0  0
 34 14  1  0  0  0  0
 35 31  1  0  0  0  0
 38 37  2  0  0  0  0
 39 38  1  0  0  0  0
 40 38  1  0  0  0  0
 40 41  1  0  0  0  0
 41 44  1  0  0  0  0
 42 44  1  0  0  0  0
 44 45  1  0  0  0  0
 44 43  1  0  0  0  0
 46 48  1  0  0  0  0
 48 47  1  6  0  0  0
 48 49  1  0  0  0  0
 49 51  1  0  0  0  0
 51 54  1  0  0  0  0
 51 50  2  0  0  0  0
 52 55  1  0  0  0  0
 52 53  2  0  0  0  0
 54 52  1  0  0  0  0
M  END
>  <MODEL>
8

>  <REMARK>
 VINA RESULT:      -1.6      2.128      2.601
  Name = 
  8 active torsions:
  status: ('A' for Active; 'I' for Inactive)
    1  A    between atoms: O_6  and  C_27
    2  A    between atoms: O_6  and  C_44
    3  A    between atoms: C_10  and  C_53
    4  A    between atoms: C_11  and  N_47
    5  A    between atoms: N_19  and  C_33
    6  A    between atoms: N_19  and  C_51
    7  A    between atoms: C_33  and  C_45
    8  A    between atoms: C_44  and  C_53
                            x       y       z     vdW  Elec       q    Type
                         _______ _______ _______ _____ _____    ______ ____

>  <TORSDO>
F 8

$$$$
=
 OpenBabel11062412143D

 55 60  0  0  1  0  0  0  0  0999 V2000
  184.6760  177.6230  137.0150 C   0  0  1  0  0  3  0  0  0  0  0  0
  182.7400  179.6550  140.2980 C   0  0  0  0  0  3  0  0  0  0  0  0
  185.9760  176.0650  135.6700 O   0  0  0  0  0  1  0  0  0  0  0  0
  183.8770  180.0510  142.9510 O   0  0  0  0  0  0  0  0  0  0  0  0
  181.4890  176.1560  140.0750 O   0  0  0  0  0  1  0  0  0  0  0  0
  181.9520  177.4150  139.7090 C   0  0  0  0  0  0  0  0  0  0  0  0
  189.8850  176.9200  143.0680 C   0  0  1  0  0  3  0  0  0  0  0  0
  184.0230  178.8310  143.2240 C   0  0  0  0  0  0  0  0  0  0  0  0
  185.5230  178.2930  144.0500 S   0  0  0  0  0  0  0  0  0  0  0  0
  189.1030  175.5600  138.8680 O   0  0  0  0  0  0  0  0  0  0  0  0
  185.6280  177.4140  135.8280 C   0  0  2  0  0  3  0  0  0  0  0  0
  188.6470  177.8050  143.0360 C   0  0  0  0  0  2  0  0  0  0  0  0
  188.8010  176.9110  136.8580 C   0  0  0  0  0  2  0  0  0  0  0  0
  189.8030  177.5450  139.2010 C   0  0  2  0  0  3  0  0  0  0  0  0
  188.8110  178.7210  139.2380 C   0  0  0  0  0  2  0  0  0  0  0  0
  182.9200  178.8740  138.0360 C   0  0  0  0  0  0  0  0  0  0  0  0
  188.3060  179.1130  137.8590 C   0  0  0  0  0  2  0  0  0  0  0  0
  183.0470  177.8800  142.8860 O   0  0  0  0  0  0  0  0  0  0  0  0
  183.1640  179.8750  138.9790 C   0  0  0  0  0  3  0  0  0  0  0  0
  182.6060  177.7170  136.0420 C   0  0  1  0  0  3  0  0  0  0  0  0
  187.4730  177.0030  142.7130 N   0  0  0  0  0  2  0  0  0  0  0  0
  183.5910  178.6760  136.7050 C   0  0  2  0  0  3  0  0  0  0  0  0
  186.8780  178.2720  135.9890 C   0  0  0  0  0  2  0  0  0  0  0  0
  180.9930  179.2180  142.7810 C   0  0  0  0  0  1  0  0  0  0  0  0
  190.0630  175.8640  140.9950 N   0  0  0  0  0  2  0  0  0  0  0  0
  182.1570  178.4270  140.6780 C   0  0  0  0  0  0  0  0  0  0  0  0
  190.5460  176.9350  141.7650 N   0  0  0  0  0  2  0  0  0  0  0  0
  189.7020  176.5400  138.0510 C   0  0  1  0  0  3  0  0  0  0  0  0
  187.6860  177.8810  137.2260 C   0  0  1  0  0  3  0  0  0  0  0  0
  182.2890  177.6930  138.3770 C   0  0  0  0  0  0  0  0  0  0  0  0
  182.6230  176.7760  137.2390 C   0  0  2  0  0  0  0  0  0  0  0  0
  181.8590  178.1450  142.1270 C   0  0  1  0  0  3  0  0  0  0  0  0
  186.3730  177.9210  142.4830 C   0  0  0  0  0  2  0  0  0  0  0  0
  189.1610  176.4120  139.9870 C   0  0  2  0  0  3  0  0  0  0  0  0
  183.9800  176.4210  137.3580 O   0  0  0  0  0  0  0  0  0  0  0  0
  181.7910  175.6620  137.1110 O   0  0  0  0  0  1  0  0  0  0  0  0
  189.4390  177.1470  145.9200 O   0  0  0  0  0  0  0  0  0  0  0  0
  190.5580  177.5000  145.4580 C   0  0  0  0  0  0  0  0  0  0  0  0
  190.8230  177.4410  144.0550 N   0  0  0  0  0  2  0  0  0  0  0  0
  191.6650  177.8790  146.3820 C   0  0  0  0  0  2  0  0  0  0  0  0
  191.4860  177.2400  147.6880 N   0  0  0  0  0  2  0  0  0  0  0  0
  193.0620  175.6630  148.7360 C   0  0  0  0  0  1  0  0  0  0  0  0
  192.5180  175.4500  146.3160 C   0  0  0  0  0  1  0  0  0  0  0  0
  191.9790  175.8560  147.6840 C   0  0  0  0  0  0  0  0  0  0  0  0
  190.8180  174.9380  148.0170 C   0  0  0  0  0  1  0  0  0  0  0  0
  181.3270  178.2830  135.8260 O   0  0  0  0  0  0  0  0  0  0  0  0
  180.2300  176.5850  134.5980 C   0  0  0  0  0  1  0  0  0  0  0  0
  180.3880  177.2470  135.9610 C   0  0  2  0  0  3  0  0  0  0  0  0
  179.0420  177.7790  136.4480 C   0  0  0  0  0  2  0  0  0  0  0  0
  178.9440  179.7610  135.1170 O   0  0  0  0  0  0  0  0  0  0  0  0
  178.9920  179.2610  136.2720 C   0  0  0  0  0  0  0  0  0  0  0  0
  179.9830  181.2190  137.5000 C   0  0  0  0  0  0  0  0  0  0  0  0
  180.9840  181.2850  136.7330 O   0  0  0  0  0  0  0  0  0  0  0  0
  179.0900  180.1000  137.4270 N   0  0  0  0  0  2  0  0  0  0  0  0
  179.8050  182.2010  138.5150 N   0  0  0  0  0  1  0  0  0  0  0  0
  1 35  1  6  0  0  0
  2 26  1  0  0  0  0
  4  8  2  0  0  0  0
  6  5  1  0  0  0  0
  6 26  2  0  0  0  0
  7 39  1  1  0  0  0
  8  9  1  0  0  0  0
 11  3  1  1  0  0  0
 11 23  1  0  0  0  0
 11  1  1  0  0  0  0
 12  7  1  0  0  0  0
 13 29  1  0  0  0  0
 14 15  1  6  0  0  0
 14 34  1  0  0  0  0
 16 30  2  0  0  0  0
 16 19  1  0  0  0  0
 17 15  1  0  0  0  0
 18  8  1  0  0  0  0
 19  2  2  0  0  0  0
 20 46  1  1  0  0  0
 20 22  1  0  0  0  0
 20 31  1  0  0  0  0
 21 12  1  0  0  0  0
 22  1  1  0  0  0  0
 22 16  1  1  0  0  0
 25 27  1  0  0  0  0
 26 32  1  0  0  0  0
 27  7  1  0  0  0  0
 28 13  1  6  0  0  0
 28 10  1  0  0  0  0
 28 14  1  0  0  0  0
 29 23  1  6  0  0  0
 29 17  1  0  0  0  0
 30  6  1  0  0  0  0
 31 36  1  6  0  0  0
 31 35  1  0  0  0  0
 31 30  1  0  0  0  0
 32 24  1  1  0  0  0
 32 18  1  0  0  0  0
 33 21  1  0  0  0  0
 33  9  1  0  0  0  0
 34 10  1  6  0  0  0
 34 25  1  0  0  0  0
 38 37  2  0  0  0  0
 38 40  1  0  0  0  0
 39 38  1  0  0  0  0
 40 41  1  0  0  0  0
 43 44  1  0  0  0  0
 44 41  1  0  0  0  0
 44 45  1  0  0  0  0
 44 42  1  0  0  0  0
 46 48  1  0  0  0  0
 48 47  1  6  0  0  0
 48 49  1  0  0  0  0
 50 51  2  0  0  0  0
 51 49  1  0  0  0  0
 51 54  1  0  0  0  0
 52 55  1  0  0  0  0
 53 52  2  0  0  0  0
 54 52  1  0  0  0  0
M  END
>  <MODEL>
9

>  <REMARK>
 VINA RESULT:      -1.6      4.820      7.359
  Name = 
  8 active torsions:
  status: ('A' for Active; 'I' for Inactive)
    1  A    between atoms: O_6  and  C_27
    2  A    between atoms: O_6  and  C_44
    3  A    between atoms: C_10  and  C_53
    4  A    between atoms: C_11  and  N_47
    5  A    between atoms: N_19  and  C_33
    6  A    between atoms: N_19  and  C_51
    7  A    between atoms: C_33  and  C_45
    8  A    between atoms: C_44  and  C_53
                            x       y       z     vdW  Elec       q    Type
                         _______ _______ _______ _____ _____    ______ ____

>  <TORSDO>
F 8

$$$$
