=
 OpenBabel11062413283D

 30 31  0  0  1  0  0  0  0  0999 V2000
  189.8860  177.5310  139.4610 C   0  0  1  0  0  3  0  0  0  0  0  0
  190.5960  175.4020  138.5940 O   0  0  0  0  0  1  0  0  0  0  0  0
  191.0510  176.5840  139.1830 C   0  0  0  0  0  2  0  0  0  0  0  0
  188.6910  177.0360  138.8680 O   0  0  0  0  0  0  0  0  0  0  0  0
  188.3630  177.6540  136.6670 O   0  0  0  0  0  0  0  0  0  0  0  0
  186.8840  178.5440  138.2140 N   0  0  0  0  0  2  0  0  0  0  0  0
  188.0030  177.7330  137.8710 C   0  0  0  0  0  0  0  0  0  0  0  0
  186.4370  178.6240  139.5390 N   0  0  0  0  0  2  0  0  0  0  0  0
  184.6840  178.7570  141.0540 O   0  0  0  0  0  0  0  0  0  0  0  0
  185.0480  178.7230  139.8470 C   0  0  0  0  0  0  0  0  0  0  0  0
  181.8650  179.5890  138.0390 C   0  0  0  0  0  2  0  0  0  0  0  0
  183.2860  177.4630  138.6350 C   0  0  0  0  0  2  0  0  0  0  0  0
  182.9970  179.8450  139.0090 C   0  0  0  0  0  2  0  0  0  0  0  0
  184.0290  178.7740  138.7520 C   0  0  1  0  0  3  0  0  0  0  0  0
  181.7080  177.7900  137.7930 S   0  0  0  0  0  0  0  0  0  0  0  0
  189.6720  177.7160  140.9580 C   0  0  0  0  0  2  0  0  0  0  0  0
  191.4540  178.0250  142.5160 O   0  0  0  0  0  1  0  0  0  0  0  0
  190.7890  177.0620  141.7590 C   0  0  1  0  0  3  0  0  0  0  0  0
  190.0950  175.8020  142.8680 S   0  0  0  0  0  0  0  0  0  0  0  0
  190.0040  176.9550  144.2700 C   0  0  0  0  0  2  0  0  0  0  0  0
  188.5910  176.9870  144.8300 C   0  0  1  0  0  3  0  0  0  0  0  0
  188.5480  177.7350  146.1730 C   0  0  2  0  0  3  0  0  0  0  0  0
  187.6960  177.6860  143.8090 C   0  0  0  0  0  2  0  0  0  0  0  0
  189.5050  176.8970  147.4230 Cl  0  0  0  0  0  0  0  0  0  0  0  0
  186.2640  177.7810  144.3210 C   0  0  0  0  0  2  0  0  0  0  0  0
  187.1100  177.8520  146.6740 C   0  0  0  0  0  2  0  0  0  0  0  0
  186.2340  178.5510  145.6390 C   0  0  2  0  0  3  0  0  0  0  0  0
  184.5200  178.2750  147.4400 O   0  0  0  0  0  1  0  0  0  0  0  0
  183.9360  179.1190  145.3910 O   0  0  0  0  0  0  0  0  0  0  0  0
  184.8350  178.6600  146.1420 C   0  0  0  0  0  0  0  0  0  0  0  0
  1  3  1  1  0  0  0
  1 16  1  0  0  0  0
  2  3  1  0  0  0  0
  4  1  1  0  0  0  0
  5  7  2  0  0  0  0
  6  8  1  0  0  0  0
  7  6  1  0  0  0  0
  7  4  1  0  0  0  0
  8 10  1  0  0  0  0
 10  9  2  0  0  0  0
 11 13  1  0  0  0  0
 12 14  1  0  0  0  0
 14 13  1  0  0  0  0
 14 10  1  1  0  0  0
 15 11  1  0  0  0  0
 15 12  1  0  0  0  0
 16 18  1  0  0  0  0
 18 17  1  1  0  0  0
 18 19  1  0  0  0  0
 19 20  1  0  0  0  0
 21 20  1  6  0  0  0
 21 22  1  0  0  0  0
 22 26  1  0  0  0  0
 22 24  1  1  0  0  0
 23 25  1  0  0  0  0
 23 21  1  0  0  0  0
 25 27  1  0  0  0  0
 27 30  1  1  0  0  0
 27 26  1  0  0  0  0
 29 30  2  0  0  0  0
 30 28  1  0  0  0  0
M  END
>  <MODEL>
1

>  <REMARK>
 VINA RESULT:      -7.5      0.000      0.000
  Name = 
  11 active torsions:
  status: ('A' for Active; 'I' for Inactive)
    1  A    between atoms: C_1  and  C_25
    2  A    between atoms: C_2  and  O_6
    3  A    between atoms: C_2  and  C_13
    4  A    between atoms: C_2  and  C_19
    5  A    between atoms: S_3  and  C_25
    6  A    between atoms: S_3  and  C_30
    7  A    between atoms: O_6  and  C_10
    8  A    between atoms: N_8  and  N_9
    9  A    between atoms: C_13  and  C_30
   10  A    between atoms: C_16  and  C_27
   11  A    between atoms: C_23  and  C_29
                            x       y       z     vdW  Elec       q    Type
                         _______ _______ _______ _____ _____    ______ ____

>  <TORSDO>
F 11

$$$$
=
 OpenBabel11062413283D

 30 31  0  0  1  0  0  0  0  0999 V2000
  189.2450  177.3850  137.8690 C   0  0  1  0  0  3  0  0  0  0  0  0
  190.4260  175.3230  138.2470 O   0  0  0  0  0  1  0  0  0  0  0  0
  190.3860  176.4640  137.4430 C   0  0  0  0  0  2  0  0  0  0  0  0
  188.0590  176.6330  138.0980 O   0  0  0  0  0  0  0  0  0  0  0  0
  186.9750  175.6850  136.2910 O   0  0  0  0  0  0  0  0  0  0  0  0
  185.9730  177.5570  137.2230 N   0  0  0  0  0  2  0  0  0  0  0  0
  187.0120  176.5830  137.1730 C   0  0  0  0  0  0  0  0  0  0  0  0
  185.9670  178.5470  138.2140 N   0  0  0  0  0  2  0  0  0  0  0  0
  184.8490  179.6770  139.9050 O   0  0  0  0  0  0  0  0  0  0  0  0
  184.8040  178.8010  138.9990 C   0  0  0  0  0  0  0  0  0  0  0  0
  181.1740  178.1270  138.2750 C   0  0  0  0  0  2  0  0  0  0  0  0
  182.9930  177.4690  140.0510 C   0  0  0  0  0  2  0  0  0  0  0  0
  182.4660  178.9060  138.1650 C   0  0  0  0  0  2  0  0  0  0  0  0
  183.5430  178.0310  138.7600 C   0  0  1  0  0  3  0  0  0  0  0  0
  181.2230  177.1370  139.8040 S   0  0  0  0  0  0  0  0  0  0  0  0
  189.6060  178.1610  139.1290 C   0  0  0  0  0  2  0  0  0  0  0  0
  190.3000  177.1040  141.1540 O   0  0  0  0  0  1  0  0  0  0  0  0
  189.1790  177.4080  140.3810 C   0  0  1  0  0  3  0  0  0  0  0  0
  188.0380  178.4300  141.3570 S   0  0  0  0  0  0  0  0  0  0  0  0
  187.8180  177.1420  142.6200 C   0  0  0  0  0  2  0  0  0  0  0  0
  188.0390  177.7250  144.0060 C   0  0  1  0  0  3  0  0  0  0  0  0
  186.8370  177.4370  144.9220 C   0  0  2  0  0  3  0  0  0  0  0  0
  189.3040  177.0950  144.5850 C   0  0  0  0  0  2  0  0  0  0  0  0
  185.3560  178.2360  144.3320 Cl  0  0  0  0  0  0  0  0  0  0  0  0
  189.5700  177.6140  145.9930 C   0  0  0  0  0  2  0  0  0  0  0  0
  187.1130  177.9340  146.3390 C   0  0  0  0  0  2  0  0  0  0  0  0
  188.3810  177.2950  146.8960 C   0  0  2  0  0  3  0  0  0  0  0  0
  189.8850  178.2880  148.6320 O   0  0  0  0  0  0  0  0  0  0  0  0
  187.7100  177.7660  149.1300 O   0  0  0  0  0  1  0  0  0  0  0  0
  188.6370  177.7880  148.2800 C   0  0  0  0  0  0  0  0  0  0  0  0
  1  3  1  1  0  0  0
  1  4  1  0  0  0  0
  1 16  1  0  0  0  0
  3  2  1  0  0  0  0
  5  7  2  0  0  0  0
  6  8  1  0  0  0  0
  7  6  1  0  0  0  0
  7  4  1  0  0  0  0
  8 10  1  0  0  0  0
 10  9  2  0  0  0  0
 11 15  1  0  0  0  0
 13 11  1  0  0  0  0
 13 14  1  0  0  0  0
 14 10  1  1  0  0  0
 14 12  1  0  0  0  0
 15 12  1  0  0  0  0
 16 18  1  0  0  0  0
 18 17  1  1  0  0  0
 18 19  1  0  0  0  0
 19 20  1  0  0  0  0
 21 20  1  6  0  0  0
 21 23  1  0  0  0  0
 21 22  1  0  0  0  0
 22 24  1  6  0  0  0
 22 26  1  0  0  0  0
 23 25  1  0  0  0  0
 25 27  1  0  0  0  0
 26 27  1  0  0  0  0
 27 30  1  1  0  0  0
 30 28  2  0  0  0  0
 30 29  1  0  0  0  0
M  END
>  <MODEL>
2

>  <REMARK>
 VINA RESULT:      -7.1      2.104      2.642
  Name = 
  11 active torsions:
  status: ('A' for Active; 'I' for Inactive)
    1  A    between atoms: C_1  and  C_25
    2  A    between atoms: C_2  and  O_6
    3  A    between atoms: C_2  and  C_13
    4  A    between atoms: C_2  and  C_19
    5  A    between atoms: S_3  and  C_25
    6  A    between atoms: S_3  and  C_30
    7  A    between atoms: O_6  and  C_10
    8  A    between atoms: N_8  and  N_9
    9  A    between atoms: C_13  and  C_30
   10  A    between atoms: C_16  and  C_27
   11  A    between atoms: C_23  and  C_29
                            x       y       z     vdW  Elec       q    Type
                         _______ _______ _______ _____ _____    ______ ____

>  <TORSDO>
F 11

$$$$
=
 OpenBabel11062413283D

 30 31  0  0  1  0  0  0  0  0999 V2000
  189.7240  177.3300  139.0530 C   0  0  1  0  0  3  0  0  0  0  0  0
  190.2300  175.1670  138.1290 O   0  0  0  0  0  1  0  0  0  0  0  0
  190.7920  176.2780  138.7610 C   0  0  0  0  0  2  0  0  0  0  0  0
  188.4290  176.8190  138.7540 O   0  0  0  0  0  0  0  0  0  0  0  0
  187.8130  176.9540  136.5320 O   0  0  0  0  0  0  0  0  0  0  0  0
  186.6310  178.2940  138.0080 N   0  0  0  0  0  2  0  0  0  0  0  0
  187.6410  177.3320  137.7210 C   0  0  0  0  0  0  0  0  0  0  0  0
  186.3910  178.7090  139.3240 N   0  0  0  0  0  2  0  0  0  0  0  0
  184.8930  179.3440  140.9790 O   0  0  0  0  0  0  0  0  0  0  0  0
  185.0720  179.0080  139.7770 C   0  0  0  0  0  0  0  0  0  0  0  0
  181.7450  179.7960  138.2080 C   0  0  0  0  0  2  0  0  0  0  0  0
  183.0390  177.7220  139.1670 C   0  0  0  0  0  2  0  0  0  0  0  0
  183.0290  180.1390  138.9290 C   0  0  0  0  0  2  0  0  0  0  0  0
  183.9080  178.9150  138.8400 C   0  0  1  0  0  3  0  0  0  0  0  0
  181.3890  178.0280  138.4670 S   0  0  0  0  0  0  0  0  0  0  0  0
  189.7720  177.7730  140.5100 C   0  0  0  0  0  2  0  0  0  0  0  0
  191.6610  177.8210  141.9670 O   0  0  0  0  0  1  0  0  0  0  0  0
  190.7890  176.9620  141.2990 C   0  0  1  0  0  3  0  0  0  0  0  0
  189.9350  175.9130  142.5110 S   0  0  0  0  0  0  0  0  0  0  0  0
  188.5480  177.0760  142.6770 C   0  0  0  0  0  2  0  0  0  0  0  0
  188.5280  177.6710  144.0750 C   0  0  1  0  0  3  0  0  0  0  0  0
  187.2250  177.3120  144.8080 C   0  0  2  0  0  3  0  0  0  0  0  0
  189.7300  177.1180  144.8390 C   0  0  0  0  0  2  0  0  0  0  0  0
  185.8020  178.0210  144.0010 Cl  0  0  0  0  0  0  0  0  0  0  0  0
  189.7560  177.6510  146.2650 C   0  0  0  0  0  2  0  0  0  0  0  0
  187.2610  177.8250  146.2460 C   0  0  0  0  0  2  0  0  0  0  0  0
  188.4690  177.2620  146.9880 C   0  0  2  0  0  3  0  0  0  0  0  0
  189.5100  178.6080  148.8220 O   0  0  0  0  0  0  0  0  0  0  0  0
  187.5680  177.4480  149.1830 O   0  0  0  0  0  1  0  0  0  0  0  0
  188.4900  177.7690  148.3900 C   0  0  0  0  0  0  0  0  0  0  0  0
  1  3  1  1  0  0  0
  1 16  1  0  0  0  0
  2  3  1  0  0  0  0
  4  1  1  0  0  0  0
  5  7  2  0  0  0  0
  6  8  1  0  0  0  0
  7  6  1  0  0  0  0
  7  4  1  0  0  0  0
  8 10  1  0  0  0  0
 10  9  2  0  0  0  0
 11 15  1  0  0  0  0
 11 13  1  0  0  0  0
 14 13  1  0  0  0  0
 14 12  1  0  0  0  0
 14 10  1  1  0  0  0
 15 12  1  0  0  0  0
 16 18  1  0  0  0  0
 18 17  1  1  0  0  0
 18 19  1  0  0  0  0
 19 20  1  0  0  0  0
 21 20  1  6  0  0  0
 21 22  1  0  0  0  0
 21 23  1  0  0  0  0
 22 24  1  6  0  0  0
 22 26  1  0  0  0  0
 23 25  1  0  0  0  0
 25 27  1  0  0  0  0
 26 27  1  0  0  0  0
 27 30  1  1  0  0  0
 30 28  2  0  0  0  0
 30 29  1  0  0  0  0
M  END
>  <MODEL>
3

>  <REMARK>
 VINA RESULT:      -7.1      1.675      2.221
  Name = 
  11 active torsions:
  status: ('A' for Active; 'I' for Inactive)
    1  A    between atoms: C_1  and  C_25
    2  A    between atoms: C_2  and  O_6
    3  A    between atoms: C_2  and  C_13
    4  A    between atoms: C_2  and  C_19
    5  A    between atoms: S_3  and  C_25
    6  A    between atoms: S_3  and  C_30
    7  A    between atoms: O_6  and  C_10
    8  A    between atoms: N_8  and  N_9
    9  A    between atoms: C_13  and  C_30
   10  A    between atoms: C_16  and  C_27
   11  A    between atoms: C_23  and  C_29
                            x       y       z     vdW  Elec       q    Type
                         _______ _______ _______ _____ _____    ______ ____

>  <TORSDO>
F 11

$$$$
=
 OpenBabel11062413283D

 30 31  0  0  1  0  0  0  0  0999 V2000
  188.9340  177.5440  137.3390 C   0  0  1  0  0  3  0  0  0  0  0  0
  189.4520  175.4430  136.2870 O   0  0  0  0  0  1  0  0  0  0  0  0
  189.9630  176.7090  136.5800 C   0  0  0  0  0  2  0  0  0  0  0  0
  187.7570  176.7810  137.5810 O   0  0  0  0  0  0  0  0  0  0  0  0
  186.2140  176.5360  135.8800 O   0  0  0  0  0  0  0  0  0  0  0  0
  185.6380  177.9950  137.5870 N   0  0  0  0  0  2  0  0  0  0  0  0
  186.5340  177.0750  136.9720 C   0  0  0  0  0  0  0  0  0  0  0  0
  185.9490  178.5840  138.8190 N   0  0  0  0  0  2  0  0  0  0  0  0
  185.2480  179.4990  140.8330 O   0  0  0  0  0  0  0  0  0  0  0  0
  184.9260  179.0050  139.7190 C   0  0  0  0  0  0  0  0  0  0  0  0
  181.4000  179.9690  138.8270 C   0  0  0  0  0  2  0  0  0  0  0  0
  182.6570  178.4310  140.5450 C   0  0  0  0  0  2  0  0  0  0  0  0
  182.9010  180.1530  138.8500 C   0  0  0  0  0  2  0  0  0  0  0  0
  183.4830  178.8530  139.3520 C   0  0  1  0  0  3  0  0  0  0  0  0
  180.9280  178.8860  140.2160 S   0  0  0  0  0  0  0  0  0  0  0  0
  189.4990  178.0420  138.6640 C   0  0  0  0  0  2  0  0  0  0  0  0
  190.4730  176.3660  140.0570 O   0  0  0  0  0  1  0  0  0  0  0  0
  189.2770  177.0250  139.7740 C   0  0  1  0  0  3  0  0  0  0  0  0
  188.6870  177.8660  141.2720 S   0  0  0  0  0  0  0  0  0  0  0  0
  189.3730  176.5910  142.3700 C   0  0  0  0  0  2  0  0  0  0  0  0
  188.6700  176.6270  143.7160 C   0  0  1  0  0  3  0  0  0  0  0  0
  189.4870  177.4300  144.7430 C   0  0  2  0  0  3  0  0  0  0  0  0
  187.3000  177.2720  143.5150 C   0  0  0  0  0  2  0  0  0  0  0  0
  191.0580  176.6570  145.0800 Cl  0  0  0  0  0  0  0  0  0  0  0  0
  186.5490  177.3690  144.8370 C   0  0  0  0  0  2  0  0  0  0  0  0
  188.7240  177.5490  146.0590 C   0  0  0  0  0  2  0  0  0  0  0  0
  187.3590  178.1930  145.8340 C   0  0  2  0  0  3  0  0  0  0  0  0
  185.2590  178.5530  147.1460 O   0  0  0  0  0  0  0  0  0  0  0  0
  187.2480  178.1570  148.2110 O   0  0  0  0  0  1  0  0  0  0  0  0
  186.6260  178.3050  147.1280 C   0  0  0  0  0  0  0  0  0  0  0  0
  1  3  1  1  0  0  0
  1  4  1  0  0  0  0
  1 16  1  0  0  0  0
  2  3  1  0  0  0  0
  5  7  2  0  0  0  0
  6  8  1  0  0  0  0
  7  4  1  0  0  0  0
  7  6  1  0  0  0  0
  8 10  1  0  0  0  0
 10  9  2  0  0  0  0
 11 13  1  0  0  0  0
 11 15  1  0  0  0  0
 13 14  1  0  0  0  0
 14 10  1  1  0  0  0
 14 12  1  0  0  0  0
 15 12  1  0  0  0  0
 16 18  1  0  0  0  0
 18 17  1  1  0  0  0
 18 19  1  0  0  0  0
 19 20  1  0  0  0  0
 21 20  1  6  0  0  0
 21 22  1  0  0  0  0
 22 24  1  1  0  0  0
 22 26  1  0  0  0  0
 23 21  1  0  0  0  0
 23 25  1  0  0  0  0
 25 27  1  0  0  0  0
 27 26  1  0  0  0  0
 27 30  1  1  0  0  0
 30 28  2  0  0  0  0
 30 29  1  0  0  0  0
M  END
>  <MODEL>
4

>  <REMARK>
 VINA RESULT:      -7.0      1.647      2.065
  Name = 
  11 active torsions:
  status: ('A' for Active; 'I' for Inactive)
    1  A    between atoms: C_1  and  C_25
    2  A    between atoms: C_2  and  O_6
    3  A    between atoms: C_2  and  C_13
    4  A    between atoms: C_2  and  C_19
    5  A    between atoms: S_3  and  C_25
    6  A    between atoms: S_3  and  C_30
    7  A    between atoms: O_6  and  C_10
    8  A    between atoms: N_8  and  N_9
    9  A    between atoms: C_13  and  C_30
   10  A    between atoms: C_16  and  C_27
   11  A    between atoms: C_23  and  C_29
                            x       y       z     vdW  Elec       q    Type
                         _______ _______ _______ _____ _____    ______ ____

>  <TORSDO>
F 11

$$$$
=
 OpenBabel11062413283D

 30 31  0  0  1  0  0  0  0  0999 V2000
  183.8530  177.9530  139.1200 C   0  0  1  0  0  3  0  0  0  0  0  0
  181.8180  179.1920  139.4530 O   0  0  0  0  0  1  0  0  0  0  0  0
  182.3440  178.0250  138.8960 C   0  0  0  0  0  2  0  0  0  0  0  0
  184.5440  178.0600  137.8810 O   0  0  0  0  0  0  0  0  0  0  0  0
  184.6760  175.8480  137.2280 O   0  0  0  0  0  0  0  0  0  0  0  0
  186.5370  177.1600  136.7910 N   0  0  0  0  0  2  0  0  0  0  0  0
  185.2190  176.9820  137.3020 C   0  0  0  0  0  0  0  0  0  0  0  0
  187.1550  178.4160  136.8270 N   0  0  0  0  0  2  0  0  0  0  0  0
  188.9760  179.7330  137.4040 O   0  0  0  0  0  0  0  0  0  0  0  0
  188.4380  178.5930  137.4240 C   0  0  0  0  0  0  0  0  0  0  0  0
  190.6710  176.7010  139.7870 C   0  0  0  0  0  2  0  0  0  0  0  0
  190.2970  176.9640  137.2010 C   0  0  0  0  0  2  0  0  0  0  0  0
  189.7220  177.8130  139.4020 C   0  0  0  0  0  2  0  0  0  0  0  0
  189.1450  177.4370  138.0590 C   0  0  1  0  0  3  0  0  0  0  0  0
  191.4520  176.0560  138.2720 S   0  0  0  0  0  0  0  0  0  0  0  0
  184.3230  179.0530  140.0630 C   0  0  0  0  0  2  0  0  0  0  0  0
  186.6520  178.8650  140.5500 O   0  0  0  0  0  1  0  0  0  0  0  0
  185.3820  178.5380  141.0260 C   0  0  1  0  0  3  0  0  0  0  0  0
  185.1450  179.2890  142.6630 S   0  0  0  0  0  0  0  0  0  0  0  0
  185.6580  177.7780  143.5320 C   0  0  0  0  0  2  0  0  0  0  0  0
  186.6890  178.1120  144.5970 C   0  0  1  0  0  3  0  0  0  0  0  0
  186.2420  177.5970  145.9770 C   0  0  2  0  0  3  0  0  0  0  0  0
  188.0090  177.4580  144.1950 C   0  0  0  0  0  2  0  0  0  0  0  0
  184.7520  178.4080  146.5280 Cl  0  0  0  0  0  0  0  0  0  0  0  0
  189.0860  177.7270  145.2390 C   0  0  0  0  0  2  0  0  0  0  0  0
  187.3310  177.8450  147.0180 C   0  0  0  0  0  2  0  0  0  0  0  0
  188.6400  177.1860  146.5950 C   0  0  2  0  0  3  0  0  0  0  0  0
  189.4420  178.2730  148.7010 O   0  0  0  0  0  1  0  0  0  0  0  0
  190.8100  176.8660  147.5190 O   0  0  0  0  0  0  0  0  0  0  0  0
  189.6920  177.4340  147.6220 C   0  0  0  0  0  0  0  0  0  0  0  0
  1  3  1  6  0  0  0
  1 16  1  0  0  0  0
  3  2  1  0  0  0  0
  4  1  1  0  0  0  0
  5  7  2  0  0  0  0
  6  8  1  0  0  0  0
  6  7  1  0  0  0  0
  7  4  1  0  0  0  0
  8 10  1  0  0  0  0
  9 10  2  0  0  0  0
 12 14  1  0  0  0  0
 12 15  1  0  0  0  0
 13 11  1  0  0  0  0
 14 10  1  6  0  0  0
 14 13  1  0  0  0  0
 15 11  1  0  0  0  0
 16 18  1  0  0  0  0
 18 17  1  6  0  0  0
 18 19  1  0  0  0  0
 19 20  1  0  0  0  0
 21 20  1  6  0  0  0
 21 22  1  0  0  0  0
 22 24  1  1  0  0  0
 22 26  1  0  0  0  0
 23 21  1  0  0  0  0
 23 25  1  0  0  0  0
 25 27  1  0  0  0  0
 27 26  1  0  0  0  0
 27 30  1  1  0  0  0
 29 30  2  0  0  0  0
 30 28  1  0  0  0  0
M  END
>  <MODEL>
5

>  <REMARK>
 VINA RESULT:      -6.9      2.874      5.603
  Name = 
  11 active torsions:
  status: ('A' for Active; 'I' for Inactive)
    1  A    between atoms: C_1  and  C_25
    2  A    between atoms: C_2  and  O_6
    3  A    between atoms: C_2  and  C_13
    4  A    between atoms: C_2  and  C_19
    5  A    between atoms: S_3  and  C_25
    6  A    between atoms: S_3  and  C_30
    7  A    between atoms: O_6  and  C_10
    8  A    between atoms: N_8  and  N_9
    9  A    between atoms: C_13  and  C_30
   10  A    between atoms: C_16  and  C_27
   11  A    between atoms: C_23  and  C_29
                            x       y       z     vdW  Elec       q    Type
                         _______ _______ _______ _____ _____    ______ ____

>  <TORSDO>
F 11

$$$$
=
 OpenBabel11062413283D

 30 31  0  0  1  0  0  0  0  0999 V2000
  191.2880  177.2970  145.9130 C   0  0  1  0  0  3  0  0  0  0  0  0
  192.5590  176.3470  147.7210 O   0  0  0  0  0  1  0  0  0  0  0  0
  191.6010  176.0570  146.7480 C   0  0  0  0  0  2  0  0  0  0  0  0
  191.7250  177.1160  144.5710 O   0  0  0  0  0  0  0  0  0  0  0  0
  192.1720  174.8890  144.1480 O   0  0  0  0  0  0  0  0  0  0  0  0
  190.5500  175.8810  142.8220 N   0  0  0  0  0  2  0  0  0  0  0  0
  191.5150  175.9260  143.8680 C   0  0  0  0  0  0  0  0  0  0  0  0
  189.7780  177.0070  142.5100 N   0  0  0  0  0  2  0  0  0  0  0  0
  188.8600  178.4230  140.9170 O   0  0  0  0  0  0  0  0  0  0  0  0
  189.5910  177.4250  141.1590 C   0  0  0  0  0  0  0  0  0  0  0  0
  192.0890  176.5990  138.4700 C   0  0  0  0  0  2  0  0  0  0  0  0
  189.4910  176.8720  138.7420 C   0  0  0  0  0  2  0  0  0  0  0  0
  191.6560  177.1700  139.8020 C   0  0  0  0  0  2  0  0  0  0  0  0
  190.2470  176.6820  140.0370 C   0  0  1  0  0  3  0  0  0  0  0  0
  190.6360  176.5210  137.3730 S   0  0  0  0  0  0  0  0  0  0  0  0
  189.7970  177.6070  145.9250 C   0  0  0  0  0  2  0  0  0  0  0  0
  189.5860  178.1570  148.2390 O   0  0  0  0  0  1  0  0  0  0  0  0
  189.1700  177.2480  147.2650 C   0  0  1  0  0  3  0  0  0  0  0  0
  187.3600  177.2990  147.1330 S   0  0  0  0  0  0  0  0  0  0  0  0
  187.4100  178.0280  145.4690 C   0  0  0  0  0  2  0  0  0  0  0  0
  186.0690  177.8460  144.7780 C   0  0  1  0  0  3  0  0  0  0  0  0
  185.0190  178.8150  145.3480 C   0  0  2  0  0  3  0  0  0  0  0  0
  186.2690  178.1070  143.2860 C   0  0  0  0  0  2  0  0  0  0  0  0
  184.6840  178.4810  147.0680 Cl  0  0  0  0  0  0  0  0  0  0  0  0
  184.9520  177.9710  142.5320 C   0  0  0  0  0  2  0  0  0  0  0  0
  183.7070  178.6970  144.5770 C   0  0  0  0  0  2  0  0  0  0  0  0
  183.9300  178.9580  143.0910 C   0  0  2  0  0  3  0  0  0  0  0  0
  181.4470  179.2270  142.9490 O   0  0  0  0  0  1  0  0  0  0  0  0
  182.6370  178.4070  141.1710 O   0  0  0  0  0  0  0  0  0  0  0  0
  182.6410  178.8420  142.3510 C   0  0  0  0  0  0  0  0  0  0  0  0
  1 16  1  6  0  0  0
  1  3  1  0  0  0  0
  3  2  1  0  0  0  0
  4  1  1  0  0  0  0
  6  7  1  0  0  0  0
  7  5  2  0  0  0  0
  7  4  1  0  0  0  0
  8  6  1  0  0  0  0
  9 10  2  0  0  0  0
 10  8  1  0  0  0  0
 11 13  1  0  0  0  0
 12 14  1  0  0  0  0
 13 14  1  0  0  0  0
 14 10  1  1  0  0  0
 15 11  1  0  0  0  0
 15 12  1  0  0  0  0
 16 18  1  0  0  0  0
 18 17  1  1  0  0  0
 19 18  1  0  0  0  0
 20 19  1  0  0  0  0
 21 22  1  0  0  0  0
 21 20  1  1  0  0  0
 22 24  1  1  0  0  0
 23 21  1  0  0  0  0
 25 27  1  0  0  0  0
 25 23  1  0  0  0  0
 26 22  1  0  0  0  0
 27 30  1  6  0  0  0
 27 26  1  0  0  0  0
 29 30  2  0  0  0  0
 30 28  1  0  0  0  0
M  END
>  <MODEL>
6

>  <REMARK>
 VINA RESULT:      -6.9      3.514      6.090
  Name = 
  11 active torsions:
  status: ('A' for Active; 'I' for Inactive)
    1  A    between atoms: C_1  and  C_25
    2  A    between atoms: C_2  and  O_6
    3  A    between atoms: C_2  and  C_13
    4  A    between atoms: C_2  and  C_19
    5  A    between atoms: S_3  and  C_25
    6  A    between atoms: S_3  and  C_30
    7  A    between atoms: O_6  and  C_10
    8  A    between atoms: N_8  and  N_9
    9  A    between atoms: C_13  and  C_30
   10  A    between atoms: C_16  and  C_27
   11  A    between atoms: C_23  and  C_29
                            x       y       z     vdW  Elec       q    Type
                         _______ _______ _______ _____ _____    ______ ____

>  <TORSDO>
F 11

$$$$
=
 OpenBabel11062413283D

 30 31  0  0  1  0  0  0  0  0999 V2000
  189.6390  177.9630  139.7060 C   0  0  1  0  0  3  0  0  0  0  0  0
  191.8060  177.4850  140.6350 O   0  0  0  0  0  1  0  0  0  0  0  0
  191.0320  177.3820  139.4770 C   0  0  0  0  0  2  0  0  0  0  0  0
  188.9620  178.1320  138.4660 O   0  0  0  0  0  0  0  0  0  0  0  0
  188.4510  176.1030  137.4880 O   0  0  0  0  0  0  0  0  0  0  0  0
  186.6540  177.4690  138.0170 N   0  0  0  0  0  0  0  0  0  0  0  0
  188.0510  177.1940  137.9740 C   0  0  0  0  0  0  0  0  0  0  0  0
  186.1760  178.6580  138.5820 N   0  0  0  0  0  0  0  0  0  0  0  0
  184.4310  179.8640  139.5230 O   0  0  0  0  0  0  0  0  0  0  0  0
  184.8140  178.7900  138.9860 C   0  0  0  0  0  0  0  0  0  0  0  0
  181.8800  176.8680  137.6250 C   0  0  0  0  0  2  0  0  0  0  0  0
  182.8940  177.5480  139.9500 C   0  0  0  0  0  2  0  0  0  0  0  0
  183.0130  177.8680  137.5450 C   0  0  0  0  0  2  0  0  0  0  0  0
  183.8500  177.6630  138.7850 C   0  0  1  0  0  3  0  0  0  0  0  0
  181.4200  176.6510  139.3750 S   0  0  0  0  0  0  0  0  0  0  0  0
  188.8120  177.0670  140.6190 C   0  0  0  0  0  2  0  0  0  0  0  0
  187.3240  178.6320  141.6350 O   0  0  0  0  0  1  0  0  0  0  0  0
  188.4110  177.7980  141.8920 C   0  0  1  0  0  3  0  0  0  0  0  0
  187.9530  176.5960  143.1750 S   0  0  0  0  0  0  0  0  0  0  0  0
  187.7730  177.8820  144.4460 C   0  0  0  0  0  2  0  0  0  0  0  0
  188.9770  177.8740  145.3730 C   0  0  1  0  0  3  0  0  0  0  0  0
  188.6210  177.2500  146.7330 C   0  0  2  0  0  3  0  0  0  0  0  0
  190.0850  177.0680  144.6980 C   0  0  0  0  0  2  0  0  0  0  0  0
  187.3980  178.2170  147.5980 Cl  0  0  0  0  0  0  0  0  0  0  0  0
  191.3180  176.9920  145.5890 C   0  0  0  0  0  2  0  0  0  0  0  0
  189.8620  177.1520  147.6170 C   0  0  0  0  0  2  0  0  0  0  0  0
  190.9550  176.3450  146.9230 C   0  0  2  0  0  3  0  0  0  0  0  0
  192.4070  177.2280  148.7590 O   0  0  0  0  0  1  0  0  0  0  0  0
  192.9460  175.2820  147.6770 O   0  0  0  0  0  0  0  0  0  0  0  0
  192.1590  176.2550  147.7980 C   0  0  0  0  0  0  0  0  0  0  0  0
  1  3  1  6  0  0  0
  1 16  1  0  0  0  0
  3  2  1  0  0  0  0
  4  1  1  0  0  0  0
  5  7  2  0  0  0  0
  6  8  2  0  0  0  0
  7  6  1  0  0  0  0
  7  4  1  0  0  0  0
  8 10  1  0  0  0  0
 10  9  2  0  0  0  0
 11 15  1  0  0  0  0
 13 11  1  0  0  0  0
 13 14  1  0  0  0  0
 14 10  1  1  0  0  0
 14 12  1  0  0  0  0
 15 12  1  0  0  0  0
 16 18  1  0  0  0  0
 18 17  1  6  0  0  0
 18 19  1  0  0  0  0
 19 20  1  0  0  0  0
 21 20  1  6  0  0  0
 21 22  1  0  0  0  0
 22 24  1  1  0  0  0
 22 26  1  0  0  0  0
 23 21  1  0  0  0  0
 23 25  1  0  0  0  0
 25 27  1  0  0  0  0
 27 26  1  0  0  0  0
 27 30  1  1  0  0  0
 29 30  2  0  0  0  0
 30 28  1  0  0  0  0
M  END
>  <MODEL>
7

>  <REMARK>
 VINA RESULT:      -6.9      2.322      3.600
  Name = 
  11 active torsions:
  status: ('A' for Active; 'I' for Inactive)
    1  A    between atoms: C_1  and  C_25
    2  A    between atoms: C_2  and  O_6
    3  A    between atoms: C_2  and  C_13
    4  A    between atoms: C_2  and  C_19
    5  A    between atoms: S_3  and  C_25
    6  A    between atoms: S_3  and  C_30
    7  A    between atoms: O_6  and  C_10
    8  A    between atoms: N_8  and  N_9
    9  A    between atoms: C_13  and  C_30
   10  A    between atoms: C_16  and  C_27
   11  A    between atoms: C_23  and  C_29
                            x       y       z     vdW  Elec       q    Type
                         _______ _______ _______ _____ _____    ______ ____

>  <TORSDO>
F 11

$$$$
=
 OpenBabel11062413283D

 30 31  0  0  1  0  0  0  0  0999 V2000
  189.5950  176.9740  138.9080 C   0  0  1  0  0  3  0  0  0  0  0  0
  188.0970  178.5660  137.9020 O   0  0  0  0  0  1  0  0  0  0  0  0
  189.2990  177.8800  137.7150 C   0  0  0  0  0  2  0  0  0  0  0  0
  190.6640  176.0850  138.6020 O   0  0  0  0  0  0  0  0  0  0  0  0
  189.7240  174.2340  137.5910 O   0  0  0  0  0  0  0  0  0  0  0  0
  191.4990  175.2220  136.4750 N   0  0  0  0  0  2  0  0  0  0  0  0
  190.5890  175.1480  137.5680 C   0  0  0  0  0  0  0  0  0  0  0  0
  192.4500  176.2480  136.4030 N   0  0  0  0  0  2  0  0  0  0  0  0
  194.6720  176.9140  136.3460 O   0  0  0  0  0  0  0  0  0  0  0  0
  193.8480  175.9660  136.4500 C   0  0  0  0  0  0  0  0  0  0  0  0
  195.2230  172.8850  138.1150 C   0  0  0  0  0  2  0  0  0  0  0  0
  195.7130  174.3880  136.0170 C   0  0  0  0  0  2  0  0  0  0  0  0
  194.4270  174.1700  138.0660 C   0  0  0  0  0  2  0  0  0  0  0  0
  194.3340  174.5590  136.6100 C   0  0  1  0  0  3  0  0  0  0  0  0
  196.4730  172.9270  136.7900 S   0  0  0  0  0  0  0  0  0  0  0  0
  189.9480  177.7900  140.1450 C   0  0  0  0  0  2  0  0  0  0  0  0
  192.2960  177.6740  140.5580 O   0  0  0  0  0  1  0  0  0  0  0  0
  191.0680  177.1310  140.9370 C   0  0  1  0  0  3  0  0  0  0  0  0
  190.8130  177.4090  142.7130 S   0  0  0  0  0  0  0  0  0  0  0  0
  189.1060  176.7860  142.6590 C   0  0  0  0  0  2  0  0  0  0  0  0
  188.1990  177.6730  143.4960 C   0  0  1  0  0  3  0  0  0  0  0  0
  186.7950  177.7650  142.8760 C   0  0  2  0  0  3  0  0  0  0  0  0
  188.1160  177.0700  144.8980 C   0  0  0  0  0  2  0  0  0  0  0  0
  186.8340  178.5520  141.2770 Cl  0  0  0  0  0  0  0  0  0  0  0  0
  187.1930  177.8950  145.7870 C   0  0  0  0  0  2  0  0  0  0  0  0
  185.8630  178.5710  143.7790 C   0  0  0  0  0  2  0  0  0  0  0  0
  185.7970  177.9540  145.1730 C   0  0  2  0  0  3  0  0  0  0  0  0
  183.5730  178.9960  145.6490 O   0  0  0  0  0  0  0  0  0  0  0  0
  185.2970  179.1850  147.1460 O   0  0  0  0  0  1  0  0  0  0  0  0
  184.8830  178.7490  146.0420 C   0  0  0  0  0  0  0  0  0  0  0  0
  1  3  1  6  0  0  0
  1 16  1  0  0  0  0
  3  2  1  0  0  0  0
  4  1  1  0  0  0  0
  6  7  1  0  0  0  0
  7  5  2  0  0  0  0
  7  4  1  0  0  0  0
  8 10  1  0  0  0  0
  8  6  1  0  0  0  0
  9 10  2  0  0  0  0
 12 14  1  0  0  0  0
 12 15  1  0  0  0  0
 13 11  1  0  0  0  0
 14 10  1  1  0  0  0
 14 13  1  0  0  0  0
 15 11  1  0  0  0  0
 16 18  1  0  0  0  0
 18 17  1  6  0  0  0
 18 19  1  0  0  0  0
 20 19  1  0  0  0  0
 21 20  1  6  0  0  0
 21 23  1  0  0  0  0
 22 24  1  6  0  0  0
 22 21  1  0  0  0  0
 22 26  1  0  0  0  0
 23 25  1  0  0  0  0
 26 27  1  0  0  0  0
 27 25  1  0  0  0  0
 27 30  1  1  0  0  0
 28 30  2  0  0  0  0
 30 29  1  0  0  0  0
M  END
>  <MODEL>
8

>  <REMARK>
 VINA RESULT:      -6.7      3.834      6.825
  Name = 
  11 active torsions:
  status: ('A' for Active; 'I' for Inactive)
    1  A    between atoms: C_1  and  C_25
    2  A    between atoms: C_2  and  O_6
    3  A    between atoms: C_2  and  C_13
    4  A    between atoms: C_2  and  C_19
    5  A    between atoms: S_3  and  C_25
    6  A    between atoms: S_3  and  C_30
    7  A    between atoms: O_6  and  C_10
    8  A    between atoms: N_8  and  N_9
    9  A    between atoms: C_13  and  C_30
   10  A    between atoms: C_16  and  C_27
   11  A    between atoms: C_23  and  C_29
                            x       y       z     vdW  Elec       q    Type
                         _______ _______ _______ _____ _____    ______ ____

>  <TORSDO>
F 11

$$$$
=
 OpenBabel11062413283D

 30 31  0  0  1  0  0  0  0  0999 V2000
  187.6590  176.5280  137.3210 C   0  0  1  0  0  3  0  0  0  0  0  0
  187.0360  178.2500  135.7600 O   0  0  0  0  0  1  0  0  0  0  0  0
  187.1870  176.8700  135.9090 C   0  0  0  0  0  2  0  0  0  0  0  0
  189.0650  176.3110  137.3350 O   0  0  0  0  0  0  0  0  0  0  0  0
  189.0210  174.0330  136.9550 O   0  0  0  0  0  0  0  0  0  0  0  0
  190.8960  174.8560  138.0420 N   0  0  0  0  0  2  0  0  0  0  0  0
  189.6270  175.0340  137.4210 C   0  0  0  0  0  0  0  0  0  0  0  0
  191.6110  175.9540  138.5380 N   0  0  0  0  0  2  0  0  0  0  0  0
  193.5960  177.1460  138.6870 O   0  0  0  0  0  0  0  0  0  0  0  0
  192.9970  176.1260  138.2510 C   0  0  0  0  0  0  0  0  0  0  0  0
  195.7400  173.7810  137.1860 C   0  0  0  0  0  2  0  0  0  0  0  0
  194.3040  175.7350  136.1770 C   0  0  0  0  0  2  0  0  0  0  0  0
  194.8930  174.5210  138.1970 C   0  0  0  0  0  2  0  0  0  0  0  0
  193.7340  175.1130  137.4310 C   0  0  1  0  0  3  0  0  0  0  0  0
  195.6670  174.6780  135.6010 S   0  0  0  0  0  0  0  0  0  0  0  0
  187.3050  177.6370  138.3030 C   0  0  0  0  0  2  0  0  0  0  0  0
  189.0100  179.3000  138.4620 O   0  0  0  0  0  1  0  0  0  0  0  0
  188.5380  178.1260  139.0490 C   0  0  1  0  0  3  0  0  0  0  0  0
  188.1190  178.4510  140.7860 S   0  0  0  0  0  0  0  0  0  0  0  0
  189.0650  177.0160  141.3780 C   0  0  0  0  0  2  0  0  0  0  0  0
  188.7460  176.7460  142.8390 C   0  0  1  0  0  3  0  0  0  0  0  0
  189.8560  177.2880  143.7550 C   0  0  2  0  0  3  0  0  0  0  0  0
  187.4170  177.4260  143.1640 C   0  0  0  0  0  2  0  0  0  0  0  0
  191.4050  176.4510  143.4750 Cl  0  0  0  0  0  0  0  0  0  0  0  0
  187.0490  177.2220  144.6280 C   0  0  0  0  0  2  0  0  0  0  0  0
  189.4760  177.1050  145.2230 C   0  0  0  0  0  2  0  0  0  0  0  0
  188.1460  177.7900  145.5240 C   0  0  2  0  0  3  0  0  0  0  0  0
  186.6750  178.2390  147.4970 O   0  0  0  0  0  0  0  0  0  0  0  0
  188.4940  176.8580  147.6860 O   0  0  0  0  0  1  0  0  0  0  0  0
  187.7890  177.6060  146.9590 C   0  0  0  0  0  0  0  0  0  0  0  0
  1  3  1  6  0  0  0
  1  4  1  0  0  0  0
  1 16  1  0  0  0  0
  2  3  1  0  0  0  0
  4  7  1  0  0  0  0
  5  7  2  0  0  0  0
  6  8  1  0  0  0  0
  7  6  1  0  0  0  0
 10  8  1  0  0  0  0
 10  9  2  0  0  0  0
 11 13  1  0  0  0  0
 12 14  1  0  0  0  0
 14 13  1  0  0  0  0
 14 10  1  1  0  0  0
 15 12  1  0  0  0  0
 15 11  1  0  0  0  0
 16 18  1  0  0  0  0
 18 17  1  6  0  0  0
 18 19  1  0  0  0  0
 19 20  1  0  0  0  0
 21 20  1  6  0  0  0
 21 23  1  0  0  0  0
 21 22  1  0  0  0  0
 22 24  1  1  0  0  0
 22 26  1  0  0  0  0
 23 25  1  0  0  0  0
 25 27  1  0  0  0  0
 26 27  1  0  0  0  0
 27 30  1  1  0  0  0
 30 28  2  0  0  0  0
 30 29  1  0  0  0  0
M  END
>  <MODEL>
9

>  <REMARK>
 VINA RESULT:      -6.7      3.406      6.657
  Name = 
  11 active torsions:
  status: ('A' for Active; 'I' for Inactive)
    1  A    between atoms: C_1  and  C_25
    2  A    between atoms: C_2  and  O_6
    3  A    between atoms: C_2  and  C_13
    4  A    between atoms: C_2  and  C_19
    5  A    between atoms: S_3  and  C_25
    6  A    between atoms: S_3  and  C_30
    7  A    between atoms: O_6  and  C_10
    8  A    between atoms: N_8  and  N_9
    9  A    between atoms: C_13  and  C_30
   10  A    between atoms: C_16  and  C_27
   11  A    between atoms: C_23  and  C_29
                            x       y       z     vdW  Elec       q    Type
                         _______ _______ _______ _____ _____    ______ ____

>  <TORSDO>
F 11

$$$$
