=
 OpenBabel11062416433D

 57 64  0  0  1  0  0  0  0  0999 V2000
  188.2380  177.5370  136.7180 O   0  0  0  0  0  0  0  0  0  0  0  0
  189.4940  173.8110  136.1250 C   0  0  0  0  0  0  0  0  0  0  0  0
  184.5090  172.5940  136.3930 C   0  0  2  0  0  3  0  0  0  0  0  0
  191.2040  175.2220  138.6380 C   0  0  0  0  0  3  0  0  0  0  0  0
  187.4740  177.9260  138.8890 N   0  0  0  0  0  2  0  0  0  0  0  0
  189.0670  173.4560  134.8400 C   0  0  0  0  0  3  0  0  0  0  0  0
  184.4710  172.8920  134.9370 N   0  0  1  0  0  0  0  0  0  0  0  0
  183.6530  176.4420  137.4680 C   0  0  0  0  0  0  0  0  0  0  0  0
  191.4080  174.3190  137.6700 C   0  0  0  0  0  3  0  0  0  0  0  0
  190.1610  177.2270  139.7130 C   0  0  1  0  0  3  0  0  0  0  0  0
  190.8380  174.4630  136.2850 C   0  0  0  0  0  2  0  0  0  0  0  0
  184.8390  175.2750  135.7060 C   0  0  0  0  0  0  0  0  0  0  0  0
  185.5100  170.7310  135.1700 O   0  0  0  0  0  1  0  0  0  0  0  0
  189.5150  179.5570  138.4760 O   0  0  0  0  0  0  0  0  0  0  0  0
  186.9430  172.6900  135.7310 C   0  0  0  0  0  0  0  0  0  0  0  0
  187.2980  177.4440  137.5550 C   0  0  0  0  0  0  0  0  0  0  0  0
  188.7430  179.2520  140.7750 O   0  0  0  0  0  0  0  0  0  0  0  0
  186.0180  175.9180  136.0820 C   0  0  0  0  0  3  0  0  0  0  0  0
  188.9830  178.5570  139.4650 S   0  0  0  0  0  0  0  0  0  0  0  0
  184.8970  174.2670  134.5940 C   0  0  0  0  0  2  0  0  0  0  0  0
  187.3730  173.0370  137.0190 C   0  0  0  0  0  3  0  0  0  0  0  0
  186.0340  176.8090  137.1580 C   0  0  0  0  0  0  0  0  0  0  0  0
  184.8470  177.0610  137.8580 C   0  0  0  0  0  3  0  0  0  0  0  0
  183.6480  175.5520  136.3870 C   0  0  0  0  0  3  0  0  0  0  0  0
  190.4230  176.4810  138.4090 C   0  0  0  0  0  2  0  0  0  0  0  0
  185.5750  172.0830  135.5240 C   0  0  2  0  0  0  0  0  0  0  0  0
  187.8010  172.8920  134.6420 C   0  0  0  0  0  3  0  0  0  0  0  0
  188.6330  173.6060  137.2130 C   0  0  0  0  0  3  0  0  0  0  0  0
  183.4270  171.5710  136.7180 C   0  0  0  0  0  2  0  0  0  0  0  0
  180.4090  174.0030  139.1000 C   0  0  0  0  0  2  0  0  0  0  0  0
  181.6760  173.6560  138.3010 C   0  0  0  0  0  2  0  0  0  0  0  0
  181.1600  172.8700  137.1340 C   0  0  2  0  0  3  0  0  0  0  0  0
  179.0030  172.9360  138.5470 S   0  0  0  0  0  0  0  0  0  0  0  0
  181.5590  171.8210  134.8210 C   0  0  0  0  0  2  0  0  0  0  0  0
  181.1960  170.8060  135.8860 C   0  0  2  0  0  3  0  0  0  0  0  0
  180.2210  171.9060  137.7230 C   0  0  1  0  0  3  0  0  0  0  0  0
  179.8320  171.0730  136.5360 C   0  0  0  0  0  2  0  0  0  0  0  0
  182.0510  172.0350  136.2430 C   0  0  1  0  0  0  0  0  0  0  0  0
  191.4440  177.7230  140.3960 C   0  0  0  0  0  2  0  0  0  0  0  0
  191.3850  177.6760  141.8930 C   0  0  0  0  0  3  0  0  0  0  0  0
  192.0440  178.5190  142.5970 N   0  0  0  0  0  0  0  0  0  0  0  0
  191.9690  178.4740  144.0290 C   0  0  0  0  0  2  0  0  0  0  0  0
  190.7950  177.6110  144.4430 C   0  0  0  0  0  2  0  0  0  0  0  0
  190.3040  178.0150  145.8220 C   0  0  2  0  0  3  0  0  0  0  0  0
  191.3500  177.7760  146.8050 N   0  0  0  0  0  2  0  0  0  0  0  0
  192.1590  175.5330  146.4100 C   0  0  0  0  0  2  0  0  0  0  0  0
  192.5470  175.9350  147.8160 C   0  0  0  0  0  2  0  0  0  0  0  0
  191.2250  176.3940  147.2340 C   0  0  0  0  0  3  0  0  0  0  0  0
  189.0740  177.1890  146.1700 C   0  0  0  0  0  2  0  0  0  0  0  0
  188.2170  178.0860  148.3060 C   0  0  0  0  0  1  0  0  0  0  0  0
  187.9950  178.0500  146.8070 C   0  0  2  0  0  3  0  0  0  0  0  0
  186.6180  177.4750  146.5000 C   0  0  0  0  0  2  0  0  0  0  0  0
  185.7480  178.4860  145.7700 C   0  0  0  0  0  2  0  0  0  0  0  0
  184.3030  178.3600  146.2120 C   0  0  0  0  0  1  0  0  0  0  0  0
  182.3880  176.7320  138.1970 C   0  0  0  0  0  2  0  0  0  0  0  0
  181.7560  178.0020  137.6580 C   0  0  0  0  0  2  0  0  0  0  0  0
  181.6050  179.0030  138.7820 C   0  0  0  0  0  1  0  0  0  0  0  0
  1 16  2  0  0  0  0
  2 11  1  0  0  0  0
  2 28  1  0  0  0  0
  3 29  1  6  0  0  0
  5 19  1  0  0  0  0
  6  2  2  0  0  0  0
  7 20  1  1  0  0  0
  7 26  1  0  0  0  0
  7  3  1  0  0  0  0
  8 23  1  0  0  0  0
  8 55  1  0  0  0  0
  9  4  2  0  0  0  0
 10 39  1  6  0  0  0
 11  9  1  0  0  0  0
 12 18  2  0  0  0  0
 12 24  1  0  0  0  0
 14 19  2  0  0  0  0
 15 21  1  0  0  0  0
 16  5  1  0  0  0  0
 18 22  1  0  0  0  0
 19 10  1  0  0  0  0
 19 17  2  0  0  0  0
 20 12  1  0  0  0  0
 21 28  2  0  0  0  0
 22 16  1  0  0  0  0
 22 23  2  0  0  0  0
 24  8  2  0  0  0  0
 25  4  1  0  0  0  0
 25 10  1  0  0  0  0
 26 13  1  6  0  0  0
 26 15  1  0  0  0  0
 26  3  1  0  0  0  0
 27  6  1  0  0  0  0
 27 15  2  0  0  0  0
 31 30  1  0  0  0  0
 32 36  1  0  0  0  0
 32 31  1  1  0  0  0
 33 30  1  0  0  0  0
 34 38  1  0  0  0  0
 35 34  1  6  0  0  0
 35 38  1  0  0  0  0
 35 37  1  0  0  0  0
 36 37  1  6  0  0  0
 36 33  1  0  0  0  0
 38 29  1  1  0  0  0
 38 32  1  0  0  0  0
 39 40  1  0  0  0  0
 40 41  2  0  0  0  0
 41 42  1  0  0  0  0
 42 43  1  0  0  0  0
 44 43  1  6  0  0  0
 44 49  1  0  0  0  0
 44 45  1  0  0  0  0
 45 48  1  0  0  0  0
 46 48  1  0  0  0  0
 46 47  1  0  0  0  0
 48 47  1  0  0  0  0
 49 51  1  0  0  0  0
 51 50  1  1  0  0  0
 52 51  1  0  0  0  0
 53 54  1  0  0  0  0
 53 52  1  0  0  0  0
 56 55  1  0  0  0  0
 56 57  1  0  0  0  0
M  END
>  <MODEL>
1

>  <REMARK>
 VINA RESULT:      -6.0      0.000      0.000
  Name = 
  15 active torsions:
  status: ('A' for Active; 'I' for Inactive)
    1  A    between atoms: C_3  and  C_49
    2  A    between atoms: C_4  and  C_24
    3  A    between atoms: C_5  and  C_11
    4  A    between atoms: N_7  and  C_21
    5  A    between atoms: N_7  and  C_26
    6  A    between atoms: C_11  and  C_55
    7  A    between atoms: C_12  and  C_49
    8  A    between atoms: C_14  and  C_24
    9  A    between atoms: C_15  and  C_19
   10  A    between atoms: C_19  and  C_51
   11  A    between atoms: C_21  and  C_41
   12  A    between atoms: C_21  and  C_44
   13  A    between atoms: C_22  and  N_32
   14  A    between atoms: C_22  and  C_44
   15  A    between atoms: C_41  and  C_51
                            x       y       z     vdW  Elec       q    Type
                         _______ _______ _______ _____ _____    ______ ____

>  <TORSDO>
F 15

$$$$
=
 OpenBabel11062416433D

 57 64  0  0  1  0  0  0  0  0999 V2000
  186.3060  179.3620  139.4400 O   0  0  0  0  0  0  0  0  0  0  0  0
  186.5980  177.1040  136.1800 C   0  0  0  0  0  0  0  0  0  0  0  0
  181.6120  176.1500  136.9710 C   0  0  2  0  0  3  0  0  0  0  0  0
  189.0160  176.3070  138.3590 C   0  0  0  0  0  3  0  0  0  0  0  0
  186.0700  178.1280  141.4070 N   0  0  0  0  0  2  0  0  0  0  0  0
  185.8700  177.7630  135.1830 C   0  0  0  0  0  3  0  0  0  0  0  0
  181.3640  177.3860  136.1840 N   0  0  1  0  0  0  0  0  0  0  0  0
  181.8210  178.1480  140.5290 C   0  0  0  0  0  0  0  0  0  0  0  0
  188.8340  176.3410  137.0330 C   0  0  0  0  0  3  0  0  0  0  0  0
  188.6500  176.9980  140.7380 C   0  0  1  0  0  3  0  0  0  0  0  0
  188.0560  177.4280  136.3430 C   0  0  0  0  0  2  0  0  0  0  0  0
  182.3730  178.5330  138.2020 C   0  0  0  0  0  0  0  0  0  0  0  0
  181.9400  175.6660  134.6000 O   0  0  0  0  0  1  0  0  0  0  0  0
  188.2960  179.5370  141.6330 O   0  0  0  0  0  0  0  0  0  0  0  0
  183.8390  176.6350  135.8870 C   0  0  0  0  0  0  0  0  0  0  0  0
  185.5440  178.7260  140.2200 C   0  0  0  0  0  0  0  0  0  0  0  0
  187.9270  177.7190  143.2260 O   0  0  0  0  0  0  0  0  0  0  0  0
  183.7120  178.7020  138.5530 C   0  0  0  0  0  3  0  0  0  0  0  0
  187.7590  178.1420  141.7940 S   0  0  0  0  0  0  0  0  0  0  0  0
  182.0020  178.5970  136.7480 C   0  0  0  0  0  2  0  0  0  0  0  0
  184.5700  175.9680  136.8790 C   0  0  0  0  0  3  0  0  0  0  0  0
  184.1220  178.5790  139.8830 C   0  0  0  0  0  0  0  0  0  0  0  0
  183.1710  178.2900  140.8710 C   0  0  0  0  0  3  0  0  0  0  0  0
  181.4200  178.2750  139.1940 C   0  0  0  0  0  3  0  0  0  0  0  0
  188.4940  177.3780  139.2680 C   0  0  0  0  0  2  0  0  0  0  0  0
  182.3590  176.3760  135.7290 C   0  0  2  0  0  0  0  0  0  0  0  0
  184.4990  177.5270  135.0310 C   0  0  0  0  0  3  0  0  0  0  0  0
  185.9360  176.2100  137.0340 C   0  0  0  0  0  3  0  0  0  0  0  0
  180.4180  175.2170  136.8180 C   0  0  0  0  0  2  0  0  0  0  0  0
  182.8110  171.6680  135.2750 C   0  0  0  0  0  2  0  0  0  0  0  0
  182.4980  173.0650  135.8360 C   0  0  0  0  0  2  0  0  0  0  0  0
  181.4930  172.8010  136.9160 C   0  0  2  0  0  3  0  0  0  0  0  0
  181.5180  170.4640  135.8240 S   0  0  0  0  0  0  0  0  0  0  0  0
  180.1660  173.6310  138.9570 C   0  0  0  0  0  2  0  0  0  0  0  0
  179.2850  173.2120  137.7970 C   0  0  2  0  0  3  0  0  0  0  0  0
  180.5250  171.8810  136.3040 C   0  0  1  0  0  3  0  0  0  0  0  0
  179.4860  171.7490  137.3800 C   0  0  0  0  0  2  0  0  0  0  0  0
  180.6440  173.8870  137.5360 C   0  0  1  0  0  0  0  0  0  0  0  0
  190.1160  176.8440  141.1710 C   0  0  0  0  0  2  0  0  0  0  0  0
  191.0990  177.2950  140.1340 C   0  0  0  0  0  3  0  0  0  0  0  0
  192.1430  176.5960  139.8800 N   0  0  0  0  0  0  0  0  0  0  0  0
  193.0710  177.0300  138.8750 C   0  0  0  0  0  2  0  0  0  0  0  0
  192.6650  176.4530  137.5350 C   0  0  0  0  0  2  0  0  0  0  0  0
  193.8270  175.6980  136.9120 C   0  0  2  0  0  3  0  0  0  0  0  0
  193.3330  174.8150  135.8660 N   0  0  0  0  0  2  0  0  0  0  0  0
  191.1880  173.9900  135.1200 C   0  0  0  0  0  2  0  0  0  0  0  0
  191.9110  172.8610  135.8190 C   0  0  0  0  0  2  0  0  0  0  0  0
  192.0610  174.2830  136.3210 C   0  0  0  0  0  3  0  0  0  0  0  0
  194.5200  174.8790  137.9910 C   0  0  0  0  0  2  0  0  0  0  0  0
  195.3810  172.5640  137.9400 C   0  0  0  0  0  1  0  0  0  0  0  0
  195.5780  173.9660  137.3950 C   0  0  2  0  0  3  0  0  0  0  0  0
  196.9690  174.4710  137.7560 C   0  0  0  0  0  2  0  0  0  0  0  0
  197.8520  174.5850  136.5240 C   0  0  0  0  0  2  0  0  0  0  0  0
  197.3020  175.6310  135.5730 C   0  0  0  0  0  1  0  0  0  0  0  0
  180.8090  177.8680  141.5850 C   0  0  0  0  0  2  0  0  0  0  0  0
  180.7990  178.9880  142.6080 C   0  0  0  0  0  2  0  0  0  0  0  0
  179.9940  180.1510  142.0710 C   0  0  0  0  0  1  0  0  0  0  0  0
  1 16  2  0  0  0  0
  2 11  1  0  0  0  0
  2 28  1  0  0  0  0
  3 29  1  6  0  0  0
  4 25  1  0  0  0  0
  5 19  1  0  0  0  0
  6  2  2  0  0  0  0
  7 20  1  1  0  0  0
  7  3  1  0  0  0  0
  8 23  1  0  0  0  0
  8 55  1  0  0  0  0
  9  4  2  0  0  0  0
 10 39  1  1  0  0  0
 10 19  1  0  0  0  0
 11  9  1  0  0  0  0
 12 18  2  0  0  0  0
 12 24  1  0  0  0  0
 14 19  2  0  0  0  0
 15 21  1  0  0  0  0
 16  5  1  0  0  0  0
 18 22  1  0  0  0  0
 19 17  2  0  0  0  0
 20 12  1  0  0  0  0
 21 28  2  0  0  0  0
 22 16  1  0  0  0  0
 22 23  2  0  0  0  0
 24  8  2  0  0  0  0
 25 10  1  0  0  0  0
 26 13  1  6  0  0  0
 26 15  1  0  0  0  0
 26  7  1  0  0  0  0
 26  3  1  0  0  0  0
 27  6  1  0  0  0  0
 27 15  2  0  0  0  0
 30 33  1  0  0  0  0
 30 31  1  0  0  0  0
 32 31  1  6  0  0  0
 32 38  1  0  0  0  0
 33 36  1  0  0  0  0
 35 37  1  6  0  0  0
 35 34  1  0  0  0  0
 36 32  1  0  0  0  0
 36 37  1  1  0  0  0
 38 29  1  6  0  0  0
 38 35  1  0  0  0  0
 38 34  1  0  0  0  0
 40 39  1  0  0  0  0
 41 40  2  0  0  0  0
 42 41  1  0  0  0  0
 43 42  1  0  0  0  0
 44 43  1  1  0  0  0
 44 49  1  0  0  0  0
 45 48  1  0  0  0  0
 45 44  1  0  0  0  0
 46 47  1  0  0  0  0
 46 48  1  0  0  0  0
 47 48  1  0  0  0  0
 51 52  1  0  0  0  0
 51 50  1  1  0  0  0
 51 49  1  0  0  0  0
 53 52  1  0  0  0  0
 54 53  1  0  0  0  0
 55 56  1  0  0  0  0
 57 56  1  0  0  0  0
M  END
>  <MODEL>
2

>  <REMARK>
 VINA RESULT:      -5.1      3.492      6.750
  Name = 
  15 active torsions:
  status: ('A' for Active; 'I' for Inactive)
    1  A    between atoms: C_3  and  C_49
    2  A    between atoms: C_4  and  C_24
    3  A    between atoms: C_5  and  C_11
    4  A    between atoms: N_7  and  C_21
    5  A    between atoms: N_7  and  C_26
    6  A    between atoms: C_11  and  C_55
    7  A    between atoms: C_12  and  C_49
    8  A    between atoms: C_14  and  C_24
    9  A    between atoms: C_15  and  C_19
   10  A    between atoms: C_19  and  C_51
   11  A    between atoms: C_21  and  C_41
   12  A    between atoms: C_21  and  C_44
   13  A    between atoms: C_22  and  N_32
   14  A    between atoms: C_22  and  C_44
   15  A    between atoms: C_41  and  C_51
                            x       y       z     vdW  Elec       q    Type
                         _______ _______ _______ _____ _____    ______ ____

>  <TORSDO>
F 15

$$$$
=
 OpenBabel11062416433D

 57 64  0  0  1  0  0  0  0  0999 V2000
  187.8840  178.7550  138.1920 O   0  0  0  0  0  0  0  0  0  0  0  0
  186.1320  176.7880  135.2120 C   0  0  0  0  0  0  0  0  0  0  0  0
  181.8950  177.1530  138.0950 C   0  0  2  0  0  3  0  0  0  0  0  0
  188.9110  175.1860  136.1810 C   0  0  0  0  0  3  0  0  0  0  0  0
  188.1610  177.4680  140.1190 N   0  0  0  0  0  2  0  0  0  0  0  0
  185.2690  177.7020  134.5970 C   0  0  0  0  0  3  0  0  0  0  0  0
  181.6960  178.4730  137.4410 N   0  0  1  0  0  0  0  0  0  0  0  0
  184.1310  178.7100  141.1400 C   0  0  0  0  0  0  0  0  0  0  0  0
  188.2070  175.3800  135.0590 C   0  0  0  0  0  3  0  0  0  0  0  0
  189.7900  175.7450  138.4570 C   0  0  1  0  0  3  0  0  0  0  0  0
  187.5500  176.6920  134.7240 C   0  0  0  0  0  2  0  0  0  0  0  0
  183.7370  179.1280  138.7870 C   0  0  0  0  0  0  0  0  0  0  0  0
  181.0440  176.8020  135.8330 O   0  0  0  0  0  1  0  0  0  0  0  0
  190.5730  178.1990  139.3160 O   0  0  0  0  0  0  0  0  0  0  0  0
  183.4970  177.1090  136.1460 C   0  0  0  0  0  0  0  0  0  0  0  0
  187.3760  178.2850  139.2470 C   0  0  0  0  0  0  0  0  0  0  0  0
  190.4140  176.4200  140.9850 O   0  0  0  0  0  0  0  0  0  0  0  0
  185.0870  178.8990  138.5250 C   0  0  0  0  0  3  0  0  0  0  0  0
  189.7860  176.9930  139.7460 S   0  0  0  0  0  0  0  0  0  0  0  0
  182.8230  179.4130  137.6290 C   0  0  0  0  0  2  0  0  0  0  0  0
  184.3580  176.1870  136.7560 C   0  0  0  0  0  3  0  0  0  0  0  0
  185.9660  178.5570  139.5570 C   0  0  0  0  0  0  0  0  0  0  0  0
  185.4800  178.4520  140.8670 C   0  0  0  0  0  3  0  0  0  0  0  0
  183.2600  179.0540  140.1000 C   0  0  0  0  0  3  0  0  0  0  0  0
  189.1440  176.2770  137.1810 C   0  0  0  0  0  2  0  0  0  0  0  0
  182.0800  177.2740  136.6450 C   0  0  2  0  0  0  0  0  0  0  0  0
  183.9560  177.8590  135.0540 C   0  0  0  0  0  3  0  0  0  0  0  0
  185.6690  176.0380  136.3030 C   0  0  0  0  0  3  0  0  0  0  0  0
  180.5390  176.5930  138.5050 C   0  0  0  0  0  2  0  0  0  0  0  0
  180.2760  172.7530  136.0790 C   0  0  0  0  0  2  0  0  0  0  0  0
  180.8290  174.0760  136.6350 C   0  0  0  0  0  2  0  0  0  0  0  0
  180.5800  173.9770  138.1090 C   0  0  2  0  0  3  0  0  0  0  0  0
  179.1900  171.9450  137.3400 S   0  0  0  0  0  0  0  0  0  0  0  0
  180.9940  174.8590  140.4890 C   0  0  0  0  0  2  0  0  0  0  0  0
  179.5390  174.9190  140.0720 C   0  0  2  0  0  3  0  0  0  0  0  0
  179.1910  173.5100  138.2190 C   0  0  1  0  0  3  0  0  0  0  0  0
  178.9580  173.5480  139.7020 C   0  0  0  0  0  2  0  0  0  0  0  0
  180.6530  175.1670  139.0400 C   0  0  1  0  0  0  0  0  0  0  0  0
  191.1930  175.1640  138.2290 C   0  0  0  0  0  2  0  0  0  0  0  0
  192.0220  175.9580  137.2650 C   0  0  0  0  0  3  0  0  0  0  0  0
  193.2400  175.6340  137.0330 N   0  0  0  0  0  0  0  0  0  0  0  0
  194.0200  176.3920  136.0980 C   0  0  0  0  0  2  0  0  0  0  0  0
  194.5000  175.4800  134.9880 C   0  0  0  0  0  2  0  0  0  0  0  0
  195.2630  174.3020  135.5670 C   0  0  2  0  0  3  0  0  0  0  0  0
  196.6080  174.2690  135.0110 N   0  0  0  0  0  2  0  0  0  0  0  0
  197.8480  174.6720  137.0460 C   0  0  0  0  0  2  0  0  0  0  0  0
  198.8100  174.7540  135.8830 C   0  0  0  0  0  2  0  0  0  0  0  0
  197.3900  175.2600  135.7280 C   0  0  0  0  0  3  0  0  0  0  0  0
  194.5300  173.0160  135.2130 C   0  0  0  0  0  2  0  0  0  0  0  0
  194.9370  172.6630  137.6240 C   0  0  0  0  0  1  0  0  0  0  0  0
  194.0320  172.3060  136.4610 C   0  0  2  0  0  3  0  0  0  0  0  0
  194.0390  170.7980  136.2430 C   0  0  0  0  0  2  0  0  0  0  0  0
  195.2090  170.3720  135.3710 C   0  0  0  0  0  2  0  0  0  0  0  0
  196.3590  169.8810  136.2290 C   0  0  0  0  0  1  0  0  0  0  0  0
  183.6230  178.6240  142.5370 C   0  0  0  0  0  2  0  0  0  0  0  0
  184.5110  179.4330  143.4650 C   0  0  0  0  0  2  0  0  0  0  0  0
  184.4200  178.8680  144.8650 C   0  0  0  0  0  1  0  0  0  0  0  0
  1 16  2  0  0  0  0
  2 28  1  0  0  0  0
  3 29  1  6  0  0  0
  4 25  1  0  0  0  0
  6 27  1  0  0  0  0
  6  2  2  0  0  0  0
  7 20  1  1  0  0  0
  7  3  1  0  0  0  0
  8 55  1  0  0  0  0
  9  4  2  0  0  0  0
 10 39  1  6  0  0  0
 10 19  1  0  0  0  0
 11  9  1  0  0  0  0
 11  2  1  0  0  0  0
 12 24  1  0  0  0  0
 14 19  2  0  0  0  0
 15 26  1  0  0  0  0
 15 21  1  0  0  0  0
 16 22  1  0  0  0  0
 16  5  1  0  0  0  0
 18 12  2  0  0  0  0
 18 22  1  0  0  0  0
 19  5  1  0  0  0  0
 19 17  2  0  0  0  0
 20 12  1  0  0  0  0
 22 23  2  0  0  0  0
 23  8  1  0  0  0  0
 24  8  2  0  0  0  0
 25 10  1  0  0  0  0
 26 13  1  6  0  0  0
 26  7  1  0  0  0  0
 26  3  1  0  0  0  0
 27 15  2  0  0  0  0
 28 21  2  0  0  0  0
 30 31  1  0  0  0  0
 30 33  1  0  0  0  0
 32 31  1  6  0  0  0
 32 36  1  0  0  0  0
 32 38  1  0  0  0  0
 33 36  1  0  0  0  0
 35 37  1  6  0  0  0
 35 34  1  0  0  0  0
 36 37  1  1  0  0  0
 38 29  1  6  0  0  0
 38 35  1  0  0  0  0
 38 34  1  0  0  0  0
 40 39  1  0  0  0  0
 41 40  2  0  0  0  0
 42 41  1  0  0  0  0
 43 42  1  0  0  0  0
 44 43  1  6  0  0  0
 45 44  1  0  0  0  0
 45 48  1  0  0  0  0
 47 46  1  0  0  0  0
 48 47  1  0  0  0  0
 48 46  1  0  0  0  0
 49 44  1  0  0  0  0
 49 51  1  0  0  0  0
 51 50  1  1  0  0  0
 52 51  1  0  0  0  0
 53 54  1  0  0  0  0
 53 52  1  0  0  0  0
 55 56  1  0  0  0  0
 56 57  1  0  0  0  0
M  END
>  <MODEL>
3

>  <REMARK>
 VINA RESULT:      -5.0      3.683      7.517
  Name = 
  15 active torsions:
  status: ('A' for Active; 'I' for Inactive)
    1  A    between atoms: C_3  and  C_49
    2  A    between atoms: C_4  and  C_24
    3  A    between atoms: C_5  and  C_11
    4  A    between atoms: N_7  and  C_21
    5  A    between atoms: N_7  and  C_26
    6  A    between atoms: C_11  and  C_55
    7  A    between atoms: C_12  and  C_49
    8  A    between atoms: C_14  and  C_24
    9  A    between atoms: C_15  and  C_19
   10  A    between atoms: C_19  and  C_51
   11  A    between atoms: C_21  and  C_41
   12  A    between atoms: C_21  and  C_44
   13  A    between atoms: C_22  and  N_32
   14  A    between atoms: C_22  and  C_44
   15  A    between atoms: C_41  and  C_51
                            x       y       z     vdW  Elec       q    Type
                         _______ _______ _______ _____ _____    ______ ____

>  <TORSDO>
F 15

$$$$
=
 OpenBabel11062416433D

 57 64  0  0  1  0  0  0  0  0999 V2000
  187.0740  179.4880  140.6390 O   0  0  0  0  0  0  0  0  0  0  0  0
  187.0870  177.6540  137.1110 C   0  0  0  0  0  0  0  0  0  0  0  0
  182.0380  177.1280  137.9000 C   0  0  2  0  0  3  0  0  0  0  0  0
  189.4310  176.3350  139.1090 C   0  0  0  0  0  3  0  0  0  0  0  0
  186.7310  178.0410  142.4380 N   0  0  0  0  0  2  0  0  0  0  0  0
  186.4210  178.5090  136.2250 C   0  0  0  0  0  3  0  0  0  0  0  0
  181.9120  178.4750  137.2830 N   0  0  1  0  0  0  0  0  0  0  0  0
  182.4980  178.6150  141.6780 C   0  0  0  0  0  0  0  0  0  0  0  0
  189.2390  176.5590  137.8040 C   0  0  0  0  0  3  0  0  0  0  0  0
  189.1690  176.7460  141.5650 C   0  0  1  0  0  3  0  0  0  0  0  0
  188.5730  177.8010  137.2770 C   0  0  0  0  0  2  0  0  0  0  0  0
  183.0610  179.2390  139.4050 C   0  0  0  0  0  0  0  0  0  0  0  0
  182.2840  176.9230  135.4780 O   0  0  0  0  0  1  0  0  0  0  0  0
  189.0970  179.1710  142.7860 O   0  0  0  0  0  0  0  0  0  0  0  0
  184.2910  177.5160  136.8310 C   0  0  0  0  0  0  0  0  0  0  0  0
  186.2580  178.8400  141.3500 C   0  0  0  0  0  0  0  0  0  0  0  0
  188.5550  177.2100  144.1420 O   0  0  0  0  0  0  0  0  0  0  0  0
  184.4140  179.2220  139.7410 C   0  0  0  0  0  3  0  0  0  0  0  0
  188.4170  177.8290  142.7810 S   0  0  0  0  0  0  0  0  0  0  0  0
  182.6820  179.5290  137.9810 C   0  0  0  0  0  2  0  0  0  0  0  0
  184.9580  176.6530  137.7110 C   0  0  0  0  0  3  0  0  0  0  0  0
  184.8240  178.8850  141.0340 C   0  0  0  0  0  0  0  0  0  0  0  0
  183.8600  178.5710  142.0010 C   0  0  0  0  0  3  0  0  0  0  0  0
  182.0980  178.9560  140.3800 C   0  0  0  0  0  3  0  0  0  0  0  0
  189.0370  177.3280  140.1600 C   0  0  0  0  0  2  0  0  0  0  0  0
  182.7890  177.4350  136.6780 C   0  0  2  0  0  0  0  0  0  0  0  0
  185.0310  178.4380  136.0790 C   0  0  0  0  0  3  0  0  0  0  0  0
  186.3430  176.7310  137.8610 C   0  0  0  0  0  3  0  0  0  0  0  0
  180.7490  176.3510  137.6590 C   0  0  0  0  0  2  0  0  0  0  0  0
  181.3630  172.1820  135.9430 C   0  0  0  0  0  2  0  0  0  0  0  0
  181.6790  173.6120  136.4130 C   0  0  0  0  0  2  0  0  0  0  0  0
  180.9830  173.7160  137.7360 C   0  0  2  0  0  3  0  0  0  0  0  0
  179.9600  171.4900  136.9300 S   0  0  0  0  0  0  0  0  0  0  0  0
  180.6090  174.9740  139.9480 C   0  0  0  0  0  2  0  0  0  0  0  0
  179.3560  174.8570  139.1030 C   0  0  2  0  0  3  0  0  0  0  0  0
  179.6440  173.1650  137.4940 C   0  0  1  0  0  3  0  0  0  0  0  0
  178.9570  173.4050  138.8080 C   0  0  0  0  0  2  0  0  0  0  0  0
  180.7300  175.0340  138.4330 C   0  0  1  0  0  0  0  0  0  0  0  0
  190.6150  176.3860  141.9380 C   0  0  0  0  0  2  0  0  0  0  0  0
  191.6160  176.7520  140.8850 C   0  0  0  0  0  3  0  0  0  0  0  0
  192.8610  176.8450  141.1740 N   0  0  0  0  0  0  0  0  0  0  0  0
  193.8120  177.1820  140.1550 C   0  0  0  0  0  2  0  0  0  0  0  0
  193.2610  176.7850  138.8010 C   0  0  0  0  0  2  0  0  0  0  0  0
  193.6410  175.3510  138.4770 C   0  0  2  0  0  3  0  0  0  0  0  0
  194.8070  175.3390  137.6060 N   0  0  0  0  0  2  0  0  0  0  0  0
  195.4600  173.2960  138.7200 C   0  0  0  0  0  2  0  0  0  0  0  0
  196.3910  173.5140  137.5480 C   0  0  0  0  0  2  0  0  0  0  0  0
  195.8830  174.7000  138.3420 C   0  0  0  0  0  3  0  0  0  0  0  0
  192.4710  174.6750  137.7780 C   0  0  0  0  0  2  0  0  0  0  0  0
  192.2380  175.6770  135.5320 C   0  0  0  0  0  1  0  0  0  0  0  0
  192.7540  174.4750  136.2980 C   0  0  2  0  0  3  0  0  0  0  0  0
  192.0680  173.2090  135.8010 C   0  0  0  0  0  2  0  0  0  0  0  0
  190.7830  173.5350  135.0550 C   0  0  0  0  0  2  0  0  0  0  0  0
  189.5760  173.0900  135.8590 C   0  0  0  0  0  1  0  0  0  0  0  0
  181.4740  178.3070  142.7140 C   0  0  0  0  0  2  0  0  0  0  0  0
  180.0980  178.7140  142.2230 C   0  0  0  0  0  2  0  0  0  0  0  0
  179.2380  179.1030  143.4050 C   0  0  0  0  0  1  0  0  0  0  0  0
  1 16  2  0  0  0  0
  2 11  1  0  0  0  0
  2 28  1  0  0  0  0
  3 29  1  6  0  0  0
  4 25  1  0  0  0  0
  5 19  1  0  0  0  0
  6  2  2  0  0  0  0
  7  3  1  0  0  0  0
  7 20  1  1  0  0  0
  8 23  1  0  0  0  0
  8 55  1  0  0  0  0
  9  4  2  0  0  0  0
 10 39  1  1  0  0  0
 10 19  1  0  0  0  0
 11  9  1  0  0  0  0
 12 18  2  0  0  0  0
 12 24  1  0  0  0  0
 15 21  1  0  0  0  0
 16  5  1  0  0  0  0
 18 22  1  0  0  0  0
 19 14  2  0  0  0  0
 19 17  2  0  0  0  0
 20 12  1  0  0  0  0
 21 28  2  0  0  0  0
 22 16  1  0  0  0  0
 22 23  2  0  0  0  0
 24  8  2  0  0  0  0
 25 10  1  0  0  0  0
 26 13  1  6  0  0  0
 26 15  1  0  0  0  0
 26  7  1  0  0  0  0
 26  3  1  0  0  0  0
 27  6  1  0  0  0  0
 27 15  2  0  0  0  0
 30 31  1  0  0  0  0
 30 33  1  0  0  0  0
 32 31  1  6  0  0  0
 32 38  1  0  0  0  0
 33 36  1  0  0  0  0
 35 37  1  6  0  0  0
 35 34  1  0  0  0  0
 36 32  1  0  0  0  0
 36 37  1  1  0  0  0
 38 29  1  6  0  0  0
 38 35  1  0  0  0  0
 38 34  1  0  0  0  0
 40 41  2  0  0  0  0
 40 39  1  0  0  0  0
 42 41  1  0  0  0  0
 43 42  1  0  0  0  0
 44 49  1  6  0  0  0
 44 43  1  0  0  0  0
 45 48  1  0  0  0  0
 45 44  1  0  0  0  0
 47 48  1  0  0  0  0
 47 46  1  0  0  0  0
 48 46  1  0  0  0  0
 51 50  1  6  0  0  0
 51 49  1  0  0  0  0
 52 51  1  0  0  0  0
 53 52  1  0  0  0  0
 53 54  1  0  0  0  0
 56 55  1  0  0  0  0
 56 57  1  0  0  0  0
M  END
>  <MODEL>
4

>  <REMARK>
 VINA RESULT:      -4.7      3.250      6.414
  Name = 
  15 active torsions:
  status: ('A' for Active; 'I' for Inactive)
    1  A    between atoms: C_3  and  C_49
    2  A    between atoms: C_4  and  C_24
    3  A    between atoms: C_5  and  C_11
    4  A    between atoms: N_7  and  C_21
    5  A    between atoms: N_7  and  C_26
    6  A    between atoms: C_11  and  C_55
    7  A    between atoms: C_12  and  C_49
    8  A    between atoms: C_14  and  C_24
    9  A    between atoms: C_15  and  C_19
   10  A    between atoms: C_19  and  C_51
   11  A    between atoms: C_21  and  C_41
   12  A    between atoms: C_21  and  C_44
   13  A    between atoms: C_22  and  N_32
   14  A    between atoms: C_22  and  C_44
   15  A    between atoms: C_41  and  C_51
                            x       y       z     vdW  Elec       q    Type
                         _______ _______ _______ _____ _____    ______ ____

>  <TORSDO>
F 15

$$$$
=
 OpenBabel11062416433D

 57 64  0  0  1  0  0  0  0  0999 V2000
  185.9250  175.1590  138.2640 O   0  0  0  0  0  0  0  0  0  0  0  0
  185.7660  178.4100  140.5490 C   0  0  0  0  0  0  0  0  0  0  0  0
  181.1450  179.1050  138.4120 C   0  0  2  0  0  3  0  0  0  0  0  0
  188.6310  178.3550  138.8120 C   0  0  0  0  0  3  0  0  0  0  0  0
  186.1990  175.6310  135.9940 N   0  0  0  0  0  2  0  0  0  0  0  0
  184.7960  178.1520  141.5250 C   0  0  0  0  0  3  0  0  0  0  0  0
  180.6340  178.2260  139.4970 N   0  0  1  0  0  0  0  0  0  0  0  0
  181.8760  175.9860  135.8760 C   0  0  0  0  0  0  0  0  0  0  0  0
  188.1870  178.7900  139.9980 C   0  0  0  0  0  3  0  0  0  0  0  0
  188.6860  176.8830  136.7890 C   0  0  1  0  0  3  0  0  0  0  0  0
  187.1910  178.0260  140.8280 C   0  0  0  0  0  2  0  0  0  0  0  0
  181.9160  176.4310  138.2570 C   0  0  0  0  0  0  0  0  0  0  0  0
  181.0360  180.3830  140.4910 O   0  0  0  0  0  1  0  0  0  0  0  0
  188.2880  174.1960  136.7500 O   0  0  0  0  0  0  0  0  0  0  0  0
  183.0580  178.9940  140.0550 C   0  0  0  0  0  0  0  0  0  0  0  0
  185.3950  175.4940  137.1690 C   0  0  0  0  0  0  0  0  0  0  0  0
  188.4100  175.3480  134.5970 O   0  0  0  0  0  0  0  0  0  0  0  0
  183.2770  176.1280  138.2860 C   0  0  0  0  0  3  0  0  0  0  0  0
  187.9230  175.4560  136.0140 S   0  0  0  0  0  0  0  0  0  0  0  0
  181.2590  176.8850  139.5290 C   0  0  0  0  0  2  0  0  0  0  0  0
  184.0300  179.2610  139.0810 C   0  0  0  0  0  3  0  0  0  0  0  0
  183.9530  175.7720  137.1160 C   0  0  0  0  0  0  0  0  0  0  0  0
  183.2490  175.7120  135.9060 C   0  0  0  0  0  3  0  0  0  0  0  0
  181.2080  176.3400  137.0540 C   0  0  0  0  0  3  0  0  0  0  0  0
  188.2060  177.0420  138.2290 C   0  0  0  0  0  2  0  0  0  0  0  0
  181.6050  179.3160  139.7890 C   0  0  2  0  0  0  0  0  0  0  0  0
  183.4490  178.4480  141.2850 C   0  0  0  0  0  3  0  0  0  0  0  0
  185.3710  178.9580  139.3200 C   0  0  0  0  0  3  0  0  0  0  0  0
  180.0340  180.0520  137.9760 C   0  0  0  0  0  2  0  0  0  0  0  0
  181.4480  184.3550  137.5480 C   0  0  0  0  0  2  0  0  0  0  0  0
  181.4630  182.8580  137.8960 C   0  0  0  0  0  2  0  0  0  0  0  0
  180.8750  182.2020  136.6830 C   0  0  2  0  0  3  0  0  0  0  0  0
  180.3300  184.6560  136.1060 S   0  0  0  0  0  0  0  0  0  0  0  0
  180.4060  180.0680  135.3280 C   0  0  0  0  0  2  0  0  0  0  0  0
  179.1480  180.7950  135.7580 C   0  0  2  0  0  3  0  0  0  0  0  0
  179.6840  183.0020  136.3720 C   0  0  1  0  0  3  0  0  0  0  0  0
  179.0720  182.2350  135.2340 C   0  0  0  0  0  2  0  0  0  0  0  0
  180.3840  180.7720  136.6750 C   0  0  1  0  0  0  0  0  0  0  0  0
  190.2160  176.8520  136.6600 C   0  0  0  0  0  2  0  0  0  0  0  0
  190.7180  175.8030  135.7150 C   0  0  0  0  0  3  0  0  0  0  0  0
  191.6350  174.9850  136.0780 N   0  0  0  0  0  0  0  0  0  0  0  0
  192.0990  173.9760  135.1700 C   0  0  0  0  0  2  0  0  0  0  0  0
  192.3960  172.7050  135.9400 C   0  0  0  0  0  2  0  0  0  0  0  0
  193.8950  172.5100  136.0780 C   0  0  2  0  0  3  0  0  0  0  0  0
  194.2340  171.1190  135.8170 N   0  0  0  0  0  2  0  0  0  0  0  0
  196.5750  170.7130  135.3750 C   0  0  0  0  0  2  0  0  0  0  0  0
  195.7650  169.7020  134.5940 C   0  0  0  0  0  2  0  0  0  0  0  0
  195.2440  171.1140  134.7740 C   0  0  0  0  0  3  0  0  0  0  0  0
  194.3140  172.8830  137.4930 C   0  0  0  0  0  2  0  0  0  0  0  0
  194.2890  175.2740  138.1120 C   0  0  0  0  0  1  0  0  0  0  0  0
  195.1270  174.1670  137.5050 C   0  0  2  0  0  3  0  0  0  0  0  0
  195.5330  174.5430  136.0860 C   0  0  0  0  0  2  0  0  0  0  0  0
  196.9370  175.1270  136.0500 C   0  0  0  0  0  2  0  0  0  0  0  0
  197.9680  174.0470  136.3170 C   0  0  0  0  0  1  0  0  0  0  0  0
  181.1240  175.8960  134.5940 C   0  0  0  0  0  2  0  0  0  0  0  0
  180.1350  174.7470  134.6500 C   0  0  0  0  0  2  0  0  0  0  0  0
  180.8900  173.4360  134.6930 C   0  0  0  0  0  1  0  0  0  0  0  0
  2 11  1  0  0  0  0
  2  6  1  0  0  0  0
  3 29  1  1  0  0  0
  3  7  1  0  0  0  0
  3 26  1  0  0  0  0
  4  9  2  0  0  0  0
  5 19  1  0  0  0  0
  5 16  1  0  0  0  0
  7 20  1  6  0  0  0
  7 26  1  0  0  0  0
  8 23  2  0  0  0  0
  8 24  1  0  0  0  0
  9 11  1  0  0  0  0
 10 39  1  1  0  0  0
 10 25  1  0  0  0  0
 12 18  1  0  0  0  0
 12 20  1  0  0  0  0
 15 27  1  0  0  0  0
 16  1  2  0  0  0  0
 17 19  2  0  0  0  0
 19 14  2  0  0  0  0
 19 10  1  0  0  0  0
 21 28  1  0  0  0  0
 21 15  2  0  0  0  0
 22 16  1  0  0  0  0
 22 18  2  0  0  0  0
 23 22  1  0  0  0  0
 24 12  2  0  0  0  0
 25  4  1  0  0  0  0
 26 15  1  0  0  0  0
 26 13  1  1  0  0  0
 27  6  2  0  0  0  0
 28  2  2  0  0  0  0
 30 31  1  0  0  0  0
 32 31  1  1  0  0  0
 33 36  1  0  0  0  0
 33 30  1  0  0  0  0
 34 35  1  0  0  0  0
 34 38  1  0  0  0  0
 35 37  1  6  0  0  0
 35 38  1  0  0  0  0
 36 37  1  6  0  0  0
 36 32  1  0  0  0  0
 38 32  1  0  0  0  0
 38 29  1  1  0  0  0
 40 41  2  0  0  0  0
 40 39  1  0  0  0  0
 42 43  1  0  0  0  0
 42 41  1  0  0  0  0
 44 43  1  1  0  0  0
 44 49  1  0  0  0  0
 45 44  1  0  0  0  0
 47 48  1  0  0  0  0
 47 46  1  0  0  0  0
 48 46  1  0  0  0  0
 48 45  1  0  0  0  0
 49 51  1  0  0  0  0
 51 50  1  6  0  0  0
 52 51  1  0  0  0  0
 53 52  1  0  0  0  0
 53 54  1  0  0  0  0
 55 56  1  0  0  0  0
 55  8  1  0  0  0  0
 56 57  1  0  0  0  0
M  END
>  <MODEL>
5

>  <REMARK>
 VINA RESULT:      -4.4      4.479      8.966
  Name = 
  15 active torsions:
  status: ('A' for Active; 'I' for Inactive)
    1  A    between atoms: C_3  and  C_49
    2  A    between atoms: C_4  and  C_24
    3  A    between atoms: C_5  and  C_11
    4  A    between atoms: N_7  and  C_21
    5  A    between atoms: N_7  and  C_26
    6  A    between atoms: C_11  and  C_55
    7  A    between atoms: C_12  and  C_49
    8  A    between atoms: C_14  and  C_24
    9  A    between atoms: C_15  and  C_19
   10  A    between atoms: C_19  and  C_51
   11  A    between atoms: C_21  and  C_41
   12  A    between atoms: C_21  and  C_44
   13  A    between atoms: C_22  and  N_32
   14  A    between atoms: C_22  and  C_44
   15  A    between atoms: C_41  and  C_51
                            x       y       z     vdW  Elec       q    Type
                         _______ _______ _______ _____ _____    ______ ____

>  <TORSDO>
F 15

$$$$
=
 OpenBabel11062416433D

 57 64  0  0  1  0  0  0  0  0999 V2000
  187.4290  179.3810  140.8920 O   0  0  0  0  0  0  0  0  0  0  0  0
  187.6620  177.6740  137.3080 C   0  0  0  0  0  0  0  0  0  0  0  0
  182.5750  177.1180  137.7680 C   0  0  2  0  0  3  0  0  0  0  0  0
  189.8830  176.2860  139.3980 C   0  0  0  0  0  3  0  0  0  0  0  0
  186.9800  177.8700  142.6140 N   0  0  0  0  0  2  0  0  0  0  0  0
  187.0490  178.5600  136.4150 C   0  0  0  0  0  3  0  0  0  0  0  0
  182.4840  178.4860  137.1930 N   0  0  1  0  0  0  0  0  0  0  0  0
  182.8000  178.4700  141.6170 C   0  0  0  0  0  0  0  0  0  0  0  0
  189.7710  176.5560  138.0920 C   0  0  0  0  0  3  0  0  0  0  0  0
  189.4700  176.6080  141.8460 C   0  0  1  0  0  3  0  0  0  0  0  0
  189.1350  177.8160  137.5700 C   0  0  0  0  0  2  0  0  0  0  0  0
  183.4990  179.1740  139.4070 C   0  0  0  0  0  0  0  0  0  0  0  0
  182.9690  177.0000  135.3600 O   0  0  0  0  0  1  0  0  0  0  0  0
  189.3170  178.9880  143.1460 O   0  0  0  0  0  0  0  0  0  0  0  0
  184.8880  177.5450  136.8530 C   0  0  0  0  0  0  0  0  0  0  0  0
  186.5720  178.7070  141.5290 C   0  0  0  0  0  0  0  0  0  0  0  0
  188.6990  176.9800  144.3960 O   0  0  0  0  0  0  0  0  0  0  0  0
  184.8290  179.1460  139.8240 C   0  0  0  0  0  3  0  0  0  0  0  0
  188.6430  177.6480  143.0510 S   0  0  0  0  0  0  0  0  0  0  0  0
  183.2070  179.5150  137.9730 C   0  0  0  0  0  2  0  0  0  0  0  0
  185.5030  176.6520  137.7410 C   0  0  0  0  0  3  0  0  0  0  0  0
  185.1600  178.7640  141.1270 C   0  0  0  0  0  0  0  0  0  0  0  0
  184.1400  178.4140  142.0210 C   0  0  0  0  0  3  0  0  0  0  0  0
  182.4790  178.8560  140.3100 C   0  0  0  0  0  3  0  0  0  0  0  0
  189.4230  177.2400  140.4580 C   0  0  0  0  0  2  0  0  0  0  0  0
  183.3990  177.4690  136.6060 C   0  0  2  0  0  0  0  0  0  0  0  0
  185.6710  178.4940  136.1810 C   0  0  0  0  0  3  0  0  0  0  0  0
  186.8760  176.7250  137.9780 C   0  0  0  0  0  3  0  0  0  0  0  0
  181.3060  176.3500  137.4210 C   0  0  0  0  0  2  0  0  0  0  0  0
  181.6920  171.9580  136.2970 C   0  0  0  0  0  2  0  0  0  0  0  0
  182.0920  173.4080  136.6170 C   0  0  0  0  0  2  0  0  0  0  0  0
  181.2960  173.7370  137.8420 C   0  0  2  0  0  3  0  0  0  0  0  0
  180.1520  171.5110  137.2180 S   0  0  0  0  0  0  0  0  0  0  0  0
  180.8430  175.2980  139.8360 C   0  0  0  0  0  2  0  0  0  0  0  0
  179.6630  175.1700  138.8930 C   0  0  2  0  0  3  0  0  0  0  0  0
  179.9380  173.2650  137.5390 C   0  0  1  0  0  3  0  0  0  0  0  0
  179.1640  173.7270  138.7400 C   0  0  0  0  0  2  0  0  0  0  0  0
  181.1010  175.1500  138.3450 C   0  0  1  0  0  0  0  0  0  0  0  0
  190.8910  176.2360  142.2940 C   0  0  0  0  0  2  0  0  0  0  0  0
  190.9840  175.8500  143.7390 C   0  0  0  0  0  3  0  0  0  0  0  0
  192.0730  175.3720  144.2160 N   0  0  0  0  0  0  0  0  0  0  0  0
  192.1550  175.0190  145.6040 C   0  0  0  0  0  2  0  0  0  0  0  0
  190.9630  175.5950  146.3400 C   0  0  0  0  0  2  0  0  0  0  0  0
  191.3210  176.9370  146.9550 C   0  0  2  0  0  3  0  0  0  0  0  0
  191.6030  176.7670  148.3720 N   0  0  0  0  0  2  0  0  0  0  0  0
  193.5700  176.9870  149.7600 C   0  0  0  0  0  2  0  0  0  0  0  0
  193.1830  175.5260  149.7170 C   0  0  0  0  0  2  0  0  0  0  0  0
  193.0020  176.3940  148.4880 C   0  0  0  0  0  3  0  0  0  0  0  0
  190.1490  177.8910  146.7750 C   0  0  0  0  0  2  0  0  0  0  0  0
  188.5520  176.3390  147.8440 C   0  0  0  0  0  1  0  0  0  0  0  0
  189.1370  177.7370  147.8980 C   0  0  2  0  0  3  0  0  0  0  0  0
  188.0270  178.7700  147.7470 C   0  0  0  0  0  2  0  0  0  0  0  0
  186.7530  178.1360  147.2120 C   0  0  0  0  0  2  0  0  0  0  0  0
  185.6950  179.1950  146.9670 C   0  0  0  0  0  1  0  0  0  0  0  0
  181.7160  178.1240  142.5770 C   0  0  0  0  0  2  0  0  0  0  0  0
  180.3650  178.4920  141.9910 C   0  0  0  0  0  2  0  0  0  0  0  0
  179.4330  178.9150  143.1060 C   0  0  0  0  0  1  0  0  0  0  0  0
  1 16  2  0  0  0  0
  2 11  1  0  0  0  0
  2 28  1  0  0  0  0
  3 29  1  6  0  0  0
  4 25  1  0  0  0  0
  5 19  1  0  0  0  0
  6  2  2  0  0  0  0
  7  3  1  0  0  0  0
  7 20  1  1  0  0  0
  8 23  1  0  0  0  0
  8 55  1  0  0  0  0
  9  4  2  0  0  0  0
 10 39  1  1  0  0  0
 10 19  1  0  0  0  0
 11  9  1  0  0  0  0
 12 18  2  0  0  0  0
 12 24  1  0  0  0  0
 15 21  1  0  0  0  0
 16  5  1  0  0  0  0
 18 22  1  0  0  0  0
 19 14  2  0  0  0  0
 19 17  2  0  0  0  0
 20 12  1  0  0  0  0
 21 28  2  0  0  0  0
 22 16  1  0  0  0  0
 22 23  2  0  0  0  0
 24  8  2  0  0  0  0
 25 10  1  0  0  0  0
 26 13  1  6  0  0  0
 26 15  1  0  0  0  0
 26  7  1  0  0  0  0
 26  3  1  0  0  0  0
 27  6  1  0  0  0  0
 27 15  2  0  0  0  0
 30 31  1  0  0  0  0
 30 33  1  0  0  0  0
 32 31  1  6  0  0  0
 32 38  1  0  0  0  0
 33 36  1  0  0  0  0
 35 37  1  1  0  0  0
 35 34  1  0  0  0  0
 36 32  1  0  0  0  0
 36 37  1  1  0  0  0
 38 29  1  6  0  0  0
 38 35  1  0  0  0  0
 38 34  1  0  0  0  0
 39 40  1  0  0  0  0
 40 41  2  0  0  0  0
 41 42  1  0  0  0  0
 42 43  1  0  0  0  0
 44 43  1  1  0  0  0
 44 45  1  0  0  0  0
 45 48  1  0  0  0  0
 47 46  1  0  0  0  0
 48 47  1  0  0  0  0
 48 46  1  0  0  0  0
 49 44  1  0  0  0  0
 49 51  1  0  0  0  0
 51 50  1  6  0  0  0
 52 51  1  0  0  0  0
 53 52  1  0  0  0  0
 54 53  1  0  0  0  0
 56 55  1  0  0  0  0
 56 57  1  0  0  0  0
M  END
>  <MODEL>
6

>  <REMARK>
 VINA RESULT:      -4.4      2.653      4.070
  Name = 
  15 active torsions:
  status: ('A' for Active; 'I' for Inactive)
    1  A    between atoms: C_3  and  C_49
    2  A    between atoms: C_4  and  C_24
    3  A    between atoms: C_5  and  C_11
    4  A    between atoms: N_7  and  C_21
    5  A    between atoms: N_7  and  C_26
    6  A    between atoms: C_11  and  C_55
    7  A    between atoms: C_12  and  C_49
    8  A    between atoms: C_14  and  C_24
    9  A    between atoms: C_15  and  C_19
   10  A    between atoms: C_19  and  C_51
   11  A    between atoms: C_21  and  C_41
   12  A    between atoms: C_21  and  C_44
   13  A    between atoms: C_22  and  N_32
   14  A    between atoms: C_22  and  C_44
   15  A    between atoms: C_41  and  C_51
                            x       y       z     vdW  Elec       q    Type
                         _______ _______ _______ _____ _____    ______ ____

>  <TORSDO>
F 15

$$$$
=
 OpenBabel11062416433D

 57 64  0  0  1  0  0  0  0  0999 V2000
  185.0820  175.3340  138.5010 O   0  0  0  0  0  0  0  0  0  0  0  0
  185.0250  178.3630  141.0790 C   0  0  0  0  0  0  0  0  0  0  0  0
  180.1410  178.9200  139.5840 C   0  0  2  0  0  3  0  0  0  0  0  0
  187.6490  178.6500  139.0130 C   0  0  0  0  0  3  0  0  0  0  0  0
  185.0410  176.0140  136.2690 N   0  0  0  0  0  2  0  0  0  0  0  0
  184.2020  177.9580  142.1360 C   0  0  0  0  0  3  0  0  0  0  0  0
  179.8200  177.9200  140.6370 N   0  0  1  0  0  0  0  0  0  0  0  0
  180.7250  176.0830  136.7030 C   0  0  0  0  0  0  0  0  0  0  0  0
  187.3330  178.9520  140.2790 C   0  0  0  0  0  3  0  0  0  0  0  0
  187.5330  177.3600  136.8710 C   0  0  1  0  0  3  0  0  0  0  0  0
  186.4940  178.0540  141.1480 C   0  0  0  0  0  2  0  0  0  0  0  0
  181.0380  176.3270  139.0930 C   0  0  0  0  0  0  0  0  0  0  0  0
  180.2210  180.0080  141.7700 O   0  0  0  0  0  1  0  0  0  0  0  0
  187.2880  174.6660  136.6330 O   0  0  0  0  0  0  0  0  0  0  0  0
  182.2480  178.8010  140.9690 C   0  0  0  0  0  0  0  0  0  0  0  0
  184.4000  175.7240  137.5130 C   0  0  0  0  0  0  0  0  0  0  0  0
  187.0730  176.0000  134.5970 O   0  0  0  0  0  0  0  0  0  0  0  0
  182.4070  176.1160  138.9300 C   0  0  0  0  0  3  0  0  0  0  0  0
  186.7620  175.9550  136.0660 S   0  0  0  0  0  0  0  0  0  0  0  0
  180.5200  176.6270  140.4710 C   0  0  0  0  0  2  0  0  0  0  0  0
  183.0730  179.2150  139.9140 C   0  0  0  0  0  3  0  0  0  0  0  0
  182.9500  175.9070  137.6600 C   0  0  0  0  0  0  0  0  0  0  0  0
  182.1040  175.9010  136.5420 C   0  0  0  0  0  3  0  0  0  0  0  0
  180.1900  176.2900  137.9800 C   0  0  0  0  0  3  0  0  0  0  0  0
  187.2300  177.3650  138.3670 C   0  0  0  0  0  2  0  0  0  0  0  0
  180.7580  179.0450  140.9100 C   0  0  2  0  0  0  0  0  0  0  0  0
  182.8210  178.1820  142.0870 C   0  0  0  0  0  3  0  0  0  0  0  0
  184.4480  178.9850  139.9610 C   0  0  0  0  0  3  0  0  0  0  0  0
  178.9320  179.8230  139.3730 C   0  0  0  0  0  2  0  0  0  0  0  0
  179.6800  179.5070  134.8960 C   0  0  0  0  0  2  0  0  0  0  0  0
  178.9320  179.5000  136.2400 C   0  0  0  0  0  2  0  0  0  0  0  0
  179.4400  180.7250  136.9380 C   0  0  2  0  0  3  0  0  0  0  0  0
  181.1190  180.6660  134.9810 S   0  0  0  0  0  0  0  0  0  0  0  0
  179.2320  182.4290  138.8540 C   0  0  0  0  0  2  0  0  0  0  0  0
  180.5430  181.6680  138.8650 C   0  0  2  0  0  3  0  0  0  0  0  0
  180.8970  180.6740  136.7630 C   0  0  1  0  0  3  0  0  0  0  0  0
  181.3590  181.8480  137.5790 C   0  0  0  0  0  2  0  0  0  0  0  0
  179.2450  180.9720  138.4170 C   0  0  1  0  0  0  0  0  0  0  0  0
  189.0340  177.4440  136.5580 C   0  0  0  0  0  2  0  0  0  0  0  0
  189.7380  176.1230  136.6270 C   0  0  0  0  0  3  0  0  0  0  0  0
  190.6330  175.8150  135.7630 N   0  0  0  0  0  0  0  0  0  0  0  0
  191.3100  174.5530  135.8470 C   0  0  0  0  0  2  0  0  0  0  0  0
  192.7820  174.7900  136.1160 C   0  0  0  0  0  2  0  0  0  0  0  0
  193.0520  174.7960  137.6100 C   0  0  2  0  0  3  0  0  0  0  0  0
  193.1430  176.1680  138.0860 N   0  0  0  0  0  2  0  0  0  0  0  0
  192.9780  177.4020  140.1570 C   0  0  0  0  0  2  0  0  0  0  0  0
  191.6530  177.5080  139.4370 C   0  0  0  0  0  2  0  0  0  0  0  0
  192.4540  176.2240  139.3630 C   0  0  0  0  0  3  0  0  0  0  0  0
  194.3620  174.0700  137.8790 C   0  0  0  0  0  2  0  0  0  0  0  0
  195.0590  172.2770  136.3290 C   0  0  0  0  0  1  0  0  0  0  0  0
  195.1010  173.7710  136.5850 C   0  0  2  0  0  3  0  0  0  0  0  0
  196.5470  174.2390  136.6890 C   0  0  0  0  0  2  0  0  0  0  0  0
  197.1570  173.8540  138.0270 C   0  0  0  0  0  2  0  0  0  0  0  0
  198.6130  174.2750  138.0870 C   0  0  0  0  0  1  0  0  0  0  0  0
  179.8250  176.0500  135.5170 C   0  0  0  0  0  2  0  0  0  0  0  0
  179.9880  174.7360  134.7750 C   0  0  0  0  0  2  0  0  0  0  0  0
  179.4530  173.6080  135.6290 C   0  0  0  0  0  1  0  0  0  0  0  0
  2 11  1  0  0  0  0
  2  6  1  0  0  0  0
  3 29  1  1  0  0  0
  3  7  1  0  0  0  0
  3 26  1  0  0  0  0
  4  9  2  0  0  0  0
  5 16  1  0  0  0  0
  7 20  1  6  0  0  0
  7 26  1  0  0  0  0
  8 24  1  0  0  0  0
  9 11  1  0  0  0  0
 10 39  1  1  0  0  0
 10 25  1  0  0  0  0
 12 20  1  0  0  0  0
 15 27  1  0  0  0  0
 16 22  1  0  0  0  0
 16  1  2  0  0  0  0
 17 19  2  0  0  0  0
 18 12  1  0  0  0  0
 19  5  1  0  0  0  0
 19 14  2  0  0  0  0
 19 10  1  0  0  0  0
 21 28  1  0  0  0  0
 21 15  2  0  0  0  0
 22 18  2  0  0  0  0
 23  8  2  0  0  0  0
 23 22  1  0  0  0  0
 24 12  2  0  0  0  0
 25  4  1  0  0  0  0
 26 15  1  0  0  0  0
 26 13  1  1  0  0  0
 27  6  2  0  0  0  0
 28  2  2  0  0  0  0
 30 33  1  0  0  0  0
 30 31  1  0  0  0  0
 32 31  1  1  0  0  0
 32 38  1  0  0  0  0
 33 36  1  0  0  0  0
 34 35  1  0  0  0  0
 35 37  1  6  0  0  0
 36 32  1  0  0  0  0
 36 37  1  6  0  0  0
 38 34  1  0  0  0  0
 38 35  1  0  0  0  0
 38 29  1  1  0  0  0
 39 40  1  0  0  0  0
 41 42  1  0  0  0  0
 41 40  2  0  0  0  0
 42 43  1  0  0  0  0
 44 43  1  6  0  0  0
 44 49  1  0  0  0  0
 44 45  1  0  0  0  0
 45 48  1  0  0  0  0
 47 46  1  0  0  0  0
 48 47  1  0  0  0  0
 48 46  1  0  0  0  0
 51 50  1  1  0  0  0
 51 52  1  0  0  0  0
 51 49  1  0  0  0  0
 52 53  1  0  0  0  0
 53 54  1  0  0  0  0
 55  8  1  0  0  0  0
 56 55  1  0  0  0  0
 56 57  1  0  0  0  0
M  END
>  <MODEL>
7

>  <REMARK>
 VINA RESULT:      -3.3      4.149      8.514
  Name = 
  15 active torsions:
  status: ('A' for Active; 'I' for Inactive)
    1  A    between atoms: C_3  and  C_49
    2  A    between atoms: C_4  and  C_24
    3  A    between atoms: C_5  and  C_11
    4  A    between atoms: N_7  and  C_21
    5  A    between atoms: N_7  and  C_26
    6  A    between atoms: C_11  and  C_55
    7  A    between atoms: C_12  and  C_49
    8  A    between atoms: C_14  and  C_24
    9  A    between atoms: C_15  and  C_19
   10  A    between atoms: C_19  and  C_51
   11  A    between atoms: C_21  and  C_41
   12  A    between atoms: C_21  and  C_44
   13  A    between atoms: C_22  and  N_32
   14  A    between atoms: C_22  and  C_44
   15  A    between atoms: C_41  and  C_51
                            x       y       z     vdW  Elec       q    Type
                         _______ _______ _______ _____ _____    ______ ____

>  <TORSDO>
F 15

$$$$
=
 OpenBabel11062416433D

 57 64  0  0  1  0  0  0  0  0999 V2000
  187.9610  178.6680  138.2250 O   0  0  0  0  0  0  0  0  0  0  0  0
  186.0400  176.4620  135.5300 C   0  0  0  0  0  0  0  0  0  0  0  0
  182.0300  176.9270  138.7080 C   0  0  2  0  0  3  0  0  0  0  0  0
  188.9290  174.9930  136.3810 C   0  0  0  0  0  3  0  0  0  0  0  0
  188.4210  177.5220  140.2050 N   0  0  0  0  0  2  0  0  0  0  0  0
  185.1070  177.3120  134.9250 C   0  0  0  0  0  3  0  0  0  0  0  0
  181.7440  178.1940  137.9840 N   0  0  1  0  0  0  0  0  0  0  0  0
  184.4490  178.7400  141.4560 C   0  0  0  0  0  0  0  0  0  0  0  0
  188.1350  175.0940  135.3080 C   0  0  0  0  0  3  0  0  0  0  0  0
  189.9650  175.7260  138.5390 C   0  0  1  0  0  3  0  0  0  0  0  0
  187.4180  176.3640  134.9390 C   0  0  0  0  0  2  0  0  0  0  0  0
  183.8630  178.9860  139.1180 C   0  0  0  0  0  0  0  0  0  0  0  0
  181.0170  176.4030  136.5480 O   0  0  0  0  0  1  0  0  0  0  0  0
  190.7430  178.2510  139.1680 O   0  0  0  0  0  0  0  0  0  0  0  0
  183.4770  176.7860  136.6450 C   0  0  0  0  0  0  0  0  0  0  0  0
  187.5490  178.2600  139.3460 C   0  0  0  0  0  0  0  0  0  0  0  0
  190.7630  176.5870  140.9590 O   0  0  0  0  0  0  0  0  0  0  0  0
  185.1950  178.7700  138.7670 C   0  0  0  0  0  3  0  0  0  0  0  0
  190.0250  177.0590  139.7380 S   0  0  0  0  0  0  0  0  0  0  0  0
  182.8550  179.1710  138.0200 C   0  0  0  0  0  2  0  0  0  0  0  0
  184.4080  175.9280  137.2460 C   0  0  0  0  0  3  0  0  0  0  0  0
  186.1600  178.5200  139.7470 C   0  0  0  0  0  0  0  0  0  0  0  0
  185.7800  178.4940  141.0950 C   0  0  0  0  0  3  0  0  0  0  0  0
  183.4910  178.9920  140.4680 C   0  0  0  0  0  3  0  0  0  0  0  0
  189.2080  176.1550  137.2850 C   0  0  0  0  0  2  0  0  0  0  0  0
  182.0990  176.9530  137.2430 C   0  0  2  0  0  0  0  0  0  0  0  0
  183.8290  177.4700  135.4730 C   0  0  0  0  0  3  0  0  0  0  0  0
  185.6840  175.7780  136.7020 C   0  0  0  0  0  3  0  0  0  0  0  0
  180.7250  176.3660  139.2590 C   0  0  0  0  0  2  0  0  0  0  0  0
  178.9470  180.3280  137.9020 C   0  0  0  0  0  2  0  0  0  0  0  0
  179.1290  178.8120  138.0780 C   0  0  0  0  0  2  0  0  0  0  0  0
  179.4240  178.6540  139.5390 C   0  0  2  0  0  3  0  0  0  0  0  0
  179.6230  181.2200  139.3740 S   0  0  0  0  0  0  0  0  0  0  0  0
  179.6710  177.1300  141.5950 C   0  0  0  0  0  2  0  0  0  0  0  0
  180.9430  177.8740  141.2430 C   0  0  2  0  0  3  0  0  0  0  0  0
  180.4320  179.6820  139.8260 C   0  0  1  0  0  3  0  0  0  0  0  0
  180.7760  179.3990  141.2610 C   0  0  0  0  0  2  0  0  0  0  0  0
  179.9960  177.3860  140.1320 C   0  0  1  0  0  0  0  0  0  0  0  0
  191.3620  175.1640  138.2400 C   0  0  0  0  0  2  0  0  0  0  0  0
  191.5210  174.6650  136.8360 C   0  0  0  0  0  3  0  0  0  0  0  0
  192.0880  173.5390  136.6050 N   0  0  0  0  0  0  0  0  0  0  0  0
  192.2230  173.0650  135.2580 C   0  0  0  0  0  2  0  0  0  0  0  0
  193.0770  171.8140  135.2490 C   0  0  0  0  0  2  0  0  0  0  0  0
  194.4670  172.1270  134.7230 C   0  0  2  0  0  3  0  0  0  0  0  0
  195.4650  171.4570  135.5430 N   0  0  0  0  0  2  0  0  0  0  0  0
  195.6740  169.8300  137.3170 C   0  0  0  0  0  2  0  0  0  0  0  0
  195.4620  171.1880  137.9450 C   0  0  0  0  0  2  0  0  0  0  0  0
  194.7600  170.8350  136.6500 C   0  0  0  0  0  3  0  0  0  0  0  0
  194.6870  173.6320  134.7730 C   0  0  0  0  0  2  0  0  0  0  0  0
  195.3630  174.8780  136.7960 C   0  0  0  0  0  1  0  0  0  0  0  0
  195.8580  173.9870  135.6740 C   0  0  2  0  0  3  0  0  0  0  0  0
  196.9330  174.7110  134.8730 C   0  0  0  0  0  2  0  0  0  0  0  0
  198.2560  174.7390  135.6230 C   0  0  0  0  0  2  0  0  0  0  0  0
  198.6290  173.3460  136.0910 C   0  0  0  0  0  1  0  0  0  0  0  0
  184.0530  178.7380  142.8910 C   0  0  0  0  0  2  0  0  0  0  0  0
  185.2390  179.1140  143.7590 C   0  0  0  0  0  2  0  0  0  0  0  0
  184.9840  178.6630  145.1810 C   0  0  0  0  0  1  0  0  0  0  0  0
  1 16  2  0  0  0  0
  2 28  1  0  0  0  0
  3 29  1  6  0  0  0
  4 25  1  0  0  0  0
  6 27  1  0  0  0  0
  6  2  2  0  0  0  0
  7 20  1  1  0  0  0
  7  3  1  0  0  0  0
  8 55  1  0  0  0  0
  9  4  2  0  0  0  0
 10 39  1  6  0  0  0
 10 19  1  0  0  0  0
 11  9  1  0  0  0  0
 11  2  1  0  0  0  0
 12 24  1  0  0  0  0
 14 19  2  0  0  0  0
 15 26  1  0  0  0  0
 15 21  1  0  0  0  0
 16 22  1  0  0  0  0
 16  5  1  0  0  0  0
 18 12  2  0  0  0  0
 18 22  1  0  0  0  0
 19  5  1  0  0  0  0
 19 17  2  0  0  0  0
 20 12  1  0  0  0  0
 22 23  2  0  0  0  0
 23  8  1  0  0  0  0
 24  8  2  0  0  0  0
 25 10  1  0  0  0  0
 26 13  1  6  0  0  0
 26  7  1  0  0  0  0
 26  3  1  0  0  0  0
 27 15  2  0  0  0  0
 28 21  2  0  0  0  0
 30 31  1  0  0  0  0
 30 33  1  0  0  0  0
 32 31  1  6  0  0  0
 32 36  1  0  0  0  0
 32 38  1  0  0  0  0
 33 36  1  0  0  0  0
 35 37  1  1  0  0  0
 35 34  1  0  0  0  0
 36 37  1  1  0  0  0
 38 29  1  6  0  0  0
 38 35  1  0  0  0  0
 38 34  1  0  0  0  0
 40 39  1  0  0  0  0
 41 40  2  0  0  0  0
 42 41  1  0  0  0  0
 43 42  1  0  0  0  0
 44 49  1  1  0  0  0
 44 43  1  0  0  0  0
 44 45  1  0  0  0  0
 45 48  1  0  0  0  0
 46 47  1  0  0  0  0
 48 46  1  0  0  0  0
 48 47  1  0  0  0  0
 49 51  1  0  0  0  0
 51 50  1  1  0  0  0
 52 53  1  0  0  0  0
 52 51  1  0  0  0  0
 53 54  1  0  0  0  0
 55 56  1  0  0  0  0
 56 57  1  0  0  0  0
M  END
>  <MODEL>
8

>  <REMARK>
 VINA RESULT:      -3.3      4.020      8.168
  Name = 
  15 active torsions:
  status: ('A' for Active; 'I' for Inactive)
    1  A    between atoms: C_3  and  C_49
    2  A    between atoms: C_4  and  C_24
    3  A    between atoms: C_5  and  C_11
    4  A    between atoms: N_7  and  C_21
    5  A    between atoms: N_7  and  C_26
    6  A    between atoms: C_11  and  C_55
    7  A    between atoms: C_12  and  C_49
    8  A    between atoms: C_14  and  C_24
    9  A    between atoms: C_15  and  C_19
   10  A    between atoms: C_19  and  C_51
   11  A    between atoms: C_21  and  C_41
   12  A    between atoms: C_21  and  C_44
   13  A    between atoms: C_22  and  N_32
   14  A    between atoms: C_22  and  C_44
   15  A    between atoms: C_41  and  C_51
                            x       y       z     vdW  Elec       q    Type
                         _______ _______ _______ _____ _____    ______ ____

>  <TORSDO>
F 15

$$$$
=
 OpenBabel11062416433D

 57 64  0  0  1  0  0  0  0  0999 V2000
  188.2040  178.0050  137.2760 O   0  0  0  0  0  0  0  0  0  0  0  0
  189.6890  174.4400  136.3220 C   0  0  0  0  0  0  0  0  0  0  0  0
  184.7710  172.9630  136.1650 C   0  0  2  0  0  3  0  0  0  0  0  0
  191.1920  175.6210  139.0750 C   0  0  0  0  0  3  0  0  0  0  0  0
  187.3130  178.0930  139.4310 N   0  0  0  0  0  2  0  0  0  0  0  0
  189.3470  174.2220  134.9830 C   0  0  0  0  0  3  0  0  0  0  0  0
  184.7900  173.4310  134.7540 N   0  0  1  0  0  0  0  0  0  0  0  0
  183.6540  176.6090  137.6330 C   0  0  0  0  0  0  0  0  0  0  0  0
  191.4930  174.8510  138.0220 C   0  0  0  0  0  3  0  0  0  0  0  0
  189.9890  177.4310  140.3180 C   0  0  1  0  0  3  0  0  0  0  0  0
  190.9860  175.1320  136.6330 C   0  0  0  0  0  2  0  0  0  0  0  0
  184.9890  175.7200  135.8170 C   0  0  0  0  0  0  0  0  0  0  0  0
  185.9310  171.3100  134.7900 O   0  0  0  0  0  1  0  0  0  0  0  0
  189.2810  179.8580  139.3270 O   0  0  0  0  0  0  0  0  0  0  0  0
  187.2260  173.2550  135.6570 C   0  0  0  0  0  0  0  0  0  0  0  0
  187.2300  177.7670  138.0410 C   0  0  0  0  0  0  0  0  0  0  0  0
  188.4120  179.2430  141.5270 O   0  0  0  0  0  0  0  0  0  0  0  0
  186.1110  176.3690  136.3310 C   0  0  0  0  0  3  0  0  0  0  0  0
  188.7550  178.7230  140.1600 S   0  0  0  0  0  0  0  0  0  0  0  0
  185.1570  174.8570  134.5990 C   0  0  0  0  0  2  0  0  0  0  0  0
  187.5710  173.4640  136.9990 C   0  0  0  0  0  3  0  0  0  0  0  0
  186.0240  177.1240  137.5030 C   0  0  0  0  0  0  0  0  0  0  0  0
  184.7910  177.2340  138.1600 C   0  0  0  0  0  3  0  0  0  0  0  0
  183.7520  175.8560  136.4570 C   0  0  0  0  0  3  0  0  0  0  0  0
  190.3570  176.8590  138.9520 C   0  0  0  0  0  2  0  0  0  0  0  0
  185.9040  172.6110  135.3030 C   0  0  2  0  0  0  0  0  0  0  0  0
  188.1250  173.6260  134.6490 C   0  0  0  0  0  3  0  0  0  0  0  0
  188.7870  174.0660  137.3290 C   0  0  0  0  0  3  0  0  0  0  0  0
  183.7310  171.8590  136.3070 C   0  0  0  0  0  2  0  0  0  0  0  0
  179.6840  169.9490  135.4840 C   0  0  0  0  0  2  0  0  0  0  0  0
  181.0710  170.1840  136.1050 C   0  0  0  0  0  2  0  0  0  0  0  0
  181.0940  171.6560  136.3860 C   0  0  2  0  0  3  0  0  0  0  0  0
  178.9480  171.5620  134.9570 S   0  0  0  0  0  0  0  0  0  0  0  0
  182.1980  173.6740  137.5350 C   0  0  0  0  0  2  0  0  0  0  0  0
  182.1630  173.7880  136.0240 C   0  0  2  0  0  3  0  0  0  0  0  0
  180.5840  172.2750  135.1550 C   0  0  1  0  0  3  0  0  0  0  0  0
  180.7430  173.7400  135.4460 C   0  0  0  0  0  2  0  0  0  0  0  0
  182.3630  172.4170  136.6950 C   0  0  1  0  0  0  0  0  0  0  0  0
  191.2080  177.9020  141.1250 C   0  0  0  0  0  2  0  0  0  0  0  0
  190.9030  178.1780  142.5660 C   0  0  0  0  0  3  0  0  0  0  0  0
  191.8460  178.2300  143.4320 N   0  0  0  0  0  0  0  0  0  0  0  0
  191.5450  178.5090  144.8070 C   0  0  0  0  0  2  0  0  0  0  0  0
  190.0760  178.2450  145.0620 C   0  0  0  0  0  2  0  0  0  0  0  0
  189.9030  176.9950  145.9060 C   0  0  2  0  0  3  0  0  0  0  0  0
  188.5170  176.8820  146.3360 N   0  0  0  0  0  2  0  0  0  0  0  0
  186.9460  177.3090  144.5490 C   0  0  0  0  0  2  0  0  0  0  0  0
  186.2890  177.6890  145.8560 C   0  0  0  0  0  2  0  0  0  0  0  0
  187.7720  177.9270  145.6570 C   0  0  0  0  0  3  0  0  0  0  0  0
  190.8110  177.0900  147.1230 C   0  0  0  0  0  2  0  0  0  0  0  0
  191.8040  175.2140  145.8610 C   0  0  0  0  0  1  0  0  0  0  0  0
  192.0580  176.2400  146.9470 C   0  0  2  0  0  3  0  0  0  0  0  0
  192.4010  175.5370  148.2540 C   0  0  0  0  0  2  0  0  0  0  0  0
  193.7170  176.0420  148.8240 C   0  0  0  0  0  2  0  0  0  0  0  0
  193.4640  177.0450  149.9330 C   0  0  0  0  0  1  0  0  0  0  0  0
  182.3400  176.7490  138.3180 C   0  0  0  0  0  2  0  0  0  0  0  0
  181.4910  177.7880  137.6090 C   0  0  0  0  0  2  0  0  0  0  0  0
  180.0860  177.7540  138.1690 C   0  0  0  0  0  1  0  0  0  0  0  0
  1 16  2  0  0  0  0
  2 11  1  0  0  0  0
  2 28  1  0  0  0  0
  3 29  1  6  0  0  0
  5 19  1  0  0  0  0
  6  2  2  0  0  0  0
  7 20  1  1  0  0  0
  7 26  1  0  0  0  0
  7  3  1  0  0  0  0
  8 23  1  0  0  0  0
  8 55  1  0  0  0  0
  9  4  2  0  0  0  0
 10 39  1  6  0  0  0
 11  9  1  0  0  0  0
 12 18  2  0  0  0  0
 12 24  1  0  0  0  0
 14 19  2  0  0  0  0
 15 21  1  0  0  0  0
 16  5  1  0  0  0  0
 18 22  1  0  0  0  0
 19 10  1  0  0  0  0
 19 17  2  0  0  0  0
 20 12  1  0  0  0  0
 21 28  2  0  0  0  0
 22 16  1  0  0  0  0
 22 23  2  0  0  0  0
 24  8  2  0  0  0  0
 25  4  1  0  0  0  0
 25 10  1  0  0  0  0
 26 13  1  6  0  0  0
 26 15  1  0  0  0  0
 26  3  1  0  0  0  0
 27  6  1  0  0  0  0
 27 15  2  0  0  0  0
 30 31  1  0  0  0  0
 32 31  1  6  0  0  0
 32 38  1  0  0  0  0
 33 36  1  0  0  0  0
 33 30  1  0  0  0  0
 35 37  1  1  0  0  0
 35 38  1  0  0  0  0
 35 34  1  0  0  0  0
 36 37  1  1  0  0  0
 36 32  1  0  0  0  0
 38 29  1  6  0  0  0
 38 34  1  0  0  0  0
 39 40  1  0  0  0  0
 40 41  2  0  0  0  0
 41 42  1  0  0  0  0
 42 43  1  0  0  0  0
 44 43  1  6  0  0  0
 44 45  1  0  0  0  0
 44 49  1  0  0  0  0
 46 48  1  0  0  0  0
 46 47  1  0  0  0  0
 48 47  1  0  0  0  0
 48 45  1  0  0  0  0
 51 50  1  6  0  0  0
 51 49  1  0  0  0  0
 51 52  1  0  0  0  0
 52 53  1  0  0  0  0
 53 54  1  0  0  0  0
 56 57  1  0  0  0  0
 56 55  1  0  0  0  0
M  END
>  <MODEL>
9

>  <REMARK>
 VINA RESULT:      -3.1      1.153      2.957
  Name = 
  15 active torsions:
  status: ('A' for Active; 'I' for Inactive)
    1  A    between atoms: C_3  and  C_49
    2  A    between atoms: C_4  and  C_24
    3  A    between atoms: C_5  and  C_11
    4  A    between atoms: N_7  and  C_21
    5  A    between atoms: N_7  and  C_26
    6  A    between atoms: C_11  and  C_55
    7  A    between atoms: C_12  and  C_49
    8  A    between atoms: C_14  and  C_24
    9  A    between atoms: C_15  and  C_19
   10  A    between atoms: C_19  and  C_51
   11  A    between atoms: C_21  and  C_41
   12  A    between atoms: C_21  and  C_44
   13  A    between atoms: C_22  and  N_32
   14  A    between atoms: C_22  and  C_44
   15  A    between atoms: C_41  and  C_51
                            x       y       z     vdW  Elec       q    Type
                         _______ _______ _______ _____ _____    ______ ____

>  <TORSDO>
F 15

$$$$
