=
 OpenBabel11062418053D

 63 67  0  0  1  0  0  0  0  0999 V2000
  180.8790  180.9320  138.8320 O   0  0  0  0  0  0  0  0  0  0  0  0
  190.3060  178.2680  139.6120 O   0  0  0  0  0  0  0  0  0  0  0  0
  188.0480  174.2360  134.6960 C   0  0  2  0  0  3  0  0  0  0  0  0
  183.9990  178.2710  143.5560 C   0  0  0  0  0  0  0  0  0  0  0  0
  186.3200  175.9930  135.1180 C   0  0  0  0  0  2  0  0  0  0  0  0
  185.2010  179.0640  141.1570 C   0  0  0  0  0  3  0  0  0  0  0  0
  189.4440  174.4200  134.7540 O   0  0  0  0  0  0  0  0  0  0  0  0
  181.5540  176.6740  138.5700 C   0  0  0  0  0  2  0  0  0  0  0  0
  183.4040  177.8750  144.7460 O   0  0  0  0  0  1  0  0  0  0  0  0
  189.7000  175.0740  135.9730 C   0  0  2  0  0  3  0  0  0  0  0  0
  185.9300  178.3010  142.0830 C   0  0  0  0  0  0  0  0  0  0  0  0
  183.8800  179.4400  141.4390 C   0  0  0  0  0  0  0  0  0  0  0  0
  180.7590  178.8570  137.7330 N   0  0  0  0  0  0  0  0  0  0  0  0
  189.8490  177.5970  138.4660 C   0  0  0  0  0  2  0  0  0  0  0  0
  189.5580  177.8230  140.7280 C   0  0  1  0  0  3  0  0  0  0  0  0
  183.2810  179.0370  142.6370 C   0  0  0  0  0  3  0  0  0  0  0  0
  185.6010  176.8370  136.1660 C   0  0  0  0  0  2  0  0  0  0  0  0
  182.7840  177.7620  136.9470 C   0  0  0  0  0  0  0  0  0  0  0  0
  187.3750  175.0990  135.7500 C   0  0  2  0  0  3  0  0  0  0  0  0
  188.4980  175.9110  136.3040 C   0  0  0  0  0  2  0  0  0  0  0  0
  187.2910  177.9130  141.8500 N   0  0  0  0  0  2  0  0  0  0  0  0
  185.2450  175.1450  137.8060 O   0  0  0  0  0  1  0  0  0  0  0  0
  181.3350  179.7620  138.7070 C   0  0  0  0  0  0  0  0  0  0  0  0
  184.5770  176.0250  136.9530 C   0  0  1  0  0  3  0  0  0  0  0  0
  182.4300  179.3410  139.5270 N   0  0  0  0  0  2  0  0  0  0  0  0
  185.3180  177.9060  143.2790 C   0  0  0  0  0  3  0  0  0  0  0  0
  190.9790  175.9250  135.8910 C   0  0  1  0  0  3  0  0  0  0  0  0
  188.1280  178.2980  140.7490 C   0  0  0  0  0  0  0  0  0  0  0  0
  182.8860  176.1920  138.6580 O   0  0  0  0  0  0  0  0  0  0  0  0
  181.3980  177.5840  137.3670 C   0  0  1  0  0  3  0  0  0  0  0  0
  183.6960  176.9560  137.7860 C   0  0  2  0  0  3  0  0  0  0  0  0
  183.1380  178.5070  136.0460 O   0  0  0  0  0  0  0  0  0  0  0  0
  187.6970  179.0650  139.8470 O   0  0  0  0  0  0  0  0  0  0  0  0
  191.3730  176.5550  137.2360 C   0  0  0  0  0  2  0  0  0  0  0  0
  183.0940  180.2360  140.4590 C   0  0  0  0  0  2  0  0  0  0  0  0
  190.7400  177.7890  137.4070 O   0  0  0  0  0  0  0  0  0  0  0  0
  189.2590  171.7440  136.1830 C   0  0  0  0  0  2  0  0  0  0  0  0
  187.6950  172.7480  134.8300 C   0  0  1  0  0  3  0  0  0  0  0  0
  188.3990  170.8690  136.8940 O   0  0  0  0  0  0  0  0  0  0  0  0
  188.8470  171.9200  134.8450 O   0  0  0  0  0  0  0  0  0  0  0  0
  186.6330  170.0540  135.6650 O   0  0  0  0  0  1  0  0  0  0  0  0
  187.0340  171.0600  136.5500 C   0  0  2  0  0  3  0  0  0  0  0  0
  186.7120  172.4570  135.9820 C   0  0  2  0  0  3  0  0  0  0  0  0
  185.2480  172.5730  135.5330 C   0  0  1  0  0  3  0  0  0  0  0  0
  184.9470  171.5810  134.5960 O   0  0  0  0  0  1  0  0  0  0  0  0
  184.7430  172.7170  137.9790 O   0  0  0  0  0  1  0  0  0  0  0  0
  184.3080  172.4550  136.6870 C   0  0  0  0  0  0  0  0  0  0  0  0
  183.1100  172.1220  136.4860 O   0  0  0  0  0  0  0  0  0  0  0  0
  193.1260  175.1640  136.1980 C   0  0  0  0  0  1  0  0  0  0  0  0
  192.0570  175.2360  135.2870 O   0  0  0  0  0  0  0  0  0  0  0  0
  179.5230  179.1820  137.0690 C   0  0  0  0  0  0  0  0  0  0  0  0
  178.9310  178.3040  136.2630 C   0  0  0  0  0  2  0  0  0  0  0  0
  178.9350  180.5500  137.1940 C   0  0  0  0  0  2  0  0  0  0  0  0
  179.4960  181.4520  136.1100 C   0  0  0  0  0  1  0  0  0  0  0  0
  189.6820  176.3210  140.9980 C   0  0  0  0  0  2  0  0  0  0  0  0
  190.5020  176.0820  142.2510 C   0  0  0  0  0  2  0  0  0  0  0  0
  189.5970  176.1610  143.4690 C   0  0  0  0  0  2  0  0  0  0  0  0
  191.7250  177.2470  144.1990 C   0  0  0  0  0  1  0  0  0  0  0  0
  190.3050  176.8780  144.6090 C   0  0  1  0  0  3  0  0  0  0  0  0
  188.7110  178.5660  144.0540 F   0  0  0  0  0  0  0  0  0  0  0  0
  189.5020  178.0920  145.0860 C   0  0  1  0  0  3  0  0  0  0  0  0
  188.6420  177.7790  146.3060 C   0  0  0  0  0  2  0  0  0  0  0  0
  187.4130  177.2920  145.9040 F   0  0  0  0  0  0  0  0  0  0  0  0
  2 15  1  0  0  0  0
  3  7  1  1  0  0  0
  3 38  1  0  0  0  0
  3 19  1  0  0  0  0
  4  9  1  0  0  0  0
  5 17  1  0  0  0  0
  6 12  2  0  0  0  0
  6 11  1  0  0  0  0
  7 10  1  0  0  0  0
  8 29  1  0  0  0  0
 10 20  1  6  0  0  0
 11 26  2  0  0  0  0
 12 16  1  0  0  0  0
 13 23  1  0  0  0  0
 14  2  1  0  0  0  0
 15 28  1  0  0  0  0
 15 55  1  6  0  0  0
 16  4  2  0  0  0  0
 17 24  1  0  0  0  0
 18 30  1  0  0  0  0
 19  5  1  6  0  0  0
 19 20  1  0  0  0  0
 21 11  1  0  0  0  0
 23  1  2  0  0  0  0
 23 25  1  0  0  0  0
 24 31  1  0  0  0  0
 24 22  1  1  0  0  0
 25 35  1  0  0  0  0
 26  4  1  0  0  0  0
 27 50  1  1  0  0  0
 27 10  1  0  0  0  0
 27 34  1  0  0  0  0
 28 21  1  0  0  0  0
 30 13  1  0  0  0  0
 30  8  1  1  0  0  0
 31 18  1  6  0  0  0
 31 29  1  0  0  0  0
 32 18  2  0  0  0  0
 33 28  2  0  0  0  0
 34 36  1  0  0  0  0
 35 12  1  0  0  0  0
 36 14  1  0  0  0  0
 37 39  1  0  0  0  0
 38 40  1  1  0  0  0
 38 43  1  0  0  0  0
 40 37  1  0  0  0  0
 42 41  1  6  0  0  0
 42 39  1  0  0  0  0
 43 44  1  6  0  0  0
 43 42  1  0  0  0  0
 44 45  1  6  0  0  0
 44 47  1  0  0  0  0
 47 46  1  0  0  0  0
 48 47  2  0  0  0  0
 50 49  1  0  0  0  0
 51 53  1  0  0  0  0
 51 13  1  0  0  0  0
 52 51  2  0  0  0  0
 54 53  1  0  0  0  0
 55 56  1  0  0  0  0
 56 57  1  0  0  0  0
 57 59  1  0  0  0  0
 59 58  1  6  0  0  0
 59 61  1  0  0  0  0
 61 60  1  6  0  0  0
 61 62  1  0  0  0  0
 63 62  1  0  0  0  0
M  END
>  <MODEL>
1

>  <REMARK>
 VINA RESULT:      -3.2      0.000      0.000
  Name = 
  12 active torsions:
  status: ('A' for Active; 'I' for Inactive)
    1  A    between atoms: C_3  and  C_7
    2  A    between atoms: C_4  and  C_28
    3  A    between atoms: C_7  and  N_22
    4  A    between atoms: C_8  and  C_54
    5  A    between atoms: C_14  and  C_41
    6  A    between atoms: C_14  and  C_44
    7  A    between atoms: C_15  and  C_34
    8  A    between atoms: C_15  and  C_62
    9  A    between atoms: O_18  and  C_46
   10  A    between atoms: C_24  and  C_29
   11  A    between atoms: C_29  and  C_44
   12  A    between atoms: C_41  and  C_54
                            x       y       z     vdW  Elec       q    Type
                         _______ _______ _______ _____ _____    ______ ____

>  <TORSDO>
F 12

$$$$
