=
 OpenBabel11062413563D

 61 70  0  0  1  0  0  0  0  0999 V2000
  181.1730  174.7910  136.5520 C   0  0  0  0  0  1  0  0  0  0  0  0
  188.5040  172.4250  136.3520 C   0  0  0  0  0  3  0  0  0  0  0  0
  182.8730  175.9390  139.2910 C   0  0  0  0  0  2  0  0  0  0  0  0
  185.0540  172.7710  137.9700 C   0  0  1  0  0  3  0  0  0  0  0  0
  186.3320  178.3750  135.6190 C   0  0  2  0  0  3  0  0  0  0  0  0
  180.9910  180.4250  137.2070 O   0  0  0  0  0  0  0  0  0  0  0  0
  186.1490  173.9250  136.0180 C   0  0  0  0  0  0  0  0  0  0  0  0
  182.0540  179.6660  136.6970 C   0  0  0  0  0  2  0  0  0  0  0  0
  184.9540  175.7040  134.5940 C   0  0  0  0  0  2  0  0  0  0  0  0
  183.0800  175.9480  137.7680 C   0  0  2  0  0  3  0  0  0  0  0  0
  181.5960  175.2310  139.7530 C   0  0  0  0  0  2  0  0  0  0  0  0
  181.8130  179.5930  139.9170 C   0  0  0  0  0  1  0  0  0  0  0  0
  182.3260  172.0500  135.5260 O   0  0  0  0  0  1  0  0  0  0  0  0
  188.4260  173.3830  135.3460 C   0  0  0  0  0  3  0  0  0  0  0  0
  185.1940  178.0140  136.5510 C   0  0  2  0  0  3  0  0  0  0  0  0
  186.2530  172.9900  137.0800 C   0  0  0  0  0  0  0  0  0  0  0  0
  187.6710  178.3800  136.3440 C   0  0  0  0  0  2  0  0  0  0  0  0
  179.9030  176.6510  138.8150 O   0  0  0  0  0  0  0  0  0  0  0  0
  183.5580  172.5660  135.9260 C   0  0  1  0  0  3  0  0  0  0  0  0
  184.0480  177.4870  136.0740 C   0  0  2  0  0  3  0  0  0  0  0  0
  183.5160  174.1040  135.9330 C   0  0  2  0  0  3  0  0  0  0  0  0
  186.6060  178.3980  138.5440 C   0  0  2  0  0  3  0  0  0  0  0  0
  179.8050  179.8310  136.7460 C   0  0  0  0  0  2  0  0  0  0  0  0
  180.4660  176.2140  140.0300 C   0  0  0  0  0  2  0  0  0  0  0  0
  187.5400  171.2500  138.1580 F   0  0  0  0  0  0  0  0  0  0  0  0
  187.4270  172.2170  137.2120 C   0  0  0  0  0  0  0  0  0  0  0  0
  179.1020  178.7720  139.6180 C   0  0  0  0  0  1  0  0  0  0  0  0
  187.5790  179.1510  137.6530 C   0  0  0  0  0  2  0  0  0  0  0  0
  183.9680  171.9540  137.2740 C   0  0  1  0  0  3  0  0  0  0  0  0
  186.0860  179.7320  134.9910 C   0  0  0  0  0  1  0  0  0  0  0  0
  182.8530  177.2600  136.9680 C   0  0  2  0  0  3  0  0  0  0  0  0
  187.2580  174.1250  135.1830 C   0  0  0  0  0  3  0  0  0  0  0  0
  179.6020  178.3780  137.2360 C   0  0  0  0  0  2  0  0  0  0  0  0
  184.9020  174.7840  135.8240 C   0  0  1  0  0  3  0  0  0  0  0  0
  185.3820  172.2270  139.2150 O   0  0  0  0  0  1  0  0  0  0  0  0
  181.5610  178.4670  138.9120 C   0  0  1  0  0  3  0  0  0  0  0  0
  180.0660  178.0530  138.6650 C   0  0  2  0  0  0  0  0  0  0  0  0
  185.3260  178.2370  137.9310 O   0  0  0  0  0  0  0  0  0  0  0  0
  182.4960  178.5810  137.7010 C   0  0  2  0  0  3  0  0  0  0  0  0
  183.9860  176.8820  134.7040 C   0  0  0  0  0  2  0  0  0  0  0  0
  184.3970  170.6550  137.0760 F   0  0  0  0  0  0  0  0  0  0  0  0
  182.6060  174.6630  137.0520 C   0  0  2  0  0  3  0  0  0  0  0  0
  184.9910  178.9290  141.9210 N   0  0  0  0  0  0  0  0  0  0  0  0
  186.4900  178.9190  139.9730 C   0  0  1  0  0  3  0  0  0  0  0  0
  187.3190  178.4450  142.0390 N   0  0  2  0  0  0  0  0  0  0  0  0
  185.3850  178.1990  140.7100 C   0  0  1  0  0  3  0  0  0  0  0  0
  185.9910  177.8540  141.9860 C   0  0  2  0  0  3  0  0  0  0  0  0
  183.7320  178.3550  142.3490 C   0  0  0  0  0  1  0  0  0  0  0  0
  187.7170  178.6900  140.7160 N   0  0  0  0  0  2  0  0  0  0  0  0
  190.2460  175.9400  143.1190 C   0  0  0  0  0  2  0  0  0  0  0  0
  188.2060  177.4800  142.7070 C   0  0  2  0  0  3  0  0  0  0  0  0
  188.2140  177.7430  144.1410 N   0  0  0  0  0  0  0  0  0  0  0  0
  189.9160  177.3590  142.0390 S   0  0  0  0  0  0  0  0  0  0  0  0
  190.0900  176.3270  144.5160 N   0  0  0  0  0  2  0  0  0  0  0  0
  189.0390  177.1890  144.9810 C   0  0  0  0  0  0  0  0  0  0  0  0
  190.0640  177.5010  147.2470 C   0  0  0  0  0  3  0  0  0  0  0  0
  188.9290  177.4940  146.4210 C   0  0  0  0  0  0  0  0  0  0  0  0
  187.5730  178.1680  148.3250 C   0  0  0  0  0  3  0  0  0  0  0  0
  187.6850  177.8350  146.9740 C   0  0  0  0  0  3  0  0  0  0  0  0
  189.9530  177.8280  148.6020 C   0  0  0  0  0  3  0  0  0  0  0  0
  188.7080  178.1620  149.1410 C   0  0  0  0  0  3  0  0  0  0  0  0
  1 42  1  0  0  0  0
  2 26  1  0  0  0  0
  3 11  1  0  0  0  0
  4 35  1  1  0  0  0
  5 30  1  1  0  0  0
  5 17  1  0  0  0  0
  5 15  1  0  0  0  0
  7 16  1  0  0  0  0
  8  6  1  0  0  0  0
  8 39  1  0  0  0  0
  9 40  1  0  0  0  0
  9 34  1  0  0  0  0
 10  3  1  1  0  0  0
 11 24  1  0  0  0  0
 14  2  2  0  0  0  0
 15 38  1  6  0  0  0
 16 26  2  0  0  0  0
 16  4  1  0  0  0  0
 17 28  1  0  0  0  0
 18 24  1  0  0  0  0
 19 13  1  1  0  0  0
 19 21  1  0  0  0  0
 19 29  1  0  0  0  0
 20 40  1  1  0  0  0
 20 15  1  0  0  0  0
 20 31  1  0  0  0  0
 21 42  1  0  0  0  0
 22 44  1  0  0  0  0
 23  6  1  0  0  0  0
 23 33  1  0  0  0  0
 26 25  1  0  0  0  0
 28 22  1  0  0  0  0
 29  4  1  0  0  0  0
 31 39  1  0  0  0  0
 31 10  1  0  0  0  0
 32 14  1  0  0  0  0
 32  7  2  0  0  0  0
 33 37  1  0  0  0  0
 34 21  1  0  0  0  0
 34  7  1  0  0  0  0
 36 12  1  0  0  0  0
 37 18  1  0  0  0  0
 37 36  1  0  0  0  0
 37 27  1  0  0  0  0
 38 22  1  0  0  0  0
 39 36  1  0  0  0  0
 41 29  1  0  0  0  0
 42 10  1  0  0  0  0
 43 47  1  0  0  0  0
 43 48  1  0  0  0  0
 44 46  1  0  0  0  0
 44 49  1  0  0  0  0
 45 51  1  0  0  0  0
 46 43  1  0  0  0  0
 46 47  1  0  0  0  0
 47 45  1  0  0  0  0
 49 45  1  0  0  0  0
 50 54  1  0  0  0  0
 51 52  1  0  0  0  0
 52 55  2  0  0  0  0
 53 51  1  0  0  0  0
 53 50  1  0  0  0  0
 54 55  1  0  0  0  0
 55 57  1  0  0  0  0
 56 60  1  0  0  0  0
 57 59  1  0  0  0  0
 57 56  2  0  0  0  0
 58 61  1  0  0  0  0
 59 58  2  0  0  0  0
 60 61  2  0  0  0  0
M  END
>  <MODEL>
1

>  <REMARK>
 VINA RESULT:      -2.5      0.000      0.000
  Name = 
  3 active torsions:
  status: ('A' for Active; 'I' for Inactive)
    1  A    between atoms: C_19  and  C_27
    2  A    between atoms: N_20  and  C_21
    3  A    between atoms: C_51  and  C_52
                            x       y       z     vdW  Elec       q    Type
                         _______ _______ _______ _____ _____    ______ ____

>  <TORSDO>
F 3

$$$$
=
 OpenBabel11062413563D

 61 70  0  0  1  0  0  0  0  0999 V2000
  180.9680  174.7470  136.7360 C   0  0  0  0  0  1  0  0  0  0  0  0
  188.3120  172.4670  136.2350 C   0  0  0  0  0  3  0  0  0  0  0  0
  182.7760  175.9560  139.3780 C   0  0  0  0  0  2  0  0  0  0  0  0
  184.9350  172.7950  138.0030 C   0  0  1  0  0  3  0  0  0  0  0  0
  186.0340  178.3790  135.5170 C   0  0  2  0  0  3  0  0  0  0  0  0
  180.7440  180.3880  137.3180 O   0  0  0  0  0  0  0  0  0  0  0  0
  185.9260  173.9340  135.9870 C   0  0  0  0  0  0  0  0  0  0  0  0
  181.7920  179.6340  136.7710 C   0  0  0  0  0  2  0  0  0  0  0  0
  184.6440  175.6770  134.5940 C   0  0  0  0  0  2  0  0  0  0  0  0
  182.9130  175.9450  137.8460 C   0  0  2  0  0  3  0  0  0  0  0  0
  181.5310  175.2390  139.9070 C   0  0  0  0  0  2  0  0  0  0  0  0
  181.7000  179.6060  139.9990 C   0  0  0  0  0  1  0  0  0  0  0  0
  182.1080  172.0050  135.6960 O   0  0  0  0  0  1  0  0  0  0  0  0
  188.1760  173.4090  135.2190 C   0  0  0  0  0  3  0  0  0  0  0  0
  184.9440  178.0180  136.5050 C   0  0  2  0  0  3  0  0  0  0  0  0
  186.0890  173.0160  137.0560 C   0  0  0  0  0  0  0  0  0  0  0  0
  187.4030  178.4110  136.1810 C   0  0  0  0  0  2  0  0  0  0  0  0
  179.7780  176.6240  139.0270 O   0  0  0  0  0  0  0  0  0  0  0  0
  183.3500  172.5430  136.0320 C   0  0  1  0  0  3  0  0  0  0  0  0
  183.7840  177.4700  136.0890 C   0  0  2  0  0  3  0  0  0  0  0  0
  183.2890  174.0790  136.0200 C   0  0  2  0  0  3  0  0  0  0  0  0
  186.4400  178.4490  138.4260 C   0  0  2  0  0  3  0  0  0  0  0  0
  179.5460  179.7730  136.9200 C   0  0  0  0  0  2  0  0  0  0  0  0
  180.4020  176.2130  140.2220 C   0  0  0  0  0  2  0  0  0  0  0  0
  187.4460  171.3070  138.0990 F   0  0  0  0  0  0  0  0  0  0  0  0
  187.2780  172.2580  137.1450 C   0  0  0  0  0  0  0  0  0  0  0  0
  178.9880  178.7480  139.8350 C   0  0  0  0  0  1  0  0  0  0  0  0
  187.3620  179.2000  137.4810 C   0  0  0  0  0  2  0  0  0  0  0  0
  183.8290  171.9550  137.3690 C   0  0  1  0  0  3  0  0  0  0  0  0
  185.7420  179.7240  134.8810 C   0  0  0  0  0  1  0  0  0  0  0  0
  182.6340  177.2420  137.0390 C   0  0  2  0  0  3  0  0  0  0  0  0
  186.9930  174.1340  135.0990 C   0  0  0  0  0  3  0  0  0  0  0  0
  179.3850  178.3250  137.4390 C   0  0  0  0  0  2  0  0  0  0  0  0
  184.6600  174.7740  135.8380 C   0  0  1  0  0  3  0  0  0  0  0  0
  185.3260  172.2730  139.2390 O   0  0  0  0  0  1  0  0  0  0  0  0
  181.4160  178.4620  139.0230 C   0  0  1  0  0  3  0  0  0  0  0  0
  179.9170  178.0260  138.8500 C   0  0  2  0  0  0  0  0  0  0  0  0
  185.1360  178.2630  137.8740 O   0  0  0  0  0  0  0  0  0  0  0  0
  182.2930  178.5700  137.7690 C   0  0  2  0  0  3  0  0  0  0  0  0
  183.6680  176.8450  134.7310 C   0  0  0  0  0  2  0  0  0  0  0  0
  184.2650  170.6590  137.1700 F   0  0  0  0  0  0  0  0  0  0  0  0
  182.4240  174.6440  137.1710 C   0  0  2  0  0  3  0  0  0  0  0  0
  185.1690  178.7410  141.9750 N   0  0  0  0  0  0  0  0  0  0  0  0
  186.3820  178.9890  139.8510 C   0  0  1  0  0  3  0  0  0  0  0  0
  187.5430  178.8020  141.8000 N   0  0  2  0  0  0  0  0  0  0  0  0
  185.5700  178.0690  140.7330 C   0  0  1  0  0  3  0  0  0  0  0  0
  186.3900  177.9240  141.9260 C   0  0  2  0  0  3  0  0  0  0  0  0
  184.1380  177.9150  142.5690 C   0  0  0  0  0  1  0  0  0  0  0  0
  187.7100  179.0750  140.4330 N   0  0  0  0  0  2  0  0  0  0  0  0
  190.0710  176.4610  143.8350 C   0  0  0  0  0  2  0  0  0  0  0  0
  188.7030  178.0920  142.3610 C   0  0  2  0  0  3  0  0  0  0  0  0
  189.6530  177.7990  141.2930 N   0  0  0  0  0  0  0  0  0  0  0  0
  188.3270  176.5880  143.3520 S   0  0  0  0  0  0  0  0  0  0  0  0
  190.9070  176.3010  142.6510 N   0  0  0  0  0  2  0  0  0  0  0  0
  190.6860  177.0200  141.4280 C   0  0  0  0  0  0  0  0  0  0  0  0
  191.1320  176.4300  139.0330 C   0  0  0  0  0  3  0  0  0  0  0  0
  191.6090  176.8290  140.2920 C   0  0  0  0  0  0  0  0  0  0  0  0
  193.8550  176.9640  139.3670 C   0  0  0  0  0  3  0  0  0  0  0  0
  192.9770  177.0980  140.4450 C   0  0  0  0  0  3  0  0  0  0  0  0
  192.0100  176.2880  137.9550 C   0  0  0  0  0  3  0  0  0  0  0  0
  193.3720  176.5550  138.1220 C   0  0  0  0  0  3  0  0  0  0  0  0
  1 42  1  0  0  0  0
  2 26  1  0  0  0  0
  3 11  1  0  0  0  0
  4 35  1  1  0  0  0
  5 30  1  1  0  0  0
  5 17  1  0  0  0  0
  5 15  1  0  0  0  0
  7 16  1  0  0  0  0
  8  6  1  0  0  0  0
  8 39  1  0  0  0  0
  9 40  1  0  0  0  0
  9 34  1  0  0  0  0
 10  3  1  1  0  0  0
 11 24  1  0  0  0  0
 14  2  2  0  0  0  0
 15 38  1  6  0  0  0
 16 26  2  0  0  0  0
 16  4  1  0  0  0  0
 17 28  1  0  0  0  0
 18 24  1  0  0  0  0
 19 13  1  1  0  0  0
 19 29  1  0  0  0  0
 20 40  1  1  0  0  0
 20 15  1  0  0  0  0
 20 31  1  0  0  0  0
 21 19  1  0  0  0  0
 21 42  1  0  0  0  0
 22 44  1  0  0  0  0
 23  6  1  0  0  0  0
 23 33  1  0  0  0  0
 26 25  1  0  0  0  0
 28 22  1  0  0  0  0
 29  4  1  0  0  0  0
 31 39  1  0  0  0  0
 31 10  1  0  0  0  0
 32 14  1  0  0  0  0
 32  7  2  0  0  0  0
 33 37  1  0  0  0  0
 34  7  1  0  0  0  0
 34 21  1  0  0  0  0
 36 12  1  0  0  0  0
 37 36  1  0  0  0  0
 37 18  1  0  0  0  0
 37 27  1  0  0  0  0
 38 22  1  0  0  0  0
 39 36  1  0  0  0  0
 41 29  1  0  0  0  0
 42 10  1  0  0  0  0
 43 48  1  0  0  0  0
 44 49  1  0  0  0  0
 44 46  1  0  0  0  0
 45 47  1  0  0  0  0
 45 51  1  0  0  0  0
 46 47  1  0  0  0  0
 46 43  1  0  0  0  0
 47 43  1  0  0  0  0
 49 45  1  0  0  0  0
 51 53  1  0  0  0  0
 52 55  2  0  0  0  0
 52 51  1  0  0  0  0
 53 50  1  0  0  0  0
 54 50  1  0  0  0  0
 55 54  1  0  0  0  0
 56 57  1  0  0  0  0
 57 59  2  0  0  0  0
 57 55  1  0  0  0  0
 58 59  1  0  0  0  0
 60 61  1  0  0  0  0
 60 56  2  0  0  0  0
 61 58  2  0  0  0  0
M  END
>  <MODEL>
2

>  <REMARK>
 VINA RESULT:       0.1      1.602      3.169
  Name = 
  3 active torsions:
  status: ('A' for Active; 'I' for Inactive)
    1  A    between atoms: C_19  and  C_27
    2  A    between atoms: N_20  and  C_21
    3  A    between atoms: C_51  and  C_52
                            x       y       z     vdW  Elec       q    Type
                         _______ _______ _______ _____ _____    ______ ____

>  <TORSDO>
F 3

$$$$
