=
 OpenBabel11062413343D

 28 30  0  0  1  0  0  0  0  0999 V2000
  191.6630  176.0440  144.4620 N   0  0  0  0  0  2  0  0  0  0  0  0
  191.4080  176.9830  145.5530 C   0  0  2  0  0  3  0  0  0  0  0  0
  192.0110  176.4740  146.7730 N   0  0  0  0  0  1  0  0  0  0  0  0
  189.0460  177.0390  144.6580 C   0  0  0  0  0  0  0  0  0  0  0  0
  189.4490  177.6510  146.9420 N   0  0  0  0  0  0  0  0  0  0  0  0
  187.2180  177.7280  146.0920 C   0  0  0  0  0  0  0  0  0  0  0  0
  191.0670  176.5850  143.2440 C   0  0  0  0  0  2  0  0  0  0  0  0
  189.5410  176.5120  143.3330 C   0  0  2  0  0  3  0  0  0  0  0  0
  188.1270  177.9070  147.1370 C   0  0  0  0  0  3  0  0  0  0  0  0
  189.9270  177.2020  145.7470 C   0  0  0  0  0  0  0  0  0  0  0  0
  187.6820  177.2860  144.8510 C   0  0  0  0  0  3  0  0  0  0  0  0
  185.7620  177.9750  146.3080 C   0  0  0  0  0  2  0  0  0  0  0  0
  185.2880  179.1760  145.5020 C   0  0  0  0  0  2  0  0  0  0  0  0
  184.0340  178.8320  144.7170 C   0  0  0  0  0  2  0  0  0  0  0  0
  185.0080  179.1850  142.7690 C   0  0  0  0  0  1  0  0  0  0  0  0
  184.3890  178.1920  143.5290 O   0  0  0  0  0  0  0  0  0  0  0  0
  188.9800  177.2390  142.2790 O   0  0  0  0  0  0  0  0  0  0  0  0
  190.0540  177.5390  141.4370 C   0  0  0  0  0  2  0  0  0  0  0  0
  190.3890  175.7320  138.1960 C   0  0  0  0  0  3  0  0  0  0  0  0
  189.7520  177.0650  140.0540 C   0  0  0  0  0  0  0  0  0  0  0  0
  187.8440  178.5420  139.9380 O   0  0  0  0  0  1  0  0  0  0  0  0
  188.4300  177.1510  138.0110 C   0  0  0  0  0  0  0  0  0  0  0  0
  190.5860  176.1640  139.4680 N   0  0  0  0  0  0  0  0  0  0  0  0
  188.6650  177.5900  139.3360 C   0  0  0  0  0  0  0  0  0  0  0  0
  189.3140  176.2150  137.4510 C   0  0  0  0  0  3  0  0  0  0  0  0
  187.4340  178.8800  136.4330 C   0  0  0  0  0  1  0  0  0  0  0  0
  187.3360  177.6560  137.2120 N   0  0  0  0  0  0  0  0  0  0  0  0
  186.0410  176.9920  137.2260 C   0  0  0  0  0  1  0  0  0  0  0  0
  1  2  1  0  0  0  0
  2 10  1  0  0  0  0
  2  3  1  1  0  0  0
  4 11  2  0  0  0  0
  4 10  1  0  0  0  0
  5  9  1  0  0  0  0
  6 12  1  0  0  0  0
  6  9  2  0  0  0  0
  7  8  1  0  0  0  0
  7  1  1  0  0  0  0
  8 17  1  6  0  0  0
  8  4  1  0  0  0  0
 10  5  2  0  0  0  0
 11  6  1  0  0  0  0
 13 12  1  0  0  0  0
 14 13  1  0  0  0  0
 15 16  1  0  0  0  0
 16 14  1  0  0  0  0
 18 17  1  0  0  0  0
 19 23  1  0  0  0  0
 20 18  1  0  0  0  0
 22 24  2  0  0  0  0
 23 20  2  0  0  0  0
 24 21  1  0  0  0  0
 24 20  1  0  0  0  0
 25 22  1  0  0  0  0
 25 19  2  0  0  0  0
 26 27  1  0  0  0  0
 27 28  1  0  0  0  0
 27 22  1  0  0  0  0
M  END
>  <MODEL>
1

>  <REMARK>
 VINA RESULT:      -8.3      0.000      0.000
  Name = 
  8 active torsions:
  status: ('A' for Active; 'I' for Inactive)
    1  A    between atoms: C_3  and  C_18
    2  A    between atoms: C_7  and  N_8
    3  A    between atoms: O_12  and  C_26
    4  A    between atoms: C_13  and  C_15
    5  A    between atoms: C_13  and  C_16
    6  A    between atoms: C_15  and  C_26
    7  A    between atoms: C_18  and  O_25
    8  A    between atoms: C_23  and  O_25
                            x       y       z     vdW  Elec       q    Type
                         _______ _______ _______ _____ _____    ______ ____

>  <TORSDO>
F 8

$$$$
=
 OpenBabel11062413343D

 28 30  0  0  1  0  0  0  0  0999 V2000
  191.7230  176.0180  145.0280 N   0  0  0  0  0  2  0  0  0  0  0  0
  191.3940  176.8080  146.2130 C   0  0  2  0  0  3  0  0  0  0  0  0
  191.7880  176.0710  147.4030 N   0  0  0  0  0  1  0  0  0  0  0  0
  189.1850  177.2160  145.0580 C   0  0  0  0  0  0  0  0  0  0  0  0
  189.3220  177.4480  147.4410 N   0  0  0  0  0  0  0  0  0  0  0  0
  187.2370  177.8580  146.3490 C   0  0  0  0  0  0  0  0  0  0  0  0
  191.3380  176.7840  143.8460 C   0  0  0  0  0  2  0  0  0  0  0  0
  189.8120  176.8430  143.7370 C   0  0  2  0  0  3  0  0  0  0  0  0
  188.0090  177.7970  147.5120 C   0  0  0  0  0  3  0  0  0  0  0  0
  189.9210  177.1350  146.2580 C   0  0  0  0  0  0  0  0  0  0  0  0
  187.8300  177.5600  145.1200 C   0  0  0  0  0  3  0  0  0  0  0  0
  185.7890  178.2080  146.4230 C   0  0  0  0  0  2  0  0  0  0  0  0
  185.3060  178.8110  145.1120 C   0  0  0  0  0  2  0  0  0  0  0  0
  183.7920  178.9290  145.1020 C   0  0  0  0  0  2  0  0  0  0  0  0
  184.0890  178.5800  142.9440 C   0  0  0  0  0  1  0  0  0  0  0  0
  183.3660  179.3620  143.8450 O   0  0  0  0  0  0  0  0  0  0  0  0
  189.4550  177.7660  142.7490 O   0  0  0  0  0  0  0  0  0  0  0  0
  190.2110  177.4080  141.6300 C   0  0  0  0  0  2  0  0  0  0  0  0
  187.3930  178.3070  139.3660 C   0  0  0  0  0  3  0  0  0  0  0  0
  189.3580  177.4790  140.4070 C   0  0  0  0  0  0  0  0  0  0  0  0
  190.8080  175.9130  139.2760 O   0  0  0  0  0  1  0  0  0  0  0  0
  188.8200  176.7760  138.1390 C   0  0  0  0  0  0  0  0  0  0  0  0
  188.2310  178.2400  140.4310 N   0  0  0  0  0  0  0  0  0  0  0  0
  189.6710  176.7190  139.2680 C   0  0  0  0  0  0  0  0  0  0  0  0
  187.6710  177.5800  138.2090 C   0  0  0  0  0  3  0  0  0  0  0  0
  188.6550  174.6290  136.7830 C   0  0  0  0  0  1  0  0  0  0  0  0
  189.0760  176.0130  136.9380 N   0  0  0  0  0  0  0  0  0  0  0  0
  189.8570  176.5830  135.8510 C   0  0  0  0  0  1  0  0  0  0  0  0
  1  2  1  0  0  0  0
  2 10  1  0  0  0  0
  2  3  1  1  0  0  0
  4 11  2  0  0  0  0
  4 10  1  0  0  0  0
  5  9  1  0  0  0  0
  6 12  1  0  0  0  0
  6  9  2  0  0  0  0
  7  1  1  0  0  0  0
  8 17  1  6  0  0  0
  8  7  1  0  0  0  0
  8  4  1  0  0  0  0
 10  5  2  0  0  0  0
 11  6  1  0  0  0  0
 13 12  1  0  0  0  0
 14 13  1  0  0  0  0
 15 16  1  0  0  0  0
 16 14  1  0  0  0  0
 18 17  1  0  0  0  0
 19 23  1  0  0  0  0
 20 23  2  0  0  0  0
 20 18  1  0  0  0  0
 22 25  1  0  0  0  0
 22 24  2  0  0  0  0
 24 21  1  0  0  0  0
 24 20  1  0  0  0  0
 25 19  2  0  0  0  0
 26 27  1  0  0  0  0
 27 22  1  0  0  0  0
 28 27  1  0  0  0  0
M  END
>  <MODEL>
2

>  <REMARK>
 VINA RESULT:      -8.1      1.337      1.911
  Name = 
  8 active torsions:
  status: ('A' for Active; 'I' for Inactive)
    1  A    between atoms: C_3  and  C_18
    2  A    between atoms: C_7  and  N_8
    3  A    between atoms: O_12  and  C_26
    4  A    between atoms: C_13  and  C_15
    5  A    between atoms: C_13  and  C_16
    6  A    between atoms: C_15  and  C_26
    7  A    between atoms: C_18  and  O_25
    8  A    between atoms: C_23  and  O_25
                            x       y       z     vdW  Elec       q    Type
                         _______ _______ _______ _____ _____    ______ ____

>  <TORSDO>
F 8

$$$$
=
 OpenBabel11062413343D

 28 30  0  0  1  0  0  0  0  0999 V2000
  189.3750  177.6890  147.7500 N   0  0  0  0  0  2  0  0  0  0  0  0
  190.2620  176.7740  147.0320 C   0  0  2  0  0  3  0  0  0  0  0  0
  191.6270  176.9770  147.4880 N   0  0  0  0  0  1  0  0  0  0  0  0
  188.9770  177.4910  144.9780 C   0  0  0  0  0  0  0  0  0  0  0  0
  191.1860  176.5930  144.7250 N   0  0  0  0  0  0  0  0  0  0  0  0
  189.9640  177.2470  142.7790 C   0  0  0  0  0  0  0  0  0  0  0  0
  188.0080  177.4540  147.2920 C   0  0  0  0  0  2  0  0  0  0  0  0
  187.8450  177.9630  145.8580 C   0  0  2  0  0  3  0  0  0  0  0  0
  191.1130  176.7190  143.3720 C   0  0  0  0  0  3  0  0  0  0  0  0
  190.1660  176.9830  145.5400 C   0  0  0  0  0  0  0  0  0  0  0  0
  188.8970  177.6390  143.5890 C   0  0  0  0  0  3  0  0  0  0  0  0
  189.8900  177.4190  141.2990 C   0  0  0  0  0  2  0  0  0  0  0  0
  188.6010  178.1200  140.8950 C   0  0  0  0  0  2  0  0  0  0  0  0
  188.3650  177.9870  139.4010 C   0  0  0  0  0  2  0  0  0  0  0  0
  189.2210  178.6360  137.4740 C   0  0  0  0  0  1  0  0  0  0  0  0
  188.8870  179.1030  138.7450 O   0  0  0  0  0  0  0  0  0  0  0  0
  186.6180  177.5270  145.3500 O   0  0  0  0  0  0  0  0  0  0  0  0
  185.8220  178.6740  145.2920 C   0  0  0  0  0  2  0  0  0  0  0  0
  184.5940  178.2470  141.8000 C   0  0  0  0  0  3  0  0  0  0  0  0
  184.8870  178.5750  144.1330 C   0  0  0  0  0  0  0  0  0  0  0  0
  183.0220  179.1460  145.5590 O   0  0  0  0  0  1  0  0  0  0  0  0
  182.6590  178.7680  143.1680 C   0  0  0  0  0  0  0  0  0  0  0  0
  185.3900  178.3030  142.8990 N   0  0  0  0  0  0  0  0  0  0  0  0
  183.5150  178.8280  144.2950 C   0  0  0  0  0  0  0  0  0  0  0  0
  183.2240  178.4780  141.9160 C   0  0  0  0  0  3  0  0  0  0  0  0
  180.3630  178.2760  144.1460 C   0  0  0  0  0  1  0  0  0  0  0  0
  181.2400  179.0270  143.2610 N   0  0  0  0  0  0  0  0  0  0  0  0
  180.6070  180.0070  142.3910 C   0  0  0  0  0  1  0  0  0  0  0  0
  2  3  1  1  0  0  0
  2  1  1  0  0  0  0
  4 10  1  0  0  0  0
  4  8  1  0  0  0  0
  5 10  2  0  0  0  0
  6  9  2  0  0  0  0
  6 11  1  0  0  0  0
  7  1  1  0  0  0  0
  8 17  1  6  0  0  0
  8  7  1  0  0  0  0
  9  5  1  0  0  0  0
 10  2  1  0  0  0  0
 11  4  2  0  0  0  0
 12  6  1  0  0  0  0
 13 12  1  0  0  0  0
 14 13  1  0  0  0  0
 15 16  1  0  0  0  0
 16 14  1  0  0  0  0
 18 17  1  0  0  0  0
 19 25  2  0  0  0  0
 19 23  1  0  0  0  0
 20 24  1  0  0  0  0
 20 18  1  0  0  0  0
 22 27  1  0  0  0  0
 22 24  2  0  0  0  0
 23 20  2  0  0  0  0
 24 21  1  0  0  0  0
 25 22  1  0  0  0  0
 27 26  1  0  0  0  0
 28 27  1  0  0  0  0
M  END
>  <MODEL>
3

>  <REMARK>
 VINA RESULT:      -7.8      2.583      5.981
  Name = 
  8 active torsions:
  status: ('A' for Active; 'I' for Inactive)
    1  A    between atoms: C_3  and  C_18
    2  A    between atoms: C_7  and  N_8
    3  A    between atoms: O_12  and  C_26
    4  A    between atoms: C_13  and  C_15
    5  A    between atoms: C_13  and  C_16
    6  A    between atoms: C_15  and  C_26
    7  A    between atoms: C_18  and  O_25
    8  A    between atoms: C_23  and  O_25
                            x       y       z     vdW  Elec       q    Type
                         _______ _______ _______ _____ _____    ______ ____

>  <TORSDO>
F 8

$$$$
=
 OpenBabel11062413343D

 28 30  0  0  1  0  0  0  0  0999 V2000
  189.4120  176.6970  145.1960 N   0  0  0  0  0  2  0  0  0  0  0  0
  188.8320  177.6080  146.1810 C   0  0  2  0  0  3  0  0  0  0  0  0
  188.9330  177.0100  147.5020 N   0  0  0  0  0  1  0  0  0  0  0  0
  186.9500  177.8610  144.5140 C   0  0  0  0  0  0  0  0  0  0  0  0
  186.5420  178.3520  146.8260 N   0  0  0  0  0  0  0  0  0  0  0  0
  184.7680  178.6150  145.2480 C   0  0  0  0  0  0  0  0  0  0  0  0
  189.3170  177.3250  143.8810 C   0  0  0  0  0  2  0  0  0  0  0  0
  187.8580  177.3540  143.4200 C   0  0  2  0  0  3  0  0  0  0  0  0
  185.2520  178.6910  146.5560 C   0  0  0  0  0  3  0  0  0  0  0  0
  187.3920  177.9200  145.8520 C   0  0  0  0  0  0  0  0  0  0  0  0
  185.6210  178.1930  144.2270 C   0  0  0  0  0  3  0  0  0  0  0  0
  183.3460  178.9530  144.9500 C   0  0  0  0  0  2  0  0  0  0  0  0
  183.0780  178.9150  143.4520 C   0  0  0  0  0  2  0  0  0  0  0  0
  181.5960  179.0920  143.1680 C   0  0  0  0  0  2  0  0  0  0  0  0
  179.5600  178.9510  144.0040 C   0  0  0  0  0  1  0  0  0  0  0  0
  180.8520  178.4480  144.1580 O   0  0  0  0  0  0  0  0  0  0  0  0
  187.7480  178.1590  142.2820 O   0  0  0  0  0  0  0  0  0  0  0  0
  188.9530  177.9820  141.5980 C   0  0  0  0  0  2  0  0  0  0  0  0
  187.2610  178.1140  138.2810 C   0  0  0  0  0  3  0  0  0  0  0  0
  188.6750  177.7420  140.1510 C   0  0  0  0  0  0  0  0  0  0  0  0
  190.5620  176.2400  140.0130 O   0  0  0  0  0  1  0  0  0  0  0  0
  189.1640  176.6270  138.0420 C   0  0  0  0  0  0  0  0  0  0  0  0
  187.5900  178.3320  139.5800 N   0  0  0  0  0  0  0  0  0  0  0  0
  189.4780  176.8670  139.4010 C   0  0  0  0  0  0  0  0  0  0  0  0
  188.0370  177.2630  137.4950 C   0  0  0  0  0  3  0  0  0  0  0  0
  189.6580  174.3080  137.1210 C   0  0  0  0  0  1  0  0  0  0  0  0
  189.9400  175.7320  137.2150 N   0  0  0  0  0  0  0  0  0  0  0  0
  191.1110  176.2140  136.4980 C   0  0  0  0  0  1  0  0  0  0  0  0
  1  2  1  0  0  0  0
  2  3  1  1  0  0  0
  4 10  1  0  0  0  0
  6  9  2  0  0  0  0
  7  1  1  0  0  0  0
  8 17  1  6  0  0  0
  8  7  1  0  0  0  0
  8  4  1  0  0  0  0
  9  5  1  0  0  0  0
 10  2  1  0  0  0  0
 10  5  2  0  0  0  0
 11  4  2  0  0  0  0
 11  6  1  0  0  0  0
 12  6  1  0  0  0  0
 13 12  1  0  0  0  0
 14 13  1  0  0  0  0
 14 16  1  0  0  0  0
 15 16  1  0  0  0  0
 18 17  1  0  0  0  0
 19 23  1  0  0  0  0
 20 18  1  0  0  0  0
 22 24  2  0  0  0  0
 23 20  2  0  0  0  0
 24 21  1  0  0  0  0
 24 20  1  0  0  0  0
 25 22  1  0  0  0  0
 25 19  2  0  0  0  0
 26 27  1  0  0  0  0
 27 22  1  0  0  0  0
 28 27  1  0  0  0  0
M  END
>  <MODEL>
4

>  <REMARK>
 VINA RESULT:      -7.8      1.934      3.051
  Name = 
  8 active torsions:
  status: ('A' for Active; 'I' for Inactive)
    1  A    between atoms: C_3  and  C_18
    2  A    between atoms: C_7  and  N_8
    3  A    between atoms: O_12  and  C_26
    4  A    between atoms: C_13  and  C_15
    5  A    between atoms: C_13  and  C_16
    6  A    between atoms: C_15  and  C_26
    7  A    between atoms: C_18  and  O_25
    8  A    between atoms: C_23  and  O_25
                            x       y       z     vdW  Elec       q    Type
                         _______ _______ _______ _____ _____    ______ ____

>  <TORSDO>
F 8

$$$$
=
 OpenBabel11062413343D

 28 30  0  0  1  0  0  0  0  0999 V2000
  189.5740  176.7590  145.7470 N   0  0  0  0  0  2  0  0  0  0  0  0
  188.9690  177.7870  146.5920 C   0  0  2  0  0  3  0  0  0  0  0  0
  189.0500  177.3720  147.9820 N   0  0  0  0  0  1  0  0  0  0  0  0
  187.1180  177.7990  144.8720 C   0  0  0  0  0  0  0  0  0  0  0  0
  186.6630  178.5900  147.0900 N   0  0  0  0  0  0  0  0  0  0  0  0
  184.9170  178.6250  145.4610 C   0  0  0  0  0  0  0  0  0  0  0  0
  189.5000  177.2050  144.3580 C   0  0  0  0  0  2  0  0  0  0  0  0
  188.0490  177.1590  143.8720 C   0  0  2  0  0  3  0  0  0  0  0  0
  185.3770  178.8780  146.7550 C   0  0  0  0  0  3  0  0  0  0  0  0
  187.5340  178.0390  146.1980 C   0  0  0  0  0  0  0  0  0  0  0  0
  185.7920  178.0780  144.5210 C   0  0  0  0  0  3  0  0  0  0  0  0
  183.4980  178.9070  145.0950 C   0  0  0  0  0  2  0  0  0  0  0  0
  183.3010  178.8480  143.5870 C   0  0  0  0  0  2  0  0  0  0  0  0
  181.8490  179.1080  143.2260 C   0  0  0  0  0  2  0  0  0  0  0  0
  182.8450  178.6290  141.3160 C   0  0  0  0  0  1  0  0  0  0  0  0
  181.5960  178.6310  141.9400 O   0  0  0  0  0  0  0  0  0  0  0  0
  187.9550  177.8040  142.6360 O   0  0  0  0  0  0  0  0  0  0  0  0
  189.2770  177.9850  142.2210 C   0  0  0  0  0  2  0  0  0  0  0  0
  190.7490  176.3790  139.2000 C   0  0  0  0  0  3  0  0  0  0  0  0
  189.4290  177.5130  140.8140 C   0  0  0  0  0  0  0  0  0  0  0  0
  187.3780  178.6280  140.1920 O   0  0  0  0  0  1  0  0  0  0  0  0
  188.6780  177.4300  138.4990 C   0  0  0  0  0  0  0  0  0  0  0  0
  190.5340  176.7960  140.4730 N   0  0  0  0  0  0  0  0  0  0  0  0
  188.4840  177.8590  139.8340 C   0  0  0  0  0  0  0  0  0  0  0  0
  189.8310  176.6880  138.1970 C   0  0  0  0  0  3  0  0  0  0  0  0
  187.8530  178.9820  136.6600 C   0  0  0  0  0  1  0  0  0  0  0  0
  187.7510  177.7580  137.4390 N   0  0  0  0  0  0  0  0  0  0  0  0
  186.6080  176.9020  137.1640 C   0  0  0  0  0  1  0  0  0  0  0  0
  1  2  1  0  0  0  0
  2  3  1  1  0  0  0
  4 10  1  0  0  0  0
  6  9  2  0  0  0  0
  7  1  1  0  0  0  0
  8 17  1  6  0  0  0
  8  7  1  0  0  0  0
  8  4  1  0  0  0  0
  9  5  1  0  0  0  0
 10  2  1  0  0  0  0
 10  5  2  0  0  0  0
 11  4  2  0  0  0  0
 11  6  1  0  0  0  0
 12  6  1  0  0  0  0
 13 12  1  0  0  0  0
 14 13  1  0  0  0  0
 15 16  1  0  0  0  0
 16 14  1  0  0  0  0
 18 17  1  0  0  0  0
 19 23  1  0  0  0  0
 20 18  1  0  0  0  0
 22 24  2  0  0  0  0
 23 20  2  0  0  0  0
 24 21  1  0  0  0  0
 24 20  1  0  0  0  0
 25 22  1  0  0  0  0
 25 19  2  0  0  0  0
 26 27  1  0  0  0  0
 27 22  1  0  0  0  0
 28 27  1  0  0  0  0
M  END
>  <MODEL>
5

>  <REMARK>
 VINA RESULT:      -7.6      1.414      2.077
  Name = 
  8 active torsions:
  status: ('A' for Active; 'I' for Inactive)
    1  A    between atoms: C_3  and  C_18
    2  A    between atoms: C_7  and  N_8
    3  A    between atoms: O_12  and  C_26
    4  A    between atoms: C_13  and  C_15
    5  A    between atoms: C_13  and  C_16
    6  A    between atoms: C_15  and  C_26
    7  A    between atoms: C_18  and  O_25
    8  A    between atoms: C_23  and  O_25
                            x       y       z     vdW  Elec       q    Type
                         _______ _______ _______ _____ _____    ______ ____

>  <TORSDO>
F 8

$$$$
=
 OpenBabel11062413343D

 28 30  0  0  1  0  0  0  0  0999 V2000
  184.7870  179.0800  143.3000 N   0  0  0  0  0  2  0  0  0  0  0  0
  184.6830  178.3130  144.5400 C   0  0  2  0  0  3  0  0  0  0  0  0
  183.8400  179.0340  145.4790 N   0  0  0  0  0  1  0  0  0  0  0  0
  187.1810  178.0110  144.3020 C   0  0  0  0  0  0  0  0  0  0  0  0
  186.1730  177.7840  146.4670 N   0  0  0  0  0  0  0  0  0  0  0  0
  188.5310  177.4740  146.2420 C   0  0  0  0  0  0  0  0  0  0  0  0
  185.6200  178.3290  142.3650 C   0  0  0  0  0  2  0  0  0  0  0  0
  187.0760  178.3460  142.8340 C   0  0  2  0  0  3  0  0  0  0  0  0
  187.3780  177.5020  147.0310 C   0  0  0  0  0  3  0  0  0  0  0  0
  186.0460  178.0600  145.1380 C   0  0  0  0  0  0  0  0  0  0  0  0
  188.4280  177.7360  144.8740 C   0  0  0  0  0  3  0  0  0  0  0  0
  189.8610  177.1990  146.8590 C   0  0  0  0  0  2  0  0  0  0  0  0
  190.9100  176.9210  145.7920 C   0  0  0  0  0  2  0  0  0  0  0  0
  191.9980  176.0110  146.3350 C   0  0  0  0  0  2  0  0  0  0  0  0
  192.8200  175.7230  148.3620 C   0  0  0  0  0  1  0  0  0  0  0  0
  191.6500  175.5800  147.6150 O   0  0  0  0  0  0  0  0  0  0  0  0
  187.8190  177.4380  142.0730 O   0  0  0  0  0  0  0  0  0  0  0  0
  188.6170  178.2300  141.2440 C   0  0  0  0  0  2  0  0  0  0  0  0
  190.2250  176.2140  138.5560 C   0  0  0  0  0  3  0  0  0  0  0  0
  188.8210  177.5390  139.9380 C   0  0  0  0  0  0  0  0  0  0  0  0
  186.7410  178.4430  139.1060 O   0  0  0  0  0  1  0  0  0  0  0  0
  188.1280  177.0410  137.6570 C   0  0  0  0  0  0  0  0  0  0  0  0
  189.9620  176.8260  139.7390 N   0  0  0  0  0  0  0  0  0  0  0  0
  187.8850  177.6750  138.8990 C   0  0  0  0  0  0  0  0  0  0  0  0
  189.3180  176.3110  137.5010 C   0  0  0  0  0  3  0  0  0  0  0  0
  187.2730  178.2370  135.5810 C   0  0  0  0  0  1  0  0  0  0  0  0
  187.2130  177.1470  136.5420 N   0  0  0  0  0  0  0  0  0  0  0  0
  186.1230  176.1970  136.3870 C   0  0  0  0  0  1  0  0  0  0  0  0
  1  2  1  0  0  0  0
  2 10  1  0  0  0  0
  2  3  1  1  0  0  0
  4 11  2  0  0  0  0
  4 10  1  0  0  0  0
  5  9  1  0  0  0  0
  6 12  1  0  0  0  0
  6  9  2  0  0  0  0
  7  8  1  0  0  0  0
  7  1  1  0  0  0  0
  8 17  1  6  0  0  0
  8  4  1  0  0  0  0
 10  5  2  0  0  0  0
 11  6  1  0  0  0  0
 13 14  1  0  0  0  0
 13 12  1  0  0  0  0
 14 16  1  0  0  0  0
 16 15  1  0  0  0  0
 18 17  1  0  0  0  0
 19 23  1  0  0  0  0
 20 18  1  0  0  0  0
 22 24  2  0  0  0  0
 23 20  2  0  0  0  0
 24 21  1  0  0  0  0
 24 20  1  0  0  0  0
 25 22  1  0  0  0  0
 25 19  2  0  0  0  0
 26 27  1  0  0  0  0
 27 22  1  0  0  0  0
 28 27  1  0  0  0  0
M  END
>  <MODEL>
6

>  <REMARK>
 VINA RESULT:      -7.6      2.397      4.554
  Name = 
  8 active torsions:
  status: ('A' for Active; 'I' for Inactive)
    1  A    between atoms: C_3  and  C_18
    2  A    between atoms: C_7  and  N_8
    3  A    between atoms: O_12  and  C_26
    4  A    between atoms: C_13  and  C_15
    5  A    between atoms: C_13  and  C_16
    6  A    between atoms: C_15  and  C_26
    7  A    between atoms: C_18  and  O_25
    8  A    between atoms: C_23  and  O_25
                            x       y       z     vdW  Elec       q    Type
                         _______ _______ _______ _____ _____    ______ ____

>  <TORSDO>
F 8

$$$$
=
 OpenBabel11062413343D

 28 30  0  0  1  0  0  0  0  0999 V2000
  186.8320  178.9050  147.8070 N   0  0  0  0  0  2  0  0  0  0  0  0
  187.8360  177.8440  147.7440 C   0  0  2  0  0  3  0  0  0  0  0  0
  188.9650  178.2040  148.5870 N   0  0  0  0  0  1  0  0  0  0  0  0
  187.4220  177.9020  145.2530 C   0  0  0  0  0  0  0  0  0  0  0  0
  189.4960  177.0240  146.0760 N   0  0  0  0  0  0  0  0  0  0  0  0
  189.0980  177.0540  143.7210 C   0  0  0  0  0  0  0  0  0  0  0  0
  185.7000  178.5140  146.9710 C   0  0  0  0  0  2  0  0  0  0  0  0
  186.0960  178.5800  145.4940 C   0  0  2  0  0  3  0  0  0  0  0  0
  189.9160  176.7500  144.8120 C   0  0  0  0  0  3  0  0  0  0  0  0
  188.2910  177.6090  146.3240 C   0  0  0  0  0  0  0  0  0  0  0  0
  187.8500  177.6380  143.9470 C   0  0  0  0  0  3  0  0  0  0  0  0
  189.5650  176.7880  142.3300 C   0  0  0  0  0  2  0  0  0  0  0  0
  188.6010  177.3720  141.3090 C   0  0  0  0  0  2  0  0  0  0  0  0
  189.3590  177.9700  140.1360 C   0  0  0  0  0  2  0  0  0  0  0  0
  189.0050  178.7010  138.0850 C   0  0  0  0  0  1  0  0  0  0  0  0
  188.4970  178.7690  139.3830 O   0  0  0  0  0  0  0  0  0  0  0  0
  185.0950  177.9840  144.7200 O   0  0  0  0  0  0  0  0  0  0  0  0
  184.3070  179.0460  144.2700 C   0  0  0  0  0  2  0  0  0  0  0  0
  185.0200  178.8940  140.6160 C   0  0  0  0  0  3  0  0  0  0  0  0
  184.0880  178.9170  142.7990 C   0  0  0  0  0  0  0  0  0  0  0  0
  181.6980  178.8230  143.1390 O   0  0  0  0  0  1  0  0  0  0  0  0
  182.6120  178.7450  140.8700 C   0  0  0  0  0  0  0  0  0  0  0  0
  185.1610  178.9600  141.9650 N   0  0  0  0  0  0  0  0  0  0  0  0
  182.7890  178.8240  142.2720 C   0  0  0  0  0  0  0  0  0  0  0  0
  183.7510  178.7870  140.0500 C   0  0  0  0  0  3  0  0  0  0  0  0
  180.4760  179.8260  140.0070 C   0  0  0  0  0  1  0  0  0  0  0  0
  181.3040  178.6570  140.2600 N   0  0  0  0  0  0  0  0  0  0  0  0
  180.7180  177.3620  139.9480 C   0  0  0  0  0  1  0  0  0  0  0  0
  2  1  1  0  0  0  0
  2  3  1  1  0  0  0
  4  8  1  0  0  0  0
  4 10  1  0  0  0  0
  5 10  2  0  0  0  0
  6 11  1  0  0  0  0
  6  9  2  0  0  0  0
  7  1  1  0  0  0  0
  8 17  1  6  0  0  0
  8  7  1  0  0  0  0
  9  5  1  0  0  0  0
 10  2  1  0  0  0  0
 11  4  2  0  0  0  0
 12  6  1  0  0  0  0
 13 12  1  0  0  0  0
 14 13  1  0  0  0  0
 15 16  1  0  0  0  0
 16 14  1  0  0  0  0
 18 17  1  0  0  0  0
 19 23  1  0  0  0  0
 20 18  1  0  0  0  0
 22 24  2  0  0  0  0
 23 20  2  0  0  0  0
 24 20  1  0  0  0  0
 24 21  1  0  0  0  0
 25 19  2  0  0  0  0
 25 22  1  0  0  0  0
 26 27  1  0  0  0  0
 27 22  1  0  0  0  0
 28 27  1  0  0  0  0
M  END
>  <MODEL>
7

>  <REMARK>
 VINA RESULT:      -7.3      2.679      5.609
  Name = 
  8 active torsions:
  status: ('A' for Active; 'I' for Inactive)
    1  A    between atoms: C_3  and  C_18
    2  A    between atoms: C_7  and  N_8
    3  A    between atoms: O_12  and  C_26
    4  A    between atoms: C_13  and  C_15
    5  A    between atoms: C_13  and  C_16
    6  A    between atoms: C_15  and  C_26
    7  A    between atoms: C_18  and  O_25
    8  A    between atoms: C_23  and  O_25
                            x       y       z     vdW  Elec       q    Type
                         _______ _______ _______ _____ _____    ______ ____

>  <TORSDO>
F 8

$$$$
=
 OpenBabel11062413343D

 28 30  0  0  1  0  0  0  0  0999 V2000
  183.9230  179.3930  145.0850 N   0  0  0  0  0  2  0  0  0  0  0  0
  184.7890  178.4180  145.7450 C   0  0  2  0  0  3  0  0  0  0  0  0
  185.2080  178.9460  147.0330 N   0  0  0  0  0  1  0  0  0  0  0  0
  185.9080  178.2130  143.4890 C   0  0  0  0  0  0  0  0  0  0  0  0
  187.1220  177.5880  145.4610 N   0  0  0  0  0  0  0  0  0  0  0  0
  188.1740  177.3710  143.3270 C   0  0  0  0  0  0  0  0  0  0  0  0
  183.4980  178.8350  143.8040 C   0  0  0  0  0  2  0  0  0  0  0  0
  184.6810  178.7990  142.8330 C   0  0  2  0  0  3  0  0  0  0  0  0
  188.2050  177.2360  144.7170 C   0  0  0  0  0  3  0  0  0  0  0  0
  185.9900  178.0920  144.8910 C   0  0  0  0  0  0  0  0  0  0  0  0
  187.0210  177.8670  142.7150 C   0  0  0  0  0  3  0  0  0  0  0  0
  189.3700  177.0170  142.5080 C   0  0  0  0  0  2  0  0  0  0  0  0
  190.1730  175.9050  143.1670 C   0  0  0  0  0  2  0  0  0  0  0  0
  191.5450  176.4080  143.5800 C   0  0  0  0  0  2  0  0  0  0  0  0
  191.6800  176.6920  145.7640 C   0  0  0  0  0  1  0  0  0  0  0  0
  191.9430  175.7660  144.7540 O   0  0  0  0  0  0  0  0  0  0  0  0
  184.3290  178.0540  141.7030 O   0  0  0  0  0  0  0  0  0  0  0  0
  184.0930  179.0030  140.7050 C   0  0  0  0  0  2  0  0  0  0  0  0
  183.0580  177.2280  137.5980 C   0  0  0  0  0  3  0  0  0  0  0  0
  184.1760  178.3500  139.3660 C   0  0  0  0  0  0  0  0  0  0  0  0
  186.5750  178.6280  139.3510 O   0  0  0  0  0  1  0  0  0  0  0  0
  185.4650  177.5070  137.4800 C   0  0  0  0  0  0  0  0  0  0  0  0
  183.0390  177.8720  138.7930 N   0  0  0  0  0  0  0  0  0  0  0  0
  185.4150  178.1670  138.7310 C   0  0  0  0  0  0  0  0  0  0  0  0
  184.2640  177.0350  136.9260 C   0  0  0  0  0  3  0  0  0  0  0  0
  187.5830  176.1550  137.0800 C   0  0  0  0  0  1  0  0  0  0  0  0
  186.7070  177.2760  136.7770 N   0  0  0  0  0  0  0  0  0  0  0  0
  187.1800  178.2230  135.7780 C   0  0  0  0  0  1  0  0  0  0  0  0
  1  2  1  0  0  0  0
  2  3  1  1  0  0  0
  4 10  1  0  0  0  0
  6  9  2  0  0  0  0
  7  1  1  0  0  0  0
  8 17  1  6  0  0  0
  8  4  1  0  0  0  0
  8  7  1  0  0  0  0
  9  5  1  0  0  0  0
 10  5  2  0  0  0  0
 10  2  1  0  0  0  0
 11  6  1  0  0  0  0
 11  4  2  0  0  0  0
 12 13  1  0  0  0  0
 12  6  1  0  0  0  0
 13 14  1  0  0  0  0
 14 16  1  0  0  0  0
 16 15  1  0  0  0  0
 18 17  1  0  0  0  0
 19 23  1  0  0  0  0
 20 18  1  0  0  0  0
 22 24  2  0  0  0  0
 23 20  2  0  0  0  0
 24 21  1  0  0  0  0
 24 20  1  0  0  0  0
 25 22  1  0  0  0  0
 25 19  2  0  0  0  0
 27 26  1  0  0  0  0
 27 22  1  0  0  0  0
 28 27  1  0  0  0  0
M  END
>  <MODEL>
8

>  <REMARK>
 VINA RESULT:      -7.2      2.399      5.505
  Name = 
  8 active torsions:
  status: ('A' for Active; 'I' for Inactive)
    1  A    between atoms: C_3  and  C_18
    2  A    between atoms: C_7  and  N_8
    3  A    between atoms: O_12  and  C_26
    4  A    between atoms: C_13  and  C_15
    5  A    between atoms: C_13  and  C_16
    6  A    between atoms: C_15  and  C_26
    7  A    between atoms: C_18  and  O_25
    8  A    between atoms: C_23  and  O_25
                            x       y       z     vdW  Elec       q    Type
                         _______ _______ _______ _____ _____    ______ ____

>  <TORSDO>
F 8

$$$$
=
 OpenBabel11062413343D

 28 30  0  0  1  0  0  0  0  0999 V2000
  186.8050  178.6350  147.4190 N   0  0  0  0  0  2  0  0  0  0  0  0
  187.8590  177.6700  147.7230 C   0  0  2  0  0  3  0  0  0  0  0  0
  188.6360  178.1510  148.8540 N   0  0  0  0  0  1  0  0  0  0  0  0
  188.2410  177.6320  145.2260 C   0  0  0  0  0  0  0  0  0  0  0  0
  190.0170  176.9660  146.6940 N   0  0  0  0  0  0  0  0  0  0  0  0
  190.3740  176.9060  144.3330 C   0  0  0  0  0  0  0  0  0  0  0  0
  186.0260  178.1230  146.2950 C   0  0  0  0  0  2  0  0  0  0  0  0
  186.8560  178.1910  145.0110 C   0  0  2  0  0  3  0  0  0  0  0  0
  190.8320  176.7030  145.6370 C   0  0  0  0  0  3  0  0  0  0  0  0
  188.7520  177.4440  146.5270 C   0  0  0  0  0  0  0  0  0  0  0  0
  189.0750  177.3780  144.1310 C   0  0  0  0  0  3  0  0  0  0  0  0
  191.2720  176.6520  143.1690 C   0  0  0  0  0  2  0  0  0  0  0  0
  191.3440  177.8690  142.2580 C   0  0  0  0  0  2  0  0  0  0  0  0
  191.2760  177.4510  140.8000 C   0  0  0  0  0  2  0  0  0  0  0  0
  189.1160  177.5010  140.3500 C   0  0  0  0  0  1  0  0  0  0  0  0
  190.1700  176.6220  140.6030 O   0  0  0  0  0  0  0  0  0  0  0  0
  186.1980  177.4890  143.9970 O   0  0  0  0  0  0  0  0  0  0  0  0
  185.9330  178.4420  143.0110 C   0  0  0  0  0  2  0  0  0  0  0  0
  182.3770  179.0020  143.9680 C   0  0  0  0  0  3  0  0  0  0  0  0
  184.4590  178.6380  142.8880 C   0  0  0  0  0  0  0  0  0  0  0  0
  184.5820  178.2540  140.5060 O   0  0  0  0  0  1  0  0  0  0  0  0
  182.4150  178.6730  141.5640 C   0  0  0  0  0  0  0  0  0  0  0  0
  183.7260  178.8620  144.0120 N   0  0  0  0  0  0  0  0  0  0  0  0
  183.8210  178.5240  141.6420 C   0  0  0  0  0  0  0  0  0  0  0  0
  181.7020  178.9100  142.7510 C   0  0  0  0  0  3  0  0  0  0  0  0
  181.2920  177.2770  139.7580 C   0  0  0  0  0  1  0  0  0  0  0  0
  181.6930  178.5590  140.3170 N   0  0  0  0  0  0  0  0  0  0  0  0
  181.4100  179.7390  139.5140 C   0  0  0  0  0  1  0  0  0  0  0  0
  1  2  1  0  0  0  0
  2  3  1  1  0  0  0
  4 10  1  0  0  0  0
  6  9  2  0  0  0  0
  7  1  1  0  0  0  0
  8 17  1  6  0  0  0
  8  4  1  0  0  0  0
  8  7  1  0  0  0  0
  9  5  1  0  0  0  0
 10  5  2  0  0  0  0
 10  2  1  0  0  0  0
 11  6  1  0  0  0  0
 11  4  2  0  0  0  0
 12  6  1  0  0  0  0
 13 12  1  0  0  0  0
 14 13  1  0  0  0  0
 15 16  1  0  0  0  0
 16 14  1  0  0  0  0
 18 17  1  0  0  0  0
 19 23  1  0  0  0  0
 20 18  1  0  0  0  0
 20 23  2  0  0  0  0
 21 24  1  0  0  0  0
 22 24  2  0  0  0  0
 22 25  1  0  0  0  0
 24 20  1  0  0  0  0
 25 19  2  0  0  0  0
 26 27  1  0  0  0  0
 27 22  1  0  0  0  0
 28 27  1  0  0  0  0
M  END
>  <MODEL>
9

>  <REMARK>
 VINA RESULT:      -7.2      2.729      5.834
  Name = 
  8 active torsions:
  status: ('A' for Active; 'I' for Inactive)
    1  A    between atoms: C_3  and  C_18
    2  A    between atoms: C_7  and  N_8
    3  A    between atoms: O_12  and  C_26
    4  A    between atoms: C_13  and  C_15
    5  A    between atoms: C_13  and  C_16
    6  A    between atoms: C_15  and  C_26
    7  A    between atoms: C_18  and  O_25
    8  A    between atoms: C_23  and  O_25
                            x       y       z     vdW  Elec       q    Type
                         _______ _______ _______ _____ _____    ______ ____

>  <TORSDO>
F 8

$$$$
