=
 OpenBabel11062418113D

 25 27  0  0  1  0  0  0  0  0999 V2000
  188.6410  176.7460  141.9740 C   0  0  0  0  0  2  0  0  0  0  0  0
  188.4060  178.3320  143.7480 C   0  0  2  0  0  3  0  0  0  0  0  0
  189.7670  177.6600  141.8540 N   0  0  0  0  0  0  0  0  0  0  0  0
  187.6060  177.4110  142.8500 C   0  0  1  0  0  3  0  0  0  0  0  0
  189.7530  178.4900  143.0530 C   0  0  0  0  0  2  0  0  0  0  0  0
  190.9730  176.8540  141.9100 C   0  0  0  0  0  1  0  0  0  0  0  0
  187.5800  177.4530  147.2620 C   0  0  0  0  0  2  0  0  0  0  0  0
  190.0050  177.3480  148.0970 C   0  0  0  0  0  2  0  0  0  0  0  0
  188.5990  177.9340  148.2860 C   0  0  0  0  0  2  0  0  0  0  0  0
  187.6530  178.3000  146.0800 N   0  0  0  0  0  2  0  0  0  0  0  0
  190.0300  177.9320  145.6180 C   0  0  0  0  0  2  0  0  0  0  0  0
  190.3710  176.8970  146.6790 C   0  0  0  0  0  2  0  0  0  0  0  0
  188.5970  177.7110  145.1340 C   0  0  2  0  0  3  0  0  0  0  0  0
  186.7070  178.1970  142.0120 N   0  0  0  0  0  2  0  0  0  0  0  0
  182.6270  178.6040  143.1740 C   0  0  2  0  0  3  0  0  0  0  0  0
  183.4620  179.1070  145.3730 O   0  0  0  0  0  1  0  0  0  0  0  0
  185.3730  178.5550  142.3870 C   0  0  0  0  0  0  0  0  0  0  0  0
  183.6810  179.3380  144.0140 C   0  0  1  0  0  3  0  0  0  0  0  0
  185.0710  178.8950  143.6480 C   0  0  0  0  0  3  0  0  0  0  0  0
  184.3100  178.5200  141.3640 C   0  0  0  0  0  3  0  0  0  0  0  0
  183.0220  178.5830  141.7180 C   0  0  0  0  0  3  0  0  0  0  0  0
  181.2640  179.2600  143.3430 C   0  0  0  0  0  2  0  0  0  0  0  0
  179.7090  177.6540  142.2370 O   0  0  0  0  0  0  0  0  0  0  0  0
  179.6910  177.9070  144.5160 O   0  0  0  0  0  1  0  0  0  0  0  0
  180.1860  178.2320  143.4060 C   0  0  0  0  0  0  0  0  0  0  0  0
  1  4  1  0  0  0  0
  2  5  1  6  0  0  0
  2 13  1  0  0  0  0
  3  6  1  0  0  0  0
  3  1  1  0  0  0  0
  3  5  1  0  0  0  0
  4 14  1  6  0  0  0
  4  2  1  0  0  0  0
  7  9  1  0  0  0  0
  8  9  1  0  0  0  0
 10  7  1  0  0  0  0
 11 12  1  0  0  0  0
 12  8  1  0  0  0  0
 13 11  1  1  0  0  0
 13 10  1  0  0  0  0
 14 17  1  0  0  0  0
 15 22  1  6  0  0  0
 15 18  1  0  0  0  0
 17 19  2  0  0  0  0
 18 16  1  1  0  0  0
 19 18  1  0  0  0  0
 20 21  2  0  0  0  0
 20 17  1  0  0  0  0
 21 15  1  0  0  0  0
 22 25  1  0  0  0  0
 23 25  2  0  0  0  0
 25 24  1  0  0  0  0
M  END
>  <MODEL>
1

>  <REMARK>
 VINA RESULT:      -7.6      0.000      0.000
  Name = 
  5 active torsions:
  status: ('A' for Active; 'I' for Inactive)
    1  A    between atoms: C_4  and  C_16
    2  A    between atoms: C_6  and  N_19
    3  A    between atoms: C_11  and  C_22
    4  A    between atoms: C_13  and  N_19
    5  A    between atoms: C_16  and  C_25
                            x       y       z     vdW  Elec       q    Type
                         _______ _______ _______ _____ _____    ______ ____

>  <TORSDO>
F 5

$$$$
=
 OpenBabel11062418113D

 25 27  0  0  1  0  0  0  0  0999 V2000
  183.1160  177.9210  140.9680 C   0  0  0  0  0  2  0  0  0  0  0  0
  185.0780  179.0080  140.1430 C   0  0  2  0  0  3  0  0  0  0  0  0
  182.6520  179.0220  140.1370 N   0  0  0  0  0  0  0  0  0  0  0  0
  184.5640  178.1830  141.3050 C   0  0  1  0  0  3  0  0  0  0  0  0
  183.8290  179.5490  139.4590 C   0  0  0  0  0  2  0  0  0  0  0  0
  181.7950  178.4480  139.1160 C   0  0  0  0  0  1  0  0  0  0  0  0
  188.0800  177.5380  138.5190 C   0  0  0  0  0  2  0  0  0  0  0  0
  187.0020  177.1870  136.2160 C   0  0  0  0  0  2  0  0  0  0  0  0
  188.1660  177.7850  137.0180 C   0  0  0  0  0  2  0  0  0  0  0  0
  187.2690  178.5830  139.1290 N   0  0  0  0  0  2  0  0  0  0  0  0
  185.2640  178.2110  137.7720 C   0  0  0  0  0  2  0  0  0  0  0  0
  185.6840  176.9870  136.9710 C   0  0  0  0  0  2  0  0  0  0  0  0
  185.8790  178.1380  139.1700 C   0  0  2  0  0  3  0  0  0  0  0  0
  184.6330  178.9650  142.5340 N   0  0  0  0  0  2  0  0  0  0  0  0
  187.0670  178.1060  145.9260 C   0  0  2  0  0  3  0  0  0  0  0  0
  185.5160  179.4420  147.1870 O   0  0  0  0  0  1  0  0  0  0  0  0
  185.2940  178.5250  143.7250 C   0  0  0  0  0  0  0  0  0  0  0  0
  185.6010  178.4790  146.1800 C   0  0  1  0  0  3  0  0  0  0  0  0
  184.9490  179.0020  144.9300 C   0  0  0  0  0  3  0  0  0  0  0  0
  186.3920  177.5460  143.6130 C   0  0  0  0  0  3  0  0  0  0  0  0
  187.2040  177.3120  144.6490 C   0  0  0  0  0  3  0  0  0  0  0  0
  187.6250  177.3170  147.1010 C   0  0  0  0  0  2  0  0  0  0  0  0
  190.0580  177.4640  146.5730 O   0  0  0  0  0  0  0  0  0  0  0  0
  189.2290  178.3920  148.4980 O   0  0  0  0  0  1  0  0  0  0  0  0
  189.0080  177.7640  147.4300 C   0  0  0  0  0  0  0  0  0  0  0  0
  1  4  1  0  0  0  0
  2  5  1  6  0  0  0
  2  4  1  0  0  0  0
  3  1  1  0  0  0  0
  4 14  1  1  0  0  0
  5  3  1  0  0  0  0
  6  3  1  0  0  0  0
  7 10  1  0  0  0  0
  8 12  1  0  0  0  0
  8  9  1  0  0  0  0
  9  7  1  0  0  0  0
 10 13  1  0  0  0  0
 12 11  1  0  0  0  0
 13 11  1  6  0  0  0
 13  2  1  0  0  0  0
 14 17  1  0  0  0  0
 15 18  1  0  0  0  0
 15 22  1  1  0  0  0
 17 19  2  0  0  0  0
 18 16  1  1  0  0  0
 19 18  1  0  0  0  0
 20 17  1  0  0  0  0
 20 21  2  0  0  0  0
 21 15  1  0  0  0  0
 22 25  1  0  0  0  0
 23 25  2  0  0  0  0
 25 24  1  0  0  0  0
M  END
>  <MODEL>
2

>  <REMARK>
 VINA RESULT:      -7.5      3.377      7.461
  Name = 
  5 active torsions:
  status: ('A' for Active; 'I' for Inactive)
    1  A    between atoms: C_4  and  C_16
    2  A    between atoms: C_6  and  N_19
    3  A    between atoms: C_11  and  C_22
    4  A    between atoms: C_13  and  N_19
    5  A    between atoms: C_16  and  C_25
                            x       y       z     vdW  Elec       q    Type
                         _______ _______ _______ _____ _____    ______ ____

>  <TORSDO>
F 5

$$$$
=
 OpenBabel11062418113D

 25 27  0  0  1  0  0  0  0  0999 V2000
  191.1460  175.9000  143.9800 C   0  0  0  0  0  2  0  0  0  0  0  0
  189.6930  177.7800  143.7140 C   0  0  2  0  0  3  0  0  0  0  0  0
  191.6940  176.9590  144.8140 N   0  0  0  0  0  0  0  0  0  0  0  0
  190.1910  176.5400  143.0010 C   0  0  1  0  0  3  0  0  0  0  0  0
  190.7010  178.0260  144.8290 C   0  0  0  0  0  2  0  0  0  0  0  0
  191.7740  176.4340  146.1640 C   0  0  0  0  0  1  0  0  0  0  0  0
  185.9800  177.6740  143.8200 C   0  0  0  0  0  2  0  0  0  0  0  0
  185.7650  178.1120  146.3400 C   0  0  0  0  0  2  0  0  0  0  0  0
  185.3590  178.5260  144.9190 C   0  0  0  0  0  2  0  0  0  0  0  0
  187.2910  178.2100  143.4830 N   0  0  0  0  0  2  0  0  0  0  0  0
  188.2390  178.0750  145.7370 C   0  0  0  0  0  2  0  0  0  0  0  0
  187.1060  177.3860  146.4830 C   0  0  0  0  0  2  0  0  0  0  0  0
  188.3000  177.5470  144.3040 C   0  0  2  0  0  3  0  0  0  0  0  0
  190.9250  176.9230  141.8000 N   0  0  0  0  0  2  0  0  0  0  0  0
  189.3690  177.6880  137.9070 C   0  0  2  0  0  3  0  0  0  0  0  0
  191.4040  176.7170  137.0690 O   0  0  0  0  0  1  0  0  0  0  0  0
  190.3500  176.9620  140.4900 C   0  0  0  0  0  0  0  0  0  0  0  0
  190.4180  176.5760  138.0460 C   0  0  1  0  0  3  0  0  0  0  0  0
  191.0550  176.6000  139.4080 C   0  0  0  0  0  3  0  0  0  0  0  0
  188.9610  177.4360  140.3330 C   0  0  0  0  0  3  0  0  0  0  0  0
  188.4790  177.7410  139.1240 C   0  0  0  0  0  3  0  0  0  0  0  0
  188.5370  177.4760  136.6510 C   0  0  0  0  0  2  0  0  0  0  0  0
  186.0630  177.7970  136.6020 O   0  0  0  0  0  0  0  0  0  0  0  0
  187.4690  179.6060  136.6920 O   0  0  0  0  0  1  0  0  0  0  0  0
  187.3330  178.3560  136.6590 C   0  0  0  0  0  0  0  0  0  0  0  0
  1  3  1  0  0  0  0
  2 13  1  0  0  0  0
  2  5  1  1  0  0  0
  3  5  1  0  0  0  0
  3  6  1  0  0  0  0
  4 14  1  6  0  0  0
  4  2  1  0  0  0  0
  4  1  1  0  0  0  0
  7  9  1  0  0  0  0
  8 12  1  0  0  0  0
  9  8  1  0  0  0  0
 10  7  1  0  0  0  0
 10 13  1  0  0  0  0
 11 12  1  0  0  0  0
 13 11  1  1  0  0  0
 15 22  1  6  0  0  0
 15 18  1  0  0  0  0
 15 21  1  0  0  0  0
 17 14  1  0  0  0  0
 18 16  1  6  0  0  0
 18 19  1  0  0  0  0
 19 17  2  0  0  0  0
 20 17  1  0  0  0  0
 21 20  2  0  0  0  0
 22 25  1  0  0  0  0
 23 25  2  0  0  0  0
 25 24  1  0  0  0  0
M  END
>  <MODEL>
3

>  <REMARK>
 VINA RESULT:      -7.5      4.272      6.331
  Name = 
  5 active torsions:
  status: ('A' for Active; 'I' for Inactive)
    1  A    between atoms: C_4  and  C_16
    2  A    between atoms: C_6  and  N_19
    3  A    between atoms: C_11  and  C_22
    4  A    between atoms: C_13  and  N_19
    5  A    between atoms: C_16  and  C_25
                            x       y       z     vdW  Elec       q    Type
                         _______ _______ _______ _____ _____    ______ ____

>  <TORSDO>
F 5

$$$$
=
 OpenBabel11062418113D

 25 27  0  0  1  0  0  0  0  0999 V2000
  191.0490  175.8780  143.8380 C   0  0  0  0  0  2  0  0  0  0  0  0
  189.6080  177.7750  143.6310 C   0  0  2  0  0  3  0  0  0  0  0  0
  191.6360  176.9260  144.6590 N   0  0  0  0  0  0  0  0  0  0  0  0
  190.0680  176.5340  142.8950 C   0  0  1  0  0  3  0  0  0  0  0  0
  190.6570  178.0040  144.7130 C   0  0  0  0  0  2  0  0  0  0  0  0
  191.7560  176.3930  146.0030 C   0  0  0  0  0  1  0  0  0  0  0  0
  185.9000  177.6980  143.8580 C   0  0  0  0  0  2  0  0  0  0  0  0
  185.7700  178.1420  146.3830 C   0  0  0  0  0  2  0  0  0  0  0  0
  185.3210  178.5570  144.9750 C   0  0  0  0  0  2  0  0  0  0  0  0
  187.2040  178.2230  143.4770 N   0  0  0  0  0  2  0  0  0  0  0  0
  188.2240  178.0840  145.7000 C   0  0  0  0  0  2  0  0  0  0  0  0
  187.1100  177.4050  146.4840 C   0  0  0  0  0  2  0  0  0  0  0  0
  188.2330  177.5530  144.2670 C   0  0  2  0  0  3  0  0  0  0  0  0
  190.7660  176.9150  141.6720 N   0  0  0  0  0  2  0  0  0  0  0  0
  188.5320  176.9130  138.0430 C   0  0  2  0  0  3  0  0  0  0  0  0
  187.0700  178.4890  139.1200 O   0  0  0  0  0  1  0  0  0  0  0  0
  190.1200  177.1080  140.4100 C   0  0  0  0  0  0  0  0  0  0  0  0
  188.4120  178.1440  138.9500 C   0  0  1  0  0  3  0  0  0  0  0  0
  189.0380  177.8920  140.2930 C   0  0  0  0  0  3  0  0  0  0  0  0
  190.6460  176.4060  139.2230 C   0  0  0  0  0  3  0  0  0  0  0  0
  189.9290  176.3430  138.0970 C   0  0  0  0  0  3  0  0  0  0  0  0
  188.1620  177.2710  136.6110 C   0  0  0  0  0  2  0  0  0  0  0  0
  186.9230  175.2720  135.7790 O   0  0  0  0  0  0  0  0  0  0  0  0
  185.8100  177.2270  136.2260 O   0  0  0  0  0  1  0  0  0  0  0  0
  186.8980  176.5930  136.2060 C   0  0  0  0  0  0  0  0  0  0  0  0
  1  3  1  0  0  0  0
  2 13  1  0  0  0  0
  2  5  1  1  0  0  0
  3  5  1  0  0  0  0
  3  6  1  0  0  0  0
  4 14  1  6  0  0  0
  4  2  1  0  0  0  0
  4  1  1  0  0  0  0
  7  9  1  0  0  0  0
  8 12  1  0  0  0  0
  9  8  1  0  0  0  0
 10  7  1  0  0  0  0
 10 13  1  0  0  0  0
 11 12  1  0  0  0  0
 13 11  1  1  0  0  0
 15 22  1  6  0  0  0
 15 21  1  0  0  0  0
 15 18  1  0  0  0  0
 17 14  1  0  0  0  0
 18 16  1  1  0  0  0
 18 19  1  0  0  0  0
 19 17  2  0  0  0  0
 20 17  1  0  0  0  0
 21 20  2  0  0  0  0
 23 25  2  0  0  0  0
 25 24  1  0  0  0  0
 25 22  1  0  0  0  0
M  END
>  <MODEL>
4

>  <REMARK>
 VINA RESULT:      -7.4      3.933      5.968
  Name = 
  5 active torsions:
  status: ('A' for Active; 'I' for Inactive)
    1  A    between atoms: C_4  and  C_16
    2  A    between atoms: C_6  and  N_19
    3  A    between atoms: C_11  and  C_22
    4  A    between atoms: C_13  and  N_19
    5  A    between atoms: C_16  and  C_25
                            x       y       z     vdW  Elec       q    Type
                         _______ _______ _______ _____ _____    ______ ____

>  <TORSDO>
F 5

$$$$
=
 OpenBabel11062418113D

 25 27  0  0  1  0  0  0  0  0999 V2000
  190.5320  175.7780  142.8420 C   0  0  0  0  0  2  0  0  0  0  0  0
  189.9860  177.6960  144.1600 C   0  0  2  0  0  3  0  0  0  0  0  0
  191.7220  176.0900  143.6190 N   0  0  0  0  0  0  0  0  0  0  0  0
  189.6440  176.9990  142.8590 C   0  0  1  0  0  3  0  0  0  0  0  0
  191.3300  177.1140  144.5790 C   0  0  0  0  0  2  0  0  0  0  0  0
  192.0540  174.8990  144.3790 C   0  0  0  0  0  1  0  0  0  0  0  0
  186.6000  177.4970  145.6790 C   0  0  0  0  0  2  0  0  0  0  0  0
  187.3680  177.8250  148.1060 C   0  0  0  0  0  2  0  0  0  0  0  0
  186.4440  178.2880  146.9710 C   0  0  0  0  0  2  0  0  0  0  0  0
  187.6770  178.0780  144.8900 N   0  0  0  0  0  2  0  0  0  0  0  0
  189.4210  177.8720  146.5980 C   0  0  0  0  0  2  0  0  0  0  0  0
  188.6660  177.1260  147.6880 C   0  0  0  0  0  2  0  0  0  0  0  0
  188.9280  177.4050  145.2280 C   0  0  2  0  0  3  0  0  0  0  0  0
  189.9920  177.8580  141.7330 N   0  0  0  0  0  2  0  0  0  0  0  0
  188.1830  176.7970  138.0220 C   0  0  2  0  0  3  0  0  0  0  0  0
  186.4000  178.2890  138.6400 O   0  0  0  0  0  1  0  0  0  0  0  0
  189.4630  177.6980  140.4130 C   0  0  0  0  0  0  0  0  0  0  0  0
  187.7880  178.1430  138.6460 C   0  0  1  0  0  3  0  0  0  0  0  0
  188.2980  178.2570  140.0560 C   0  0  0  0  0  3  0  0  0  0  0  0
  190.2090  176.8780  139.4380 C   0  0  0  0  0  3  0  0  0  0  0  0
  189.6330  176.4850  138.2980 C   0  0  0  0  0  3  0  0  0  0  0  0
  187.9190  176.8110  136.5240 C   0  0  0  0  0  2  0  0  0  0  0  0
  185.6960  175.6810  136.5800 O   0  0  0  0  0  1  0  0  0  0  0  0
  187.4450  174.7490  135.4270 O   0  0  0  0  0  0  0  0  0  0  0  0
  187.0120  175.6940  136.1360 C   0  0  0  0  0  0  0  0  0  0  0  0
  1  4  1  0  0  0  0
  1  3  1  0  0  0  0
  2  5  1  1  0  0  0
  2 13  1  0  0  0  0
  3  6  1  0  0  0  0
  3  5  1  0  0  0  0
  4 14  1  6  0  0  0
  4  2  1  0  0  0  0
  7  9  1  0  0  0  0
  9  8  1  0  0  0  0
 10 13  1  0  0  0  0
 10  7  1  0  0  0  0
 11 12  1  0  0  0  0
 12  8  1  0  0  0  0
 13 11  1  1  0  0  0
 15 22  1  6  0  0  0
 15 21  1  0  0  0  0
 15 18  1  0  0  0  0
 17 14  1  0  0  0  0
 18 16  1  1  0  0  0
 18 19  1  0  0  0  0
 19 17  2  0  0  0  0
 20 17  1  0  0  0  0
 21 20  2  0  0  0  0
 24 25  2  0  0  0  0
 25 22  1  0  0  0  0
 25 23  1  0  0  0  0
M  END
>  <MODEL>
5

>  <REMARK>
 VINA RESULT:      -7.3      4.075      5.694
  Name = 
  5 active torsions:
  status: ('A' for Active; 'I' for Inactive)
    1  A    between atoms: C_4  and  C_16
    2  A    between atoms: C_6  and  N_19
    3  A    between atoms: C_11  and  C_22
    4  A    between atoms: C_13  and  N_19
    5  A    between atoms: C_16  and  C_25
                            x       y       z     vdW  Elec       q    Type
                         _______ _______ _______ _____ _____    ______ ____

>  <TORSDO>
F 5

$$$$
=
 OpenBabel11062418113D

 25 27  0  0  1  0  0  0  0  0999 V2000
  190.3630  175.8620  142.8770 C   0  0  0  0  0  2  0  0  0  0  0  0
  189.9170  177.7610  144.2600 C   0  0  2  0  0  3  0  0  0  0  0  0
  191.6000  176.1480  143.5870 N   0  0  0  0  0  0  0  0  0  0  0  0
  189.4900  177.0910  142.9690 C   0  0  1  0  0  3  0  0  0  0  0  0
  191.2770  177.1580  144.5870 C   0  0  0  0  0  2  0  0  0  0  0  0
  191.9640  174.9410  144.3050 C   0  0  0  0  0  1  0  0  0  0  0  0
  186.6270  177.5770  145.9780 C   0  0  0  0  0  2  0  0  0  0  0  0
  187.5470  177.8360  148.3610 C   0  0  0  0  0  2  0  0  0  0  0  0
  186.5630  178.3400  147.2950 C   0  0  0  0  0  2  0  0  0  0  0  0
  187.6630  178.1600  145.1380 N   0  0  0  0  0  2  0  0  0  0  0  0
  189.5040  177.8880  146.7310 C   0  0  0  0  0  2  0  0  0  0  0  0
  188.8050  177.1280  147.8480 C   0  0  0  0  0  2  0  0  0  0  0  0
  188.9210  177.4610  145.3840 C   0  0  2  0  0  3  0  0  0  0  0  0
  189.7800  177.9670  141.8400 N   0  0  0  0  0  2  0  0  0  0  0  0
  190.0530  176.0220  138.0570 C   0  0  2  0  0  3  0  0  0  0  0  0
  187.6810  176.3760  137.8760 O   0  0  0  0  0  1  0  0  0  0  0  0
  189.8640  177.5200  140.4820 C   0  0  0  0  0  0  0  0  0  0  0  0
  188.8730  176.9780  138.2810 C   0  0  1  0  0  3  0  0  0  0  0  0
  188.7660  177.3780  139.7270 C   0  0  0  0  0  3  0  0  0  0  0  0
  191.1880  177.1880  139.9200 C   0  0  0  0  0  3  0  0  0  0  0  0
  191.2880  176.5220  138.7650 C   0  0  0  0  0  3  0  0  0  0  0  0
  190.3260  175.8580  136.5690 C   0  0  0  0  0  2  0  0  0  0  0  0
  190.5660  173.4450  137.1580 O   0  0  0  0  0  1  0  0  0  0  0  0
  191.4930  174.2690  135.2290 O   0  0  0  0  0  0  0  0  0  0  0  0
  190.8210  174.4830  136.2710 C   0  0  0  0  0  0  0  0  0  0  0  0
  1  4  1  0  0  0  0
  1  3  1  0  0  0  0
  2  5  1  1  0  0  0
  2 13  1  0  0  0  0
  3  6  1  0  0  0  0
  3  5  1  0  0  0  0
  4 14  1  6  0  0  0
  4  2  1  0  0  0  0
  7  9  1  0  0  0  0
  9  8  1  0  0  0  0
 10 13  1  0  0  0  0
 10  7  1  0  0  0  0
 11 12  1  0  0  0  0
 12  8  1  0  0  0  0
 13 11  1  1  0  0  0
 15 22  1  6  0  0  0
 15 18  1  0  0  0  0
 15 21  1  0  0  0  0
 17 14  1  0  0  0  0
 18 16  1  1  0  0  0
 18 19  1  0  0  0  0
 19 17  2  0  0  0  0
 20 17  1  0  0  0  0
 21 20  2  0  0  0  0
 24 25  2  0  0  0  0
 25 22  1  0  0  0  0
 25 23  1  0  0  0  0
M  END
>  <MODEL>
6

>  <REMARK>
 VINA RESULT:      -7.2      4.819      6.952
  Name = 
  5 active torsions:
  status: ('A' for Active; 'I' for Inactive)
    1  A    between atoms: C_4  and  C_16
    2  A    between atoms: C_6  and  N_19
    3  A    between atoms: C_11  and  C_22
    4  A    between atoms: C_13  and  N_19
    5  A    between atoms: C_16  and  C_25
                            x       y       z     vdW  Elec       q    Type
                         _______ _______ _______ _____ _____    ______ ____

>  <TORSDO>
F 5

$$$$
=
 OpenBabel11062418113D

 25 27  0  0  1  0  0  0  0  0999 V2000
  190.4960  175.8020  142.8360 C   0  0  0  0  0  2  0  0  0  0  0  0
  189.9570  177.7210  144.1580 C   0  0  2  0  0  3  0  0  0  0  0  0
  191.6980  176.1280  143.5890 N   0  0  0  0  0  0  0  0  0  0  0  0
  189.5970  177.0150  142.8660 C   0  0  1  0  0  3  0  0  0  0  0  0
  191.3140  177.1530  144.5530 C   0  0  0  0  0  2  0  0  0  0  0  0
  192.0550  174.9440  144.3480 C   0  0  0  0  0  1  0  0  0  0  0  0
  186.6050  177.5170  145.7500 C   0  0  0  0  0  2  0  0  0  0  0  0
  187.4280  177.8280  148.1610 C   0  0  0  0  0  2  0  0  0  0  0  0
  186.4800  178.3000  147.0500 C   0  0  0  0  0  2  0  0  0  0  0  0
  187.6660  178.1020  144.9410 N   0  0  0  0  0  2  0  0  0  0  0  0
  189.4460  177.8810  146.6090 C   0  0  0  0  0  2  0  0  0  0  0  0
  188.7150  177.1290  147.7100 C   0  0  0  0  0  2  0  0  0  0  0  0
  188.9230  177.4240  145.2470 C   0  0  2  0  0  3  0  0  0  0  0  0
  189.9150  177.8730  141.7300 N   0  0  0  0  0  2  0  0  0  0  0  0
  191.8510  175.9280  138.4690 C   0  0  2  0  0  3  0  0  0  0  0  0
  189.6440  175.3940  137.6760 O   0  0  0  0  0  1  0  0  0  0  0  0
  190.5140  177.4040  140.5180 C   0  0  0  0  0  0  0  0  0  0  0  0
  190.4090  176.4080  138.2550 C   0  0  1  0  0  3  0  0  0  0  0  0
  189.7800  176.8310  139.5540 C   0  0  0  0  0  3  0  0  0  0  0  0
  191.9750  177.5360  140.3450 C   0  0  0  0  0  3  0  0  0  0  0  0
  192.6050  176.8810  139.3640 C   0  0  0  0  0  3  0  0  0  0  0  0
  192.5640  175.7820  137.1320 C   0  0  0  0  0  2  0  0  0  0  0  0
  193.8670  173.7520  137.7690 O   0  0  0  0  0  1  0  0  0  0  0  0
  194.9420  175.6410  137.0380 O   0  0  0  0  0  0  0  0  0  0  0  0
  193.8570  175.0590  137.2990 C   0  0  0  0  0  0  0  0  0  0  0  0
  1  4  1  0  0  0  0
  1  3  1  0  0  0  0
  2  5  1  1  0  0  0
  2 13  1  0  0  0  0
  3  6  1  0  0  0  0
  3  5  1  0  0  0  0
  4 14  1  6  0  0  0
  4  2  1  0  0  0  0
  7  9  1  0  0  0  0
  9  8  1  0  0  0  0
 10 13  1  0  0  0  0
 10  7  1  0  0  0  0
 11 12  1  0  0  0  0
 12  8  1  0  0  0  0
 13 11  1  1  0  0  0
 15 22  1  6  0  0  0
 15 21  1  0  0  0  0
 17 14  1  0  0  0  0
 18 16  1  1  0  0  0
 18 15  1  0  0  0  0
 18 19  1  0  0  0  0
 19 17  2  0  0  0  0
 20 17  1  0  0  0  0
 21 20  2  0  0  0  0
 22 25  1  0  0  0  0
 24 25  2  0  0  0  0
 25 23  1  0  0  0  0
M  END
>  <MODEL>
7

>  <REMARK>
 VINA RESULT:      -7.2      5.168      7.904
  Name = 
  5 active torsions:
  status: ('A' for Active; 'I' for Inactive)
    1  A    between atoms: C_4  and  C_16
    2  A    between atoms: C_6  and  N_19
    3  A    between atoms: C_11  and  C_22
    4  A    between atoms: C_13  and  N_19
    5  A    between atoms: C_16  and  C_25
                            x       y       z     vdW  Elec       q    Type
                         _______ _______ _______ _____ _____    ______ ____

>  <TORSDO>
F 5

$$$$
=
 OpenBabel11062418113D

 25 27  0  0  1  0  0  0  0  0999 V2000
  186.5840  179.1200  146.9520 C   0  0  0  0  0  2  0  0  0  0  0  0
  187.1020  177.4980  145.2730 C   0  0  2  0  0  3  0  0  0  0  0  0
  186.8590  177.8770  147.6580 N   0  0  0  0  0  0  0  0  0  0  0  0
  186.3180  178.7730  145.5060 C   0  0  1  0  0  3  0  0  0  0  0  0
  187.3860  176.9490  146.6660 C   0  0  0  0  0  2  0  0  0  0  0  0
  187.9320  178.1520  148.5940 C   0  0  0  0  0  1  0  0  0  0  0  0
  189.4230  177.8870  142.3970 C   0  0  0  0  0  2  0  0  0  0  0  0
  191.5570  177.2640  143.6810 C   0  0  0  0  0  2  0  0  0  0  0  0
  190.6590  177.0000  142.4640 C   0  0  0  0  0  2  0  0  0  0  0  0
  188.3550  177.2780  143.1780 N   0  0  0  0  0  2  0  0  0  0  0  0
  189.5870  177.1550  145.2920 C   0  0  0  0  0  2  0  0  0  0  0  0
  190.8770  177.8680  144.9130 C   0  0  0  0  0  2  0  0  0  0  0  0
  188.4160  177.7920  144.5440 C   0  0  2  0  0  3  0  0  0  0  0  0
  184.8930  178.5150  145.3320 N   0  0  0  0  0  2  0  0  0  0  0  0
  182.9030  178.5110  141.5640 C   0  0  2  0  0  3  0  0  0  0  0  0
  180.8540  178.4000  142.8180 O   0  0  0  0  0  1  0  0  0  0  0  0
  184.1860  178.7310  144.1070 C   0  0  0  0  0  0  0  0  0  0  0  0
  182.1120  179.0020  142.7840 C   0  0  1  0  0  3  0  0  0  0  0  0
  182.8460  178.7030  144.0620 C   0  0  0  0  0  3  0  0  0  0  0  0
  184.9550  178.9630  142.8690 C   0  0  0  0  0  3  0  0  0  0  0  0
  184.3560  178.9020  141.6750 C   0  0  0  0  0  3  0  0  0  0  0  0
  182.3010  179.0710  140.2830 C   0  0  0  0  0  2  0  0  0  0  0  0
  184.0170  180.4200  139.0750 O   0  0  0  0  0  1  0  0  0  0  0  0
  183.5970  178.2520  138.4580 O   0  0  0  0  0  0  0  0  0  0  0  0
  183.3440  179.2150  139.2270 C   0  0  0  0  0  0  0  0  0  0  0  0
  1  3  1  0  0  0  0
  2  4  1  0  0  0  0
  2  5  1  1  0  0  0
  3  6  1  0  0  0  0
  4 14  1  1  0  0  0
  4  1  1  0  0  0  0
  5  3  1  0  0  0  0
  7  9  1  0  0  0  0
  7 10  1  0  0  0  0
  8 12  1  0  0  0  0
  9  8  1  0  0  0  0
 10 13  1  0  0  0  0
 12 11  1  0  0  0  0
 13  2  1  0  0  0  0
 13 11  1  1  0  0  0
 15 22  1  6  0  0  0
 15 21  1  0  0  0  0
 15 18  1  0  0  0  0
 17 14  1  0  0  0  0
 18 16  1  1  0  0  0
 18 19  1  0  0  0  0
 19 17  2  0  0  0  0
 20 17  1  0  0  0  0
 21 20  2  0  0  0  0
 23 25  1  0  0  0  0
 24 25  2  0  0  0  0
 25 22  1  0  0  0  0
M  END
>  <MODEL>
8

>  <REMARK>
 VINA RESULT:      -7.2      2.147      4.238
  Name = 
  5 active torsions:
  status: ('A' for Active; 'I' for Inactive)
    1  A    between atoms: C_4  and  C_16
    2  A    between atoms: C_6  and  N_19
    3  A    between atoms: C_11  and  C_22
    4  A    between atoms: C_13  and  N_19
    5  A    between atoms: C_16  and  C_25
                            x       y       z     vdW  Elec       q    Type
                         _______ _______ _______ _____ _____    ______ ____

>  <TORSDO>
F 5

$$$$
=
 OpenBabel11062418113D

 25 27  0  0  1  0  0  0  0  0999 V2000
  185.3410  179.5540  145.2300 C   0  0  0  0  0  2  0  0  0  0  0  0
  186.2660  177.4610  144.5370 C   0  0  2  0  0  3  0  0  0  0  0  0
  185.3350  178.6970  146.4060 N   0  0  0  0  0  0  0  0  0  0  0  0
  185.5060  178.6660  144.0200 C   0  0  1  0  0  3  0  0  0  0  0  0
  186.0930  177.5040  146.0490 C   0  0  0  0  0  2  0  0  0  0  0  0
  186.0890  179.3870  147.4360 C   0  0  0  0  0  1  0  0  0  0  0  0
  189.3880  176.7810  142.6390 C   0  0  0  0  0  2  0  0  0  0  0  0
  190.9890  177.1100  144.6190 C   0  0  0  0  0  2  0  0  0  0  0  0
  190.5180  176.1970  143.4780 C   0  0  0  0  0  2  0  0  0  0  0  0
  188.1130  176.4660  143.2700 N   0  0  0  0  0  2  0  0  0  0  0  0
  188.6080  177.4980  145.4350 C   0  0  0  0  0  2  0  0  0  0  0  0
  189.9680  178.1200  145.1520 C   0  0  0  0  0  2  0  0  0  0  0  0
  187.7500  177.5560  144.1710 C   0  0  2  0  0  3  0  0  0  0  0  0
  184.1890  178.2530  143.5490 N   0  0  0  0  0  2  0  0  0  0  0  0
  182.6410  179.4160  139.7520 C   0  0  2  0  0  3  0  0  0  0  0  0
  184.9300  179.7490  139.0910 O   0  0  0  0  0  1  0  0  0  0  0  0
  183.7270  178.4380  142.2060 C   0  0  0  0  0  0  0  0  0  0  0  0
  184.0840  178.8960  139.8010 C   0  0  1  0  0  3  0  0  0  0  0  0
  184.5690  178.7750  141.2200 C   0  0  0  0  0  3  0  0  0  0  0  0
  182.2880  178.2750  141.9180 C   0  0  0  0  0  3  0  0  0  0  0  0
  181.7770  178.6940  140.7550 C   0  0  0  0  0  3  0  0  0  0  0  0
  182.0690  179.2590  138.3500 C   0  0  0  0  0  2  0  0  0  0  0  0
  181.2620  181.5810  138.7750 O   0  0  0  0  0  1  0  0  0  0  0  0
  181.0970  180.6570  136.6830 O   0  0  0  0  0  0  0  0  0  0  0  0
  181.4580  180.5350  137.8820 C   0  0  0  0  0  0  0  0  0  0  0  0
  1  3  1  0  0  0  0
  2  5  1  1  0  0  0
  3  6  1  0  0  0  0
  4 14  1  1  0  0  0
  4  2  1  0  0  0  0
  4  1  1  0  0  0  0
  5  3  1  0  0  0  0
  7 10  1  0  0  0  0
  7  9  1  0  0  0  0
  8 12  1  0  0  0  0
  9  8  1  0  0  0  0
 10 13  1  0  0  0  0
 12 11  1  0  0  0  0
 13  2  1  0  0  0  0
 13 11  1  1  0  0  0
 15 22  1  6  0  0  0
 15 18  1  0  0  0  0
 15 21  1  0  0  0  0
 17 14  1  0  0  0  0
 18 16  1  6  0  0  0
 18 19  1  0  0  0  0
 19 17  2  0  0  0  0
 20 17  1  0  0  0  0
 21 20  2  0  0  0  0
 24 25  2  0  0  0  0
 25 22  1  0  0  0  0
 25 23  1  0  0  0  0
M  END
>  <MODEL>
9

>  <REMARK>
 VINA RESULT:      -7.2      2.859      4.545
  Name = 
  5 active torsions:
  status: ('A' for Active; 'I' for Inactive)
    1  A    between atoms: C_4  and  C_16
    2  A    between atoms: C_6  and  N_19
    3  A    between atoms: C_11  and  C_22
    4  A    between atoms: C_13  and  N_19
    5  A    between atoms: C_16  and  C_25
                            x       y       z     vdW  Elec       q    Type
                         _______ _______ _______ _____ _____    ______ ____

>  <TORSDO>
F 5

$$$$
