=
 OpenBabel11062417153D

 26 28  0  0  1  0  0  0  0  0999 V2000
  188.2270  178.2390  139.5680 C   0  0  0  0  0  2  0  0  0  0  0  0
  189.8190  176.4810  138.6530 C   0  0  1  0  0  3  0  0  0  0  0  0
  189.6770  177.7330  139.5370 C   0  0  2  0  0  3  0  0  0  0  0  0
  187.5520  178.2470  138.2000 C   0  0  0  0  0  2  0  0  0  0  0  0
  188.5000  178.8040  137.1520 C   0  0  0  0  0  2  0  0  0  0  0  0
  189.3210  177.7690  136.5550 N   0  0  0  0  0  0  0  0  0  0  0  0
  189.9230  176.8050  137.1770 C   0  0  0  0  0  3  0  0  0  0  0  0
  191.0360  177.2390  143.5220 N   0  0  0  0  0  0  0  0  0  0  0  0
  189.2970  177.5570  141.9680 N   0  0  0  0  0  0  0  0  0  0  0  0
  189.7110  177.4100  143.2570 C   0  0  0  0  0  0  0  0  0  0  0  0
  191.5450  177.3660  141.1980 C   0  0  0  0  0  3  0  0  0  0  0  0
  190.1810  177.5350  140.9370 C   0  0  0  0  0  0  0  0  0  0  0  0
  191.9530  177.2150  142.5210 C   0  0  0  0  0  3  0  0  0  0  0  0
  189.1440  177.3680  145.6280 C   0  0  0  0  0  3  0  0  0  0  0  0
  188.7230  177.4350  144.3550 C   0  0  0  0  0  0  0  0  0  0  0  0
  188.2030  177.3620  146.8020 C   0  0  1  0  0  3  0  0  0  0  0  0
  186.3260  177.3670  145.1910 C   0  0  0  0  0  2  0  0  0  0  0  0
  187.2660  177.6700  144.0250 C   0  0  0  0  0  2  0  0  0  0  0  0
  188.8390  178.0760  147.9760 C   0  0  0  0  0  1  0  0  0  0  0  0
  186.8650  178.0050  146.4630 C   0  0  0  0  0  2  0  0  0  0  0  0
  190.9380  175.7200  139.0180 O   0  0  0  0  0  0  0  0  0  0  0  0
  191.5560  175.3680  137.8130 C   0  0  2  0  0  3  0  0  0  0  0  0
  191.3200  173.9630  137.5350 N   0  0  0  0  0  1  0  0  0  0  0  0
  193.0250  175.6260  137.8940 C   0  0  0  0  0  0  0  0  0  0  0  0
  193.9130  174.5590  137.8690 O   0  0  0  0  0  0  0  0  0  0  0  0
  193.4620  176.8040  137.9840 O   0  0  0  0  0  1  0  0  0  0  0  0
  2 21  1  1  0  0  0
  2  3  1  0  0  0  0
  3  1  1  0  0  0  0
  3 12  1  1  0  0  0
  4  1  1  0  0  0  0
  5  4  1  0  0  0  0
  6  5  1  0  0  0  0
  6  7  2  0  0  0  0
  7  2  1  0  0  0  0
  9 10  1  0  0  0  0
 10  8  2  0  0  0  0
 10 15  1  0  0  0  0
 11 13  2  0  0  0  0
 12 11  1  0  0  0  0
 12  9  2  0  0  0  0
 13  8  1  0  0  0  0
 14 16  1  0  0  0  0
 15 14  2  0  0  0  0
 16 19  1  1  0  0  0
 17 20  1  0  0  0  0
 18 15  1  0  0  0  0
 18 17  1  0  0  0  0
 20 16  1  0  0  0  0
 22 23  1  1  0  0  0
 22 24  1  0  0  0  0
 22 21  1  0  0  0  0
 24 26  1  0  0  0  0
 25 24  2  0  0  0  0
M  END
>  <MODEL>
1

>  <REMARK>
 VINA RESULT:      -8.6      0.000      0.000
  Name = 
  5 active torsions:
  status: ('A' for Active; 'I' for Inactive)
    1  A    between atoms: C_3  and  C_8
    2  A    between atoms: C_4  and  O_25
    3  A    between atoms: C_5  and  C_20
    4  A    between atoms: C_8  and  O_25
    5  A    between atoms: C_9  and  C_11
                            x       y       z     vdW  Elec       q    Type
                         _______ _______ _______ _____ _____    ______ ____

>  <TORSDO>
F 5

$$$$
=
 OpenBabel11062417153D

 26 28  0  0  1  0  0  0  0  0999 V2000
  183.7520  178.1400  141.5620 C   0  0  0  0  0  2  0  0  0  0  0  0
  186.2840  177.9720  141.7170 C   0  0  1  0  0  3  0  0  0  0  0  0
  185.0240  178.7080  142.2090 C   0  0  2  0  0  3  0  0  0  0  0  0
  183.8910  177.8800  140.0650 C   0  0  0  0  0  2  0  0  0  0  0  0
  184.5990  179.0450  139.3930 C   0  0  0  0  0  2  0  0  0  0  0  0
  186.0380  178.8760  139.3870 N   0  0  0  0  0  0  0  0  0  0  0  0
  186.7740  178.4670  140.3720 C   0  0  0  0  0  3  0  0  0  0  0  0
  184.6800  178.6420  146.4340 N   0  0  0  0  0  0  0  0  0  0  0  0
  185.9590  178.4080  144.4720 N   0  0  0  0  0  0  0  0  0  0  0  0
  185.8710  178.3710  145.8300 C   0  0  0  0  0  0  0  0  0  0  0  0
  183.6520  178.9860  144.3120 C   0  0  0  0  0  3  0  0  0  0  0  0
  184.8810  178.7110  143.7030 C   0  0  0  0  0  0  0  0  0  0  0  0
  183.5770  178.9470  145.7020 C   0  0  0  0  0  3  0  0  0  0  0  0
  188.0870  177.3840  146.0700 C   0  0  0  0  0  3  0  0  0  0  0  0
  187.0630  178.0410  146.6370 C   0  0  0  0  0  0  0  0  0  0  0  0
  189.3250  176.9880  146.8270 C   0  0  1  0  0  3  0  0  0  0  0  0
  188.2720  177.9110  148.8670 C   0  0  0  0  0  2  0  0  0  0  0  0
  187.1600  178.5690  148.0510 C   0  0  0  0  0  2  0  0  0  0  0  0
  190.5300  177.0470  145.9110 C   0  0  0  0  0  1  0  0  0  0  0  0
  189.5540  177.8720  148.0470 C   0  0  0  0  0  2  0  0  0  0  0  0
  187.3350  178.0830  142.6370 O   0  0  0  0  0  0  0  0  0  0  0  0
  188.2970  177.1590  142.2160 C   0  0  2  0  0  3  0  0  0  0  0  0
  188.2240  175.9670  143.0420 N   0  0  0  0  0  1  0  0  0  0  0  0
  189.6620  177.7570  142.3140 C   0  0  0  0  0  0  0  0  0  0  0  0
  190.7040  177.2180  141.5710 O   0  0  0  0  0  0  0  0  0  0  0  0
  189.8740  178.7460  143.0640 O   0  0  0  0  0  1  0  0  0  0  0  0
  1  3  1  0  0  0  0
  2  3  1  0  0  0  0
  2 21  1  1  0  0  0
  3 12  1  1  0  0  0
  4  1  1  0  0  0  0
  5  4  1  0  0  0  0
  6  5  1  0  0  0  0
  6  7  2  0  0  0  0
  7  2  1  0  0  0  0
  9 10  1  0  0  0  0
 10  8  2  0  0  0  0
 10 15  1  0  0  0  0
 11 13  2  0  0  0  0
 12 11  1  0  0  0  0
 12  9  2  0  0  0  0
 13  8  1  0  0  0  0
 14 15  2  0  0  0  0
 14 16  1  0  0  0  0
 15 18  1  0  0  0  0
 16 19  1  6  0  0  0
 16 20  1  0  0  0  0
 18 17  1  0  0  0  0
 20 17  1  0  0  0  0
 22 24  1  0  0  0  0
 22 21  1  0  0  0  0
 22 23  1  1  0  0  0
 24 26  1  0  0  0  0
 25 24  2  0  0  0  0
M  END
>  <MODEL>
2

>  <REMARK>
 VINA RESULT:      -8.5      3.380      5.283
  Name = 
  5 active torsions:
  status: ('A' for Active; 'I' for Inactive)
    1  A    between atoms: C_3  and  C_8
    2  A    between atoms: C_4  and  O_25
    3  A    between atoms: C_5  and  C_20
    4  A    between atoms: C_8  and  O_25
    5  A    between atoms: C_9  and  C_11
                            x       y       z     vdW  Elec       q    Type
                         _______ _______ _______ _____ _____    ______ ____

>  <TORSDO>
F 5

$$$$
=
 OpenBabel11062417153D

 26 28  0  0  1  0  0  0  0  0999 V2000
  190.3300  176.3180  138.4190 C   0  0  0  0  0  2  0  0  0  0  0  0
  191.0960  177.0700  140.7230 C   0  0  1  0  0  3  0  0  0  0  0  0
  190.3010  177.4470  139.4600 C   0  0  2  0  0  3  0  0  0  0  0  0
  191.7080  175.6890  138.2370 C   0  0  0  0  0  2  0  0  0  0  0  0
  192.7740  176.7700  138.1770 C   0  0  0  0  0  2  0  0  0  0  0  0
  193.2850  177.1050  139.4910 N   0  0  0  0  0  0  0  0  0  0  0  0
  192.5890  177.2800  140.5700 C   0  0  0  0  0  3  0  0  0  0  0  0
  186.2890  178.5010  140.3340 N   0  0  0  0  0  0  0  0  0  0  0  0
  188.4330  177.8210  141.0270 N   0  0  0  0  0  0  0  0  0  0  0  0
  187.1460  178.1460  141.3320 C   0  0  0  0  0  0  0  0  0  0  0  0
  188.0080  178.2010  138.7130 C   0  0  0  0  0  3  0  0  0  0  0  0
  188.8820  177.8440  139.7450 C   0  0  0  0  0  0  0  0  0  0  0  0
  186.6960  178.5340  139.0390 C   0  0  0  0  0  3  0  0  0  0  0  0
  187.4630  177.5370  143.6710 C   0  0  0  0  0  3  0  0  0  0  0  0
  186.6920  178.1150  142.7360 C   0  0  0  0  0  0  0  0  0  0  0  0
  187.0620  177.4390  145.1180 C   0  0  1  0  0  3  0  0  0  0  0  0
  184.9080  178.4910  144.5050 C   0  0  0  0  0  2  0  0  0  0  0  0
  185.4270  178.8540  143.1150 C   0  0  0  0  0  2  0  0  0  0  0  0
  188.2890  177.5360  146.0000 C   0  0  0  0  0  1  0  0  0  0  0  0
  186.0560  178.5170  145.5030 C   0  0  0  0  0  2  0  0  0  0  0  0
  190.6610  177.7980  141.8390 O   0  0  0  0  0  0  0  0  0  0  0  0
  191.3430  177.2470  142.9300 C   0  0  2  0  0  3  0  0  0  0  0  0
  190.6970  176.0120  143.3370 N   0  0  0  0  0  1  0  0  0  0  0  0
  191.3510  178.2110  144.0700 C   0  0  0  0  0  0  0  0  0  0  0  0
  191.7860  177.7940  145.3210 O   0  0  0  0  0  1  0  0  0  0  0  0
  190.9680  179.4000  143.9050 O   0  0  0  0  0  0  0  0  0  0  0  0
  1  3  1  0  0  0  0
  2 21  1  1  0  0  0
  3 12  1  1  0  0  0
  3  2  1  0  0  0  0
  4  1  1  0  0  0  0
  5  4  1  0  0  0  0
  5  6  1  0  0  0  0
  6  7  2  0  0  0  0
  7  2  1  0  0  0  0
  8 10  2  0  0  0  0
  9 10  1  0  0  0  0
 10 15  1  0  0  0  0
 11 13  2  0  0  0  0
 11 12  1  0  0  0  0
 12  9  2  0  0  0  0
 13  8  1  0  0  0  0
 14 16  1  0  0  0  0
 15 18  1  0  0  0  0
 15 14  2  0  0  0  0
 16 20  1  0  0  0  0
 16 19  1  1  0  0  0
 17 20  1  0  0  0  0
 18 17  1  0  0  0  0
 21 22  1  0  0  0  0
 22 23  1  1  0  0  0
 22 24  1  0  0  0  0
 24 25  1  0  0  0  0
 26 24  2  0  0  0  0
M  END
>  <MODEL>
3

>  <REMARK>
 VINA RESULT:      -8.2      2.467      4.378
  Name = 
  5 active torsions:
  status: ('A' for Active; 'I' for Inactive)
    1  A    between atoms: C_3  and  C_8
    2  A    between atoms: C_4  and  O_25
    3  A    between atoms: C_5  and  C_20
    4  A    between atoms: C_8  and  O_25
    5  A    between atoms: C_9  and  C_11
                            x       y       z     vdW  Elec       q    Type
                         _______ _______ _______ _____ _____    ______ ____

>  <TORSDO>
F 5

$$$$
=
 OpenBabel11062417153D

 26 28  0  0  1  0  0  0  0  0999 V2000
  189.4440  177.5340  147.7380 C   0  0  0  0  0  2  0  0  0  0  0  0
  190.1220  177.9130  145.3170 C   0  0  1  0  0  3  0  0  0  0  0  0
  189.0760  177.2980  146.2660 C   0  0  2  0  0  3  0  0  0  0  0  0
  190.9190  177.2960  148.0470 C   0  0  0  0  0  2  0  0  0  0  0  0
  191.3970  176.0240  147.3660 C   0  0  0  0  0  2  0  0  0  0  0  0
  191.8900  176.2760  146.0270 N   0  0  0  0  0  0  0  0  0  0  0  0
  191.3430  177.0350  145.1310 C   0  0  0  0  0  3  0  0  0  0  0  0
  185.1600  178.6990  145.4440 N   0  0  0  0  0  0  0  0  0  0  0  0
  187.2370  177.8600  144.7210 N   0  0  0  0  0  0  0  0  0  0  0  0
  185.9870  178.3160  144.4310 C   0  0  0  0  0  0  0  0  0  0  0  0
  186.8400  178.1740  147.0500 C   0  0  0  0  0  3  0  0  0  0  0  0
  187.6790  177.7780  146.0030 C   0  0  0  0  0  0  0  0  0  0  0  0
  185.5630  178.6360  146.7390 C   0  0  0  0  0  3  0  0  0  0  0  0
  184.2510  178.1430  142.7280 C   0  0  0  0  0  3  0  0  0  0  0  0
  185.5370  178.3890  143.0270 C   0  0  0  0  0  0  0  0  0  0  0  0
  183.7170  178.1710  141.3220 C   0  0  1  0  0  3  0  0  0  0  0  0
  186.0250  178.6080  140.5430 C   0  0  0  0  0  2  0  0  0  0  0  0
  186.5060  178.8710  141.9700 C   0  0  0  0  0  2  0  0  0  0  0  0
  182.2870  178.6700  141.3230 C   0  0  0  0  0  1  0  0  0  0  0  0
  184.5720  179.0380  140.4060 C   0  0  0  0  0  2  0  0  0  0  0  0
  189.5750  178.1810  144.0550 O   0  0  0  0  0  0  0  0  0  0  0  0
  190.3010  177.3890  143.1590 C   0  0  2  0  0  3  0  0  0  0  0  0
  191.1210  178.2360  142.3120 N   0  0  0  0  0  1  0  0  0  0  0  0
  189.3710  176.5820  142.3160 C   0  0  0  0  0  0  0  0  0  0  0  0
  189.2620  176.8530  140.9580 O   0  0  0  0  0  0  0  0  0  0  0  0
  188.6850  175.6570  142.8270 O   0  0  0  0  0  1  0  0  0  0  0  0
  1  4  1  0  0  0  0
  2 21  1  6  0  0  0
  2  3  1  0  0  0  0
  3 12  1  6  0  0  0
  3  1  1  0  0  0  0
  5  4  1  0  0  0  0
  6  5  1  0  0  0  0
  7  2  1  0  0  0  0
  7  6  2  0  0  0  0
  8 13  1  0  0  0  0
  9 12  2  0  0  0  0
 10  9  1  0  0  0  0
 10  8  2  0  0  0  0
 12 11  1  0  0  0  0
 13 11  2  0  0  0  0
 14 15  2  0  0  0  0
 15 10  1  0  0  0  0
 16 19  1  1  0  0  0
 16 14  1  0  0  0  0
 17 18  1  0  0  0  0
 18 15  1  0  0  0  0
 20 17  1  0  0  0  0
 20 16  1  0  0  0  0
 22 23  1  6  0  0  0
 22 21  1  0  0  0  0
 24 26  1  0  0  0  0
 24 22  1  0  0  0  0
 25 24  2  0  0  0  0
M  END
>  <MODEL>
4

>  <REMARK>
 VINA RESULT:      -8.2      3.498      6.950
  Name = 
  5 active torsions:
  status: ('A' for Active; 'I' for Inactive)
    1  A    between atoms: C_3  and  C_8
    2  A    between atoms: C_4  and  O_25
    3  A    between atoms: C_5  and  C_20
    4  A    between atoms: C_8  and  O_25
    5  A    between atoms: C_9  and  C_11
                            x       y       z     vdW  Elec       q    Type
                         _______ _______ _______ _____ _____    ______ ____

>  <TORSDO>
F 5

$$$$
=
 OpenBabel11062417153D

 26 28  0  0  1  0  0  0  0  0999 V2000
  188.5230  176.7700  138.7910 C   0  0  0  0  0  2  0  0  0  0  0  0
  189.8620  177.1290  140.9220 C   0  0  1  0  0  3  0  0  0  0  0  0
  188.8320  177.7310  139.9480 C   0  0  2  0  0  3  0  0  0  0  0  0
  189.7630  176.1050  138.2000 C   0  0  0  0  0  2  0  0  0  0  0  0
  190.8750  177.1260  138.0290 C   0  0  0  0  0  2  0  0  0  0  0  0
  191.7010  177.2340  139.2140 N   0  0  0  0  0  0  0  0  0  0  0  0
  191.2910  177.2810  140.4420 C   0  0  0  0  0  3  0  0  0  0  0  0
  185.2400  178.8540  141.9000 N   0  0  0  0  0  0  0  0  0  0  0  0
  187.4470  178.0410  141.9670 N   0  0  0  0  0  0  0  0  0  0  0  0
  186.3010  178.3860  142.6150 C   0  0  0  0  0  0  0  0  0  0  0  0
  186.4710  178.6280  139.8730 C   0  0  0  0  0  3  0  0  0  0  0  0
  187.5570  178.1540  140.6170 C   0  0  0  0  0  0  0  0  0  0  0  0
  185.3050  178.9790  140.5490 C   0  0  0  0  0  3  0  0  0  0  0  0
  187.2340  177.6970  144.7590 C   0  0  0  0  0  3  0  0  0  0  0  0
  186.2170  178.2540  144.0830 C   0  0  0  0  0  0  0  0  0  0  0  0
  187.2180  177.5020  146.2510 C   0  0  1  0  0  3  0  0  0  0  0  0
  184.9140  178.4040  146.2580 C   0  0  0  0  0  2  0  0  0  0  0  0
  185.0420  178.8710  144.8090 C   0  0  0  0  0  2  0  0  0  0  0  0
  188.6180  177.6570  146.8060 C   0  0  0  0  0  1  0  0  0  0  0  0
  186.2710  178.4760  146.9410 C   0  0  0  0  0  2  0  0  0  0  0  0
  189.7610  177.7030  142.1960 O   0  0  0  0  0  0  0  0  0  0  0  0
  190.7600  177.0910  142.9600 C   0  0  2  0  0  3  0  0  0  0  0  0
  190.2660  175.8330  143.4920 N   0  0  0  0  0  1  0  0  0  0  0  0
  191.1700  177.9860  144.0820 C   0  0  0  0  0  0  0  0  0  0  0  0
  190.9880  179.3580  143.9710 O   0  0  0  0  0  0  0  0  0  0  0  0
  191.6800  177.5050  145.1290 O   0  0  0  0  0  1  0  0  0  0  0  0
  1  3  1  0  0  0  0
  2 21  1  1  0  0  0
  3 12  1  1  0  0  0
  3  2  1  0  0  0  0
  4  1  1  0  0  0  0
  5  4  1  0  0  0  0
  5  6  1  0  0  0  0
  6  7  2  0  0  0  0
  7  2  1  0  0  0  0
  8 10  2  0  0  0  0
  9 10  1  0  0  0  0
 10 15  1  0  0  0  0
 11 13  2  0  0  0  0
 11 12  1  0  0  0  0
 12  9  2  0  0  0  0
 13  8  1  0  0  0  0
 14 16  1  0  0  0  0
 15 14  2  0  0  0  0
 15 18  1  0  0  0  0
 16 19  1  1  0  0  0
 16 20  1  0  0  0  0
 17 20  1  0  0  0  0
 18 17  1  0  0  0  0
 21 22  1  0  0  0  0
 22 23  1  1  0  0  0
 22 24  1  0  0  0  0
 24 26  1  0  0  0  0
 25 24  2  0  0  0  0
M  END
>  <MODEL>
5

>  <REMARK>
 VINA RESULT:      -8.2      2.569      4.296
  Name = 
  5 active torsions:
  status: ('A' for Active; 'I' for Inactive)
    1  A    between atoms: C_3  and  C_8
    2  A    between atoms: C_4  and  O_25
    3  A    between atoms: C_5  and  C_20
    4  A    between atoms: C_8  and  O_25
    5  A    between atoms: C_9  and  C_11
                            x       y       z     vdW  Elec       q    Type
                         _______ _______ _______ _____ _____    ______ ____

>  <TORSDO>
F 5

$$$$
=
 OpenBabel11062417153D

 26 28  0  0  1  0  0  0  0  0999 V2000
  185.2790  178.9360  141.1020 C   0  0  0  0  0  2  0  0  0  0  0  0
  182.8140  178.8840  141.7230 C   0  0  1  0  0  3  0  0  0  0  0  0
  184.2130  178.3090  142.0120 C   0  0  2  0  0  3  0  0  0  0  0  0
  184.8430  179.0630  139.6450 C   0  0  0  0  0  2  0  0  0  0  0  0
  184.1510  177.7880  139.1930 C   0  0  0  0  0  2  0  0  0  0  0  0
  182.7250  177.8230  139.4480 N   0  0  0  0  0  0  0  0  0  0  0  0
  182.1430  178.2400  140.5270 C   0  0  0  0  0  3  0  0  0  0  0  0
  185.4250  178.5870  146.0640 N   0  0  0  0  0  0  0  0  0  0  0  0
  185.8660  178.0280  143.8210 N   0  0  0  0  0  0  0  0  0  0  0  0
  186.2750  178.0990  145.1180 C   0  0  0  0  0  0  0  0  0  0  0  0
  183.7420  178.9340  144.4140 C   0  0  0  0  0  3  0  0  0  0  0  0
  184.6250  178.4370  143.4490 C   0  0  0  0  0  0  0  0  0  0  0  0
  184.1750  179.0030  145.7370 C   0  0  0  0  0  3  0  0  0  0  0  0
  188.5620  177.4920  144.5330 C   0  0  0  0  0  3  0  0  0  0  0  0
  187.6320  177.6500  145.4880 C   0  0  0  0  0  0  0  0  0  0  0  0
  189.9590  177.0140  144.8210 C   0  0  1  0  0  3  0  0  0  0  0  0
  189.2910  176.7520  147.1890 C   0  0  0  0  0  2  0  0  0  0  0  0
  187.9840  177.5070  146.9520 C   0  0  0  0  0  2  0  0  0  0  0  0
  190.9350  177.6700  143.8680 C   0  0  0  0  0  1  0  0  0  0  0  0
  190.3690  177.2920  146.2620 C   0  0  0  0  0  2  0  0  0  0  0  0
  181.9660  178.7510  142.8300 O   0  0  0  0  0  0  0  0  0  0  0  0
  180.7040  179.1550  142.3820 C   0  0  2  0  0  3  0  0  0  0  0  0
  180.4300  180.5040  142.8450 N   0  0  0  0  0  1  0  0  0  0  0  0
  179.6540  178.2250  142.8930 C   0  0  0  0  0  0  0  0  0  0  0  0
  179.4120  178.1420  144.2580 O   0  0  0  0  0  1  0  0  0  0  0  0
  178.9860  177.5150  142.0940 O   0  0  0  0  0  0  0  0  0  0  0  0
  1  3  1  0  0  0  0
  2  3  1  0  0  0  0
  2 21  1  1  0  0  0
  3 12  1  1  0  0  0
  4  1  1  0  0  0  0
  5  6  1  0  0  0  0
  5  4  1  0  0  0  0
  6  7  2  0  0  0  0
  7  2  1  0  0  0  0
  9 10  1  0  0  0  0
 10 15  1  0  0  0  0
 10  8  2  0  0  0  0
 11 13  2  0  0  0  0
 12  9  2  0  0  0  0
 12 11  1  0  0  0  0
 13  8  1  0  0  0  0
 14 16  1  0  0  0  0
 14 15  2  0  0  0  0
 15 18  1  0  0  0  0
 16 19  1  6  0  0  0
 16 20  1  0  0  0  0
 18 17  1  0  0  0  0
 20 17  1  0  0  0  0
 22 21  1  0  0  0  0
 22 23  1  1  0  0  0
 22 24  1  0  0  0  0
 24 25  1  0  0  0  0
 26 24  2  0  0  0  0
M  END
>  <MODEL>
6

>  <REMARK>
 VINA RESULT:      -8.1      5.797      8.191
  Name = 
  5 active torsions:
  status: ('A' for Active; 'I' for Inactive)
    1  A    between atoms: C_3  and  C_8
    2  A    between atoms: C_4  and  O_25
    3  A    between atoms: C_5  and  C_20
    4  A    between atoms: C_8  and  O_25
    5  A    between atoms: C_9  and  C_11
                            x       y       z     vdW  Elec       q    Type
                         _______ _______ _______ _____ _____    ______ ____

>  <TORSDO>
F 5

$$$$
=
 OpenBabel11062417153D

 26 28  0  0  1  0  0  0  0  0999 V2000
  189.5730  178.2780  139.2620 C   0  0  0  0  0  2  0  0  0  0  0  0
  187.2510  178.4450  140.2820 C   0  0  1  0  0  3  0  0  0  0  0  0
  188.5270  177.5930  140.1530 C   0  0  2  0  0  3  0  0  0  0  0  0
  188.9900  178.8920  137.9920 C   0  0  0  0  0  2  0  0  0  0  0  0
  187.9990  177.9320  137.3550 C   0  0  0  0  0  2  0  0  0  0  0  0
  186.6550  178.1200  137.8640 N   0  0  0  0  0  0  0  0  0  0  0  0
  186.3140  178.2930  139.1020 C   0  0  0  0  0  3  0  0  0  0  0  0
  190.2130  176.6460  143.9260 N   0  0  0  0  0  0  0  0  0  0  0  0
  188.4340  177.4560  142.6140 N   0  0  0  0  0  0  0  0  0  0  0  0
  188.9580  177.1690  143.8380 C   0  0  0  0  0  0  0  0  0  0  0  0
  190.4310  176.7000  141.5540 C   0  0  0  0  0  3  0  0  0  0  0  0
  189.1380  177.2300  141.4750 C   0  0  0  0  0  0  0  0  0  0  0  0
  190.9530  176.4090  142.8120 C   0  0  0  0  0  3  0  0  0  0  0  0
  188.7570  177.3660  146.2600 C   0  0  0  0  0  3  0  0  0  0  0  0
  188.1640  177.4230  145.0570 C   0  0  0  0  0  0  0  0  0  0  0  0
  188.0160  177.5860  147.5500 C   0  0  1  0  0  3  0  0  0  0  0  0
  185.9390  177.8020  146.2220 C   0  0  0  0  0  2  0  0  0  0  0  0
  186.7270  177.8740  144.9150 C   0  0  0  0  0  2  0  0  0  0  0  0
  188.9240  178.2560  148.5590 C   0  0  0  0  0  1  0  0  0  0  0  0
  186.7560  178.4190  147.3470 C   0  0  0  0  0  2  0  0  0  0  0  0
  186.5430  178.1330  141.4510 O   0  0  0  0  0  0  0  0  0  0  0  0
  185.4530  179.0100  141.4690 C   0  0  2  0  0  3  0  0  0  0  0  0
  185.7100  180.0910  142.4040 N   0  0  0  0  0  1  0  0  0  0  0  0
  184.2140  178.2800  141.8710 C   0  0  0  0  0  0  0  0  0  0  0  0
  183.6900  178.4620  143.1440 O   0  0  0  0  0  1  0  0  0  0  0  0
  183.6400  177.5030  141.0630 O   0  0  0  0  0  0  0  0  0  0  0  0
  1  3  1  0  0  0  0
  2 21  1  1  0  0  0
  3  2  1  0  0  0  0
  3 12  1  1  0  0  0
  4  1  1  0  0  0  0
  5  6  1  0  0  0  0
  5  4  1  0  0  0  0
  6  7  2  0  0  0  0
  7  2  1  0  0  0  0
  9 10  1  0  0  0  0
 10  8  2  0  0  0  0
 10 15  1  0  0  0  0
 11 13  2  0  0  0  0
 12 11  1  0  0  0  0
 12  9  2  0  0  0  0
 13  8  1  0  0  0  0
 14 16  1  0  0  0  0
 15 14  2  0  0  0  0
 16 19  1  1  0  0  0
 17 20  1  0  0  0  0
 18 15  1  0  0  0  0
 18 17  1  0  0  0  0
 20 16  1  0  0  0  0
 21 22  1  0  0  0  0
 22 24  1  0  0  0  0
 22 23  1  1  0  0  0
 24 25  1  0  0  0  0
 26 24  2  0  0  0  0
M  END
>  <MODEL>
7

>  <REMARK>
 VINA RESULT:      -8.0      3.284      4.822
  Name = 
  5 active torsions:
  status: ('A' for Active; 'I' for Inactive)
    1  A    between atoms: C_3  and  C_8
    2  A    between atoms: C_4  and  O_25
    3  A    between atoms: C_5  and  C_20
    4  A    between atoms: C_8  and  O_25
    5  A    between atoms: C_9  and  C_11
                            x       y       z     vdW  Elec       q    Type
                         _______ _______ _______ _____ _____    ______ ____

>  <TORSDO>
F 5

$$$$
=
 OpenBabel11062417153D

 26 28  0  0  1  0  0  0  0  0999 V2000
  182.5580  176.6950  139.1100 C   0  0  0  0  0  2  0  0  0  0  0  0
  181.2520  178.3470  140.5330 C   0  0  1  0  0  3  0  0  0  0  0  0
  182.4080  177.3320  140.4990 C   0  0  2  0  0  3  0  0  0  0  0  0
  181.2300  176.2920  138.4740 C   0  0  0  0  0  2  0  0  0  0  0  0
  180.3440  175.6080  139.5020 C   0  0  0  0  0  2  0  0  0  0  0  0
  179.5190  176.5550  140.2260 N   0  0  0  0  0  0  0  0  0  0  0  0
  179.8940  177.6970  140.7080 C   0  0  0  0  0  3  0  0  0  0  0  0
  186.0740  178.9850  141.8380 N   0  0  0  0  0  0  0  0  0  0  0  0
  184.0780  177.8080  142.2500 N   0  0  0  0  0  0  0  0  0  0  0  0
  185.2460  178.3400  142.7060 C   0  0  0  0  0  0  0  0  0  0  0  0
  184.5600  178.5740  140.0450 C   0  0  0  0  0  3  0  0  0  0  0  0
  183.7200  177.9070  140.9440 C   0  0  0  0  0  0  0  0  0  0  0  0
  185.7530  179.1110  140.5250 C   0  0  0  0  0  3  0  0  0  0  0  0
  186.7630  177.6180  144.4740 C   0  0  0  0  0  3  0  0  0  0  0  0
  185.6070  178.2100  144.1320 C   0  0  0  0  0  0  0  0  0  0  0  0
  187.1930  177.4240  145.9020 C   0  0  1  0  0  3  0  0  0  0  0  0
  185.0310  178.4060  146.5980 C   0  0  0  0  0  2  0  0  0  0  0  0
  184.7290  178.8680  145.1740 C   0  0  0  0  0  2  0  0  0  0  0  0
  188.7000  177.5290  146.0050 C   0  0  0  0  0  1  0  0  0  0  0  0
  186.5340  178.4300  146.8370 C   0  0  0  0  0  2  0  0  0  0  0  0
  181.4250  179.2880  141.5570 O   0  0  0  0  0  0  0  0  0  0  0  0
  180.1930  179.3520  142.2160 C   0  0  2  0  0  3  0  0  0  0  0  0
  179.7680  180.7360  142.3270 N   0  0  0  0  0  1  0  0  0  0  0  0
  180.3050  178.7480  143.5770 C   0  0  0  0  0  0  0  0  0  0  0  0
  181.5380  178.7140  144.2150 O   0  0  0  0  0  1  0  0  0  0  0  0
  179.2900  178.2720  144.1500 O   0  0  0  0  0  0  0  0  0  0  0  0
  1  3  1  0  0  0  0
  2  7  1  0  0  0  0
  2 21  1  1  0  0  0
  3  2  1  0  0  0  0
  3 12  1  6  0  0  0
  4  1  1  0  0  0  0
  4  5  1  0  0  0  0
  5  6  1  0  0  0  0
  6  7  2  0  0  0  0
  8 10  2  0  0  0  0
  9 10  1  0  0  0  0
 10 15  1  0  0  0  0
 11 13  2  0  0  0  0
 11 12  1  0  0  0  0
 12  9  2  0  0  0  0
 13  8  1  0  0  0  0
 14 16  1  0  0  0  0
 15 14  2  0  0  0  0
 15 18  1  0  0  0  0
 16 19  1  6  0  0  0
 16 20  1  0  0  0  0
 17 20  1  0  0  0  0
 18 17  1  0  0  0  0
 21 22  1  0  0  0  0
 22 23  1  1  0  0  0
 22 24  1  0  0  0  0
 24 26  2  0  0  0  0
 24 25  1  0  0  0  0
M  END
>  <MODEL>
8

>  <REMARK>
 VINA RESULT:      -7.9      6.408      8.567
  Name = 
  5 active torsions:
  status: ('A' for Active; 'I' for Inactive)
    1  A    between atoms: C_3  and  C_8
    2  A    between atoms: C_4  and  O_25
    3  A    between atoms: C_5  and  C_20
    4  A    between atoms: C_8  and  O_25
    5  A    between atoms: C_9  and  C_11
                            x       y       z     vdW  Elec       q    Type
                         _______ _______ _______ _____ _____    ______ ____

>  <TORSDO>
F 5

$$$$
=
 OpenBabel11062417153D

 26 28  0  0  1  0  0  0  0  0999 V2000
  186.7310  178.3430  146.5030 C   0  0  0  0  0  2  0  0  0  0  0  0
  188.9350  177.9580  145.2980 C   0  0  1  0  0  3  0  0  0  0  0  0
  187.4280  177.6460  145.3260 C   0  0  2  0  0  3  0  0  0  0  0  0
  187.5060  178.2530  147.8150 C   0  0  0  0  0  2  0  0  0  0  0  0
  188.0430  176.8450  148.0100 C   0  0  0  0  0  2  0  0  0  0  0  0
  189.3550  176.6760  147.4160 N   0  0  0  0  0  0  0  0  0  0  0  0
  189.7380  177.1000  146.2540 C   0  0  0  0  0  3  0  0  0  0  0  0
  185.5250  178.6350  141.6690 N   0  0  0  0  0  0  0  0  0  0  0  0
  187.4190  177.9300  142.8760 N   0  0  0  0  0  0  0  0  0  0  0  0
  186.8330  178.2520  141.6900 C   0  0  0  0  0  0  0  0  0  0  0  0
  185.3850  178.3790  144.0340 C   0  0  0  0  0  3  0  0  0  0  0  0
  186.7260  177.9810  144.0430 C   0  0  0  0  0  0  0  0  0  0  0  0
  184.7970  178.7030  142.8130 C   0  0  0  0  0  3  0  0  0  0  0  0
  188.9330  177.9400  140.4930 C   0  0  0  0  0  3  0  0  0  0  0  0
  187.6140  178.1820  140.4390 C   0  0  0  0  0  0  0  0  0  0  0  0
  189.8050  177.8780  139.2690 C   0  0  1  0  0  3  0  0  0  0  0  0
  187.8170  178.4800  137.9240 C   0  0  0  0  0  2  0  0  0  0  0  0
  186.8860  178.2530  139.1150 C   0  0  0  0  0  2  0  0  0  0  0  0
  190.9100  176.8620  139.4730 C   0  0  0  0  0  1  0  0  0  0  0  0
  189.0060  177.5350  138.0170 C   0  0  0  0  0  2  0  0  0  0  0  0
  189.4680  177.8020  144.0110 O   0  0  0  0  0  0  0  0  0  0  0  0
  190.7880  177.3800  144.2040 C   0  0  2  0  0  3  0  0  0  0  0  0
  191.7000  178.3440  143.6140 N   0  0  0  0  0  1  0  0  0  0  0  0
  190.9970  176.0410  143.5790 C   0  0  0  0  0  0  0  0  0  0  0  0
  192.0560  175.2440  143.9950 O   0  0  0  0  0  1  0  0  0  0  0  0
  190.2190  175.6280  142.6780 O   0  0  0  0  0  0  0  0  0  0  0  0
  1  4  1  0  0  0  0
  2 21  1  6  0  0  0
  2  3  1  0  0  0  0
  2  7  1  0  0  0  0
  3 12  1  6  0  0  0
  3  1  1  0  0  0  0
  4  5  1  0  0  0  0
  6  5  1  0  0  0  0
  7  6  2  0  0  0  0
  8 10  2  0  0  0  0
  8 13  1  0  0  0  0
  9 12  2  0  0  0  0
 10  9  1  0  0  0  0
 11 12  1  0  0  0  0
 13 11  2  0  0  0  0
 15 14  2  0  0  0  0
 15 10  1  0  0  0  0
 16 19  1  1  0  0  0
 16 14  1  0  0  0  0
 17 20  1  0  0  0  0
 17 18  1  0  0  0  0
 18 15  1  0  0  0  0
 20 16  1  0  0  0  0
 21 22  1  0  0  0  0
 22 23  1  6  0  0  0
 24 25  1  0  0  0  0
 24 22  1  0  0  0  0
 26 24  2  0  0  0  0
M  END
>  <MODEL>
9

>  <REMARK>
 VINA RESULT:      -7.9      2.963      7.098
  Name = 
  5 active torsions:
  status: ('A' for Active; 'I' for Inactive)
    1  A    between atoms: C_3  and  C_8
    2  A    between atoms: C_4  and  O_25
    3  A    between atoms: C_5  and  C_20
    4  A    between atoms: C_8  and  O_25
    5  A    between atoms: C_9  and  C_11
                            x       y       z     vdW  Elec       q    Type
                         _______ _______ _______ _____ _____    ______ ____

>  <TORSDO>
F 5

$$$$
