=
 OpenBabel11062413183D

 30 32  0  0  1  0  0  0  0  0999 V2000
  188.9890  178.4780  142.5080 C   0  0  0  0  0  0  0  0  0  0  0  0
  188.1140  178.8500  141.5690 C   0  0  0  0  0  3  0  0  0  0  0  0
  186.6730  178.9840  141.9700 C   0  0  0  0  0  2  0  0  0  0  0  0
  189.7600  177.5350  144.5490 C   0  0  0  0  0  2  0  0  0  0  0  0
  187.2490  177.3050  143.8910 C   0  0  1  0  0  0  0  0  0  0  0  0
  187.5930  175.8540  143.5590 C   0  0  0  0  0  1  0  0  0  0  0  0
  188.5420  178.1740  143.8880 C   0  0  2  0  0  3  0  0  0  0  0  0
  186.2270  177.7780  142.8160 C   0  0  0  0  0  2  0  0  0  0  0  0
  190.9660  177.8920  143.6750 C   0  0  0  0  0  2  0  0  0  0  0  0
  190.4390  178.2480  142.2860 C   0  0  1  0  0  3  0  0  0  0  0  0
  186.6120  177.3600  145.2970 C   0  0  1  0  0  3  0  0  0  0  0  0
  187.6280  177.1970  146.4160 C   0  0  0  0  0  2  0  0  0  0  0  0
  187.0430  177.9520  147.5890 C   0  0  2  0  0  3  0  0  0  0  0  0
  186.2490  179.0920  146.9860 C   0  0  0  0  0  2  0  0  0  0  0  0
  185.8650  178.6600  145.5820 C   0  0  0  0  0  2  0  0  0  0  0  0
  188.1410  178.4990  148.4830 C   0  0  0  0  0  2  0  0  0  0  0  0
  189.4660  177.8330  148.1620 C   0  0  0  0  0  1  0  0  0  0  0  0
  190.5590  175.9220  141.6980 O   0  0  0  0  0  0  0  0  0  0  0  0
  190.6660  177.1210  141.3220 C   0  0  0  0  0  0  0  0  0  0  0  0
  190.9560  177.4270  139.9590 N   0  0  0  0  0  2  0  0  0  0  0  0
  191.1330  176.3900  138.9570 C   0  0  0  0  0  2  0  0  0  0  0  0
  190.2180  176.6480  137.7720 C   0  0  0  0  0  2  0  0  0  0  0  0
  188.8220  177.0470  138.2310 C   0  0  0  0  0  2  0  0  0  0  0  0
  188.3930  178.3470  137.6260 C   0  0  0  0  0  0  0  0  0  0  0  0
  189.0390  179.3630  137.8250 O   0  0  0  0  0  0  0  0  0  0  0  0
  187.1250  178.4150  136.8390 C   0  0  0  0  0  2  0  0  0  0  0  0
  185.2620  177.0610  137.4380 O   0  0  0  0  0  0  0  0  0  0  0  0
  185.9510  178.0810  137.7050 C   0  0  0  0  0  0  0  0  0  0  0  0
  184.2380  179.2620  139.0350 C   0  0  0  0  0  1  0  0  0  0  0  0
  185.5850  178.8870  138.7860 O   0  0  0  0  0  0  0  0  0  0  0  0
  1  7  1  0  0  0  0
  2  3  1  0  0  0  0
  2  1  2  0  0  0  0
  3  8  1  0  0  0  0
  5  6  1  6  0  0  0
  5 11  1  0  0  0  0
  7  5  1  0  0  0  0
  7  4  1  6  0  0  0
  8  5  1  0  0  0  0
  9  4  1  0  0  0  0
 10 19  1  6  0  0  0
 10  1  1  0  0  0  0
 10  9  1  0  0  0  0
 11 15  1  1  0  0  0
 11 12  1  0  0  0  0
 12 13  1  0  0  0  0
 13 16  1  1  0  0  0
 14 13  1  0  0  0  0
 15 14  1  0  0  0  0
 17 16  1  0  0  0  0
 19 18  2  0  0  0  0
 20 19  1  0  0  0  0
 21 20  1  0  0  0  0
 22 23  1  0  0  0  0
 22 21  1  0  0  0  0
 24 25  2  0  0  0  0
 24 23  1  0  0  0  0
 26 24  1  0  0  0  0
 26 28  1  0  0  0  0
 27 28  2  0  0  0  0
 28 30  1  0  0  0  0
 30 29  1  0  0  0  0
M  END
>  <MODEL>
1

>  <REMARK>
 VINA RESULT:      -7.5      0.000      0.000
  Name = 
  10 active torsions:
  status: ('A' for Active; 'I' for Inactive)
    1  A    between atoms: C_1  and  C_3
    2  A    between atoms: C_1  and  C_24
    3  A    between atoms: C_3  and  C_26
    4  A    between atoms: C_4  and  C_13
    5  A    between atoms: C_4  and  C_24
    6  A    between atoms: C_6  and  C_17
    7  A    between atoms: C_11  and  C_19
    8  A    between atoms: C_13  and  N_30
    9  A    between atoms: C_18  and  C_29
   10  A    between atoms: O_23  and  C_26
                            x       y       z     vdW  Elec       q    Type
                         _______ _______ _______ _____ _____    ______ ____

>  <TORSDO>
F 10

$$$$
=
 OpenBabel11062413183D

 30 32  0  0  1  0  0  0  0  0999 V2000
  189.1750  176.4200  143.0370 C   0  0  0  0  0  0  0  0  0  0  0  0
  190.3060  175.8130  142.6680 C   0  0  0  0  0  3  0  0  0  0  0  0
  191.3350  175.5450  143.7280 C   0  0  0  0  0  2  0  0  0  0  0  0
  187.7150  177.7240  144.3880 C   0  0  0  0  0  2  0  0  0  0  0  0
  190.2330  177.5290  145.0300 C   0  0  1  0  0  0  0  0  0  0  0  0
  190.3560  178.9540  144.4940 C   0  0  0  0  0  1  0  0  0  0  0  0
  188.9620  176.8460  144.4420 C   0  0  2  0  0  3  0  0  0  0  0  0
  191.5370  176.7840  144.6190 C   0  0  0  0  0  2  0  0  0  0  0  0
  187.0240  177.4150  143.0560 C   0  0  0  0  0  2  0  0  0  0  0  0
  188.0710  176.8080  142.1230 C   0  0  1  0  0  3  0  0  0  0  0  0
  190.1070  177.5800  146.5680 C   0  0  1  0  0  3  0  0  0  0  0  0
  189.1340  178.6430  147.0490 C   0  0  0  0  0  2  0  0  0  0  0  0
  188.6000  178.1200  148.3640 C   0  0  2  0  0  3  0  0  0  0  0  0
  188.5990  176.6110  148.2320 C   0  0  0  0  0  2  0  0  0  0  0  0
  189.6470  176.2650  147.1910 C   0  0  0  0  0  2  0  0  0  0  0  0
  187.1890  178.6200  148.6150 C   0  0  0  0  0  2  0  0  0  0  0  0
  186.3900  178.6150  147.3250 C   0  0  0  0  0  1  0  0  0  0  0  0
  188.7390  179.0140  141.4470 O   0  0  0  0  0  0  0  0  0  0  0  0
  188.5360  177.8150  141.1130 C   0  0  0  0  0  0  0  0  0  0  0  0
  188.7920  177.3850  139.7770 N   0  0  0  0  0  2  0  0  0  0  0  0
  189.2960  178.2890  138.7580 C   0  0  0  0  0  2  0  0  0  0  0  0
  189.9720  177.5010  137.6490 C   0  0  0  0  0  2  0  0  0  0  0  0
  189.9200  176.0050  137.9260 C   0  0  0  0  0  2  0  0  0  0  0  0
  191.1860  175.3230  137.5140 C   0  0  0  0  0  0  0  0  0  0  0  0
  191.3330  174.1260  137.7040 O   0  0  0  0  0  0  0  0  0  0  0  0
  192.3060  176.1260  136.9360 C   0  0  0  0  0  2  0  0  0  0  0  0
  193.4120  176.8660  138.9090 O   0  0  0  0  0  0  0  0  0  0  0  0
  193.4720  176.1510  137.8740 C   0  0  0  0  0  0  0  0  0  0  0  0
  194.9250  174.1940  138.2700 C   0  0  0  0  0  1  0  0  0  0  0  0
  194.6350  175.4210  137.6160 O   0  0  0  0  0  0  0  0  0  0  0  0
  1  7  1  0  0  0  0
  2  1  2  0  0  0  0
  2  3  1  0  0  0  0
  3  8  1  0  0  0  0
  5  6  1  6  0  0  0
  5 11  1  0  0  0  0
  7  4  1  6  0  0  0
  7  5  1  0  0  0  0
  8  5  1  0  0  0  0
  9  4  1  0  0  0  0
 10 19  1  6  0  0  0
 10  1  1  0  0  0  0
 10  9  1  0  0  0  0
 11 12  1  6  0  0  0
 11 15  1  0  0  0  0
 12 13  1  0  0  0  0
 13 16  1  6  0  0  0
 14 13  1  0  0  0  0
 15 14  1  0  0  0  0
 17 16  1  0  0  0  0
 19 18  2  0  0  0  0
 20 19  1  0  0  0  0
 21 20  1  0  0  0  0
 22 23  1  0  0  0  0
 22 21  1  0  0  0  0
 24 25  2  0  0  0  0
 24 23  1  0  0  0  0
 26 24  1  0  0  0  0
 26 28  1  0  0  0  0
 28 27  2  0  0  0  0
 30 28  1  0  0  0  0
 30 29  1  0  0  0  0
M  END
>  <MODEL>
2

>  <REMARK>
 VINA RESULT:      -7.0      2.381      4.817
  Name = 
  10 active torsions:
  status: ('A' for Active; 'I' for Inactive)
    1  A    between atoms: C_1  and  C_3
    2  A    between atoms: C_1  and  C_24
    3  A    between atoms: C_3  and  C_26
    4  A    between atoms: C_4  and  C_13
    5  A    between atoms: C_4  and  C_24
    6  A    between atoms: C_6  and  C_17
    7  A    between atoms: C_11  and  C_19
    8  A    between atoms: C_13  and  N_30
    9  A    between atoms: C_18  and  C_29
   10  A    between atoms: O_23  and  C_26
                            x       y       z     vdW  Elec       q    Type
                         _______ _______ _______ _____ _____    ______ ____

>  <TORSDO>
F 10

$$$$
=
 OpenBabel11062413183D

 30 32  0  0  1  0  0  0  0  0999 V2000
  188.9260  178.4330  142.4710 C   0  0  0  0  0  0  0  0  0  0  0  0
  188.0480  178.7800  141.5260 C   0  0  0  0  0  3  0  0  0  0  0  0
  186.6090  178.9290  141.9290 C   0  0  0  0  0  2  0  0  0  0  0  0
  189.7030  177.5470  144.5360 C   0  0  0  0  0  2  0  0  0  0  0  0
  187.1890  177.3060  143.8960 C   0  0  1  0  0  0  0  0  0  0  0  0
  187.5280  175.8450  143.6050 C   0  0  0  0  0  1  0  0  0  0  0  0
  188.4840  178.1700  143.8620 C   0  0  2  0  0  3  0  0  0  0  0  0
  186.1630  177.7510  142.8120 C   0  0  0  0  0  2  0  0  0  0  0  0
  190.9060  177.8750  143.6470 C   0  0  0  0  0  2  0  0  0  0  0  0
  190.3750  178.1920  142.2500 C   0  0  1  0  0  3  0  0  0  0  0  0
  186.5590  177.4030  145.3020 C   0  0  1  0  0  3  0  0  0  0  0  0
  187.5690  177.2110  146.4210 C   0  0  0  0  0  2  0  0  0  0  0  0
  187.0200  178.0020  147.5870 C   0  0  2  0  0  3  0  0  0  0  0  0
  186.2730  179.1680  146.9720 C   0  0  0  0  0  2  0  0  0  0  0  0
  185.8670  178.7360  145.5740 C   0  0  0  0  0  2  0  0  0  0  0  0
  188.1410  178.5140  148.4720 C   0  0  0  0  0  2  0  0  0  0  0  0
  189.4450  177.8180  148.1290 C   0  0  0  0  0  1  0  0  0  0  0  0
  190.5440  175.8510  141.7430 O   0  0  0  0  0  0  0  0  0  0  0  0
  190.5940  177.0380  141.3180 C   0  0  0  0  0  0  0  0  0  0  0  0
  190.8100  177.3000  139.9330 N   0  0  0  0  0  2  0  0  0  0  0  0
  190.9760  176.2320  138.9620 C   0  0  0  0  0  2  0  0  0  0  0  0
  192.2350  176.4610  138.1450 C   0  0  0  0  0  2  0  0  0  0  0  0
  192.8840  175.1400  137.7520 C   0  0  0  0  0  2  0  0  0  0  0  0
  194.2330  175.3490  137.1390 C   0  0  0  0  0  0  0  0  0  0  0  0
  194.5140  176.4140  136.6130 O   0  0  0  0  0  0  0  0  0  0  0  0
  195.2130  174.2210  137.1020 C   0  0  0  0  0  2  0  0  0  0  0  0
  195.8630  173.7900  139.3500 O   0  0  0  0  0  0  0  0  0  0  0  0
  196.1690  174.3200  138.2490 C   0  0  0  0  0  0  0  0  0  0  0  0
  198.3550  175.0070  139.1690 C   0  0  0  0  0  1  0  0  0  0  0  0
  197.3800  175.0070  138.1360 O   0  0  0  0  0  0  0  0  0  0  0  0
  1  7  1  0  0  0  0
  2  3  1  0  0  0  0
  2  1  2  0  0  0  0
  3  8  1  0  0  0  0
  5  6  1  6  0  0  0
  5 11  1  0  0  0  0
  7  5  1  0  0  0  0
  7  4  1  1  0  0  0
  8  5  1  0  0  0  0
  9  4  1  0  0  0  0
 10 19  1  6  0  0  0
 10  1  1  0  0  0  0
 10  9  1  0  0  0  0
 11 15  1  1  0  0  0
 11 12  1  0  0  0  0
 12 13  1  0  0  0  0
 13 16  1  1  0  0  0
 14 13  1  0  0  0  0
 15 14  1  0  0  0  0
 17 16  1  0  0  0  0
 19 18  2  0  0  0  0
 20 19  1  0  0  0  0
 21 20  1  0  0  0  0
 22 21  1  0  0  0  0
 23 22  1  0  0  0  0
 24 23  1  0  0  0  0
 25 24  2  0  0  0  0
 26 24  1  0  0  0  0
 26 28  1  0  0  0  0
 28 27  2  0  0  0  0
 30 28  1  0  0  0  0
 30 29  1  0  0  0  0
M  END
>  <MODEL>
3

>  <REMARK>
 VINA RESULT:      -7.0      2.998      5.193
  Name = 
  10 active torsions:
  status: ('A' for Active; 'I' for Inactive)
    1  A    between atoms: C_1  and  C_3
    2  A    between atoms: C_1  and  C_24
    3  A    between atoms: C_3  and  C_26
    4  A    between atoms: C_4  and  C_13
    5  A    between atoms: C_4  and  C_24
    6  A    between atoms: C_6  and  C_17
    7  A    between atoms: C_11  and  C_19
    8  A    between atoms: C_13  and  N_30
    9  A    between atoms: C_18  and  C_29
   10  A    between atoms: O_23  and  C_26
                            x       y       z     vdW  Elec       q    Type
                         _______ _______ _______ _____ _____    ______ ____

>  <TORSDO>
F 10

$$$$
=
 OpenBabel11062413183D

 30 32  0  0  1  0  0  0  0  0999 V2000
  189.6220  176.2420  143.1490 C   0  0  0  0  0  0  0  0  0  0  0  0
  190.7950  175.6100  143.0570 C   0  0  0  0  0  3  0  0  0  0  0  0
  191.6120  175.4650  144.3090 C   0  0  0  0  0  2  0  0  0  0  0  0
  187.9540  177.6660  144.0680 C   0  0  0  0  0  2  0  0  0  0  0  0
  190.3110  177.5630  145.1740 C   0  0  1  0  0  0  0  0  0  0  0  0
  190.5430  178.9260  144.5240 C   0  0  0  0  0  1  0  0  0  0  0  0
  189.1620  176.8110  144.4390 C   0  0  2  0  0  3  0  0  0  0  0  0
  191.6610  176.7910  145.0870 C   0  0  0  0  0  2  0  0  0  0  0  0
  187.5140  177.2130  142.6720 C   0  0  0  0  0  2  0  0  0  0  0  0
  188.7070  176.5230  142.0140 C   0  0  1  0  0  3  0  0  0  0  0  0
  189.9080  177.7730  146.6500 C   0  0  1  0  0  3  0  0  0  0  0  0
  188.7500  178.7430  146.8170 C   0  0  0  0  0  2  0  0  0  0  0  0
  188.0540  178.3070  148.0870 C   0  0  2  0  0  3  0  0  0  0  0  0
  188.2480  176.8070  148.1640 C   0  0  0  0  0  2  0  0  0  0  0  0
  189.4970  176.4880  147.3630 C   0  0  0  0  0  2  0  0  0  0  0  0
  186.5730  178.6370  148.0350 C   0  0  0  0  0  2  0  0  0  0  0  0
  186.0900  178.6710  146.5960 C   0  0  0  0  0  1  0  0  0  0  0  0
  190.5570  177.7870  141.1480 O   0  0  0  0  0  0  0  0  0  0  0  0
  189.3570  177.4220  141.0050 C   0  0  0  0  0  0  0  0  0  0  0  0
  188.6140  177.8210  139.8550 N   0  0  0  0  0  2  0  0  0  0  0  0
  189.1950  178.6450  138.8090 C   0  0  0  0  0  2  0  0  0  0  0  0
  188.6660  178.2150  137.4520 C   0  0  0  0  0  2  0  0  0  0  0  0
  187.5510  177.1870  137.5960 C   0  0  0  0  0  2  0  0  0  0  0  0
  187.9670  175.8470  137.0760 C   0  0  0  0  0  0  0  0  0  0  0  0
  187.2060  174.8950  137.1430 O   0  0  0  0  0  0  0  0  0  0  0  0
  189.3490  175.6560  136.5410 C   0  0  0  0  0  2  0  0  0  0  0  0
  190.2240  173.6130  137.3900 O   0  0  0  0  0  0  0  0  0  0  0  0
  190.1790  174.8660  137.5040 C   0  0  0  0  0  0  0  0  0  0  0  0
  192.0190  176.3030  138.3080 C   0  0  0  0  0  1  0  0  0  0  0  0
  190.8840  175.4810  138.5410 O   0  0  0  0  0  0  0  0  0  0  0  0
  1  7  1  0  0  0  0
  2  1  2  0  0  0  0
  2  3  1  0  0  0  0
  3  8  1  0  0  0  0
  5  6  1  6  0  0  0
  5 11  1  0  0  0  0
  7  4  1  6  0  0  0
  7  5  1  0  0  0  0
  8  5  1  0  0  0  0
  9  4  1  0  0  0  0
 10 19  1  6  0  0  0
 10  9  1  0  0  0  0
 10  1  1  0  0  0  0
 11 12  1  6  0  0  0
 11 15  1  0  0  0  0
 12 13  1  0  0  0  0
 13 16  1  6  0  0  0
 13 14  1  0  0  0  0
 15 14  1  0  0  0  0
 17 16  1  0  0  0  0
 19 18  2  0  0  0  0
 20 19  1  0  0  0  0
 21 20  1  0  0  0  0
 22 23  1  0  0  0  0
 22 21  1  0  0  0  0
 24 25  2  0  0  0  0
 24 23  1  0  0  0  0
 26 24  1  0  0  0  0
 26 28  1  0  0  0  0
 27 28  2  0  0  0  0
 28 30  1  0  0  0  0
 29 30  1  0  0  0  0
M  END
>  <MODEL>
4

>  <REMARK>
 VINA RESULT:      -6.9      2.018      3.962
  Name = 
  10 active torsions:
  status: ('A' for Active; 'I' for Inactive)
    1  A    between atoms: C_1  and  C_3
    2  A    between atoms: C_1  and  C_24
    3  A    between atoms: C_3  and  C_26
    4  A    between atoms: C_4  and  C_13
    5  A    between atoms: C_4  and  C_24
    6  A    between atoms: C_6  and  C_17
    7  A    between atoms: C_11  and  C_19
    8  A    between atoms: C_13  and  N_30
    9  A    between atoms: C_18  and  C_29
   10  A    between atoms: O_23  and  C_26
                            x       y       z     vdW  Elec       q    Type
                         _______ _______ _______ _____ _____    ______ ____

>  <TORSDO>
F 10

$$$$
=
 OpenBabel11062413183D

 30 32  0  0  1  0  0  0  0  0999 V2000
  190.2420  176.0250  143.4300 C   0  0  0  0  0  0  0  0  0  0  0  0
  191.3940  175.4500  143.7870 C   0  0  0  0  0  3  0  0  0  0  0  0
  191.8110  175.5520  145.2260 C   0  0  0  0  0  2  0  0  0  0  0  0
  188.3730  177.4860  143.5780 C   0  0  0  0  0  2  0  0  0  0  0  0
  190.3060  177.6890  145.3130 C   0  0  1  0  0  0  0  0  0  0  0  0
  190.7120  178.9400  144.5350 C   0  0  0  0  0  1  0  0  0  0  0  0
  189.4240  176.7680  144.4190 C   0  0  2  0  0  3  0  0  0  0  0  0
  191.6260  176.9870  145.7480 C   0  0  0  0  0  2  0  0  0  0  0  0
  188.3600  176.7920  142.2120 C   0  0  0  0  0  2  0  0  0  0  0  0
  189.6960  176.0690  142.0500 C   0  0  1  0  0  3  0  0  0  0  0  0
  189.4900  178.1120  146.5530 C   0  0  1  0  0  3  0  0  0  0  0  0
  188.0840  178.5740  146.2100 C   0  0  0  0  0  2  0  0  0  0  0  0
  187.2560  178.2590  147.4360 C   0  0  2  0  0  3  0  0  0  0  0  0
  187.8870  177.0250  148.0470 C   0  0  0  0  0  2  0  0  0  0  0  0
  189.3350  177.0070  147.5940 C   0  0  0  0  0  2  0  0  0  0  0  0
  185.8140  177.9730  147.0590 C   0  0  0  0  0  2  0  0  0  0  0  0
  185.4830  178.6050  145.7200 C   0  0  0  0  0  1  0  0  0  0  0  0
  191.2100  177.8610  141.5350 O   0  0  0  0  0  0  0  0  0  0  0  0
  190.6080  176.8270  141.1330 C   0  0  0  0  0  0  0  0  0  0  0  0
  190.8230  176.3360  139.8120 N   0  0  0  0  0  2  0  0  0  0  0  0
  191.7340  176.9860  138.8850 C   0  0  0  0  0  2  0  0  0  0  0  0
  191.4680  176.5060  137.4690 C   0  0  0  0  0  2  0  0  0  0  0  0
  190.1490  175.7500  137.3820 C   0  0  0  0  0  2  0  0  0  0  0  0
  189.0370  176.6330  136.9120 C   0  0  0  0  0  0  0  0  0  0  0  0
  189.1830  177.3400  135.9270 O   0  0  0  0  0  0  0  0  0  0  0  0
  187.7670  176.7070  137.6960 C   0  0  0  0  0  2  0  0  0  0  0  0
  188.4700  178.6330  138.9030 O   0  0  0  0  0  0  0  0  0  0  0  0
  187.5570  178.0910  138.2250 C   0  0  0  0  0  0  0  0  0  0  0  0
  185.1290  178.3720  138.5720 C   0  0  0  0  0  1  0  0  0  0  0  0
  186.3650  178.7860  138.0080 O   0  0  0  0  0  0  0  0  0  0  0  0
  1  2  2  0  0  0  0
  1  7  1  0  0  0  0
  2  3  1  0  0  0  0
  3  8  1  0  0  0  0
  5  6  1  6  0  0  0
  5  8  1  0  0  0  0
  5 11  1  0  0  0  0
  7  4  1  6  0  0  0
  7  5  1  0  0  0  0
  9  4  1  0  0  0  0
 10 19  1  6  0  0  0
 10  9  1  0  0  0  0
 10  1  1  0  0  0  0
 11 12  1  6  0  0  0
 11 15  1  0  0  0  0
 12 13  1  0  0  0  0
 13 16  1  6  0  0  0
 13 14  1  0  0  0  0
 15 14  1  0  0  0  0
 17 16  1  0  0  0  0
 19 18  2  0  0  0  0
 20 19  1  0  0  0  0
 21 20  1  0  0  0  0
 22 21  1  0  0  0  0
 23 22  1  0  0  0  0
 24 23  1  0  0  0  0
 24 26  1  0  0  0  0
 25 24  2  0  0  0  0
 26 28  1  0  0  0  0
 28 27  2  0  0  0  0
 30 28  1  0  0  0  0
 30 29  1  0  0  0  0
M  END
>  <MODEL>
5

>  <REMARK>
 VINA RESULT:      -6.8      1.518      3.132
  Name = 
  10 active torsions:
  status: ('A' for Active; 'I' for Inactive)
    1  A    between atoms: C_1  and  C_3
    2  A    between atoms: C_1  and  C_24
    3  A    between atoms: C_3  and  C_26
    4  A    between atoms: C_4  and  C_13
    5  A    between atoms: C_4  and  C_24
    6  A    between atoms: C_6  and  C_17
    7  A    between atoms: C_11  and  C_19
    8  A    between atoms: C_13  and  N_30
    9  A    between atoms: C_18  and  C_29
   10  A    between atoms: O_23  and  C_26
                            x       y       z     vdW  Elec       q    Type
                         _______ _______ _______ _____ _____    ______ ____

>  <TORSDO>
F 10

$$$$
=
 OpenBabel11062413183D

 30 32  0  0  1  0  0  0  0  0999 V2000
  189.3020  176.4090  143.0380 C   0  0  0  0  0  0  0  0  0  0  0  0
  190.4620  175.8700  142.6520 C   0  0  0  0  0  3  0  0  0  0  0  0
  191.5050  175.6270  143.7040 C   0  0  0  0  0  2  0  0  0  0  0  0
  187.7810  177.6000  144.4230 C   0  0  0  0  0  2  0  0  0  0  0  0
  190.3060  177.5170  145.0590 C   0  0  1  0  0  0  0  0  0  0  0  0
  190.3560  178.9610  144.5610 C   0  0  0  0  0  1  0  0  0  0  0  0
  189.0710  176.7860  144.4530 C   0  0  2  0  0  3  0  0  0  0  0  0
  191.6460  176.8510  144.6280 C   0  0  0  0  0  2  0  0  0  0  0  0
  187.1040  177.2920  143.0840 C   0  0  0  0  0  2  0  0  0  0  0  0
  188.1780  176.7650  142.1350 C   0  0  1  0  0  3  0  0  0  0  0  0
  190.1810  177.5210  146.5980 C   0  0  1  0  0  3  0  0  0  0  0  0
  189.2380  178.5950  147.1140 C   0  0  0  0  0  2  0  0  0  0  0  0
  188.6890  178.0440  148.4110 C   0  0  2  0  0  3  0  0  0  0  0  0
  188.6440  176.5410  148.2300 C   0  0  0  0  0  2  0  0  0  0  0  0
  189.6830  176.2000  147.1770 C   0  0  0  0  0  2  0  0  0  0  0  0
  187.2920  178.5760  148.6790 C   0  0  0  0  0  2  0  0  0  0  0  0
  186.4660  178.5530  147.4060 C   0  0  0  0  0  1  0  0  0  0  0  0
  188.9560  178.9600  141.5480 O   0  0  0  0  0  0  0  0  0  0  0  0
  188.5900  177.8200  141.1510 C   0  0  0  0  0  0  0  0  0  0  0  0
  188.6070  177.4990  139.7620 N   0  0  0  0  0  2  0  0  0  0  0  0
  189.0450  178.4510  138.7550 C   0  0  0  0  0  2  0  0  0  0  0  0
  188.4740  178.0750  137.3990 C   0  0  0  0  0  2  0  0  0  0  0  0
  187.0720  178.6410  137.2150 C   0  0  0  0  0  2  0  0  0  0  0  0
  186.0220  177.6070  137.4730 C   0  0  0  0  0  0  0  0  0  0  0  0
  186.2530  176.4270  137.2670 O   0  0  0  0  0  0  0  0  0  0  0  0
  184.6580  178.0310  137.9120 C   0  0  0  0  0  2  0  0  0  0  0  0
  184.4810  180.1850  138.9070 O   0  0  0  0  0  0  0  0  0  0  0  0
  184.7490  178.9660  139.0770 C   0  0  0  0  0  0  0  0  0  0  0  0
  184.3120  178.6320  141.4840 C   0  0  0  0  0  1  0  0  0  0  0  0
  185.1480  178.5260  140.3410 O   0  0  0  0  0  0  0  0  0  0  0  0
  1  7  1  0  0  0  0
  2  1  2  0  0  0  0
  2  3  1  0  0  0  0
  3  8  1  0  0  0  0
  5  6  1  6  0  0  0
  5 11  1  0  0  0  0
  7  4  1  6  0  0  0
  7  5  1  0  0  0  0
  8  5  1  0  0  0  0
  9  4  1  0  0  0  0
 10 19  1  6  0  0  0
 10  1  1  0  0  0  0
 10  9  1  0  0  0  0
 11 12  1  6  0  0  0
 11 15  1  0  0  0  0
 12 13  1  0  0  0  0
 13 16  1  6  0  0  0
 14 13  1  0  0  0  0
 15 14  1  0  0  0  0
 17 16  1  0  0  0  0
 19 18  2  0  0  0  0
 20 19  1  0  0  0  0
 21 20  1  0  0  0  0
 22 21  1  0  0  0  0
 23 22  1  0  0  0  0
 23 24  1  0  0  0  0
 24 26  1  0  0  0  0
 25 24  2  0  0  0  0
 26 28  1  0  0  0  0
 27 28  2  0  0  0  0
 28 30  1  0  0  0  0
 30 29  1  0  0  0  0
M  END
>  <MODEL>
6

>  <REMARK>
 VINA RESULT:      -6.7      1.728      3.262
  Name = 
  10 active torsions:
  status: ('A' for Active; 'I' for Inactive)
    1  A    between atoms: C_1  and  C_3
    2  A    between atoms: C_1  and  C_24
    3  A    between atoms: C_3  and  C_26
    4  A    between atoms: C_4  and  C_13
    5  A    between atoms: C_4  and  C_24
    6  A    between atoms: C_6  and  C_17
    7  A    between atoms: C_11  and  C_19
    8  A    between atoms: C_13  and  N_30
    9  A    between atoms: C_18  and  C_29
   10  A    between atoms: O_23  and  C_26
                            x       y       z     vdW  Elec       q    Type
                         _______ _______ _______ _____ _____    ______ ____

>  <TORSDO>
F 10

$$$$
=
 OpenBabel11062413183D

 30 32  0  0  1  0  0  0  0  0999 V2000
  189.8180  177.9250  140.5280 C   0  0  0  0  0  0  0  0  0  0  0  0
  188.4960  178.0860  140.4330 C   0  0  0  0  0  3  0  0  0  0  0  0
  187.7300  178.3460  141.6990 C   0  0  0  0  0  2  0  0  0  0  0  0
  191.9130  177.4730  141.5580 C   0  0  0  0  0  2  0  0  0  0  0  0
  189.7140  177.1570  142.9200 C   0  0  1  0  0  0  0  0  0  0  0  0
  189.9470  175.6600  142.7180 C   0  0  0  0  0  1  0  0  0  0  0  0
  190.4990  177.9670  141.8450 C   0  0  2  0  0  3  0  0  0  0  0  0
  188.1780  177.3870  142.8160 C   0  0  0  0  0  2  0  0  0  0  0  0
  192.1120  177.5820  140.0430 C   0  0  0  0  0  2  0  0  0  0  0  0
  190.7280  177.6120  139.3970 C   0  0  1  0  0  3  0  0  0  0  0  0
  190.2230  177.5590  144.3210 C   0  0  1  0  0  3  0  0  0  0  0  0
  189.0990  177.8670  145.2950 C   0  0  0  0  0  2  0  0  0  0  0  0
  189.6590  177.5340  146.6600 C   0  0  2  0  0  3  0  0  0  0  0  0
  190.6330  176.3960  146.4330 C   0  0  0  0  0  2  0  0  0  0  0  0
  191.0890  176.4940  144.9890 C   0  0  0  0  0  2  0  0  0  0  0  0
  188.5580  177.0930  147.6060 C   0  0  0  0  0  2  0  0  0  0  0  0
  188.3920  178.1010  148.7290 C   0  0  0  0  0  1  0  0  0  0  0  0
  191.0490  175.2510  139.0930 O   0  0  0  0  0  0  0  0  0  0  0  0
  190.3930  176.2840  138.7860 C   0  0  0  0  0  0  0  0  0  0  0  0
  189.2880  176.1960  137.8890 N   0  0  0  0  0  2  0  0  0  0  0  0
  188.8690  174.9360  137.3000 C   0  0  0  0  0  2  0  0  0  0  0  0
  187.8230  175.1820  136.2270 C   0  0  0  0  0  2  0  0  0  0  0  0
  186.4930  175.5990  136.8400 C   0  0  0  0  0  2  0  0  0  0  0  0
  186.1450  177.0130  136.4950 C   0  0  0  0  0  0  0  0  0  0  0  0
  185.7620  177.2980  135.3710 O   0  0  0  0  0  0  0  0  0  0  0  0
  186.3400  178.0920  137.5090 C   0  0  0  0  0  2  0  0  0  0  0  0
  184.1070  177.5310  138.1080 O   0  0  0  0  0  0  0  0  0  0  0  0
  185.1060  178.2630  138.3380 C   0  0  0  0  0  0  0  0  0  0  0  0
  184.3560  178.9960  140.5730 C   0  0  0  0  0  1  0  0  0  0  0  0
  185.0250  179.2300  139.3430 O   0  0  0  0  0  0  0  0  0  0  0  0
  1  7  1  0  0  0  0
  2  1  2  0  0  0  0
  2  3  1  0  0  0  0
  3  8  1  0  0  0  0
  5  6  1  6  0  0  0
  5 11  1  0  0  0  0
  7  4  1  6  0  0  0
  7  5  1  0  0  0  0
  8  5  1  0  0  0  0
  9  4  1  0  0  0  0
 10 19  1  1  0  0  0
 10  9  1  0  0  0  0
 10  1  1  0  0  0  0
 11 15  1  1  0  0  0
 11 12  1  0  0  0  0
 12 13  1  0  0  0  0
 13 16  1  1  0  0  0
 14 13  1  0  0  0  0
 15 14  1  0  0  0  0
 16 17  1  0  0  0  0
 19 18  2  0  0  0  0
 20 19  1  0  0  0  0
 21 20  1  0  0  0  0
 22 23  1  0  0  0  0
 22 21  1  0  0  0  0
 24 23  1  0  0  0  0
 24 26  1  0  0  0  0
 25 24  2  0  0  0  0
 26 28  1  0  0  0  0
 27 28  2  0  0  0  0
 28 30  1  0  0  0  0
 30 29  1  0  0  0  0
M  END
>  <MODEL>
7

>  <REMARK>
 VINA RESULT:      -6.7      1.837      2.886
  Name = 
  10 active torsions:
  status: ('A' for Active; 'I' for Inactive)
    1  A    between atoms: C_1  and  C_3
    2  A    between atoms: C_1  and  C_24
    3  A    between atoms: C_3  and  C_26
    4  A    between atoms: C_4  and  C_13
    5  A    between atoms: C_4  and  C_24
    6  A    between atoms: C_6  and  C_17
    7  A    between atoms: C_11  and  C_19
    8  A    between atoms: C_13  and  N_30
    9  A    between atoms: C_18  and  C_29
   10  A    between atoms: O_23  and  C_26
                            x       y       z     vdW  Elec       q    Type
                         _______ _______ _______ _____ _____    ______ ____

>  <TORSDO>
F 10

$$$$
=
 OpenBabel11062413183D

 30 32  0  0  1  0  0  0  0  0999 V2000
  190.3300  176.0080  143.5910 C   0  0  0  0  0  0  0  0  0  0  0  0
  191.4980  175.4660  143.9480 C   0  0  0  0  0  3  0  0  0  0  0  0
  191.9080  175.5740  145.3890 C   0  0  0  0  0  2  0  0  0  0  0  0
  188.4180  177.4120  143.7400 C   0  0  0  0  0  2  0  0  0  0  0  0
  190.3390  177.6650  145.4820 C   0  0  1  0  0  0  0  0  0  0  0  0
  190.7090  178.9310  144.7110 C   0  0  0  0  0  1  0  0  0  0  0  0
  189.4880  176.7220  144.5810 C   0  0  2  0  0  3  0  0  0  0  0  0
  191.6790  177.0010  145.9180 C   0  0  0  0  0  2  0  0  0  0  0  0
  188.4290  176.7240  142.3720 C   0  0  0  0  0  2  0  0  0  0  0  0
  189.7870  176.0420  142.2100 C   0  0  1  0  0  3  0  0  0  0  0  0
  189.5080  178.0580  146.7220 C   0  0  1  0  0  3  0  0  0  0  0  0
  188.1450  178.6280  146.3670 C   0  0  0  0  0  2  0  0  0  0  0  0
  187.2580  178.2870  147.5440 C   0  0  2  0  0  3  0  0  0  0  0  0
  187.7910  176.9790  148.0900 C   0  0  0  0  0  2  0  0  0  0  0  0
  189.2510  176.9000  147.6810 C   0  0  0  0  0  2  0  0  0  0  0  0
  185.8150  178.1160  147.1050 C   0  0  0  0  0  2  0  0  0  0  0  0
  185.6890  178.3350  145.6080 C   0  0  0  0  0  1  0  0  0  0  0  0
  191.2490  177.8800  141.7080 O   0  0  0  0  0  0  0  0  0  0  0  0
  190.6780  176.8320  141.2990 C   0  0  0  0  0  0  0  0  0  0  0  0
  190.9100  176.3540  139.9750 N   0  0  0  0  0  2  0  0  0  0  0  0
  191.8030  177.0350  139.0540 C   0  0  0  0  0  2  0  0  0  0  0  0
  191.6830  176.4290  137.6660 C   0  0  0  0  0  2  0  0  0  0  0  0
  192.3360  175.0550  137.6070 C   0  0  0  0  0  2  0  0  0  0  0  0
  193.8170  175.1560  137.4120 C   0  0  0  0  0  0  0  0  0  0  0  0
  194.2970  176.1000  136.8050 O   0  0  0  0  0  0  0  0  0  0  0  0
  194.7040  174.0560  137.8970 C   0  0  0  0  0  2  0  0  0  0  0  0
  196.9900  174.7160  137.8640 O   0  0  0  0  0  0  0  0  0  0  0  0
  195.9320  174.6180  138.5410 C   0  0  0  0  0  0  0  0  0  0  0  0
  197.1460  175.2500  140.5960 C   0  0  0  0  0  1  0  0  0  0  0  0
  195.9420  175.0140  139.8810 O   0  0  0  0  0  0  0  0  0  0  0  0
  1  2  2  0  0  0  0
  1  7  1  0  0  0  0
  2  3  1  0  0  0  0
  3  8  1  0  0  0  0
  5  6  1  6  0  0  0
  5  8  1  0  0  0  0
  5 11  1  0  0  0  0
  7  4  1  6  0  0  0
  7  5  1  0  0  0  0
  9  4  1  0  0  0  0
 10 19  1  6  0  0  0
 10  9  1  0  0  0  0
 10  1  1  0  0  0  0
 11 12  1  6  0  0  0
 11 15  1  0  0  0  0
 12 13  1  0  0  0  0
 13 16  1  6  0  0  0
 13 14  1  0  0  0  0
 15 14  1  0  0  0  0
 17 16  1  0  0  0  0
 19 18  2  0  0  0  0
 20 19  1  0  0  0  0
 21 20  1  0  0  0  0
 22 21  1  0  0  0  0
 23 22  1  0  0  0  0
 24 23  1  0  0  0  0
 24 26  1  0  0  0  0
 25 24  2  0  0  0  0
 26 28  1  0  0  0  0
 27 28  2  0  0  0  0
 28 30  1  0  0  0  0
 30 29  1  0  0  0  0
M  END
>  <MODEL>
8

>  <REMARK>
 VINA RESULT:      -6.6      3.071      5.764
  Name = 
  10 active torsions:
  status: ('A' for Active; 'I' for Inactive)
    1  A    between atoms: C_1  and  C_3
    2  A    between atoms: C_1  and  C_24
    3  A    between atoms: C_3  and  C_26
    4  A    between atoms: C_4  and  C_13
    5  A    between atoms: C_4  and  C_24
    6  A    between atoms: C_6  and  C_17
    7  A    between atoms: C_11  and  C_19
    8  A    between atoms: C_13  and  N_30
    9  A    between atoms: C_18  and  C_29
   10  A    between atoms: O_23  and  C_26
                            x       y       z     vdW  Elec       q    Type
                         _______ _______ _______ _____ _____    ______ ____

>  <TORSDO>
F 10

$$$$
=
 OpenBabel11062413183D

 30 32  0  0  1  0  0  0  0  0999 V2000
  188.7560  178.4700  142.3830 C   0  0  0  0  0  0  0  0  0  0  0  0
  187.8560  178.7680  141.4420 C   0  0  0  0  0  3  0  0  0  0  0  0
  186.4210  178.9000  141.8630 C   0  0  0  0  0  2  0  0  0  0  0  0
  189.5830  177.6670  144.4620 C   0  0  0  0  0  2  0  0  0  0  0  0
  187.0660  177.3520  143.8700 C   0  0  1  0  0  0  0  0  0  0  0  0
  187.4310  175.8900  143.6190 C   0  0  0  0  0  1  0  0  0  0  0  0
  188.3410  178.2420  143.7890 C   0  0  2  0  0  3  0  0  0  0  0  0
  186.0140  177.7400  142.7890 C   0  0  0  0  0  2  0  0  0  0  0  0
  190.7660  177.9910  143.5440 C   0  0  0  0  0  2  0  0  0  0  0  0
  190.2060  178.2530  142.1470 C   0  0  1  0  0  3  0  0  0  0  0  0
  186.4550  177.4800  145.2820 C   0  0  1  0  0  3  0  0  0  0  0  0
  187.4690  177.2500  146.3910 C   0  0  0  0  0  2  0  0  0  0  0  0
  186.9650  178.0680  147.5590 C   0  0  2  0  0  3  0  0  0  0  0  0
  186.2600  179.2610  146.9480 C   0  0  0  0  0  2  0  0  0  0  0  0
  185.8230  178.8420  145.5570 C   0  0  0  0  0  2  0  0  0  0  0  0
  188.1160  178.5350  148.4310 C   0  0  0  0  0  2  0  0  0  0  0  0
  189.3910  177.8000  148.0620 C   0  0  0  0  0  1  0  0  0  0  0  0
  190.5030  175.9070  141.7230 O   0  0  0  0  0  0  0  0  0  0  0  0
  190.4350  177.0740  141.2480 C   0  0  0  0  0  0  0  0  0  0  0  0
  190.5280  177.2870  139.8410 N   0  0  0  0  0  2  0  0  0  0  0  0
  190.6950  176.1890  138.9040 C   0  0  0  0  0  2  0  0  0  0  0  0
  191.6930  176.5720  137.8250 C   0  0  0  0  0  2  0  0  0  0  0  0
  193.1250  176.4320  138.3240 C   0  0  0  0  0  2  0  0  0  0  0  0
  193.9220  175.5040  137.4610 C   0  0  0  0  0  0  0  0  0  0  0  0
  194.7960  175.9400  136.7290 O   0  0  0  0  0  0  0  0  0  0  0  0
  193.5940  174.0460  137.4410 C   0  0  0  0  0  2  0  0  0  0  0  0
  194.2630  173.2050  135.3180 O   0  0  0  0  0  0  0  0  0  0  0  0
  193.3090  173.5930  136.0440 C   0  0  0  0  0  0  0  0  0  0  0  0
  190.8610  173.4240  136.3210 C   0  0  0  0  0  1  0  0  0  0  0  0
  192.0160  173.6130  135.5160 O   0  0  0  0  0  0  0  0  0  0  0  0
  1  7  1  0  0  0  0
  2  3  1  0  0  0  0
  2  1  2  0  0  0  0
  3  8  1  0  0  0  0
  5  6  1  6  0  0  0
  5 11  1  0  0  0  0
  7  5  1  0  0  0  0
  7  4  1  1  0  0  0
  8  5  1  0  0  0  0
  9  4  1  0  0  0  0
 10 19  1  6  0  0  0
 10  1  1  0  0  0  0
 10  9  1  0  0  0  0
 11 15  1  1  0  0  0
 11 12  1  0  0  0  0
 12 13  1  0  0  0  0
 13 16  1  1  0  0  0
 14 13  1  0  0  0  0
 15 14  1  0  0  0  0
 17 16  1  0  0  0  0
 19 18  2  0  0  0  0
 20 19  1  0  0  0  0
 21 20  1  0  0  0  0
 22 23  1  0  0  0  0
 22 21  1  0  0  0  0
 24 23  1  0  0  0  0
 25 24  2  0  0  0  0
 26 24  1  0  0  0  0
 27 28  2  0  0  0  0
 28 26  1  0  0  0  0
 30 28  1  0  0  0  0
 30 29  1  0  0  0  0
M  END
>  <MODEL>
9

>  <REMARK>
 VINA RESULT:      -6.4      2.684      4.127
  Name = 
  10 active torsions:
  status: ('A' for Active; 'I' for Inactive)
    1  A    between atoms: C_1  and  C_3
    2  A    between atoms: C_1  and  C_24
    3  A    between atoms: C_3  and  C_26
    4  A    between atoms: C_4  and  C_13
    5  A    between atoms: C_4  and  C_24
    6  A    between atoms: C_6  and  C_17
    7  A    between atoms: C_11  and  C_19
    8  A    between atoms: C_13  and  N_30
    9  A    between atoms: C_18  and  C_29
   10  A    between atoms: O_23  and  C_26
                            x       y       z     vdW  Elec       q    Type
                         _______ _______ _______ _____ _____    ______ ____

>  <TORSDO>
F 10

$$$$
