=
 OpenBabel11062415103D

 55 58  0  0  1  0  0  0  0  0999 V2000
  188.1570  177.6990  141.8890 C   0  0  2  0  0  3  0  0  0  0  0  0
  188.6270  178.2530  140.5530 C   0  0  0  0  0  2  0  0  0  0  0  0
  189.9750  177.6570  140.1620 C   0  0  0  0  0  2  0  0  0  0  0  0
  189.8560  176.6660  139.0000 C   0  0  2  0  0  3  0  0  0  0  0  0
  190.9830  176.7770  138.0810 N   0  0  0  0  0  2  0  0  0  0  0  0
  191.8260  175.6740  137.7340 C   0  0  0  0  0  0  0  0  0  0  0  0
  191.5210  174.5030  138.0850 O   0  0  0  0  0  0  0  0  0  0  0  0
  193.6880  174.4730  135.1290 O   0  0  0  0  0  0  0  0  0  0  0  0
  195.7130  172.5560  137.6540 C   0  0  2  0  0  3  0  0  0  0  0  0
  195.9470  173.7700  138.5810 C   0  0  0  0  0  2  0  0  0  0  0  0
  194.8220  174.7760  138.5090 C   0  0  0  0  0  3  0  0  0  0  0  0
  196.9970  171.7730  137.4830 C   0  0  0  0  0  1  0  0  0  0  0  0
  192.1930  176.2160  134.7560 O   0  0  0  0  0  0  0  0  0  0  0  0
  192.9370  175.5720  135.5410 C   0  0  0  0  0  0  0  0  0  0  0  0
  193.1100  175.9100  137.0000 C   0  0  2  0  0  3  0  0  0  0  0  0
  194.3850  174.0290  136.2340 C   0  0  0  0  0  0  0  0  0  0  0  0
  195.1590  172.9510  136.3040 C   0  0  0  0  0  3  0  0  0  0  0  0
  194.1390  174.8900  137.3700 C   0  0  0  0  0  0  0  0  0  0  0  0
  188.5190  176.7740  138.2610 C   0  0  0  0  0  2  0  0  0  0  0  0
  188.3670  178.9760  136.8070 C   0  0  0  0  0  1  0  0  0  0  0  0
  188.6920  177.2150  136.4980 S   0  0  0  0  0  0  0  0  0  0  0  0
  186.6720  178.0080  142.1460 C   0  0  1  0  0  3  0  0  0  0  0  0
  185.9590  177.3840  144.4580 C   0  0  0  0  0  1  0  0  0  0  0  0
  186.3690  178.5310  143.5580 C   0  0  0  0  0  3  0  0  0  0  0  0
  185.2880  179.5960  143.5710 C   0  0  0  0  0  1  0  0  0  0  0  0
  186.1410  178.8440  141.1540 O   0  0  0  0  0  0  0  0  0  0  0  0
  184.9100  178.2750  140.8080 C   0  0  0  0  0  2  0  0  0  0  0  0
  184.3340  177.6900  137.1500 O   0  0  0  0  0  1  0  0  0  0  0  0
  185.7320  178.7920  138.5930 O   0  0  0  0  0  0  0  0  0  0  0  0
  185.0360  177.5880  138.3530 C   0  0  1  0  0  3  0  0  0  0  0  0
  184.5700  178.5790  139.3590 C   0  0  1  0  0  0  0  0  0  0  0  0
  183.9390  180.8560  138.8820 O   0  0  0  0  0  1  0  0  0  0  0  0
  183.4270  179.5700  139.0620 C   0  0  2  0  0  3  0  0  0  0  0  0
  180.9670  177.8090  138.9590 C   0  0  1  0  0  3  0  0  0  0  0  0
  181.2340  178.8280  140.0190 C   0  0  0  0  0  0  0  0  0  0  0  0
  182.3370  179.5840  140.0970 C   0  0  0  0  0  3  0  0  0  0  0  0
  179.4560  177.5090  140.8960 C   0  0  0  0  0  2  0  0  0  0  0  0
  179.7340  177.0530  139.4640 C   0  0  2  0  0  3  0  0  0  0  0  0
  180.2480  178.7870  141.1290 C   0  0  2  0  0  3  0  0  0  0  0  0
  179.8550  175.5900  139.3790 N   0  0  0  0  0  0  0  0  0  0  0  0
  178.9720  174.9310  140.3340 C   0  0  0  0  0  1  0  0  0  0  0  0
  181.1250  175.2620  139.7170 O   0  0  0  0  0  1  0  0  0  0  0  0
  180.7100  178.4290  137.5820 C   0  0  0  0  0  2  0  0  0  0  0  0
  179.6780  179.5480  137.6140 C   0  0  0  0  0  1  0  0  0  0  0  0
  179.3650  179.9390  141.0400 N   0  0  0  0  0  2  0  0  0  0  0  0
  179.7010  180.7970  142.0980 N   0  0  0  0  0  2  0  0  0  0  0  0
  179.5420  180.0330  143.3240 C   0  0  0  0  0  1  0  0  0  0  0  0
  189.0400  178.2150  143.0310 C   0  0  0  0  0  2  0  0  0  0  0  0
  189.9620  175.8830  142.8190 C   0  0  0  0  0  1  0  0  0  0  0  0
  189.8460  177.1060  143.7130 C   0  0  2  0  0  3  0  0  0  0  0  0
  189.2740  176.7540  144.9400 O   0  0  0  0  0  0  0  0  0  0  0  0
  189.8400  177.6250  145.8740 C   0  0  1  0  0  3  0  0  0  0  0  0
  188.7480  178.2060  146.7560 C   0  0  0  0  0  1  0  0  0  0  0  0
  191.7950  176.2590  145.9120 O   0  0  0  0  0  1  0  0  0  0  0  0
  190.8400  176.8700  146.7260 C   0  0  0  0  0  2  0  0  0  0  0  0
  1  2  1  6  0  0  0
  1 22  1  0  0  0  0
  1 48  1  0  0  0  0
  3  2  1  0  0  0  0
  4 19  1  6  0  0  0
  4  3  1  0  0  0  0
  5  4  1  0  0  0  0
  6  5  1  0  0  0  0
  6  7  2  0  0  0  0
  8 14  1  0  0  0  0
  8 16  1  0  0  0  0
  9 12  1  6  0  0  0
  9 10  1  0  0  0  0
 11 10  1  0  0  0  0
 13 14  2  0  0  0  0
 14 15  1  0  0  0  0
 15 18  1  0  0  0  0
 15  6  1  1  0  0  0
 16 17  2  0  0  0  0
 16 18  1  0  0  0  0
 17  9  1  0  0  0  0
 18 11  2  0  0  0  0
 21 20  1  0  0  0  0
 21 19  1  0  0  0  0
 22 26  1  6  0  0  0
 22 24  1  0  0  0  0
 24 25  1  0  0  0  0
 24 23  1  0  0  0  0
 27 26  1  0  0  0  0
 29 31  1  0  0  0  0
 30 28  1  6  0  0  0
 30 29  1  0  0  0  0
 30 31  1  0  0  0  0
 31 27  1  1  0  0  0
 33 32  1  1  0  0  0
 33 31  1  0  0  0  0
 33 36  1  0  0  0  0
 34 43  1  6  0  0  0
 34 38  1  0  0  0  0
 34 35  1  0  0  0  0
 35 36  2  0  0  0  0
 35 39  1  0  0  0  0
 37 39  1  0  0  0  0
 38 40  1  1  0  0  0
 38 37  1  0  0  0  0
 39 45  1  6  0  0  0
 40 42  1  0  0  0  0
 40 41  1  0  0  0  0
 43 44  1  0  0  0  0
 45 46  1  0  0  0  0
 46 47  1  0  0  0  0
 48 50  1  0  0  0  0
 50 49  1  6  0  0  0
 50 51  1  0  0  0  0
 51 52  1  0  0  0  0
 52 55  1  0  0  0  0
 52 53  1  1  0  0  0
 54 55  1  0  0  0  0
M  END
>  <MODEL>
1

>  <REMARK>
 VINA RESULT:      -6.3      0.000      0.000
  Name = 
  23 active torsions:
  status: ('A' for Active; 'I' for Inactive)
    1  A    between atoms: N_2  and  N_39
    2  A    between atoms: N_2  and  C_51
    3  A    between atoms: N_3  and  C_42
    4  A    between atoms: C_4  and  C_11
    5  A    between atoms: C_6  and  O_30
    6  A    between atoms: C_6  and  C_49
    7  A    between atoms: C_8  and  C_41
    8  A    between atoms: C_8  and  S_50
    9  A    between atoms: C_9  and  C_25
   10  A    between atoms: N_12  and  C_41
   11  A    between atoms: C_13  and  C_28
   12  A    between atoms: C_13  and  C_53
   13  A    between atoms: C_15  and  C_16
   14  A    between atoms: C_15  and  C_41
   15  A    between atoms: C_16  and  C_35
   16  A    between atoms: O_17  and  C_25
   17  A    between atoms: O_17  and  C_29
   18  A    between atoms: C_23  and  C_32
   19  A    between atoms: C_23  and  C_35
   20  A    between atoms: C_25  and  C_35
   21  A    between atoms: C_27  and  C_44
   22  A    between atoms: C_29  and  C_53
   23  A    between atoms: O_30  and  C_32
                            x       y       z     vdW  Elec       q    Type
                         _______ _______ _______ _____ _____    ______ ____

>  <TORSDO>
F 23

$$$$
=
 OpenBabel11062415103D

 55 58  0  0  1  0  0  0  0  0999 V2000
  188.4770  177.4750  141.7360 C   0  0  2  0  0  3  0  0  0  0  0  0
  188.9330  177.8660  140.3390 C   0  0  0  0  0  2  0  0  0  0  0  0
  189.7270  176.7380  139.6910 C   0  0  0  0  0  2  0  0  0  0  0  0
  189.3230  176.5090  138.2310 C   0  0  2  0  0  3  0  0  0  0  0  0
  189.2010  175.0880  137.9240 N   0  0  0  0  0  2  0  0  0  0  0  0
  188.2280  174.5600  137.0170 C   0  0  0  0  0  0  0  0  0  0  0  0
  187.5320  175.3340  136.3070 O   0  0  0  0  0  0  0  0  0  0  0  0
  187.5670  172.0500  134.7910 O   0  0  0  0  0  0  0  0  0  0  0  0
  183.9340  172.4040  135.6980 C   0  0  2  0  0  3  0  0  0  0  0  0
  184.1760  172.3560  137.2230 C   0  0  0  0  0  2  0  0  0  0  0  0
  185.5330  172.8970  137.6090 C   0  0  0  0  0  3  0  0  0  0  0  0
  182.7480  171.5380  135.3280 C   0  0  0  0  0  1  0  0  0  0  0  0
  189.7720  172.4980  135.3870 O   0  0  0  0  0  0  0  0  0  0  0  0
  188.5430  172.5310  135.6610 C   0  0  0  0  0  0  0  0  0  0  0  0
  187.9860  173.0840  136.9480 C   0  0  2  0  0  3  0  0  0  0  0  0
  186.3510  172.2340  135.4150 C   0  0  0  0  0  0  0  0  0  0  0  0
  185.1500  171.9880  134.9010 C   0  0  0  0  0  3  0  0  0  0  0  0
  186.5360  172.7830  136.7400 C   0  0  0  0  0  0  0  0  0  0  0  0
  190.2490  177.2180  137.2390 C   0  0  0  0  0  2  0  0  0  0  0  0
  191.1050  176.1740  134.9660 C   0  0  0  0  0  1  0  0  0  0  0  0
  191.6610  176.1960  136.6960 S   0  0  0  0  0  0  0  0  0  0  0  0
  186.9970  177.8220  141.9730 C   0  0  1  0  0  3  0  0  0  0  0  0
  186.3960  177.3180  144.3450 C   0  0  0  0  0  1  0  0  0  0  0  0
  186.7020  178.4230  143.3550 C   0  0  0  0  0  3  0  0  0  0  0  0
  185.5530  179.4140  143.3320 C   0  0  0  0  0  1  0  0  0  0  0  0
  186.4820  178.6150  140.9380 O   0  0  0  0  0  0  0  0  0  0  0  0
  185.3280  177.9530  140.5030 C   0  0  0  0  0  2  0  0  0  0  0  0
  184.7480  177.9120  136.8000 O   0  0  0  0  0  1  0  0  0  0  0  0
  186.0240  178.9350  138.4050 O   0  0  0  0  0  0  0  0  0  0  0  0
  185.4850  177.7060  137.9680 C   0  0  1  0  0  3  0  0  0  0  0  0
  184.9170  178.4460  139.1260 C   0  0  1  0  0  0  0  0  0  0  0  0
  183.9890  180.6650  138.9950 O   0  0  0  0  0  1  0  0  0  0  0  0
  183.6480  179.3110  139.0010 C   0  0  2  0  0  3  0  0  0  0  0  0
  181.3300  177.4000  138.6390 C   0  0  1  0  0  3  0  0  0  0  0  0
  181.5660  178.2210  139.8640 C   0  0  0  0  0  0  0  0  0  0  0  0
  182.6090  179.0400  140.0520 C   0  0  0  0  0  3  0  0  0  0  0  0
  179.9360  176.6160  140.5270 C   0  0  0  0  0  2  0  0  0  0  0  0
  180.1830  176.4610  139.0270 C   0  0  2  0  0  3  0  0  0  0  0  0
  180.6370  177.8910  140.9750 C   0  0  2  0  0  3  0  0  0  0  0  0
  180.4140  175.0550  138.6630 N   0  0  0  0  0  0  0  0  0  0  0  0
  179.7620  174.7240  137.4010 C   0  0  0  0  0  1  0  0  0  0  0  0
  179.8460  174.2830  139.6200 O   0  0  0  0  0  1  0  0  0  0  0  0
  180.9640  178.2410  137.4120 C   0  0  0  0  0  2  0  0  0  0  0  0
  179.5310  178.7550  137.4470 C   0  0  0  0  0  1  0  0  0  0  0  0
  179.6640  178.9600  141.1330 N   0  0  0  0  0  2  0  0  0  0  0  0
  178.9310  178.6800  142.2970 N   0  0  0  0  0  2  0  0  0  0  0  0
  178.9870  179.8740  143.1230 C   0  0  0  0  0  1  0  0  0  0  0  0
  189.3780  178.1140  142.7990 C   0  0  0  0  0  2  0  0  0  0  0  0
  190.2380  175.7540  142.9580 C   0  0  0  0  0  1  0  0  0  0  0  0
  190.0900  177.0830  143.6790 C   0  0  2  0  0  3  0  0  0  0  0  0
  189.4100  176.9030  144.8880 O   0  0  0  0  0  0  0  0  0  0  0  0
  190.1500  177.6100  145.8370 C   0  0  1  0  0  3  0  0  0  0  0  0
  189.3610  177.7060  147.1320 C   0  0  0  0  0  1  0  0  0  0  0  0
  191.4760  176.3620  147.3780 O   0  0  0  0  0  1  0  0  0  0  0  0
  191.4620  176.8950  146.0880 C   0  0  0  0  0  2  0  0  0  0  0  0
  1  2  1  6  0  0  0
  1 22  1  0  0  0  0
  1 48  1  0  0  0  0
  3  2  1  0  0  0  0
  4 19  1  6  0  0  0
  4  3  1  0  0  0  0
  5  4  1  0  0  0  0
  6  5  1  0  0  0  0
  7  6  2  0  0  0  0
  8 16  1  0  0  0  0
  8 14  1  0  0  0  0
  9 12  1  1  0  0  0
  9 10  1  0  0  0  0
 10 11  1  0  0  0  0
 13 14  2  0  0  0  0
 14 15  1  0  0  0  0
 15  6  1  6  0  0  0
 16 18  1  0  0  0  0
 17 16  2  0  0  0  0
 17  9  1  0  0  0  0
 18 15  1  0  0  0  0
 18 11  2  0  0  0  0
 20 21  1  0  0  0  0
 21 19  1  0  0  0  0
 22 26  1  6  0  0  0
 22 24  1  0  0  0  0
 24 23  1  0  0  0  0
 25 24  1  0  0  0  0
 27 26  1  0  0  0  0
 29 31  1  0  0  0  0
 30 28  1  6  0  0  0
 30 29  1  0  0  0  0
 30 31  1  0  0  0  0
 31 27  1  1  0  0  0
 33 32  1  1  0  0  0
 33 31  1  0  0  0  0
 33 36  1  0  0  0  0
 34 43  1  6  0  0  0
 34 38  1  0  0  0  0
 34 35  1  0  0  0  0
 35 36  2  0  0  0  0
 35 39  1  0  0  0  0
 37 39  1  0  0  0  0
 38 40  1  1  0  0  0
 38 37  1  0  0  0  0
 39 45  1  6  0  0  0
 40 42  1  0  0  0  0
 41 40  1  0  0  0  0
 43 44  1  0  0  0  0
 45 46  1  0  0  0  0
 46 47  1  0  0  0  0
 48 50  1  0  0  0  0
 50 49  1  6  0  0  0
 50 51  1  0  0  0  0
 51 52  1  0  0  0  0
 52 55  1  0  0  0  0
 52 53  1  1  0  0  0
 55 54  1  0  0  0  0
M  END
>  <MODEL>
2

>  <REMARK>
 VINA RESULT:      -6.0      2.704      4.371
  Name = 
  23 active torsions:
  status: ('A' for Active; 'I' for Inactive)
    1  A    between atoms: N_2  and  N_39
    2  A    between atoms: N_2  and  C_51
    3  A    between atoms: N_3  and  C_42
    4  A    between atoms: C_4  and  C_11
    5  A    between atoms: C_6  and  O_30
    6  A    between atoms: C_6  and  C_49
    7  A    between atoms: C_8  and  C_41
    8  A    between atoms: C_8  and  S_50
    9  A    between atoms: C_9  and  C_25
   10  A    between atoms: N_12  and  C_41
   11  A    between atoms: C_13  and  C_28
   12  A    between atoms: C_13  and  C_53
   13  A    between atoms: C_15  and  C_16
   14  A    between atoms: C_15  and  C_41
   15  A    between atoms: C_16  and  C_35
   16  A    between atoms: O_17  and  C_25
   17  A    between atoms: O_17  and  C_29
   18  A    between atoms: C_23  and  C_32
   19  A    between atoms: C_23  and  C_35
   20  A    between atoms: C_25  and  C_35
   21  A    between atoms: C_27  and  C_44
   22  A    between atoms: C_29  and  C_53
   23  A    between atoms: O_30  and  C_32
                            x       y       z     vdW  Elec       q    Type
                         _______ _______ _______ _____ _____    ______ ____

>  <TORSDO>
F 23

$$$$
=
 OpenBabel11062415103D

 55 58  0  0  1  0  0  0  0  0999 V2000
  186.4480  177.7200  144.2130 C   0  0  2  0  0  3  0  0  0  0  0  0
  187.5390  177.8570  143.1630 C   0  0  0  0  0  2  0  0  0  0  0  0
  188.2430  176.5250  142.9330 C   0  0  0  0  0  2  0  0  0  0  0  0
  189.6320  176.7020  142.3120 C   0  0  2  0  0  3  0  0  0  0  0  0
  189.5800  176.6530  140.8550 N   0  0  0  0  0  2  0  0  0  0  0  0
  190.6040  177.1900  140.0130 C   0  0  0  0  0  0  0  0  0  0  0  0
  191.6930  177.5870  140.5070 O   0  0  0  0  0  0  0  0  0  0  0  0
  188.1230  177.0390  137.6650 O   0  0  0  0  0  0  0  0  0  0  0  0
  189.2410  173.5240  136.9250 C   0  0  2  0  0  3  0  0  0  0  0  0
  190.7360  173.8910  136.7850 C   0  0  0  0  0  2  0  0  0  0  0  0
  191.1190  175.0830  137.6300 C   0  0  0  0  0  3  0  0  0  0  0  0
  188.8270  172.5820  135.8150 C   0  0  0  0  0  1  0  0  0  0  0  0
  188.6610  179.0880  138.6270 O   0  0  0  0  0  0  0  0  0  0  0  0
  188.9960  177.9190  138.2990 C   0  0  0  0  0  0  0  0  0  0  0  0
  190.3670  177.3410  138.5420 C   0  0  2  0  0  3  0  0  0  0  0  0
  188.8230  175.8700  137.4470 C   0  0  0  0  0  0  0  0  0  0  0  0
  188.3420  174.7400  136.9400 C   0  0  0  0  0  3  0  0  0  0  0  0
  190.1950  176.0090  137.8830 C   0  0  0  0  0  0  0  0  0  0  0  0
  190.6630  175.7160  142.8680 C   0  0  0  0  0  2  0  0  0  0  0  0
  191.5510  178.0440  143.7480 C   0  0  0  0  0  1  0  0  0  0  0  0
  191.5390  176.3290  144.3470 S   0  0  0  0  0  0  0  0  0  0  0  0
  185.0710  178.1320  143.6640 C   0  0  1  0  0  3  0  0  0  0  0  0
  182.7840  178.6890  144.5040 C   0  0  0  0  0  1  0  0  0  0  0  0
  184.2560  179.0290  144.6080 C   0  0  0  0  0  3  0  0  0  0  0  0
  184.4550  180.5080  144.3310 C   0  0  0  0  0  1  0  0  0  0  0  0
  185.1720  178.6820  142.3790 O   0  0  0  0  0  0  0  0  0  0  0  0
  184.2730  177.9530  141.5910 C   0  0  0  0  0  2  0  0  0  0  0  0
  184.8020  178.7400  137.9650 O   0  0  0  0  0  1  0  0  0  0  0  0
  185.0070  179.6670  140.0500 O   0  0  0  0  0  0  0  0  0  0  0  0
  185.2060  178.5010  139.2800 C   0  0  1  0  0  3  0  0  0  0  0  0
  184.0800  178.6240  140.2420 C   0  0  1  0  0  0  0  0  0  0  0  0
  181.7180  178.4010  140.6650 O   0  0  0  0  0  1  0  0  0  0  0  0
  182.6460  178.9610  139.7860 C   0  0  2  0  0  3  0  0  0  0  0  0
  180.7400  180.4540  137.9700 C   0  0  1  0  0  3  0  0  0  0  0  0
  181.4610  179.2010  137.5930 C   0  0  0  0  0  0  0  0  0  0  0  0
  182.3370  178.5540  138.3720 C   0  0  0  0  0  3  0  0  0  0  0  0
  180.6240  180.0510  135.5310 C   0  0  0  0  0  2  0  0  0  0  0  0
  180.0870  180.9220  136.6660 C   0  0  2  0  0  3  0  0  0  0  0  0
  181.2830  178.8340  136.1650 C   0  0  2  0  0  3  0  0  0  0  0  0
  180.2780  182.3520  136.3830 N   0  0  0  0  0  0  0  0  0  0  0  0
  180.7100  182.5650  135.0060 C   0  0  0  0  0  1  0  0  0  0  0  0
  181.2710  182.8020  137.1870 O   0  0  0  0  0  1  0  0  0  0  0  0
  179.6920  180.2370  139.0660 C   0  0  0  0  0  2  0  0  0  0  0  0
  179.6830  181.3450  140.1110 C   0  0  0  0  0  1  0  0  0  0  0  0
  180.4000  177.6840  136.0610 N   0  0  0  0  0  2  0  0  0  0  0  0
  181.1850  176.5970  135.6490 N   0  0  0  0  0  2  0  0  0  0  0  0
  182.2260  177.1360  134.7890 C   0  0  0  0  0  1  0  0  0  0  0  0
  186.8060  178.5120  145.4750 C   0  0  0  0  0  2  0  0  0  0  0  0
  187.1600  178.1650  147.9410 C   0  0  0  0  0  1  0  0  0  0  0  0
  187.4850  177.6560  146.5470 C   0  0  2  0  0  3  0  0  0  0  0  0
  188.8700  177.6210  146.3570 O   0  0  0  0  0  0  0  0  0  0  0  0
  189.4050  177.2810  147.6010 C   0  0  1  0  0  3  0  0  0  0  0  0
  189.2650  175.7850  147.8260 C   0  0  0  0  0  1  0  0  0  0  0  0
  191.6670  176.5260  147.6680 O   0  0  0  0  0  1  0  0  0  0  0  0
  190.8690  177.6710  147.6430 C   0  0  0  0  0  2  0  0  0  0  0  0
  1  2  1  6  0  0  0
  1 48  1  0  0  0  0
  3  2  1  0  0  0  0
  4 19  1  1  0  0  0
  4  3  1  0  0  0  0
  5  4  1  0  0  0  0
  6  7  2  0  0  0  0
  6  5  1  0  0  0  0
  8 14  1  0  0  0  0
  9 12  1  6  0  0  0
  9 17  1  0  0  0  0
 10  9  1  0  0  0  0
 10 11  1  0  0  0  0
 11 18  2  0  0  0  0
 14 15  1  0  0  0  0
 14 13  2  0  0  0  0
 15  6  1  1  0  0  0
 16  8  1  0  0  0  0
 16 18  1  0  0  0  0
 17 16  2  0  0  0  0
 18 15  1  0  0  0  0
 19 21  1  0  0  0  0
 20 21  1  0  0  0  0
 22 26  1  6  0  0  0
 22  1  1  0  0  0  0
 22 24  1  0  0  0  0
 23 24  1  0  0  0  0
 25 24  1  0  0  0  0
 27 26  1  0  0  0  0
 29 31  1  0  0  0  0
 30 28  1  6  0  0  0
 30 29  1  0  0  0  0
 30 31  1  0  0  0  0
 31 27  1  1  0  0  0
 33 31  1  0  0  0  0
 33 32  1  1  0  0  0
 34 43  1  1  0  0  0
 35 34  1  0  0  0  0
 35 36  2  0  0  0  0
 36 33  1  0  0  0  0
 37 39  1  0  0  0  0
 37 38  1  0  0  0  0
 38 40  1  6  0  0  0
 38 34  1  0  0  0  0
 39 45  1  1  0  0  0
 39 35  1  0  0  0  0
 40 42  1  0  0  0  0
 41 40  1  0  0  0  0
 43 44  1  0  0  0  0
 46 45  1  0  0  0  0
 47 46  1  0  0  0  0
 48 50  1  0  0  0  0
 50 49  1  1  0  0  0
 51 50  1  0  0  0  0
 51 52  1  0  0  0  0
 52 55  1  0  0  0  0
 52 53  1  6  0  0  0
 55 54  1  0  0  0  0
M  END
>  <MODEL>
3

>  <REMARK>
 VINA RESULT:      -5.7      3.169      4.775
  Name = 
  23 active torsions:
  status: ('A' for Active; 'I' for Inactive)
    1  A    between atoms: N_2  and  N_39
    2  A    between atoms: N_2  and  C_51
    3  A    between atoms: N_3  and  C_42
    4  A    between atoms: C_4  and  C_11
    5  A    between atoms: C_6  and  O_30
    6  A    between atoms: C_6  and  C_49
    7  A    between atoms: C_8  and  C_41
    8  A    between atoms: C_8  and  S_50
    9  A    between atoms: C_9  and  C_25
   10  A    between atoms: N_12  and  C_41
   11  A    between atoms: C_13  and  C_28
   12  A    between atoms: C_13  and  C_53
   13  A    between atoms: C_15  and  C_16
   14  A    between atoms: C_15  and  C_41
   15  A    between atoms: C_16  and  C_35
   16  A    between atoms: O_17  and  C_25
   17  A    between atoms: O_17  and  C_29
   18  A    between atoms: C_23  and  C_32
   19  A    between atoms: C_23  and  C_35
   20  A    between atoms: C_25  and  C_35
   21  A    between atoms: C_27  and  C_44
   22  A    between atoms: C_29  and  C_53
   23  A    between atoms: O_30  and  C_32
                            x       y       z     vdW  Elec       q    Type
                         _______ _______ _______ _____ _____    ______ ____

>  <TORSDO>
F 23

$$$$
=
 OpenBabel11062415103D

 55 58  0  0  1  0  0  0  0  0999 V2000
  187.2760  177.1350  138.4050 C   0  0  2  0  0  3  0  0  0  0  0  0
  188.7340  176.7290  138.5440 C   0  0  0  0  0  2  0  0  0  0  0  0
  189.4740  177.6720  139.4860 C   0  0  0  0  0  2  0  0  0  0  0  0
  190.9880  177.4380  139.4700 C   0  0  2  0  0  3  0  0  0  0  0  0
  191.3590  176.3830  138.5340 N   0  0  0  0  0  2  0  0  0  0  0  0
  192.5700  176.3990  137.7710 C   0  0  0  0  0  0  0  0  0  0  0  0
  193.4600  177.2580  138.0060 O   0  0  0  0  0  0  0  0  0  0  0  0
  193.4110  173.1430  137.1500 O   0  0  0  0  0  0  0  0  0  0  0  0
  196.9130  174.3330  136.4660 C   0  0  2  0  0  3  0  0  0  0  0  0
  196.4810  175.4610  135.5020 C   0  0  0  0  0  2  0  0  0  0  0  0
  195.1070  176.0010  135.8260 C   0  0  0  0  0  3  0  0  0  0  0  0
  198.1030  173.5880  135.9000 C   0  0  0  0  0  1  0  0  0  0  0  0
  191.1680  173.7230  137.3610 O   0  0  0  0  0  0  0  0  0  0  0  0
  192.3530  174.0460  137.0840 C   0  0  0  0  0  0  0  0  0  0  0  0
  192.7640  175.4290  136.6470 C   0  0  2  0  0  3  0  0  0  0  0  0
  194.5460  173.8300  136.7710 C   0  0  0  0  0  0  0  0  0  0  0  0
  195.7910  173.3670  136.7730 C   0  0  0  0  0  3  0  0  0  0  0  0
  194.2170  175.1850  136.3880 C   0  0  0  0  0  0  0  0  0  0  0  0
  191.5640  177.1760  140.8640 C   0  0  0  0  0  2  0  0  0  0  0  0
  190.6970  178.0770  143.1930 C   0  0  0  0  0  1  0  0  0  0  0  0
  190.3080  176.6830  142.0940 S   0  0  0  0  0  0  0  0  0  0  0  0
  186.8070  177.0930  136.9400 C   0  0  1  0  0  3  0  0  0  0  0  0
  186.8240  178.2520  134.7270 C   0  0  0  0  0  1  0  0  0  0  0  0
  187.6150  177.9890  135.9910 C   0  0  0  0  0  3  0  0  0  0  0  0
  188.9650  177.3960  135.6290 C   0  0  0  0  0  1  0  0  0  0  0  0
  186.7160  175.7770  136.4660 O   0  0  0  0  0  0  0  0  0  0  0  0
  185.5770  175.2390  137.0760 C   0  0  0  0  0  2  0  0  0  0  0  0
  183.2010  173.1030  135.1160 O   0  0  0  0  0  1  0  0  0  0  0  0
  185.1430  174.2980  134.8900 O   0  0  0  0  0  0  0  0  0  0  0  0
  184.4220  173.4120  135.7190 C   0  0  1  0  0  3  0  0  0  0  0  0
  184.5410  174.8610  136.0320 C   0  0  1  0  0  0  0  0  0  0  0  0
  183.8220  176.7650  134.7420 O   0  0  0  0  0  1  0  0  0  0  0  0
  183.4090  175.8600  135.7210 C   0  0  2  0  0  3  0  0  0  0  0  0
  180.7410  175.2890  137.0310 C   0  0  1  0  0  3  0  0  0  0  0  0
  181.6860  176.3590  137.4690 C   0  0  0  0  0  0  0  0  0  0  0  0
  182.8860  176.5950  136.9240 C   0  0  0  0  0  3  0  0  0  0  0  0
  180.1320  176.1660  139.2630 C   0  0  0  0  0  2  0  0  0  0  0  0
  179.6640  175.2650  138.1210 C   0  0  2  0  0  3  0  0  0  0  0  0
  181.2690  177.0260  138.7300 C   0  0  2  0  0  3  0  0  0  0  0  0
  179.3320  173.9160  138.6010 N   0  0  0  0  0  0  0  0  0  0  0  0
  179.3590  173.8530  140.0580 C   0  0  0  0  0  1  0  0  0  0  0  0
  180.2890  173.0700  138.1480 O   0  0  0  0  0  1  0  0  0  0  0  0
  180.1250  175.5580  135.6530 C   0  0  0  0  0  2  0  0  0  0  0  0
  179.7390  174.2850  134.9130 C   0  0  0  0  0  1  0  0  0  0  0  0
  180.7810  178.3640  138.4370 N   0  0  0  0  0  2  0  0  0  0  0  0
  180.1640  178.8400  139.6040 N   0  0  0  0  0  2  0  0  0  0  0  0
  181.2210  179.3680  140.4500 C   0  0  0  0  0  1  0  0  0  0  0  0
  187.0340  178.5130  139.0300 C   0  0  0  0  0  2  0  0  0  0  0  0
  184.5940  179.1230  138.9780 C   0  0  0  0  0  1  0  0  0  0  0  0
  185.7320  178.5880  139.8310 C   0  0  2  0  0  3  0  0  0  0  0  0
  185.8910  179.3790  140.9730 O   0  0  0  0  0  0  0  0  0  0  0  0
  185.4960  178.5700  142.0400 C   0  0  1  0  0  3  0  0  0  0  0  0
  186.7210  177.9540  142.6950 C   0  0  0  0  0  1  0  0  0  0  0  0
  183.4610  178.8830  143.2450 O   0  0  0  0  0  1  0  0  0  0  0  0
  184.7400  179.4060  143.0530 C   0  0  0  0  0  2  0  0  0  0  0  0
  1  2  1  6  0  0  0
  1 48  1  0  0  0  0
  2  3  1  0  0  0  0
  4  3  1  1  0  0  0
  4 19  1  0  0  0  0
  5  4  1  0  0  0  0
  6  7  2  0  0  0  0
  6  5  1  0  0  0  0
  9 12  1  6  0  0  0
  9 17  1  0  0  0  0
 10 11  1  0  0  0  0
 10  9  1  0  0  0  0
 11 18  2  0  0  0  0
 14  8  1  0  0  0  0
 14 13  2  0  0  0  0
 15 14  1  0  0  0  0
 15  6  1  1  0  0  0
 16 17  2  0  0  0  0
 16  8  1  0  0  0  0
 18 15  1  0  0  0  0
 18 16  1  0  0  0  0
 19 21  1  0  0  0  0
 21 20  1  0  0  0  0
 22 24  1  6  0  0  0
 22  1  1  0  0  0  0
 23 24  1  0  0  0  0
 25 24  1  0  0  0  0
 26 22  1  0  0  0  0
 26 27  1  0  0  0  0
 29 30  1  0  0  0  0
 29 31  1  0  0  0  0
 30 28  1  6  0  0  0
 30 31  1  0  0  0  0
 31 27  1  1  0  0  0
 33 32  1  6  0  0  0
 33 31  1  0  0  0  0
 33 36  1  0  0  0  0
 34 43  1  6  0  0  0
 34 35  1  0  0  0  0
 34 38  1  0  0  0  0
 35 39  1  0  0  0  0
 36 35  2  0  0  0  0
 38 40  1  1  0  0  0
 38 37  1  0  0  0  0
 39 45  1  6  0  0  0
 39 37  1  0  0  0  0
 40 41  1  0  0  0  0
 42 40  1  0  0  0  0
 44 43  1  0  0  0  0
 45 46  1  0  0  0  0
 46 47  1  0  0  0  0
 48 50  1  0  0  0  0
 50 49  1  6  0  0  0
 50 51  1  0  0  0  0
 51 52  1  0  0  0  0
 52 53  1  1  0  0  0
 52 55  1  0  0  0  0
 55 54  1  0  0  0  0
M  END
>  <MODEL>
4

>  <REMARK>
 VINA RESULT:      -5.1      2.505      4.627
  Name = 
  23 active torsions:
  status: ('A' for Active; 'I' for Inactive)
    1  A    between atoms: N_2  and  N_39
    2  A    between atoms: N_2  and  C_51
    3  A    between atoms: N_3  and  C_42
    4  A    between atoms: C_4  and  C_11
    5  A    between atoms: C_6  and  O_30
    6  A    between atoms: C_6  and  C_49
    7  A    between atoms: C_8  and  C_41
    8  A    between atoms: C_8  and  S_50
    9  A    between atoms: C_9  and  C_25
   10  A    between atoms: N_12  and  C_41
   11  A    between atoms: C_13  and  C_28
   12  A    between atoms: C_13  and  C_53
   13  A    between atoms: C_15  and  C_16
   14  A    between atoms: C_15  and  C_41
   15  A    between atoms: C_16  and  C_35
   16  A    between atoms: O_17  and  C_25
   17  A    between atoms: O_17  and  C_29
   18  A    between atoms: C_23  and  C_32
   19  A    between atoms: C_23  and  C_35
   20  A    between atoms: C_25  and  C_35
   21  A    between atoms: C_27  and  C_44
   22  A    between atoms: C_29  and  C_53
   23  A    between atoms: O_30  and  C_32
                            x       y       z     vdW  Elec       q    Type
                         _______ _______ _______ _____ _____    ______ ____

>  <TORSDO>
F 23

$$$$
=
 OpenBabel11062415103D

 55 58  0  0  1  0  0  0  0  0999 V2000
  187.0220  177.8350  139.6390 C   0  0  2  0  0  3  0  0  0  0  0  0
  188.5410  177.7850  139.6740 C   0  0  0  0  0  2  0  0  0  0  0  0
  189.0540  177.8500  141.1090 C   0  0  0  0  0  2  0  0  0  0  0  0
  190.4450  177.2270  141.2560 C   0  0  2  0  0  3  0  0  0  0  0  0
  190.9850  176.8050  139.9680 N   0  0  0  0  0  2  0  0  0  0  0  0
  192.3580  176.9660  139.5990 C   0  0  0  0  0  0  0  0  0  0  0  0
  193.2080  177.3350  140.4520 O   0  0  0  0  0  0  0  0  0  0  0  0
  191.6790  175.0510  136.8490 O   0  0  0  0  0  0  0  0  0  0  0  0
  194.5740  172.8640  137.8400 C   0  0  2  0  0  3  0  0  0  0  0  0
  195.5630  174.0360  138.0290 C   0  0  0  0  0  2  0  0  0  0  0  0
  194.8710  175.3140  138.4430 C   0  0  0  0  0  3  0  0  0  0  0  0
  195.2420  171.7310  137.0900 C   0  0  0  0  0  1  0  0  0  0  0  0
  190.6260  177.1120  137.0940 O   0  0  0  0  0  0  0  0  0  0  0  0
  191.6000  176.3520  137.3400 C   0  0  0  0  0  0  0  0  0  0  0  0
  192.7860  176.7550  138.1800 C   0  0  2  0  0  3  0  0  0  0  0  0
  192.8720  174.5260  137.3010 C   0  0  0  0  0  0  0  0  0  0  0  0
  193.3040  173.2810  137.1320 C   0  0  0  0  0  3  0  0  0  0  0  0
  193.6160  175.5180  138.0440 C   0  0  0  0  0  0  0  0  0  0  0  0
  190.4820  176.0880  142.2780 C   0  0  0  0  0  2  0  0  0  0  0  0
  191.6620  178.0920  143.5350 C   0  0  0  0  0  1  0  0  0  0  0  0
  190.6480  176.6580  144.0040 S   0  0  0  0  0  0  0  0  0  0  0  0
  186.4860  177.9400  138.2010 C   0  0  1  0  0  3  0  0  0  0  0  0
  187.7130  179.2870  136.4910 C   0  0  0  0  0  1  0  0  0  0  0  0
  187.5740  177.9140  137.1170 C   0  0  0  0  0  3  0  0  0  0  0  0
  187.2990  176.8890  136.0310 C   0  0  0  0  0  1  0  0  0  0  0  0
  185.4820  176.9930  137.9550 O   0  0  0  0  0  0  0  0  0  0  0  0
  184.3580  177.7340  137.5700 C   0  0  0  0  0  2  0  0  0  0  0  0
  182.0830  174.7620  137.7650 O   0  0  0  0  0  1  0  0  0  0  0  0
  183.5990  175.7720  136.3760 O   0  0  0  0  0  0  0  0  0  0  0  0
  183.3200  175.4070  137.7110 C   0  0  1  0  0  3  0  0  0  0  0  0
  183.1980  176.8120  137.2380 C   0  0  1  0  0  0  0  0  0  0  0  0
  181.5940  177.3140  135.5110 O   0  0  0  0  0  1  0  0  0  0  0  0
  181.8370  177.4390  136.8800 C   0  0  2  0  0  3  0  0  0  0  0  0
  180.0810  178.3490  139.1710 C   0  0  1  0  0  3  0  0  0  0  0  0
  180.8740  179.2650  138.2970 C   0  0  0  0  0  0  0  0  0  0  0  0
  181.6850  178.8720  137.3070 C   0  0  0  0  0  3  0  0  0  0  0  0
  180.2260  180.6180  140.1470 C   0  0  0  0  0  2  0  0  0  0  0  0
  179.5490  179.2550  140.2860 C   0  0  2  0  0  3  0  0  0  0  0  0
  180.8540  180.6760  138.7620 C   0  0  2  0  0  3  0  0  0  0  0  0
  179.7240  178.7030  141.6370 N   0  0  0  0  0  0  0  0  0  0  0  0
  180.5940  179.5500  142.4460 C   0  0  0  0  0  1  0  0  0  0  0  0
  180.3380  177.5020  141.5150 O   0  0  0  0  0  1  0  0  0  0  0  0
  178.9330  177.6560  138.4290 C   0  0  0  0  0  2  0  0  0  0  0  0
  178.9410  176.1430  138.5960 C   0  0  0  0  0  1  0  0  0  0  0  0
  180.0220  181.4720  137.8750 N   0  0  0  0  0  2  0  0  0  0  0  0
  180.4920  182.7920  137.9430 N   0  0  0  0  0  2  0  0  0  0  0  0
  179.4380  183.6400  137.4140 C   0  0  0  0  0  1  0  0  0  0  0  0
  186.4960  178.9760  140.5150 C   0  0  0  0  0  2  0  0  0  0  0  0
  184.0280  178.5840  140.8100 C   0  0  0  0  0  1  0  0  0  0  0  0
  185.3910  178.5330  141.4780 C   0  0  2  0  0  3  0  0  0  0  0  0
  185.3910  179.3190  142.6350 O   0  0  0  0  0  0  0  0  0  0  0  0
  185.0500  178.4490  143.6730 C   0  0  1  0  0  3  0  0  0  0  0  0
  186.3120  177.8590  144.2800 C   0  0  0  0  0  1  0  0  0  0  0  0
  184.9950  179.2170  145.9300 O   0  0  0  0  0  1  0  0  0  0  0  0
  184.2780  179.2070  144.7330 C   0  0  0  0  0  2  0  0  0  0  0  0
  1  2  1  6  0  0  0
  1 48  1  0  0  0  0
  2  3  1  0  0  0  0
  4  3  1  6  0  0  0
  4 19  1  0  0  0  0
  5  4  1  0  0  0  0
  6  5  1  0  0  0  0
  6  7  2  0  0  0  0
  8 16  1  0  0  0  0
  8 14  1  0  0  0  0
  9 12  1  6  0  0  0
  9 10  1  0  0  0  0
 10 11  1  0  0  0  0
 13 14  2  0  0  0  0
 14 15  1  0  0  0  0
 15  6  1  1  0  0  0
 16 18  1  0  0  0  0
 17 16  2  0  0  0  0
 17  9  1  0  0  0  0
 18 15  1  0  0  0  0
 18 11  2  0  0  0  0
 19 21  1  0  0  0  0
 20 21  1  0  0  0  0
 22 24  1  6  0  0  0
 22  1  1  0  0  0  0
 23 24  1  0  0  0  0
 25 24  1  0  0  0  0
 26 22  1  0  0  0  0
 27 26  1  0  0  0  0
 29 31  1  0  0  0  0
 29 30  1  0  0  0  0
 30 28  1  6  0  0  0
 31 27  1  1  0  0  0
 31 30  1  0  0  0  0
 33 32  1  6  0  0  0
 33 31  1  0  0  0  0
 33 36  1  0  0  0  0
 34 43  1  6  0  0  0
 34 38  1  0  0  0  0
 35 39  1  0  0  0  0
 35 34  1  0  0  0  0
 36 35  2  0  0  0  0
 37 38  1  0  0  0  0
 38 40  1  1  0  0  0
 39 45  1  6  0  0  0
 39 37  1  0  0  0  0
 40 41  1  0  0  0  0
 42 40  1  0  0  0  0
 43 44  1  0  0  0  0
 45 46  1  0  0  0  0
 47 46  1  0  0  0  0
 48 50  1  0  0  0  0
 50 49  1  6  0  0  0
 50 51  1  0  0  0  0
 51 52  1  0  0  0  0
 52 53  1  1  0  0  0
 52 55  1  0  0  0  0
 55 54  1  0  0  0  0
M  END
>  <MODEL>
5

>  <REMARK>
 VINA RESULT:      -5.1      2.331      4.229
  Name = 
  23 active torsions:
  status: ('A' for Active; 'I' for Inactive)
    1  A    between atoms: N_2  and  N_39
    2  A    between atoms: N_2  and  C_51
    3  A    between atoms: N_3  and  C_42
    4  A    between atoms: C_4  and  C_11
    5  A    between atoms: C_6  and  O_30
    6  A    between atoms: C_6  and  C_49
    7  A    between atoms: C_8  and  C_41
    8  A    between atoms: C_8  and  S_50
    9  A    between atoms: C_9  and  C_25
   10  A    between atoms: N_12  and  C_41
   11  A    between atoms: C_13  and  C_28
   12  A    between atoms: C_13  and  C_53
   13  A    between atoms: C_15  and  C_16
   14  A    between atoms: C_15  and  C_41
   15  A    between atoms: C_16  and  C_35
   16  A    between atoms: O_17  and  C_25
   17  A    between atoms: O_17  and  C_29
   18  A    between atoms: C_23  and  C_32
   19  A    between atoms: C_23  and  C_35
   20  A    between atoms: C_25  and  C_35
   21  A    between atoms: C_27  and  C_44
   22  A    between atoms: C_29  and  C_53
   23  A    between atoms: O_30  and  C_32
                            x       y       z     vdW  Elec       q    Type
                         _______ _______ _______ _____ _____    ______ ____

>  <TORSDO>
F 23

$$$$
=
 OpenBabel11062415103D

 55 58  0  0  1  0  0  0  0  0999 V2000
  187.6510  177.8740  142.0720 C   0  0  2  0  0  3  0  0  0  0  0  0
  187.9270  178.6580  140.7990 C   0  0  0  0  0  2  0  0  0  0  0  0
  189.0110  177.9810  139.9670 C   0  0  0  0  0  2  0  0  0  0  0  0
  188.4270  177.1180  138.8440 C   0  0  2  0  0  3  0  0  0  0  0  0
  189.3600  176.9790  137.7320 N   0  0  0  0  0  2  0  0  0  0  0  0
  189.6500  175.7280  137.1000 C   0  0  0  0  0  0  0  0  0  0  0  0
  188.9720  174.7030  137.3750 O   0  0  0  0  0  0  0  0  0  0  0  0
  191.7780  173.4310  135.7270 O   0  0  0  0  0  0  0  0  0  0  0  0
  194.2930  174.4150  138.3460 C   0  0  2  0  0  3  0  0  0  0  0  0
  194.1550  175.9340  138.0940 C   0  0  0  0  0  2  0  0  0  0  0  0
  192.7790  176.3130  137.5960 C   0  0  0  0  0  3  0  0  0  0  0  0
  195.7520  174.0390  138.4860 C   0  0  0  0  0  1  0  0  0  0  0  0
  189.8280  174.0010  134.5940 O   0  0  0  0  0  0  0  0  0  0  0  0
  190.7340  174.2990  135.4160 C   0  0  0  0  0  0  0  0  0  0  0  0
  190.8010  175.6140  136.1500 C   0  0  2  0  0  3  0  0  0  0  0  0
  192.5800  174.0830  136.6410 C   0  0  0  0  0  0  0  0  0  0  0  0
  193.6420  173.5830  137.2630 C   0  0  0  0  0  3  0  0  0  0  0  0
  192.0910  175.4220  136.8830 C   0  0  0  0  0  0  0  0  0  0  0  0
  187.0580  177.6100  138.3660 C   0  0  0  0  0  2  0  0  0  0  0  0
  186.3800  177.1270  135.8580 C   0  0  0  0  0  1  0  0  0  0  0  0
  187.1160  178.5100  136.7790 S   0  0  0  0  0  0  0  0  0  0  0  0
  186.1830  177.9990  142.5150 C   0  0  1  0  0  3  0  0  0  0  0  0
  185.5860  177.6090  144.9090 C   0  0  0  0  0  1  0  0  0  0  0  0
  185.9910  178.6540  143.8910 C   0  0  0  0  0  3  0  0  0  0  0  0
  184.9620  179.7690  143.8730 C   0  0  0  0  0  1  0  0  0  0  0  0
  185.3980  178.6150  141.5290 O   0  0  0  0  0  0  0  0  0  0  0  0
  184.3370  177.7340  141.2950 C   0  0  0  0  0  2  0  0  0  0  0  0
  181.3330  179.9200  140.7990 O   0  0  0  0  0  1  0  0  0  0  0  0
  181.9940  177.7290  140.6930 O   0  0  0  0  0  0  0  0  0  0  0  0
  182.0860  178.9290  141.4310 C   0  0  1  0  0  3  0  0  0  0  0  0
  183.2020  178.4430  140.5770 C   0  0  1  0  0  0  0  0  0  0  0  0
  184.5180  179.9320  139.2120 O   0  0  0  0  0  1  0  0  0  0  0  0
  183.4650  179.0160  139.1700 C   0  0  2  0  0  3  0  0  0  0  0  0
  181.6260  177.5570  137.2600 C   0  0  1  0  0  3  0  0  0  0  0  0
  181.4770  178.9920  137.6470 C   0  0  0  0  0  0  0  0  0  0  0  0
  182.2600  179.6370  138.5210 C   0  0  0  0  0  3  0  0  0  0  0  0
  179.4110  178.4410  136.5980 C   0  0  0  0  0  2  0  0  0  0  0  0
  180.3540  177.2460  136.4640 C   0  0  2  0  0  3  0  0  0  0  0  0
  180.2290  179.6090  137.1290 C   0  0  2  0  0  3  0  0  0  0  0  0
  179.6950  175.9930  136.8590 N   0  0  0  0  0  0  0  0  0  0  0  0
  180.2260  175.4930  138.1230 C   0  0  0  0  0  1  0  0  0  0  0  0
  179.9740  175.0640  135.9140 O   0  0  0  0  0  1  0  0  0  0  0  0
  182.8810  177.2870  136.4230 C   0  0  0  0  0  2  0  0  0  0  0  0
  182.6970  177.6160  134.9480 C   0  0  0  0  0  1  0  0  0  0  0  0
  180.5480  180.5220  136.0440 N   0  0  0  0  0  2  0  0  0  0  0  0
  180.3990  181.8240  136.5440 N   0  0  0  0  0  2  0  0  0  0  0  0
  179.0970  182.2960  136.1040 C   0  0  0  0  0  1  0  0  0  0  0  0
  188.6100  178.2980  143.1890 C   0  0  0  0  0  2  0  0  0  0  0  0
  189.3620  175.9190  142.8650 C   0  0  0  0  0  1  0  0  0  0  0  0
  189.3890  177.1250  143.7880 C   0  0  2  0  0  3  0  0  0  0  0  0
  188.8860  176.7810  145.0470 O   0  0  0  0  0  0  0  0  0  0  0  0
  189.3650  177.7610  145.9180 C   0  0  1  0  0  3  0  0  0  0  0  0
  188.4940  177.8090  147.1620 C   0  0  0  0  0  1  0  0  0  0  0  0
  190.8650  176.1420  146.8240 O   0  0  0  0  0  1  0  0  0  0  0  0
  190.7940  177.4350  146.3050 C   0  0  0  0  0  2  0  0  0  0  0  0
  1  2  1  6  0  0  0
  1 22  1  0  0  0  0
  1 48  1  0  0  0  0
  3  2  1  0  0  0  0
  4 19  1  6  0  0  0
  4  3  1  0  0  0  0
  5  4  1  0  0  0  0
  6  7  2  0  0  0  0
  6  5  1  0  0  0  0
  8 16  1  0  0  0  0
  9 12  1  6  0  0  0
 10  9  1  0  0  0  0
 11 10  1  0  0  0  0
 13 14  2  0  0  0  0
 14  8  1  0  0  0  0
 14 15  1  0  0  0  0
 15 18  1  0  0  0  0
 15  6  1  1  0  0  0
 16 18  1  0  0  0  0
 16 17  2  0  0  0  0
 17  9  1  0  0  0  0
 18 11  2  0  0  0  0
 20 21  1  0  0  0  0
 21 19  1  0  0  0  0
 22 26  1  6  0  0  0
 22 24  1  0  0  0  0
 24 23  1  0  0  0  0
 25 24  1  0  0  0  0
 27 26  1  0  0  0  0
 29 30  1  0  0  0  0
 30 28  1  6  0  0  0
 31 29  1  0  0  0  0
 31 27  1  1  0  0  0
 31 30  1  0  0  0  0
 33 32  1  1  0  0  0
 33 31  1  0  0  0  0
 34 43  1  6  0  0  0
 34 35  1  0  0  0  0
 35 36  2  0  0  0  0
 36 33  1  0  0  0  0
 37 39  1  0  0  0  0
 38 37  1  0  0  0  0
 38 40  1  1  0  0  0
 38 34  1  0  0  0  0
 39 45  1  6  0  0  0
 39 35  1  0  0  0  0
 40 41  1  0  0  0  0
 42 40  1  0  0  0  0
 44 43  1  0  0  0  0
 45 46  1  0  0  0  0
 47 46  1  0  0  0  0
 48 50  1  0  0  0  0
 50 49  1  6  0  0  0
 50 51  1  0  0  0  0
 51 52  1  0  0  0  0
 52 55  1  0  0  0  0
 52 53  1  1  0  0  0
 55 54  1  0  0  0  0
M  END
>  <MODEL>
6

>  <REMARK>
 VINA RESULT:      -5.0      1.977      2.738
  Name = 
  23 active torsions:
  status: ('A' for Active; 'I' for Inactive)
    1  A    between atoms: N_2  and  N_39
    2  A    between atoms: N_2  and  C_51
    3  A    between atoms: N_3  and  C_42
    4  A    between atoms: C_4  and  C_11
    5  A    between atoms: C_6  and  O_30
    6  A    between atoms: C_6  and  C_49
    7  A    between atoms: C_8  and  C_41
    8  A    between atoms: C_8  and  S_50
    9  A    between atoms: C_9  and  C_25
   10  A    between atoms: N_12  and  C_41
   11  A    between atoms: C_13  and  C_28
   12  A    between atoms: C_13  and  C_53
   13  A    between atoms: C_15  and  C_16
   14  A    between atoms: C_15  and  C_41
   15  A    between atoms: C_16  and  C_35
   16  A    between atoms: O_17  and  C_25
   17  A    between atoms: O_17  and  C_29
   18  A    between atoms: C_23  and  C_32
   19  A    between atoms: C_23  and  C_35
   20  A    between atoms: C_25  and  C_35
   21  A    between atoms: C_27  and  C_44
   22  A    between atoms: C_29  and  C_53
   23  A    between atoms: O_30  and  C_32
                            x       y       z     vdW  Elec       q    Type
                         _______ _______ _______ _____ _____    ______ ____

>  <TORSDO>
F 23

$$$$
=
 OpenBabel11062415103D

 55 58  0  0  1  0  0  0  0  0999 V2000
  186.3470  178.1710  142.6270 C   0  0  2  0  0  3  0  0  0  0  0  0
  186.8550  178.9640  141.4330 C   0  0  0  0  0  2  0  0  0  0  0  0
  187.1770  178.0400  140.2640 C   0  0  0  0  0  2  0  0  0  0  0  0
  188.6790  177.9690  139.9770 C   0  0  2  0  0  3  0  0  0  0  0  0
  188.9460  177.5790  138.5970 N   0  0  0  0  0  2  0  0  0  0  0  0
  189.0390  178.5150  137.5190 C   0  0  0  0  0  0  0  0  0  0  0  0
  189.0600  179.7530  137.7500 O   0  0  0  0  0  0  0  0  0  0  0  0
  187.4820  176.3070  135.4220 O   0  0  0  0  0  0  0  0  0  0  0  0
  190.3290  173.9300  136.0520 C   0  0  2  0  0  3  0  0  0  0  0  0
  191.4330  174.9740  135.7720 C   0  0  0  0  0  2  0  0  0  0  0  0
  190.9940  176.3810  136.1020 C   0  0  0  0  0  3  0  0  0  0  0  0
  190.6680  172.6160  135.3820 C   0  0  0  0  0  1  0  0  0  0  0  0
  186.7230  178.5040  135.5360 O   0  0  0  0  0  0  0  0  0  0  0  0
  187.6550  177.6670  135.6690 C   0  0  0  0  0  0  0  0  0  0  0  0
  189.0530  178.0310  136.1020 C   0  0  2  0  0  3  0  0  0  0  0  0
  188.7000  175.7020  135.6540 C   0  0  0  0  0  0  0  0  0  0  0  0
  188.9590  174.4000  135.6150 C   0  0  0  0  0  3  0  0  0  0  0  0
  189.7020  176.6880  135.9950 C   0  0  0  0  0  0  0  0  0  0  0  0
  189.4320  177.0740  140.9660 C   0  0  0  0  0  2  0  0  0  0  0  0
  191.9230  177.1400  140.0850 C   0  0  0  0  0  1  0  0  0  0  0  0
  191.0200  177.7780  141.5270 S   0  0  0  0  0  0  0  0  0  0  0  0
  184.8200  178.2760  142.7760 C   0  0  1  0  0  3  0  0  0  0  0  0
  182.9100  178.6270  144.3490 C   0  0  0  0  0  1  0  0  0  0  0  0
  184.3560  178.9760  144.0620 C   0  0  0  0  0  3  0  0  0  0  0  0
  184.5100  180.4850  143.9990 C   0  0  0  0  0  1  0  0  0  0  0  0
  184.2280  178.8340  141.6350 O   0  0  0  0  0  0  0  0  0  0  0  0
  183.6480  177.7580  140.9530 C   0  0  0  0  0  2  0  0  0  0  0  0
  180.5570  179.7730  140.2890 O   0  0  0  0  0  1  0  0  0  0  0  0
  181.2310  177.7090  141.0220 O   0  0  0  0  0  0  0  0  0  0  0  0
  181.4800  179.0970  141.0900 C   0  0  1  0  0  3  0  0  0  0  0  0
  182.3430  178.1810  140.2990 C   0  0  1  0  0  0  0  0  0  0  0  0
  181.5410  179.1540  138.2460 O   0  0  0  0  0  1  0  0  0  0  0  0
  182.2070  178.0450  138.7700 C   0  0  2  0  0  3  0  0  0  0  0  0
  183.5420  175.9510  137.0400 C   0  0  1  0  0  3  0  0  0  0  0  0
  182.1300  175.8760  137.5210 C   0  0  0  0  0  0  0  0  0  0  0  0
  181.5410  176.7760  138.3190 C   0  0  0  0  0  3  0  0  0  0  0  0
  182.6040  173.6830  136.7240 C   0  0  0  0  0  2  0  0  0  0  0  0
  183.7980  174.5810  136.4020 C   0  0  2  0  0  3  0  0  0  0  0  0
  181.4740  174.5810  137.2060 C   0  0  2  0  0  3  0  0  0  0  0  0
  185.0650  173.9600  136.8110 N   0  0  0  0  0  0  0  0  0  0  0  0
  185.5140  172.9790  135.8300 C   0  0  0  0  0  1  0  0  0  0  0  0
  184.8420  173.2930  137.9690 O   0  0  0  0  0  1  0  0  0  0  0  0
  183.7750  177.0820  136.0330 C   0  0  0  0  0  2  0  0  0  0  0  0
  182.8130  177.0380  134.8530 C   0  0  0  0  0  1  0  0  0  0  0  0
  180.5040  174.7700  136.1390 N   0  0  0  0  0  2  0  0  0  0  0  0
  180.5040  173.5960  135.3710 N   0  0  0  0  0  2  0  0  0  0  0  0
  179.1670  173.0340  135.4670 C   0  0  0  0  0  1  0  0  0  0  0  0
  187.0650  178.6050  143.9100 C   0  0  0  0  0  2  0  0  0  0  0  0
  188.0090  176.2740  143.9910 C   0  0  0  0  0  1  0  0  0  0  0  0
  188.2920  177.7470  144.2290 C   0  0  2  0  0  3  0  0  0  0  0  0
  188.7150  177.9500  145.5470 O   0  0  0  0  0  0  0  0  0  0  0  0
  189.7290  177.0130  145.7580 C   0  0  1  0  0  3  0  0  0  0  0  0
  191.0360  177.5380  145.1890 C   0  0  0  0  0  1  0  0  0  0  0  0
  188.6280  176.7470  147.8580 O   0  0  0  0  0  1  0  0  0  0  0  0
  189.8820  176.7620  147.2450 C   0  0  0  0  0  2  0  0  0  0  0  0
  1  2  1  6  0  0  0
  1 22  1  0  0  0  0
  1 48  1  0  0  0  0
  3  2  1  0  0  0  0
  4  3  1  1  0  0  0
  4 19  1  0  0  0  0
  5  4  1  0  0  0  0
  6  7  2  0  0  0  0
  6  5  1  0  0  0  0
  8 16  1  0  0  0  0
  8 14  1  0  0  0  0
  9 12  1  6  0  0  0
 10  9  1  0  0  0  0
 10 11  1  0  0  0  0
 13 14  2  0  0  0  0
 14 15  1  0  0  0  0
 15  6  1  1  0  0  0
 16 18  1  0  0  0  0
 17 16  2  0  0  0  0
 17  9  1  0  0  0  0
 18 11  2  0  0  0  0
 18 15  1  0  0  0  0
 19 21  1  0  0  0  0
 20 21  1  0  0  0  0
 22 26  1  6  0  0  0
 22 24  1  0  0  0  0
 24 23  1  0  0  0  0
 25 24  1  0  0  0  0
 27 26  1  0  0  0  0
 29 30  1  0  0  0  0
 30 28  1  6  0  0  0
 31 27  1  1  0  0  0
 31 29  1  0  0  0  0
 31 30  1  0  0  0  0
 33 32  1  1  0  0  0
 33 31  1  0  0  0  0
 34 43  1  6  0  0  0
 34 35  1  0  0  0  0
 35 36  2  0  0  0  0
 36 33  1  0  0  0  0
 37 39  1  0  0  0  0
 38 37  1  0  0  0  0
 38 40  1  1  0  0  0
 38 34  1  0  0  0  0
 39 45  1  6  0  0  0
 39 35  1  0  0  0  0
 40 42  1  0  0  0  0
 41 40  1  0  0  0  0
 44 43  1  0  0  0  0
 46 47  1  0  0  0  0
 46 45  1  0  0  0  0
 48 50  1  0  0  0  0
 50 49  1  1  0  0  0
 50 51  1  0  0  0  0
 51 52  1  0  0  0  0
 52 53  1  1  0  0  0
 52 55  1  0  0  0  0
 55 54  1  0  0  0  0
M  END
>  <MODEL>
7

>  <REMARK>
 VINA RESULT:      -4.9      3.281      4.749
  Name = 
  23 active torsions:
  status: ('A' for Active; 'I' for Inactive)
    1  A    between atoms: N_2  and  N_39
    2  A    between atoms: N_2  and  C_51
    3  A    between atoms: N_3  and  C_42
    4  A    between atoms: C_4  and  C_11
    5  A    between atoms: C_6  and  O_30
    6  A    between atoms: C_6  and  C_49
    7  A    between atoms: C_8  and  C_41
    8  A    between atoms: C_8  and  S_50
    9  A    between atoms: C_9  and  C_25
   10  A    between atoms: N_12  and  C_41
   11  A    between atoms: C_13  and  C_28
   12  A    between atoms: C_13  and  C_53
   13  A    between atoms: C_15  and  C_16
   14  A    between atoms: C_15  and  C_41
   15  A    between atoms: C_16  and  C_35
   16  A    between atoms: O_17  and  C_25
   17  A    between atoms: O_17  and  C_29
   18  A    between atoms: C_23  and  C_32
   19  A    between atoms: C_23  and  C_35
   20  A    between atoms: C_25  and  C_35
   21  A    between atoms: C_27  and  C_44
   22  A    between atoms: C_29  and  C_53
   23  A    between atoms: O_30  and  C_32
                            x       y       z     vdW  Elec       q    Type
                         _______ _______ _______ _____ _____    ______ ____

>  <TORSDO>
F 23

$$$$
=
 OpenBabel11062415103D

 55 58  0  0  1  0  0  0  0  0999 V2000
  184.9260  178.9610  142.4240 C   0  0  2  0  0  3  0  0  0  0  0  0
  185.8120  177.8810  143.0240 C   0  0  0  0  0  2  0  0  0  0  0  0
  185.5170  177.6970  144.5080 C   0  0  0  0  0  2  0  0  0  0  0  0
  186.7150  178.0670  145.3880 C   0  0  2  0  0  3  0  0  0  0  0  0
  187.8310  177.1490  145.1900 N   0  0  0  0  0  2  0  0  0  0  0  0
  189.1160  177.5640  144.7150 C   0  0  0  0  0  0  0  0  0  0  0  0
  189.3900  178.7880  144.6050 O   0  0  0  0  0  0  0  0  0  0  0  0
  192.4200  177.2380  143.8940 O   0  0  0  0  0  0  0  0  0  0  0  0
  191.3890  177.4420  140.2820 C   0  0  2  0  0  3  0  0  0  0  0  0
  190.2750  176.3780  140.4050 C   0  0  0  0  0  2  0  0  0  0  0  0
  189.6710  176.3330  141.7900 C   0  0  0  0  0  3  0  0  0  0  0  0
  192.1970  177.2100  139.0230 C   0  0  0  0  0  1  0  0  0  0  0  0
  191.7460  176.8630  146.0890 O   0  0  0  0  0  0  0  0  0  0  0  0
  191.4780  176.8890  144.8590 C   0  0  0  0  0  0  0  0  0  0  0  0
  190.1250  176.5440  144.2880 C   0  0  2  0  0  3  0  0  0  0  0  0
  191.7890  177.1470  142.6700 C   0  0  0  0  0  0  0  0  0  0  0  0
  192.3010  177.4730  141.4880 C   0  0  0  0  0  3  0  0  0  0  0  0
  190.4350  176.6660  142.8300 C   0  0  0  0  0  0  0  0  0  0  0  0
  186.3490  178.1910  146.8700 C   0  0  0  0  0  2  0  0  0  0  0  0
  188.0220  176.9250  148.4780 C   0  0  0  0  0  1  0  0  0  0  0  0
  187.7600  178.6400  147.9370 S   0  0  0  0  0  0  0  0  0  0  0  0
  183.4790  178.4740  142.2330 C   0  0  1  0  0  3  0  0  0  0  0  0
  181.2020  179.1810  142.9790 C   0  0  0  0  0  1  0  0  0  0  0  0
  182.5660  178.7160  143.4440 C   0  0  0  0  0  3  0  0  0  0  0  0
  183.1390  179.7270  144.4210 C   0  0  0  0  0  1  0  0  0  0  0  0
  182.9190  178.9730  141.0490 O   0  0  0  0  0  0  0  0  0  0  0  0
  182.4500  177.8500  140.3580 C   0  0  0  0  0  2  0  0  0  0  0  0
  180.8360  179.7440  137.5550 O   0  0  0  0  0  1  0  0  0  0  0  0
  180.6240  179.3340  139.7990 O   0  0  0  0  0  0  0  0  0  0  0  0
  181.5340  179.6140  138.7570 C   0  0  1  0  0  3  0  0  0  0  0  0
  181.3980  178.2520  139.3380 C   0  0  1  0  0  0  0  0  0  0  0  0
  179.4060  176.8960  139.3490 O   0  0  0  0  0  1  0  0  0  0  0  0
  180.5850  177.1430  138.6430 C   0  0  2  0  0  3  0  0  0  0  0  0
  182.3850  176.6140  136.2680 C   0  0  1  0  0  3  0  0  0  0  0  0
  182.1040  175.6270  137.3530 C   0  0  0  0  0  0  0  0  0  0  0  0
  181.3420  175.8630  138.4280 C   0  0  0  0  0  3  0  0  0  0  0  0
  183.9750  174.7190  136.1910 C   0  0  0  0  0  2  0  0  0  0  0  0
  183.4960  175.9600  135.4390 C   0  0  2  0  0  3  0  0  0  0  0  0
  182.9290  174.3960  137.2490 C   0  0  2  0  0  3  0  0  0  0  0  0
  184.6130  176.8620  135.1230 N   0  0  0  0  0  0  0  0  0  0  0  0
  185.8030  176.1130  134.7340 C   0  0  0  0  0  1  0  0  0  0  0  0
  184.9230  177.5450  136.2510 O   0  0  0  0  0  1  0  0  0  0  0  0
  181.1580  176.9210  135.4020 C   0  0  0  0  0  2  0  0  0  0  0  0
  181.2910  178.2190  134.6180 C   0  0  0  0  0  1  0  0  0  0  0  0
  182.1010  173.2870  136.8030 N   0  0  0  0  0  2  0  0  0  0  0  0
  182.9550  172.3530  136.1990 N   0  0  0  0  0  2  0  0  0  0  0  0
  183.8660  171.8890  137.2320 C   0  0  0  0  0  1  0  0  0  0  0  0
  185.5180  179.4800  141.1090 C   0  0  0  0  0  2  0  0  0  0  0  0
  187.9890  179.0050  141.0820 C   0  0  0  0  0  1  0  0  0  0  0  0
  186.6280  178.5820  140.5560 C   0  0  2  0  0  3  0  0  0  0  0  0
  186.6270  178.5900  139.1570 O   0  0  0  0  0  0  0  0  0  0  0  0
  187.8310  177.9890  138.7840 C   0  0  1  0  0  3  0  0  0  0  0  0
  187.5470  176.6970  138.0350 C   0  0  0  0  0  1  0  0  0  0  0  0
  189.4470  178.2110  137.0420 O   0  0  0  0  0  1  0  0  0  0  0  0
  188.6120  178.9360  137.8940 C   0  0  0  0  0  2  0  0  0  0  0  0
  1 48  1  6  0  0  0
  1  2  1  0  0  0  0
  2  3  1  0  0  0  0
  4  3  1  6  0  0  0
  4 19  1  0  0  0  0
  5  4  1  0  0  0  0
  6  5  1  0  0  0  0
  7  6  2  0  0  0  0
  8 14  1  0  0  0  0
  9 12  1  6  0  0  0
  9 10  1  0  0  0  0
  9 17  1  0  0  0  0
 10 11  1  0  0  0  0
 11 18  2  0  0  0  0
 14 13  2  0  0  0  0
 15  6  1  1  0  0  0
 15 14  1  0  0  0  0
 16 18  1  0  0  0  0
 16  8  1  0  0  0  0
 17 16  2  0  0  0  0
 18 15  1  0  0  0  0
 19 21  1  0  0  0  0
 21 20  1  0  0  0  0
 22 26  1  6  0  0  0
 22  1  1  0  0  0  0
 22 24  1  0  0  0  0
 23 24  1  0  0  0  0
 24 25  1  0  0  0  0
 27 26  1  0  0  0  0
 30 28  1  6  0  0  0
 30 31  1  0  0  0  0
 30 29  1  0  0  0  0
 31 29  1  0  0  0  0
 31 27  1  1  0  0  0
 33 31  1  0  0  0  0
 33 32  1  1  0  0  0
 34 43  1  6  0  0  0
 34 35  1  0  0  0  0
 35 36  2  0  0  0  0
 36 33  1  0  0  0  0
 37 39  1  0  0  0  0
 38 40  1  1  0  0  0
 38 37  1  0  0  0  0
 38 34  1  0  0  0  0
 39 45  1  6  0  0  0
 39 35  1  0  0  0  0
 40 42  1  0  0  0  0
 41 40  1  0  0  0  0
 44 43  1  0  0  0  0
 46 45  1  0  0  0  0
 46 47  1  0  0  0  0
 50 49  1  1  0  0  0
 50 48  1  0  0  0  0
 51 50  1  0  0  0  0
 52 53  1  6  0  0  0
 52 51  1  0  0  0  0
 54 55  1  0  0  0  0
 55 52  1  0  0  0  0
M  END
>  <MODEL>
8

>  <REMARK>
 VINA RESULT:      -4.8      3.731      6.919
  Name = 
  23 active torsions:
  status: ('A' for Active; 'I' for Inactive)
    1  A    between atoms: N_2  and  N_39
    2  A    between atoms: N_2  and  C_51
    3  A    between atoms: N_3  and  C_42
    4  A    between atoms: C_4  and  C_11
    5  A    between atoms: C_6  and  O_30
    6  A    between atoms: C_6  and  C_49
    7  A    between atoms: C_8  and  C_41
    8  A    between atoms: C_8  and  S_50
    9  A    between atoms: C_9  and  C_25
   10  A    between atoms: N_12  and  C_41
   11  A    between atoms: C_13  and  C_28
   12  A    between atoms: C_13  and  C_53
   13  A    between atoms: C_15  and  C_16
   14  A    between atoms: C_15  and  C_41
   15  A    between atoms: C_16  and  C_35
   16  A    between atoms: O_17  and  C_25
   17  A    between atoms: O_17  and  C_29
   18  A    between atoms: C_23  and  C_32
   19  A    between atoms: C_23  and  C_35
   20  A    between atoms: C_25  and  C_35
   21  A    between atoms: C_27  and  C_44
   22  A    between atoms: C_29  and  C_53
   23  A    between atoms: O_30  and  C_32
                            x       y       z     vdW  Elec       q    Type
                         _______ _______ _______ _____ _____    ______ ____

>  <TORSDO>
F 23

$$$$
=
 OpenBabel11062415103D

 55 58  0  0  1  0  0  0  0  0999 V2000
  187.7650  177.7920  141.5180 C   0  0  2  0  0  3  0  0  0  0  0  0
  187.9350  178.2450  140.0770 C   0  0  0  0  0  2  0  0  0  0  0  0
  188.8090  177.2680  139.2990 C   0  0  0  0  0  2  0  0  0  0  0  0
  188.2950  177.0370  137.8750 C   0  0  2  0  0  3  0  0  0  0  0  0
  187.6940  175.7160  137.7290 N   0  0  0  0  0  2  0  0  0  0  0  0
  186.4070  175.4980  137.1420 C   0  0  0  0  0  0  0  0  0  0  0  0
  185.8010  176.4410  136.5650 O   0  0  0  0  0  0  0  0  0  0  0  0
  184.9220  173.0630  135.2550 O   0  0  0  0  0  0  0  0  0  0  0  0
  181.6050  174.5760  136.1810 C   0  0  2  0  0  3  0  0  0  0  0  0
  181.9060  174.6290  137.6960 C   0  0  0  0  0  2  0  0  0  0  0  0
  183.3800  174.7850  137.9860 C   0  0  0  0  0  3  0  0  0  0  0  0
  180.2000  174.0640  135.9440 C   0  0  0  0  0  1  0  0  0  0  0  0
  187.1900  172.9020  135.7480 O   0  0  0  0  0  0  0  0  0  0  0  0
  186.0420  173.3280  136.0400 C   0  0  0  0  0  0  0  0  0  0  0  0
  185.7420  174.1620  137.2600 C   0  0  2  0  0  3  0  0  0  0  0  0
  183.8480  173.6680  135.8750 C   0  0  0  0  0  0  0  0  0  0  0  0
  182.6020  173.7320  135.4180 C   0  0  0  0  0  3  0  0  0  0  0  0
  184.2580  174.2820  137.1180 C   0  0  0  0  0  0  0  0  0  0  0  0
  189.3650  177.2850  136.8080 C   0  0  0  0  0  2  0  0  0  0  0  0
  191.5800  176.0440  136.0730 C   0  0  0  0  0  1  0  0  0  0  0  0
  189.7940  175.7970  135.8420 S   0  0  0  0  0  0  0  0  0  0  0  0
  186.3550  178.0990  142.0520 C   0  0  1  0  0  3  0  0  0  0  0  0
  185.8910  177.8650  144.4960 C   0  0  0  0  0  1  0  0  0  0  0  0
  186.3350  178.8200  143.4080 C   0  0  0  0  0  3  0  0  0  0  0  0
  185.4370  180.0440  143.4110 C   0  0  0  0  0  1  0  0  0  0  0  0
  185.5760  178.7640  141.0960 O   0  0  0  0  0  0  0  0  0  0  0  0
  184.2680  178.7320  141.5940 C   0  0  0  0  0  2  0  0  0  0  0  0
  181.0500  177.6460  140.0090 O   0  0  0  0  0  1  0  0  0  0  0  0
  183.1750  176.9070  140.4430 O   0  0  0  0  0  0  0  0  0  0  0  0
  182.0660  177.6060  140.9660 C   0  0  1  0  0  3  0  0  0  0  0  0
  183.2940  178.3090  140.5090 C   0  0  1  0  0  0  0  0  0  0  0  0
  184.6920  179.3790  138.8640 O   0  0  0  0  0  1  0  0  0  0  0  0
  183.3760  179.0010  139.1340 C   0  0  2  0  0  3  0  0  0  0  0  0
  181.2410  179.2100  136.9990 C   0  0  1  0  0  3  0  0  0  0  0  0
  181.5390  180.2740  138.0040 C   0  0  0  0  0  0  0  0  0  0  0  0
  182.4530  180.1770  138.9780 C   0  0  0  0  0  3  0  0  0  0  0  0
  179.4430  180.9090  137.0670 C   0  0  0  0  0  2  0  0  0  0  0  0
  179.9650  179.6940  136.3010 C   0  0  2  0  0  3  0  0  0  0  0  0
  180.5680  181.3980  137.9680 C   0  0  2  0  0  3  0  0  0  0  0  0
  178.9310  178.6590  136.1650 N   0  0  0  0  0  0  0  0  0  0  0  0
  179.1490  177.5670  137.1070 C   0  0  0  0  0  1  0  0  0  0  0  0
  179.0320  178.1370  134.9190 O   0  0  0  0  0  1  0  0  0  0  0  0
  182.3760  179.0000  135.9910 C   0  0  0  0  0  2  0  0  0  0  0  0
  182.4310  177.5820  135.4400 C   0  0  0  0  0  1  0  0  0  0  0  0
  181.1980  182.5690  137.3800 N   0  0  0  0  0  2  0  0  0  0  0  0
  180.1930  183.5310  137.2010 N   0  0  0  0  0  2  0  0  0  0  0  0
  180.3820  184.0920  135.8740 C   0  0  0  0  0  1  0  0  0  0  0  0
  188.8470  178.4080  142.4120 C   0  0  0  0  0  2  0  0  0  0  0  0
  190.0650  176.2200  142.1620 C   0  0  0  0  0  1  0  0  0  0  0  0
  189.7190  177.3580  143.1070 C   0  0  2  0  0  3  0  0  0  0  0  0
  189.0880  176.8610  144.2510 O   0  0  0  0  0  0  0  0  0  0  0  0
  189.7910  177.4060  145.3270 C   0  0  1  0  0  3  0  0  0  0  0  0
  188.9730  177.2560  146.6000 C   0  0  0  0  0  1  0  0  0  0  0  0
  191.7030  177.0240  146.7010 O   0  0  0  0  0  1  0  0  0  0  0  0
  191.1150  176.6860  145.4820 C   0  0  0  0  0  2  0  0  0  0  0  0
  1  2  1  6  0  0  0
  1 22  1  0  0  0  0
  1 48  1  0  0  0  0
  3  2  1  0  0  0  0
  4 19  1  6  0  0  0
  4  3  1  0  0  0  0
  5  4  1  0  0  0  0
  6  5  1  0  0  0  0
  7  6  2  0  0  0  0
  8 16  1  0  0  0  0
  8 14  1  0  0  0  0
  9 12  1  1  0  0  0
  9 10  1  0  0  0  0
 10 11  1  0  0  0  0
 13 14  2  0  0  0  0
 14 15  1  0  0  0  0
 15  6  1  6  0  0  0
 16 18  1  0  0  0  0
 17 16  2  0  0  0  0
 17  9  1  0  0  0  0
 18 15  1  0  0  0  0
 18 11  2  0  0  0  0
 21 20  1  0  0  0  0
 21 19  1  0  0  0  0
 22 26  1  6  0  0  0
 22 24  1  0  0  0  0
 24 25  1  0  0  0  0
 24 23  1  0  0  0  0
 26 27  1  0  0  0  0
 29 31  1  0  0  0  0
 29 30  1  0  0  0  0
 30 28  1  6  0  0  0
 31 30  1  0  0  0  0
 31 27  1  1  0  0  0
 33 32  1  1  0  0  0
 33 31  1  0  0  0  0
 34 43  1  6  0  0  0
 34 35  1  0  0  0  0
 35 36  2  0  0  0  0
 36 33  1  0  0  0  0
 37 39  1  0  0  0  0
 38 40  1  1  0  0  0
 38 34  1  0  0  0  0
 38 37  1  0  0  0  0
 39 45  1  6  0  0  0
 39 35  1  0  0  0  0
 40 41  1  0  0  0  0
 42 40  1  0  0  0  0
 44 43  1  0  0  0  0
 46 45  1  0  0  0  0
 47 46  1  0  0  0  0
 48 50  1  0  0  0  0
 50 49  1  6  0  0  0
 50 51  1  0  0  0  0
 51 52  1  0  0  0  0
 52 55  1  0  0  0  0
 52 53  1  1  0  0  0
 55 54  1  0  0  0  0
M  END
>  <MODEL>
9

>  <REMARK>
 VINA RESULT:      -4.3      2.960      5.867
  Name = 
  23 active torsions:
  status: ('A' for Active; 'I' for Inactive)
    1  A    between atoms: N_2  and  N_39
    2  A    between atoms: N_2  and  C_51
    3  A    between atoms: N_3  and  C_42
    4  A    between atoms: C_4  and  C_11
    5  A    between atoms: C_6  and  O_30
    6  A    between atoms: C_6  and  C_49
    7  A    between atoms: C_8  and  C_41
    8  A    between atoms: C_8  and  S_50
    9  A    between atoms: C_9  and  C_25
   10  A    between atoms: N_12  and  C_41
   11  A    between atoms: C_13  and  C_28
   12  A    between atoms: C_13  and  C_53
   13  A    between atoms: C_15  and  C_16
   14  A    between atoms: C_15  and  C_41
   15  A    between atoms: C_16  and  C_35
   16  A    between atoms: O_17  and  C_25
   17  A    between atoms: O_17  and  C_29
   18  A    between atoms: C_23  and  C_32
   19  A    between atoms: C_23  and  C_35
   20  A    between atoms: C_25  and  C_35
   21  A    between atoms: C_27  and  C_44
   22  A    between atoms: C_29  and  C_53
   23  A    between atoms: O_30  and  C_32
                            x       y       z     vdW  Elec       q    Type
                         _______ _______ _______ _____ _____    ______ ____

>  <TORSDO>
F 23

$$$$
