=
 OpenBabel11062415523D

 44 46  0  0  1  0  0  0  0  0999 V2000
  189.5590  177.3220  139.7750 C   0  0  0  0  0  2  0  0  0  0  0  0
  190.7960  175.9190  138.3830 C   0  0  0  0  0  1  0  0  0  0  0  0
  189.5620  176.6900  138.4640 N   0  0  0  0  0  0  0  0  0  0  0  0
  189.6930  177.7650  137.4890 C   0  0  0  0  0  2  0  0  0  0  0  0
  187.6830  179.2720  136.6300 O   0  0  0  0  0  0  0  0  0  0  0  0
  188.6820  177.7200  135.0170 O   0  0  0  0  0  0  0  0  0  0  0  0
  188.2490  177.8880  136.4460 S   0  0  0  0  0  0  0  0  0  0  0  0
  186.9930  176.6600  136.8490 C   0  0  1  0  0  3  0  0  0  0  0  0
  186.6310  178.1070  139.4970 F   0  0  0  0  0  0  0  0  0  0  0  0
  184.5260  178.9670  138.8790 C   0  0  0  0  0  0  0  0  0  0  0  0
  184.5800  176.9020  136.9640 C   0  0  0  0  0  3  0  0  0  0  0  0
  183.3130  178.4580  138.3040 N   0  0  0  0  0  0  0  0  0  0  0  0
  185.7680  177.3320  137.4070 C   0  0  0  0  0  0  0  0  0  0  0  0
  183.3200  177.5060  137.4220 C   0  0  0  0  0  3  0  0  0  0  0  0
  185.8680  178.4750  138.4010 C   0  0  2  0  0  3  0  0  0  0  0  0
  184.4740  179.8910  139.7320 O   0  0  0  0  0  0  0  0  0  0  0  0
  186.6430  174.2910  135.7980 C   0  0  1  0  0  3  0  0  0  0  0  0
  186.6820  175.7820  135.6300 C   0  0  2  0  0  3  0  0  0  0  0  0
  187.8030  174.9670  135.3840 O   0  0  0  0  0  0  0  0  0  0  0  0
  187.5650  172.6170  137.1790 C   0  0  0  0  0  1  0  0  0  0  0  0
  186.7750  173.8430  137.1850 N   0  0  0  0  0  0  0  0  0  0  0  0
  185.5340  173.4670  137.5760 O   0  0  0  0  0  1  0  0  0  0  0  0
  190.9110  177.1400  140.4410 C   0  0  0  0  0  2  0  0  0  0  0  0
  190.9830  177.9870  142.9390 C   0  0  0  0  0  2  0  0  0  0  0  0
  190.5020  177.3730  144.1820 N   0  0  0  0  0  0  0  0  0  0  0  0
  190.2600  176.0410  143.8150 N   0  0  0  0  0  2  0  0  0  0  0  0
  190.7370  176.9420  141.9060 C   0  0  0  0  0  0  0  0  0  0  0  0
  190.3490  175.8440  142.4390 N   0  0  0  0  0  0  0  0  0  0  0  0
  191.5540  177.3720  145.1070 N   0  0  0  0  0  2  0  0  0  0  0  0
  192.3910  176.2790  146.9820 O   0  0  0  0  0  0  0  0  0  0  0  0
  191.3910  176.7490  146.3830 C   0  0  0  0  0  0  0  0  0  0  0  0
  190.1200  176.6210  146.9570 O   0  0  0  0  0  0  0  0  0  0  0  0
  189.4080  177.7570  147.4320 C   0  0  2  0  0  3  0  0  0  0  0  0
  189.9960  178.2110  148.6170 O   0  0  0  0  0  1  0  0  0  0  0  0
  187.4900  177.9630  148.8710 O   0  0  0  0  0  1  0  0  0  0  0  0
  187.9350  177.4230  147.6600 C   0  0  1  0  0  3  0  0  0  0  0  0
  187.3800  177.6040  145.3500 O   0  0  0  0  0  0  0  0  0  0  0  0
  187.0930  177.9090  146.5020 C   0  0  0  0  0  0  0  0  0  0  0  0
  185.8520  178.7070  146.7580 C   0  0  0  0  0  2  0  0  0  0  0  0
  183.9370  178.6100  145.2310 C   0  0  0  0  0  3  0  0  0  0  0  0
  185.1880  179.0090  145.4560 C   0  0  0  0  0  3  0  0  0  0  0  0
  183.2420  178.9700  143.9890 C   0  0  0  0  0  0  0  0  0  0  0  0
  181.8550  178.9770  143.9620 O   0  0  0  0  0  1  0  0  0  0  0  0
  183.8880  179.3210  142.9600 O   0  0  0  0  0  0  0  0  0  0  0  0
  1 23  1  0  0  0  0
  2  3  1  0  0  0  0
  3  1  1  0  0  0  0
  4  3  1  0  0  0  0
  6  7  2  0  0  0  0
  7  5  2  0  0  0  0
  7  4  1  0  0  0  0
  8  7  1  6  0  0  0
  8 13  1  0  0  0  0
 10 16  2  0  0  0  0
 11 13  2  0  0  0  0
 11 14  1  0  0  0  0
 12 10  1  0  0  0  0
 13 15  1  0  0  0  0
 14 12  2  0  0  0  0
 15 10  1  0  0  0  0
 15  9  1  1  0  0  0
 17 21  1  1  0  0  0
 18 17  1  0  0  0  0
 18  8  1  1  0  0  0
 19 18  1  0  0  0  0
 19 17  1  0  0  0  0
 20 21  1  0  0  0  0
 21 22  1  0  0  0  0
 23 27  1  0  0  0  0
 24 25  1  0  0  0  0
 25 29  1  0  0  0  0
 26 25  1  0  0  0  0
 27 28  2  0  0  0  0
 27 24  1  0  0  0  0
 28 26  1  0  0  0  0
 29 31  1  0  0  0  0
 31 32  1  0  0  0  0
 31 30  2  0  0  0  0
 32 33  1  0  0  0  0
 33 36  1  0  0  0  0
 33 34  1  1  0  0  0
 36 35  1  1  0  0  0
 37 38  2  0  0  0  0
 38 39  1  0  0  0  0
 38 36  1  0  0  0  0
 40 41  2  0  0  0  0
 41 39  1  0  0  0  0
 42 40  1  0  0  0  0
 43 42  1  0  0  0  0
 44 42  2  0  0  0  0
M  END
>  <MODEL>
1

>  <REMARK>
 VINA RESULT:      -7.3      0.000      0.000
  Name = 
  17 active torsions:
  status: ('A' for Active; 'I' for Inactive)
    1  A    between atoms: C_3  and  N_13
    2  A    between atoms: C_3  and  S_24
    3  A    between atoms: C_8  and  C_20
    4  A    between atoms: C_8  and  C_43
    5  A    between atoms: C_11  and  O_21
    6  A    between atoms: C_11  and  C_40
    7  A    between atoms: N_13  and  C_37
    8  A    between atoms: C_15  and  C_27
    9  A    between atoms: C_16  and  N_23
   10  A    between atoms: N_17  and  N_25
   11  A    between atoms: C_18  and  C_22
   12  A    between atoms: C_20  and  C_40
   13  A    between atoms: O_21  and  C_36
   14  A    between atoms: S_24  and  C_27
   15  A    between atoms: C_27  and  C_29
   16  A    between atoms: C_31  and  C_39
   17  A    between atoms: C_37  and  C_39
                            x       y       z     vdW  Elec       q    Type
                         _______ _______ _______ _____ _____    ______ ____

>  <TORSDO>
F 17

$$$$
=
 OpenBabel11062415523D

 44 46  0  0  1  0  0  0  0  0999 V2000
  184.2280  178.3640  142.5820 C   0  0  0  0  0  2  0  0  0  0  0  0
  182.0280  178.7840  141.9360 C   0  0  0  0  0  1  0  0  0  0  0  0
  183.4090  178.8320  141.4740 N   0  0  0  0  0  0  0  0  0  0  0  0
  183.5200  177.8250  140.4270 C   0  0  0  0  0  2  0  0  0  0  0  0
  184.2510  180.0120  139.1100 O   0  0  0  0  0  0  0  0  0  0  0  0
  185.4840  177.9510  138.6200 O   0  0  0  0  0  0  0  0  0  0  0  0
  184.1240  178.5260  138.9000 S   0  0  0  0  0  0  0  0  0  0  0  0
  183.0300  178.2020  137.5050 C   0  0  1  0  0  3  0  0  0  0  0  0
  183.3080  175.3770  138.5930 F   0  0  0  0  0  0  0  0  0  0  0  0
  183.5750  174.4450  136.4450 C   0  0  0  0  0  0  0  0  0  0  0  0
  184.2230  177.0870  135.7090 C   0  0  0  0  0  3  0  0  0  0  0  0
  184.3620  174.7170  135.2740 N   0  0  0  0  0  0  0  0  0  0  0  0
  183.4510  176.9440  136.7940 C   0  0  0  0  0  0  0  0  0  0  0  0
  184.6700  175.9270  134.9220 C   0  0  0  0  0  3  0  0  0  0  0  0
  182.9940  175.5730  137.2580 C   0  0  2  0  0  3  0  0  0  0  0  0
  183.2990  173.2560  136.7500 O   0  0  0  0  0  0  0  0  0  0  0  0
  180.5420  178.9470  137.1970 C   0  0  1  0  0  3  0  0  0  0  0  0
  181.5660  178.1590  137.9620 C   0  0  2  0  0  3  0  0  0  0  0  0
  181.1890  179.4640  138.3320 O   0  0  0  0  0  0  0  0  0  0  0  0
  180.5880  180.9540  135.9610 C   0  0  0  0  0  1  0  0  0  0  0  0
  181.0580  179.5740  135.9800 N   0  0  0  0  0  0  0  0  0  0  0  0
  180.4230  178.9670  134.9480 O   0  0  0  0  0  1  0  0  0  0  0  0
  183.5720  178.7290  143.9020 C   0  0  0  0  0  2  0  0  0  0  0  0
  186.0010  178.2850  144.8330 C   0  0  0  0  0  2  0  0  0  0  0  0
  186.6090  178.5900  146.1330 N   0  0  0  0  0  0  0  0  0  0  0  0
  185.5070  178.9020  146.9430 N   0  0  0  0  0  2  0  0  0  0  0  0
  184.5780  178.6930  144.9990 C   0  0  0  0  0  0  0  0  0  0  0  0
  184.3260  179.0170  146.2130 N   0  0  0  0  0  0  0  0  0  0  0  0
  187.1830  177.4140  146.6360 N   0  0  0  0  0  2  0  0  0  0  0  0
  189.1480  176.5200  147.5030 O   0  0  0  0  0  0  0  0  0  0  0  0
  188.6030  177.2510  146.6380 C   0  0  0  0  0  0  0  0  0  0  0  0
  189.4000  177.9290  145.7070 O   0  0  0  0  0  0  0  0  0  0  0  0
  190.4320  177.2590  144.9940 C   0  0  2  0  0  3  0  0  0  0  0  0
  191.6750  177.6260  145.5190 O   0  0  0  0  0  1  0  0  0  0  0  0
  191.5260  177.1500  142.8520 O   0  0  0  0  0  1  0  0  0  0  0  0
  190.3650  177.5820  143.5020 C   0  0  1  0  0  3  0  0  0  0  0  0
  188.8170  175.8100  143.1210 O   0  0  0  0  0  0  0  0  0  0  0  0
  189.1300  176.9710  142.8790 C   0  0  0  0  0  0  0  0  0  0  0  0
  188.2320  177.8040  142.0180 C   0  0  0  0  0  2  0  0  0  0  0  0
  188.7840  178.6770  139.7950 C   0  0  0  0  0  3  0  0  0  0  0  0
  188.6170  177.6200  140.5880 C   0  0  0  0  0  3  0  0  0  0  0  0
  189.2420  178.5170  138.4100 C   0  0  0  0  0  0  0  0  0  0  0  0
  190.1230  177.4910  138.0980 O   0  0  0  0  0  1  0  0  0  0  0  0
  188.8080  179.2680  137.4890 O   0  0  0  0  0  0  0  0  0  0  0  0
  1 23  1  0  0  0  0
  3  2  1  0  0  0  0
  3  1  1  0  0  0  0
  4  3  1  0  0  0  0
  6  7  2  0  0  0  0
  7  5  2  0  0  0  0
  7  4  1  0  0  0  0
  8  7  1  1  0  0  0
 10 16  2  0  0  0  0
 10 15  1  0  0  0  0
 11 13  2  0  0  0  0
 12 10  1  0  0  0  0
 13 15  1  0  0  0  0
 13  8  1  0  0  0  0
 14 12  2  0  0  0  0
 14 11  1  0  0  0  0
 15  9  1  1  0  0  0
 17 21  1  6  0  0  0
 17 18  1  0  0  0  0
 17 19  1  0  0  0  0
 18  8  1  6  0  0  0
 18 19  1  0  0  0  0
 20 21  1  0  0  0  0
 22 21  1  0  0  0  0
 23 27  1  0  0  0  0
 24 27  1  0  0  0  0
 24 25  1  0  0  0  0
 25 29  1  0  0  0  0
 25 26  1  0  0  0  0
 27 28  2  0  0  0  0
 28 26  1  0  0  0  0
 29 31  1  0  0  0  0
 31 30  2  0  0  0  0
 32 31  1  0  0  0  0
 33 34  1  1  0  0  0
 33 32  1  0  0  0  0
 36 35  1  6  0  0  0
 36 33  1  0  0  0  0
 38 37  2  0  0  0  0
 38 36  1  0  0  0  0
 39 38  1  0  0  0  0
 40 41  2  0  0  0  0
 41 39  1  0  0  0  0
 42 40  1  0  0  0  0
 43 42  1  0  0  0  0
 44 42  2  0  0  0  0
M  END
>  <MODEL>
2

>  <REMARK>
 VINA RESULT:      -7.2      3.018      6.184
  Name = 
  17 active torsions:
  status: ('A' for Active; 'I' for Inactive)
    1  A    between atoms: C_3  and  N_13
    2  A    between atoms: C_3  and  S_24
    3  A    between atoms: C_8  and  C_20
    4  A    between atoms: C_8  and  C_43
    5  A    between atoms: C_11  and  O_21
    6  A    between atoms: C_11  and  C_40
    7  A    between atoms: N_13  and  C_37
    8  A    between atoms: C_15  and  C_27
    9  A    between atoms: C_16  and  N_23
   10  A    between atoms: N_17  and  N_25
   11  A    between atoms: C_18  and  C_22
   12  A    between atoms: C_20  and  C_40
   13  A    between atoms: O_21  and  C_36
   14  A    between atoms: S_24  and  C_27
   15  A    between atoms: C_27  and  C_29
   16  A    between atoms: C_31  and  C_39
   17  A    between atoms: C_37  and  C_39
                            x       y       z     vdW  Elec       q    Type
                         _______ _______ _______ _____ _____    ______ ____

>  <TORSDO>
F 17

$$$$
=
 OpenBabel11062415523D

 44 46  0  0  1  0  0  0  0  0999 V2000
  184.4390  178.9660  142.7220 C   0  0  0  0  0  2  0  0  0  0  0  0
  182.1880  178.6560  142.1940 C   0  0  0  0  0  1  0  0  0  0  0  0
  183.4740  179.0550  141.6350 N   0  0  0  0  0  0  0  0  0  0  0  0
  183.8360  178.0190  140.6770 C   0  0  0  0  0  2  0  0  0  0  0  0
  184.5030  180.0120  139.0540 O   0  0  0  0  0  0  0  0  0  0  0  0
  186.3360  178.7270  140.0550 O   0  0  0  0  0  0  0  0  0  0  0  0
  184.9680  178.6320  139.4400 S   0  0  0  0  0  0  0  0  0  0  0  0
  185.0320  177.5820  137.9760 C   0  0  1  0  0  3  0  0  0  0  0  0
  184.1250  174.6900  137.7610 F   0  0  0  0  0  0  0  0  0  0  0  0
  181.8450  175.2810  137.6920 C   0  0  0  0  0  0  0  0  0  0  0  0
  182.8350  177.8180  136.9690 C   0  0  0  0  0  3  0  0  0  0  0  0
  181.0260  176.2210  136.9790 N   0  0  0  0  0  0  0  0  0  0  0  0
  183.6650  177.0330  137.6680 C   0  0  0  0  0  0  0  0  0  0  0  0
  181.4670  177.3920  136.6370 C   0  0  0  0  0  3  0  0  0  0  0  0
  183.2260  175.6650  138.1580 C   0  0  2  0  0  3  0  0  0  0  0  0
  181.3780  174.1550  138.0040 O   0  0  0  0  0  0  0  0  0  0  0  0
  186.8560  177.7690  136.1110 C   0  0  1  0  0  3  0  0  0  0  0  0
  185.6450  178.3400  136.7920 C   0  0  2  0  0  3  0  0  0  0  0  0
  186.9550  178.7140  137.1470 O   0  0  0  0  0  0  0  0  0  0  0  0
  188.6900  176.3350  136.4860 C   0  0  0  0  0  1  0  0  0  0  0  0
  187.2380  176.4410  136.5880 N   0  0  0  0  0  0  0  0  0  0  0  0
  186.7520  175.5620  135.6790 O   0  0  0  0  0  1  0  0  0  0  0  0
  183.7180  178.7270  144.0360 C   0  0  0  0  0  2  0  0  0  0  0  0
  186.1340  178.2860  145.0000 C   0  0  0  0  0  2  0  0  0  0  0  0
  186.7090  178.5470  146.3250 N   0  0  0  0  0  0  0  0  0  0  0  0
  185.5850  178.8060  147.1230 N   0  0  0  0  0  2  0  0  0  0  0  0
  184.7010  178.6630  145.1530 C   0  0  0  0  0  0  0  0  0  0  0  0
  184.4180  178.9310  146.3730 N   0  0  0  0  0  0  0  0  0  0  0  0
  187.2940  177.3610  146.7920 N   0  0  0  0  0  2  0  0  0  0  0  0
  189.2620  176.4610  147.6440 O   0  0  0  0  0  0  0  0  0  0  0  0
  188.7150  177.2150  146.8000 C   0  0  0  0  0  0  0  0  0  0  0  0
  189.5120  177.9350  145.9010 O   0  0  0  0  0  0  0  0  0  0  0  0
  190.4990  177.2860  145.1080 C   0  0  2  0  0  3  0  0  0  0  0  0
  191.7440  177.3920  145.7370 O   0  0  0  0  0  1  0  0  0  0  0  0
  191.8810  177.9990  143.2700 O   0  0  0  0  0  1  0  0  0  0  0  0
  190.5560  177.8880  143.7050 C   0  0  1  0  0  3  0  0  0  0  0  0
  189.4170  175.9140  143.0080 O   0  0  0  0  0  0  0  0  0  0  0  0
  189.7300  177.0690  142.7390 C   0  0  0  0  0  0  0  0  0  0  0  0
  189.2200  177.6870  141.4740 C   0  0  0  0  0  2  0  0  0  0  0  0
  191.0380  177.1220  139.9310 C   0  0  0  0  0  3  0  0  0  0  0  0
  189.7740  176.9400  140.3070 C   0  0  0  0  0  3  0  0  0  0  0  0
  191.6210  176.3350  138.8380 C   0  0  0  0  0  0  0  0  0  0  0  0
  192.7810  176.7820  138.2200 O   0  0  0  0  0  0  0  0  0  0  0  0
  191.1110  175.2330  138.4840 O   0  0  0  0  0  1  0  0  0  0  0  0
  1 23  1  0  0  0  0
  3  2  1  0  0  0  0
  3  1  1  0  0  0  0
  4  3  1  0  0  0  0
  5  7  2  0  0  0  0
  7  6  2  0  0  0  0
  7  4  1  0  0  0  0
  8  7  1  1  0  0  0
 10 16  2  0  0  0  0
 10 15  1  0  0  0  0
 11 13  2  0  0  0  0
 12 10  1  0  0  0  0
 13  8  1  0  0  0  0
 13 15  1  0  0  0  0
 14 11  1  0  0  0  0
 14 12  2  0  0  0  0
 15  9  1  6  0  0  0
 17 21  1  1  0  0  0
 17 18  1  0  0  0  0
 17 19  1  0  0  0  0
 18 19  1  0  0  0  0
 18  8  1  1  0  0  0
 20 21  1  0  0  0  0
 22 21  1  0  0  0  0
 23 27  1  0  0  0  0
 24 27  1  0  0  0  0
 24 25  1  0  0  0  0
 25 29  1  0  0  0  0
 25 26  1  0  0  0  0
 27 28  2  0  0  0  0
 28 26  1  0  0  0  0
 29 31  1  0  0  0  0
 31 30  2  0  0  0  0
 32 31  1  0  0  0  0
 33 34  1  1  0  0  0
 33 32  1  0  0  0  0
 36 35  1  6  0  0  0
 36 33  1  0  0  0  0
 38 37  2  0  0  0  0
 38 36  1  0  0  0  0
 39 38  1  0  0  0  0
 40 41  2  0  0  0  0
 41 39  1  0  0  0  0
 42 40  1  0  0  0  0
 43 42  2  0  0  0  0
 44 42  1  0  0  0  0
M  END
>  <MODEL>
3

>  <REMARK>
 VINA RESULT:      -7.2      2.818      5.765
  Name = 
  17 active torsions:
  status: ('A' for Active; 'I' for Inactive)
    1  A    between atoms: C_3  and  N_13
    2  A    between atoms: C_3  and  S_24
    3  A    between atoms: C_8  and  C_20
    4  A    between atoms: C_8  and  C_43
    5  A    between atoms: C_11  and  O_21
    6  A    between atoms: C_11  and  C_40
    7  A    between atoms: N_13  and  C_37
    8  A    between atoms: C_15  and  C_27
    9  A    between atoms: C_16  and  N_23
   10  A    between atoms: N_17  and  N_25
   11  A    between atoms: C_18  and  C_22
   12  A    between atoms: C_20  and  C_40
   13  A    between atoms: O_21  and  C_36
   14  A    between atoms: S_24  and  C_27
   15  A    between atoms: C_27  and  C_29
   16  A    between atoms: C_31  and  C_39
   17  A    between atoms: C_37  and  C_39
                            x       y       z     vdW  Elec       q    Type
                         _______ _______ _______ _____ _____    ______ ____

>  <TORSDO>
F 17

$$$$
=
 OpenBabel11062415523D

 44 46  0  0  1  0  0  0  0  0999 V2000
  184.7840  179.3210  140.4090 C   0  0  0  0  0  2  0  0  0  0  0  0
  183.8380  178.2780  142.2680 C   0  0  0  0  0  1  0  0  0  0  0  0
  183.5560  178.7180  140.9080 N   0  0  0  0  0  0  0  0  0  0  0  0
  183.3460  177.5060  140.1270 C   0  0  0  0  0  2  0  0  0  0  0  0
  182.9200  178.0840  137.5710 O   0  0  0  0  0  0  0  0  0  0  0  0
  181.3940  176.4770  138.6210 O   0  0  0  0  0  0  0  0  0  0  0  0
  182.1510  177.7600  138.8250 S   0  0  0  0  0  0  0  0  0  0  0  0
  180.9960  179.0940  139.1910 C   0  0  1  0  0  3  0  0  0  0  0  0
  180.6260  182.0890  138.8310 F   0  0  0  0  0  0  0  0  0  0  0  0
  180.6420  181.9320  136.4790 C   0  0  0  0  0  0  0  0  0  0  0  0
  180.0530  179.2180  136.9570 C   0  0  0  0  0  3  0  0  0  0  0  0
  180.0050  181.1240  135.4780 N   0  0  0  0  0  0  0  0  0  0  0  0
  180.6850  179.8710  137.9400 C   0  0  0  0  0  0  0  0  0  0  0  0
  179.7250  179.8740  135.6820 C   0  0  0  0  0  3  0  0  0  0  0  0
  181.1010  181.3220  137.7790 C   0  0  2  0  0  3  0  0  0  0  0  0
  180.8960  183.1410  136.2400 O   0  0  0  0  0  0  0  0  0  0  0  0
  179.3800  179.0500  141.2470 C   0  0  1  0  0  3  0  0  0  0  0  0
  179.7370  178.5480  139.8770 C   0  0  2  0  0  3  0  0  0  0  0  0
  180.1350  177.8820  141.0500 O   0  0  0  0  0  0  0  0  0  0  0  0
  180.6250  179.8240  143.0920 C   0  0  0  0  0  1  0  0  0  0  0  0
  180.2300  180.1400  141.7240 N   0  0  0  0  0  0  0  0  0  0  0  0
  179.4260  181.2250  141.8270 O   0  0  0  0  0  1  0  0  0  0  0  0
  185.9080  179.1090  141.4080 C   0  0  0  0  0  2  0  0  0  0  0  0
  188.2850  177.9660  141.4380 C   0  0  0  0  0  2  0  0  0  0  0  0
  189.0450  177.2860  140.3820 N   0  0  0  0  0  0  0  0  0  0  0  0
  188.3660  177.6470  139.2080 N   0  0  0  0  0  2  0  0  0  0  0  0
  187.0760  178.4770  140.7350 C   0  0  0  0  0  0  0  0  0  0  0  0
  187.1630  178.2990  139.4690 N   0  0  0  0  0  0  0  0  0  0  0  0
  190.3230  177.8570  140.3230 N   0  0  0  0  0  2  0  0  0  0  0  0
  192.5570  177.4930  140.8610 O   0  0  0  0  0  0  0  0  0  0  0  0
  191.3520  177.4120  141.2100 C   0  0  0  0  0  0  0  0  0  0  0  0
  191.0290  176.8500  142.4510 O   0  0  0  0  0  0  0  0  0  0  0  0
  190.7960  177.6670  143.5920 C   0  0  2  0  0  3  0  0  0  0  0  0
  191.7440  178.6950  143.6290 O   0  0  0  0  0  1  0  0  0  0  0  0
  191.9550  177.2130  145.6520 O   0  0  0  0  0  1  0  0  0  0  0  0
  190.8520  176.8420  144.8770 C   0  0  1  0  0  3  0  0  0  0  0  0
  189.5820  177.0950  146.8770 O   0  0  0  0  0  0  0  0  0  0  0  0
  189.5640  176.9800  145.6560 C   0  0  0  0  0  0  0  0  0  0  0  0
  188.2540  177.0550  144.9350 C   0  0  0  0  0  2  0  0  0  0  0  0
  186.1490  178.2710  145.2510 C   0  0  0  0  0  3  0  0  0  0  0  0
  187.2690  177.7870  145.7850 C   0  0  0  0  0  3  0  0  0  0  0  0
  185.1340  178.9210  146.0880 C   0  0  0  0  0  0  0  0  0  0  0  0
  183.8400  179.0600  145.6050 O   0  0  0  0  0  0  0  0  0  0  0  0
  185.4070  179.3100  147.2600 O   0  0  0  0  0  1  0  0  0  0  0  0
  1  3  1  0  0  0  0
  1 23  1  0  0  0  0
  3  2  1  0  0  0  0
  4  3  1  0  0  0  0
  5  7  2  0  0  0  0
  6  7  2  0  0  0  0
  7  4  1  0  0  0  0
  8  7  1  6  0  0  0
 10 15  1  0  0  0  0
 11 13  2  0  0  0  0
 12 14  2  0  0  0  0
 12 10  1  0  0  0  0
 13  8  1  0  0  0  0
 14 11  1  0  0  0  0
 15 13  1  0  0  0  0
 15  9  1  1  0  0  0
 16 10  2  0  0  0  0
 17 21  1  1  0  0  0
 18  8  1  1  0  0  0
 18 19  1  0  0  0  0
 18 17  1  0  0  0  0
 19 17  1  0  0  0  0
 21 22  1  0  0  0  0
 21 20  1  0  0  0  0
 25 24  1  0  0  0  0
 26 28  1  0  0  0  0
 26 25  1  0  0  0  0
 27 23  1  0  0  0  0
 27 24  1  0  0  0  0
 28 27  2  0  0  0  0
 29 25  1  0  0  0  0
 29 31  1  0  0  0  0
 30 31  2  0  0  0  0
 31 32  1  0  0  0  0
 32 33  1  0  0  0  0
 33 34  1  1  0  0  0
 33 36  1  0  0  0  0
 36 35  1  1  0  0  0
 36 38  1  0  0  0  0
 38 37  2  0  0  0  0
 39 38  1  0  0  0  0
 39 41  1  0  0  0  0
 40 41  2  0  0  0  0
 40 42  1  0  0  0  0
 42 44  1  0  0  0  0
 43 42  2  0  0  0  0
M  END
>  <MODEL>
4

>  <REMARK>
 VINA RESULT:      -7.1      3.694      6.147
  Name = 
  17 active torsions:
  status: ('A' for Active; 'I' for Inactive)
    1  A    between atoms: C_3  and  N_13
    2  A    between atoms: C_3  and  S_24
    3  A    between atoms: C_8  and  C_20
    4  A    between atoms: C_8  and  C_43
    5  A    between atoms: C_11  and  O_21
    6  A    between atoms: C_11  and  C_40
    7  A    between atoms: N_13  and  C_37
    8  A    between atoms: C_15  and  C_27
    9  A    between atoms: C_16  and  N_23
   10  A    between atoms: N_17  and  N_25
   11  A    between atoms: C_18  and  C_22
   12  A    between atoms: C_20  and  C_40
   13  A    between atoms: O_21  and  C_36
   14  A    between atoms: S_24  and  C_27
   15  A    between atoms: C_27  and  C_29
   16  A    between atoms: C_31  and  C_39
   17  A    between atoms: C_37  and  C_39
                            x       y       z     vdW  Elec       q    Type
                         _______ _______ _______ _____ _____    ______ ____

>  <TORSDO>
F 17

$$$$
=
 OpenBabel11062415523D

 44 46  0  0  1  0  0  0  0  0999 V2000
  184.8150  178.2800  142.2680 C   0  0  0  0  0  2  0  0  0  0  0  0
  184.5550  179.3630  140.2190 C   0  0  0  0  0  1  0  0  0  0  0  0
  184.0640  178.2500  141.0210 N   0  0  0  0  0  0  0  0  0  0  0  0
  182.6860  178.5770  141.3640 C   0  0  0  0  0  2  0  0  0  0  0  0
  182.0960  176.4600  139.8720 O   0  0  0  0  0  0  0  0  0  0  0  0
  180.2280  177.6030  140.9740 O   0  0  0  0  0  0  0  0  0  0  0  0
  181.5280  177.8040  140.2460 S   0  0  0  0  0  0  0  0  0  0  0  0
  181.2440  178.7780  138.7560 C   0  0  1  0  0  3  0  0  0  0  0  0
  179.6290  176.3170  138.0030 F   0  0  0  0  0  0  0  0  0  0  0  0
  180.5000  176.2640  135.8140 C   0  0  0  0  0  0  0  0  0  0  0  0
  182.5350  177.8760  136.9080 C   0  0  0  0  0  3  0  0  0  0  0  0
  181.7950  176.3430  135.1980 N   0  0  0  0  0  0  0  0  0  0  0  0
  181.3520  177.9050  137.5350 C   0  0  0  0  0  0  0  0  0  0  0  0
  182.7430  177.0790  135.6900 C   0  0  0  0  0  3  0  0  0  0  0  0
  180.1650  177.1190  137.0090 C   0  0  2  0  0  3  0  0  0  0  0  0
  179.6080  175.5380  135.3030 O   0  0  0  0  0  0  0  0  0  0  0  0
  179.8110  180.9210  138.3160 C   0  0  1  0  0  3  0  0  0  0  0  0
  179.9010  179.5170  138.8380 C   0  0  2  0  0  3  0  0  0  0  0  0
  180.0740  180.6410  139.6670 O   0  0  0  0  0  0  0  0  0  0  0  0
  181.1920  182.7990  137.9620 C   0  0  0  0  0  1  0  0  0  0  0  0
  181.0220  181.3860  137.6400 N   0  0  0  0  0  0  0  0  0  0  0  0
  180.7480  181.3530  136.3140 O   0  0  0  0  0  1  0  0  0  0  0  0
  183.8950  178.6460  143.4180 C   0  0  0  0  0  2  0  0  0  0  0  0
  186.0930  178.2840  144.8330 C   0  0  0  0  0  2  0  0  0  0  0  0
  186.4180  178.6330  146.2210 N   0  0  0  0  0  0  0  0  0  0  0  0
  185.1680  178.9340  146.7830 N   0  0  0  0  0  2  0  0  0  0  0  0
  184.6580  178.6600  144.6970 C   0  0  0  0  0  0  0  0  0  0  0  0
  184.1580  179.0030  145.8260 N   0  0  0  0  0  0  0  0  0  0  0  0
  186.9030  177.4840  146.8600 N   0  0  0  0  0  2  0  0  0  0  0  0
  188.7100  176.6330  148.0510 O   0  0  0  0  0  0  0  0  0  0  0  0
  188.3050  177.3200  147.0800 C   0  0  0  0  0  0  0  0  0  0  0  0
  189.2360  177.9500  146.2450 O   0  0  0  0  0  0  0  0  0  0  0  0
  190.0500  177.2010  145.3510 C   0  0  2  0  0  3  0  0  0  0  0  0
  191.3580  177.1500  145.8440 O   0  0  0  0  0  1  0  0  0  0  0  0
  191.3100  178.2380  143.5810 O   0  0  0  0  0  1  0  0  0  0  0  0
  190.0300  177.8110  143.9500 C   0  0  1  0  0  3  0  0  0  0  0  0
  188.5060  176.1260  143.2310 O   0  0  0  0  0  0  0  0  0  0  0  0
  189.4720  176.8270  142.9480 C   0  0  0  0  0  0  0  0  0  0  0  0
  190.0470  176.7530  141.5670 C   0  0  0  0  0  2  0  0  0  0  0  0
  189.3340  177.5270  139.3530 C   0  0  0  0  0  3  0  0  0  0  0  0
  189.2990  177.6870  140.6750 C   0  0  0  0  0  3  0  0  0  0  0  0
  188.5390  178.3860  138.4680 C   0  0  0  0  0  0  0  0  0  0  0  0
  187.1860  178.1260  138.3020 O   0  0  0  0  0  1  0  0  0  0  0  0
  189.0570  179.3870  137.8930 O   0  0  0  0  0  0  0  0  0  0  0  0
  1 23  1  0  0  0  0
  2  3  1  0  0  0  0
  3  4  1  0  0  0  0
  3  1  1  0  0  0  0
  5  7  2  0  0  0  0
  7  6  2  0  0  0  0
  7  4  1  0  0  0  0
  8  7  1  1  0  0  0
 10 15  1  0  0  0  0
 11 13  2  0  0  0  0
 12 14  2  0  0  0  0
 12 10  1  0  0  0  0
 13  8  1  0  0  0  0
 14 11  1  0  0  0  0
 15 13  1  0  0  0  0
 15  9  1  1  0  0  0
 16 10  2  0  0  0  0
 17 21  1  6  0  0  0
 17 18  1  0  0  0  0
 17 19  1  0  0  0  0
 18  8  1  6  0  0  0
 18 19  1  0  0  0  0
 21 20  1  0  0  0  0
 22 21  1  0  0  0  0
 23 27  1  0  0  0  0
 24 25  1  0  0  0  0
 25 26  1  0  0  0  0
 25 29  1  0  0  0  0
 27 24  1  0  0  0  0
 27 28  2  0  0  0  0
 28 26  1  0  0  0  0
 29 31  1  0  0  0  0
 31 30  2  0  0  0  0
 32 31  1  0  0  0  0
 33 34  1  1  0  0  0
 33 32  1  0  0  0  0
 36 35  1  6  0  0  0
 36 33  1  0  0  0  0
 38 37  2  0  0  0  0
 38 36  1  0  0  0  0
 39 38  1  0  0  0  0
 40 41  2  0  0  0  0
 41 39  1  0  0  0  0
 42 40  1  0  0  0  0
 43 42  1  0  0  0  0
 44 42  2  0  0  0  0
M  END
>  <MODEL>
5

>  <REMARK>
 VINA RESULT:      -6.8      3.635      6.776
  Name = 
  17 active torsions:
  status: ('A' for Active; 'I' for Inactive)
    1  A    between atoms: C_3  and  N_13
    2  A    between atoms: C_3  and  S_24
    3  A    between atoms: C_8  and  C_20
    4  A    between atoms: C_8  and  C_43
    5  A    between atoms: C_11  and  O_21
    6  A    between atoms: C_11  and  C_40
    7  A    between atoms: N_13  and  C_37
    8  A    between atoms: C_15  and  C_27
    9  A    between atoms: C_16  and  N_23
   10  A    between atoms: N_17  and  N_25
   11  A    between atoms: C_18  and  C_22
   12  A    between atoms: C_20  and  C_40
   13  A    between atoms: O_21  and  C_36
   14  A    between atoms: S_24  and  C_27
   15  A    between atoms: C_27  and  C_29
   16  A    between atoms: C_31  and  C_39
   17  A    between atoms: C_37  and  C_39
                            x       y       z     vdW  Elec       q    Type
                         _______ _______ _______ _____ _____    ______ ____

>  <TORSDO>
F 17

$$$$
=
 OpenBabel11062415523D

 44 46  0  0  1  0  0  0  0  0999 V2000
  183.2400  179.2290  143.5330 C   0  0  0  0  0  2  0  0  0  0  0  0
  181.0180  178.6520  143.9400 C   0  0  0  0  0  1  0  0  0  0  0  0
  181.8820  179.4020  143.0380 N   0  0  0  0  0  0  0  0  0  0  0  0
  181.8210  178.7140  141.7550 C   0  0  0  0  0  2  0  0  0  0  0  0
  179.4910  178.3950  140.5220 O   0  0  0  0  0  0  0  0  0  0  0  0
  180.0120  180.6400  141.3610 O   0  0  0  0  0  0  0  0  0  0  0  0
  180.5800  179.4230  140.6850 S   0  0  0  0  0  0  0  0  0  0  0  0
  181.2340  179.8770  139.0680 C   0  0  1  0  0  3  0  0  0  0  0  0
  181.6610  176.8730  138.9030 F   0  0  0  0  0  0  0  0  0  0  0  0
  183.8300  177.1060  138.0130 C   0  0  0  0  0  0  0  0  0  0  0  0
  183.6560  179.7130  139.0680 C   0  0  0  0  0  3  0  0  0  0  0  0
  185.0120  177.8640  138.3160 N   0  0  0  0  0  0  0  0  0  0  0  0
  182.4960  179.1090  138.7820 C   0  0  0  0  0  0  0  0  0  0  0  0
  184.9500  179.0640  138.8030 C   0  0  0  0  0  3  0  0  0  0  0  0
  182.4640  177.7240  138.1620 C   0  0  2  0  0  3  0  0  0  0  0  0
  183.9360  175.9440  137.5410 O   0  0  0  0  0  0  0  0  0  0  0  0
  179.8050  180.8590  137.1100 C   0  0  1  0  0  3  0  0  0  0  0  0
  180.1690  179.6900  137.9800 C   0  0  2  0  0  3  0  0  0  0  0  0
  179.0900  180.5430  138.2780 O   0  0  0  0  0  0  0  0  0  0  0  0
  179.8130  183.0540  137.9710 C   0  0  0  0  0  1  0  0  0  0  0  0
  180.6390  182.0420  137.3200 N   0  0  0  0  0  0  0  0  0  0  0  0
  180.9040  182.5370  136.0880 O   0  0  0  0  0  1  0  0  0  0  0  0
  183.2110  178.6230  144.9240 C   0  0  0  0  0  2  0  0  0  0  0  0
  185.7380  177.8630  144.9160 C   0  0  0  0  0  2  0  0  0  0  0  0
  186.8810  178.2970  145.7270 N   0  0  0  0  0  0  0  0  0  0  0  0
  186.2840  179.0110  146.7760 N   0  0  0  0  0  2  0  0  0  0  0  0
  184.5840  178.6010  145.5000 C   0  0  0  0  0  0  0  0  0  0  0  0
  184.9230  179.2250  146.5670 N   0  0  0  0  0  0  0  0  0  0  0  0
  187.4850  177.1600  146.2800 N   0  0  0  0  0  2  0  0  0  0  0  0
  189.4040  176.4000  147.3520 O   0  0  0  0  0  0  0  0  0  0  0  0
  188.9040  177.1030  146.4380 C   0  0  0  0  0  0  0  0  0  0  0  0
  189.7450  177.8560  145.6090 O   0  0  0  0  0  0  0  0  0  0  0  0
  190.7990  177.2420  144.8760 C   0  0  2  0  0  3  0  0  0  0  0  0
  192.0220  177.5380  145.4860 O   0  0  0  0  0  1  0  0  0  0  0  0
  192.0570  177.5170  142.8430 O   0  0  0  0  0  1  0  0  0  0  0  0
  190.7990  177.7100  143.4220 C   0  0  1  0  0  3  0  0  0  0  0  0
  189.7710  175.7900  142.4530 O   0  0  0  0  0  0  0  0  0  0  0  0
  189.7200  177.0020  142.6340 C   0  0  0  0  0  0  0  0  0  0  0  0
  188.5340  177.7650  142.1310 C   0  0  0  0  0  2  0  0  0  0  0  0
  188.6850  178.6220  139.8390 C   0  0  0  0  0  3  0  0  0  0  0  0
  188.4350  177.5960  140.6510 C   0  0  0  0  0  3  0  0  0  0  0  0
  188.6730  178.4510  138.3820 C   0  0  0  0  0  0  0  0  0  0  0  0
  188.9980  179.5260  137.5670 O   0  0  0  0  0  0  0  0  0  0  0  0
  188.4190  177.3270  137.8600 O   0  0  0  0  0  1  0  0  0  0  0  0
  1 23  1  0  0  0  0
  3  1  1  0  0  0  0
  3  2  1  0  0  0  0
  4  3  1  0  0  0  0
  5  7  2  0  0  0  0
  7  6  2  0  0  0  0
  7  4  1  0  0  0  0
  8  7  1  1  0  0  0
 10 15  1  0  0  0  0
 10 12  1  0  0  0  0
 12 14  2  0  0  0  0
 13 11  2  0  0  0  0
 13  8  1  0  0  0  0
 14 11  1  0  0  0  0
 15 13  1  0  0  0  0
 15  9  1  1  0  0  0
 16 10  2  0  0  0  0
 17 21  1  1  0  0  0
 17 18  1  0  0  0  0
 17 19  1  0  0  0  0
 18 19  1  0  0  0  0
 18  8  1  1  0  0  0
 21 20  1  0  0  0  0
 22 21  1  0  0  0  0
 23 27  1  0  0  0  0
 24 27  1  0  0  0  0
 24 25  1  0  0  0  0
 25 29  1  0  0  0  0
 25 26  1  0  0  0  0
 27 28  2  0  0  0  0
 28 26  1  0  0  0  0
 29 31  1  0  0  0  0
 31 30  2  0  0  0  0
 32 31  1  0  0  0  0
 33 34  1  1  0  0  0
 33 32  1  0  0  0  0
 36 35  1  6  0  0  0
 36 33  1  0  0  0  0
 37 38  2  0  0  0  0
 38 36  1  0  0  0  0
 39 38  1  0  0  0  0
 40 41  2  0  0  0  0
 41 39  1  0  0  0  0
 42 40  1  0  0  0  0
 43 42  2  0  0  0  0
 44 42  1  0  0  0  0
M  END
>  <MODEL>
6

>  <REMARK>
 VINA RESULT:      -6.7      3.509      7.115
  Name = 
  17 active torsions:
  status: ('A' for Active; 'I' for Inactive)
    1  A    between atoms: C_3  and  N_13
    2  A    between atoms: C_3  and  S_24
    3  A    between atoms: C_8  and  C_20
    4  A    between atoms: C_8  and  C_43
    5  A    between atoms: C_11  and  O_21
    6  A    between atoms: C_11  and  C_40
    7  A    between atoms: N_13  and  C_37
    8  A    between atoms: C_15  and  C_27
    9  A    between atoms: C_16  and  N_23
   10  A    between atoms: N_17  and  N_25
   11  A    between atoms: C_18  and  C_22
   12  A    between atoms: C_20  and  C_40
   13  A    between atoms: O_21  and  C_36
   14  A    between atoms: S_24  and  C_27
   15  A    between atoms: C_27  and  C_29
   16  A    between atoms: C_31  and  C_39
   17  A    between atoms: C_37  and  C_39
                            x       y       z     vdW  Elec       q    Type
                         _______ _______ _______ _____ _____    ______ ____

>  <TORSDO>
F 17

$$$$
=
 OpenBabel11062415523D

 44 46  0  0  1  0  0  0  0  0999 V2000
  186.7880  175.9530  137.2020 C   0  0  0  0  0  2  0  0  0  0  0  0
  185.8440  174.8880  135.3540 C   0  0  0  0  0  1  0  0  0  0  0  0
  185.5970  175.2530  136.7440 N   0  0  0  0  0  0  0  0  0  0  0  0
  184.5240  176.2380  136.7180 C   0  0  0  0  0  2  0  0  0  0  0  0
  182.1760  175.6150  135.6480 O   0  0  0  0  0  0  0  0  0  0  0  0
  183.1320  174.0200  137.2460 O   0  0  0  0  0  0  0  0  0  0  0  0
  182.9250  175.4790  136.9480 S   0  0  0  0  0  0  0  0  0  0  0  0
  181.9780  176.2420  138.2780 C   0  0  1  0  0  3  0  0  0  0  0  0
  183.4540  177.1240  140.7830 F   0  0  0  0  0  0  0  0  0  0  0  0
  184.1070  179.1750  139.8250 C   0  0  0  0  0  0  0  0  0  0  0  0
  182.0060  178.6560  138.0200 C   0  0  0  0  0  3  0  0  0  0  0  0
  183.4770  180.2390  139.0930 N   0  0  0  0  0  0  0  0  0  0  0  0
  182.5520  177.5900  138.6190 C   0  0  0  0  0  0  0  0  0  0  0  0
  182.5080  180.0170  138.2610 C   0  0  0  0  0  3  0  0  0  0  0  0
  183.7240  177.7400  139.5720 C   0  0  2  0  0  3  0  0  0  0  0  0
  185.0440  179.4340  140.6230 O   0  0  0  0  0  0  0  0  0  0  0  0
  179.4720  175.8820  138.9330 C   0  0  1  0  0  3  0  0  0  0  0  0
  180.4890  176.3080  137.9140 C   0  0  2  0  0  3  0  0  0  0  0  0
  179.9720  175.0000  137.9600 O   0  0  0  0  0  0  0  0  0  0  0  0
  179.4250  174.3320  140.7090 C   0  0  0  0  0  1  0  0  0  0  0  0
  180.0360  175.5730  140.2470 N   0  0  0  0  0  0  0  0  0  0  0  0
  179.5750  176.5310  141.0870 O   0  0  0  0  0  1  0  0  0  0  0  0
  187.9800  175.5630  136.3460 C   0  0  0  0  0  2  0  0  0  0  0  0
  189.5080  176.4260  138.3160 C   0  0  0  0  0  2  0  0  0  0  0  0
  190.7220  175.8610  138.9170 N   0  0  0  0  0  0  0  0  0  0  0  0
  191.1150  174.8790  137.9960 N   0  0  0  0  0  2  0  0  0  0  0  0
  189.2110  175.5080  137.1810 C   0  0  0  0  0  0  0  0  0  0  0  0
  190.1530  174.6560  137.0130 N   0  0  0  0  0  0  0  0  0  0  0  0
  191.7110  176.8530  138.9250 N   0  0  0  0  0  2  0  0  0  0  0  0
  193.6170  177.5800  140.0440 O   0  0  0  0  0  0  0  0  0  0  0  0
  192.4470  177.1260  140.1200 C   0  0  0  0  0  0  0  0  0  0  0  0
  191.8920  176.8560  141.3770 O   0  0  0  0  0  0  0  0  0  0  0  0
  190.7450  177.5570  141.8420 C   0  0  2  0  0  3  0  0  0  0  0  0
  191.0690  178.2550  143.0100 O   0  0  0  0  0  1  0  0  0  0  0  0
  190.0080  175.5020  142.8540 O   0  0  0  0  0  1  0  0  0  0  0  0
  189.5840  176.5980  142.0970 C   0  0  1  0  0  3  0  0  0  0  0  0
  187.7920  178.1670  142.1660 O   0  0  0  0  0  0  0  0  0  0  0  0
  188.4360  177.3170  142.7690 C   0  0  0  0  0  0  0  0  0  0  0  0
  188.0260  176.9410  144.1600 C   0  0  0  0  0  2  0  0  0  0  0  0
  186.2410  177.6320  145.6910 C   0  0  0  0  0  3  0  0  0  0  0  0
  187.0290  177.9330  144.6600 C   0  0  0  0  0  3  0  0  0  0  0  0
  185.3140  178.6250  146.2470 C   0  0  0  0  0  0  0  0  0  0  0  0
  185.7060  179.3860  147.3400 O   0  0  0  0  0  1  0  0  0  0  0  0
  184.1850  178.8320  145.7150 O   0  0  0  0  0  0  0  0  0  0  0  0
  2  3  1  0  0  0  0
  3  1  1  0  0  0  0
  4  3  1  0  0  0  0
  4  7  1  0  0  0  0
  5  7  2  0  0  0  0
  7  6  2  0  0  0  0
  8  7  1  6  0  0  0
  8 13  1  0  0  0  0
 10 16  2  0  0  0  0
 11 14  1  0  0  0  0
 11 13  2  0  0  0  0
 12 10  1  0  0  0  0
 13 15  1  0  0  0  0
 14 12  2  0  0  0  0
 15 10  1  0  0  0  0
 15  9  1  1  0  0  0
 17 21  1  1  0  0  0
 18 19  1  0  0  0  0
 18  8  1  1  0  0  0
 18 17  1  0  0  0  0
 19 17  1  0  0  0  0
 21 20  1  0  0  0  0
 21 22  1  0  0  0  0
 23 27  1  0  0  0  0
 23  1  1  0  0  0  0
 24 25  1  0  0  0  0
 25 29  1  0  0  0  0
 26 25  1  0  0  0  0
 27 24  1  0  0  0  0
 28 27  2  0  0  0  0
 28 26  1  0  0  0  0
 29 31  1  0  0  0  0
 30 31  2  0  0  0  0
 31 32  1  0  0  0  0
 32 33  1  0  0  0  0
 33 36  1  0  0  0  0
 33 34  1  1  0  0  0
 36 38  1  0  0  0  0
 36 35  1  1  0  0  0
 37 38  2  0  0  0  0
 38 39  1  0  0  0  0
 39 41  1  0  0  0  0
 40 42  1  0  0  0  0
 41 40  2  0  0  0  0
 42 43  1  0  0  0  0
 44 42  2  0  0  0  0
M  END
>  <MODEL>
7

>  <REMARK>
 VINA RESULT:      -6.6      3.187      5.378
  Name = 
  17 active torsions:
  status: ('A' for Active; 'I' for Inactive)
    1  A    between atoms: C_3  and  N_13
    2  A    between atoms: C_3  and  S_24
    3  A    between atoms: C_8  and  C_20
    4  A    between atoms: C_8  and  C_43
    5  A    between atoms: C_11  and  O_21
    6  A    between atoms: C_11  and  C_40
    7  A    between atoms: N_13  and  C_37
    8  A    between atoms: C_15  and  C_27
    9  A    between atoms: C_16  and  N_23
   10  A    between atoms: N_17  and  N_25
   11  A    between atoms: C_18  and  C_22
   12  A    between atoms: C_20  and  C_40
   13  A    between atoms: O_21  and  C_36
   14  A    between atoms: S_24  and  C_27
   15  A    between atoms: C_27  and  C_29
   16  A    between atoms: C_31  and  C_39
   17  A    between atoms: C_37  and  C_39
                            x       y       z     vdW  Elec       q    Type
                         _______ _______ _______ _____ _____    ______ ____

>  <TORSDO>
F 17

$$$$
=
 OpenBabel11062415523D

 44 46  0  0  1  0  0  0  0  0999 V2000
  181.5020  178.6820  143.4550 C   0  0  0  0  0  2  0  0  0  0  0  0
  179.2680  178.6840  142.7860 C   0  0  0  0  0  1  0  0  0  0  0  0
  180.5570  179.3230  142.5520 N   0  0  0  0  0  0  0  0  0  0  0  0
  180.9560  178.9460  141.2030 C   0  0  0  0  0  2  0  0  0  0  0  0
  178.9500  179.0920  139.4690 O   0  0  0  0  0  0  0  0  0  0  0  0
  179.5760  181.1610  140.6270 O   0  0  0  0  0  0  0  0  0  0  0  0
  180.1070  179.9180  139.9690 S   0  0  0  0  0  0  0  0  0  0  0  0
  181.1710  180.3700  138.5870 C   0  0  1  0  0  3  0  0  0  0  0  0
  184.1600  180.9050  138.7140 F   0  0  0  0  0  0  0  0  0  0  0  0
  184.6890  178.6120  138.8380 C   0  0  0  0  0  0  0  0  0  0  0  0
  182.0920  178.2650  137.8030 C   0  0  0  0  0  3  0  0  0  0  0  0
  184.3240  177.4120  138.1390 N   0  0  0  0  0  0  0  0  0  0  0  0
  182.3180  179.4020  138.4730 C   0  0  0  0  0  0  0  0  0  0  0  0
  183.1340  177.2370  137.6550 C   0  0  0  0  0  3  0  0  0  0  0  0
  183.6630  179.6780  139.1200 C   0  0  2  0  0  3  0  0  0  0  0  0
  185.8560  178.7410  139.2920 O   0  0  0  0  0  0  0  0  0  0  0  0
  180.0840  181.8400  136.7170 C   0  0  1  0  0  3  0  0  0  0  0  0
  180.3590  180.4800  137.2900 C   0  0  2  0  0  3  0  0  0  0  0  0
  179.1800  181.1920  137.5750 O   0  0  0  0  0  0  0  0  0  0  0  0
  179.7420  183.7610  138.0410 C   0  0  0  0  0  1  0  0  0  0  0  0
  180.7650  182.9310  137.4140 N   0  0  0  0  0  0  0  0  0  0  0  0
  181.3130  183.7080  136.4500 O   0  0  0  0  0  1  0  0  0  0  0  0
  182.3870  179.7290  144.1070 C   0  0  0  0  0  2  0  0  0  0  0  0
  184.6440  179.0030  142.9490 C   0  0  0  0  0  2  0  0  0  0  0  0
  185.9730  178.7310  143.5070 N   0  0  0  0  0  0  0  0  0  0  0  0
  185.7330  178.6230  144.8850 N   0  0  0  0  0  2  0  0  0  0  0  0
  183.7970  179.2520  144.1480 C   0  0  0  0  0  0  0  0  0  0  0  0
  184.4380  179.0060  145.2300 N   0  0  0  0  0  0  0  0  0  0  0  0
  186.3920  177.4730  143.0520 N   0  0  0  0  0  2  0  0  0  0  0  0
  188.1350  175.9360  143.1550 O   0  0  0  0  0  0  0  0  0  0  0  0
  187.7810  177.1370  143.0430 C   0  0  0  0  0  0  0  0  0  0  0  0
  188.7570  178.1370  142.9500 O   0  0  0  0  0  0  0  0  0  0  0  0
  189.7610  178.0950  141.9430 C   0  0  2  0  0  3  0  0  0  0  0  0
  189.2290  177.5310  140.7790 O   0  0  0  0  0  1  0  0  0  0  0  0
  192.0620  177.5020  141.5570 O   0  0  0  0  0  1  0  0  0  0  0  0
  190.9760  177.2990  142.4150 C   0  0  1  0  0  3  0  0  0  0  0  0
  191.7430  178.7820  144.1160 O   0  0  0  0  0  0  0  0  0  0  0  0
  191.3300  177.6610  143.8400 C   0  0  0  0  0  0  0  0  0  0  0  0
  191.1070  176.6730  144.9440 C   0  0  0  0  0  2  0  0  0  0  0  0
  190.1770  177.0920  147.1730 C   0  0  0  0  0  3  0  0  0  0  0  0
  190.0400  177.1880  145.8510 C   0  0  0  0  0  3  0  0  0  0  0  0
  189.1760  177.6660  148.0790 C   0  0  0  0  0  0  0  0  0  0  0  0
  187.9060  177.1100  148.1320 O   0  0  0  0  0  0  0  0  0  0  0  0
  189.4690  178.6270  148.8480 O   0  0  0  0  0  1  0  0  0  0  0  0
  1 23  1  0  0  0  0
  3  2  1  0  0  0  0
  3  1  1  0  0  0  0
  4  3  1  0  0  0  0
  5  7  2  0  0  0  0
  7  6  2  0  0  0  0
  7  4  1  0  0  0  0
  8  7  1  1  0  0  0
 10 15  1  0  0  0  0
 10 16  2  0  0  0  0
 11 13  2  0  0  0  0
 12 10  1  0  0  0  0
 13  8  1  0  0  0  0
 13 15  1  0  0  0  0
 14 11  1  0  0  0  0
 14 12  2  0  0  0  0
 15  9  1  6  0  0  0
 17 18  1  0  0  0  0
 17 21  1  1  0  0  0
 17 19  1  0  0  0  0
 18 19  1  0  0  0  0
 18  8  1  1  0  0  0
 21 20  1  0  0  0  0
 22 21  1  0  0  0  0
 23 27  1  0  0  0  0
 24 25  1  0  0  0  0
 24 27  1  0  0  0  0
 25 26  1  0  0  0  0
 26 28  1  0  0  0  0
 27 28  2  0  0  0  0
 29 25  1  0  0  0  0
 31 29  1  0  0  0  0
 31 30  2  0  0  0  0
 32 31  1  0  0  0  0
 33 34  1  6  0  0  0
 33 36  1  0  0  0  0
 33 32  1  0  0  0  0
 36 35  1  6  0  0  0
 36 38  1  0  0  0  0
 38 37  2  0  0  0  0
 38 39  1  0  0  0  0
 39 41  1  0  0  0  0
 40 42  1  0  0  0  0
 41 40  2  0  0  0  0
 42 43  2  0  0  0  0
 42 44  1  0  0  0  0
M  END
>  <MODEL>
8

>  <REMARK>
 VINA RESULT:      -6.4      3.823      7.518
  Name = 
  17 active torsions:
  status: ('A' for Active; 'I' for Inactive)
    1  A    between atoms: C_3  and  N_13
    2  A    between atoms: C_3  and  S_24
    3  A    between atoms: C_8  and  C_20
    4  A    between atoms: C_8  and  C_43
    5  A    between atoms: C_11  and  O_21
    6  A    between atoms: C_11  and  C_40
    7  A    between atoms: N_13  and  C_37
    8  A    between atoms: C_15  and  C_27
    9  A    between atoms: C_16  and  N_23
   10  A    between atoms: N_17  and  N_25
   11  A    between atoms: C_18  and  C_22
   12  A    between atoms: C_20  and  C_40
   13  A    between atoms: O_21  and  C_36
   14  A    between atoms: S_24  and  C_27
   15  A    between atoms: C_27  and  C_29
   16  A    between atoms: C_31  and  C_39
   17  A    between atoms: C_37  and  C_39
                            x       y       z     vdW  Elec       q    Type
                         _______ _______ _______ _____ _____    ______ ____

>  <TORSDO>
F 17

$$$$
=
 OpenBabel11062415523D

 44 46  0  0  1  0  0  0  0  0999 V2000
  185.6100  177.9920  137.8990 C   0  0  0  0  0  2  0  0  0  0  0  0
  186.3810  176.7780  136.0640 C   0  0  0  0  0  1  0  0  0  0  0  0
  186.7870  177.7390  137.0820 N   0  0  0  0  0  0  0  0  0  0  0  0
  187.7400  177.0440  137.9360 C   0  0  0  0  0  2  0  0  0  0  0  0
  189.4310  178.9990  137.3290 O   0  0  0  0  0  0  0  0  0  0  0  0
  188.4870  179.0030  139.5920 O   0  0  0  0  0  0  0  0  0  0  0  0
  189.0390  178.1330  138.4980 S   0  0  0  0  0  0  0  0  0  0  0  0
  190.4820  177.2400  139.1030 C   0  0  1  0  0  3  0  0  0  0  0  0
  192.7410  177.5490  141.1120 F   0  0  0  0  0  0  0  0  0  0  0  0
  191.2650  177.5900  142.9490 C   0  0  0  0  0  0  0  0  0  0  0  0
  189.4600  176.4040  141.1400 C   0  0  0  0  0  3  0  0  0  0  0  0
  190.1490  176.8150  143.4160 N   0  0  0  0  0  0  0  0  0  0  0  0
  190.4410  177.1400  140.6040 C   0  0  0  0  0  0  0  0  0  0  0  0
  189.3100  176.2610  142.5970 C   0  0  0  0  0  3  0  0  0  0  0  0
  191.4440  177.8690  141.4790 C   0  0  2  0  0  3  0  0  0  0  0  0
  192.0550  178.1100  143.7790 O   0  0  0  0  0  0  0  0  0  0  0  0
  191.8750  175.5120  137.7190 C   0  0  1  0  0  3  0  0  0  0  0  0
  190.5970  175.8700  138.4220 C   0  0  2  0  0  3  0  0  0  0  0  0
  190.7840  176.0840  137.0440 O   0  0  0  0  0  0  0  0  0  0  0  0
  193.6230  176.6370  136.6070 C   0  0  0  0  0  1  0  0  0  0  0  0
  192.9460  176.4930  137.8910 N   0  0  0  0  0  0  0  0  0  0  0  0
  193.8560  175.9150  138.7110 O   0  0  0  0  0  1  0  0  0  0  0  0
  184.5550  176.9340  137.6300 C   0  0  0  0  0  2  0  0  0  0  0  0
  183.1230  177.9530  139.5980 C   0  0  0  0  0  2  0  0  0  0  0  0
  181.7040  178.3200  139.6710 N   0  0  0  0  0  0  0  0  0  0  0  0
  181.1490  177.7090  138.5370 N   0  0  0  0  0  2  0  0  0  0  0  0
  183.2610  177.3340  138.2500 C   0  0  0  0  0  0  0  0  0  0  0  0
  182.1210  177.1900  137.6850 N   0  0  0  0  0  0  0  0  0  0  0  0
  181.1480  177.7020  140.7990 N   0  0  0  0  0  2  0  0  0  0  0  0
  180.2750  178.1160  142.9150 O   0  0  0  0  0  0  0  0  0  0  0  0
  181.1680  178.3630  142.0660 C   0  0  0  0  0  0  0  0  0  0  0  0
  182.1530  179.3150  142.3580 O   0  0  0  0  0  0  0  0  0  0  0  0
  182.9310  179.2290  143.5460 C   0  0  2  0  0  3  0  0  0  0  0  0
  183.2670  180.5170  143.9760 O   0  0  0  0  0  1  0  0  0  0  0  0
  184.9700  178.9540  142.2970 O   0  0  0  0  0  1  0  0  0  0  0  0
  184.1910  178.3960  143.3160 C   0  0  1  0  0  3  0  0  0  0  0  0
  184.4340  178.3900  145.6870 O   0  0  0  0  0  0  0  0  0  0  0  0
  184.9820  178.2600  144.5970 C   0  0  0  0  0  0  0  0  0  0  0  0
  186.4320  177.8890  144.5500 C   0  0  0  0  0  2  0  0  0  0  0  0
  188.2240  177.4450  146.1620 C   0  0  0  0  0  3  0  0  0  0  0  0
  186.9630  177.8120  145.9420 C   0  0  0  0  0  3  0  0  0  0  0  0
  188.7850  177.4430  147.5180 C   0  0  0  0  0  0  0  0  0  0  0  0
  187.9450  177.6530  148.6030 O   0  0  0  0  0  1  0  0  0  0  0  0
  190.0110  177.2030  147.7160 O   0  0  0  0  0  0  0  0  0  0  0  0
  2  3  1  0  0  0  0
  3  1  1  0  0  0  0
  3  4  1  0  0  0  0
  4  7  1  0  0  0  0
  5  7  2  0  0  0  0
  7  6  2  0  0  0  0
  8  7  1  6  0  0  0
  8 13  1  0  0  0  0
 10 12  1  0  0  0  0
 10 16  2  0  0  0  0
 11 14  1  0  0  0  0
 13 11  2  0  0  0  0
 13 15  1  0  0  0  0
 14 12  2  0  0  0  0
 15  9  1  6  0  0  0
 15 10  1  0  0  0  0
 17 21  1  1  0  0  0
 17 18  1  0  0  0  0
 18  8  1  1  0  0  0
 19 17  1  0  0  0  0
 19 18  1  0  0  0  0
 20 21  1  0  0  0  0
 21 22  1  0  0  0  0
 23  1  1  0  0  0  0
 23 27  1  0  0  0  0
 24 25  1  0  0  0  0
 25 29  1  0  0  0  0
 26 25  1  0  0  0  0
 27 24  1  0  0  0  0
 28 27  2  0  0  0  0
 28 26  1  0  0  0  0
 29 31  1  0  0  0  0
 31 32  1  0  0  0  0
 31 30  2  0  0  0  0
 32 33  1  0  0  0  0
 33 34  1  6  0  0  0
 36 35  1  6  0  0  0
 36 33  1  0  0  0  0
 36 38  1  0  0  0  0
 38 37  2  0  0  0  0
 39 38  1  0  0  0  0
 39 41  1  0  0  0  0
 40 42  1  0  0  0  0
 41 40  2  0  0  0  0
 42 44  2  0  0  0  0
 42 43  1  0  0  0  0
M  END
>  <MODEL>
9

>  <REMARK>
 VINA RESULT:      -6.2      2.358      7.119
  Name = 
  17 active torsions:
  status: ('A' for Active; 'I' for Inactive)
    1  A    between atoms: C_3  and  N_13
    2  A    between atoms: C_3  and  S_24
    3  A    between atoms: C_8  and  C_20
    4  A    between atoms: C_8  and  C_43
    5  A    between atoms: C_11  and  O_21
    6  A    between atoms: C_11  and  C_40
    7  A    between atoms: N_13  and  C_37
    8  A    between atoms: C_15  and  C_27
    9  A    between atoms: C_16  and  N_23
   10  A    between atoms: N_17  and  N_25
   11  A    between atoms: C_18  and  C_22
   12  A    between atoms: C_20  and  C_40
   13  A    between atoms: O_21  and  C_36
   14  A    between atoms: S_24  and  C_27
   15  A    between atoms: C_27  and  C_29
   16  A    between atoms: C_31  and  C_39
   17  A    between atoms: C_37  and  C_39
                            x       y       z     vdW  Elec       q    Type
                         _______ _______ _______ _____ _____    ______ ____

>  <TORSDO>
F 17

$$$$
