=
 OpenBabel11062414493D

 33 34  0  0  1  0  0  0  0  0999 V2000
  185.3840  178.4580  140.8400 C   0  0  0  0  0  2  0  0  0  0  0  0
  184.6920  178.6430  139.5110 C   0  0  0  0  0  0  0  0  0  0  0  0
  183.5210  178.1080  139.3160 N   0  0  0  0  0  0  0  0  0  0  0  0
  182.8320  177.3490  140.3630 C   0  0  0  0  0  2  0  0  0  0  0  0
  184.3700  178.4190  141.9560 C   0  0  0  0  0  0  0  0  0  0  0  0
  183.1550  177.9080  141.7200 C   0  0  0  0  0  3  0  0  0  0  0  0
  184.4040  180.1390  143.5770 O   0  0  0  0  0  0  0  0  0  0  0  0
  185.3770  178.1170  144.2420 N   0  0  0  0  0  2  0  0  0  0  0  0
  185.5820  179.6970  145.9630 O   0  0  0  0  0  0  0  0  0  0  0  0
  185.7420  178.5120  145.5690 C   0  0  0  0  0  0  0  0  0  0  0  0
  184.7160  178.9540  143.2830 C   0  0  0  0  0  0  0  0  0  0  0  0
  186.2740  177.4900  146.5130 C   0  0  0  0  0  2  0  0  0  0  0  0
  190.5370  177.1610  146.1680 C   0  0  0  0  0  0  0  0  0  0  0  0
  189.9360  177.1620  147.4310 C   0  0  0  0  0  3  0  0  0  0  0  0
  188.5470  177.2810  147.5440 C   0  0  0  0  0  3  0  0  0  0  0  0
  187.7580  177.4030  146.3950 C   0  0  0  0  0  0  0  0  0  0  0  0
  188.3620  177.3960  145.1310 C   0  0  0  0  0  3  0  0  0  0  0  0
  189.7490  177.2770  145.0180 C   0  0  0  0  0  3  0  0  0  0  0  0
  191.8820  177.0450  146.0590 F   0  0  0  0  0  0  0  0  0  0  0  0
  185.3590  179.2890  138.4190 N   0  0  0  0  0  0  0  0  0  0  0  0
  186.4370  178.8870  137.8590 N   0  0  0  0  0  0  0  0  0  0  0  0
  188.3500  178.0790  139.0840 C   0  0  0  0  0  3  0  0  0  0  0  0
  187.2880  177.8190  138.3160 C   0  0  0  0  0  0  0  0  0  0  0  0
  186.6300  176.2130  136.5700 C   0  0  0  0  0  1  0  0  0  0  0  0
  187.0480  176.5090  137.8930 O   0  0  0  0  0  0  0  0  0  0  0  0
  189.2950  177.0160  139.5500 C   0  0  2  0  0  3  0  0  0  0  0  0
  190.8630  177.0950  141.3460 C   0  0  0  0  0  1  0  0  0  0  0  0
  189.4490  177.0820  141.0140 N   0  0  0  0  0  0  0  0  0  0  0  0
  188.8460  178.2910  141.5690 C   0  0  0  0  0  1  0  0  0  0  0  0
  190.6190  177.0950  138.7730 C   0  0  0  0  0  2  0  0  0  0  0  0
  191.1470  174.8750  138.1800 O   0  0  0  0  0  0  0  0  0  0  0  0
  190.3640  176.1640  136.3790 C   0  0  0  0  0  1  0  0  0  0  0  0
  190.7480  175.9660  137.8030 C   0  0  0  0  0  0  0  0  0  0  0  0
  1  5  1  0  0  0  0
  2  1  1  0  0  0  0
  3  2  2  0  0  0  0
  3  4  1  0  0  0  0
  4  6  1  0  0  0  0
  5 11  1  0  0  0  0
  6  5  2  0  0  0  0
  8 10  1  0  0  0  0
 10  9  2  0  0  0  0
 10 12  1  0  0  0  0
 11  7  2  0  0  0  0
 11  8  1  0  0  0  0
 13 14  1  0  0  0  0
 14 15  2  0  0  0  0
 16 12  1  0  0  0  0
 16 15  1  0  0  0  0
 17 16  2  0  0  0  0
 18 17  1  0  0  0  0
 18 13  2  0  0  0  0
 19 13  1  0  0  0  0
 20  2  1  0  0  0  0
 21 23  1  0  0  0  0
 21 20  2  0  0  0  0
 22 26  1  0  0  0  0
 23 22  2  0  0  0  0
 24 25  1  0  0  0  0
 25 23  1  0  0  0  0
 26 30  1  6  0  0  0
 26 28  1  0  0  0  0
 28 27  1  0  0  0  0
 28 29  1  0  0  0  0
 32 33  1  0  0  0  0
 33 31  2  0  0  0  0
 33 30  1  0  0  0  0
M  END
>  <MODEL>
1

>  <REMARK>
 VINA RESULT:      -7.9      0.000      0.000
  Name = 
  10 active torsions:
  status: ('A' for Active; 'I' for Inactive)
    1  A    between atoms: C_6  and  C_8
    2  A    between atoms: C_6  and  C_13
    3  A    between atoms: C_6  and  N_17
    4  A    between atoms: N_7  and  C_19
    5  A    between atoms: C_8  and  C_18
    6  A    between atoms: C_11  and  C_21
    7  A    between atoms: C_20  and  C_21
    8  A    between atoms: C_23  and  C_28
    9  A    between atoms: C_25  and  N_26
   10  A    between atoms: C_25  and  O_29
                            x       y       z     vdW  Elec       q    Type
                         _______ _______ _______ _____ _____    ______ ____

>  <TORSDO>
F 10

$$$$
=
 OpenBabel11062414493D

 33 34  0  0  1  0  0  0  0  0999 V2000
  189.0820  178.5490  138.6830 C   0  0  0  0  0  2  0  0  0  0  0  0
  189.6650  177.5910  137.6730 C   0  0  0  0  0  0  0  0  0  0  0  0
  190.6420  176.8040  138.0220 N   0  0  0  0  0  0  0  0  0  0  0  0
  191.1840  176.7990  139.3840 C   0  0  0  0  0  2  0  0  0  0  0  0
  189.1130  177.9380  140.0610 C   0  0  0  0  0  0  0  0  0  0  0  0
  190.1010  177.0940  140.3830 C   0  0  0  0  0  3  0  0  0  0  0  0
  187.2400  179.1880  140.7810 O   0  0  0  0  0  0  0  0  0  0  0  0
  187.9330  177.4930  142.2390 N   0  0  0  0  0  2  0  0  0  0  0  0
  186.1190  178.6470  143.1740 O   0  0  0  0  0  0  0  0  0  0  0  0
  186.9340  177.6900  143.2450 C   0  0  0  0  0  0  0  0  0  0  0  0
  188.0530  178.2580  141.0310 C   0  0  0  0  0  0  0  0  0  0  0  0
  186.8270  176.7160  144.3670 C   0  0  0  0  0  2  0  0  0  0  0  0
  188.9280  178.1090  147.8370 C   0  0  0  0  0  0  0  0  0  0  0  0
  187.5330  178.2020  147.7800 C   0  0  0  0  0  3  0  0  0  0  0  0
  186.8490  177.7580  146.6440 C   0  0  0  0  0  3  0  0  0  0  0  0
  187.5590  177.2260  145.5620 C   0  0  0  0  0  0  0  0  0  0  0  0
  188.9550  177.1290  145.6240 C   0  0  0  0  0  3  0  0  0  0  0  0
  189.6380  177.5730  146.7590 C   0  0  0  0  0  3  0  0  0  0  0  0
  189.5900  178.5380  148.9380 F   0  0  0  0  0  0  0  0  0  0  0  0
  189.2440  177.6220  136.3030 N   0  0  0  0  0  0  0  0  0  0  0  0
  188.0630  177.3710  135.8790 N   0  0  0  0  0  0  0  0  0  0  0  0
  185.8120  177.4950  136.7340 C   0  0  0  0  0  3  0  0  0  0  0  0
  186.9740  176.8390  136.6560 C   0  0  0  0  0  0  0  0  0  0  0  0
  187.4540  174.4280  136.7790 C   0  0  0  0  0  1  0  0  0  0  0  0
  187.1540  175.6690  137.3980 O   0  0  0  0  0  0  0  0  0  0  0  0
  184.6620  177.0150  137.5630 C   0  0  2  0  0  3  0  0  0  0  0  0
  183.6240  174.9000  137.9370 C   0  0  0  0  0  1  0  0  0  0  0  0
  184.0220  175.8550  136.9170 N   0  0  0  0  0  0  0  0  0  0  0  0
  182.8280  176.2390  136.1710 C   0  0  0  0  0  1  0  0  0  0  0  0
  183.7010  178.1740  137.8710 C   0  0  0  0  0  2  0  0  0  0  0  0
  184.4460  179.9740  139.1990 O   0  0  0  0  0  0  0  0  0  0  0  0
  183.8360  178.0790  140.4470 C   0  0  0  0  0  1  0  0  0  0  0  0
  184.0340  178.8250  139.1740 C   0  0  0  0  0  0  0  0  0  0  0  0
  1  5  1  0  0  0  0
  2  3  2  0  0  0  0
  2  1  1  0  0  0  0
  3  4  1  0  0  0  0
  4  6  1  0  0  0  0
  5  6  2  0  0  0  0
  5 11  1  0  0  0  0
  7 11  2  0  0  0  0
  8 10  1  0  0  0  0
  9 10  2  0  0  0  0
 10 12  1  0  0  0  0
 11  8  1  0  0  0  0
 12 16  1  0  0  0  0
 13 19  1  0  0  0  0
 14 13  1  0  0  0  0
 15 14  2  0  0  0  0
 16 17  2  0  0  0  0
 16 15  1  0  0  0  0
 17 18  1  0  0  0  0
 18 13  2  0  0  0  0
 20  2  1  0  0  0  0
 21 20  2  0  0  0  0
 21 23  1  0  0  0  0
 23 22  2  0  0  0  0
 23 25  1  0  0  0  0
 24 25  1  0  0  0  0
 26 22  1  6  0  0  0
 26 30  1  0  0  0  0
 28 26  1  0  0  0  0
 28 27  1  0  0  0  0
 29 28  1  0  0  0  0
 30 33  1  0  0  0  0
 33 31  2  0  0  0  0
 33 32  1  0  0  0  0
M  END
>  <MODEL>
2

>  <REMARK>
 VINA RESULT:      -7.8      2.273      5.097
  Name = 
  10 active torsions:
  status: ('A' for Active; 'I' for Inactive)
    1  A    between atoms: C_6  and  C_8
    2  A    between atoms: C_6  and  C_13
    3  A    between atoms: C_6  and  N_17
    4  A    between atoms: N_7  and  C_19
    5  A    between atoms: C_8  and  C_18
    6  A    between atoms: C_11  and  C_21
    7  A    between atoms: C_20  and  C_21
    8  A    between atoms: C_23  and  C_28
    9  A    between atoms: C_25  and  N_26
   10  A    between atoms: C_25  and  O_29
                            x       y       z     vdW  Elec       q    Type
                         _______ _______ _______ _____ _____    ______ ____

>  <TORSDO>
F 10

$$$$
=
 OpenBabel11062414493D

 33 34  0  0  1  0  0  0  0  0999 V2000
  185.4030  178.2590  143.2570 C   0  0  0  0  0  2  0  0  0  0  0  0
  184.7350  179.0830  142.1840 C   0  0  0  0  0  0  0  0  0  0  0  0
  183.4740  179.3860  142.2970 N   0  0  0  0  0  0  0  0  0  0  0  0
  182.6790  178.9720  143.4570 C   0  0  0  0  0  2  0  0  0  0  0  0
  184.8180  178.5860  144.6080 C   0  0  0  0  0  0  0  0  0  0  0  0
  183.5300  178.9410  144.6960 C   0  0  0  0  0  3  0  0  0  0  0  0
  185.2090  178.9370  146.9120 O   0  0  0  0  0  0  0  0  0  0  0  0
  186.9890  177.9840  145.7280 N   0  0  0  0  0  2  0  0  0  0  0  0
  187.6130  178.3110  147.9650 O   0  0  0  0  0  0  0  0  0  0  0  0
  187.8970  177.8520  146.8270 C   0  0  0  0  0  0  0  0  0  0  0  0
  185.6640  178.5290  145.8100 C   0  0  0  0  0  0  0  0  0  0  0  0
  189.1780  177.1180  146.6300 C   0  0  0  0  0  2  0  0  0  0  0  0
  190.5140  177.6810  142.5930 C   0  0  0  0  0  0  0  0  0  0  0  0
  189.7260  176.5720  142.9210 C   0  0  0  0  0  3  0  0  0  0  0  0
  189.3010  176.3820  144.2390 C   0  0  0  0  0  3  0  0  0  0  0  0
  189.6650  177.2980  145.2320 C   0  0  0  0  0  0  0  0  0  0  0  0
  190.4490  178.4100  144.9000 C   0  0  0  0  0  3  0  0  0  0  0  0
  190.8750  178.6000  143.5830 C   0  0  0  0  0  3  0  0  0  0  0  0
  190.9250  177.8650  141.3160 F   0  0  0  0  0  0  0  0  0  0  0  0
  185.4340  179.4310  140.9820 N   0  0  0  0  0  0  0  0  0  0  0  0
  184.9200  179.5000  139.8120 N   0  0  0  0  0  0  0  0  0  0  0  0
  182.6590  179.9760  139.1230 C   0  0  0  0  0  3  0  0  0  0  0  0
  183.5960  179.0770  139.4370 C   0  0  0  0  0  0  0  0  0  0  0  0
  183.5980  176.8360  138.4170 C   0  0  0  0  0  1  0  0  0  0  0  0
  183.2620  177.7200  139.4750 O   0  0  0  0  0  0  0  0  0  0  0  0
  181.2540  179.5970  138.7700 C   0  0  2  0  0  3  0  0  0  0  0  0
  180.1720  178.4910  136.9550 C   0  0  0  0  0  1  0  0  0  0  0  0
  181.0930  179.5580  137.3060 N   0  0  0  0  0  0  0  0  0  0  0  0
  180.5480  180.8090  136.7870 C   0  0  0  0  0  1  0  0  0  0  0  0
  180.2530  180.5140  139.4910 C   0  0  0  0  0  2  0  0  0  0  0  0
  179.8910  180.8340  141.7990 O   0  0  0  0  0  0  0  0  0  0  0  0
  179.7880  178.5820  141.1390 C   0  0  0  0  0  1  0  0  0  0  0  0
  179.9800  180.0350  140.8800 C   0  0  0  0  0  0  0  0  0  0  0  0
  1  5  1  0  0  0  0
  2  3  2  0  0  0  0
  2  1  1  0  0  0  0
  3  4  1  0  0  0  0
  4  6  1  0  0  0  0
  5  6  2  0  0  0  0
  5 11  1  0  0  0  0
  8 11  1  0  0  0  0
  8 10  1  0  0  0  0
 10  9  2  0  0  0  0
 11  7  2  0  0  0  0
 12 10  1  0  0  0  0
 13 14  2  0  0  0  0
 13 18  1  0  0  0  0
 14 15  1  0  0  0  0
 15 16  2  0  0  0  0
 16 12  1  0  0  0  0
 17 16  1  0  0  0  0
 18 17  2  0  0  0  0
 19 13  1  0  0  0  0
 20  2  1  0  0  0  0
 21 20  2  0  0  0  0
 22 23  2  0  0  0  0
 23 25  1  0  0  0  0
 23 21  1  0  0  0  0
 24 25  1  0  0  0  0
 26 22  1  6  0  0  0
 26 30  1  0  0  0  0
 27 28  1  0  0  0  0
 28 26  1  0  0  0  0
 29 28  1  0  0  0  0
 30 33  1  0  0  0  0
 33 32  1  0  0  0  0
 33 31  2  0  0  0  0
M  END
>  <MODEL>
3

>  <REMARK>
 VINA RESULT:      -7.8      3.185      6.177
  Name = 
  10 active torsions:
  status: ('A' for Active; 'I' for Inactive)
    1  A    between atoms: C_6  and  C_8
    2  A    between atoms: C_6  and  C_13
    3  A    between atoms: C_6  and  N_17
    4  A    between atoms: N_7  and  C_19
    5  A    between atoms: C_8  and  C_18
    6  A    between atoms: C_11  and  C_21
    7  A    between atoms: C_20  and  C_21
    8  A    between atoms: C_23  and  C_28
    9  A    between atoms: C_25  and  N_26
   10  A    between atoms: C_25  and  O_29
                            x       y       z     vdW  Elec       q    Type
                         _______ _______ _______ _____ _____    ______ ____

>  <TORSDO>
F 10

$$$$
=
 OpenBabel11062414493D

 33 34  0  0  1  0  0  0  0  0999 V2000
  183.4110  179.3810  144.7380 C   0  0  0  0  0  2  0  0  0  0  0  0
  182.5430  178.7870  143.6550 C   0  0  0  0  0  0  0  0  0  0  0  0
  183.0500  178.5540  142.4790 N   0  0  0  0  0  0  0  0  0  0  0  0
  184.4580  178.8260  142.1760 C   0  0  0  0  0  2  0  0  0  0  0  0
  184.8260  178.8780  144.6060 C   0  0  0  0  0  0  0  0  0  0  0  0
  185.3130  178.5990  143.3910 C   0  0  0  0  0  3  0  0  0  0  0  0
  185.1870  178.9870  146.9400 O   0  0  0  0  0  0  0  0  0  0  0  0
  186.9680  178.1240  145.6910 N   0  0  0  0  0  2  0  0  0  0  0  0
  187.5610  178.2100  147.9580 O   0  0  0  0  0  0  0  0  0  0  0  0
  187.8560  177.8640  146.7830 C   0  0  0  0  0  0  0  0  0  0  0  0
  185.6520  178.6830  145.8090 C   0  0  0  0  0  0  0  0  0  0  0  0
  189.1260  177.1280  146.5310 C   0  0  0  0  0  2  0  0  0  0  0  0
  190.2320  177.6040  142.4150 C   0  0  0  0  0  0  0  0  0  0  0  0
  189.3650  176.5740  142.7900 C   0  0  0  0  0  3  0  0  0  0  0  0
  189.0140  176.4110  144.1340 C   0  0  0  0  0  3  0  0  0  0  0  0
  189.5320  177.2760  145.1040 C   0  0  0  0  0  0  0  0  0  0  0  0
  190.3960  178.3110  144.7240 C   0  0  0  0  0  3  0  0  0  0  0  0
  190.7480  178.4730  143.3820 C   0  0  0  0  0  3  0  0  0  0  0  0
  190.5720  177.7620  141.1130 F   0  0  0  0  0  0  0  0  0  0  0  0
  181.1380  178.5940  143.8630 N   0  0  0  0  0  0  0  0  0  0  0  0
  180.2320  178.6680  142.9620 N   0  0  0  0  0  0  0  0  0  0  0  0
  180.6660  178.2620  140.6250 C   0  0  0  0  0  3  0  0  0  0  0  0
  180.4110  179.1290  141.6100 C   0  0  0  0  0  0  0  0  0  0  0  0
  179.1930  181.2520  141.3400 C   0  0  0  0  0  1  0  0  0  0  0  0
  180.3960  180.4990  141.3340 O   0  0  0  0  0  0  0  0  0  0  0  0
  180.9060  178.6880  139.2100 C   0  0  2  0  0  3  0  0  0  0  0  0
  180.3790  178.2680  136.9220 C   0  0  0  0  0  1  0  0  0  0  0  0
  180.1270  177.8430  138.2880 N   0  0  0  0  0  0  0  0  0  0  0  0
  180.4980  176.4360  138.3960 C   0  0  0  0  0  1  0  0  0  0  0  0
  182.4140  178.7250  138.9090 C   0  0  0  0  0  2  0  0  0  0  0  0
  184.0870  180.3770  139.0900 O   0  0  0  0  0  0  0  0  0  0  0  0
  182.0010  181.2270  138.4220 C   0  0  0  0  0  1  0  0  0  0  0  0
  182.9190  180.1290  138.8350 C   0  0  0  0  0  0  0  0  0  0  0  0
  2 20  1  0  0  0  0
  2  1  1  0  0  0  0
  3  2  2  0  0  0  0
  4  3  1  0  0  0  0
  4  6  1  0  0  0  0
  5  1  1  0  0  0  0
  5 11  1  0  0  0  0
  6  5  2  0  0  0  0
  8 11  1  0  0  0  0
  8 10  1  0  0  0  0
 10  9  2  0  0  0  0
 11  7  2  0  0  0  0
 12 10  1  0  0  0  0
 13 14  2  0  0  0  0
 13 18  1  0  0  0  0
 14 15  1  0  0  0  0
 15 16  2  0  0  0  0
 16 12  1  0  0  0  0
 17 16  1  0  0  0  0
 18 17  2  0  0  0  0
 19 13  1  0  0  0  0
 21 20  2  0  0  0  0
 22 23  2  0  0  0  0
 23 21  1  0  0  0  0
 25 24  1  0  0  0  0
 25 23  1  0  0  0  0
 26 30  1  6  0  0  0
 26 22  1  0  0  0  0
 27 28  1  0  0  0  0
 28 29  1  0  0  0  0
 28 26  1  0  0  0  0
 32 33  1  0  0  0  0
 33 30  1  0  0  0  0
 33 31  2  0  0  0  0
M  END
>  <MODEL>
4

>  <REMARK>
 VINA RESULT:      -7.5      3.615      6.369
  Name = 
  10 active torsions:
  status: ('A' for Active; 'I' for Inactive)
    1  A    between atoms: C_6  and  C_8
    2  A    between atoms: C_6  and  C_13
    3  A    between atoms: C_6  and  N_17
    4  A    between atoms: N_7  and  C_19
    5  A    between atoms: C_8  and  C_18
    6  A    between atoms: C_11  and  C_21
    7  A    between atoms: C_20  and  C_21
    8  A    between atoms: C_23  and  C_28
    9  A    between atoms: C_25  and  N_26
   10  A    between atoms: C_25  and  O_29
                            x       y       z     vdW  Elec       q    Type
                         _______ _______ _______ _____ _____    ______ ____

>  <TORSDO>
F 10

$$$$
=
 OpenBabel11062414493D

 33 34  0  0  1  0  0  0  0  0999 V2000
  188.5530  177.8780  136.8490 C   0  0  0  0  0  2  0  0  0  0  0  0
  188.0270  176.8750  135.8500 C   0  0  0  0  0  0  0  0  0  0  0  0
  188.6450  175.7400  135.6920 N   0  0  0  0  0  0  0  0  0  0  0  0
  189.8300  175.3880  136.4790 C   0  0  0  0  0  2  0  0  0  0  0  0
  189.1540  177.1670  138.0350 C   0  0  0  0  0  0  0  0  0  0  0  0
  189.7440  175.9780  137.8580 C   0  0  0  0  0  3  0  0  0  0  0  0
  188.8580  179.0100  139.4860 O   0  0  0  0  0  0  0  0  0  0  0  0
  189.2180  176.9530  140.5420 N   0  0  0  0  0  2  0  0  0  0  0  0
  189.0240  178.6450  142.1530 O   0  0  0  0  0  0  0  0  0  0  0  0
  189.1370  177.4180  141.8930 C   0  0  0  0  0  0  0  0  0  0  0  0
  189.0760  177.7740  139.3740 C   0  0  0  0  0  0  0  0  0  0  0  0
  189.1390  176.4280  143.0060 C   0  0  0  0  0  2  0  0  0  0  0  0
  186.9750  177.9100  146.4000 C   0  0  0  0  0  0  0  0  0  0  0  0
  186.2990  177.6270  145.2090 C   0  0  0  0  0  3  0  0  0  0  0  0
  187.0060  177.1550  144.0990 C   0  0  0  0  0  3  0  0  0  0  0  0
  188.3910  176.9690  144.1770 C   0  0  0  0  0  0  0  0  0  0  0  0
  189.0650  177.2490  145.3720 C   0  0  0  0  0  3  0  0  0  0  0  0
  188.3580  177.7210  146.4810 C   0  0  0  0  0  3  0  0  0  0  0  0
  186.2900  178.3660  147.4750 F   0  0  0  0  0  0  0  0  0  0  0  0
  186.9330  177.2050  134.9850 N   0  0  0  0  0  0  0  0  0  0  0  0
  185.7160  177.3670  135.3470 N   0  0  0  0  0  0  0  0  0  0  0  0
  184.4950  178.0170  137.3220 C   0  0  0  0  0  3  0  0  0  0  0  0
  185.1700  177.0810  136.6480 C   0  0  0  0  0  0  0  0  0  0  0  0
  184.9080  174.6330  136.6970 C   0  0  0  0  0  1  0  0  0  0  0  0
  185.4100  175.8410  137.2470 O   0  0  0  0  0  0  0  0  0  0  0  0
  183.9440  177.7910  138.6950 C   0  0  2  0  0  3  0  0  0  0  0  0
  182.6260  175.9320  139.3990 C   0  0  0  0  0  1  0  0  0  0  0  0
  182.6190  177.1530  138.6110 N   0  0  0  0  0  0  0  0  0  0  0  0
  181.5660  178.0180  139.1330 C   0  0  0  0  0  1  0  0  0  0  0  0
  183.9640  179.0990  139.5040 C   0  0  0  0  0  2  0  0  0  0  0  0
  185.8580  179.4040  140.8750 O   0  0  0  0  0  0  0  0  0  0  0  0
  184.1140  178.2390  141.9330 C   0  0  0  0  0  1  0  0  0  0  0  0
  184.7330  178.9400  140.7750 C   0  0  0  0  0  0  0  0  0  0  0  0
  1  5  1  0  0  0  0
  2  1  1  0  0  0  0
  3  2  2  0  0  0  0
  3  4  1  0  0  0  0
  4  6  1  0  0  0  0
  5 11  1  0  0  0  0
  6  5  2  0  0  0  0
  8 10  1  0  0  0  0
 10  9  2  0  0  0  0
 10 12  1  0  0  0  0
 11  7  2  0  0  0  0
 11  8  1  0  0  0  0
 12 16  1  0  0  0  0
 13 18  1  0  0  0  0
 13 19  1  0  0  0  0
 14 13  2  0  0  0  0
 15 16  2  0  0  0  0
 15 14  1  0  0  0  0
 16 17  1  0  0  0  0
 17 18  2  0  0  0  0
 20 21  2  0  0  0  0
 20  2  1  0  0  0  0
 21 23  1  0  0  0  0
 23 25  1  0  0  0  0
 23 22  2  0  0  0  0
 24 25  1  0  0  0  0
 26 22  1  6  0  0  0
 26 30  1  0  0  0  0
 28 26  1  0  0  0  0
 28 29  1  0  0  0  0
 28 27  1  0  0  0  0
 30 33  1  0  0  0  0
 33 31  2  0  0  0  0
 33 32  1  0  0  0  0
M  END
>  <MODEL>
5

>  <REMARK>
 VINA RESULT:      -7.4      2.392      5.636
  Name = 
  10 active torsions:
  status: ('A' for Active; 'I' for Inactive)
    1  A    between atoms: C_6  and  C_8
    2  A    between atoms: C_6  and  C_13
    3  A    between atoms: C_6  and  N_17
    4  A    between atoms: N_7  and  C_19
    5  A    between atoms: C_8  and  C_18
    6  A    between atoms: C_11  and  C_21
    7  A    between atoms: C_20  and  C_21
    8  A    between atoms: C_23  and  C_28
    9  A    between atoms: C_25  and  N_26
   10  A    between atoms: C_25  and  O_29
                            x       y       z     vdW  Elec       q    Type
                         _______ _______ _______ _____ _____    ______ ____

>  <TORSDO>
F 10

$$$$
=
 OpenBabel11062414493D

 33 34  0  0  1  0  0  0  0  0999 V2000
  185.4000  178.2400  143.3490 C   0  0  0  0  0  2  0  0  0  0  0  0
  184.7150  179.0580  142.2810 C   0  0  0  0  0  0  0  0  0  0  0  0
  183.4620  179.3820  142.4240 N   0  0  0  0  0  0  0  0  0  0  0  0
  182.6930  178.9970  143.6110 C   0  0  0  0  0  2  0  0  0  0  0  0
  184.8560  178.5950  144.7090 C   0  0  0  0  0  0  0  0  0  0  0  0
  183.5770  178.9710  144.8270 C   0  0  0  0  0  3  0  0  0  0  0  0
  185.3090  178.9560  147.0010 O   0  0  0  0  0  0  0  0  0  0  0  0
  187.0560  177.9960  145.7750 N   0  0  0  0  0  2  0  0  0  0  0  0
  187.7390  178.3320  147.9930 O   0  0  0  0  0  0  0  0  0  0  0  0
  187.9930  177.8690  146.8490 C   0  0  0  0  0  0  0  0  0  0  0  0
  185.7350  178.5430  145.8890 C   0  0  0  0  0  0  0  0  0  0  0  0
  189.2680  177.1320  146.6220 C   0  0  0  0  0  2  0  0  0  0  0  0
  190.4330  177.5740  142.5180 C   0  0  0  0  0  0  0  0  0  0  0  0
  189.5130  176.5850  142.8810 C   0  0  0  0  0  3  0  0  0  0  0  0
  189.1420  176.4330  144.2210 C   0  0  0  0  0  3  0  0  0  0  0  0
  189.6940  177.2670  145.2000 C   0  0  0  0  0  0  0  0  0  0  0  0
  190.6110  178.2600  144.8330 C   0  0  0  0  0  3  0  0  0  0  0  0
  190.9820  178.4110  143.4940 C   0  0  0  0  0  3  0  0  0  0  0  0
  190.7920  177.7210  141.2200 F   0  0  0  0  0  0  0  0  0  0  0  0
  185.3870  179.3770  141.0560 N   0  0  0  0  0  0  0  0  0  0  0  0
  184.8560  179.3770  139.8910 N   0  0  0  0  0  0  0  0  0  0  0  0
  183.3730  177.6370  139.1280 C   0  0  0  0  0  3  0  0  0  0  0  0
  183.5430  178.8910  139.5540 C   0  0  0  0  0  0  0  0  0  0  0  0
  182.3230  180.8540  138.7040 C   0  0  0  0  0  1  0  0  0  0  0  0
  182.4480  179.7580  139.5970 O   0  0  0  0  0  0  0  0  0  0  0  0
  182.0400  177.0910  138.7190 C   0  0  2  0  0  3  0  0  0  0  0  0
  180.3900  177.1910  140.4390 C   0  0  0  0  0  1  0  0  0  0  0  0
  181.4250  176.3630  139.8430 N   0  0  0  0  0  0  0  0  0  0  0  0
  180.8060  175.1150  139.4070 C   0  0  0  0  0  1  0  0  0  0  0  0
  182.1700  176.2650  137.4290 C   0  0  0  0  0  2  0  0  0  0  0  0
  181.8830  176.6150  135.1150 O   0  0  0  0  0  0  0  0  0  0  0  0
  180.8770  178.2710  136.4430 C   0  0  0  0  0  1  0  0  0  0  0  0
  181.6670  177.0250  136.2440 C   0  0  0  0  0  0  0  0  0  0  0  0
  1  5  1  0  0  0  0
  2  3  2  0  0  0  0
  2  1  1  0  0  0  0
  3  4  1  0  0  0  0
  4  6  1  0  0  0  0
  5  6  2  0  0  0  0
  5 11  1  0  0  0  0
  8 11  1  0  0  0  0
  8 10  1  0  0  0  0
 10  9  2  0  0  0  0
 11  7  2  0  0  0  0
 12 10  1  0  0  0  0
 13 14  2  0  0  0  0
 13 18  1  0  0  0  0
 14 15  1  0  0  0  0
 15 16  2  0  0  0  0
 16 12  1  0  0  0  0
 17 16  1  0  0  0  0
 18 17  2  0  0  0  0
 19 13  1  0  0  0  0
 20  2  1  0  0  0  0
 21 20  2  0  0  0  0
 22 23  2  0  0  0  0
 23 25  1  0  0  0  0
 23 21  1  0  0  0  0
 24 25  1  0  0  0  0
 26 30  1  6  0  0  0
 26 22  1  0  0  0  0
 26 28  1  0  0  0  0
 28 27  1  0  0  0  0
 29 28  1  0  0  0  0
 31 33  2  0  0  0  0
 33 32  1  0  0  0  0
 33 30  1  0  0  0  0
M  END
>  <MODEL>
6

>  <REMARK>
 VINA RESULT:      -7.3      3.393      5.495
  Name = 
  10 active torsions:
  status: ('A' for Active; 'I' for Inactive)
    1  A    between atoms: C_6  and  C_8
    2  A    between atoms: C_6  and  C_13
    3  A    between atoms: C_6  and  N_17
    4  A    between atoms: N_7  and  C_19
    5  A    between atoms: C_8  and  C_18
    6  A    between atoms: C_11  and  C_21
    7  A    between atoms: C_20  and  C_21
    8  A    between atoms: C_23  and  C_28
    9  A    between atoms: C_25  and  N_26
   10  A    between atoms: C_25  and  O_29
                            x       y       z     vdW  Elec       q    Type
                         _______ _______ _______ _____ _____    ______ ____

>  <TORSDO>
F 10

$$$$
=
 OpenBabel11062414493D

 33 34  0  0  1  0  0  0  0  0999 V2000
  188.2660  178.9900  141.0370 C   0  0  0  0  0  2  0  0  0  0  0  0
  189.0540  178.3520  139.9190 C   0  0  0  0  0  0  0  0  0  0  0  0
  189.8230  177.3330  140.1740 N   0  0  0  0  0  0  0  0  0  0  0  0
  189.9290  176.7600  141.5190 C   0  0  0  0  0  2  0  0  0  0  0  0
  187.8380  177.9450  142.0360 C   0  0  0  0  0  0  0  0  0  0  0  0
  188.6210  176.8800  142.2490 C   0  0  0  0  0  3  0  0  0  0  0  0
  185.4760  177.9920  142.1240 O   0  0  0  0  0  0  0  0  0  0  0  0
  186.5600  178.3240  144.1710 N   0  0  0  0  0  2  0  0  0  0  0  0
  184.2390  178.4800  144.4700 O   0  0  0  0  0  0  0  0  0  0  0  0
  185.3900  178.4600  144.9840 C   0  0  0  0  0  0  0  0  0  0  0  0
  186.5620  178.0940  142.7550 C   0  0  0  0  0  0  0  0  0  0  0  0
  185.5340  178.5310  146.4650 C   0  0  0  0  0  2  0  0  0  0  0  0
  189.5440  177.5040  147.5870 C   0  0  0  0  0  0  0  0  0  0  0  0
  189.0490  177.1220  146.3360 C   0  0  0  0  0  3  0  0  0  0  0  0
  187.7370  177.4470  145.9750 C   0  0  0  0  0  3  0  0  0  0  0  0
  186.9190  178.1500  146.8650 C   0  0  0  0  0  0  0  0  0  0  0  0
  187.4190  178.5360  148.1150 C   0  0  0  0  0  3  0  0  0  0  0  0
  188.7290  178.2110  148.4770 C   0  0  0  0  0  3  0  0  0  0  0  0
  190.8150  177.1900  147.9360 F   0  0  0  0  0  0  0  0  0  0  0  0
  189.0670  178.9290  138.6070 N   0  0  0  0  0  0  0  0  0  0  0  0
  188.1720  178.7590  137.7080 N   0  0  0  0  0  0  0  0  0  0  0  0
  185.8130  178.2590  137.7050 C   0  0  0  0  0  3  0  0  0  0  0  0
  187.0760  177.8260  137.7620 C   0  0  0  0  0  0  0  0  0  0  0  0
  188.2180  175.7430  137.1150 C   0  0  0  0  0  1  0  0  0  0  0  0
  187.3290  176.4650  137.9530 O   0  0  0  0  0  0  0  0  0  0  0  0
  184.6350  177.3400  137.8020 C   0  0  2  0  0  3  0  0  0  0  0  0
  184.7160  176.8920  135.4610 C   0  0  0  0  0  1  0  0  0  0  0  0
  183.8690  177.3630  136.5440 N   0  0  0  0  0  0  0  0  0  0  0  0
  182.6960  176.4970  136.6060 C   0  0  0  0  0  1  0  0  0  0  0  0
  183.8020  177.6660  139.0530 C   0  0  0  0  0  2  0  0  0  0  0  0
  184.4870  179.8260  139.7050 O   0  0  0  0  0  0  0  0  0  0  0  0
  182.3500  179.7760  138.7310 C   0  0  0  0  0  1  0  0  0  0  0  0
  183.6080  179.1400  139.2080 C   0  0  0  0  0  0  0  0  0  0  0  0
  1  5  1  0  0  0  0
  2  3  2  0  0  0  0
  2  1  1  0  0  0  0
  3  4  1  0  0  0  0
  4  6  1  0  0  0  0
  5  6  2  0  0  0  0
  5 11  1  0  0  0  0
  7 11  2  0  0  0  0
  8 10  1  0  0  0  0
  9 10  2  0  0  0  0
 10 12  1  0  0  0  0
 11  8  1  0  0  0  0
 12 16  1  0  0  0  0
 13 19  1  0  0  0  0
 13 18  1  0  0  0  0
 14 13  2  0  0  0  0
 15 14  1  0  0  0  0
 15 16  2  0  0  0  0
 16 17  1  0  0  0  0
 17 18  2  0  0  0  0
 20  2  1  0  0  0  0
 21 23  1  0  0  0  0
 21 20  2  0  0  0  0
 22 23  2  0  0  0  0
 23 25  1  0  0  0  0
 24 25  1  0  0  0  0
 26 22  1  6  0  0  0
 26 30  1  0  0  0  0
 27 28  1  0  0  0  0
 28 29  1  0  0  0  0
 28 26  1  0  0  0  0
 30 33  1  0  0  0  0
 32 33  1  0  0  0  0
 33 31  2  0  0  0  0
M  END
>  <MODEL>
7

>  <REMARK>
 VINA RESULT:      -7.3      1.871      4.710
  Name = 
  10 active torsions:
  status: ('A' for Active; 'I' for Inactive)
    1  A    between atoms: C_6  and  C_8
    2  A    between atoms: C_6  and  C_13
    3  A    between atoms: C_6  and  N_17
    4  A    between atoms: N_7  and  C_19
    5  A    between atoms: C_8  and  C_18
    6  A    between atoms: C_11  and  C_21
    7  A    between atoms: C_20  and  C_21
    8  A    between atoms: C_23  and  C_28
    9  A    between atoms: C_25  and  N_26
   10  A    between atoms: C_25  and  O_29
                            x       y       z     vdW  Elec       q    Type
                         _______ _______ _______ _____ _____    ______ ____

>  <TORSDO>
F 10

$$$$
=
 OpenBabel11062414493D

 33 34  0  0  1  0  0  0  0  0999 V2000
  189.4410  178.4930  138.9950 C   0  0  0  0  0  2  0  0  0  0  0  0
  188.9770  178.4320  137.5590 C   0  0  0  0  0  0  0  0  0  0  0  0
  189.5530  177.6090  136.7320 N   0  0  0  0  0  0  0  0  0  0  0  0
  190.6310  176.7110  137.1570 C   0  0  0  0  0  2  0  0  0  0  0  0
  189.8800  177.1280  139.4610 C   0  0  0  0  0  0  0  0  0  0  0  0
  190.4270  176.2790  138.5820 C   0  0  0  0  0  3  0  0  0  0  0  0
  190.5480  176.0050  141.4300 O   0  0  0  0  0  0  0  0  0  0  0  0
  188.5450  177.2050  141.5930 N   0  0  0  0  0  2  0  0  0  0  0  0
  188.9810  176.1150  143.6230 O   0  0  0  0  0  0  0  0  0  0  0  0
  188.2620  176.9140  142.9650 C   0  0  0  0  0  0  0  0  0  0  0  0
  189.6890  176.7340  140.8660 C   0  0  0  0  0  0  0  0  0  0  0  0
  187.1260  177.6040  143.6380 C   0  0  0  0  0  2  0  0  0  0  0  0
  187.9990  178.1200  147.8050 C   0  0  0  0  0  0  0  0  0  0  0  0
  186.6800  178.2230  147.3490 C   0  0  0  0  0  3  0  0  0  0  0  0
  186.3970  178.0670  145.9890 C   0  0  0  0  0  3  0  0  0  0  0  0
  187.4320  177.8110  145.0820 C   0  0  0  0  0  0  0  0  0  0  0  0
  188.7500  177.7020  145.5420 C   0  0  0  0  0  3  0  0  0  0  0  0
  189.0330  177.8590  146.9020 C   0  0  0  0  0  3  0  0  0  0  0  0
  188.2720  178.2710  149.1230 F   0  0  0  0  0  0  0  0  0  0  0  0
  187.9970  179.3530  137.0640 N   0  0  0  0  0  0  0  0  0  0  0  0
  186.7280  179.2210  137.1660 N   0  0  0  0  0  0  0  0  0  0  0  0
  185.8110  177.0200  136.8160 C   0  0  0  0  0  3  0  0  0  0  0  0
  186.0280  178.0530  137.6340 C   0  0  0  0  0  0  0  0  0  0  0  0
  184.5850  179.0090  139.3850 C   0  0  0  0  0  1  0  0  0  0  0  0
  185.5040  178.0290  138.9290 O   0  0  0  0  0  0  0  0  0  0  0  0
  185.0500  175.8000  137.2340 C   0  0  2  0  0  3  0  0  0  0  0  0
  187.1860  174.7610  137.0200 C   0  0  0  0  0  1  0  0  0  0  0  0
  185.7610  174.5860  136.7980 N   0  0  0  0  0  0  0  0  0  0  0  0
  185.3320  173.4070  137.5450 C   0  0  0  0  0  1  0  0  0  0  0  0
  183.5930  175.8840  136.7510 C   0  0  0  0  0  2  0  0  0  0  0  0
  183.0460  175.7670  139.0410 O   0  0  0  0  0  0  0  0  0  0  0  0
  181.1720  175.6920  137.6270 C   0  0  0  0  0  1  0  0  0  0  0  0
  182.6350  175.7720  137.8920 C   0  0  0  0  0  0  0  0  0  0  0  0
  1  5  1  0  0  0  0
  2  1  1  0  0  0  0
  3  4  1  0  0  0  0
  3  2  2  0  0  0  0
  4  6  1  0  0  0  0
  5 11  1  0  0  0  0
  6  5  2  0  0  0  0
  8 10  1  0  0  0  0
 10  9  2  0  0  0  0
 10 12  1  0  0  0  0
 11  7  2  0  0  0  0
 11  8  1  0  0  0  0
 12 16  1  0  0  0  0
 13 19  1  0  0  0  0
 14 13  1  0  0  0  0
 15 14  2  0  0  0  0
 16 17  2  0  0  0  0
 16 15  1  0  0  0  0
 17 18  1  0  0  0  0
 18 13  2  0  0  0  0
 20 21  2  0  0  0  0
 20  2  1  0  0  0  0
 21 23  1  0  0  0  0
 22 26  1  0  0  0  0
 22 23  2  0  0  0  0
 23 25  1  0  0  0  0
 25 24  1  0  0  0  0
 26 30  1  6  0  0  0
 28 27  1  0  0  0  0
 28 26  1  0  0  0  0
 28 29  1  0  0  0  0
 30 33  1  0  0  0  0
 32 33  1  0  0  0  0
 33 31  2  0  0  0  0
M  END
>  <MODEL>
8

>  <REMARK>
 VINA RESULT:      -7.2      2.461      5.407
  Name = 
  10 active torsions:
  status: ('A' for Active; 'I' for Inactive)
    1  A    between atoms: C_6  and  C_8
    2  A    between atoms: C_6  and  C_13
    3  A    between atoms: C_6  and  N_17
    4  A    between atoms: N_7  and  C_19
    5  A    between atoms: C_8  and  C_18
    6  A    between atoms: C_11  and  C_21
    7  A    between atoms: C_20  and  C_21
    8  A    between atoms: C_23  and  C_28
    9  A    between atoms: C_25  and  N_26
   10  A    between atoms: C_25  and  O_29
                            x       y       z     vdW  Elec       q    Type
                         _______ _______ _______ _____ _____    ______ ____

>  <TORSDO>
F 10

$$$$
=
 OpenBabel11062414493D

 33 34  0  0  1  0  0  0  0  0999 V2000
  189.4990  177.4710  140.5520 C   0  0  0  0  0  2  0  0  0  0  0  0
  190.9600  177.3250  140.2030 C   0  0  0  0  0  0  0  0  0  0  0  0
  191.3080  176.5930  139.1840 N   0  0  0  0  0  0  0  0  0  0  0  0
  190.3170  175.9190  138.3400 C   0  0  0  0  0  2  0  0  0  0  0  0
  188.6590  177.4600  139.3000 C   0  0  0  0  0  0  0  0  0  0  0  0
  189.0600  176.7370  138.2470 C   0  0  0  0  0  3  0  0  0  0  0  0
  187.1290  178.8720  138.1810 O   0  0  0  0  0  0  0  0  0  0  0  0
  186.5380  178.2930  140.3700 N   0  0  0  0  0  2  0  0  0  0  0  0
  184.9310  179.7470  139.4760 O   0  0  0  0  0  0  0  0  0  0  0  0
  185.2980  179.0040  140.4250 C   0  0  0  0  0  0  0  0  0  0  0  0
  187.4200  178.2530  139.2390 C   0  0  0  0  0  0  0  0  0  0  0  0
  184.4050  178.8240  141.6040 C   0  0  0  0  0  2  0  0  0  0  0  0
  180.6360  177.2400  140.3070 C   0  0  0  0  0  0  0  0  0  0  0  0
  180.6720  178.2940  141.2260 C   0  0  0  0  0  3  0  0  0  0  0  0
  181.9010  178.8030  141.6570 C   0  0  0  0  0  3  0  0  0  0  0  0
  183.0950  178.2550  141.1750 C   0  0  0  0  0  0  0  0  0  0  0  0
  183.0560  177.2040  140.2510 C   0  0  0  0  0  3  0  0  0  0  0  0
  181.8270  176.6950  139.8200 C   0  0  0  0  0  3  0  0  0  0  0  0
  179.4450  176.7480  139.8890 F   0  0  0  0  0  0  0  0  0  0  0  0
  191.9760  177.8780  141.0490 N   0  0  0  0  0  0  0  0  0  0  0  0
  192.0310  177.7630  142.3230 N   0  0  0  0  0  0  0  0  0  0  0  0
  190.2220  178.0260  143.8930 C   0  0  0  0  0  3  0  0  0  0  0  0
  191.0060  177.2180  143.1740 C   0  0  0  0  0  0  0  0  0  0  0  0
  191.8600  175.0520  143.9750 C   0  0  0  0  0  1  0  0  0  0  0  0
  190.8790  175.8340  143.3110 O   0  0  0  0  0  0  0  0  0  0  0  0
  189.1710  177.5150  144.8300 C   0  0  2  0  0  3  0  0  0  0  0  0
  187.3820  176.7370  143.4570 C   0  0  0  0  0  1  0  0  0  0  0  0
  187.8300  177.8280  144.3050 N   0  0  0  0  0  0  0  0  0  0  0  0
  186.8530  177.9930  145.3770 C   0  0  0  0  0  1  0  0  0  0  0  0
  189.4260  178.0290  146.2560 C   0  0  0  0  0  2  0  0  0  0  0  0
  188.8520  176.3780  147.8380 O   0  0  0  0  0  0  0  0  0  0  0  0
  191.1410  176.4120  147.3110 C   0  0  0  0  0  1  0  0  0  0  0  0
  189.7410  176.9060  147.1900 C   0  0  0  0  0  0  0  0  0  0  0  0
  2  1  1  0  0  0  0
  2 20  1  0  0  0  0
  3  2  2  0  0  0  0
  4  3  1  0  0  0  0
  5  1  1  0  0  0  0
  6  4  1  0  0  0  0
  6  5  2  0  0  0  0
  7 11  2  0  0  0  0
  8 10  1  0  0  0  0
  9 10  2  0  0  0  0
 10 12  1  0  0  0  0
 11  5  1  0  0  0  0
 11  8  1  0  0  0  0
 13 14  1  0  0  0  0
 14 15  2  0  0  0  0
 16 12  1  0  0  0  0
 16 15  1  0  0  0  0
 17 16  2  0  0  0  0
 18 17  1  0  0  0  0
 18 13  2  0  0  0  0
 19 13  1  0  0  0  0
 20 21  2  0  0  0  0
 21 23  1  0  0  0  0
 23 25  1  0  0  0  0
 23 22  2  0  0  0  0
 25 24  1  0  0  0  0
 26 22  1  6  0  0  0
 26 30  1  0  0  0  0
 27 28  1  0  0  0  0
 28 26  1  0  0  0  0
 28 29  1  0  0  0  0
 30 33  1  0  0  0  0
 33 32  1  0  0  0  0
 33 31  2  0  0  0  0
M  END
>  <MODEL>
9

>  <REMARK>
 VINA RESULT:      -7.1      3.269      7.597
  Name = 
  10 active torsions:
  status: ('A' for Active; 'I' for Inactive)
    1  A    between atoms: C_6  and  C_8
    2  A    between atoms: C_6  and  C_13
    3  A    between atoms: C_6  and  N_17
    4  A    between atoms: N_7  and  C_19
    5  A    between atoms: C_8  and  C_18
    6  A    between atoms: C_11  and  C_21
    7  A    between atoms: C_20  and  C_21
    8  A    between atoms: C_23  and  C_28
    9  A    between atoms: C_25  and  N_26
   10  A    between atoms: C_25  and  O_29
                            x       y       z     vdW  Elec       q    Type
                         _______ _______ _______ _____ _____    ______ ____

>  <TORSDO>
F 10

$$$$
