=
 OpenBabel11062414153D

 60 64  0  0  1  0  0  0  0  0999 V2000
  186.7670  176.4960  136.4200 C   0  0  2  0  0  3  0  0  0  0  0  0
  186.4230  178.1460  138.3790 C   0  0  0  0  0  0  0  0  0  0  0  0
  186.8860  178.6160  139.4530 O   0  0  0  0  0  0  0  0  0  0  0  0
  187.9420  174.5250  135.2780 O   0  0  0  0  0  1  0  0  0  0  0  0
  187.1910  177.2010  137.6270 N   0  0  0  0  0  0  0  0  0  0  0  0
  188.3670  176.6630  138.0840 O   0  0  0  0  0  0  0  0  0  0  0  0
  188.7540  175.6350  137.2490 C   0  0  0  0  0  0  0  0  0  0  0  0
  187.8660  175.4890  136.2760 C   0  0  0  0  0  0  0  0  0  0  0  0
  186.7900  177.4410  135.2310 C   0  0  0  0  0  1  0  0  0  0  0  0
  189.9750  174.7990  137.4470 C   0  0  0  0  0  2  0  0  0  0  0  0
  192.8970  177.1040  139.6070 C   0  0  0  0  0  0  0  0  0  0  0  0
  191.5520  177.1060  140.0010 C   0  0  0  0  0  0  0  0  0  0  0  0
  190.6200  176.3450  139.2880 C   0  0  0  0  0  3  0  0  0  0  0  0
  193.3040  176.3230  138.5220 C   0  0  0  0  0  3  0  0  0  0  0  0
  191.0200  175.5700  138.1920 C   0  0  0  0  0  0  0  0  0  0  0  0
  193.8380  177.8690  140.2870 O   0  0  0  0  0  1  0  0  0  0  0  0
  192.3800  175.5510  137.8100 C   0  0  0  0  0  0  0  0  0  0  0  0
  192.1210  174.8980  135.4720 N   0  0  0  0  0  0  0  0  0  0  0  0
  192.8870  175.7630  134.5940 C   0  0  0  0  0  1  0  0  0  0  0  0
  192.9120  173.2960  137.0480 N   0  0  0  0  0  0  0  0  0  0  0  0
  192.0690  173.5960  134.8350 C   0  0  0  0  0  2  0  0  0  0  0  0
  192.9070  174.7070  136.6830 C   0  0  2  0  0  3  0  0  0  0  0  0
  192.5810  172.5820  135.8310 C   0  0  0  0  0  2  0  0  0  0  0  0
  194.5770  172.8640  137.4590 S   0  0  0  0  0  0  0  0  0  0  0  0
  195.2640  173.7660  136.0350 C   0  0  0  0  0  2  0  0  0  0  0  0
  196.4010  174.6630  136.4850 C   0  0  0  0  0  1  0  0  0  0  0  0
  191.0970  177.9120  141.1770 C   0  0  0  0  0  2  0  0  0  0  0  0
  190.2150  177.0910  142.1110 C   0  0  0  0  0  2  0  0  0  0  0  0
  191.9040  178.2040  143.9290 O   0  0  0  0  0  0  0  0  0  0  0  0
  191.5420  175.6200  144.1590 O   0  0  0  0  0  1  0  0  0  0  0  0
  190.8490  177.1240  143.8170 P   0  0  2  0  0  0  0  0  0  0  0  0
  189.5490  177.4470  144.8670 O   0  0  0  0  0  0  0  0  0  0  0  0
  187.7670  178.2000  142.9100 O   0  0  0  0  0  0  0  0  0  0  0  0
  188.1060  177.0160  144.0660 P   0  0  0  0  0  0  0  0  0  0  0  0
  188.2790  175.5300  143.2740 O   0  0  0  0  0  1  0  0  0  0  0  0
  186.9450  176.9430  145.0370 O   0  0  0  0  0  1  0  0  0  0  0  0
  185.0860  178.6030  137.9010 C   0  0  0  0  0  2  0  0  0  0  0  0
  184.1690  178.8380  139.0870 C   0  0  0  0  0  2  0  0  0  0  0  0
  181.6860  176.5610  140.2790 N   0  0  0  0  0  0  0  0  0  0  0  0
  182.1540  177.9480  140.1970 C   0  0  1  0  0  3  0  0  0  0  0  0
  182.5610  175.8140  139.4640 N   0  0  0  0  0  2  0  0  0  0  0  0
  183.0890  176.7060  138.4330 C   0  0  0  0  0  2  0  0  0  0  0  0
  182.8460  178.1280  138.8740 C   0  0  2  0  0  3  0  0  0  0  0  0
  180.3180  179.5340  139.5230 C   0  0  0  0  0  3  0  0  0  0  0  0
  179.8930  180.3570  142.1500 C   0  0  0  0  0  3  0  0  0  0  0  0
  179.3200  180.4650  139.8090 C   0  0  0  0  0  3  0  0  0  0  0  0
  179.1050  180.8760  141.1230 C   0  0  0  0  0  3  0  0  0  0  0  0
  180.9090  179.4230  141.8870 C   0  0  0  0  0  0  0  0  0  0  0  0
  181.1250  179.0060  140.5460 C   0  0  0  0  0  0  0  0  0  0  0  0
  181.1550  178.3970  144.0340 O   0  0  0  0  0  0  0  0  0  0  0  0
  181.7110  178.9290  143.0350 C   0  0  0  0  0  0  0  0  0  0  0  0
  183.1390  179.0400  142.9980 N   0  0  0  0  0  2  0  0  0  0  0  0
  183.9950  178.5370  144.0620 C   0  0  0  0  0  2  0  0  0  0  0  0
  184.7840  179.6790  144.6760 C   0  0  0  0  0  1  0  0  0  0  0  0
  180.3400  176.3950  139.7250 C   0  0  0  0  0  2  0  0  0  0  0  0
  179.4360  175.7820  140.7420 C   0  0  0  0  0  0  0  0  0  0  0  0
  179.1120  176.4180  141.7330 O   0  0  0  0  0  0  0  0  0  0  0  0
  179.6130  173.7550  139.3290 C   0  0  0  0  0  1  0  0  0  0  0  0
  179.1590  173.5370  141.7660 C   0  0  0  0  0  1  0  0  0  0  0  0
  178.9320  174.3890  140.5280 C   0  0  0  0  0  3  0  0  0  0  0  0
  1  9  1  6  0  0  0
  1  5  1  0  0  0  0
  2  3  2  0  0  0  0
  4  8  1  0  0  0  0
  5  6  1  0  0  0  0
  5  2  1  0  0  0  0
  7 10  1  0  0  0  0
  7  6  1  0  0  0  0
  8  1  1  0  0  0  0
  8  7  2  0  0  0  0
 10 15  1  0  0  0  0
 11 12  1  0  0  0  0
 11 16  1  0  0  0  0
 12 27  1  0  0  0  0
 13 12  2  0  0  0  0
 14 11  2  0  0  0  0
 15 13  1  0  0  0  0
 17 15  2  0  0  0  0
 17 14  1  0  0  0  0
 18 22  1  0  0  0  0
 19 18  1  0  0  0  0
 20 24  1  0  0  0  0
 21 18  1  0  0  0  0
 21 23  1  0  0  0  0
 22 20  1  0  0  0  0
 22 17  1  1  0  0  0
 23 20  1  0  0  0  0
 25 26  1  0  0  0  0
 25 24  1  0  0  0  0
 27 28  1  0  0  0  0
 28 31  1  0  0  0  0
 31 29  2  1  0  0  0
 31 30  1  0  0  0  0
 31 32  1  0  0  0  0
 33 34  2  0  0  0  0
 34 32  1  0  0  0  0
 34 36  1  0  0  0  0
 35 34  1  0  0  0  0
 37  2  1  0  0  0  0
 37 38  1  0  0  0  0
 40 39  1  0  0  0  0
 40 49  1  6  0  0  0
 41 39  1  0  0  0  0
 42 43  1  0  0  0  0
 42 41  1  0  0  0  0
 43 38  1  1  0  0  0
 43 40  1  0  0  0  0
 44 46  2  0  0  0  0
 44 49  1  0  0  0  0
 46 47  1  0  0  0  0
 47 45  2  0  0  0  0
 48 45  1  0  0  0  0
 48 51  1  0  0  0  0
 49 48  2  0  0  0  0
 51 50  2  0  0  0  0
 52 51  1  0  0  0  0
 52 53  1  0  0  0  0
 53 54  1  0  0  0  0
 55 39  1  0  0  0  0
 55 56  1  0  0  0  0
 56 57  2  0  0  0  0
 58 60  1  0  0  0  0
 60 56  1  0  0  0  0
 60 59  1  0  0  0  0
M  END
>  <MODEL>
1

>  <REMARK>
 VINA RESULT:      -7.1      0.000      0.000
  Name = 
  19 active torsions:
  status: ('A' for Active; 'I' for Inactive)
    1  A    between atoms: S_2  and  C_24
    2  A    between atoms: S_2  and  N_31
    3  A    between atoms: P_4  and  O_56
    4  A    between atoms: C_8  and  C_33
    5  A    between atoms: C_10  and  C_46
    6  A    between atoms: N_14  and  C_27
    7  A    between atoms: C_16  and  C_41
    8  A    between atoms: C_16  and  C_54
    9  A    between atoms: C_19  and  C_34
   10  A    between atoms: C_21  and  C_27
   11  A    between atoms: C_21  and  C_29
   12  A    between atoms: C_22  and  N_43
   13  A    between atoms: C_28  and  C_32
   14  A    between atoms: C_33  and  C_51
   15  A    between atoms: C_40  and  C_58
   16  A    between atoms: C_46  and  C_55
   17  A    between atoms: C_47  and  C_55
   18  A    between atoms: C_51  and  P_59
   19  A    between atoms: O_56  and  P_59
                            x       y       z     vdW  Elec       q    Type
                         _______ _______ _______ _____ _____    ______ ____

>  <TORSDO>
F 19

$$$$
=
 OpenBabel11062414153D

 60 64  0  0  1  0  0  0  0  0999 V2000
  191.6320  177.4200  140.5430 C   0  0  2  0  0  3  0  0  0  0  0  0
  189.1460  177.5860  139.8520 C   0  0  0  0  0  0  0  0  0  0  0  0
  188.3020  177.4640  138.9250 O   0  0  0  0  0  0  0  0  0  0  0  0
  194.1340  177.2100  140.0270 O   0  0  0  0  0  1  0  0  0  0  0  0
  190.5180  177.2520  139.6130 N   0  0  0  0  0  0  0  0  0  0  0  0
  191.0030  176.9300  138.3710 O   0  0  0  0  0  0  0  0  0  0  0  0
  192.3800  176.8740  138.4180 C   0  0  0  0  0  0  0  0  0  0  0  0
  192.7990  177.1550  139.6430 C   0  0  0  0  0  0  0  0  0  0  0  0
  191.5740  176.3520  141.6230 C   0  0  0  0  0  1  0  0  0  0  0  0
  193.2540  176.5750  137.2450 C   0  0  0  0  0  2  0  0  0  0  0  0
  192.2500  172.6780  135.7230 C   0  0  0  0  0  0  0  0  0  0  0  0
  191.2440  173.5920  136.0650 C   0  0  0  0  0  0  0  0  0  0  0  0
  191.5930  174.8560  136.5530 C   0  0  0  0  0  3  0  0  0  0  0  0
  193.5930  173.0410  135.8470 C   0  0  0  0  0  3  0  0  0  0  0  0
  192.9380  175.2210  136.6900 C   0  0  0  0  0  0  0  0  0  0  0  0
  191.9270  171.4080  135.2570 O   0  0  0  0  0  1  0  0  0  0  0  0
  193.9510  174.3060  136.3230 C   0  0  0  0  0  0  0  0  0  0  0  0
  195.9800  174.7860  135.0530 N   0  0  0  0  0  0  0  0  0  0  0  0
  196.1260  176.2090  134.8080 C   0  0  0  0  0  1  0  0  0  0  0  0
  196.1480  173.6020  137.1140 N   0  0  0  0  0  0  0  0  0  0  0  0
  197.3190  174.2360  135.1310 C   0  0  0  0  0  2  0  0  0  0  0  0
  195.4170  174.6330  136.3860 C   0  0  2  0  0  3  0  0  0  0  0  0
  197.4290  173.4940  136.4440 C   0  0  0  0  0  2  0  0  0  0  0  0
  196.4690  174.2280  138.7350 S   0  0  0  0  0  0  0  0  0  0  0  0
  198.2300  174.5210  138.3790 C   0  0  0  0  0  2  0  0  0  0  0  0
  198.8750  175.2790  139.5230 C   0  0  0  0  0  1  0  0  0  0  0  0
  189.7980  173.2360  135.9150 C   0  0  0  0  0  2  0  0  0  0  0  0
  188.9260  174.0070  136.9000 C   0  0  0  0  0  2  0  0  0  0  0  0
  186.6890  172.7990  137.8650 O   0  0  0  0  0  1  0  0  0  0  0  0
  187.0000  172.6860  135.2670 O   0  0  0  0  0  0  0  0  0  0  0  0
  187.1650  173.6060  136.6760 P   0  0  2  0  0  0  0  0  0  0  0  0
  186.2940  175.0630  136.5550 O   0  0  0  0  0  0  0  0  0  0  0  0
  183.9790  174.9180  135.0760 O   0  0  0  0  0  0  0  0  0  0  0  0
  184.6300  174.6890  136.6160 P   0  0  0  0  0  0  0  0  0  0  0  0
  184.3950  173.0730  137.0620 O   0  0  0  0  0  1  0  0  0  0  0  0
  183.9030  175.5960  137.5880 O   0  0  0  0  0  1  0  0  0  0  0  0
  188.6940  178.0570  141.1920 C   0  0  0  0  0  2  0  0  0  0  0  0
  187.4600  177.2830  141.6190 C   0  0  0  0  0  2  0  0  0  0  0  0
  188.5000  178.0400  144.9530 N   0  0  0  0  0  0  0  0  0  0  0  0
  187.4220  178.0630  143.9580 C   0  0  1  0  0  3  0  0  0  0  0  0
  189.5640  177.3430  144.3470 N   0  0  0  0  0  2  0  0  0  0  0  0
  188.9980  176.4230  143.3610 C   0  0  0  0  0  2  0  0  0  0  0  0
  187.5840  176.8600  143.0710 C   0  0  2  0  0  3  0  0  0  0  0  0
  185.7890  178.0330  145.8740 C   0  0  0  0  0  3  0  0  0  0  0  0
  183.7310  179.0560  144.3000 C   0  0  0  0  0  3  0  0  0  0  0  0
  184.5370  178.2800  146.4370 C   0  0  0  0  0  3  0  0  0  0  0  0
  183.5080  178.7940  145.6510 C   0  0  0  0  0  3  0  0  0  0  0  0
  184.9810  178.8090  143.7070 C   0  0  0  0  0  0  0  0  0  0  0  0
  186.0280  178.2860  144.5120 C   0  0  0  0  0  0  0  0  0  0  0  0
  185.9680  179.9560  141.8540 O   0  0  0  0  0  0  0  0  0  0  0  0
  185.1320  179.1030  142.2590 C   0  0  0  0  0  0  0  0  0  0  0  0
  184.3310  178.3940  141.3080 N   0  0  0  0  0  2  0  0  0  0  0  0
  184.4540  178.5920  139.8710 C   0  0  0  0  0  2  0  0  0  0  0  0
  183.0780  178.7340  139.2470 C   0  0  0  0  0  1  0  0  0  0  0  0
  188.1290  177.2920  146.1560 C   0  0  0  0  0  2  0  0  0  0  0  0
  189.2500  177.3120  147.1420 C   0  0  0  0  0  0  0  0  0  0  0  0
  190.2030  176.5630  146.9950 O   0  0  0  0  0  0  0  0  0  0  0  0
  187.9890  177.9570  149.1730 C   0  0  0  0  0  1  0  0  0  0  0  0
  190.4660  178.1850  149.1220 C   0  0  0  0  0  1  0  0  0  0  0  0
  189.1910  178.2600  148.2980 C   0  0  0  0  0  3  0  0  0  0  0  0
  1  9  1  1  0  0  0
  2 37  1  0  0  0  0
  3  2  2  0  0  0  0
  5  2  1  0  0  0  0
  5  1  1  0  0  0  0
  6  7  1  0  0  0  0
  6  5  1  0  0  0  0
  7  8  2  0  0  0  0
  8  4  1  0  0  0  0
  8  1  1  0  0  0  0
 10  7  1  0  0  0  0
 11 14  2  0  0  0  0
 11 12  1  0  0  0  0
 12 13  2  0  0  0  0
 13 15  1  0  0  0  0
 14 17  1  0  0  0  0
 15 10  1  0  0  0  0
 16 11  1  0  0  0  0
 17 15  2  0  0  0  0
 18 21  1  0  0  0  0
 18 22  1  0  0  0  0
 19 18  1  0  0  0  0
 20 24  1  0  0  0  0
 21 23  1  0  0  0  0
 22 17  1  6  0  0  0
 22 20  1  0  0  0  0
 23 20  1  0  0  0  0
 25 24  1  0  0  0  0
 25 26  1  0  0  0  0
 27 12  1  0  0  0  0
 27 28  1  0  0  0  0
 31 30  2  6  0  0  0
 31 28  1  0  0  0  0
 31 29  1  0  0  0  0
 32 34  1  0  0  0  0
 32 31  1  0  0  0  0
 33 34  2  0  0  0  0
 34 35  1  0  0  0  0
 34 36  1  0  0  0  0
 37 38  1  0  0  0  0
 39 55  1  0  0  0  0
 40 49  1  1  0  0  0
 40 39  1  0  0  0  0
 41 39  1  0  0  0  0
 42 41  1  0  0  0  0
 43 38  1  6  0  0  0
 43 42  1  0  0  0  0
 43 40  1  0  0  0  0
 44 46  1  0  0  0  0
 45 47  1  0  0  0  0
 47 46  2  0  0  0  0
 48 45  2  0  0  0  0
 48 49  1  0  0  0  0
 49 44  2  0  0  0  0
 50 51  2  0  0  0  0
 51 48  1  0  0  0  0
 52 51  1  0  0  0  0
 53 52  1  0  0  0  0
 54 53  1  0  0  0  0
 55 56  1  0  0  0  0
 56 60  1  0  0  0  0
 57 56  2  0  0  0  0
 60 59  1  0  0  0  0
 60 58  1  0  0  0  0
M  END
>  <MODEL>
2

>  <REMARK>
 VINA RESULT:      -6.6      3.444      7.063
  Name = 
  19 active torsions:
  status: ('A' for Active; 'I' for Inactive)
    1  A    between atoms: S_2  and  C_24
    2  A    between atoms: S_2  and  N_31
    3  A    between atoms: P_4  and  O_56
    4  A    between atoms: C_8  and  C_33
    5  A    between atoms: C_10  and  C_46
    6  A    between atoms: N_14  and  C_27
    7  A    between atoms: C_16  and  C_41
    8  A    between atoms: C_16  and  C_54
    9  A    between atoms: C_19  and  C_34
   10  A    between atoms: C_21  and  C_27
   11  A    between atoms: C_21  and  C_29
   12  A    between atoms: C_22  and  N_43
   13  A    between atoms: C_28  and  C_32
   14  A    between atoms: C_33  and  C_51
   15  A    between atoms: C_40  and  C_58
   16  A    between atoms: C_46  and  C_55
   17  A    between atoms: C_47  and  C_55
   18  A    between atoms: C_51  and  P_59
   19  A    between atoms: O_56  and  P_59
                            x       y       z     vdW  Elec       q    Type
                         _______ _______ _______ _____ _____    ______ ____

>  <TORSDO>
F 19

$$$$
=
 OpenBabel11062414153D

 60 64  0  0  1  0  0  0  0  0999 V2000
  190.1840  177.8740  139.7340 C   0  0  2  0  0  3  0  0  0  0  0  0
  191.0730  175.8240  138.4340 C   0  0  0  0  0  0  0  0  0  0  0  0
  191.2630  174.5790  138.4370 O   0  0  0  0  0  0  0  0  0  0  0  0
  189.3490  179.0420  141.8580 O   0  0  0  0  0  1  0  0  0  0  0  0
  190.4020  176.4440  139.5370 N   0  0  0  0  0  0  0  0  0  0  0  0
  190.0670  175.7660  140.6830 O   0  0  0  0  0  0  0  0  0  0  0  0
  189.6370  176.6660  141.6360 C   0  0  0  0  0  0  0  0  0  0  0  0
  189.6900  177.8970  141.1480 C   0  0  0  0  0  0  0  0  0  0  0  0
  189.0850  178.3650  138.8070 C   0  0  0  0  0  1  0  0  0  0  0  0
  189.2130  176.2940  143.0180 C   0  0  0  0  0  2  0  0  0  0  0  0
  185.8140  178.6920  144.1180 C   0  0  0  0  0  0  0  0  0  0  0  0
  185.9710  178.2370  142.8010 C   0  0  0  0  0  0  0  0  0  0  0  0
  187.0810  177.4550  142.4670 C   0  0  0  0  0  3  0  0  0  0  0  0
  186.7500  178.3410  145.0930 C   0  0  0  0  0  3  0  0  0  0  0  0
  188.0290  177.1090  143.4380 C   0  0  0  0  0  0  0  0  0  0  0  0
  184.7300  179.4900  144.4690 O   0  0  0  0  0  1  0  0  0  0  0  0
  187.8570  177.5490  144.7700 C   0  0  0  0  0  0  0  0  0  0  0  0
  188.1670  177.3730  147.1850 N   0  0  0  0  0  0  0  0  0  0  0  0
  187.7790  176.0620  147.6730 C   0  0  0  0  0  1  0  0  0  0  0  0
  190.0220  177.9650  145.8130 N   0  0  0  0  0  0  0  0  0  0  0  0
  189.2210  177.8500  148.0600 C   0  0  0  0  0  2  0  0  0  0  0  0
  188.7950  177.1810  145.8860 C   0  0  2  0  0  3  0  0  0  0  0  0
  190.4020  178.2150  147.1890 C   0  0  0  0  0  2  0  0  0  0  0  0
  191.2710  176.9250  145.1170 S   0  0  0  0  0  0  0  0  0  0  0  0
  191.9410  178.2600  144.0780 C   0  0  0  0  0  2  0  0  0  0  0  0
  191.0990  179.5120  144.2290 C   0  0  0  0  0  1  0  0  0  0  0  0
  184.9670  178.5770  141.7460 C   0  0  0  0  0  2  0  0  0  0  0  0
  185.5660  178.4720  140.3480 C   0  0  0  0  0  2  0  0  0  0  0  0
  184.8080  178.2860  137.7430 O   0  0  0  0  0  0  0  0  0  0  0  0
  184.1460  180.5120  138.9530 O   0  0  0  0  0  1  0  0  0  0  0  0
  184.3240  178.8340  139.0680 P   0  0  2  0  0  0  0  0  0  0  0  0
  182.8570  178.0980  139.5200 O   0  0  0  0  0  0  0  0  0  0  0  0
  182.1930  177.6910  136.8810 O   0  0  0  0  0  0  0  0  0  0  0  0
  182.4810  176.9130  138.3510 P   0  0  0  0  0  0  0  0  0  0  0  0
  183.7760  175.8410  138.1450 O   0  0  0  0  0  1  0  0  0  0  0  0
  181.2380  176.1390  138.7410 O   0  0  0  0  0  1  0  0  0  0  0  0
  191.5340  176.6290  137.2670 C   0  0  0  0  0  2  0  0  0  0  0  0
  191.2910  175.8580  135.9830 C   0  0  0  0  0  2  0  0  0  0  0  0
  194.8540  176.1290  135.9350 N   0  0  0  0  0  0  0  0  0  0  0  0
  193.6790  175.3310  136.3000 C   0  0  1  0  0  3  0  0  0  0  0  0
  194.3550  177.2380  135.2210 N   0  0  0  0  0  2  0  0  0  0  0  0
  193.0930  176.8420  134.5960 C   0  0  0  0  0  2  0  0  0  0  0  0
  192.6060  175.5870  135.2780 C   0  0  2  0  0  3  0  0  0  0  0  0
  193.4450  172.8860  135.7450 C   0  0  0  0  0  3  0  0  0  0  0  0
  195.0330  172.1160  137.9000 C   0  0  0  0  0  3  0  0  0  0  0  0
  193.7220  171.5360  135.9600 C   0  0  0  0  0  3  0  0  0  0  0  0
  194.5180  171.1500  137.0360 C   0  0  0  0  0  3  0  0  0  0  0  0
  194.7630  173.4820  137.7090 C   0  0  0  0  0  0  0  0  0  0  0  0
  193.9520  173.8720  136.6100 C   0  0  0  0  0  0  0  0  0  0  0  0
  194.6510  175.3980  139.1370 O   0  0  0  0  0  0  0  0  0  0  0  0
  195.3400  174.4450  138.6810 C   0  0  0  0  0  0  0  0  0  0  0  0
  196.6920  174.2770  139.1230 N   0  0  0  0  0  2  0  0  0  0  0  0
  197.3120  175.1500  140.1090 C   0  0  0  0  0  2  0  0  0  0  0  0
  198.8050  175.2470  139.8490 C   0  0  0  0  0  1  0  0  0  0  0  0
  195.7550  175.4100  135.0320 C   0  0  0  0  0  2  0  0  0  0  0  0
  197.1270  175.3470  135.6150 C   0  0  0  0  0  0  0  0  0  0  0  0
  197.5060  176.2230  136.3770 O   0  0  0  0  0  0  0  0  0  0  0  0
  198.9860  173.9090  136.3960 C   0  0  0  0  0  1  0  0  0  0  0  0
  197.2050  172.9590  134.9400 C   0  0  0  0  0  1  0  0  0  0  0  0
  198.0220  174.2000  135.2610 C   0  0  0  0  0  3  0  0  0  0  0  0
  1  9  1  6  0  0  0
  1  8  1  0  0  0  0
  2  3  2  0  0  0  0
  2  5  1  0  0  0  0
  5  1  1  0  0  0  0
  5  6  1  0  0  0  0
  6  7  1  0  0  0  0
  7 10  1  0  0  0  0
  8  7  2  0  0  0  0
  8  4  1  0  0  0  0
 10 15  1  0  0  0  0
 11 16  1  0  0  0  0
 11 14  1  0  0  0  0
 12 11  2  0  0  0  0
 13 12  1  0  0  0  0
 13 15  2  0  0  0  0
 15 17  1  0  0  0  0
 17 14  2  0  0  0  0
 18 19  1  0  0  0  0
 18 21  1  0  0  0  0
 20 22  1  0  0  0  0
 20 23  1  0  0  0  0
 22 17  1  6  0  0  0
 22 18  1  0  0  0  0
 23 21  1  0  0  0  0
 24 20  1  0  0  0  0
 25 26  1  0  0  0  0
 25 24  1  0  0  0  0
 27 12  1  0  0  0  0
 28 27  1  0  0  0  0
 30 31  1  0  0  0  0
 31 29  2  6  0  0  0
 31 32  1  0  0  0  0
 31 28  1  0  0  0  0
 33 34  2  0  0  0  0
 34 36  1  0  0  0  0
 34 32  1  0  0  0  0
 35 34  1  0  0  0  0
 37  2  1  0  0  0  0
 38 37  1  0  0  0  0
 39 40  1  0  0  0  0
 40 49  1  6  0  0  0
 41 39  1  0  0  0  0
 42 41  1  0  0  0  0
 42 43  1  0  0  0  0
 43 38  1  1  0  0  0
 43 40  1  0  0  0  0
 44 46  2  0  0  0  0
 44 49  1  0  0  0  0
 46 47  1  0  0  0  0
 47 45  2  0  0  0  0
 48 45  1  0  0  0  0
 48 51  1  0  0  0  0
 49 48  2  0  0  0  0
 51 52  1  0  0  0  0
 51 50  2  0  0  0  0
 52 53  1  0  0  0  0
 54 53  1  0  0  0  0
 55 56  1  0  0  0  0
 55 39  1  0  0  0  0
 56 57  2  0  0  0  0
 59 60  1  0  0  0  0
 60 56  1  0  0  0  0
 60 58  1  0  0  0  0
M  END
>  <MODEL>
3

>  <REMARK>
 VINA RESULT:      -6.5      4.316     11.784
  Name = 
  19 active torsions:
  status: ('A' for Active; 'I' for Inactive)
    1  A    between atoms: S_2  and  C_24
    2  A    between atoms: S_2  and  N_31
    3  A    between atoms: P_4  and  O_56
    4  A    between atoms: C_8  and  C_33
    5  A    between atoms: C_10  and  C_46
    6  A    between atoms: N_14  and  C_27
    7  A    between atoms: C_16  and  C_41
    8  A    between atoms: C_16  and  C_54
    9  A    between atoms: C_19  and  C_34
   10  A    between atoms: C_21  and  C_27
   11  A    between atoms: C_21  and  C_29
   12  A    between atoms: C_22  and  N_43
   13  A    between atoms: C_28  and  C_32
   14  A    between atoms: C_33  and  C_51
   15  A    between atoms: C_40  and  C_58
   16  A    between atoms: C_46  and  C_55
   17  A    between atoms: C_47  and  C_55
   18  A    between atoms: C_51  and  P_59
   19  A    between atoms: O_56  and  P_59
                            x       y       z     vdW  Elec       q    Type
                         _______ _______ _______ _____ _____    ______ ____

>  <TORSDO>
F 19

$$$$
=
 OpenBabel11062414153D

 60 64  0  0  1  0  0  0  0  0999 V2000
  186.3920  177.6650  137.6910 C   0  0  2  0  0  3  0  0  0  0  0  0
  186.3440  178.5240  140.1290 C   0  0  0  0  0  0  0  0  0  0  0  0
  186.9200  178.5420  141.2490 O   0  0  0  0  0  0  0  0  0  0  0  0
  187.2830  176.1540  135.8230 O   0  0  0  0  0  1  0  0  0  0  0  0
  186.9620  177.8570  139.0220 N   0  0  0  0  0  0  0  0  0  0  0  0
  188.1030  177.1070  139.1460 O   0  0  0  0  0  0  0  0  0  0  0  0
  188.3290  176.4220  137.9700 C   0  0  0  0  0  0  0  0  0  0  0  0
  187.3710  176.6980  137.0980 C   0  0  0  0  0  0  0  0  0  0  0  0
  186.4350  178.9690  136.9130 C   0  0  0  0  0  1  0  0  0  0  0  0
  189.4680  175.4840  137.7440 C   0  0  0  0  0  2  0  0  0  0  0  0
  193.0050  177.1340  139.5570 C   0  0  0  0  0  0  0  0  0  0  0  0
  191.7900  177.1070  140.2560 C   0  0  0  0  0  0  0  0  0  0  0  0
  190.6540  176.5610  139.6490 C   0  0  0  0  0  3  0  0  0  0  0  0
  193.0810  176.5940  138.2710 C   0  0  0  0  0  3  0  0  0  0  0  0
  190.7220  176.0280  138.3560 C   0  0  0  0  0  0  0  0  0  0  0  0
  194.1420  177.6910  140.1300 O   0  0  0  0  0  1  0  0  0  0  0  0
  191.9520  176.0350  137.6610 C   0  0  0  0  0  0  0  0  0  0  0  0
  190.8770  175.4460  135.5500 N   0  0  0  0  0  0  0  0  0  0  0  0
  190.9500  176.5390  134.5970 C   0  0  0  0  0  1  0  0  0  0  0  0
  192.6390  174.0750  136.3830 N   0  0  0  0  0  0  0  0  0  0  0  0
  190.8760  174.2180  134.7780 C   0  0  0  0  0  2  0  0  0  0  0  0
  192.1290  175.4380  136.2930 C   0  0  2  0  0  3  0  0  0  0  0  0
  192.0010  173.3530  135.3000 C   0  0  0  0  0  2  0  0  0  0  0  0
  194.3660  174.1320  136.0130 S   0  0  0  0  0  0  0  0  0  0  0  0
  194.7490  172.7430  137.1260 C   0  0  0  0  0  2  0  0  0  0  0  0
  195.4840  171.6550  136.3690 C   0  0  0  0  0  1  0  0  0  0  0  0
  191.6900  177.6540  141.6450 C   0  0  0  0  0  2  0  0  0  0  0  0
  190.2380  177.8040  142.0850 C   0  0  0  0  0  2  0  0  0  0  0  0
  191.1480  176.1600  144.0510 O   0  0  0  0  0  1  0  0  0  0  0  0
  188.5670  176.0730  143.6120 O   0  0  0  0  0  0  0  0  0  0  0  0
  189.9570  177.0300  143.7080 P   0  0  2  0  0  0  0  0  0  0  0  0
  189.7660  178.2640  144.8650 O   0  0  0  0  0  0  0  0  0  0  0  0
  187.4960  177.1660  145.9650 O   0  0  0  0  0  0  0  0  0  0  0  0
  189.1070  177.5660  146.2750 P   0  0  0  0  0  0  0  0  0  0  0  0
  189.9390  176.1520  146.6910 O   0  0  0  0  0  1  0  0  0  0  0  0
  189.1480  178.5400  147.4350 O   0  0  0  0  0  1  0  0  0  0  0  0
  185.0330  179.2170  139.9720 C   0  0  0  0  0  2  0  0  0  0  0  0
  183.9040  178.2670  140.3230 C   0  0  0  0  0  2  0  0  0  0  0  0
  181.6690  178.3780  137.5370 N   0  0  0  0  0  0  0  0  0  0  0  0
  182.0590  177.7110  138.7840 C   0  0  1  0  0  3  0  0  0  0  0  0
  182.4910  179.5190  137.4410 N   0  0  0  0  0  2  0  0  0  0  0  0
  182.8670  179.9200  138.7960 C   0  0  0  0  0  2  0  0  0  0  0  0
  182.6010  178.7560  139.7190 C   0  0  2  0  0  3  0  0  0  0  0  0
  180.2490  177.2210  140.4650 C   0  0  0  0  0  3  0  0  0  0  0  0
  179.7400  174.7100  139.3730 C   0  0  0  0  0  3  0  0  0  0  0  0
  179.2440  176.4180  141.0030 C   0  0  0  0  0  3  0  0  0  0  0  0
  178.9880  175.1620  140.4560 C   0  0  0  0  0  3  0  0  0  0  0  0
  180.7630  175.4980  138.8170 C   0  0  0  0  0  0  0  0  0  0  0  0
  181.0210  176.7780  139.3760 C   0  0  0  0  0  0  0  0  0  0  0  0
  181.0620  174.9780  136.5010 O   0  0  0  0  0  0  0  0  0  0  0  0
  181.5260  174.9370  137.6730 C   0  0  0  0  0  0  0  0  0  0  0  0
  182.8170  174.3600  137.9010 N   0  0  0  0  0  2  0  0  0  0  0  0
  183.6450  173.8340  136.8260 C   0  0  0  0  0  2  0  0  0  0  0  0
  184.6020  172.7910  137.3720 C   0  0  0  0  0  1  0  0  0  0  0  0
  180.2830  178.8500  137.5690 C   0  0  0  0  0  2  0  0  0  0  0  0
  179.9680  179.6110  136.3240 C   0  0  0  0  0  0  0  0  0  0  0  0
  180.0780  179.0700  135.2350 O   0  0  0  0  0  0  0  0  0  0  0  0
  179.4810  181.4730  137.8840 C   0  0  0  0  0  1  0  0  0  0  0  0
  180.4220  181.9510  135.6300 C   0  0  0  0  0  1  0  0  0  0  0  0
  179.5140  181.0330  136.4310 C   0  0  0  0  0  3  0  0  0  0  0  0
  1  9  1  6  0  0  0
  1  5  1  0  0  0  0
  2  3  2  0  0  0  0
  4  8  1  0  0  0  0
  5  6  1  0  0  0  0
  5  2  1  0  0  0  0
  7  6  1  0  0  0  0
  8  1  1  0  0  0  0
  8  7  2  0  0  0  0
 10  7  1  0  0  0  0
 10 15  1  0  0  0  0
 11 16  1  0  0  0  0
 11 12  1  0  0  0  0
 12 27  1  0  0  0  0
 13 12  2  0  0  0  0
 14 11  2  0  0  0  0
 15 13  1  0  0  0  0
 17 14  1  0  0  0  0
 17 15  2  0  0  0  0
 18 22  1  0  0  0  0
 19 18  1  0  0  0  0
 21 23  1  0  0  0  0
 21 18  1  0  0  0  0
 22 20  1  0  0  0  0
 22 17  1  1  0  0  0
 23 20  1  0  0  0  0
 24 20  1  0  0  0  0
 24 25  1  0  0  0  0
 26 25  1  0  0  0  0
 27 28  1  0  0  0  0
 28 31  1  0  0  0  0
 31 30  2  6  0  0  0
 31 29  1  0  0  0  0
 31 32  1  0  0  0  0
 32 34  1  0  0  0  0
 33 34  2  0  0  0  0
 34 35  1  0  0  0  0
 34 36  1  0  0  0  0
 37  2  1  0  0  0  0
 37 38  1  0  0  0  0
 39 55  1  0  0  0  0
 39 40  1  0  0  0  0
 40 49  1  1  0  0  0
 40 43  1  0  0  0  0
 41 39  1  0  0  0  0
 41 42  1  0  0  0  0
 42 43  1  0  0  0  0
 43 38  1  6  0  0  0
 44 46  1  0  0  0  0
 45 47  1  0  0  0  0
 47 46  2  0  0  0  0
 48 45  2  0  0  0  0
 48 49  1  0  0  0  0
 49 44  2  0  0  0  0
 50 51  2  0  0  0  0
 51 52  1  0  0  0  0
 51 48  1  0  0  0  0
 53 54  1  0  0  0  0
 53 52  1  0  0  0  0
 56 60  1  0  0  0  0
 56 55  1  0  0  0  0
 57 56  2  0  0  0  0
 59 60  1  0  0  0  0
 60 58  1  0  0  0  0
M  END
>  <MODEL>
4

>  <REMARK>
 VINA RESULT:      -6.1      2.191      3.998
  Name = 
  19 active torsions:
  status: ('A' for Active; 'I' for Inactive)
    1  A    between atoms: S_2  and  C_24
    2  A    between atoms: S_2  and  N_31
    3  A    between atoms: P_4  and  O_56
    4  A    between atoms: C_8  and  C_33
    5  A    between atoms: C_10  and  C_46
    6  A    between atoms: N_14  and  C_27
    7  A    between atoms: C_16  and  C_41
    8  A    between atoms: C_16  and  C_54
    9  A    between atoms: C_19  and  C_34
   10  A    between atoms: C_21  and  C_27
   11  A    between atoms: C_21  and  C_29
   12  A    between atoms: C_22  and  N_43
   13  A    between atoms: C_28  and  C_32
   14  A    between atoms: C_33  and  C_51
   15  A    between atoms: C_40  and  C_58
   16  A    between atoms: C_46  and  C_55
   17  A    between atoms: C_47  and  C_55
   18  A    between atoms: C_51  and  P_59
   19  A    between atoms: O_56  and  P_59
                            x       y       z     vdW  Elec       q    Type
                         _______ _______ _______ _____ _____    ______ ____

>  <TORSDO>
F 19

$$$$
=
 OpenBabel11062414153D

 60 64  0  0  1  0  0  0  0  0999 V2000
  188.8680  176.8370  138.3410 C   0  0  2  0  0  3  0  0  0  0  0  0
  186.4500  177.2710  137.5390 C   0  0  0  0  0  0  0  0  0  0  0  0
  185.3680  177.8840  137.7430 O   0  0  0  0  0  0  0  0  0  0  0  0
  190.7590  176.9770  140.0660 O   0  0  0  0  0  1  0  0  0  0  0  0
  187.5790  177.5220  138.3820 N   0  0  0  0  0  0  0  0  0  0  0  0
  187.5120  178.3070  139.5060 O   0  0  0  0  0  0  0  0  0  0  0  0
  188.6860  178.1840  140.2190 C   0  0  0  0  0  0  0  0  0  0  0  0
  189.5020  177.3440  139.6000 C   0  0  0  0  0  0  0  0  0  0  0  0
  189.6730  177.3130  137.1440 C   0  0  0  0  0  1  0  0  0  0  0  0
  188.9640  178.8740  141.5140 C   0  0  0  0  0  2  0  0  0  0  0  0
  185.9300  177.8930  144.4030 C   0  0  0  0  0  0  0  0  0  0  0  0
  185.5790  178.2770  143.1010 C   0  0  0  0  0  0  0  0  0  0  0  0
  186.5820  178.5860  142.1760 C   0  0  0  0  0  3  0  0  0  0  0  0
  187.2760  177.7970  144.7630 C   0  0  0  0  0  3  0  0  0  0  0  0
  187.9340  178.5030  142.5350 C   0  0  0  0  0  0  0  0  0  0  0  0
  184.9500  177.6030  145.3460 O   0  0  0  0  0  1  0  0  0  0  0  0
  188.2860  178.0930  143.8410 C   0  0  0  0  0  0  0  0  0  0  0  0
  190.6440  178.2880  143.2400 N   0  0  0  0  0  0  0  0  0  0  0  0
  191.1640  179.6050  143.5620 C   0  0  0  0  0  1  0  0  0  0  0  0
  189.9580  176.5530  144.7220 N   0  0  0  0  0  0  0  0  0  0  0  0
  191.7510  177.3590  143.3660 C   0  0  0  0  0  2  0  0  0  0  0  0
  189.7090  177.9240  144.2950 C   0  0  2  0  0  3  0  0  0  0  0  0
  191.3190  176.2640  144.3140 C   0  0  0  0  0  2  0  0  0  0  0  0
  189.9390  176.5390  146.4890 S   0  0  0  0  0  0  0  0  0  0  0  0
  191.7480  176.7010  146.6070 C   0  0  0  0  0  2  0  0  0  0  0  0
  192.3020  175.6800  147.5810 C   0  0  0  0  0  1  0  0  0  0  0  0
  184.1450  178.3610  142.6840 C   0  0  0  0  0  2  0  0  0  0  0  0
  184.0100  178.5940  141.1840 C   0  0  0  0  0  2  0  0  0  0  0  0
  181.5260  179.3750  141.9690 O   0  0  0  0  0  1  0  0  0  0  0  0
  181.5940  177.5790  140.0640 O   0  0  0  0  0  0  0  0  0  0  0  0
  182.2890  178.9710  140.7260 P   0  0  2  0  0  0  0  0  0  0  0  0
  182.3010  180.2410  139.5930 O   0  0  0  0  0  0  0  0  0  0  0  0
  180.6540  182.1410  138.4770 O   0  0  0  0  0  1  0  0  0  0  0  0
  180.6820  180.6220  139.2120 P   0  0  0  0  0  0  0  0  0  0  0  0
  180.0390  179.4920  138.1280 O   0  0  0  0  0  0  0  0  0  0  0  0
  179.8260  180.6730  140.4610 O   0  0  0  0  0  1  0  0  0  0  0  0
  186.5380  176.3070  136.4050 C   0  0  0  0  0  2  0  0  0  0  0  0
  186.1120  174.9260  136.8700 C   0  0  0  0  0  2  0  0  0  0  0  0
  183.2430  172.8880  136.2490 N   0  0  0  0  0  0  0  0  0  0  0  0
  183.7750  174.2320  136.5040 C   0  0  1  0  0  3  0  0  0  0  0  0
  184.3700  172.0510  136.1160 N   0  0  0  0  0  2  0  0  0  0  0  0
  185.4860  172.8680  135.6410 C   0  0  0  0  0  2  0  0  0  0  0  0
  185.1390  174.3170  135.8790 C   0  0  2  0  0  3  0  0  0  0  0  0
  183.0450  176.1210  135.0080 C   0  0  0  0  0  3  0  0  0  0  0  0
  180.8390  176.7020  136.6060 C   0  0  0  0  0  3  0  0  0  0  0  0
  182.1710  177.1450  134.6440 C   0  0  0  0  0  3  0  0  0  0  0  0
  181.0660  177.4340  135.4410 C   0  0  0  0  0  3  0  0  0  0  0  0
  181.7090  175.6700  136.9980 C   0  0  0  0  0  0  0  0  0  0  0  0
  182.8340  175.3770  136.1820 C   0  0  0  0  0  0  0  0  0  0  0  0
  182.3030  174.7210  139.1120 O   0  0  0  0  0  0  0  0  0  0  0  0
  181.4030  174.9460  138.2580 C   0  0  0  0  0  0  0  0  0  0  0  0
  180.0620  174.5160  138.5160 N   0  0  0  0  0  2  0  0  0  0  0  0
  179.6740  173.8440  139.7480 C   0  0  0  0  0  2  0  0  0  0  0  0
  179.4780  174.8640  140.8550 C   0  0  0  0  0  1  0  0  0  0  0  0
  182.5030  172.8140  134.9880 C   0  0  0  0  0  2  0  0  0  0  0  0
  181.6450  171.5920  134.9640 C   0  0  0  0  0  0  0  0  0  0  0  0
  182.1580  170.4860  135.0410 O   0  0  0  0  0  0  0  0  0  0  0  0
  179.4560  170.7070  135.7110 C   0  0  0  0  0  1  0  0  0  0  0  0
  179.7280  173.1400  135.2650 C   0  0  0  0  0  1  0  0  0  0  0  0
  180.1610  171.7420  134.8540 C   0  0  0  0  0  3  0  0  0  0  0  0
  1  9  1  6  0  0  0
  1  5  1  0  0  0  0
  1  8  1  0  0  0  0
  2  3  2  0  0  0  0
  2  5  1  0  0  0  0
  5  6  1  0  0  0  0
  6  7  1  0  0  0  0
  7 10  1  0  0  0  0
  8  4  1  0  0  0  0
  8  7  2  0  0  0  0
 10 15  1  0  0  0  0
 11 14  1  0  0  0  0
 11 16  1  0  0  0  0
 12 11  2  0  0  0  0
 13 15  2  0  0  0  0
 13 12  1  0  0  0  0
 15 17  1  0  0  0  0
 17 14  2  0  0  0  0
 18 21  1  0  0  0  0
 18 19  1  0  0  0  0
 18 22  1  0  0  0  0
 20 24  1  0  0  0  0
 21 23  1  0  0  0  0
 22 17  1  6  0  0  0
 22 20  1  0  0  0  0
 23 20  1  0  0  0  0
 24 25  1  0  0  0  0
 25 26  1  0  0  0  0
 27 12  1  0  0  0  0
 28 27  1  0  0  0  0
 31 30  2  6  0  0  0
 31 28  1  0  0  0  0
 31 29  1  0  0  0  0
 32 31  1  0  0  0  0
 33 34  1  0  0  0  0
 34 32  1  0  0  0  0
 34 36  1  0  0  0  0
 35 34  2  0  0  0  0
 37 38  1  0  0  0  0
 37  2  1  0  0  0  0
 39 40  1  0  0  0  0
 40 49  1  6  0  0  0
 41 39  1  0  0  0  0
 42 43  1  0  0  0  0
 42 41  1  0  0  0  0
 43 40  1  0  0  0  0
 43 38  1  1  0  0  0
 44 49  1  0  0  0  0
 45 48  1  0  0  0  0
 46 44  2  0  0  0  0
 46 47  1  0  0  0  0
 47 45  2  0  0  0  0
 48 51  1  0  0  0  0
 49 48  2  0  0  0  0
 51 52  1  0  0  0  0
 51 50  2  0  0  0  0
 52 53  1  0  0  0  0
 53 54  1  0  0  0  0
 55 39  1  0  0  0  0
 56 55  1  0  0  0  0
 56 57  2  0  0  0  0
 60 56  1  0  0  0  0
 60 59  1  0  0  0  0
 60 58  1  0  0  0  0
M  END
>  <MODEL>
5

>  <REMARK>
 VINA RESULT:      -6.0      4.100      7.425
  Name = 
  19 active torsions:
  status: ('A' for Active; 'I' for Inactive)
    1  A    between atoms: S_2  and  C_24
    2  A    between atoms: S_2  and  N_31
    3  A    between atoms: P_4  and  O_56
    4  A    between atoms: C_8  and  C_33
    5  A    between atoms: C_10  and  C_46
    6  A    between atoms: N_14  and  C_27
    7  A    between atoms: C_16  and  C_41
    8  A    between atoms: C_16  and  C_54
    9  A    between atoms: C_19  and  C_34
   10  A    between atoms: C_21  and  C_27
   11  A    between atoms: C_21  and  C_29
   12  A    between atoms: C_22  and  N_43
   13  A    between atoms: C_28  and  C_32
   14  A    between atoms: C_33  and  C_51
   15  A    between atoms: C_40  and  C_58
   16  A    between atoms: C_46  and  C_55
   17  A    between atoms: C_47  and  C_55
   18  A    between atoms: C_51  and  P_59
   19  A    between atoms: O_56  and  P_59
                            x       y       z     vdW  Elec       q    Type
                         _______ _______ _______ _____ _____    ______ ____

>  <TORSDO>
F 19

$$$$
=
 OpenBabel11062414153D

 60 64  0  0  1  0  0  0  0  0999 V2000
  183.9620  179.2370  144.0940 C   0  0  2  0  0  3  0  0  0  0  0  0
  183.4510  178.2430  141.7640 C   0  0  0  0  0  0  0  0  0  0  0  0
  183.7300  177.3550  140.9150 O   0  0  0  0  0  0  0  0  0  0  0  0
  185.3890  179.4730  146.2100 O   0  0  0  0  0  1  0  0  0  0  0  0
  184.1010  178.2360  143.0400 N   0  0  0  0  0  0  0  0  0  0  0  0
  185.1290  177.3820  143.3490 O   0  0  0  0  0  0  0  0  0  0  0  0
  185.6870  177.7570  144.5540 C   0  0  0  0  0  0  0  0  0  0  0  0
  185.0600  178.8240  145.0260 C   0  0  0  0  0  0  0  0  0  0  0  0
  182.6210  179.0760  144.7910 C   0  0  0  0  0  1  0  0  0  0  0  0
  186.8470  177.0730  145.1970 C   0  0  0  0  0  2  0  0  0  0  0  0
  190.4820  178.1640  143.1680 C   0  0  0  0  0  0  0  0  0  0  0  0
  189.2590  178.1470  142.4830 C   0  0  0  0  0  0  0  0  0  0  0  0
  188.0890  177.7940  143.1640 C   0  0  0  0  0  3  0  0  0  0  0  0
  190.5220  177.8540  144.5300 C   0  0  0  0  0  3  0  0  0  0  0  0
  188.1250  177.4710  144.5260 C   0  0  0  0  0  0  0  0  0  0  0  0
  191.6620  178.4890  142.5080 O   0  0  0  0  0  1  0  0  0  0  0  0
  189.3550  177.5110  145.2210 C   0  0  0  0  0  0  0  0  0  0  0  0
  188.7200  178.1970  147.4760 N   0  0  0  0  0  0  0  0  0  0  0  0
  187.4990  177.5380  147.9040 C   0  0  0  0  0  1  0  0  0  0  0  0
  190.8760  177.2510  147.1100 N   0  0  0  0  0  0  0  0  0  0  0  0
  189.5090  178.4330  148.6700 C   0  0  0  0  0  2  0  0  0  0  0  0
  189.4790  177.2320  146.6930 C   0  0  2  0  0  3  0  0  0  0  0  0
  190.8730  177.8230  148.4410 C   0  0  0  0  0  2  0  0  0  0  0  0
  191.3990  175.5700  147.2760 S   0  0  0  0  0  0  0  0  0  0  0  0
  192.1720  175.5470  145.6280 C   0  0  0  0  0  2  0  0  0  0  0  0
  192.4010  174.1170  145.1790 C   0  0  0  0  0  1  0  0  0  0  0  0
  189.1860  178.5020  141.0320 C   0  0  0  0  0  2  0  0  0  0  0  0
  188.9640  177.2690  140.1640 C   0  0  0  0  0  2  0  0  0  0  0  0
  190.7740  175.4260  139.3130 O   0  0  0  0  0  0  0  0  0  0  0  0
  191.7240  177.8310  139.7290 O   0  0  0  0  0  1  0  0  0  0  0  0
  190.4360  176.8930  139.1610 P   0  0  2  0  0  0  0  0  0  0  0  0
  190.0870  177.2610  137.5360 O   0  0  0  0  0  0  0  0  0  0  0  0
  189.1580  174.9670  136.3360 O   0  0  0  0  0  1  0  0  0  0  0  0
  190.5310  175.9160  136.5850 P   0  0  0  0  0  0  0  0  0  0  0  0
  191.1180  176.4150  135.0770 O   0  0  0  0  0  0  0  0  0  0  0  0
  191.5790  175.0760  137.2850 O   0  0  0  0  0  1  0  0  0  0  0  0
  182.4300  179.2750  141.4280 C   0  0  0  0  0  2  0  0  0  0  0  0
  181.0390  178.6780  141.5390 C   0  0  0  0  0  2  0  0  0  0  0  0
  180.5900  180.9100  138.7850 N   0  0  0  0  0  0  0  0  0  0  0  0
  180.9320  179.5570  139.2380 C   0  0  1  0  0  3  0  0  0  0  0  0
  180.1900  181.6100  139.9410 N   0  0  0  0  0  2  0  0  0  0  0  0
  179.6640  180.6370  140.8980 C   0  0  0  0  0  2  0  0  0  0  0  0
  180.1300  179.2660  140.4760 C   0  0  2  0  0  3  0  0  0  0  0  0
  179.6550  177.9520  137.7760 C   0  0  0  0  0  3  0  0  0  0  0  0
  181.9670  177.1010  136.4760 C   0  0  0  0  0  3  0  0  0  0  0  0
  179.5720  177.0050  136.7560 C   0  0  0  0  0  3  0  0  0  0  0  0
  180.7280  176.5810  136.1040 C   0  0  0  0  0  3  0  0  0  0  0  0
  182.0770  178.0510  137.5060 C   0  0  0  0  0  0  0  0  0  0  0  0
  180.8970  178.4830  138.1680 C   0  0  0  0  0  0  0  0  0  0  0  0
  183.5990  179.6820  138.3710 O   0  0  0  0  0  0  0  0  0  0  0  0
  183.4340  178.5450  137.8510 C   0  0  0  0  0  0  0  0  0  0  0  0
  184.5720  177.7100  137.6070 N   0  0  0  0  0  2  0  0  0  0  0  0
  185.9280  178.1040  137.9600 C   0  0  0  0  0  2  0  0  0  0  0  0
  186.9180  177.4820  136.9920 C   0  0  0  0  0  1  0  0  0  0  0  0
  179.4500  180.9160  137.8650 C   0  0  0  0  0  2  0  0  0  0  0  0
  179.4390  182.1770  137.0670 C   0  0  0  0  0  0  0  0  0  0  0  0
  179.0240  183.2110  137.5670 O   0  0  0  0  0  0  0  0  0  0  0  0
  181.1640  183.0510  135.5190 C   0  0  0  0  0  1  0  0  0  0  0  0
  180.2890  180.7400  135.2300 C   0  0  0  0  0  1  0  0  0  0  0  0
  179.9460  182.1570  135.6590 C   0  0  0  0  0  3  0  0  0  0  0  0
  1  9  1  1  0  0  0
  1  8  1  0  0  0  0
  2  5  1  0  0  0  0
  3  2  2  0  0  0  0
  5  6  1  0  0  0  0
  5  1  1  0  0  0  0
  6  7  1  0  0  0  0
  7  8  2  0  0  0  0
  7 10  1  0  0  0  0
  8  4  1  0  0  0  0
 11 14  1  0  0  0  0
 12 13  1  0  0  0  0
 12 11  2  0  0  0  0
 13 15  2  0  0  0  0
 14 17  2  0  0  0  0
 15 10  1  0  0  0  0
 15 17  1  0  0  0  0
 16 11  1  0  0  0  0
 18 19  1  0  0  0  0
 18 21  1  0  0  0  0
 20 24  1  0  0  0  0
 20 23  1  0  0  0  0
 22 17  1  6  0  0  0
 22 20  1  0  0  0  0
 22 18  1  0  0  0  0
 23 21  1  0  0  0  0
 25 24  1  0  0  0  0
 26 25  1  0  0  0  0
 27 12  1  0  0  0  0
 28 27  1  0  0  0  0
 31 29  2  1  0  0  0
 31 30  1  0  0  0  0
 31 28  1  0  0  0  0
 32 31  1  0  0  0  0
 33 34  1  0  0  0  0
 34 36  1  0  0  0  0
 34 32  1  0  0  0  0
 35 34  2  0  0  0  0
 37 38  1  0  0  0  0
 37  2  1  0  0  0  0
 39 40  1  0  0  0  0
 39 41  1  0  0  0  0
 40 49  1  6  0  0  0
 40 43  1  0  0  0  0
 41 42  1  0  0  0  0
 43 42  1  0  0  0  0
 43 38  1  1  0  0  0
 44 49  1  0  0  0  0
 45 48  1  0  0  0  0
 46 44  2  0  0  0  0
 47 45  2  0  0  0  0
 47 46  1  0  0  0  0
 48 51  1  0  0  0  0
 48 49  2  0  0  0  0
 51 50  2  0  0  0  0
 52 51  1  0  0  0  0
 52 53  1  0  0  0  0
 54 53  1  0  0  0  0
 55 39  1  0  0  0  0
 56 57  2  0  0  0  0
 56 55  1  0  0  0  0
 58 60  1  0  0  0  0
 59 60  1  0  0  0  0
 60 56  1  0  0  0  0
M  END
>  <MODEL>
6

>  <REMARK>
 VINA RESULT:      -5.7      4.135      7.757
  Name = 
  19 active torsions:
  status: ('A' for Active; 'I' for Inactive)
    1  A    between atoms: S_2  and  C_24
    2  A    between atoms: S_2  and  N_31
    3  A    between atoms: P_4  and  O_56
    4  A    between atoms: C_8  and  C_33
    5  A    between atoms: C_10  and  C_46
    6  A    between atoms: N_14  and  C_27
    7  A    between atoms: C_16  and  C_41
    8  A    between atoms: C_16  and  C_54
    9  A    between atoms: C_19  and  C_34
   10  A    between atoms: C_21  and  C_27
   11  A    between atoms: C_21  and  C_29
   12  A    between atoms: C_22  and  N_43
   13  A    between atoms: C_28  and  C_32
   14  A    between atoms: C_33  and  C_51
   15  A    between atoms: C_40  and  C_58
   16  A    between atoms: C_46  and  C_55
   17  A    between atoms: C_47  and  C_55
   18  A    between atoms: C_51  and  P_59
   19  A    between atoms: O_56  and  P_59
                            x       y       z     vdW  Elec       q    Type
                         _______ _______ _______ _____ _____    ______ ____

>  <TORSDO>
F 19

$$$$
=
 OpenBabel11062414153D

 60 64  0  0  1  0  0  0  0  0999 V2000
  185.6770  177.9790  137.5290 C   0  0  2  0  0  3  0  0  0  0  0  0
  184.4850  177.9290  139.8220 C   0  0  0  0  0  0  0  0  0  0  0  0
  183.5360  177.4590  140.5040 O   0  0  0  0  0  0  0  0  0  0  0  0
  185.8150  177.4800  135.0190 O   0  0  0  0  0  1  0  0  0  0  0  0
  184.6890  177.4750  138.4790 N   0  0  0  0  0  0  0  0  0  0  0  0
  183.8120  176.6430  137.8310 O   0  0  0  0  0  0  0  0  0  0  0  0
  184.1590  176.5610  136.4990 C   0  0  0  0  0  0  0  0  0  0  0  0
  185.2220  177.3170  136.2650 C   0  0  0  0  0  0  0  0  0  0  0  0
  187.0600  177.4680  137.8970 C   0  0  0  0  0  1  0  0  0  0  0  0
  183.4150  175.7650  135.4790 C   0  0  0  0  0  2  0  0  0  0  0  0
  184.6030  171.6330  135.6410 C   0  0  0  0  0  0  0  0  0  0  0  0
  185.5610  172.6470  135.4990 C   0  0  0  0  0  0  0  0  0  0  0  0
  185.1520  173.9840  135.4540 C   0  0  0  0  0  3  0  0  0  0  0  0
  183.2510  171.9630  135.7630 C   0  0  0  0  0  3  0  0  0  0  0  0
  183.7980  174.3200  135.5630 C   0  0  0  0  0  0  0  0  0  0  0  0
  184.9830  170.2950  135.6670 O   0  0  0  0  0  1  0  0  0  0  0  0
  182.8350  173.2990  135.7300 C   0  0  0  0  0  0  0  0  0  0  0  0
  180.6340  173.3330  134.6750 N   0  0  0  0  0  0  0  0  0  0  0  0
  179.9610  172.0540  134.8140 C   0  0  0  0  0  1  0  0  0  0  0  0
  181.1450  174.9400  136.3580 N   0  0  0  0  0  0  0  0  0  0  0  0
  179.5980  174.3480  134.6380 C   0  0  0  0  0  2  0  0  0  0  0  0
  181.3680  173.5710  135.9090 C   0  0  2  0  0  3  0  0  0  0  0  0
  179.9170  175.3620  135.7130 C   0  0  0  0  0  2  0  0  0  0  0  0
  180.8160  174.8790  138.0940 S   0  0  0  0  0  0  0  0  0  0  0  0
  180.2610  176.6120  138.1480 C   0  0  0  0  0  2  0  0  0  0  0  0
  178.9370  176.7140  138.8800 C   0  0  0  0  0  1  0  0  0  0  0  0
  187.0170  172.3190  135.3950 C   0  0  0  0  0  2  0  0  0  0  0  0
  187.7760  172.7340  136.6510 C   0  0  0  0  0  2  0  0  0  0  0  0
  188.5450  174.9810  135.3240 O   0  0  0  0  0  0  0  0  0  0  0  0
  190.3570  173.0980  135.5000 O   0  0  0  0  0  1  0  0  0  0  0  0
  189.0950  173.9260  136.2610 P   0  0  2  0  0  0  0  0  0  0  0  0
  189.6230  174.6360  137.7150 O   0  0  0  0  0  0  0  0  0  0  0  0
  191.3120  176.5910  138.6620 O   0  0  0  0  0  1  0  0  0  0  0  0
  191.0430  175.5220  137.3830 P   0  0  0  0  0  0  0  0  0  0  0  0
  192.3790  174.4900  137.2580 O   0  0  0  0  0  1  0  0  0  0  0  0
  190.8980  176.3230  136.1060 O   0  0  0  0  0  0  0  0  0  0  0  0
  185.3950  178.9360  140.4380 C   0  0  0  0  0  2  0  0  0  0  0  0
  185.4440  178.7330  141.9410 C   0  0  0  0  0  2  0  0  0  0  0  0
  188.8700  178.4470  142.9170 N   0  0  0  0  0  0  0  0  0  0  0  0
  187.4690  178.5530  143.3380 C   0  0  1  0  0  3  0  0  0  0  0  0
  188.8390  178.3300  141.5120 N   0  0  0  0  0  2  0  0  0  0  0  0
  187.5610  177.7260  141.1380 C   0  0  0  0  0  2  0  0  0  0  0  0
  186.6220  177.8520  142.3120 C   0  0  2  0  0  3  0  0  0  0  0  0
  188.1770  177.4870  145.5060 C   0  0  0  0  0  3  0  0  0  0  0  0
  185.8290  178.2540  146.7950 C   0  0  0  0  0  3  0  0  0  0  0  0
  187.9870  177.1760  146.8520 C   0  0  0  0  0  3  0  0  0  0  0  0
  186.8140  177.5610  147.4980 C   0  0  0  0  0  3  0  0  0  0  0  0
  185.9940  178.5730  145.4360 C   0  0  0  0  0  0  0  0  0  0  0  0
  187.1920  178.1800  144.7810 C   0  0  0  0  0  0  0  0  0  0  0  0
  185.0760  180.4500  144.2700 O   0  0  0  0  0  0  0  0  0  0  0  0
  184.8920  179.3010  144.7560 C   0  0  0  0  0  0  0  0  0  0  0  0
  183.6070  178.6800  144.6340 N   0  0  0  0  0  2  0  0  0  0  0  0
  182.4920  179.3090  143.9410 C   0  0  0  0  0  2  0  0  0  0  0  0
  181.3890  178.2940  143.7060 C   0  0  0  0  0  1  0  0  0  0  0  0
  189.5150  177.2380  143.4330 C   0  0  0  0  0  2  0  0  0  0  0  0
  190.9800  177.2740  143.1490 C   0  0  0  0  0  0  0  0  0  0  0  0
  191.4050  176.8550  142.0830 O   0  0  0  0  0  0  0  0  0  0  0  0
  191.7470  179.3370  144.2840 C   0  0  0  0  0  1  0  0  0  0  0  0
  191.6700  177.1850  145.5320 C   0  0  0  0  0  1  0  0  0  0  0  0
  191.9120  177.8320  144.1780 C   0  0  0  0  0  3  0  0  0  0  0  0
  1  9  1  1  0  0  0
  1  5  1  0  0  0  0
  2 37  1  0  0  0  0
  2  3  2  0  0  0  0
  4  8  1  0  0  0  0
  5  2  1  0  0  0  0
  6  5  1  0  0  0  0
  7  6  1  0  0  0  0
  8  7  2  0  0  0  0
  8  1  1  0  0  0  0
 10 15  1  0  0  0  0
 10  7  1  0  0  0  0
 11 16  1  0  0  0  0
 11 14  1  0  0  0  0
 12 11  2  0  0  0  0
 13 12  1  0  0  0  0
 13 15  2  0  0  0  0
 15 17  1  0  0  0  0
 17 14  2  0  0  0  0
 18 19  1  0  0  0  0
 18 22  1  0  0  0  0
 20 24  1  0  0  0  0
 21 18  1  0  0  0  0
 21 23  1  0  0  0  0
 22 17  1  6  0  0  0
 22 20  1  0  0  0  0
 23 20  1  0  0  0  0
 24 25  1  0  0  0  0
 25 26  1  0  0  0  0
 27 12  1  0  0  0  0
 27 28  1  0  0  0  0
 30 31  1  0  0  0  0
 31 29  2  6  0  0  0
 31 28  1  0  0  0  0
 31 32  1  0  0  0  0
 34 32  1  0  0  0  0
 34 33  1  0  0  0  0
 35 34  1  0  0  0  0
 36 34  2  0  0  0  0
 37 38  1  0  0  0  0
 39 40  1  0  0  0  0
 39 55  1  0  0  0  0
 40 49  1  1  0  0  0
 41 39  1  0  0  0  0
 42 41  1  0  0  0  0
 42 43  1  0  0  0  0
 43 38  1  6  0  0  0
 43 40  1  0  0  0  0
 44 46  1  0  0  0  0
 45 47  1  0  0  0  0
 46 47  2  0  0  0  0
 48 45  2  0  0  0  0
 49 48  1  0  0  0  0
 49 44  2  0  0  0  0
 50 51  2  0  0  0  0
 51 48  1  0  0  0  0
 52 51  1  0  0  0  0
 53 52  1  0  0  0  0
 54 53  1  0  0  0  0
 56 55  1  0  0  0  0
 56 60  1  0  0  0  0
 57 56  2  0  0  0  0
 60 58  1  0  0  0  0
 60 59  1  0  0  0  0
M  END
>  <MODEL>
7

>  <REMARK>
 VINA RESULT:      -5.4      4.324      9.071
  Name = 
  19 active torsions:
  status: ('A' for Active; 'I' for Inactive)
    1  A    between atoms: S_2  and  C_24
    2  A    between atoms: S_2  and  N_31
    3  A    between atoms: P_4  and  O_56
    4  A    between atoms: C_8  and  C_33
    5  A    between atoms: C_10  and  C_46
    6  A    between atoms: N_14  and  C_27
    7  A    between atoms: C_16  and  C_41
    8  A    between atoms: C_16  and  C_54
    9  A    between atoms: C_19  and  C_34
   10  A    between atoms: C_21  and  C_27
   11  A    between atoms: C_21  and  C_29
   12  A    between atoms: C_22  and  N_43
   13  A    between atoms: C_28  and  C_32
   14  A    between atoms: C_33  and  C_51
   15  A    between atoms: C_40  and  C_58
   16  A    between atoms: C_46  and  C_55
   17  A    between atoms: C_47  and  C_55
   18  A    between atoms: C_51  and  P_59
   19  A    between atoms: O_56  and  P_59
                            x       y       z     vdW  Elec       q    Type
                         _______ _______ _______ _____ _____    ______ ____

>  <TORSDO>
F 19

$$$$
=
 OpenBabel11062414153D

 60 64  0  0  1  0  0  0  0  0999 V2000
  184.4280  179.2470  143.2870 C   0  0  2  0  0  3  0  0  0  0  0  0
  184.4300  178.5490  140.7980 C   0  0  0  0  0  0  0  0  0  0  0  0
  184.8980  177.7710  139.9240 O   0  0  0  0  0  0  0  0  0  0  0  0
  185.3830  179.2160  145.6650 O   0  0  0  0  0  1  0  0  0  0  0  0
  184.8030  178.3830  142.1710 N   0  0  0  0  0  0  0  0  0  0  0  0
  185.7640  177.4940  142.5810 O   0  0  0  0  0  0  0  0  0  0  0  0
  186.0530  177.7150  143.9110 C   0  0  0  0  0  0  0  0  0  0  0  0
  185.3180  178.7190  144.3690 C   0  0  0  0  0  0  0  0  0  0  0  0
  182.9760  179.0060  143.6650 C   0  0  0  0  0  1  0  0  0  0  0  0
  187.0700  176.9530  144.6930 C   0  0  0  0  0  2  0  0  0  0  0  0
  190.9670  177.5290  142.9610 C   0  0  0  0  0  0  0  0  0  0  0  0
  189.8160  177.5710  142.1610 C   0  0  0  0  0  0  0  0  0  0  0  0
  188.5590  177.3870  142.7460 C   0  0  0  0  0  3  0  0  0  0  0  0
  190.8510  177.3290  144.3380 C   0  0  0  0  0  3  0  0  0  0  0  0
  188.4380  177.1740  144.1250 C   0  0  0  0  0  0  0  0  0  0  0  0
  192.2290  177.6880  142.3980 O   0  0  0  0  0  1  0  0  0  0  0  0
  189.5970  177.1550  144.9330 C   0  0  0  0  0  0  0  0  0  0  0  0
  188.6890  177.9790  147.0440 N   0  0  0  0  0  0  0  0  0  0  0  0
  187.4440  177.3120  147.3800 C   0  0  0  0  0  1  0  0  0  0  0  0
  190.8960  177.0820  146.9970 N   0  0  0  0  0  0  0  0  0  0  0  0
  189.3280  178.3270  148.2980 C   0  0  0  0  0  2  0  0  0  0  0  0
  189.5570  176.9870  146.4270 C   0  0  2  0  0  3  0  0  0  0  0  0
  190.7250  177.7490  148.2720 C   0  0  0  0  0  2  0  0  0  0  0  0
  191.4380  175.4370  147.3470 S   0  0  0  0  0  0  0  0  0  0  0  0
  192.9650  176.0090  148.1550 C   0  0  0  0  0  2  0  0  0  0  0  0
  193.1800  175.2600  149.4560 C   0  0  0  0  0  1  0  0  0  0  0  0
  189.9120  177.8120  140.6880 C   0  0  0  0  0  2  0  0  0  0  0  0
  188.5340  177.8920  140.0420 C   0  0  0  0  0  2  0  0  0  0  0  0
  190.0740  177.5080  137.8330 O   0  0  0  0  0  1  0  0  0  0  0  0
  188.2500  179.3760  137.6250 O   0  0  0  0  0  0  0  0  0  0  0  0
  188.6520  177.8470  138.2260 P   0  0  2  0  0  0  0  0  0  0  0  0
  187.5740  176.6640  137.6470 O   0  0  0  0  0  0  0  0  0  0  0  0
  186.6160  176.3450  135.0870 O   0  0  0  0  0  0  0  0  0  0  0  0
  188.0100  176.2960  136.0390 P   0  0  0  0  0  0  0  0  0  0  0  0
  189.1080  177.4360  135.4390 O   0  0  0  0  0  1  0  0  0  0  0  0
  188.6120  174.9100  135.9420 O   0  0  0  0  0  1  0  0  0  0  0  0
  183.4780  179.6190  140.3850 C   0  0  0  0  0  2  0  0  0  0  0  0
  183.3760  179.6600  138.8710 C   0  0  0  0  0  2  0  0  0  0  0  0
  181.1770  176.8520  138.6560 N   0  0  0  0  0  0  0  0  0  0  0  0
  181.5970  178.0390  139.4080 C   0  0  1  0  0  3  0  0  0  0  0  0
  181.9150  176.8800  137.4550 N   0  0  0  0  0  2  0  0  0  0  0  0
  182.2420  178.2740  137.1590 C   0  0  0  0  0  2  0  0  0  0  0  0
  182.0500  179.0780  138.4200 C   0  0  2  0  0  3  0  0  0  0  0  0
  180.5420  177.8250  141.6840 C   0  0  0  0  0  3  0  0  0  0  0  0
  179.0070  180.1220  141.3270 C   0  0  0  0  0  3  0  0  0  0  0  0
  179.7020  178.2680  142.7060 C   0  0  0  0  0  3  0  0  0  0  0  0
  178.9350  179.4180  142.5280 C   0  0  0  0  0  3  0  0  0  0  0  0
  179.8410  179.6920  140.2800 C   0  0  0  0  0  0  0  0  0  0  0  0
  180.6220  178.5200  140.4650 C   0  0  0  0  0  0  0  0  0  0  0  0
  179.2960  180.0620  137.9800 O   0  0  0  0  0  0  0  0  0  0  0  0
  179.8500  180.4920  139.0290 C   0  0  0  0  0  0  0  0  0  0  0  0
  180.4790  181.7780  139.0180 N   0  0  0  0  0  2  0  0  0  0  0  0
  180.4880  182.6400  137.8450 C   0  0  0  0  0  2  0  0  0  0  0  0
  181.8690  183.2390  137.6520 C   0  0  0  0  0  1  0  0  0  0  0  0
  179.7600  176.9000  138.2880 C   0  0  0  0  0  2  0  0  0  0  0  0
  179.4030  175.7150  137.4540 C   0  0  0  0  0  0  0  0  0  0  0  0
  179.4940  175.7770  136.2380 O   0  0  0  0  0  0  0  0  0  0  0  0
  179.1290  173.2660  137.2050 C   0  0  0  0  0  1  0  0  0  0  0  0
  179.6950  174.2360  139.4260 C   0  0  0  0  0  1  0  0  0  0  0  0
  178.9420  174.4590  138.1250 C   0  0  0  0  0  3  0  0  0  0  0  0
  1  9  1  1  0  0  0
  1  8  1  0  0  0  0
  2  5  1  0  0  0  0
  3  2  2  0  0  0  0
  5  6  1  0  0  0  0
  5  1  1  0  0  0  0
  6  7  1  0  0  0  0
  7  8  2  0  0  0  0
  7 10  1  0  0  0  0
  8  4  1  0  0  0  0
 11 14  1  0  0  0  0
 12 13  1  0  0  0  0
 12 11  2  0  0  0  0
 13 15  2  0  0  0  0
 14 17  2  0  0  0  0
 15 10  1  0  0  0  0
 15 17  1  0  0  0  0
 16 11  1  0  0  0  0
 18 19  1  0  0  0  0
 18 21  1  0  0  0  0
 20 24  1  0  0  0  0
 20 23  1  0  0  0  0
 22 17  1  6  0  0  0
 22 20  1  0  0  0  0
 22 18  1  0  0  0  0
 23 21  1  0  0  0  0
 24 25  1  0  0  0  0
 25 26  1  0  0  0  0
 27 12  1  0  0  0  0
 28 27  1  0  0  0  0
 29 31  1  0  0  0  0
 31 30  2  6  0  0  0
 31 28  1  0  0  0  0
 32 31  1  0  0  0  0
 33 34  2  0  0  0  0
 34 32  1  0  0  0  0
 35 34  1  0  0  0  0
 36 34  1  0  0  0  0
 37  2  1  0  0  0  0
 38 37  1  0  0  0  0
 39 40  1  0  0  0  0
 40 49  1  6  0  0  0
 41 39  1  0  0  0  0
 42 41  1  0  0  0  0
 42 43  1  0  0  0  0
 43 38  1  1  0  0  0
 43 40  1  0  0  0  0
 44 46  1  0  0  0  0
 45 47  1  0  0  0  0
 47 46  2  0  0  0  0
 48 49  1  0  0  0  0
 48 45  2  0  0  0  0
 49 44  2  0  0  0  0
 50 51  2  0  0  0  0
 51 48  1  0  0  0  0
 52 51  1  0  0  0  0
 53 52  1  0  0  0  0
 54 53  1  0  0  0  0
 55 39  1  0  0  0  0
 56 60  1  0  0  0  0
 56 55  1  0  0  0  0
 57 56  2  0  0  0  0
 58 60  1  0  0  0  0
 60 59  1  0  0  0  0
M  END
>  <MODEL>
8

>  <REMARK>
 VINA RESULT:      -5.3      4.304      7.106
  Name = 
  19 active torsions:
  status: ('A' for Active; 'I' for Inactive)
    1  A    between atoms: S_2  and  C_24
    2  A    between atoms: S_2  and  N_31
    3  A    between atoms: P_4  and  O_56
    4  A    between atoms: C_8  and  C_33
    5  A    between atoms: C_10  and  C_46
    6  A    between atoms: N_14  and  C_27
    7  A    between atoms: C_16  and  C_41
    8  A    between atoms: C_16  and  C_54
    9  A    between atoms: C_19  and  C_34
   10  A    between atoms: C_21  and  C_27
   11  A    between atoms: C_21  and  C_29
   12  A    between atoms: C_22  and  N_43
   13  A    between atoms: C_28  and  C_32
   14  A    between atoms: C_33  and  C_51
   15  A    between atoms: C_40  and  C_58
   16  A    between atoms: C_46  and  C_55
   17  A    between atoms: C_47  and  C_55
   18  A    between atoms: C_51  and  P_59
   19  A    between atoms: O_56  and  P_59
                            x       y       z     vdW  Elec       q    Type
                         _______ _______ _______ _____ _____    ______ ____

>  <TORSDO>
F 19

$$$$
=
 OpenBabel11062414153D

 60 64  0  0  1  0  0  0  0  0999 V2000
  190.8760  177.0610  140.8900 C   0  0  2  0  0  3  0  0  0  0  0  0
  188.5560  177.2050  139.7580 C   0  0  0  0  0  0  0  0  0  0  0  0
  187.9070  177.1500  138.6800 O   0  0  0  0  0  0  0  0  0  0  0  0
  193.4370  177.0010  140.8410 O   0  0  0  0  0  1  0  0  0  0  0  0
  189.9650  176.9500  139.7540 N   0  0  0  0  0  0  0  0  0  0  0  0
  190.6890  176.7790  138.6010 O   0  0  0  0  0  0  0  0  0  0  0  0
  192.0340  176.7700  138.9030 C   0  0  0  0  0  0  0  0  0  0  0  0
  192.2030  176.9360  140.2070 C   0  0  0  0  0  0  0  0  0  0  0  0
  190.6790  175.8840  141.8300 C   0  0  0  0  0  1  0  0  0  0  0  0
  193.1260  176.6310  137.8950 C   0  0  0  0  0  2  0  0  0  0  0  0
  192.3160  173.1890  135.4420 C   0  0  0  0  0  0  0  0  0  0  0  0
  191.2780  174.0460  135.8360 C   0  0  0  0  0  0  0  0  0  0  0  0
  191.5660  175.1620  136.6290 C   0  0  0  0  0  3  0  0  0  0  0  0
  193.6310  173.4670  135.8210 C   0  0  0  0  0  3  0  0  0  0  0  0
  192.8810  175.4390  137.0220 C   0  0  0  0  0  0  0  0  0  0  0  0
  192.0520  172.0610  134.6720 O   0  0  0  0  0  1  0  0  0  0  0  0
  193.9290  174.5870  136.6050 C   0  0  0  0  0  0  0  0  0  0  0  0
  196.2000  174.8000  135.7360 N   0  0  0  0  0  0  0  0  0  0  0  0
  196.5020  176.1740  135.3790 C   0  0  0  0  0  1  0  0  0  0  0  0
  195.8630  173.8620  137.9010 N   0  0  0  0  0  0  0  0  0  0  0  0
  197.4500  174.1900  136.1470 C   0  0  0  0  0  2  0  0  0  0  0  0
  195.3740  174.8380  136.9340 C   0  0  2  0  0  3  0  0  0  0  0  0
  197.2390  173.6040  137.5250 C   0  0  0  0  0  2  0  0  0  0  0  0
  195.9040  174.6570  139.4790 S   0  0  0  0  0  0  0  0  0  0  0  0
  197.6980  174.9510  139.3930 C   0  0  0  0  0  2  0  0  0  0  0  0
  198.1200  175.9260  140.4740 C   0  0  0  0  0  1  0  0  0  0  0  0
  189.8660  173.7850  135.4190 C   0  0  0  0  0  2  0  0  0  0  0  0
  188.8810  174.1190  136.5340 C   0  0  0  0  0  2  0  0  0  0  0  0
  186.9000  174.0720  134.6720 O   0  0  0  0  0  0  0  0  0  0  0  0
  187.7150  176.4550  135.3910 O   0  0  0  0  0  1  0  0  0  0  0  0
  187.3630  174.8720  135.8700 P   0  0  2  0  0  0  0  0  0  0  0  0
  186.1780  174.8570  137.0930 O   0  0  0  0  0  0  0  0  0  0  0  0
  184.3350  173.9010  135.2880 O   0  0  0  0  0  0  0  0  0  0  0  0
  185.0950  173.5810  136.7600 P   0  0  0  0  0  0  0  0  0  0  0  0
  185.9230  172.1100  136.6270 O   0  0  0  0  0  1  0  0  0  0  0  0
  184.0360  173.4710  137.8380 O   0  0  0  0  0  1  0  0  0  0  0  0
  187.8370  177.5140  141.0270 C   0  0  0  0  0  2  0  0  0  0  0  0
  187.5400  179.0010  141.0990 C   0  0  0  0  0  2  0  0  0  0  0  0
  184.2380  177.6490  141.3040 N   0  0  0  0  0  0  0  0  0  0  0  0
  185.4220  178.1360  142.0200 C   0  0  1  0  0  3  0  0  0  0  0  0
  184.4890  177.8970  139.9390 N   0  0  0  0  0  2  0  0  0  0  0  0
  185.4010  179.0370  139.8480 C   0  0  0  0  0  2  0  0  0  0  0  0
  186.0440  179.2310  141.1990 C   0  0  2  0  0  3  0  0  0  0  0  0
  184.0560  179.1640  143.8690 C   0  0  0  0  0  3  0  0  0  0  0  0
  185.8200  178.2770  145.8350 C   0  0  0  0  0  3  0  0  0  0  0  0
  183.7930  179.4300  145.2130 C   0  0  0  0  0  3  0  0  0  0  0  0
  184.6730  178.9840  146.1970 C   0  0  0  0  0  3  0  0  0  0  0  0
  186.1100  178.0030  144.4870 C   0  0  0  0  0  0  0  0  0  0  0  0
  185.2100  178.4570  143.4870 C   0  0  0  0  0  0  0  0  0  0  0  0
  187.3180  176.1230  143.6320 O   0  0  0  0  0  0  0  0  0  0  0  0
  187.3580  177.2560  144.1860 C   0  0  0  0  0  0  0  0  0  0  0  0
  188.6250  177.8390  144.5100 N   0  0  0  0  0  2  0  0  0  0  0  0
  189.8920  177.1900  144.2030 C   0  0  0  0  0  2  0  0  0  0  0  0
  190.9770  177.7090  145.1280 C   0  0  0  0  0  1  0  0  0  0  0  0
  183.0280  178.3940  141.6590 C   0  0  0  0  0  2  0  0  0  0  0  0
  181.8390  177.7980  140.9820 C   0  0  0  0  0  0  0  0  0  0  0  0
  181.9560  176.7670  140.3390 O   0  0  0  0  0  0  0  0  0  0  0  0
  179.3840  177.4660  140.9670 C   0  0  0  0  0  1  0  0  0  0  0  0
  180.3970  179.1960  142.4420 C   0  0  0  0  0  1  0  0  0  0  0  0
  180.5100  178.4750  141.1090 C   0  0  0  0  0  3  0  0  0  0  0  0
  1  9  1  1  0  0  0
  2 37  1  0  0  0  0
  3  2  2  0  0  0  0
  5  2  1  0  0  0  0
  5  1  1  0  0  0  0
  6  7  1  0  0  0  0
  6  5  1  0  0  0  0
  7  8  2  0  0  0  0
  8  4  1  0  0  0  0
  8  1  1  0  0  0  0
 10  7  1  0  0  0  0
 11 14  2  0  0  0  0
 11 12  1  0  0  0  0
 12 13  2  0  0  0  0
 13 15  1  0  0  0  0
 14 17  1  0  0  0  0
 15 10  1  0  0  0  0
 16 11  1  0  0  0  0
 17 15  2  0  0  0  0
 18 21  1  0  0  0  0
 18 22  1  0  0  0  0
 19 18  1  0  0  0  0
 20 24  1  0  0  0  0
 21 23  1  0  0  0  0
 22 17  1  6  0  0  0
 22 20  1  0  0  0  0
 23 20  1  0  0  0  0
 25 24  1  0  0  0  0
 25 26  1  0  0  0  0
 27 12  1  0  0  0  0
 27 28  1  0  0  0  0
 30 31  1  0  0  0  0
 31 29  2  6  0  0  0
 31 28  1  0  0  0  0
 31 32  1  0  0  0  0
 33 34  2  0  0  0  0
 34 32  1  0  0  0  0
 34 36  1  0  0  0  0
 35 34  1  0  0  0  0
 37 38  1  0  0  0  0
 39 55  1  0  0  0  0
 39 40  1  0  0  0  0
 40 49  1  1  0  0  0
 41 39  1  0  0  0  0
 42 41  1  0  0  0  0
 42 43  1  0  0  0  0
 43 38  1  6  0  0  0
 43 40  1  0  0  0  0
 44 46  1  0  0  0  0
 45 47  1  0  0  0  0
 46 47  2  0  0  0  0
 48 45  2  0  0  0  0
 49 44  2  0  0  0  0
 49 48  1  0  0  0  0
 50 51  2  0  0  0  0
 51 48  1  0  0  0  0
 51 52  1  0  0  0  0
 53 52  1  0  0  0  0
 53 54  1  0  0  0  0
 56 60  1  0  0  0  0
 56 55  1  0  0  0  0
 57 56  2  0  0  0  0
 58 60  1  0  0  0  0
 60 59  1  0  0  0  0
M  END
>  <MODEL>
9

>  <REMARK>
 VINA RESULT:      -5.3      2.865      5.762
  Name = 
  19 active torsions:
  status: ('A' for Active; 'I' for Inactive)
    1  A    between atoms: S_2  and  C_24
    2  A    between atoms: S_2  and  N_31
    3  A    between atoms: P_4  and  O_56
    4  A    between atoms: C_8  and  C_33
    5  A    between atoms: C_10  and  C_46
    6  A    between atoms: N_14  and  C_27
    7  A    between atoms: C_16  and  C_41
    8  A    between atoms: C_16  and  C_54
    9  A    between atoms: C_19  and  C_34
   10  A    between atoms: C_21  and  C_27
   11  A    between atoms: C_21  and  C_29
   12  A    between atoms: C_22  and  N_43
   13  A    between atoms: C_28  and  C_32
   14  A    between atoms: C_33  and  C_51
   15  A    between atoms: C_40  and  C_58
   16  A    between atoms: C_46  and  C_55
   17  A    between atoms: C_47  and  C_55
   18  A    between atoms: C_51  and  P_59
   19  A    between atoms: O_56  and  P_59
                            x       y       z     vdW  Elec       q    Type
                         _______ _______ _______ _____ _____    ______ ____

>  <TORSDO>
F 19

$$$$
