=
 OpenBabel11062414453D

 27 30  0  0  1  0  0  0  0  0999 V2000
  183.4620  178.2710  143.7120 C   0  0  0  0  0  2  0  0  0  0  0  0
  180.7450  179.4400  143.1400 N   0  0  0  0  0  0  0  0  0  0  0  0
  181.6750  178.4860  139.7150 N   0  0  0  0  0  0  0  0  0  0  0  0
  179.8280  180.3160  142.8610 C   0  0  0  0  0  3  0  0  0  0  0  0
  182.7110  177.4830  139.9050 C   0  0  0  0  0  2  0  0  0  0  0  0
  183.0740  179.0530  142.4590 C   0  0  1  0  0  3  0  0  0  0  0  0
  179.5470  180.6960  141.4710 C   0  0  0  0  0  3  0  0  0  0  0  0
  183.9460  178.1450  140.2960 N   0  0  0  0  0  0  0  0  0  0  0  0
  184.1240  178.8630  141.3720 C   0  0  0  0  0  0  0  0  0  0  0  0
  181.1790  179.1310  140.7220 C   0  0  0  0  0  0  0  0  0  0  0  0
  181.5930  178.7810  142.1370 C   0  0  2  0  0  3  0  0  0  0  0  0
  180.1810  180.1310  140.4920 N   0  0  0  0  0  0  0  0  0  0  0  0
  186.5900  178.7870  141.5340 C   0  0  0  0  0  1  0  0  0  0  0  0
  185.3570  179.4900  141.5790 O   0  0  0  0  0  0  0  0  0  0  0  0
  183.7490  179.1990  144.8840 C   0  0  0  0  0  2  0  0  0  0  0  0
  185.2410  179.4680  145.0000 C   0  0  0  0  0  2  0  0  0  0  0  0
  185.7810  178.8920  146.2980 C   0  0  0  0  0  2  0  0  0  0  0  0
  189.7500  176.7460  147.3120 N   0  0  0  0  0  2  0  0  0  0  0  0
  187.4950  177.9030  144.9360 O   0  0  0  0  0  0  0  0  0  0  0  0
  188.8510  177.6770  146.7770 N   0  0  2  0  0  0  0  0  0  0  0  0
  186.6430  177.6660  146.0320 C   0  0  1  0  0  3  0  0  0  0  0  0
  187.5200  177.3880  147.2410 C   0  0  0  0  0  2  0  0  0  0  0  0
  188.7240  177.3960  145.3690 C   0  0  2  0  0  3  0  0  0  0  0  0
  189.9090  178.0050  144.6560 C   0  0  0  0  0  2  0  0  0  0  0  0
  191.3990  176.9990  145.0200 S   0  0  0  0  0  0  0  0  0  0  0  0
  191.0710  176.6370  146.7680 C   0  0  0  0  0  0  0  0  0  0  0  0
  192.2330  175.9010  147.6460 S   0  0  0  0  0  0  0  0  0  0  0  0
  1 15  1  0  0  0  0
  3  5  1  0  0  0  0
  3 10  2  0  0  0  0
  4  2  2  0  0  0  0
  5  8  1  0  0  0  0
  6  1  1  1  0  0  0
  7  4  1  0  0  0  0
  8  9  2  0  0  0  0
  9 14  1  0  0  0  0
  9  6  1  0  0  0  0
 11 10  1  6  0  0  0
 11  6  1  0  0  0  0
 11  2  1  0  0  0  0
 12 10  1  0  0  0  0
 12  7  2  0  0  0  0
 13 14  1  0  0  0  0
 15 16  1  0  0  0  0
 16 17  1  0  0  0  0
 19 23  1  0  0  0  0
 19 21  1  0  0  0  0
 20 22  1  1  0  0  0
 20 18  1  0  0  0  0
 21 17  1  1  0  0  0
 21 22  1  0  0  0  0
 23 24  1  6  0  0  0
 23 20  1  0  0  0  0
 24 25  1  0  0  0  0
 25 26  1  0  0  0  0
 26 18  1  0  0  0  0
 26 27  2  0  0  0  0
M  END
>  <MODEL>
1

>  <REMARK>
 VINA RESULT:      -7.8      0.000      0.000
  Name = 
  6 active torsions:
  status: ('A' for Active; 'I' for Inactive)
    1  A    between atoms: C_3  and  C_8
    2  A    between atoms: C_3  and  C_13
    3  A    between atoms: C_13  and  C_14
    4  A    between atoms: C_14  and  C_19
    5  A    between atoms: C_16  and  C_19
    6  A    between atoms: C_21  and  O_27
                            x       y       z     vdW  Elec       q    Type
                         _______ _______ _______ _____ _____    ______ ____

>  <TORSDO>
F 6

$$$$
=
 OpenBabel11062414453D

 27 30  0  0  1  0  0  0  0  0999 V2000
  187.5110  176.7780  145.8410 C   0  0  0  0  0  2  0  0  0  0  0  0
  189.1920  177.2610  143.3890 N   0  0  0  0  0  0  0  0  0  0  0  0
  191.8930  176.8840  145.8520 N   0  0  0  0  0  0  0  0  0  0  0  0
  189.8510  177.8960  142.4660 C   0  0  0  0  0  3  0  0  0  0  0  0
  191.2630  176.1650  146.9480 C   0  0  0  0  0  2  0  0  0  0  0  0
  188.8320  177.5420  145.8030 C   0  0  1  0  0  3  0  0  0  0  0  0
  191.2410  178.3140  142.6860 C   0  0  0  0  0  3  0  0  0  0  0  0
  190.4110  177.0830  147.6890 N   0  0  0  0  0  0  0  0  0  0  0  0
  189.3780  177.7240  147.2140 C   0  0  0  0  0  0  0  0  0  0  0  0
  191.2020  177.2890  144.8350 C   0  0  0  0  0  0  0  0  0  0  0  0
  189.7340  176.9320  144.7140 C   0  0  2  0  0  3  0  0  0  0  0  0
  191.8530  178.0180  143.7900 N   0  0  0  0  0  0  0  0  0  0  0  0
  187.8210  178.2000  149.0740 C   0  0  0  0  0  1  0  0  0  0  0  0
  188.6940  178.6240  148.0360 O   0  0  0  0  0  0  0  0  0  0  0  0
  186.4350  177.4780  145.0240 C   0  0  0  0  0  2  0  0  0  0  0  0
  185.9280  178.7120  145.7540 C   0  0  0  0  0  2  0  0  0  0  0  0
  184.4200  178.8280  145.6070 C   0  0  0  0  0  2  0  0  0  0  0  0
  182.7370  178.4150  141.3190 N   0  0  0  0  0  2  0  0  0  0  0  0
  185.1700  179.6420  143.4750 O   0  0  0  0  0  0  0  0  0  0  0  0
  183.6150  178.3300  142.4080 N   0  0  2  0  0  0  0  0  0  0  0  0
  184.0530  179.5710  144.3300 C   0  0  1  0  0  3  0  0  0  0  0  0
  182.9610  178.8140  143.5950 C   0  0  0  0  0  2  0  0  0  0  0  0
  184.6340  179.3320  142.2210 C   0  0  2  0  0  3  0  0  0  0  0  0
  185.6560  178.7910  141.2490 C   0  0  0  0  0  2  0  0  0  0  0  0
  184.9300  178.7970  139.5640 S   0  0  0  0  0  0  0  0  0  0  0  0
  183.2430  178.2800  139.9850 C   0  0  0  0  0  0  0  0  0  0  0  0
  182.2050  177.9350  138.7740 S   0  0  0  0  0  0  0  0  0  0  0  0
  3  5  1  0  0  0  0
  4  7  1  0  0  0  0
  4  2  2  0  0  0  0
  5  8  1  0  0  0  0
  6  1  1  1  0  0  0
  6  9  1  0  0  0  0
  7 12  2  0  0  0  0
  9  8  2  0  0  0  0
  9 14  1  0  0  0  0
 10  3  2  0  0  0  0
 11  2  1  6  0  0  0
 11 10  1  0  0  0  0
 11  6  1  0  0  0  0
 12 10  1  0  0  0  0
 14 13  1  0  0  0  0
 15 16  1  0  0  0  0
 15  1  1  0  0  0  0
 17 16  1  0  0  0  0
 18 20  1  0  0  0  0
 19 21  1  0  0  0  0
 20 22  1  1  0  0  0
 21 17  1  1  0  0  0
 22 21  1  0  0  0  0
 23 24  1  6  0  0  0
 23 20  1  0  0  0  0
 23 19  1  0  0  0  0
 25 26  1  0  0  0  0
 25 24  1  0  0  0  0
 26 18  1  0  0  0  0
 27 26  2  0  0  0  0
M  END
>  <MODEL>
2

>  <REMARK>
 VINA RESULT:      -7.3      3.331      8.443
  Name = 
  6 active torsions:
  status: ('A' for Active; 'I' for Inactive)
    1  A    between atoms: C_3  and  C_8
    2  A    between atoms: C_3  and  C_13
    3  A    between atoms: C_13  and  C_14
    4  A    between atoms: C_14  and  C_19
    5  A    between atoms: C_16  and  C_19
    6  A    between atoms: C_21  and  O_27
                            x       y       z     vdW  Elec       q    Type
                         _______ _______ _______ _____ _____    ______ ____

>  <TORSDO>
F 6

$$$$
=
 OpenBabel11062414453D

 27 30  0  0  1  0  0  0  0  0999 V2000
  183.9650  179.1610  142.8950 C   0  0  0  0  0  2  0  0  0  0  0  0
  186.6680  178.8180  141.6130 N   0  0  0  0  0  0  0  0  0  0  0  0
  184.6920  179.4650  138.5830 N   0  0  0  0  0  0  0  0  0  0  0  0
  187.6940  178.2400  141.0630 C   0  0  0  0  0  3  0  0  0  0  0  0
  183.5000  180.1300  139.0840 C   0  0  0  0  0  2  0  0  0  0  0  0
  184.2310  178.5230  141.5340 C   0  0  1  0  0  3  0  0  0  0  0  0
  187.7150  177.9550  139.6220 C   0  0  0  0  0  3  0  0  0  0  0  0
  182.6330  179.1420  139.7100 N   0  0  0  0  0  0  0  0  0  0  0  0
  182.9330  178.4040  140.7440 C   0  0  0  0  0  0  0  0  0  0  0  0
  185.5810  178.9890  139.3950 C   0  0  0  0  0  0  0  0  0  0  0  0
  185.4510  179.2060  140.8890 C   0  0  2  0  0  3  0  0  0  0  0  0
  186.7270  178.3160  138.8640 N   0  0  0  0  0  0  0  0  0  0  0  0
  181.1540  176.7440  140.3110 C   0  0  0  0  0  1  0  0  0  0  0  0
  182.0150  177.4500  141.1920 O   0  0  0  0  0  0  0  0  0  0  0  0
  184.1920  178.1730  144.0310 C   0  0  0  0  0  2  0  0  0  0  0  0
  184.2450  178.8980  145.3670 C   0  0  0  0  0  2  0  0  0  0  0  0
  185.6880  179.1290  145.7830 C   0  0  0  0  0  2  0  0  0  0  0  0
  189.5410  176.9400  147.1070 N   0  0  0  0  0  2  0  0  0  0  0  0
  187.3760  177.9200  144.5730 O   0  0  0  0  0  0  0  0  0  0  0  0
  188.6930  177.8440  146.4540 N   0  0  2  0  0  0  0  0  0  0  0  0
  186.4990  177.8450  145.6720 C   0  0  1  0  0  3  0  0  0  0  0  0
  187.3430  177.6660  146.9210 C   0  0  0  0  0  2  0  0  0  0  0  0
  188.5750  177.4120  145.0840 C   0  0  2  0  0  3  0  0  0  0  0  0
  189.7960  177.8860  144.3310 C   0  0  0  0  0  2  0  0  0  0  0  0
  191.2330  176.8630  144.8350 S   0  0  0  0  0  0  0  0  0  0  0  0
  190.8640  176.7140  146.6050 C   0  0  0  0  0  0  0  0  0  0  0  0
  191.9780  176.0310  147.5820 S   0  0  0  0  0  0  0  0  0  0  0  0
  1 15  1  0  0  0  0
  3  5  1  0  0  0  0
  3 10  2  0  0  0  0
  4  2  2  0  0  0  0
  5  8  1  0  0  0  0
  6  1  1  1  0  0  0
  7  4  1  0  0  0  0
  8  9  2  0  0  0  0
  9 14  1  0  0  0  0
  9  6  1  0  0  0  0
 11 10  1  6  0  0  0
 11  6  1  0  0  0  0
 11  2  1  0  0  0  0
 12 10  1  0  0  0  0
 12  7  2  0  0  0  0
 13 14  1  0  0  0  0
 15 16  1  0  0  0  0
 16 17  1  0  0  0  0
 19 23  1  0  0  0  0
 19 21  1  0  0  0  0
 20 22  1  1  0  0  0
 20 18  1  0  0  0  0
 21 17  1  1  0  0  0
 21 22  1  0  0  0  0
 23 24  1  6  0  0  0
 23 20  1  0  0  0  0
 24 25  1  0  0  0  0
 25 26  1  0  0  0  0
 26 18  1  0  0  0  0
 26 27  2  0  0  0  0
M  END
>  <MODEL>
3

>  <REMARK>
 VINA RESULT:      -7.2      1.863      3.632
  Name = 
  6 active torsions:
  status: ('A' for Active; 'I' for Inactive)
    1  A    between atoms: C_3  and  C_8
    2  A    between atoms: C_3  and  C_13
    3  A    between atoms: C_13  and  C_14
    4  A    between atoms: C_14  and  C_19
    5  A    between atoms: C_16  and  C_19
    6  A    between atoms: C_21  and  O_27
                            x       y       z     vdW  Elec       q    Type
                         _______ _______ _______ _____ _____    ______ ____

>  <TORSDO>
F 6

$$$$
=
 OpenBabel11062414453D

 27 30  0  0  1  0  0  0  0  0999 V2000
  191.1880  177.6760  144.8890 C   0  0  0  0  0  2  0  0  0  0  0  0
  188.3120  177.9050  144.0240 N   0  0  0  0  0  0  0  0  0  0  0  0
  187.8190  178.1200  147.6600 N   0  0  0  0  0  0  0  0  0  0  0  0
  187.1090  177.5540  143.6800 C   0  0  0  0  0  3  0  0  0  0  0  0
  189.1230  178.5210  148.1620 C   0  0  0  0  0  2  0  0  0  0  0  0
  189.9840  177.1060  145.6360 C   0  0  1  0  0  3  0  0  0  0  0  0
  186.0850  177.2790  144.6960 C   0  0  0  0  0  3  0  0  0  0  0  0
  190.0190  177.3740  148.1240 N   0  0  0  0  0  0  0  0  0  0  0  0
  190.3790  176.7170  147.0560 C   0  0  0  0  0  0  0  0  0  0  0  0
  187.6430  177.8420  146.4070 C   0  0  0  0  0  0  0  0  0  0  0  0
  188.7720  178.0290  145.4130 C   0  0  2  0  0  3  0  0  0  0  0  0
  186.3510  177.4230  145.9560 N   0  0  0  0  0  0  0  0  0  0  0  0
  192.5190  175.6660  147.7080 C   0  0  0  0  0  1  0  0  0  0  0  0
  191.1990  175.5920  147.1890 O   0  0  0  0  0  0  0  0  0  0  0  0
  191.6450  176.7470  143.7740 C   0  0  0  0  0  2  0  0  0  0  0  0
  191.5350  177.4390  142.4240 C   0  0  0  0  0  2  0  0  0  0  0  0
  190.5400  176.7090  141.5380 C   0  0  0  0  0  2  0  0  0  0  0  0
  188.2630  177.6880  137.6340 N   0  0  0  0  0  2  0  0  0  0  0  0
  190.8490  176.0290  139.2540 O   0  0  0  0  0  0  0  0  0  0  0  0
  188.8250  176.9550  138.6870 N   0  0  2  0  0  0  0  0  0  0  0  0
  190.6770  177.1510  140.0880 C   0  0  1  0  0  3  0  0  0  0  0  0
  189.4050  177.8560  139.6480 C   0  0  0  0  0  2  0  0  0  0  0  0
  190.0000  176.2960  138.1760 C   0  0  2  0  0  3  0  0  0  0  0  0
  189.5620  175.0540  137.4350 C   0  0  0  0  0  2  0  0  0  0  0  0
  188.7950  175.5540  135.8460 S   0  0  0  0  0  0  0  0  0  0  0  0
  187.8970  177.0220  136.4190 C   0  0  0  0  0  0  0  0  0  0  0  0
  186.8610  177.7550  135.3930 S   0  0  0  0  0  0  0  0  0  0  0  0
  3  5  1  0  0  0  0
  4  2  2  0  0  0  0
  4  7  1  0  0  0  0
  6  1  1  1  0  0  0
  6  9  1  0  0  0  0
  7 12  2  0  0  0  0
  8  5  1  0  0  0  0
  9 14  1  0  0  0  0
  9  8  2  0  0  0  0
 10  3  2  0  0  0  0
 11  2  1  6  0  0  0
 11  6  1  0  0  0  0
 11 10  1  0  0  0  0
 12 10  1  0  0  0  0
 14 13  1  0  0  0  0
 15  1  1  0  0  0  0
 16 15  1  0  0  0  0
 17 16  1  0  0  0  0
 18 20  1  0  0  0  0
 19 21  1  0  0  0  0
 20 22  1  1  0  0  0
 21 17  1  1  0  0  0
 22 21  1  0  0  0  0
 23 24  1  1  0  0  0
 23 20  1  0  0  0  0
 23 19  1  0  0  0  0
 25 26  1  0  0  0  0
 25 24  1  0  0  0  0
 26 18  1  0  0  0  0
 27 26  2  0  0  0  0
M  END
>  <MODEL>
4

>  <REMARK>
 VINA RESULT:      -7.1      5.467      8.766
  Name = 
  6 active torsions:
  status: ('A' for Active; 'I' for Inactive)
    1  A    between atoms: C_3  and  C_8
    2  A    between atoms: C_3  and  C_13
    3  A    between atoms: C_13  and  C_14
    4  A    between atoms: C_14  and  C_19
    5  A    between atoms: C_16  and  C_19
    6  A    between atoms: C_21  and  O_27
                            x       y       z     vdW  Elec       q    Type
                         _______ _______ _______ _____ _____    ______ ____

>  <TORSDO>
F 6

$$$$
=
 OpenBabel11062414453D

 27 30  0  0  1  0  0  0  0  0999 V2000
  189.2680  176.7510  147.0440 C   0  0  0  0  0  2  0  0  0  0  0  0
  189.3790  177.5590  144.1440 N   0  0  0  0  0  0  0  0  0  0  0  0
  192.2860  175.3110  144.2090 N   0  0  0  0  0  0  0  0  0  0  0  0
  189.6750  178.2380  143.0770 C   0  0  0  0  0  3  0  0  0  0  0  0
  192.0550  174.4820  145.3810 C   0  0  0  0  0  2  0  0  0  0  0  0
  190.5400  176.9550  146.2230 C   0  0  1  0  0  3  0  0  0  0  0  0
  190.9460  178.0200  142.3740 C   0  0  0  0  0  3  0  0  0  0  0  0
  192.3460  175.2590  146.5760 N   0  0  0  0  0  0  0  0  0  0  0  0
  191.7370  176.3520  146.9480 C   0  0  0  0  0  0  0  0  0  0  0  0
  191.5020  176.3030  143.9290 C   0  0  0  0  0  0  0  0  0  0  0  0
  190.2620  176.5610  144.7610 C   0  0  2  0  0  3  0  0  0  0  0  0
  191.7790  177.1140  142.7820 N   0  0  0  0  0  0  0  0  0  0  0  0
  193.0610  176.4320  149.0340 C   0  0  0  0  0  1  0  0  0  0  0  0
  192.1750  177.0230  148.0940 O   0  0  0  0  0  0  0  0  0  0  0  0
  188.8790  178.0150  147.7970 C   0  0  0  0  0  2  0  0  0  0  0  0
  187.3660  178.1580  147.8550 C   0  0  0  0  0  2  0  0  0  0  0  0
  186.7390  177.6370  146.5730 C   0  0  0  0  0  2  0  0  0  0  0  0
  182.8620  178.9730  144.4340 N   0  0  0  0  0  2  0  0  0  0  0  0
  186.3190  178.6320  144.4270 O   0  0  0  0  0  0  0  0  0  0  0  0
  184.0620  178.2990  144.6950 N   0  0  2  0  0  0  0  0  0  0  0  0
  186.0580  178.7610  145.8040 C   0  0  1  0  0  3  0  0  0  0  0  0
  184.5540  178.6710  145.9950 C   0  0  0  0  0  2  0  0  0  0  0  0
  185.0730  178.8690  143.8400 C   0  0  2  0  0  3  0  0  0  0  0  0
  184.9310  178.2570  142.4660 C   0  0  0  0  0  2  0  0  0  0  0  0
  183.4390  178.9560  141.6590 S   0  0  0  0  0  0  0  0  0  0  0  0
  182.3390  179.0050  143.1010 C   0  0  0  0  0  0  0  0  0  0  0  0
  180.7680  179.3850  142.8730 S   0  0  0  0  0  0  0  0  0  0  0  0
  1 15  1  0  0  0  0
  2 11  1  0  0  0  0
  3  5  1  0  0  0  0
  4  2  2  0  0  0  0
  5  8  1  0  0  0  0
  6  9  1  0  0  0  0
  6  1  1  1  0  0  0
  7 12  2  0  0  0  0
  7  4  1  0  0  0  0
  8  9  2  0  0  0  0
  9 14  1  0  0  0  0
 10  3  2  0  0  0  0
 11 10  1  6  0  0  0
 11  6  1  0  0  0  0
 12 10  1  0  0  0  0
 14 13  1  0  0  0  0
 15 16  1  0  0  0  0
 17 16  1  0  0  0  0
 18 20  1  0  0  0  0
 19 21  1  0  0  0  0
 20 22  1  1  0  0  0
 21 22  1  0  0  0  0
 21 17  1  1  0  0  0
 23 24  1  6  0  0  0
 23 19  1  0  0  0  0
 23 20  1  0  0  0  0
 25 24  1  0  0  0  0
 25 26  1  0  0  0  0
 26 18  1  0  0  0  0
 27 26  2  0  0  0  0
M  END
>  <MODEL>
5

>  <REMARK>
 VINA RESULT:      -7.1      3.684      8.664
  Name = 
  6 active torsions:
  status: ('A' for Active; 'I' for Inactive)
    1  A    between atoms: C_3  and  C_8
    2  A    between atoms: C_3  and  C_13
    3  A    between atoms: C_13  and  C_14
    4  A    between atoms: C_14  and  C_19
    5  A    between atoms: C_16  and  C_19
    6  A    between atoms: C_21  and  O_27
                            x       y       z     vdW  Elec       q    Type
                         _______ _______ _______ _____ _____    ______ ____

>  <TORSDO>
F 6

$$$$
=
 OpenBabel11062414453D

 27 30  0  0  1  0  0  0  0  0999 V2000
  187.0020  176.5620  143.5450 C   0  0  0  0  0  2  0  0  0  0  0  0
  187.2890  177.3550  146.4360 N   0  0  0  0  0  0  0  0  0  0  0  0
  184.1140  179.0540  145.7040 N   0  0  0  0  0  0  0  0  0  0  0  0
  187.6410  178.0340  147.4870 C   0  0  0  0  0  3  0  0  0  0  0  0
  183.6140  178.3600  144.5280 C   0  0  0  0  0  2  0  0  0  0  0  0
  186.5740  177.8970  144.1490 C   0  0  1  0  0  3  0  0  0  0  0  0
  186.8460  179.1810  147.9430 C   0  0  0  0  0  3  0  0  0  0  0  0
  184.3730  178.7920  143.3640 N   0  0  0  0  0  0  0  0  0  0  0  0
  185.6570  178.6430  143.1870 C   0  0  0  0  0  0  0  0  0  0  0  0
  185.2840  178.7870  146.1890 C   0  0  0  0  0  0  0  0  0  0  0  0
  186.1210  177.6670  145.6030 C   0  0  2  0  0  3  0  0  0  0  0  0
  185.7530  179.5120  147.3310 N   0  0  0  0  0  0  0  0  0  0  0  0
  185.7670  178.9040  140.7320 C   0  0  0  0  0  1  0  0  0  0  0  0
  186.2550  179.1700  142.0390 O   0  0  0  0  0  0  0  0  0  0  0  0
  188.5180  176.4380  143.4780 C   0  0  0  0  0  2  0  0  0  0  0  0
  189.0730  177.2780  142.3390 C   0  0  0  0  0  2  0  0  0  0  0  0
  190.2280  176.5550  141.6660 C   0  0  0  0  0  2  0  0  0  0  0  0
  188.2320  177.7360  137.6650 N   0  0  0  0  0  2  0  0  0  0  0  0
  190.7310  176.0340  139.3750 O   0  0  0  0  0  0  0  0  0  0  0  0
  188.7310  176.9490  138.7100 N   0  0  2  0  0  0  0  0  0  0  0  0
  190.4630  177.0950  140.2620 C   0  0  1  0  0  3  0  0  0  0  0  0
  189.2100  177.7970  139.7690 C   0  0  0  0  0  2  0  0  0  0  0  0
  189.9600  176.3520  138.2520 C   0  0  2  0  0  3  0  0  0  0  0  0
  189.6150  175.1510  137.4020 C   0  0  0  0  0  2  0  0  0  0  0  0
  188.9590  175.7360  135.7920 S   0  0  0  0  0  0  0  0  0  0  0  0
  187.9790  177.1430  136.3850 C   0  0  0  0  0  0  0  0  0  0  0  0
  187.0050  177.9190  135.3290 S   0  0  0  0  0  0  0  0  0  0  0  0
  2  4  2  0  0  0  0
  3 10  2  0  0  0  0
  4  7  1  0  0  0  0
  5  3  1  0  0  0  0
  6  1  1  6  0  0  0
  6 11  1  0  0  0  0
  8  5  1  0  0  0  0
  9  8  2  0  0  0  0
  9  6  1  0  0  0  0
 10 12  1  0  0  0  0
 11 10  1  1  0  0  0
 11  2  1  0  0  0  0
 12  7  2  0  0  0  0
 13 14  1  0  0  0  0
 14  9  1  0  0  0  0
 15  1  1  0  0  0  0
 16 15  1  0  0  0  0
 17 16  1  0  0  0  0
 18 20  1  0  0  0  0
 19 21  1  0  0  0  0
 20 22  1  1  0  0  0
 21 17  1  1  0  0  0
 22 21  1  0  0  0  0
 23 24  1  1  0  0  0
 23 20  1  0  0  0  0
 23 19  1  0  0  0  0
 25 26  1  0  0  0  0
 25 24  1  0  0  0  0
 26 18  1  0  0  0  0
 27 26  2  0  0  0  0
M  END
>  <MODEL>
6

>  <REMARK>
 VINA RESULT:      -7.0      4.396      7.314
  Name = 
  6 active torsions:
  status: ('A' for Active; 'I' for Inactive)
    1  A    between atoms: C_3  and  C_8
    2  A    between atoms: C_3  and  C_13
    3  A    between atoms: C_13  and  C_14
    4  A    between atoms: C_14  and  C_19
    5  A    between atoms: C_16  and  C_19
    6  A    between atoms: C_21  and  O_27
                            x       y       z     vdW  Elec       q    Type
                         _______ _______ _______ _____ _____    ______ ____

>  <TORSDO>
F 6

$$$$
=
 OpenBabel11062414453D

 27 30  0  0  1  0  0  0  0  0999 V2000
  187.5910  178.2630  144.7870 C   0  0  0  0  0  2  0  0  0  0  0  0
  189.3610  177.2170  146.9890 N   0  0  0  0  0  0  0  0  0  0  0  0
  191.9640  178.0840  144.5440 N   0  0  0  0  0  0  0  0  0  0  0  0
  190.0400  176.3820  147.7160 C   0  0  0  0  0  3  0  0  0  0  0  0
  191.3080  179.0390  143.6650 C   0  0  0  0  0  2  0  0  0  0  0  0
  188.8900  177.4850  144.5920 C   0  0  1  0  0  3  0  0  0  0  0  0
  191.4080  175.9980  147.3440 C   0  0  0  0  0  3  0  0  0  0  0  0
  190.4000  178.3240  142.7810 N   0  0  0  0  0  0  0  0  0  0  0  0
  189.3710  177.6120  143.1520 C   0  0  0  0  0  0  0  0  0  0  0  0
  191.3060  177.4750  145.4780 C   0  0  0  0  0  0  0  0  0  0  0  0
  189.8540  177.8220  145.7450 C   0  0  2  0  0  3  0  0  0  0  0  0
  191.9800  176.5210  146.3040 N   0  0  0  0  0  0  0  0  0  0  0  0
  188.3020  177.5010  140.9260 C   0  0  0  0  0  1  0  0  0  0  0  0
  188.6280  176.9290  142.1840 O   0  0  0  0  0  0  0  0  0  0  0  0
  186.5780  177.4660  145.5970 C   0  0  0  0  0  2  0  0  0  0  0  0
  185.5100  178.3850  146.1680 C   0  0  0  0  0  2  0  0  0  0  0  0
  184.8320  179.1620  145.0520 C   0  0  0  0  0  2  0  0  0  0  0  0
  182.8540  178.4560  140.9320 N   0  0  0  0  0  2  0  0  0  0  0  0
  182.5720  178.6920  144.3860 O   0  0  0  0  0  0  0  0  0  0  0  0
  183.1340  179.0190  142.1840 N   0  0  2  0  0  0  0  0  0  0  0  0
  183.9050  178.2610  144.2470 C   0  0  1  0  0  3  0  0  0  0  0  0
  184.2630  178.3490  142.7740 C   0  0  0  0  0  2  0  0  0  0  0  0
  182.0760  178.6290  143.0800 C   0  0  2  0  0  3  0  0  0  0  0  0
  180.8950  179.5400  142.8430 C   0  0  0  0  0  2  0  0  0  0  0  0
  180.1080  179.0850  141.2500 S   0  0  0  0  0  0  0  0  0  0  0  0
  181.6070  178.7420  140.2870 C   0  0  0  0  0  0  0  0  0  0  0  0
  181.4610  178.4680  138.6840 S   0  0  0  0  0  0  0  0  0  0  0  0
  1 15  1  0  0  0  0
  2  4  2  0  0  0  0
  3 10  2  0  0  0  0
  5  3  1  0  0  0  0
  6  1  1  6  0  0  0
  6 11  1  0  0  0  0
  7  4  1  0  0  0  0
  8  9  2  0  0  0  0
  8  5  1  0  0  0  0
  9  6  1  0  0  0  0
 10 12  1  0  0  0  0
 11 10  1  6  0  0  0
 11  2  1  0  0  0  0
 12  7  2  0  0  0  0
 13 14  1  0  0  0  0
 14  9  1  0  0  0  0
 15 16  1  0  0  0  0
 17 16  1  0  0  0  0
 18 20  1  0  0  0  0
 20 22  1  1  0  0  0
 20 23  1  0  0  0  0
 21 19  1  0  0  0  0
 21 17  1  1  0  0  0
 22 21  1  0  0  0  0
 23 24  1  1  0  0  0
 23 19  1  0  0  0  0
 25 24  1  0  0  0  0
 26 18  1  0  0  0  0
 26 25  1  0  0  0  0
 27 26  2  0  0  0  0
M  END
>  <MODEL>
7

>  <REMARK>
 VINA RESULT:      -6.9      3.929      8.748
  Name = 
  6 active torsions:
  status: ('A' for Active; 'I' for Inactive)
    1  A    between atoms: C_3  and  C_8
    2  A    between atoms: C_3  and  C_13
    3  A    between atoms: C_13  and  C_14
    4  A    between atoms: C_14  and  C_19
    5  A    between atoms: C_16  and  C_19
    6  A    between atoms: C_21  and  O_27
                            x       y       z     vdW  Elec       q    Type
                         _______ _______ _______ _____ _____    ______ ____

>  <TORSDO>
F 6

$$$$
=
 OpenBabel11062414453D

 27 30  0  0  1  0  0  0  0  0999 V2000
  187.0730  177.1890  144.9120 C   0  0  0  0  0  2  0  0  0  0  0  0
  186.9620  177.9270  141.9940 N   0  0  0  0  0  0  0  0  0  0  0  0
  190.2390  176.2630  142.0250 N   0  0  0  0  0  0  0  0  0  0  0  0
  187.1000  178.6210  140.9040 C   0  0  0  0  0  3  0  0  0  0  0  0
  190.1950  175.4370  143.2200 C   0  0  0  0  0  2  0  0  0  0  0  0
  188.2640  177.6050  144.0520 C   0  0  1  0  0  3  0  0  0  0  0  0
  188.3730  178.6250  140.1700 C   0  0  0  0  0  3  0  0  0  0  0  0
  190.3640  176.2860  144.3900 N   0  0  0  0  0  0  0  0  0  0  0  0
  189.5700  177.2560  144.7550 C   0  0  0  0  0  0  0  0  0  0  0  0
  189.2770  177.0840  141.7450 C   0  0  0  0  0  0  0  0  0  0  0  0
  188.0300  177.1270  142.6070 C   0  0  2  0  0  3  0  0  0  0  0  0
  189.3690  177.9010  140.5740 N   0  0  0  0  0  0  0  0  0  0  0  0
  189.8640  177.5100  147.1960 C   0  0  0  0  0  1  0  0  0  0  0  0
  189.9020  178.0260  145.8730 O   0  0  0  0  0  0  0  0  0  0  0  0
  186.5260  178.3610  145.7150 C   0  0  0  0  0  2  0  0  0  0  0  0
  185.0060  178.3740  145.6740 C   0  0  0  0  0  2  0  0  0  0  0  0
  184.5180  179.1560  144.4660 C   0  0  0  0  0  2  0  0  0  0  0  0
  181.9450  178.9560  140.6290 N   0  0  0  0  0  2  0  0  0  0  0  0
  182.1570  178.9060  144.0960 O   0  0  0  0  0  0  0  0  0  0  0  0
  182.4390  179.3860  141.8670 N   0  0  2  0  0  0  0  0  0  0  0  0
  183.4190  178.3970  143.7340 C   0  0  1  0  0  3  0  0  0  0  0  0
  183.5790  178.5880  142.2360 C   0  0  0  0  0  2  0  0  0  0  0  0
  181.4850  178.9940  142.8730 C   0  0  2  0  0  3  0  0  0  0  0  0
  180.3610  180.0040  142.8780 C   0  0  0  0  0  2  0  0  0  0  0  0
  179.3290  179.7470  141.3830 S   0  0  0  0  0  0  0  0  0  0  0  0
  180.6490  179.3850  140.1920 C   0  0  0  0  0  0  0  0  0  0  0  0
  180.2640  179.2650  138.6110 S   0  0  0  0  0  0  0  0  0  0  0  0
  1 15  1  0  0  0  0
  2 11  1  0  0  0  0
  3  5  1  0  0  0  0
  4  2  2  0  0  0  0
  5  8  1  0  0  0  0
  6  9  1  0  0  0  0
  6  1  1  1  0  0  0
  7 12  2  0  0  0  0
  7  4  1  0  0  0  0
  8  9  2  0  0  0  0
  9 14  1  0  0  0  0
 10  3  2  0  0  0  0
 11 10  1  6  0  0  0
 11  6  1  0  0  0  0
 12 10  1  0  0  0  0
 14 13  1  0  0  0  0
 16 15  1  0  0  0  0
 17 16  1  0  0  0  0
 18 20  1  0  0  0  0
 20 22  1  1  0  0  0
 20 23  1  0  0  0  0
 21 19  1  0  0  0  0
 21 17  1  1  0  0  0
 22 21  1  0  0  0  0
 23 24  1  1  0  0  0
 23 19  1  0  0  0  0
 25 24  1  0  0  0  0
 26 18  1  0  0  0  0
 26 25  1  0  0  0  0
 27 26  2  0  0  0  0
M  END
>  <MODEL>
8

>  <REMARK>
 VINA RESULT:      -6.8      4.237      8.137
  Name = 
  6 active torsions:
  status: ('A' for Active; 'I' for Inactive)
    1  A    between atoms: C_3  and  C_8
    2  A    between atoms: C_3  and  C_13
    3  A    between atoms: C_13  and  C_14
    4  A    between atoms: C_14  and  C_19
    5  A    between atoms: C_16  and  C_19
    6  A    between atoms: C_21  and  O_27
                            x       y       z     vdW  Elec       q    Type
                         _______ _______ _______ _____ _____    ______ ____

>  <TORSDO>
F 6

$$$$
=
 OpenBabel11062414453D

 27 30  0  0  1  0  0  0  0  0999 V2000
  191.1650  177.6970  144.8700 C   0  0  0  0  0  2  0  0  0  0  0  0
  188.3010  177.9730  143.9800 N   0  0  0  0  0  0  0  0  0  0  0  0
  187.7730  178.1220  147.6140 N   0  0  0  0  0  0  0  0  0  0  0  0
  187.0980  177.6410  143.6170 C   0  0  0  0  0  3  0  0  0  0  0  0
  189.0760  178.5000  148.1370 C   0  0  0  0  0  2  0  0  0  0  0  0
  189.9480  177.1250  145.5930 C   0  0  1  0  0  3  0  0  0  0  0  0
  186.0610  177.3570  144.6170 C   0  0  0  0  0  3  0  0  0  0  0  0
  189.9600  177.3450  148.0860 N   0  0  0  0  0  0  0  0  0  0  0  0
  190.3240  176.7050  147.0090 C   0  0  0  0  0  0  0  0  0  0  0  0
  187.6070  177.8700  146.3550 C   0  0  0  0  0  0  0  0  0  0  0  0
  188.7480  178.0650  145.3760 C   0  0  2  0  0  3  0  0  0  0  0  0
  186.3150  177.4740  145.8830 N   0  0  0  0  0  0  0  0  0  0  0  0
  192.4270  175.6100  147.7090 C   0  0  0  0  0  1  0  0  0  0  0  0
  191.1320  175.5690  147.1290 O   0  0  0  0  0  0  0  0  0  0  0  0
  191.6080  176.7990  143.7230 C   0  0  0  0  0  2  0  0  0  0  0  0
  191.4590  177.5200  142.3930 C   0  0  0  0  0  2  0  0  0  0  0  0
  190.5700  176.7180  141.4570 C   0  0  0  0  0  2  0  0  0  0  0  0
  190.5450  175.4320  137.0140 N   0  0  0  0  0  2  0  0  0  0  0  0
  192.0860  177.1130  139.6350 O   0  0  0  0  0  0  0  0  0  0  0  0
  190.9600  175.5820  138.3440 N   0  0  2  0  0  0  0  0  0  0  0  0
  190.7330  177.1870  140.0170 C   0  0  1  0  0  3  0  0  0  0  0  0
  189.9450  176.2760  139.0920 C   0  0  0  0  0  2  0  0  0  0  0  0
  192.0280  176.5500  138.3560 C   0  0  2  0  0  3  0  0  0  0  0  0
  193.3050  175.8520  137.9500 C   0  0  0  0  0  2  0  0  0  0  0  0
  193.2430  175.5100  136.1490 S   0  0  0  0  0  0  0  0  0  0  0  0
  191.4940  175.0480  136.0120 C   0  0  0  0  0  0  0  0  0  0  0  0
  190.9520  174.4490  134.5940 S   0  0  0  0  0  0  0  0  0  0  0  0
  3  5  1  0  0  0  0
  4  2  2  0  0  0  0
  4  7  1  0  0  0  0
  6  1  1  1  0  0  0
  6  9  1  0  0  0  0
  7 12  2  0  0  0  0
  8  5  1  0  0  0  0
  9 14  1  0  0  0  0
  9  8  2  0  0  0  0
 10  3  2  0  0  0  0
 11  2  1  6  0  0  0
 11  6  1  0  0  0  0
 11 10  1  0  0  0  0
 12 10  1  0  0  0  0
 14 13  1  0  0  0  0
 15  1  1  0  0  0  0
 16 15  1  0  0  0  0
 17 16  1  0  0  0  0
 18 20  1  0  0  0  0
 19 21  1  0  0  0  0
 20 23  1  0  0  0  0
 20 22  1  1  0  0  0
 21 17  1  1  0  0  0
 22 21  1  0  0  0  0
 23 24  1  1  0  0  0
 23 19  1  0  0  0  0
 25 24  1  0  0  0  0
 26 25  1  0  0  0  0
 26 18  1  0  0  0  0
 27 26  2  0  0  0  0
M  END
>  <MODEL>
9

>  <REMARK>
 VINA RESULT:      -6.8      5.427      8.803
  Name = 
  6 active torsions:
  status: ('A' for Active; 'I' for Inactive)
    1  A    between atoms: C_3  and  C_8
    2  A    between atoms: C_3  and  C_13
    3  A    between atoms: C_13  and  C_14
    4  A    between atoms: C_14  and  C_19
    5  A    between atoms: C_16  and  C_19
    6  A    between atoms: C_21  and  O_27
                            x       y       z     vdW  Elec       q    Type
                         _______ _______ _______ _____ _____    ______ ____

>  <TORSDO>
F 6

$$$$
