=
 OpenBabel11062414103D

 32 36  0  0  1  0  0  0  0  0999 V2000
  185.3580  178.3150  143.0790 C   0  0  0  0  0  0  0  0  0  0  0  0
  186.9620  177.8380  144.4940 C   0  0  0  0  0  0  0  0  0  0  0  0
  187.3640  177.6520  143.1920 C   0  0  0  0  0  0  0  0  0  0  0  0
  188.6380  177.1880  142.8790 C   0  0  0  0  0  0  0  0  0  0  0  0
  184.0820  178.7160  142.6820 C   0  0  0  0  0  0  0  0  0  0  0  0
  185.6660  178.2700  144.4100 C   0  0  0  0  0  0  0  0  0  0  0  0
  186.3890  177.9420  142.3470 O   0  0  0  0  0  0  0  0  0  0  0  0
  183.1970  179.0590  143.6650 N   0  0  0  0  0  0  0  0  0  0  0  0
  189.5400  176.9410  143.9580 C   0  0  0  0  0  0  0  0  0  0  0  0
  187.7900  177.5790  145.5730 C   0  0  0  0  0  3  0  0  0  0  0  0
  184.7820  178.6030  145.3790 N   0  0  0  0  0  0  0  0  0  0  0  0
  183.5340  179.0030  144.9940 C   0  0  0  0  0  3  0  0  0  0  0  0
  189.1020  177.1280  145.3060 C   0  0  0  0  0  0  0  0  0  0  0  0
  190.9540  176.5860  143.7050 C   0  0  0  0  0  0  0  0  0  0  0  0
  191.9220  177.5790  143.6260 O   0  0  0  0  0  1  0  0  0  0  0  0
  191.2990  175.3790  143.5950 O   0  0  0  0  0  0  0  0  0  0  0  0
  189.6860  177.1980  147.7150 C   0  0  0  0  0  1  0  0  0  0  0  0
  189.9900  176.8850  146.3620 O   0  0  0  0  0  0  0  0  0  0  0  0
  188.9490  176.9320  141.5010 N   0  0  0  0  0  2  0  0  0  0  0  0
  188.6490  178.2540  139.4960 C   0  0  0  0  0  1  0  0  0  0  0  0
  189.6060  177.8770  140.6090 C   0  0  2  0  0  3  0  0  0  0  0  0
  190.8590  177.2470  140.0240 C   0  0  0  0  0  2  0  0  0  0  0  0
  190.5560  176.0030  139.4710 O   0  0  0  0  0  1  0  0  0  0  0  0
  183.6800  178.7810  141.3080 N   0  0  0  0  0  2  0  0  0  0  0  0
  182.4410  175.5180  138.8620 C   0  0  0  0  0  2  0  0  0  0  0  0
  183.0470  177.6840  140.5930 C   0  0  2  0  0  3  0  0  0  0  0  0
  181.4210  177.4250  138.2450 C   0  0  0  0  0  2  0  0  0  0  0  0
  183.5860  177.6090  139.1430 C   0  0  0  0  0  2  0  0  0  0  0  0
  180.8570  176.9590  139.5520 C   0  0  2  0  0  3  0  0  0  0  0  0
  181.5140  177.8280  140.6320 C   0  0  0  0  0  2  0  0  0  0  0  0
  182.7250  176.8120  138.2420 N   0  0  1  0  0  0  0  0  0  0  0  0
  181.2980  175.6300  139.6930 O   0  0  0  0  0  0  0  0  0  0  0  0
  1  6  2  0  0  0  0
  2 10  1  0  0  0  0
  3  2  2  0  0  0  0
  4  3  1  0  0  0  0
  4  9  2  0  0  0  0
  5  1  1  0  0  0  0
  5  8  2  0  0  0  0
  6  2  1  0  0  0  0
  6 11  1  0  0  0  0
  7  1  1  0  0  0  0
  7  3  1  0  0  0  0
  8 12  1  0  0  0  0
  9 13  1  0  0  0  0
 12 11  2  0  0  0  0
 13 10  2  0  0  0  0
 13 18  1  0  0  0  0
 14  9  1  0  0  0  0
 15 14  1  0  0  0  0
 16 14  2  0  0  0  0
 18 17  1  0  0  0  0
 19  4  1  0  0  0  0
 21 20  1  6  0  0  0
 21 19  1  0  0  0  0
 22 21  1  0  0  0  0
 23 22  1  0  0  0  0
 24  5  1  0  0  0  0
 25 32  1  0  0  0  0
 26 30  1  0  0  0  0
 26 24  1  6  0  0  0
 28 26  1  0  0  0  0
 29 27  1  6  0  0  0
 29 32  1  0  0  0  0
 29 30  1  0  0  0  0
 31 27  1  1  0  0  0
 31 25  1  0  0  0  0
 31 28  1  0  0  0  0
M  END
>  <MODEL>
1

>  <REMARK>
 VINA RESULT:      -8.2      0.000      0.000
  Name = 
  7 active torsions:
  status: ('A' for Active; 'I' for Inactive)
    1  A    between atoms: C_1  and  CA_25
    2  A    between atoms: C_3  and  N_29
    3  A    between atoms: C_7  and  N_22
    4  A    between atoms: C_9  and  N_29
    5  A    between atoms: O_15  and  C_30
    6  A    between atoms: C_18  and  C_19
    7  A    between atoms: N_22  and  CA_25
                            x       y       z     vdW  Elec       q    Type
                         _______ _______ _______ _____ _____    ______ ____

>  <TORSDO>
F 7

$$$$
=
 OpenBabel11062414103D

 32 36  0  0  1  0  0  0  0  0999 V2000
  189.3660  177.4510  141.8850 C   0  0  0  0  0  0  0  0  0  0  0  0
  190.3770  177.3270  143.8260 C   0  0  0  0  0  0  0  0  0  0  0  0
  189.0090  177.3360  143.9670 C   0  0  0  0  0  0  0  0  0  0  0  0
  188.4030  177.2970  145.2190 C   0  0  0  0  0  0  0  0  0  0  0  0
  189.2750  177.5400  140.4950 C   0  0  0  0  0  0  0  0  0  0  0  0
  190.5980  177.3980  142.4770 C   0  0  0  0  0  0  0  0  0  0  0  0
  188.4100  177.4120  142.7910 O   0  0  0  0  0  0  0  0  0  0  0  0
  190.4440  177.5570  139.7880 N   0  0  0  0  0  0  0  0  0  0  0  0
  189.2490  177.2110  146.3660 C   0  0  0  0  0  0  0  0  0  0  0  0
  191.2370  177.2780  144.9090 C   0  0  0  0  0  3  0  0  0  0  0  0
  191.7520  177.4240  141.7720 N   0  0  0  0  0  0  0  0  0  0  0  0
  191.6660  177.5030  140.4100 C   0  0  0  0  0  3  0  0  0  0  0  0
  190.6700  177.2150  146.2020 C   0  0  0  0  0  0  0  0  0  0  0  0
  188.6840  177.0210  147.7200 C   0  0  0  0  0  0  0  0  0  0  0  0
  188.5290  178.1060  148.5720 O   0  0  0  0  0  1  0  0  0  0  0  0
  188.3040  175.8810  148.0980 O   0  0  0  0  0  0  0  0  0  0  0  0
  192.1580  175.9310  147.7130 C   0  0  0  0  0  1  0  0  0  0  0  0
  191.4960  177.1290  147.3290 O   0  0  0  0  0  0  0  0  0  0  0  0
  186.9730  177.4040  145.2860 N   0  0  0  0  0  2  0  0  0  0  0  0
  185.6200  178.8120  146.7170 C   0  0  0  0  0  1  0  0  0  0  0  0
  186.2360  178.6590  145.3400 C   0  0  2  0  0  3  0  0  0  0  0  0
  185.1460  178.6620  144.2810 C   0  0  0  0  0  2  0  0  0  0  0  0
  183.8900  178.6800  144.8880 O   0  0  0  0  0  1  0  0  0  0  0  0
  188.0230  177.6080  139.8020 N   0  0  0  0  0  2  0  0  0  0  0  0
  187.2080  178.2500  135.6680 C   0  0  0  0  0  2  0  0  0  0  0  0
  187.8960  177.6420  138.3520 C   0  0  2  0  0  3  0  0  0  0  0  0
  186.2210  176.3680  136.4050 C   0  0  0  0  0  2  0  0  0  0  0  0
  186.4790  178.1200  137.9510 C   0  0  0  0  0  2  0  0  0  0  0  0
  187.7010  176.1530  136.3160 C   0  0  2  0  0  3  0  0  0  0  0  0
  188.2340  176.2640  137.7500 C   0  0  0  0  0  2  0  0  0  0  0  0
  186.1320  177.7990  136.5490 N   0  0  1  0  0  0  0  0  0  0  0  0
  188.1870  177.2310  135.5540 O   0  0  0  0  0  0  0  0  0  0  0  0
  1  6  2  0  0  0  0
  1  7  1  0  0  0  0
  2  3  2  0  0  0  0
  2 10  1  0  0  0  0
  3  4  1  0  0  0  0
  4 19  1  0  0  0  0
  4  9  2  0  0  0  0
  5  1  1  0  0  0  0
  6  2  1  0  0  0  0
  7  3  1  0  0  0  0
  8 12  1  0  0  0  0
  8  5  2  0  0  0  0
  9 14  1  0  0  0  0
 10 13  2  0  0  0  0
 11  6  1  0  0  0  0
 12 11  2  0  0  0  0
 13  9  1  0  0  0  0
 13 18  1  0  0  0  0
 14 16  2  0  0  0  0
 14 15  1  0  0  0  0
 18 17  1  0  0  0  0
 19 21  1  0  0  0  0
 21 20  1  1  0  0  0
 22 23  1  0  0  0  0
 22 21  1  0  0  0  0
 24  5  1  0  0  0  0
 26 24  1  1  0  0  0
 27 31  1  0  0  0  0
 28 26  1  0  0  0  0
 29 27  1  1  0  0  0
 29 30  1  0  0  0  0
 30 26  1  0  0  0  0
 31 25  1  6  0  0  0
 31 28  1  0  0  0  0
 32 25  1  0  0  0  0
 32 29  1  0  0  0  0
M  END
>  <MODEL>
2

>  <REMARK>
 VINA RESULT:      -8.1      3.180      5.650
  Name = 
  7 active torsions:
  status: ('A' for Active; 'I' for Inactive)
    1  A    between atoms: C_1  and  CA_25
    2  A    between atoms: C_3  and  N_29
    3  A    between atoms: C_7  and  N_22
    4  A    between atoms: C_9  and  N_29
    5  A    between atoms: O_15  and  C_30
    6  A    between atoms: C_18  and  C_19
    7  A    between atoms: N_22  and  CA_25
                            x       y       z     vdW  Elec       q    Type
                         _______ _______ _______ _____ _____    ______ ____

>  <TORSDO>
F 7

$$$$
=
 OpenBabel11062414103D

 32 36  0  0  1  0  0  0  0  0999 V2000
  188.7840  177.8950  141.7150 C   0  0  0  0  0  0  0  0  0  0  0  0
  189.8240  177.2070  143.5180 C   0  0  0  0  0  0  0  0  0  0  0  0
  188.6330  177.8220  143.8240 C   0  0  0  0  0  0  0  0  0  0  0  0
  188.2090  177.9810  145.1400 C   0  0  0  0  0  0  0  0  0  0  0  0
  188.5990  178.1040  140.3480 C   0  0  0  0  0  0  0  0  0  0  0  0
  189.9110  177.2560  142.1530 C   0  0  0  0  0  0  0  0  0  0  0  0
  188.0150  178.2340  142.7300 O   0  0  0  0  0  0  0  0  0  0  0  0
  189.5680  177.6380  139.5040 N   0  0  0  0  0  0  0  0  0  0  0  0
  189.0380  177.4500  146.1750 C   0  0  0  0  0  0  0  0  0  0  0  0
  190.6760  176.7080  144.4880 C   0  0  0  0  0  3  0  0  0  0  0  0
  190.8710  176.8050  141.3130 N   0  0  0  0  0  0  0  0  0  0  0  0
  190.6890  177.0000  139.9720 C   0  0  0  0  0  3  0  0  0  0  0  0
  190.2800  176.8250  145.8390 C   0  0  0  0  0  0  0  0  0  0  0  0
  188.5930  177.4500  147.5860 C   0  0  0  0  0  0  0  0  0  0  0  0
  188.8920  178.5230  148.4150 O   0  0  0  0  0  1  0  0  0  0  0  0
  187.9080  176.4940  148.0380 O   0  0  0  0  0  0  0  0  0  0  0  0
  192.2370  175.5050  146.5990 C   0  0  0  0  0  1  0  0  0  0  0  0
  191.0890  176.3050  146.8570 O   0  0  0  0  0  0  0  0  0  0  0  0
  186.9990  178.7150  145.3820 N   0  0  0  0  0  2  0  0  0  0  0  0
  184.8000  178.6220  144.3760 C   0  0  0  0  0  1  0  0  0  0  0  0
  185.6770  178.1180  145.5040 C   0  0  2  0  0  3  0  0  0  0  0  0
  185.0650  178.4940  146.8440 C   0  0  0  0  0  2  0  0  0  0  0  0
  185.7060  179.6190  147.3640 O   0  0  0  0  0  1  0  0  0  0  0  0
  187.4500  178.7720  139.8130 N   0  0  0  0  0  2  0  0  0  0  0  0
  183.6190  176.9720  139.3140 C   0  0  0  0  0  2  0  0  0  0  0  0
  186.0980  178.2360  139.8680 C   0  0  2  0  0  3  0  0  0  0  0  0
  183.4710  179.2160  139.2680 C   0  0  0  0  0  2  0  0  0  0  0  0
  185.4580  178.2550  138.4580 C   0  0  0  0  0  2  0  0  0  0  0  0
  183.7560  178.7640  140.6680 C   0  0  2  0  0  3  0  0  0  0  0  0
  185.2530  179.0100  140.8970 C   0  0  0  0  0  2  0  0  0  0  0  0
  183.9850  178.1210  138.4860 N   0  0  1  0  0  0  0  0  0  0  0  0
  183.5080  177.3790  140.6670 O   0  0  0  0  0  0  0  0  0  0  0  0
  1  6  2  0  0  0  0
  1  7  1  0  0  0  0
  2  3  2  0  0  0  0
  2 10  1  0  0  0  0
  3  4  1  0  0  0  0
  4 19  1  0  0  0  0
  4  9  2  0  0  0  0
  5  1  1  0  0  0  0
  6  2  1  0  0  0  0
  7  3  1  0  0  0  0
  8 12  1  0  0  0  0
  8  5  2  0  0  0  0
  9 14  1  0  0  0  0
 10 13  2  0  0  0  0
 11  6  1  0  0  0  0
 12 11  2  0  0  0  0
 13  9  1  0  0  0  0
 13 18  1  0  0  0  0
 14 16  2  0  0  0  0
 14 15  1  0  0  0  0
 17 18  1  0  0  0  0
 19 21  1  0  0  0  0
 21 20  1  6  0  0  0
 21 22  1  0  0  0  0
 22 23  1  0  0  0  0
 24  5  1  0  0  0  0
 25 32  1  0  0  0  0
 26 24  1  6  0  0  0
 26 30  1  0  0  0  0
 28 26  1  0  0  0  0
 29 27  1  6  0  0  0
 29 30  1  0  0  0  0
 31 28  1  1  0  0  0
 31 27  1  0  0  0  0
 31 25  1  0  0  0  0
 32 29  1  0  0  0  0
M  END
>  <MODEL>
3

>  <REMARK>
 VINA RESULT:      -8.1      2.114      4.883
  Name = 
  7 active torsions:
  status: ('A' for Active; 'I' for Inactive)
    1  A    between atoms: C_1  and  CA_25
    2  A    between atoms: C_3  and  N_29
    3  A    between atoms: C_7  and  N_22
    4  A    between atoms: C_9  and  N_29
    5  A    between atoms: O_15  and  C_30
    6  A    between atoms: C_18  and  C_19
    7  A    between atoms: N_22  and  CA_25
                            x       y       z     vdW  Elec       q    Type
                         _______ _______ _______ _____ _____    ______ ____

>  <TORSDO>
F 7

$$$$
=
 OpenBabel11062414103D

 32 36  0  0  1  0  0  0  0  0999 V2000
  185.3520  178.1640  144.0070 C   0  0  0  0  0  0  0  0  0  0  0  0
  183.2600  178.8140  143.9580 C   0  0  0  0  0  0  0  0  0  0  0  0
  183.6960  178.4190  142.7150 C   0  0  0  0  0  0  0  0  0  0  0  0
  182.8690  178.4760  141.5970 C   0  0  0  0  0  0  0  0  0  0  0  0
  186.5950  177.9000  144.5840 C   0  0  0  0  0  0  0  0  0  0  0  0
  184.3360  178.6420  144.7860 C   0  0  0  0  0  0  0  0  0  0  0  0
  184.9590  178.0300  142.7550 O   0  0  0  0  0  0  0  0  0  0  0  0
  186.7270  178.1270  145.9240 N   0  0  0  0  0  0  0  0  0  0  0  0
  181.5270  178.9280  141.7840 C   0  0  0  0  0  0  0  0  0  0  0  0
  181.9790  179.2910  144.1810 C   0  0  0  0  0  3  0  0  0  0  0  0
  184.4750  178.8740  146.1120 N   0  0  0  0  0  0  0  0  0  0  0  0
  185.6880  178.6080  146.6810 C   0  0  0  0  0  3  0  0  0  0  0  0
  181.0940  179.3470  143.0810 C   0  0  0  0  0  0  0  0  0  0  0  0
  180.5450  178.8820  140.6790 C   0  0  0  0  0  0  0  0  0  0  0  0
  179.9280  177.6840  140.3400 O   0  0  0  0  0  1  0  0  0  0  0  0
  180.2310  179.9330  140.0600 O   0  0  0  0  0  0  0  0  0  0  0  0
  178.9310  179.2960  144.2920 C   0  0  0  0  0  1  0  0  0  0  0  0
  179.7770  179.7880  143.2610 O   0  0  0  0  0  0  0  0  0  0  0  0
  183.4270  178.1340  140.3190 N   0  0  0  0  0  2  0  0  0  0  0  0
  183.4790  180.0620  138.8580 C   0  0  0  0  0  1  0  0  0  0  0  0
  184.3080  178.9940  139.5420 C   0  0  2  0  0  3  0  0  0  0  0  0
  185.0480  178.1680  138.5030 C   0  0  0  0  0  2  0  0  0  0  0  0
  186.2930  178.7390  138.2360 O   0  0  0  0  0  1  0  0  0  0  0  0
  187.7110  177.4050  143.8320 N   0  0  0  0  0  2  0  0  0  0  0  0
  191.6990  178.8970  144.0180 C   0  0  0  0  0  2  0  0  0  0  0  0
  189.0940  177.7750  144.0920 C   0  0  2  0  0  3  0  0  0  0  0  0
  191.6690  176.7460  143.3630 C   0  0  0  0  0  2  0  0  0  0  0  0
  189.8270  178.0750  142.7610 C   0  0  0  0  0  2  0  0  0  0  0  0
  191.3260  176.8290  144.8190 C   0  0  2  0  0  3  0  0  0  0  0  0
  189.8020  176.6740  144.9050 C   0  0  0  0  0  2  0  0  0  0  0  0
  191.3000  178.0560  142.8900 N   0  0  1  0  0  0  0  0  0  0  0  0
  191.6840  178.1310  145.2100 O   0  0  0  0  0  0  0  0  0  0  0  0
  1  5  1  0  0  0  0
  1  6  2  0  0  0  0
  2 10  1  0  0  0  0
  2  6  1  0  0  0  0
  3  7  1  0  0  0  0
  3  2  2  0  0  0  0
  4  9  2  0  0  0  0
  4  3  1  0  0  0  0
  5  8  2  0  0  0  0
  6 11  1  0  0  0  0
  7  1  1  0  0  0  0
  8 12  1  0  0  0  0
  9 13  1  0  0  0  0
 11 12  2  0  0  0  0
 13 18  1  0  0  0  0
 13 10  2  0  0  0  0
 14  9  1  0  0  0  0
 15 14  1  0  0  0  0
 16 14  2  0  0  0  0
 18 17  1  0  0  0  0
 19  4  1  0  0  0  0
 21 20  1  6  0  0  0
 21 19  1  0  0  0  0
 22 21  1  0  0  0  0
 23 22  1  0  0  0  0
 24  5  1  0  0  0  0
 25 32  1  0  0  0  0
 26 24  1  6  0  0  0
 26 30  1  0  0  0  0
 28 26  1  0  0  0  0
 29 27  1  6  0  0  0
 29 30  1  0  0  0  0
 29 32  1  0  0  0  0
 31 28  1  1  0  0  0
 31 27  1  0  0  0  0
 31 25  1  0  0  0  0
M  END
>  <MODEL>
4

>  <REMARK>
 VINA RESULT:      -8.1      2.338      7.881
  Name = 
  7 active torsions:
  status: ('A' for Active; 'I' for Inactive)
    1  A    between atoms: C_1  and  CA_25
    2  A    between atoms: C_3  and  N_29
    3  A    between atoms: C_7  and  N_22
    4  A    between atoms: C_9  and  N_29
    5  A    between atoms: O_15  and  C_30
    6  A    between atoms: C_18  and  C_19
    7  A    between atoms: N_22  and  CA_25
                            x       y       z     vdW  Elec       q    Type
                         _______ _______ _______ _____ _____    ______ ____

>  <TORSDO>
F 7

$$$$
=
 OpenBabel11062414103D

 32 36  0  0  1  0  0  0  0  0999 V2000
  185.2500  178.1890  143.0100 C   0  0  0  0  0  0  0  0  0  0  0  0
  186.7630  177.9370  144.5770 C   0  0  0  0  0  0  0  0  0  0  0  0
  187.2720  177.6540  143.3310 C   0  0  0  0  0  0  0  0  0  0  0  0
  188.5880  177.2360  143.1570 C   0  0  0  0  0  0  0  0  0  0  0  0
  183.9900  178.4780  142.4860 C   0  0  0  0  0  0  0  0  0  0  0  0
  185.4570  178.2850  144.3580 C   0  0  0  0  0  0  0  0  0  0  0  0
  186.3520  177.8080  142.3940 O   0  0  0  0  0  0  0  0  0  0  0  0
  183.0160  178.8600  143.3640 N   0  0  0  0  0  0  0  0  0  0  0  0
  189.4160  177.1420  144.3170 C   0  0  0  0  0  0  0  0  0  0  0  0
  187.5170  177.8280  145.7320 C   0  0  0  0  0  3  0  0  0  0  0  0
  184.4860  178.6560  145.2240 N   0  0  0  0  0  0  0  0  0  0  0  0
  183.2530  178.9480  144.7130 C   0  0  0  0  0  3  0  0  0  0  0  0
  188.8660  177.4280  145.6060 C   0  0  0  0  0  0  0  0  0  0  0  0
  190.8600  176.8460  144.2020 C   0  0  0  0  0  0  0  0  0  0  0  0
  191.2890  175.5610  143.8940 O   0  0  0  0  0  0  0  0  0  0  0  0
  191.7130  177.7620  144.3470 O   0  0  0  0  0  1  0  0  0  0  0  0
  189.2950  177.8410  148.0130 C   0  0  0  0  0  1  0  0  0  0  0  0
  189.6810  177.3360  146.7410 O   0  0  0  0  0  0  0  0  0  0  0  0
  189.0170  176.8700  141.8360 N   0  0  0  0  0  2  0  0  0  0  0  0
  188.6370  178.1260  139.8020 C   0  0  0  0  0  1  0  0  0  0  0  0
  189.6400  177.7800  140.8850 C   0  0  2  0  0  3  0  0  0  0  0  0
  190.8620  177.1210  140.2680 C   0  0  0  0  0  2  0  0  0  0  0  0
  192.0180  177.5490  140.9220 O   0  0  0  0  0  1  0  0  0  0  0  0
  183.6930  178.3920  141.0860 N   0  0  0  0  0  2  0  0  0  0  0  0
  179.8040  179.4130  139.6720 C   0  0  0  0  0  2  0  0  0  0  0  0
  182.4780  178.9150  140.4790 C   0  0  2  0  0  3  0  0  0  0  0  0
  181.0270  178.4470  138.0500 C   0  0  0  0  0  2  0  0  0  0  0  0
  181.4550  177.7740  140.2620 C   0  0  0  0  0  2  0  0  0  0  0  0
  181.5460  179.8280  138.3110 C   0  0  2  0  0  3  0  0  0  0  0  0
  182.8070  179.6540  139.1670 C   0  0  0  0  0  2  0  0  0  0  0  0
  180.3870  178.1240  139.3000 N   0  0  1  0  0  0  0  0  0  0  0  0
  180.5490  180.4610  139.0750 O   0  0  0  0  0  0  0  0  0  0  0  0
  1  6  2  0  0  0  0
  2 10  1  0  0  0  0
  3  2  2  0  0  0  0
  4  3  1  0  0  0  0
  4  9  2  0  0  0  0
  5  1  1  0  0  0  0
  5  8  2  0  0  0  0
  6  2  1  0  0  0  0
  6 11  1  0  0  0  0
  7  1  1  0  0  0  0
  7  3  1  0  0  0  0
  8 12  1  0  0  0  0
  9 13  1  0  0  0  0
 12 11  2  0  0  0  0
 13 10  2  0  0  0  0
 13 18  1  0  0  0  0
 14  9  1  0  0  0  0
 14 16  1  0  0  0  0
 15 14  2  0  0  0  0
 18 17  1  0  0  0  0
 19  4  1  0  0  0  0
 21 20  1  6  0  0  0
 21 19  1  0  0  0  0
 22 21  1  0  0  0  0
 22 23  1  0  0  0  0
 24  5  1  0  0  0  0
 26 24  1  6  0  0  0
 28 26  1  0  0  0  0
 29 27  1  1  0  0  0
 29 32  1  0  0  0  0
 29 30  1  0  0  0  0
 30 26  1  0  0  0  0
 31 27  1  6  0  0  0
 31 25  1  0  0  0  0
 31 28  1  0  0  0  0
 32 25  1  0  0  0  0
M  END
>  <MODEL>
5

>  <REMARK>
 VINA RESULT:      -8.0      1.409      1.791
  Name = 
  7 active torsions:
  status: ('A' for Active; 'I' for Inactive)
    1  A    between atoms: C_1  and  CA_25
    2  A    between atoms: C_3  and  N_29
    3  A    between atoms: C_7  and  N_22
    4  A    between atoms: C_9  and  N_29
    5  A    between atoms: O_15  and  C_30
    6  A    between atoms: C_18  and  C_19
    7  A    between atoms: N_22  and  CA_25
                            x       y       z     vdW  Elec       q    Type
                         _______ _______ _______ _____ _____    ______ ____

>  <TORSDO>
F 7

$$$$
=
 OpenBabel11062414103D

 32 36  0  0  1  0  0  0  0  0999 V2000
  185.8420  178.1680  144.4150 C   0  0  0  0  0  0  0  0  0  0  0  0
  187.7750  177.8490  145.3990 C   0  0  0  0  0  0  0  0  0  0  0  0
  187.8360  177.5560  144.0560 C   0  0  0  0  0  0  0  0  0  0  0  0
  189.0050  177.0910  143.4620 C   0  0  0  0  0  0  0  0  0  0  0  0
  184.4920  178.5080  144.3320 C   0  0  0  0  0  0  0  0  0  0  0  0
  186.4840  178.2470  145.6200 C   0  0  0  0  0  0  0  0  0  0  0  0
  186.6650  177.7510  143.4730 O   0  0  0  0  0  0  0  0  0  0  0  0
  183.8750  178.9200  145.4800 N   0  0  0  0  0  0  0  0  0  0  0  0
  190.1630  176.9580  144.2860 C   0  0  0  0  0  0  0  0  0  0  0  0
  188.8620  177.7030  146.2430 C   0  0  0  0  0  3  0  0  0  0  0  0
  185.8660  178.6470  146.7550 N   0  0  0  0  0  0  0  0  0  0  0  0
  184.5450  178.9880  146.6750 C   0  0  0  0  0  3  0  0  0  0  0  0
  190.0790  177.2550  145.6820 C   0  0  0  0  0  0  0  0  0  0  0  0
  191.4780  176.6090  143.7050 C   0  0  0  0  0  0  0  0  0  0  0  0
  191.9990  175.3320  143.8690 O   0  0  0  0  0  1  0  0  0  0  0  0
  192.1200  177.4540  143.0250 O   0  0  0  0  0  0  0  0  0  0  0  0
  191.4410  176.0040  147.3340 C   0  0  0  0  0  1  0  0  0  0  0  0
  191.2180  177.1240  146.4870 O   0  0  0  0  0  0  0  0  0  0  0  0
  188.9620  176.7200  142.0760 N   0  0  0  0  0  2  0  0  0  0  0  0
  188.1970  178.1060  140.2450 C   0  0  0  0  0  1  0  0  0  0  0  0
  189.4090  177.5640  140.9770 C   0  0  2  0  0  3  0  0  0  0  0  0
  190.2710  176.7530  140.0230 C   0  0  0  0  0  2  0  0  0  0  0  0
  189.8300  176.9310  138.7110 O   0  0  0  0  0  1  0  0  0  0  0  0
  183.7480  178.4440  143.1080 N   0  0  0  0  0  2  0  0  0  0  0  0
  179.8500  180.1650  143.2150 C   0  0  0  0  0  2  0  0  0  0  0  0
  182.4530  179.0770  142.9090 C   0  0  2  0  0  3  0  0  0  0  0  0
  179.8410  178.2070  142.1080 C   0  0  0  0  0  2  0  0  0  0  0  0
  181.3990  178.4450  143.8520 C   0  0  0  0  0  2  0  0  0  0  0  0
  180.5270  179.2460  141.2760 C   0  0  2  0  0  3  0  0  0  0  0  0
  182.0320  178.9880  141.4300 C   0  0  0  0  0  2  0  0  0  0  0  0
  180.0070  178.7280  143.4410 N   0  0  1  0  0  0  0  0  0  0  0  0
  180.2030  180.4760  141.8780 O   0  0  0  0  0  0  0  0  0  0  0  0
  1  6  2  0  0  0  0
  2  6  1  0  0  0  0
  2 10  1  0  0  0  0
  3  2  2  0  0  0  0
  4  3  1  0  0  0  0
  4  9  2  0  0  0  0
  5  1  1  0  0  0  0
  5  8  2  0  0  0  0
  6 11  1  0  0  0  0
  7  3  1  0  0  0  0
  7  1  1  0  0  0  0
  8 12  1  0  0  0  0
  9 13  1  0  0  0  0
 12 11  2  0  0  0  0
 13 10  2  0  0  0  0
 13 18  1  0  0  0  0
 14 15  1  0  0  0  0
 14  9  1  0  0  0  0
 16 14  2  0  0  0  0
 18 17  1  0  0  0  0
 19  4  1  0  0  0  0
 21 20  1  6  0  0  0
 21 19  1  0  0  0  0
 22 21  1  0  0  0  0
 23 22  1  0  0  0  0
 24  5  1  0  0  0  0
 25 31  1  0  0  0  0
 26 24  1  6  0  0  0
 26 28  1  0  0  0  0
 29 30  1  1  0  0  0
 29 32  1  0  0  0  0
 29 27  1  0  0  0  0
 30 26  1  0  0  0  0
 31 27  1  6  0  0  0
 31 28  1  0  0  0  0
 32 25  1  0  0  0  0
M  END
>  <MODEL>
6

>  <REMARK>
 VINA RESULT:      -7.9      2.088      2.671
  Name = 
  7 active torsions:
  status: ('A' for Active; 'I' for Inactive)
    1  A    between atoms: C_1  and  CA_25
    2  A    between atoms: C_3  and  N_29
    3  A    between atoms: C_7  and  N_22
    4  A    between atoms: C_9  and  N_29
    5  A    between atoms: O_15  and  C_30
    6  A    between atoms: C_18  and  C_19
    7  A    between atoms: N_22  and  CA_25
                            x       y       z     vdW  Elec       q    Type
                         _______ _______ _______ _____ _____    ______ ____

>  <TORSDO>
F 7

$$$$
=
 OpenBabel11062414103D

 32 36  0  0  1  0  0  0  0  0999 V2000
  188.4470  177.8130  141.3940 C   0  0  0  0  0  0  0  0  0  0  0  0
  188.5510  177.5060  143.5620 C   0  0  0  0  0  0  0  0  0  0  0  0
  187.3560  178.0760  143.1880 C   0  0  0  0  0  0  0  0  0  0  0  0
  186.3840  178.4170  144.1230 C   0  0  0  0  0  0  0  0  0  0  0  0
  188.9030  177.7800  140.0760 C   0  0  0  0  0  0  0  0  0  0  0  0
  189.2470  177.3380  142.3960 C   0  0  0  0  0  0  0  0  0  0  0  0
  187.3040  178.2570  141.8790 O   0  0  0  0  0  0  0  0  0  0  0  0
  190.1440  177.2540  139.8530 N   0  0  0  0  0  0  0  0  0  0  0  0
  186.6490  178.1240  145.4960 C   0  0  0  0  0  0  0  0  0  0  0  0
  188.8660  177.2360  144.8830 C   0  0  0  0  0  3  0  0  0  0  0  0
  190.4790  176.8250  142.1700 N   0  0  0  0  0  0  0  0  0  0  0  0
  190.9250  176.7850  140.8790 C   0  0  0  0  0  3  0  0  0  0  0  0
  187.9020  177.5440  145.8690 C   0  0  0  0  0  0  0  0  0  0  0  0
  185.6130  178.3230  146.5330 C   0  0  0  0  0  0  0  0  0  0  0  0
  185.6790  179.4150  147.3880 O   0  0  0  0  0  1  0  0  0  0  0  0
  184.6430  177.5240  146.6270 O   0  0  0  0  0  0  0  0  0  0  0  0
  189.0940  177.9900  147.9970 C   0  0  0  0  0  1  0  0  0  0  0  0
  188.1580  177.2580  147.2150 O   0  0  0  0  0  0  0  0  0  0  0  0
  185.2030  179.0910  143.6630 N   0  0  0  0  0  2  0  0  0  0  0  0
  183.8110  178.6280  141.7370 C   0  0  0  0  0  1  0  0  0  0  0  0
  183.9830  178.4250  143.2300 C   0  0  2  0  0  3  0  0  0  0  0  0
  182.7900  179.0040  143.9720 C   0  0  0  0  0  2  0  0  0  0  0  0
  181.7540  179.2720  143.0770 O   0  0  0  0  0  1  0  0  0  0  0  0
  188.1280  178.2670  138.9740 N   0  0  0  0  0  2  0  0  0  0  0  0
  187.1380  175.6330  135.7720 C   0  0  0  0  0  2  0  0  0  0  0  0
  187.5600  177.4150  137.9400 C   0  0  2  0  0  3  0  0  0  0  0  0
  186.6890  177.7700  135.2310 C   0  0  0  0  0  2  0  0  0  0  0  0
  188.4860  177.3900  136.6990 C   0  0  0  0  0  2  0  0  0  0  0  0
  185.6900  177.2900  136.2390 C   0  0  2  0  0  3  0  0  0  0  0  0
  186.1320  177.8750  137.5870 C   0  0  0  0  0  2  0  0  0  0  0  0
  187.8100  176.8990  135.4780 N   0  0  1  0  0  0  0  0  0  0  0  0
  185.8360  175.8910  136.2690 O   0  0  0  0  0  0  0  0  0  0  0  0
  1  7  1  0  0  0  0
  1  6  2  0  0  0  0
  2 10  1  0  0  0  0
  3  2  2  0  0  0  0
  3  4  1  0  0  0  0
  4  9  2  0  0  0  0
  5  1  1  0  0  0  0
  6  2  1  0  0  0  0
  7  3  1  0  0  0  0
  8  5  2  0  0  0  0
  8 12  1  0  0  0  0
  9 13  1  0  0  0  0
  9 14  1  0  0  0  0
 10 13  2  0  0  0  0
 11  6  1  0  0  0  0
 12 11  2  0  0  0  0
 13 18  1  0  0  0  0
 14 16  2  0  0  0  0
 14 15  1  0  0  0  0
 18 17  1  0  0  0  0
 19  4  1  0  0  0  0
 21 20  1  6  0  0  0
 21 19  1  0  0  0  0
 21 22  1  0  0  0  0
 23 22  1  0  0  0  0
 24  5  1  0  0  0  0
 25 32  1  0  0  0  0
 26 24  1  1  0  0  0
 28 26  1  0  0  0  0
 29 27  1  6  0  0  0
 29 32  1  0  0  0  0
 29 30  1  0  0  0  0
 30 26  1  0  0  0  0
 31 27  1  1  0  0  0
 31 25  1  0  0  0  0
 31 28  1  0  0  0  0
M  END
>  <MODEL>
7

>  <REMARK>
 VINA RESULT:      -7.8      2.837      5.579
  Name = 
  7 active torsions:
  status: ('A' for Active; 'I' for Inactive)
    1  A    between atoms: C_1  and  CA_25
    2  A    between atoms: C_3  and  N_29
    3  A    between atoms: C_7  and  N_22
    4  A    between atoms: C_9  and  N_29
    5  A    between atoms: O_15  and  C_30
    6  A    between atoms: C_18  and  C_19
    7  A    between atoms: N_22  and  CA_25
                            x       y       z     vdW  Elec       q    Type
                         _______ _______ _______ _____ _____    ______ ____

>  <TORSDO>
F 7

$$$$
=
 OpenBabel11062414103D

 32 36  0  0  1  0  0  0  0  0999 V2000
  187.8890  178.2070  141.4630 C   0  0  0  0  0  0  0  0  0  0  0  0
  186.9330  178.1240  143.4340 C   0  0  0  0  0  0  0  0  0  0  0  0
  188.2940  177.9420  143.5230 C   0  0  0  0  0  0  0  0  0  0  0  0
  188.9220  177.7100  144.7420 C   0  0  0  0  0  0  0  0  0  0  0  0
  187.9450  178.3360  140.0750 C   0  0  0  0  0  0  0  0  0  0  0  0
  186.6820  178.2980  142.1000 C   0  0  0  0  0  0  0  0  0  0  0  0
  188.8600  177.9930  142.3290 O   0  0  0  0  0  0  0  0  0  0  0  0
  186.7700  178.5620  139.4160 N   0  0  0  0  0  0  0  0  0  0  0  0
  188.1120  177.7010  145.9180 C   0  0  0  0  0  0  0  0  0  0  0  0
  186.1030  178.0890  144.5410 C   0  0  0  0  0  3  0  0  0  0  0  0
  185.5200  178.5130  141.4410 N   0  0  0  0  0  0  0  0  0  0  0  0
  185.5730  178.6480  140.0820 C   0  0  0  0  0  3  0  0  0  0  0  0
  186.6970  177.8790  145.8060 C   0  0  0  0  0  0  0  0  0  0  0  0
  188.7180  177.6050  147.2640 C   0  0  0  0  0  0  0  0  0  0  0  0
  189.0490  176.3660  147.7960 O   0  0  0  0  0  0  0  0  0  0  0  0
  188.9740  178.6470  147.9240 O   0  0  0  0  0  1  0  0  0  0  0  0
  184.5410  178.2700  146.9660 C   0  0  0  0  0  1  0  0  0  0  0  0
  185.9050  177.8700  146.9610 O   0  0  0  0  0  0  0  0  0  0  0  0
  190.3320  177.4380  144.7400 N   0  0  0  0  0  2  0  0  0  0  0  0
  191.9790  176.2310  146.0390 C   0  0  0  0  0  1  0  0  0  0  0  0
  190.9230  176.1250  144.9570 C   0  0  2  0  0  3  0  0  0  0  0  0
  191.5520  175.6250  143.6670 C   0  0  0  0  0  2  0  0  0  0  0  0
  190.5580  175.2190  142.7760 O   0  0  0  0  0  1  0  0  0  0  0  0
  189.1690  178.2450  139.3350 N   0  0  0  0  0  2  0  0  0  0  0  0
  190.4830  174.5940  137.5710 C   0  0  0  0  0  2  0  0  0  0  0  0
  189.5450  177.0970  138.5240 C   0  0  2  0  0  3  0  0  0  0  0  0
  191.8760  176.2860  137.0630 C   0  0  0  0  0  2  0  0  0  0  0  0
  190.7770  176.3870  139.1380 C   0  0  0  0  0  2  0  0  0  0  0  0
  190.5910  176.4540  136.3110 C   0  0  2  0  0  3  0  0  0  0  0  0
  189.7940  177.5260  137.0650 C   0  0  0  0  0  2  0  0  0  0  0  0
  191.4640  175.4860  138.1880 N   0  0  1  0  0  0  0  0  0  0  0  0
  189.9300  175.2180  136.4240 O   0  0  0  0  0  0  0  0  0  0  0  0
  1  6  2  0  0  0  0
  1  7  1  0  0  0  0
  2  3  2  0  0  0  0
  2 10  1  0  0  0  0
  3  4  1  0  0  0  0
  4  9  2  0  0  0  0
  5  1  1  0  0  0  0
  6  2  1  0  0  0  0
  7  3  1  0  0  0  0
  8  5  2  0  0  0  0
  8 12  1  0  0  0  0
  9 14  1  0  0  0  0
 10 13  2  0  0  0  0
 11  6  1  0  0  0  0
 12 11  2  0  0  0  0
 13  9  1  0  0  0  0
 13 18  1  0  0  0  0
 14 15  2  0  0  0  0
 14 16  1  0  0  0  0
 18 17  1  0  0  0  0
 19  4  1  0  0  0  0
 19 21  1  0  0  0  0
 21 20  1  1  0  0  0
 22 21  1  0  0  0  0
 23 22  1  0  0  0  0
 24  5  1  0  0  0  0
 25 31  1  0  0  0  0
 26 28  1  0  0  0  0
 26 24  1  1  0  0  0
 29 32  1  0  0  0  0
 29 27  1  1  0  0  0
 29 30  1  0  0  0  0
 30 26  1  0  0  0  0
 31 27  1  6  0  0  0
 31 28  1  0  0  0  0
 32 25  1  0  0  0  0
M  END
>  <MODEL>
8

>  <REMARK>
 VINA RESULT:      -7.8      2.981      5.743
  Name = 
  7 active torsions:
  status: ('A' for Active; 'I' for Inactive)
    1  A    between atoms: C_1  and  CA_25
    2  A    between atoms: C_3  and  N_29
    3  A    between atoms: C_7  and  N_22
    4  A    between atoms: C_9  and  N_29
    5  A    between atoms: O_15  and  C_30
    6  A    between atoms: C_18  and  C_19
    7  A    between atoms: N_22  and  CA_25
                            x       y       z     vdW  Elec       q    Type
                         _______ _______ _______ _____ _____    ______ ____

>  <TORSDO>
F 7

$$$$
=
 OpenBabel11062414103D

 32 36  0  0  1  0  0  0  0  0999 V2000
  189.1480  177.4640  141.7690 C   0  0  0  0  0  0  0  0  0  0  0  0
  187.6750  177.6440  143.3830 C   0  0  0  0  0  0  0  0  0  0  0  0
  187.1860  178.1340  142.1940 C   0  0  0  0  0  0  0  0  0  0  0  0
  185.9140  178.6880  142.0990 C   0  0  0  0  0  0  0  0  0  0  0  0
  190.3730  177.1340  141.1890 C   0  0  0  0  0  0  0  0  0  0  0  0
  188.9410  177.2110  143.0970 C   0  0  0  0  0  0  0  0  0  0  0  0
  188.0830  178.0210  141.2280 O   0  0  0  0  0  0  0  0  0  0  0  0
  191.3130  176.5530  141.9920 N   0  0  0  0  0  0  0  0  0  0  0  0
  185.1050  178.7030  143.2760 C   0  0  0  0  0  0  0  0  0  0  0  0
  186.9410  177.6680  144.5560 C   0  0  0  0  0  3  0  0  0  0  0  0
  189.8800  176.6430  143.8900 N   0  0  0  0  0  0  0  0  0  0  0  0
  191.0780  176.3110  143.3220 C   0  0  0  0  0  3  0  0  0  0  0  0
  185.6330  178.2010  144.5070 C   0  0  0  0  0  0  0  0  0  0  0  0
  183.6930  179.1420  143.2270 C   0  0  0  0  0  0  0  0  0  0  0  0
  183.3040  180.3190  143.8520 O   0  0  0  0  0  1  0  0  0  0  0  0
  182.8380  178.4710  142.5890 O   0  0  0  0  0  0  0  0  0  0  0  0
  185.3490  178.5290  146.9480 C   0  0  0  0  0  1  0  0  0  0  0  0
  184.8370  178.2170  145.6590 O   0  0  0  0  0  0  0  0  0  0  0  0
  185.5120  179.2610  140.8450 N   0  0  0  0  0  2  0  0  0  0  0  0
  185.7270  178.2230  138.6700 C   0  0  0  0  0  1  0  0  0  0  0  0
  184.7800  178.5520  139.8060 C   0  0  2  0  0  3  0  0  0  0  0  0
  183.6410  179.4200  139.2960 C   0  0  0  0  0  2  0  0  0  0  0  0
  184.1210  180.6820  138.9450 O   0  0  0  0  0  1  0  0  0  0  0  0
  190.6680  177.3760  139.8080 N   0  0  0  0  0  2  0  0  0  0  0  0
  191.0030  174.4300  136.7450 C   0  0  0  0  0  2  0  0  0  0  0  0
  190.5400  176.3730  138.7610 C   0  0  2  0  0  3  0  0  0  0  0  0
  190.3240  176.4010  135.9020 C   0  0  0  0  0  2  0  0  0  0  0  0
  191.7350  176.4680  137.7800 C   0  0  0  0  0  2  0  0  0  0  0  0
  189.2090  175.7860  136.6900 C   0  0  2  0  0  3  0  0  0  0  0  0
  189.1870  176.5180  138.0380 C   0  0  0  0  0  2  0  0  0  0  0  0
  191.4860  175.7870  136.4910 N   0  0  1  0  0  0  0  0  0  0  0  0
  189.5930  174.4480  136.8940 O   0  0  0  0  0  0  0  0  0  0  0  0
  1  6  2  0  0  0  0
  2 10  1  0  0  0  0
  3  2  2  0  0  0  0
  4  3  1  0  0  0  0
  4  9  2  0  0  0  0
  5  1  1  0  0  0  0
  5  8  2  0  0  0  0
  6  2  1  0  0  0  0
  6 11  1  0  0  0  0
  7  1  1  0  0  0  0
  7  3  1  0  0  0  0
  8 12  1  0  0  0  0
  9 13  1  0  0  0  0
 12 11  2  0  0  0  0
 13 10  2  0  0  0  0
 13 18  1  0  0  0  0
 14  9  1  0  0  0  0
 14 15  1  0  0  0  0
 16 14  2  0  0  0  0
 18 17  1  0  0  0  0
 19  4  1  0  0  0  0
 21 20  1  6  0  0  0
 21 19  1  0  0  0  0
 22 21  1  0  0  0  0
 23 22  1  0  0  0  0
 24  5  1  0  0  0  0
 25 32  1  0  0  0  0
 26 24  1  1  0  0  0
 28 26  1  0  0  0  0
 29 27  1  6  0  0  0
 29 32  1  0  0  0  0
 29 30  1  0  0  0  0
 30 26  1  0  0  0  0
 31 27  1  1  0  0  0
 31 25  1  0  0  0  0
 31 28  1  0  0  0  0
M  END
>  <MODEL>
9

>  <REMARK>
 VINA RESULT:      -7.7      2.876      6.626
  Name = 
  7 active torsions:
  status: ('A' for Active; 'I' for Inactive)
    1  A    between atoms: C_1  and  CA_25
    2  A    between atoms: C_3  and  N_29
    3  A    between atoms: C_7  and  N_22
    4  A    between atoms: C_9  and  N_29
    5  A    between atoms: O_15  and  C_30
    6  A    between atoms: C_18  and  C_19
    7  A    between atoms: N_22  and  CA_25
                            x       y       z     vdW  Elec       q    Type
                         _______ _______ _______ _____ _____    ______ ____

>  <TORSDO>
F 7

$$$$
