=
 OpenBabel11062413113D

 42 44  0  0  1  0  0  0  0  0999 V2000
  189.1560  177.1100  137.7260 C   0  0  1  0  0  3  0  0  0  0  0  0
  190.7380  175.8070  139.5640 O   0  0  0  0  0  0  0  0  0  0  0  0
  190.7640  175.3810  138.2440 N   0  0  0  0  0  2  0  0  0  0  0  0
  190.5210  176.5300  137.3750 C   0  0  0  0  0  2  0  0  0  0  0  0
  189.0820  177.4010  139.1570 N   0  0  0  0  0  0  0  0  0  0  0  0
  189.8060  176.7530  140.0210 C   0  0  0  0  0  0  0  0  0  0  0  0
  190.5610  178.1200  143.5640 C   0  0  1  0  0  3  0  0  0  0  0  0
  189.7060  177.0730  141.4650 C   0  0  0  0  0  0  0  0  0  0  0  0
  190.7230  177.6800  142.1260 C   0  0  0  0  0  0  0  0  0  0  0  0
  187.9540  177.4890  145.4150 C   0  0  0  0  0  0  0  0  0  0  0  0
  187.2470  177.4000  144.1650 N   0  0  0  0  0  2  0  0  0  0  0  0
  190.2550  176.9390  144.4980 C   0  0  2  0  0  3  0  0  0  0  0  0
  187.7500  177.7870  142.8530 C   0  0  0  0  0  2  0  0  0  0  0  0
  189.2720  177.2980  145.5700 C   0  0  0  0  0  3  0  0  0  0  0  0
  188.4610  176.6210  142.1890 C   0  0  0  0  0  2  0  0  0  0  0  0
  191.9760  177.8930  141.4780 N   0  0  0  0  0  1  0  0  0  0  0  0
  187.1530  177.7210  146.6450 C   0  0  0  0  0  1  0  0  0  0  0  0
  191.9840  176.6150  146.2900 O   0  0  0  0  0  1  0  0  0  0  0  0
  192.0530  175.3760  144.3650 O   0  0  0  0  0  0  0  0  0  0  0  0
  191.4720  176.2590  145.0480 C   0  0  0  0  0  0  0  0  0  0  0  0
  191.3590  180.1640  144.4570 O   0  0  0  0  0  0  0  0  0  0  0  0
  191.6400  179.0490  144.0470 C   0  0  0  0  0  3  0  0  0  0  0  0
  188.8900  178.3700  136.9200 C   0  0  0  0  0  2  0  0  0  0  0  0
  187.2410  177.9360  134.8270 S   0  0  0  0  0  0  0  0  0  0  0  0
  187.4940  178.3610  136.3930 C   0  0  0  0  0  0  0  0  0  0  0  0
  186.4000  178.5650  137.2980 N   0  0  0  0  0  2  0  0  0  0  0  0
  185.2830  177.6370  137.4550 C   0  0  0  0  0  2  0  0  0  0  0  0
  184.4610  178.0010  138.6790 C   0  0  0  0  0  2  0  0  0  0  0  0
  185.0140  179.0400  140.7640 C   0  0  0  0  0  3  0  0  0  0  0  0
  185.1810  178.9500  139.4910 N   0  0  0  0  0  0  0  0  0  0  0  0
  184.0430  178.1740  141.5190 C   0  0  0  0  0  2  0  0  0  0  0  0
  183.0180  178.9840  142.3150 C   0  0  2  0  0  3  0  0  0  0  0  0
  182.5940  178.6510  144.6540 O   0  0  0  0  0  1  0  0  0  0  0  0
  183.3770  179.0840  143.7660 C   0  0  0  0  0  0  0  0  0  0  0  0
  184.6000  179.6310  144.1310 O   0  0  0  0  0  0  0  0  0  0  0  0
  181.5920  178.4870  142.0860 C   0  0  0  0  0  2  0  0  0  0  0  0
  179.9790  179.5670  138.5380 S   0  0  0  0  0  0  0  0  0  0  0  0
  181.2800  178.3800  140.5990 C   0  0  2  0  0  3  0  0  0  0  0  0
  181.0380  179.7520  140.0040 C   0  0  0  0  0  2  0  0  0  0  0  0
  179.5690  177.8450  138.9630 C   0  0  0  0  0  2  0  0  0  0  0  0
  180.0140  177.5860  140.3860 C   0  0  1  0  0  3  0  0  0  0  0  0
  180.2650  176.2230  140.5560 O   0  0  0  0  0  1  0  0  0  0  0  0
  1 23  1  6  0  0  0
  1  5  1  0  0  0  0
  2  6  1  0  0  0  0
  3  2  1  0  0  0  0
  4  1  1  0  0  0  0
  4  3  1  0  0  0  0
  5  6  2  0  0  0  0
  6  8  1  0  0  0  0
  7 22  1  1  0  0  0
  7 12  1  0  0  0  0
  8  9  2  0  0  0  0
  8 15  1  0  0  0  0
  9  7  1  0  0  0  0
 10 14  2  0  0  0  0
 10 17  1  0  0  0  0
 11 10  1  0  0  0  0
 12 20  1  1  0  0  0
 12 14  1  0  0  0  0
 13 11  1  0  0  0  0
 15 13  1  0  0  0  0
 16  9  1  0  0  0  0
 19 20  2  0  0  0  0
 20 18  1  0  0  0  0
 22 21  2  0  0  0  0
 24 25  2  0  0  0  0
 25 23  1  0  0  0  0
 25 26  1  0  0  0  0
 26 27  1  0  0  0  0
 27 28  1  0  0  0  0
 28 30  1  0  0  0  0
 29 31  1  0  0  0  0
 30 29  2  0  0  0  0
 32 31  1  6  0  0  0
 32 34  1  0  0  0  0
 34 35  2  0  0  0  0
 34 33  1  0  0  0  0
 36 32  1  0  0  0  0
 37 40  1  0  0  0  0
 37 39  1  0  0  0  0
 38 36  1  1  0  0  0
 39 38  1  0  0  0  0
 40 41  1  0  0  0  0
 41 42  1  6  0  0  0
 41 38  1  0  0  0  0
M  END
>  <MODEL>
1

>  <REMARK>
 VINA RESULT:      -7.9      0.000      0.000
  Name = 
  14 active torsions:
  status: ('A' for Active; 'I' for Inactive)
    1  A    between atoms: C_3  and  C_10
    2  A    between atoms: C_3  and  C_16
    3  A    between atoms: C_4  and  C_7
    4  A    between atoms: C_4  and  N_27
    5  A    between atoms: C_5  and  C_20
    6  A    between atoms: C_7  and  N_18
    7  A    between atoms: C_8  and  C_41
    8  A    between atoms: C_9  and  C_23
    9  A    between atoms: C_10  and  C_36
   10  A    between atoms: C_10  and  C_40
   11  A    between atoms: C_12  and  C_40
   12  A    between atoms: C_22  and  C_23
   13  A    between atoms: C_22  and  N_27
   14  A    between atoms: C_29  and  C_37
                            x       y       z     vdW  Elec       q    Type
                         _______ _______ _______ _____ _____    ______ ____

>  <TORSDO>
F 14

$$$$
=
 OpenBabel11062413113D

 42 44  0  0  1  0  0  0  0  0999 V2000
  188.9330  177.5010  138.1950 C   0  0  1  0  0  3  0  0  0  0  0  0
  187.2120  179.3110  137.0360 O   0  0  0  0  0  0  0  0  0  0  0  0
  188.5430  179.6680  137.2000 N   0  0  0  0  0  2  0  0  0  0  0  0
  189.3680  178.4670  137.1000 C   0  0  0  0  0  2  0  0  0  0  0  0
  187.4930  177.2600  138.1160 N   0  0  0  0  0  0  0  0  0  0  0  0
  186.6830  178.1380  137.6000 C   0  0  0  0  0  0  0  0  0  0  0  0
  182.8470  178.4210  138.0340 C   0  0  1  0  0  3  0  0  0  0  0  0
  185.2290  177.8630  137.5360 C   0  0  0  0  0  0  0  0  0  0  0  0
  184.3350  178.6270  138.2110 C   0  0  0  0  0  0  0  0  0  0  0  0
  181.5010  176.0180  136.2930 C   0  0  0  0  0  0  0  0  0  0  0  0
  182.7440  176.0200  135.5680 N   0  0  0  0  0  2  0  0  0  0  0  0
  182.4080  177.0080  138.4460 C   0  0  2  0  0  3  0  0  0  0  0  0
  183.8030  177.0170  135.6620 C   0  0  0  0  0  2  0  0  0  0  0  0
  181.3420  176.4570  137.5500 C   0  0  0  0  0  3  0  0  0  0  0  0
  184.7880  176.6470  136.7560 C   0  0  0  0  0  2  0  0  0  0  0  0
  184.7870  179.6290  139.1210 N   0  0  0  0  0  1  0  0  0  0  0  0
  180.3190  175.4020  135.6340 C   0  0  0  0  0  1  0  0  0  0  0  0
  180.7560  176.5750  140.2880 O   0  0  0  0  0  0  0  0  0  0  0  0
  182.9440  177.0550  140.7710 O   0  0  0  0  0  1  0  0  0  0  0  0
  182.0570  176.8710  139.8960 C   0  0  0  0  0  0  0  0  0  0  0  0
  181.7120  180.4960  137.8930 O   0  0  0  0  0  0  0  0  0  0  0  0
  182.0030  179.5360  138.5880 C   0  0  0  0  0  3  0  0  0  0  0  0
  189.6910  176.1890  138.0790 C   0  0  0  0  0  2  0  0  0  0  0  0
  192.3830  176.2720  138.2700 S   0  0  0  0  0  0  0  0  0  0  0  0
  190.8940  176.2090  138.9620 C   0  0  0  0  0  0  0  0  0  0  0  0
  190.7240  176.3350  140.3800 N   0  0  0  0  0  2  0  0  0  0  0  0
  191.2350  177.4510  141.1720 C   0  0  0  0  0  2  0  0  0  0  0  0
  191.3710  177.0480  142.6290 C   0  0  0  0  0  2  0  0  0  0  0  0
  190.5680  178.3160  144.4950 C   0  0  0  0  0  3  0  0  0  0  0  0
  191.3380  178.2200  143.4690 N   0  0  0  0  0  0  0  0  0  0  0  0
  189.6210  177.2200  144.9060 C   0  0  0  0  0  2  0  0  0  0  0  0
  188.4960  177.7170  145.8130 C   0  0  2  0  0  3  0  0  0  0  0  0
  189.9200  177.1420  147.6580 O   0  0  0  0  0  0  0  0  0  0  0  0
  188.7570  177.4150  147.2580 C   0  0  0  0  0  0  0  0  0  0  0  0
  187.7090  177.4670  148.1660 O   0  0  0  0  0  1  0  0  0  0  0  0
  187.1250  177.2350  145.3420 C   0  0  0  0  0  2  0  0  0  0  0  0
  183.8220  179.3610  144.3780 S   0  0  0  0  0  0  0  0  0  0  0  0
  186.3240  178.3750  144.7280 C   0  0  2  0  0  3  0  0  0  0  0  0
  185.0360  178.5970  145.4950 C   0  0  0  0  0  2  0  0  0  0  0  0
  184.8420  179.0080  142.9130 C   0  0  0  0  0  2  0  0  0  0  0  0
  185.9290  178.0330  143.3110 C   0  0  1  0  0  3  0  0  0  0  0  0
  187.0240  178.1810  142.4570 O   0  0  0  0  0  1  0  0  0  0  0  0
  1 23  1  6  0  0  0
  2  3  1  0  0  0  0
  2  6  1  0  0  0  0
  4  3  1  0  0  0  0
  4  1  1  0  0  0  0
  5  1  1  0  0  0  0
  6  5  2  0  0  0  0
  7  9  1  0  0  0  0
  7 12  1  0  0  0  0
  7 22  1  1  0  0  0
  8  6  1  0  0  0  0
  8  9  2  0  0  0  0
  9 16  1  0  0  0  0
 10 14  2  0  0  0  0
 11 13  1  0  0  0  0
 11 10  1  0  0  0  0
 12 20  1  1  0  0  0
 13 15  1  0  0  0  0
 14 12  1  0  0  0  0
 15  8  1  0  0  0  0
 17 10  1  0  0  0  0
 20 18  2  0  0  0  0
 20 19  1  0  0  0  0
 21 22  2  0  0  0  0
 23 25  1  0  0  0  0
 24 25  2  0  0  0  0
 25 26  1  0  0  0  0
 26 27  1  0  0  0  0
 27 28  1  0  0  0  0
 28 30  1  0  0  0  0
 29 31  1  0  0  0  0
 30 29  2  0  0  0  0
 32 31  1  6  0  0  0
 32 34  1  0  0  0  0
 34 33  2  0  0  0  0
 34 35  1  0  0  0  0
 36 32  1  0  0  0  0
 37 39  1  0  0  0  0
 38 36  1  1  0  0  0
 38 39  1  0  0  0  0
 40 41  1  0  0  0  0
 40 37  1  0  0  0  0
 41 42  1  6  0  0  0
 41 38  1  0  0  0  0
M  END
>  <MODEL>
2

>  <REMARK>
 VINA RESULT:      -7.5      2.813      7.810
  Name = 
  14 active torsions:
  status: ('A' for Active; 'I' for Inactive)
    1  A    between atoms: C_3  and  C_10
    2  A    between atoms: C_3  and  C_16
    3  A    between atoms: C_4  and  C_7
    4  A    between atoms: C_4  and  N_27
    5  A    between atoms: C_5  and  C_20
    6  A    between atoms: C_7  and  N_18
    7  A    between atoms: C_8  and  C_41
    8  A    between atoms: C_9  and  C_23
    9  A    between atoms: C_10  and  C_36
   10  A    between atoms: C_10  and  C_40
   11  A    between atoms: C_12  and  C_40
   12  A    between atoms: C_22  and  C_23
   13  A    between atoms: C_22  and  N_27
   14  A    between atoms: C_29  and  C_37
                            x       y       z     vdW  Elec       q    Type
                         _______ _______ _______ _____ _____    ______ ____

>  <TORSDO>
F 14

$$$$
=
 OpenBabel11062413113D

 42 44  0  0  1  0  0  0  0  0999 V2000
  188.3500  177.2530  137.5420 C   0  0  1  0  0  3  0  0  0  0  0  0
  186.4870  179.2690  137.3250 O   0  0  0  0  0  0  0  0  0  0  0  0
  187.7020  179.4130  136.6710 N   0  0  0  0  0  2  0  0  0  0  0  0
  188.1850  178.0910  136.2800 C   0  0  0  0  0  2  0  0  0  0  0  0
  187.1060  177.2450  138.3110 N   0  0  0  0  0  0  0  0  0  0  0  0
  186.2500  178.2210  138.2300 C   0  0  0  0  0  0  0  0  0  0  0  0
  182.6830  177.3600  139.4650 C   0  0  1  0  0  3  0  0  0  0  0  0
  184.9990  178.1810  139.0230 C   0  0  0  0  0  0  0  0  0  0  0  0
  183.9070  177.5050  138.5890 C   0  0  0  0  0  0  0  0  0  0  0  0
  182.2870  178.8140  142.3540 C   0  0  0  0  0  0  0  0  0  0  0  0
  183.7250  178.8270  142.4010 N   0  0  0  0  0  2  0  0  0  0  0  0
  182.0700  178.7210  139.8270 C   0  0  2  0  0  3  0  0  0  0  0  0
  184.6300  178.1270  141.4980 C   0  0  0  0  0  2  0  0  0  0  0  0
  181.5530  178.7580  141.2330 C   0  0  0  0  0  3  0  0  0  0  0  0
  184.9610  178.9930  140.2960 C   0  0  0  0  0  2  0  0  0  0  0  0
  183.8890  176.9340  137.2810 N   0  0  0  0  0  1  0  0  0  0  0  0
  181.5540  178.9630  143.6380 C   0  0  0  0  0  1  0  0  0  0  0  0
  179.7060  179.2240  139.1430 O   0  0  0  0  0  1  0  0  0  0  0  0
  181.4470  179.6270  137.7090 O   0  0  0  0  0  0  0  0  0  0  0  0
  181.0630  179.2250  138.8390 C   0  0  0  0  0  0  0  0  0  0  0  0
  181.2030  175.5340  139.7630 O   0  0  0  0  0  0  0  0  0  0  0  0
  181.7000  176.3290  138.9810 C   0  0  0  0  0  3  0  0  0  0  0  0
  188.7570  175.8330  137.1880 C   0  0  0  0  0  2  0  0  0  0  0  0
  191.2200  175.5960  136.1060 S   0  0  0  0  0  0  0  0  0  0  0  0
  190.2210  175.6460  137.4090 C   0  0  0  0  0  0  0  0  0  0  0  0
  190.7390  175.6740  138.7470 N   0  0  0  0  0  2  0  0  0  0  0  0
  191.2590  176.8720  139.3990 C   0  0  0  0  0  2  0  0  0  0  0  0
  190.7570  176.9570  140.8290 C   0  0  0  0  0  2  0  0  0  0  0  0
  188.6960  177.5640  141.8860 C   0  0  0  0  0  3  0  0  0  0  0  0
  189.4730  177.6120  140.8620 N   0  0  0  0  0  0  0  0  0  0  0  0
  189.0510  176.8110  143.1400 C   0  0  0  0  0  2  0  0  0  0  0  0
  189.2110  177.7230  144.3570 C   0  0  2  0  0  3  0  0  0  0  0  0
  190.7290  179.5260  143.9030 O   0  0  0  0  0  0  0  0  0  0  0  0
  190.5570  178.3800  144.3980 C   0  0  0  0  0  0  0  0  0  0  0  0
  191.6160  177.7300  145.0170 O   0  0  0  0  0  1  0  0  0  0  0  0
  188.8560  177.0080  145.6600 C   0  0  0  0  0  2  0  0  0  0  0  0
  185.3470  179.0180  145.7150 S   0  0  0  0  0  0  0  0  0  0  0  0
  187.4260  177.3170  146.0820 C   0  0  2  0  0  3  0  0  0  0  0  0
  186.6840  178.0350  144.9730 C   0  0  0  0  0  2  0  0  0  0  0  0
  186.0180  178.7980  147.3920 C   0  0  0  0  0  2  0  0  0  0  0  0
  187.4210  178.2410  147.2750 C   0  0  1  0  0  3  0  0  0  0  0  0
  187.7410  177.5330  148.4360 O   0  0  0  0  0  1  0  0  0  0  0  0
  1 23  1  6  0  0  0
  1  5  1  0  0  0  0
  2  6  1  0  0  0  0
  3  2  1  0  0  0  0
  4  3  1  0  0  0  0
  4  1  1  0  0  0  0
  6  5  2  0  0  0  0
  6  8  1  0  0  0  0
  7 22  1  6  0  0  0
  7 12  1  0  0  0  0
  8 15  1  0  0  0  0
  9  8  2  0  0  0  0
  9  7  1  0  0  0  0
 10 11  1  0  0  0  0
 10 17  1  0  0  0  0
 12 20  1  6  0  0  0
 12 14  1  0  0  0  0
 13 11  1  0  0  0  0
 14 10  2  0  0  0  0
 15 13  1  0  0  0  0
 16  9  1  0  0  0  0
 19 20  2  0  0  0  0
 20 18  1  0  0  0  0
 22 21  2  0  0  0  0
 23 25  1  0  0  0  0
 24 25  2  0  0  0  0
 25 26  1  0  0  0  0
 26 27  1  0  0  0  0
 27 28  1  0  0  0  0
 28 30  1  0  0  0  0
 29 31  1  0  0  0  0
 30 29  2  0  0  0  0
 32 31  1  6  0  0  0
 32 34  1  0  0  0  0
 32 36  1  0  0  0  0
 33 34  2  0  0  0  0
 34 35  1  0  0  0  0
 37 40  1  0  0  0  0
 38 36  1  6  0  0  0
 38 41  1  0  0  0  0
 39 37  1  0  0  0  0
 39 38  1  0  0  0  0
 41 40  1  0  0  0  0
 41 42  1  1  0  0  0
M  END
>  <MODEL>
3

>  <REMARK>
 VINA RESULT:      -7.3      2.649      7.765
  Name = 
  14 active torsions:
  status: ('A' for Active; 'I' for Inactive)
    1  A    between atoms: C_3  and  C_10
    2  A    between atoms: C_3  and  C_16
    3  A    between atoms: C_4  and  C_7
    4  A    between atoms: C_4  and  N_27
    5  A    between atoms: C_5  and  C_20
    6  A    between atoms: C_7  and  N_18
    7  A    between atoms: C_8  and  C_41
    8  A    between atoms: C_9  and  C_23
    9  A    between atoms: C_10  and  C_36
   10  A    between atoms: C_10  and  C_40
   11  A    between atoms: C_12  and  C_40
   12  A    between atoms: C_22  and  C_23
   13  A    between atoms: C_22  and  N_27
   14  A    between atoms: C_29  and  C_37
                            x       y       z     vdW  Elec       q    Type
                         _______ _______ _______ _____ _____    ______ ____

>  <TORSDO>
F 14

$$$$
=
 OpenBabel11062413113D

 42 44  0  0  1  0  0  0  0  0999 V2000
  188.6210  176.9370  137.9870 C   0  0  1  0  0  3  0  0  0  0  0  0
  190.5700  175.9740  139.6770 O   0  0  0  0  0  0  0  0  0  0  0  0
  190.5500  175.5290  138.3620 N   0  0  0  0  0  2  0  0  0  0  0  0
  190.0300  176.5980  137.5130 C   0  0  0  0  0  2  0  0  0  0  0  0
  188.6280  177.2430  139.4170 N   0  0  0  0  0  0  0  0  0  0  0  0
  189.5310  176.7520  140.2140 C   0  0  0  0  0  0  0  0  0  0  0  0
  190.4730  178.1460  143.7010 C   0  0  1  0  0  3  0  0  0  0  0  0
  189.5090  177.0820  141.6580 C   0  0  0  0  0  0  0  0  0  0  0  0
  190.5580  177.6960  142.2590 C   0  0  0  0  0  0  0  0  0  0  0  0
  187.9730  177.5210  145.6940 C   0  0  0  0  0  0  0  0  0  0  0  0
  187.1980  177.4220  144.4850 N   0  0  0  0  0  2  0  0  0  0  0  0
  190.2220  176.9710  144.6570 C   0  0  2  0  0  3  0  0  0  0  0  0
  187.6290  177.8010  143.1450 C   0  0  0  0  0  2  0  0  0  0  0  0
  189.2980  177.3350  145.7790 C   0  0  0  0  0  3  0  0  0  0  0  0
  188.3060  176.6320  142.4520 C   0  0  0  0  0  2  0  0  0  0  0  0
  191.7740  177.9090  141.5420 N   0  0  0  0  0  1  0  0  0  0  0  0
  187.2390  177.7610  146.9650 C   0  0  0  0  0  1  0  0  0  0  0  0
  192.0120  176.6210  146.3840 O   0  0  0  0  0  1  0  0  0  0  0  0
  192.0470  175.4540  144.4130 O   0  0  0  0  0  0  0  0  0  0  0  0
  191.4690  176.2990  145.1460 C   0  0  0  0  0  0  0  0  0  0  0  0
  191.3300  180.2520  144.3680 O   0  0  0  0  0  0  0  0  0  0  0  0
  191.5740  179.0820  144.1170 C   0  0  0  0  0  3  0  0  0  0  0  0
  188.0650  178.1120  137.2020 C   0  0  0  0  0  2  0  0  0  0  0  0
  187.0000  177.8690  134.7330 S   0  0  0  0  0  0  0  0  0  0  0  0
  186.9130  177.6720  136.3610 C   0  0  0  0  0  0  0  0  0  0  0  0
  185.8340  176.9480  136.9700 N   0  0  0  0  0  2  0  0  0  0  0  0
  185.2820  175.7040  136.4420 C   0  0  0  0  0  2  0  0  0  0  0  0
  184.2700  175.1200  137.4120 C   0  0  0  0  0  2  0  0  0  0  0  0
  182.2570  176.4060  137.5790 C   0  0  0  0  0  3  0  0  0  0  0  0
  182.9340  175.4760  137.0030 N   0  0  0  0  0  0  0  0  0  0  0  0
  182.7910  177.2000  138.7410 C   0  0  0  0  0  2  0  0  0  0  0  0
  182.9130  178.6930  138.4360 C   0  0  2  0  0  3  0  0  0  0  0  0
  184.3320  180.5470  138.9920 O   0  0  0  0  0  0  0  0  0  0  0  0
  184.0980  179.3150  139.1100 C   0  0  0  0  0  0  0  0  0  0  0  0
  184.9260  178.5270  139.8980 O   0  0  0  0  0  1  0  0  0  0  0  0
  181.6100  179.4420  138.7090 C   0  0  0  0  0  2  0  0  0  0  0  0
  179.9920  182.5980  136.7650 S   0  0  0  0  0  0  0  0  0  0  0  0
  181.2020  180.2880  137.5110 C   0  0  2  0  0  3  0  0  0  0  0  0
  181.1480  181.7560  137.8870 C   0  0  0  0  0  2  0  0  0  0  0  0
  179.3380  181.0190  136.1380 C   0  0  0  0  0  2  0  0  0  0  0  0
  179.8150  179.9090  137.0500 C   0  0  1  0  0  3  0  0  0  0  0  0
  179.8550  178.7070  136.3410 O   0  0  0  0  0  1  0  0  0  0  0  0
  1 23  1  6  0  0  0
  1  5  1  0  0  0  0
  2  6  1  0  0  0  0
  3  2  1  0  0  0  0
  4  1  1  0  0  0  0
  4  3  1  0  0  0  0
  5  6  2  0  0  0  0
  6  8  1  0  0  0  0
  7 22  1  1  0  0  0
  7 12  1  0  0  0  0
  8  9  2  0  0  0  0
  8 15  1  0  0  0  0
  9  7  1  0  0  0  0
 10 14  2  0  0  0  0
 10 17  1  0  0  0  0
 11 10  1  0  0  0  0
 12 20  1  1  0  0  0
 12 14  1  0  0  0  0
 13 11  1  0  0  0  0
 15 13  1  0  0  0  0
 16  9  1  0  0  0  0
 19 20  2  0  0  0  0
 20 18  1  0  0  0  0
 22 21  2  0  0  0  0
 24 25  2  0  0  0  0
 25 26  1  0  0  0  0
 25 23  1  0  0  0  0
 27 26  1  0  0  0  0
 27 28  1  0  0  0  0
 29 31  1  0  0  0  0
 30 28  1  0  0  0  0
 30 29  2  0  0  0  0
 32 36  1  1  0  0  0
 32 31  1  0  0  0  0
 32 34  1  0  0  0  0
 33 34  2  0  0  0  0
 34 35  1  0  0  0  0
 37 39  1  0  0  0  0
 38 39  1  0  0  0  0
 38 36  1  1  0  0  0
 40 37  1  0  0  0  0
 40 41  1  0  0  0  0
 41 42  1  6  0  0  0
 41 38  1  0  0  0  0
M  END
>  <MODEL>
4

>  <REMARK>
 VINA RESULT:      -7.1      2.095      2.583
  Name = 
  14 active torsions:
  status: ('A' for Active; 'I' for Inactive)
    1  A    between atoms: C_3  and  C_10
    2  A    between atoms: C_3  and  C_16
    3  A    between atoms: C_4  and  C_7
    4  A    between atoms: C_4  and  N_27
    5  A    between atoms: C_5  and  C_20
    6  A    between atoms: C_7  and  N_18
    7  A    between atoms: C_8  and  C_41
    8  A    between atoms: C_9  and  C_23
    9  A    between atoms: C_10  and  C_36
   10  A    between atoms: C_10  and  C_40
   11  A    between atoms: C_12  and  C_40
   12  A    between atoms: C_22  and  C_23
   13  A    between atoms: C_22  and  N_27
   14  A    between atoms: C_29  and  C_37
                            x       y       z     vdW  Elec       q    Type
                         _______ _______ _______ _____ _____    ______ ____

>  <TORSDO>
F 14

$$$$
=
 OpenBabel11062413113D

 42 44  0  0  1  0  0  0  0  0999 V2000
  188.6700  176.9190  138.0260 C   0  0  1  0  0  3  0  0  0  0  0  0
  190.6490  175.9190  139.6590 O   0  0  0  0  0  0  0  0  0  0  0  0
  190.5950  175.4900  138.3410 N   0  0  0  0  0  2  0  0  0  0  0  0
  190.0640  176.5730  137.5160 C   0  0  0  0  0  2  0  0  0  0  0  0
  188.7130  177.2080  139.4590 N   0  0  0  0  0  0  0  0  0  0  0  0
  189.6300  176.7000  140.2290 C   0  0  0  0  0  0  0  0  0  0  0  0
  190.6830  178.0130  143.7150 C   0  0  1  0  0  3  0  0  0  0  0  0
  189.6440  177.0140  141.6770 C   0  0  0  0  0  0  0  0  0  0  0  0
  190.7270  177.5770  142.2680 C   0  0  0  0  0  0  0  0  0  0  0  0
  188.1900  177.4700  145.7420 C   0  0  0  0  0  0  0  0  0  0  0  0
  187.3940  177.4170  144.5450 N   0  0  0  0  0  2  0  0  0  0  0  0
  190.3990  176.8380  144.6630 C   0  0  2  0  0  3  0  0  0  0  0  0
  187.8190  177.7930  143.2020 C   0  0  0  0  0  2  0  0  0  0  0  0
  189.5080  177.2270  145.8030 C   0  0  0  0  0  3  0  0  0  0  0  0
  188.4360  176.6050  142.4850 C   0  0  0  0  0  2  0  0  0  0  0  0
  191.9390  177.7470  141.5340 N   0  0  0  0  0  1  0  0  0  0  0  0
  187.4870  177.7250  147.0260 C   0  0  0  0  0  1  0  0  0  0  0  0
  192.2040  176.4000  146.3530 O   0  0  0  0  0  1  0  0  0  0  0  0
  192.1500  175.2430  144.3760 O   0  0  0  0  0  0  0  0  0  0  0  0
  191.6240  176.1090  145.1240 C   0  0  0  0  0  0  0  0  0  0  0  0
  191.6730  180.1030  144.2290 O   0  0  0  0  0  0  0  0  0  0  0  0
  191.8290  178.8970  144.1250 C   0  0  0  0  0  3  0  0  0  0  0  0
  188.1060  178.1080  137.2670 C   0  0  0  0  0  2  0  0  0  0  0  0
  187.7730  177.4860  134.6610 S   0  0  0  0  0  0  0  0  0  0  0  0
  187.1870  177.6420  136.1880 C   0  0  0  0  0  0  0  0  0  0  0  0
  185.8700  177.1900  136.5320 N   0  0  0  0  0  2  0  0  0  0  0  0
  185.1690  177.5660  137.7570 C   0  0  0  0  0  2  0  0  0  0  0  0
  183.6670  177.5160  137.5440 C   0  0  0  0  0  2  0  0  0  0  0  0
  181.9130  178.8460  138.4880 C   0  0  0  0  0  3  0  0  0  0  0  0
  183.0720  178.7700  137.9350 N   0  0  0  0  0  0  0  0  0  0  0  0
  181.0650  177.6330  138.7660 C   0  0  0  0  0  2  0  0  0  0  0  0
  180.8700  177.3750  140.2610 C   0  0  2  0  0  3  0  0  0  0  0  0
  178.9440  176.0450  139.7260 O   0  0  0  0  0  0  0  0  0  0  0  0
  179.5260  176.7860  140.5640 C   0  0  0  0  0  0  0  0  0  0  0  0
  178.9310  177.0380  141.7930 O   0  0  0  0  0  1  0  0  0  0  0  0
  181.1830  178.6120  141.1020 C   0  0  0  0  0  2  0  0  0  0  0  0
  183.0300  179.1610  144.6570 S   0  0  0  0  0  0  0  0  0  0  0  0
  182.0720  178.2590  142.2860 C   0  0  2  0  0  3  0  0  0  0  0  0
  181.6110  178.9840  143.5350 C   0  0  0  0  0  2  0  0  0  0  0  0
  184.2100  178.6770  143.3580 C   0  0  0  0  0  2  0  0  0  0  0  0
  183.4900  178.7050  142.0260 C   0  0  1  0  0  3  0  0  0  0  0  0
  184.1170  177.8270  141.1390 O   0  0  0  0  0  1  0  0  0  0  0  0
  1 23  1  6  0  0  0
  1  5  1  0  0  0  0
  2  6  1  0  0  0  0
  3  2  1  0  0  0  0
  4  1  1  0  0  0  0
  4  3  1  0  0  0  0
  5  6  2  0  0  0  0
  6  8  1  0  0  0  0
  7 22  1  1  0  0  0
  7 12  1  0  0  0  0
  8  9  2  0  0  0  0
  8 15  1  0  0  0  0
  9  7  1  0  0  0  0
 10 14  2  0  0  0  0
 10 17  1  0  0  0  0
 11 10  1  0  0  0  0
 12 20  1  1  0  0  0
 12 14  1  0  0  0  0
 13 11  1  0  0  0  0
 15 13  1  0  0  0  0
 16  9  1  0  0  0  0
 19 20  2  0  0  0  0
 20 18  1  0  0  0  0
 22 21  2  0  0  0  0
 24 25  2  0  0  0  0
 25 26  1  0  0  0  0
 25 23  1  0  0  0  0
 26 27  1  0  0  0  0
 28 27  1  0  0  0  0
 28 30  1  0  0  0  0
 29 31  1  0  0  0  0
 30 29  2  0  0  0  0
 32 31  1  6  0  0  0
 32 34  1  0  0  0  0
 32 36  1  0  0  0  0
 33 34  2  0  0  0  0
 34 35  1  0  0  0  0
 38 36  1  6  0  0  0
 38 39  1  0  0  0  0
 39 37  1  0  0  0  0
 40 37  1  0  0  0  0
 41 42  1  6  0  0  0
 41 38  1  0  0  0  0
 41 40  1  0  0  0  0
M  END
>  <MODEL>
5

>  <REMARK>
 VINA RESULT:      -7.0      1.585      2.755
  Name = 
  14 active torsions:
  status: ('A' for Active; 'I' for Inactive)
    1  A    between atoms: C_3  and  C_10
    2  A    between atoms: C_3  and  C_16
    3  A    between atoms: C_4  and  C_7
    4  A    between atoms: C_4  and  N_27
    5  A    between atoms: C_5  and  C_20
    6  A    between atoms: C_7  and  N_18
    7  A    between atoms: C_8  and  C_41
    8  A    between atoms: C_9  and  C_23
    9  A    between atoms: C_10  and  C_36
   10  A    between atoms: C_10  and  C_40
   11  A    between atoms: C_12  and  C_40
   12  A    between atoms: C_22  and  C_23
   13  A    between atoms: C_22  and  N_27
   14  A    between atoms: C_29  and  C_37
                            x       y       z     vdW  Elec       q    Type
                         _______ _______ _______ _____ _____    ______ ____

>  <TORSDO>
F 14

$$$$
=
 OpenBabel11062413113D

 42 44  0  0  1  0  0  0  0  0999 V2000
  184.9900  178.5610  143.4840 C   0  0  1  0  0  3  0  0  0  0  0  0
  185.9380  178.5070  146.0680 O   0  0  0  0  0  0  0  0  0  0  0  0
  184.6620  179.0020  145.8370 N   0  0  0  0  0  2  0  0  0  0  0  0
  184.0900  178.3070  144.6870 C   0  0  0  0  0  2  0  0  0  0  0  0
  186.3690  178.1890  143.7960 N   0  0  0  0  0  0  0  0  0  0  0  0
  186.8180  178.2040  145.0170 C   0  0  0  0  0  0  0  0  0  0  0  0
  190.6530  177.7570  144.7340 C   0  0  1  0  0  3  0  0  0  0  0  0
  188.2220  177.8220  145.2980 C   0  0  0  0  0  0  0  0  0  0  0  0
  189.2060  178.0270  144.3880 C   0  0  0  0  0  0  0  0  0  0  0  0
  191.6740  176.4130  147.5220 C   0  0  0  0  0  0  0  0  0  0  0  0
  190.4500  176.9320  148.0720 N   0  0  0  0  0  2  0  0  0  0  0  0
  190.8910  176.2870  145.1110 C   0  0  2  0  0  3  0  0  0  0  0  0
  189.5360  177.8670  147.4280 C   0  0  0  0  0  2  0  0  0  0  0  0
  191.8800  176.1360  146.2260 C   0  0  0  0  0  3  0  0  0  0  0  0
  188.5000  177.1210  146.6060 C   0  0  0  0  0  2  0  0  0  0  0  0
  188.8860  178.4810  143.0730 N   0  0  0  0  0  1  0  0  0  0  0  0
  192.7660  176.0730  148.4710 C   0  0  0  0  0  1  0  0  0  0  0  0
  190.3560  175.3310  142.8510 O   0  0  0  0  0  0  0  0  0  0  0  0
  192.2420  174.6800  143.9770 O   0  0  0  0  0  1  0  0  0  0  0  0
  191.2070  175.3970  143.9480 C   0  0  0  0  0  0  0  0  0  0  0  0
  192.2000  179.3860  143.9810 O   0  0  0  0  0  0  0  0  0  0  0  0
  191.6370  178.3280  143.7500 C   0  0  0  0  0  3  0  0  0  0  0  0
  184.4970  177.7800  142.2770 C   0  0  0  0  0  2  0  0  0  0  0  0
  182.3100  179.0850  141.3790 S   0  0  0  0  0  0  0  0  0  0  0  0
  183.9050  178.7080  141.2690 C   0  0  0  0  0  0  0  0  0  0  0  0
  184.7660  179.3700  140.3320 N   0  0  0  0  0  2  0  0  0  0  0  0
  184.6180  179.2870  138.8820 C   0  0  0  0  0  2  0  0  0  0  0  0
  185.7480  178.4710  138.2800 C   0  0  0  0  0  2  0  0  0  0  0  0
  188.0500  178.3200  138.9240 C   0  0  0  0  0  3  0  0  0  0  0  0
  186.8050  178.3060  139.2470 N   0  0  0  0  0  0  0  0  0  0  0  0
  188.5180  178.4980  137.5040 C   0  0  0  0  0  2  0  0  0  0  0  0
  189.0370  177.2010  136.8830 C   0  0  2  0  0  3  0  0  0  0  0  0
  188.4670  175.7080  135.0910 O   0  0  0  0  0  0  0  0  0  0  0  0
  188.2870  176.8280  135.6400 C   0  0  0  0  0  0  0  0  0  0  0  0
  187.3640  177.7170  135.1070 O   0  0  0  0  0  1  0  0  0  0  0  0
  189.1040  176.0640  137.9020 C   0  0  0  0  0  2  0  0  0  0  0  0
  193.1280  176.1220  137.5100 S   0  0  0  0  0  0  0  0  0  0  0  0
  190.5360  175.5870  138.0980 C   0  0  2  0  0  3  0  0  0  0  0  0
  191.5030  176.7520  138.0230 C   0  0  0  0  0  2  0  0  0  0  0  0
  192.4330  174.5080  137.0360 C   0  0  0  0  0  2  0  0  0  0  0  0
  190.9250  174.6310  136.9970 C   0  0  1  0  0  3  0  0  0  0  0  0
  190.3480  173.3790  137.2200 O   0  0  0  0  0  1  0  0  0  0  0  0
  1 23  1  6  0  0  0
  1  5  1  0  0  0  0
  1  4  1  0  0  0  0
  3  2  1  0  0  0  0
  4  3  1  0  0  0  0
  5  6  2  0  0  0  0
  6  8  1  0  0  0  0
  6  2  1  0  0  0  0
  7 22  1  6  0  0  0
  7 12  1  0  0  0  0
  8 15  1  0  0  0  0
  9  7  1  0  0  0  0
  9  8  2  0  0  0  0
 10 11  1  0  0  0  0
 10 17  1  0  0  0  0
 12 20  1  6  0  0  0
 12 14  1  0  0  0  0
 13 11  1  0  0  0  0
 14 10  2  0  0  0  0
 15 13  1  0  0  0  0
 16  9  1  0  0  0  0
 18 20  2  0  0  0  0
 20 19  1  0  0  0  0
 22 21  2  0  0  0  0
 25 24  2  0  0  0  0
 25 23  1  0  0  0  0
 26 25  1  0  0  0  0
 27 26  1  0  0  0  0
 28 27  1  0  0  0  0
 28 30  1  0  0  0  0
 29 30  2  0  0  0  0
 31 29  1  0  0  0  0
 32 31  1  1  0  0  0
 32 36  1  0  0  0  0
 33 34  2  0  0  0  0
 34 32  1  0  0  0  0
 35 34  1  0  0  0  0
 37 39  1  0  0  0  0
 38 36  1  6  0  0  0
 39 38  1  0  0  0  0
 40 37  1  0  0  0  0
 41 40  1  0  0  0  0
 41 42  1  1  0  0  0
 41 38  1  0  0  0  0
M  END
>  <MODEL>
6

>  <REMARK>
 VINA RESULT:      -7.0      2.837      7.136
  Name = 
  14 active torsions:
  status: ('A' for Active; 'I' for Inactive)
    1  A    between atoms: C_3  and  C_10
    2  A    between atoms: C_3  and  C_16
    3  A    between atoms: C_4  and  C_7
    4  A    between atoms: C_4  and  N_27
    5  A    between atoms: C_5  and  C_20
    6  A    between atoms: C_7  and  N_18
    7  A    between atoms: C_8  and  C_41
    8  A    between atoms: C_9  and  C_23
    9  A    between atoms: C_10  and  C_36
   10  A    between atoms: C_10  and  C_40
   11  A    between atoms: C_12  and  C_40
   12  A    between atoms: C_22  and  C_23
   13  A    between atoms: C_22  and  N_27
   14  A    between atoms: C_29  and  C_37
                            x       y       z     vdW  Elec       q    Type
                         _______ _______ _______ _____ _____    ______ ____

>  <TORSDO>
F 14

$$$$
=
 OpenBabel11062413113D

 42 44  0  0  1  0  0  0  0  0999 V2000
  187.9420  176.8290  137.2770 C   0  0  1  0  0  3  0  0  0  0  0  0
  186.4450  179.1340  137.4370 O   0  0  0  0  0  0  0  0  0  0  0  0
  187.8060  179.2400  137.1850 N   0  0  0  0  0  2  0  0  0  0  0  0
  188.2380  178.0640  136.4340 C   0  0  0  0  0  2  0  0  0  0  0  0
  186.5360  176.8140  137.6780 N   0  0  0  0  0  0  0  0  0  0  0  0
  185.8480  177.9120  137.7870 C   0  0  0  0  0  0  0  0  0  0  0  0
  182.3170  178.9240  139.0100 C   0  0  1  0  0  3  0  0  0  0  0  0
  184.4250  177.8620  138.1970 C   0  0  0  0  0  0  0  0  0  0  0  0
  183.8010  178.9470  138.7180 C   0  0  0  0  0  0  0  0  0  0  0  0
  180.4120  176.2950  138.7350 C   0  0  0  0  0  0  0  0  0  0  0  0
  181.3920  175.8420  137.7840 N   0  0  0  0  0  2  0  0  0  0  0  0
  181.9470  177.8420  140.0350 C   0  0  2  0  0  3  0  0  0  0  0  0
  182.4800  176.6280  137.2170 C   0  0  0  0  0  2  0  0  0  0  0  0
  180.6430  177.1780  139.7180 C   0  0  0  0  0  3  0  0  0  0  0  0
  183.7200  176.5310  138.0880 C   0  0  0  0  0  2  0  0  0  0  0  0
  184.5440  180.1270  139.0220 N   0  0  0  0  0  1  0  0  0  0  0  0
  179.0630  175.6740  138.6830 C   0  0  0  0  0  1  0  0  0  0  0  0
  180.8710  178.6470  142.1560 O   0  0  0  0  0  1  0  0  0  0  0  0
  183.1430  178.3840  142.0270 O   0  0  0  0  0  0  0  0  0  0  0  0
  182.0220  178.2950  141.4610 C   0  0  0  0  0  0  0  0  0  0  0  0
  180.5960  180.5480  138.8890 O   0  0  0  0  0  0  0  0  0  0  0  0
  181.7230  180.2800  139.2750 C   0  0  0  0  0  3  0  0  0  0  0  0
  188.2810  175.5650  136.5050 C   0  0  0  0  0  2  0  0  0  0  0  0
  190.6580  175.0970  135.3130 S   0  0  0  0  0  0  0  0  0  0  0  0
  189.7290  175.2380  136.6600 C   0  0  0  0  0  0  0  0  0  0  0  0
  190.3070  175.2130  137.9730 N   0  0  0  0  0  2  0  0  0  0  0  0
  191.3540  176.1250  138.4240 C   0  0  0  0  0  2  0  0  0  0  0  0
  190.8020  177.0980  139.4510 C   0  0  0  0  0  2  0  0  0  0  0  0
  191.7740  177.3170  141.6280 C   0  0  0  0  0  3  0  0  0  0  0  0
  191.8480  177.5030  140.3570 N   0  0  0  0  0  0  0  0  0  0  0  0
  190.5850  176.6720  142.2880 C   0  0  0  0  0  2  0  0  0  0  0  0
  189.8680  177.6050  143.2640 C   0  0  2  0  0  3  0  0  0  0  0  0
  191.0540  179.5690  143.9700 O   0  0  0  0  0  0  0  0  0  0  0  0
  190.8250  178.3430  144.1500 C   0  0  0  0  0  0  0  0  0  0  0  0
  191.4420  177.6720  145.1970 O   0  0  0  0  0  1  0  0  0  0  0  0
  188.7690  176.8850  144.0430 C   0  0  0  0  0  2  0  0  0  0  0  0
  186.0750  178.2570  146.7290 S   0  0  0  0  0  0  0  0  0  0  0  0
  187.8020  177.8780  144.6740 C   0  0  2  0  0  3  0  0  0  0  0  0
  187.6890  177.6390  146.1660 C   0  0  0  0  0  2  0  0  0  0  0  0
  185.4630  178.4230  145.0230 C   0  0  0  0  0  2  0  0  0  0  0  0
  186.4180  177.6950  144.1010 C   0  0  1  0  0  3  0  0  0  0  0  0
  186.3480  178.2530  142.8220 O   0  0  0  0  0  1  0  0  0  0  0  0
  1 23  1  6  0  0  0
  1  5  1  0  0  0  0
  2  6  1  0  0  0  0
  3  2  1  0  0  0  0
  4  3  1  0  0  0  0
  4  1  1  0  0  0  0
  5  6  2  0  0  0  0
  6  8  1  0  0  0  0
  7 22  1  1  0  0  0
  7 12  1  0  0  0  0
  8  9  2  0  0  0  0
  9  7  1  0  0  0  0
  9 16  1  0  0  0  0
 10 14  2  0  0  0  0
 11 10  1  0  0  0  0
 12 20  1  1  0  0  0
 13 11  1  0  0  0  0
 13 15  1  0  0  0  0
 14 12  1  0  0  0  0
 15  8  1  0  0  0  0
 17 10  1  0  0  0  0
 20 19  2  0  0  0  0
 20 18  1  0  0  0  0
 21 22  2  0  0  0  0
 23 25  1  0  0  0  0
 24 25  2  0  0  0  0
 25 26  1  0  0  0  0
 26 27  1  0  0  0  0
 27 28  1  0  0  0  0
 28 30  1  0  0  0  0
 29 31  1  0  0  0  0
 30 29  2  0  0  0  0
 32 31  1  1  0  0  0
 32 36  1  0  0  0  0
 32 34  1  0  0  0  0
 33 34  2  0  0  0  0
 34 35  1  0  0  0  0
 38 36  1  6  0  0  0
 38 39  1  0  0  0  0
 39 37  1  0  0  0  0
 40 37  1  0  0  0  0
 41 42  1  6  0  0  0
 41 38  1  0  0  0  0
 41 40  1  0  0  0  0
M  END
>  <MODEL>
7

>  <REMARK>
 VINA RESULT:      -6.9      2.684      7.853
  Name = 
  14 active torsions:
  status: ('A' for Active; 'I' for Inactive)
    1  A    between atoms: C_3  and  C_10
    2  A    between atoms: C_3  and  C_16
    3  A    between atoms: C_4  and  C_7
    4  A    between atoms: C_4  and  N_27
    5  A    between atoms: C_5  and  C_20
    6  A    between atoms: C_7  and  N_18
    7  A    between atoms: C_8  and  C_41
    8  A    between atoms: C_9  and  C_23
    9  A    between atoms: C_10  and  C_36
   10  A    between atoms: C_10  and  C_40
   11  A    between atoms: C_12  and  C_40
   12  A    between atoms: C_22  and  C_23
   13  A    between atoms: C_22  and  N_27
   14  A    between atoms: C_29  and  C_37
                            x       y       z     vdW  Elec       q    Type
                         _______ _______ _______ _____ _____    ______ ____

>  <TORSDO>
F 14

$$$$
=
 OpenBabel11062413113D

 42 44  0  0  1  0  0  0  0  0999 V2000
  187.5500  178.3240  137.1370 C   0  0  1  0  0  3  0  0  0  0  0  0
  185.3830  176.6310  136.9990 O   0  0  0  0  0  0  0  0  0  0  0  0
  186.4660  176.3940  136.1650 N   0  0  0  0  0  2  0  0  0  0  0  0
  187.6840  176.8350  136.8400 C   0  0  0  0  0  2  0  0  0  0  0  0
  186.3150  178.5830  137.8760 N   0  0  0  0  0  0  0  0  0  0  0  0
  185.2840  177.7980  137.7750 C   0  0  0  0  0  0  0  0  0  0  0  0
  181.5640  178.1600  138.7840 C   0  0  1  0  0  3  0  0  0  0  0  0
  184.0470  178.0900  138.5370 C   0  0  0  0  0  0  0  0  0  0  0  0
  182.8230  177.9880  137.9640 C   0  0  0  0  0  0  0  0  0  0  0  0
  181.4980  179.0570  141.9160 C   0  0  0  0  0  0  0  0  0  0  0  0
  182.8250  178.5030  141.9700 N   0  0  0  0  0  2  0  0  0  0  0  0
  181.4800  179.5520  139.4270 C   0  0  2  0  0  3  0  0  0  0  0  0
  183.4740  177.6990  140.9410 C   0  0  0  0  0  2  0  0  0  0  0  0
  180.8970  179.5100  140.8060 C   0  0  0  0  0  3  0  0  0  0  0  0
  184.2090  178.5880  139.9540 C   0  0  0  0  0  2  0  0  0  0  0  0
  182.7030  177.7370  136.5640 N   0  0  0  0  0  1  0  0  0  0  0  0
  180.7680  179.2230  143.2000 C   0  0  0  0  0  1  0  0  0  0  0  0
  179.4480  180.7680  138.5920 O   0  0  0  0  0  1  0  0  0  0  0  0
  181.5310  181.2870  137.7900 O   0  0  0  0  0  0  0  0  0  0  0  0
  180.8270  180.5890  138.5660 C   0  0  0  0  0  0  0  0  0  0  0  0
  179.3010  177.4590  138.7290 O   0  0  0  0  0  0  0  0  0  0  0  0
  180.3110  177.7050  138.0880 C   0  0  0  0  0  3  0  0  0  0  0  0
  188.7490  178.8180  137.9270 C   0  0  0  0  0  2  0  0  0  0  0  0
  190.6010  176.8630  138.1120 S   0  0  0  0  0  0  0  0  0  0  0  0
  189.3330  177.7040  138.7300 C   0  0  0  0  0  0  0  0  0  0  0  0
  188.8850  177.4990  140.0770 N   0  0  0  0  0  2  0  0  0  0  0  0
  188.0480  178.4410  140.8160 C   0  0  0  0  0  2  0  0  0  0  0  0
  187.4790  177.7810  142.0590 C   0  0  0  0  0  2  0  0  0  0  0  0
  185.9250  178.3760  143.7810 C   0  0  0  0  0  3  0  0  0  0  0  0
  186.4490  178.6130  142.6300 N   0  0  0  0  0  0  0  0  0  0  0  0
  186.3290  177.2030  144.6320 C   0  0  0  0  0  2  0  0  0  0  0  0
  186.8530  177.6180  146.0070 C   0  0  2  0  0  3  0  0  0  0  0  0
  186.2710  179.5480  147.3100 O   0  0  0  0  0  1  0  0  0  0  0  0
  185.8830  178.4910  146.7430 C   0  0  0  0  0  0  0  0  0  0  0  0
  184.5390  178.1450  146.7730 O   0  0  0  0  0  0  0  0  0  0  0  0
  188.2560  178.2180  145.9290 C   0  0  0  0  0  2  0  0  0  0  0  0
  191.5610  176.3670  147.3440 S   0  0  0  0  0  0  0  0  0  0  0  0
  189.3220  177.1360  146.0210 C   0  0  2  0  0  3  0  0  0  0  0  0
  189.8800  177.0540  147.4280 C   0  0  0  0  0  2  0  0  0  0  0  0
  191.6350  176.5800  145.5380 C   0  0  0  0  0  2  0  0  0  0  0  0
  190.4830  177.4660  145.1150 C   0  0  1  0  0  3  0  0  0  0  0  0
  190.1490  177.1940  143.7860 O   0  0  0  0  0  1  0  0  0  0  0  0
  1  5  1  0  0  0  0
  1 23  1  1  0  0  0
  2  6  1  0  0  0  0
  3  4  1  0  0  0  0
  3  2  1  0  0  0  0
  4  1  1  0  0  0  0
  6  5  2  0  0  0  0
  6  8  1  0  0  0  0
  7 22  1  6  0  0  0
  7 12  1  0  0  0  0
  8 15  1  0  0  0  0
  9  8  2  0  0  0  0
  9  7  1  0  0  0  0
 10 11  1  0  0  0  0
 10 17  1  0  0  0  0
 12 20  1  6  0  0  0
 12 14  1  0  0  0  0
 13 11  1  0  0  0  0
 14 10  2  0  0  0  0
 15 13  1  0  0  0  0
 16  9  1  0  0  0  0
 19 20  2  0  0  0  0
 20 18  1  0  0  0  0
 22 21  2  0  0  0  0
 23 25  1  0  0  0  0
 24 25  2  0  0  0  0
 25 26  1  0  0  0  0
 26 27  1  0  0  0  0
 27 28  1  0  0  0  0
 28 30  1  0  0  0  0
 29 31  1  0  0  0  0
 30 29  2  0  0  0  0
 32 31  1  6  0  0  0
 32 34  1  0  0  0  0
 34 35  2  0  0  0  0
 34 33  1  0  0  0  0
 36 32  1  0  0  0  0
 37 39  1  0  0  0  0
 38 36  1  1  0  0  0
 38 39  1  0  0  0  0
 40 37  1  0  0  0  0
 41 42  1  6  0  0  0
 41 40  1  0  0  0  0
 41 38  1  0  0  0  0
M  END
>  <MODEL>
8

>  <REMARK>
 VINA RESULT:      -6.9      3.145      8.364
  Name = 
  14 active torsions:
  status: ('A' for Active; 'I' for Inactive)
    1  A    between atoms: C_3  and  C_10
    2  A    between atoms: C_3  and  C_16
    3  A    between atoms: C_4  and  C_7
    4  A    between atoms: C_4  and  N_27
    5  A    between atoms: C_5  and  C_20
    6  A    between atoms: C_7  and  N_18
    7  A    between atoms: C_8  and  C_41
    8  A    between atoms: C_9  and  C_23
    9  A    between atoms: C_10  and  C_36
   10  A    between atoms: C_10  and  C_40
   11  A    between atoms: C_12  and  C_40
   12  A    between atoms: C_22  and  C_23
   13  A    between atoms: C_22  and  N_27
   14  A    between atoms: C_29  and  C_37
                            x       y       z     vdW  Elec       q    Type
                         _______ _______ _______ _____ _____    ______ ____

>  <TORSDO>
F 14

$$$$
=
 OpenBabel11062413113D

 42 44  0  0  1  0  0  0  0  0999 V2000
  188.5990  177.0570  138.0230 C   0  0  1  0  0  3  0  0  0  0  0  0
  190.5310  176.0030  139.6770 O   0  0  0  0  0  0  0  0  0  0  0  0
  190.4880  175.5850  138.3540 N   0  0  0  0  0  2  0  0  0  0  0  0
  189.9930  176.6850  137.5300 C   0  0  0  0  0  2  0  0  0  0  0  0
  188.6260  177.3350  139.4580 N   0  0  0  0  0  0  0  0  0  0  0  0
  189.5210  176.8020  140.2370 C   0  0  0  0  0  0  0  0  0  0  0  0
  190.5390  178.0820  143.7460 C   0  0  1  0  0  3  0  0  0  0  0  0
  189.5190  177.1030  141.6880 C   0  0  0  0  0  0  0  0  0  0  0  0
  190.5980  177.6570  142.2950 C   0  0  0  0  0  0  0  0  0  0  0  0
  188.0210  177.5350  145.7400 C   0  0  0  0  0  0  0  0  0  0  0  0
  187.2390  177.4950  144.5330 N   0  0  0  0  0  2  0  0  0  0  0  0
  190.2390  176.9010  144.6810 C   0  0  2  0  0  3  0  0  0  0  0  0
  187.6810  177.8790  143.1980 C   0  0  0  0  0  2  0  0  0  0  0  0
  189.3370  177.2860  145.8140 C   0  0  0  0  0  3  0  0  0  0  0  0
  188.3000  176.6940  142.4790 C   0  0  0  0  0  2  0  0  0  0  0  0
  191.8190  177.8270  141.5770 N   0  0  0  0  0  1  0  0  0  0  0  0
  187.3040  177.7830  147.0180 C   0  0  0  0  0  1  0  0  0  0  0  0
  192.0610  175.2060  144.3430 O   0  0  0  0  0  0  0  0  0  0  0  0
  191.9170  176.3920  146.2990 O   0  0  0  0  0  1  0  0  0  0  0  0
  191.4550  176.1630  145.1500 C   0  0  0  0  0  0  0  0  0  0  0  0
  191.5180  180.1550  144.3460 O   0  0  0  0  0  0  0  0  0  0  0  0
  191.6840  178.9580  144.1750 C   0  0  0  0  0  3  0  0  0  0  0  0
  188.0710  178.2630  137.2640 C   0  0  0  0  0  2  0  0  0  0  0  0
  186.8470  177.8570  134.8930 S   0  0  0  0  0  0  0  0  0  0  0  0
  186.8200  177.9070  136.5340 C   0  0  0  0  0  0  0  0  0  0  0  0
  185.6750  177.4630  137.2760 N   0  0  0  0  0  2  0  0  0  0  0  0
  185.0430  178.2320  138.3460 C   0  0  0  0  0  2  0  0  0  0  0  0
  183.5330  178.0870  138.2800 C   0  0  0  0  0  2  0  0  0  0  0  0
  182.3630  177.4030  140.2530 C   0  0  0  0  0  3  0  0  0  0  0  0
  183.0910  177.1030  139.2360 N   0  0  0  0  0  0  0  0  0  0  0  0
  181.9160  178.8100  140.5470 C   0  0  0  0  0  2  0  0  0  0  0  0
  180.3990  178.9820  140.4640 C   0  0  2  0  0  3  0  0  0  0  0  0
  179.0780  176.9800  140.5570 O   0  0  0  0  0  0  0  0  0  0  0  0
  179.6650  177.8960  141.1920 C   0  0  0  0  0  0  0  0  0  0  0  0
  179.6600  177.8880  142.5800 O   0  0  0  0  0  1  0  0  0  0  0  0
  179.9210  179.1630  139.0250 C   0  0  0  0  0  2  0  0  0  0  0  0
  180.4700  182.9170  137.6240 S   0  0  0  0  0  0  0  0  0  0  0  0
  180.6550  180.3090  138.3430 C   0  0  2  0  0  3  0  0  0  0  0  0
  180.1900  181.6440  138.8910 C   0  0  0  0  0  2  0  0  0  0  0  0
  180.7860  181.6700  136.3370 C   0  0  0  0  0  2  0  0  0  0  0  0
  180.3520  180.3190  136.8640 C   0  0  1  0  0  3  0  0  0  0  0  0
  181.0710  179.3120  136.2170 O   0  0  0  0  0  1  0  0  0  0  0  0
  1 23  1  6  0  0  0
  1  5  1  0  0  0  0
  2  6  1  0  0  0  0
  3  2  1  0  0  0  0
  4  1  1  0  0  0  0
  4  3  1  0  0  0  0
  5  6  2  0  0  0  0
  6  8  1  0  0  0  0
  7 22  1  1  0  0  0
  7 12  1  0  0  0  0
  8  9  2  0  0  0  0
  8 15  1  0  0  0  0
  9  7  1  0  0  0  0
 10 14  2  0  0  0  0
 10 17  1  0  0  0  0
 11 10  1  0  0  0  0
 12 20  1  1  0  0  0
 12 14  1  0  0  0  0
 13 11  1  0  0  0  0
 15 13  1  0  0  0  0
 16  9  1  0  0  0  0
 18 20  2  0  0  0  0
 20 19  1  0  0  0  0
 22 21  2  0  0  0  0
 24 25  2  0  0  0  0
 25 23  1  0  0  0  0
 25 26  1  0  0  0  0
 26 27  1  0  0  0  0
 28 27  1  0  0  0  0
 28 30  1  0  0  0  0
 29 31  1  0  0  0  0
 30 29  2  0  0  0  0
 32 36  1  6  0  0  0
 32 31  1  0  0  0  0
 32 34  1  0  0  0  0
 33 34  2  0  0  0  0
 34 35  1  0  0  0  0
 37 39  1  0  0  0  0
 38 39  1  0  0  0  0
 38 36  1  1  0  0  0
 40 41  1  0  0  0  0
 40 37  1  0  0  0  0
 41 42  1  6  0  0  0
 41 38  1  0  0  0  0
M  END
>  <MODEL>
9

>  <REMARK>
 VINA RESULT:      -6.9      1.612      2.429
  Name = 
  14 active torsions:
  status: ('A' for Active; 'I' for Inactive)
    1  A    between atoms: C_3  and  C_10
    2  A    between atoms: C_3  and  C_16
    3  A    between atoms: C_4  and  C_7
    4  A    between atoms: C_4  and  N_27
    5  A    between atoms: C_5  and  C_20
    6  A    between atoms: C_7  and  N_18
    7  A    between atoms: C_8  and  C_41
    8  A    between atoms: C_9  and  C_23
    9  A    between atoms: C_10  and  C_36
   10  A    between atoms: C_10  and  C_40
   11  A    between atoms: C_12  and  C_40
   12  A    between atoms: C_22  and  C_23
   13  A    between atoms: C_22  and  N_27
   14  A    between atoms: C_29  and  C_37
                            x       y       z     vdW  Elec       q    Type
                         _______ _______ _______ _____ _____    ______ ____

>  <TORSDO>
F 14

$$$$
