=
 OpenBabel11062412193D

 43 48  0  0  1  0  0  0  0  0999 V2000
  190.2050  172.8690  135.8900 N   0  0  0  0  0  0  0  0  0  0  0  0
  187.4430  176.5080  138.0870 C   0  0  2  0  0  3  0  0  0  0  0  0
  191.0690  176.8330  140.9820 C   0  0  0  0  0  0  0  0  0  0  0  0
  192.1550  176.7170  141.6090 O   0  0  0  0  0  0  0  0  0  0  0  0
  191.9670  176.5320  138.6440 C   0  0  0  0  0  0  0  0  0  0  0  0
  192.4240  173.5600  135.9530 O   0  0  0  0  0  0  0  0  0  0  0  0
  188.5790  174.6250  136.1920 C   0  0  1  0  0  3  0  0  0  0  0  0
  189.5280  175.3250  137.1520 C   0  0  0  0  0  0  0  0  0  0  0  0
  193.9480  177.0630  137.5820 O   0  0  0  0  0  0  0  0  0  0  0  0
  188.9290  176.2460  138.1780 C   0  0  0  0  0  0  0  0  0  0  0  0
  190.8520  175.0630  136.9710 C   0  0  0  0  0  0  0  0  0  0  0  0
  193.2140  177.2630  138.7320 C   0  0  0  0  0  0  0  0  0  0  0  0
  188.9520  173.1970  135.9240 C   0  0  0  0  0  3  0  0  0  0  0  0
  189.5510  176.6730  139.3020 C   0  0  0  0  0  0  0  0  0  0  0  0
  186.6730  175.3540  137.6170 N   0  0  0  0  0  2  0  0  0  0  0  0
  188.8180  177.3170  140.4470 C   0  0  0  0  0  2  0  0  0  0  0  0
  193.2110  176.2140  136.7100 C   0  0  0  0  0  2  0  0  0  0  0  0
  193.5790  178.0110  139.6760 O   0  0  0  0  0  0  0  0  0  0  0  0
  190.9210  176.4760  139.6150 N   0  0  0  0  0  0  0  0  0  0  0  0
  189.8130  177.3320  141.6080 C   0  0  1  0  0  3  0  0  0  0  0  0
  191.2220  173.8250  136.2200 C   0  0  0  0  0  0  0  0  0  0  0  0
  187.0860  174.9900  136.2690 C   0  0  2  0  0  3  0  0  0  0  0  0
  186.1550  173.9300  135.7010 C   0  0  0  0  0  1  0  0  0  0  0  0
  191.9350  175.9340  137.4690 C   0  0  0  0  0  0  0  0  0  0  0  0
  187.0460  177.8350  137.4850 C   0  0  0  0  0  0  0  0  0  0  0  0
  184.7240  178.8100  138.1770 C   0  0  0  0  0  3  0  0  0  0  0  0
  185.8820  178.3200  137.8300 C   0  0  0  0  0  0  0  0  0  0  0  0
  189.0930  179.0550  137.2990 F   0  0  0  0  0  0  0  0  0  0  0  0
  188.3800  177.8950  135.5180 F   0  0  0  0  0  0  0  0  0  0  0  0
  187.3060  179.7740  136.1520 F   0  0  0  0  0  0  0  0  0  0  0  0
  187.9660  178.6470  136.6030 C   0  0  0  0  0  0  0  0  0  0  0  0
  183.5420  178.2700  140.2540 C   0  0  0  0  0  1  0  0  0  0  0  0
  184.4880  179.2400  139.5800 C   0  0  0  0  0  2  0  0  0  0  0  0
  189.3260  176.3740  142.6870 C   0  0  0  0  0  2  0  0  0  0  0  0
  188.6030  177.1200  143.7960 C   0  0  0  0  0  2  0  0  0  0  0  0
  187.4100  176.4520  144.1250 O   0  0  0  0  0  0  0  0  0  0  0  0
  186.4360  177.4140  144.4610 C   0  0  0  0  0  3  0  0  0  0  0  0
  184.9560  179.3300  143.5600 C   0  0  0  0  0  2  0  0  0  0  0  0
  186.8520  178.3010  145.6550 C   0  0  0  0  0  2  0  0  0  0  0  0
  184.3200  178.5600  145.9390 C   0  0  0  0  0  2  0  0  0  0  0  0
  185.8590  178.1400  143.2280 C   0  0  0  0  0  2  0  0  0  0  0  0
  183.8330  178.9910  144.5470 C   0  0  0  0  0  2  0  0  0  0  0  0
  185.7060  179.1110  146.2830 C   0  0  0  0  0  2  0  0  0  0  0  0
  1 13  2  0  0  0  0
  1 21  1  0  0  0  0
  2 25  1  6  0  0  0
  2 10  1  0  0  0  0
  3 20  1  0  0  0  0
  3  4  2  0  0  0  0
  5 12  1  0  0  0  0
  5 19  1  0  0  0  0
  6 21  2  0  0  0  0
  7 13  1  1  0  0  0
  7 22  1  0  0  0  0
  7  8  1  0  0  0  0
  8 10  1  0  0  0  0
  9 12  1  0  0  0  0
 10 14  2  0  0  0  0
 11  8  2  0  0  0  0
 11 24  1  0  0  0  0
 12 18  2  0  0  0  0
 14 19  1  0  0  0  0
 14 16  1  0  0  0  0
 15  2  1  0  0  0  0
 16 20  1  0  0  0  0
 17 24  1  0  0  0  0
 17  9  1  0  0  0  0
 19  3  1  0  0  0  0
 20 34  1  1  0  0  0
 21 11  1  0  0  0  0
 22 23  1  1  0  0  0
 22 15  1  0  0  0  0
 24  5  2  0  0  0  0
 25 27  2  0  0  0  0
 26 33  1  0  0  0  0
 27 26  2  0  0  0  0
 29 31  1  0  0  0  0
 30 31  1  0  0  0  0
 31 28  1  0  0  0  0
 31 25  1  0  0  0  0
 33 32  1  0  0  0  0
 34 35  1  0  0  0  0
 35 36  1  0  0  0  0
 36 37  1  0  0  0  0
 37 39  1  0  0  0  0
 38 42  1  0  0  0  0
 39 43  1  0  0  0  0
 40 43  1  0  0  0  0
 41 38  1  0  0  0  0
 41 37  1  0  0  0  0
 42 40  1  0  0  0  0
M  END
>  <MODEL>
1

>  <REMARK>
 VINA RESULT:      -8.3      0.000      0.000
  Name = 
  7 active torsions:
  status: ('A' for Active; 'I' for Inactive)
    1  A    between atoms: C_1  and  O_31
    2  A    between atoms: C_3  and  C_11
    3  A    between atoms: C_11  and  C_34
    4  A    between atoms: C_16  and  C_28
    5  A    between atoms: C_16  and  O_31
    6  A    between atoms: C_18  and  C_26
    7  A    between atoms: C_28  and  C_39
                            x       y       z     vdW  Elec       q    Type
                         _______ _______ _______ _____ _____    ______ ____

>  <TORSDO>
F 7

$$$$
=
 OpenBabel11062412193D

 43 48  0  0  1  0  0  0  0  0999 V2000
  190.0360  172.8170  135.8180 N   0  0  0  0  0  0  0  0  0  0  0  0
  187.3720  176.5120  138.0440 C   0  0  2  0  0  3  0  0  0  0  0  0
  191.0430  176.7770  140.8870 C   0  0  0  0  0  0  0  0  0  0  0  0
  192.1360  176.6420  141.4990 O   0  0  0  0  0  0  0  0  0  0  0  0
  191.9030  176.4540  138.5370 C   0  0  0  0  0  0  0  0  0  0  0  0
  192.2670  173.4670  135.8490 O   0  0  0  0  0  0  0  0  0  0  0  0
  188.4460  174.6040  136.1380 C   0  0  1  0  0  3  0  0  0  0  0  0
  189.4220  175.2880  137.0830 C   0  0  0  0  0  0  0  0  0  0  0  0
  193.8780  176.9460  137.4470 O   0  0  0  0  0  0  0  0  0  0  0  0
  188.8540  176.2230  138.1150 C   0  0  0  0  0  0  0  0  0  0  0  0
  190.7380  175.0020  136.8850 C   0  0  0  0  0  0  0  0  0  0  0  0
  193.1640  177.1620  138.6070 C   0  0  0  0  0  0  0  0  0  0  0  0
  188.7890  173.1690  135.8680 C   0  0  0  0  0  3  0  0  0  0  0  0
  189.4990  176.6410  139.2290 C   0  0  0  0  0  0  0  0  0  0  0  0
  186.5740  175.3720  137.5880 N   0  0  0  0  0  2  0  0  0  0  0  0
  188.7940  177.3020  140.3820 C   0  0  0  0  0  2  0  0  0  0  0  0
  193.1140  176.1080  136.5870 C   0  0  0  0  0  2  0  0  0  0  0  0
  193.5560  177.9050  139.5440 O   0  0  0  0  0  0  0  0  0  0  0  0
  190.8700  176.4200  139.5230 N   0  0  0  0  0  0  0  0  0  0  0  0
  189.8050  177.3010  141.5290 C   0  0  1  0  0  3  0  0  0  0  0  0
  191.0740  173.7560  136.1320 C   0  0  0  0  0  0  0  0  0  0  0  0
  186.9620  174.9960  136.2350 C   0  0  2  0  0  3  0  0  0  0  0  0
  186.0040  173.9520  135.6830 C   0  0  0  0  0  1  0  0  0  0  0  0
  191.8440  175.8540  137.3640 C   0  0  0  0  0  0  0  0  0  0  0  0
  186.9910  177.8440  137.4430 C   0  0  0  0  0  0  0  0  0  0  0  0
  184.6760  178.8400  138.1270 C   0  0  0  0  0  3  0  0  0  0  0  0
  185.8300  178.3400  137.7850 C   0  0  0  0  0  0  0  0  0  0  0  0
  187.3160  179.8170  136.1320 F   0  0  0  0  0  0  0  0  0  0  0  0
  189.0620  178.9970  137.2730 F   0  0  0  0  0  0  0  0  0  0  0  0
  188.2810  177.9090  135.4590 F   0  0  0  0  0  0  0  0  0  0  0  0
  187.9240  178.6510  136.5690 C   0  0  0  0  0  0  0  0  0  0  0  0
  183.9000  178.1010  140.3310 C   0  0  0  0  0  1  0  0  0  0  0  0
  184.4360  179.2680  139.5300 C   0  0  0  0  0  2  0  0  0  0  0  0
  189.3160  176.3550  142.6180 C   0  0  0  0  0  2  0  0  0  0  0  0
  189.8280  176.7810  143.9830 C   0  0  0  0  0  2  0  0  0  0  0  0
  189.3460  178.0640  144.2970 O   0  0  0  0  0  0  0  0  0  0  0  0
  188.5750  177.9780  145.4740 C   0  0  0  0  0  3  0  0  0  0  0  0
  188.4360  176.9560  147.8420 C   0  0  0  0  0  2  0  0  0  0  0  0
  187.1150  177.5510  145.2070 C   0  0  0  0  0  2  0  0  0  0  0  0
  186.6810  178.7970  147.4020 C   0  0  0  0  0  2  0  0  0  0  0  0
  189.3090  177.2540  146.6210 C   0  0  0  0  0  2  0  0  0  0  0  0
  187.6960  178.1860  148.3820 C   0  0  0  0  0  2  0  0  0  0  0  0
  186.1530  177.7850  146.3830 C   0  0  0  0  0  2  0  0  0  0  0  0
  1 13  2  0  0  0  0
  1 21  1  0  0  0  0
  2 25  1  6  0  0  0
  2 10  1  0  0  0  0
  3  4  2  0  0  0  0
  3 20  1  0  0  0  0
  5 12  1  0  0  0  0
  5 19  1  0  0  0  0
  6 21  2  0  0  0  0
  7 13  1  1  0  0  0
  7 22  1  0  0  0  0
  7  8  1  0  0  0  0
  8 10  1  0  0  0  0
  9 12  1  0  0  0  0
 10 14  2  0  0  0  0
 11  8  2  0  0  0  0
 11 24  1  0  0  0  0
 12 18  2  0  0  0  0
 14 19  1  0  0  0  0
 14 16  1  0  0  0  0
 15  2  1  0  0  0  0
 16 20  1  0  0  0  0
 17 24  1  0  0  0  0
 17  9  1  0  0  0  0
 19  3  1  0  0  0  0
 20 34  1  1  0  0  0
 21 11  1  0  0  0  0
 22 23  1  1  0  0  0
 22 15  1  0  0  0  0
 24  5  2  0  0  0  0
 25 27  2  0  0  0  0
 26 33  1  0  0  0  0
 27 26  2  0  0  0  0
 28 31  1  0  0  0  0
 30 31  1  0  0  0  0
 31 29  1  0  0  0  0
 31 25  1  0  0  0  0
 33 32  1  0  0  0  0
 34 35  1  0  0  0  0
 35 36  1  0  0  0  0
 36 37  1  0  0  0  0
 37 41  1  0  0  0  0
 38 42  1  0  0  0  0
 39 37  1  0  0  0  0
 39 43  1  0  0  0  0
 40 42  1  0  0  0  0
 41 38  1  0  0  0  0
 43 40  1  0  0  0  0
M  END
>  <MODEL>
2

>  <REMARK>
 VINA RESULT:      -8.1      1.004      1.742
  Name = 
  7 active torsions:
  status: ('A' for Active; 'I' for Inactive)
    1  A    between atoms: C_1  and  O_31
    2  A    between atoms: C_3  and  C_11
    3  A    between atoms: C_11  and  C_34
    4  A    between atoms: C_16  and  C_28
    5  A    between atoms: C_16  and  O_31
    6  A    between atoms: C_18  and  C_26
    7  A    between atoms: C_28  and  C_39
                            x       y       z     vdW  Elec       q    Type
                         _______ _______ _______ _____ _____    ______ ____

>  <TORSDO>
F 7

$$$$
=
 OpenBabel11062412193D

 43 48  0  0  1  0  0  0  0  0999 V2000
  183.0430  174.1540  136.8240 N   0  0  0  0  0  0  0  0  0  0  0  0
  182.1670  178.0430  139.9560 C   0  0  2  0  0  3  0  0  0  0  0  0
  186.8040  178.3990  140.0210 C   0  0  0  0  0  0  0  0  0  0  0  0
  188.0480  178.2780  139.8680 O   0  0  0  0  0  0  0  0  0  0  0  0
  186.0960  177.9100  137.6500 C   0  0  0  0  0  0  0  0  0  0  0  0
  184.8390  174.7520  135.4750 O   0  0  0  0  0  0  0  0  0  0  0  0
  181.9260  175.9940  137.9140 C   0  0  1  0  0  3  0  0  0  0  0  0
  183.2590  176.7130  138.0430 C   0  0  0  0  0  0  0  0  0  0  0  0
  187.0200  178.2850  135.5680 O   0  0  0  0  0  0  0  0  0  0  0  0
  183.4030  177.7240  139.1470 C   0  0  0  0  0  0  0  0  0  0  0  0
  184.2020  176.3840  137.1180 C   0  0  0  0  0  0  0  0  0  0  0  0
  187.1350  178.5900  136.9070 C   0  0  0  0  0  0  0  0  0  0  0  0
  182.0670  174.5370  137.5860 C   0  0  0  0  0  3  0  0  0  0  0  0
  184.5780  178.1960  139.6260 C   0  0  0  0  0  0  0  0  0  0  0  0
  181.2760  176.8950  140.1410 N   0  0  0  0  0  2  0  0  0  0  0  0
  184.6880  178.9440  140.9270 C   0  0  0  0  0  2  0  0  0  0  0  0
  185.9090  177.4140  135.3900 C   0  0  0  0  0  2  0  0  0  0  0  0
  187.9950  179.3820  137.3740 O   0  0  0  0  0  0  0  0  0  0  0  0
  185.8570  177.9620  139.0570 N   0  0  0  0  0  0  0  0  0  0  0  0
  186.1840  178.9920  141.2400 C   0  0  1  0  0  3  0  0  0  0  0  0
  184.0460  175.0850  136.3950 C   0  0  0  0  0  0  0  0  0  0  0  0
  180.7860  176.4260  138.8530 C   0  0  2  0  0  3  0  0  0  0  0  0
  179.7080  175.3720  139.0500 C   0  0  0  0  0  1  0  0  0  0  0  0
  185.3590  177.2380  136.7860 C   0  0  0  0  0  0  0  0  0  0  0  0
  181.4770  179.3430  139.6180 C   0  0  0  0  0  0  0  0  0  0  0  0
  179.5170  180.0920  141.1720 C   0  0  0  0  0  3  0  0  0  0  0  0
  180.4940  179.7150  140.3960 C   0  0  0  0  0  0  0  0  0  0  0  0
  183.2170  180.7360  138.7520 F   0  0  0  0  0  0  0  0  0  0  0  0
  181.9640  179.5720  137.3030 F   0  0  0  0  0  0  0  0  0  0  0  0
  181.0860  181.3360  138.4000 F   0  0  0  0  0  0  0  0  0  0  0  0
  181.9410  180.2560  138.5050 C   0  0  0  0  0  0  0  0  0  0  0  0
  180.5790  179.3610  143.2560 C   0  0  0  0  0  1  0  0  0  0  0  0
  179.7890  180.4640  142.5850 C   0  0  0  0  0  2  0  0  0  0  0  0
  186.4600  178.1280  142.4630 C   0  0  0  0  0  2  0  0  0  0  0  0
  187.9460  177.8530  142.6160 C   0  0  0  0  0  2  0  0  0  0  0  0
  188.1430  176.6560  143.3270 O   0  0  0  0  0  0  0  0  0  0  0  0
  189.0260  176.9090  144.3960 C   0  0  0  0  0  3  0  0  0  0  0  0
  189.2220  177.7980  146.8130 C   0  0  0  0  0  2  0  0  0  0  0  0
  190.2390  177.7700  143.9830 C   0  0  0  0  0  2  0  0  0  0  0  0
  191.3480  176.6000  145.9740 C   0  0  0  0  0  2  0  0  0  0  0  0
  188.2970  177.3160  145.6920 C   0  0  0  0  0  2  0  0  0  0  0  0
  190.3610  176.8230  147.1310 C   0  0  0  0  0  2  0  0  0  0  0  0
  191.3960  177.7770  144.9970 C   0  0  0  0  0  2  0  0  0  0  0  0
  1 13  2  0  0  0  0
  2 25  1  6  0  0  0
  2 15  1  0  0  0  0
  3 20  1  0  0  0  0
  4  3  2  0  0  0  0
  5 19  1  0  0  0  0
  6 21  2  0  0  0  0
  7 13  1  1  0  0  0
  7  8  1  0  0  0  0
  7 22  1  0  0  0  0
  8 10  1  0  0  0  0
  9 12  1  0  0  0  0
 10 14  2  0  0  0  0
 10  2  1  0  0  0  0
 11  8  2  0  0  0  0
 12 18  2  0  0  0  0
 12  5  1  0  0  0  0
 14 16  1  0  0  0  0
 16 20  1  0  0  0  0
 17  9  1  0  0  0  0
 17 24  1  0  0  0  0
 19 14  1  0  0  0  0
 19  3  1  0  0  0  0
 20 34  1  1  0  0  0
 21  1  1  0  0  0  0
 21 11  1  0  0  0  0
 22 23  1  1  0  0  0
 22 15  1  0  0  0  0
 24 11  1  0  0  0  0
 24  5  2  0  0  0  0
 25 27  2  0  0  0  0
 26 33  1  0  0  0  0
 27 26  2  0  0  0  0
 29 31  1  0  0  0  0
 30 31  1  0  0  0  0
 31 28  1  0  0  0  0
 31 25  1  0  0  0  0
 33 32  1  0  0  0  0
 34 35  1  0  0  0  0
 35 36  1  0  0  0  0
 36 37  1  0  0  0  0
 37 41  1  0  0  0  0
 38 42  1  0  0  0  0
 39 37  1  0  0  0  0
 39 43  1  0  0  0  0
 40 42  1  0  0  0  0
 41 38  1  0  0  0  0
 43 40  1  0  0  0  0
M  END
>  <MODEL>
3

>  <REMARK>
 VINA RESULT:      -8.0      4.131      5.976
  Name = 
  7 active torsions:
  status: ('A' for Active; 'I' for Inactive)
    1  A    between atoms: C_1  and  O_31
    2  A    between atoms: C_3  and  C_11
    3  A    between atoms: C_11  and  C_34
    4  A    between atoms: C_16  and  C_28
    5  A    between atoms: C_16  and  O_31
    6  A    between atoms: C_18  and  C_26
    7  A    between atoms: C_28  and  C_39
                            x       y       z     vdW  Elec       q    Type
                         _______ _______ _______ _____ _____    ______ ____

>  <TORSDO>
F 7

$$$$
=
 OpenBabel11062412193D

 43 48  0  0  1  0  0  0  0  0999 V2000
  179.8600  182.0390  138.4350 N   0  0  0  0  0  0  0  0  0  0  0  0
  182.4540  177.6850  138.3160 C   0  0  2  0  0  3  0  0  0  0  0  0
  183.5740  178.8010  142.6910 C   0  0  0  0  0  0  0  0  0  0  0  0
  183.7220  179.3280  143.8250 O   0  0  0  0  0  0  0  0  0  0  0  0
  181.1380  179.3600  142.3460 C   0  0  0  0  0  0  0  0  0  0  0  0
  178.9310  182.2250  140.5580 O   0  0  0  0  0  0  0  0  0  0  0  0
  180.5440  179.8110  137.8110 C   0  0  1  0  0  3  0  0  0  0  0  0
  180.9340  179.5380  139.2550 C   0  0  0  0  0  0  0  0  0  0  0  0
  179.3090  179.5800  143.7370 O   0  0  0  0  0  0  0  0  0  0  0  0
  181.9770  178.4840  139.5080 C   0  0  0  0  0  0  0  0  0  0  0  0
  180.2760  180.2690  140.1950 C   0  0  0  0  0  0  0  0  0  0  0  0
  180.6170  179.1480  143.6800 C   0  0  0  0  0  0  0  0  0  0  0  0
  180.3480  181.2690  137.5140 C   0  0  0  0  0  3  0  0  0  0  0  0
  182.6850  178.3450  140.6520 C   0  0  0  0  0  0  0  0  0  0  0  0
  182.4980  178.4580  137.0730 N   0  0  0  0  0  2  0  0  0  0  0  0
  183.9270  177.5010  140.7480 C   0  0  0  0  0  2  0  0  0  0  0  0
  178.9320  180.0730  142.4570 C   0  0  0  0  0  2  0  0  0  0  0  0
  181.2210  178.6120  144.6450 O   0  0  0  0  0  0  0  0  0  0  0  0
  182.4450  179.0450  141.8640 N   0  0  0  0  0  0  0  0  0  0  0  0
  184.5760  177.8850  142.0780 C   0  0  1  0  0  3  0  0  0  0  0  0
  179.6180  181.5380  139.7570 C   0  0  0  0  0  0  0  0  0  0  0  0
  181.1630  178.9190  136.7210 C   0  0  2  0  0  3  0  0  0  0  0  0
  181.1690  179.5430  135.3340 C   0  0  0  0  0  1  0  0  0  0  0  0
  180.1700  179.8760  141.6140 C   0  0  0  0  0  0  0  0  0  0  0  0
  181.8850  176.2930  138.1880 C   0  0  0  0  0  0  0  0  0  0  0  0
  183.3080  174.5410  136.8740 C   0  0  0  0  0  3  0  0  0  0  0  0
  182.5980  175.4170  137.5270 C   0  0  0  0  0  0  0  0  0  0  0  0
  180.7440  175.8710  140.2460 F   0  0  0  0  0  0  0  0  0  0  0  0
  179.5720  176.7160  138.5320 F   0  0  0  0  0  0  0  0  0  0  0  0
  180.2810  174.5750  138.4760 F   0  0  0  0  0  0  0  0  0  0  0  0
  180.6060  175.8600  138.8670 C   0  0  0  0  0  0  0  0  0  0  0  0
  184.6380  172.5750  137.4830 C   0  0  0  0  0  1  0  0  0  0  0  0
  184.6140  174.0870  137.4170 C   0  0  0  0  0  2  0  0  0  0  0  0
  185.8810  178.6170  141.7970 C   0  0  0  0  0  2  0  0  0  0  0  0
  186.9950  178.1180  142.7010 C   0  0  0  0  0  2  0  0  0  0  0  0
  186.4520  177.3950  143.7780 O   0  0  0  0  0  0  0  0  0  0  0  0
  187.3420  177.4770  144.8680 C   0  0  0  0  0  3  0  0  0  0  0  0
  187.6310  178.2800  147.3060 C   0  0  0  0  0  2  0  0  0  0  0  0
  188.6910  178.1290  144.4960 C   0  0  0  0  0  2  0  0  0  0  0  0
  189.5430  176.7550  146.4820 C   0  0  0  0  0  2  0  0  0  0  0  0
  186.6630  177.9790  146.1590 C   0  0  0  0  0  2  0  0  0  0  0  0
  188.5830  177.1210  147.6250 C   0  0  0  0  0  2  0  0  0  0  0  0
  189.8100  177.9230  145.5310 C   0  0  0  0  0  2  0  0  0  0  0  0
  1 21  1  0  0  0  0
  2 25  1  6  0  0  0
  2 10  1  0  0  0  0
  3  4  2  0  0  0  0
  5 12  1  0  0  0  0
  7 13  1  6  0  0  0
  7  8  1  0  0  0  0
  8 10  1  0  0  0  0
  8 11  2  0  0  0  0
 10 14  2  0  0  0  0
 11 24  1  0  0  0  0
 12  9  1  0  0  0  0
 12 18  2  0  0  0  0
 13  1  2  0  0  0  0
 14 16  1  0  0  0  0
 14 19  1  0  0  0  0
 15  2  1  0  0  0  0
 16 20  1  0  0  0  0
 17  9  1  0  0  0  0
 19  5  1  0  0  0  0
 19  3  1  0  0  0  0
 20 34  1  6  0  0  0
 20  3  1  0  0  0  0
 21 11  1  0  0  0  0
 21  6  2  0  0  0  0
 22 23  1  6  0  0  0
 22 15  1  0  0  0  0
 22  7  1  0  0  0  0
 24  5  2  0  0  0  0
 24 17  1  0  0  0  0
 25 31  1  0  0  0  0
 26 33  1  0  0  0  0
 26 27  2  0  0  0  0
 27 25  2  0  0  0  0
 29 31  1  0  0  0  0
 30 31  1  0  0  0  0
 31 28  1  0  0  0  0
 33 32  1  0  0  0  0
 34 35  1  0  0  0  0
 35 36  1  0  0  0  0
 36 37  1  0  0  0  0
 37 41  1  0  0  0  0
 38 42  1  0  0  0  0
 39 37  1  0  0  0  0
 39 43  1  0  0  0  0
 40 42  1  0  0  0  0
 41 38  1  0  0  0  0
 43 40  1  0  0  0  0
M  END
>  <MODEL>
4

>  <REMARK>
 VINA RESULT:      -7.7      5.619      9.039
  Name = 
  7 active torsions:
  status: ('A' for Active; 'I' for Inactive)
    1  A    between atoms: C_1  and  O_31
    2  A    between atoms: C_3  and  C_11
    3  A    between atoms: C_11  and  C_34
    4  A    between atoms: C_16  and  C_28
    5  A    between atoms: C_16  and  O_31
    6  A    between atoms: C_18  and  C_26
    7  A    between atoms: C_28  and  C_39
                            x       y       z     vdW  Elec       q    Type
                         _______ _______ _______ _____ _____    ______ ____

>  <TORSDO>
F 7

$$$$
=
 OpenBabel11062412193D

 43 48  0  0  1  0  0  0  0  0999 V2000
  183.2370  173.9320  136.6860 N   0  0  0  0  0  0  0  0  0  0  0  0
  182.2000  177.7120  139.9010 C   0  0  2  0  0  3  0  0  0  0  0  0
  186.8150  178.2910  139.9410 C   0  0  0  0  0  0  0  0  0  0  0  0
  188.0620  178.2330  139.7760 O   0  0  0  0  0  0  0  0  0  0  0  0
  186.1120  177.8140  137.5650 C   0  0  0  0  0  0  0  0  0  0  0  0
  184.9910  174.6430  135.3360 O   0  0  0  0  0  0  0  0  0  0  0  0
  182.0420  175.6940  137.8200 C   0  0  1  0  0  3  0  0  0  0  0  0
  183.3400  176.4750  137.9540 C   0  0  0  0  0  0  0  0  0  0  0  0
  187.0000  178.2750  135.4840 O   0  0  0  0  0  0  0  0  0  0  0  0
  183.4440  177.4690  139.0770 C   0  0  0  0  0  0  0  0  0  0  0  0
  184.2900  176.2100  137.0150 C   0  0  0  0  0  0  0  0  0  0  0  0
  187.1120  178.5590  136.8290 C   0  0  0  0  0  0  0  0  0  0  0  0
  182.2500  174.2520  137.4620 C   0  0  0  0  0  3  0  0  0  0  0  0
  184.5980  177.9880  139.5570 C   0  0  0  0  0  0  0  0  0  0  0  0
  181.3670  176.5190  140.0690 N   0  0  0  0  0  2  0  0  0  0  0  0
  184.6830  178.7150  140.8710 C   0  0  0  0  0  2  0  0  0  0  0  0
  185.9310  177.3540  135.2970 C   0  0  0  0  0  2  0  0  0  0  0  0
  187.9360  179.3820  137.3050 O   0  0  0  0  0  0  0  0  0  0  0  0
  185.8830  177.8270  138.9740 N   0  0  0  0  0  0  0  0  0  0  0  0
  186.1770  178.8290  141.1750 C   0  0  1  0  0  3  0  0  0  0  0  0
  184.1900  174.9190  136.2680 C   0  0  0  0  0  0  0  0  0  0  0  0
  180.8900  176.0530  138.7750 C   0  0  2  0  0  3  0  0  0  0  0  0
  179.8650  174.9440  138.9590 C   0  0  0  0  0  1  0  0  0  0  0  0
  185.4020  177.1250  136.6930 C   0  0  0  0  0  0  0  0  0  0  0  0
  181.4460  178.9840  139.5940 C   0  0  0  0  0  0  0  0  0  0  0  0
  181.4510  179.8030  137.1140 C   0  0  0  0  0  3  0  0  0  0  0  0
  181.4520  179.3940  138.3520 C   0  0  0  0  0  0  0  0  0  0  0  0
  181.2530  179.7280  141.8580 F   0  0  0  0  0  0  0  0  0  0  0  0
  180.4280  181.0340  140.2330 F   0  0  0  0  0  0  0  0  0  0  0  0
  179.3950  179.1030  140.7710 F   0  0  0  0  0  0  0  0  0  0  0  0
  180.6210  179.7210  140.6240 C   0  0  0  0  0  0  0  0  0  0  0  0
  181.7980  178.3310  135.1860 C   0  0  0  0  0  1  0  0  0  0  0  0
  180.7660  179.0020  136.0660 C   0  0  0  0  0  2  0  0  0  0  0  0
  186.5040  177.9550  142.3790 C   0  0  0  0  0  2  0  0  0  0  0  0
  186.0240  178.5980  143.6690 C   0  0  0  0  0  2  0  0  0  0  0  0
  185.7180  177.6050  144.6160 O   0  0  0  0  0  0  0  0  0  0  0  0
  186.6610  177.6770  145.6610 C   0  0  0  0  0  3  0  0  0  0  0  0
  187.2770  178.8530  147.8770 C   0  0  0  0  0  2  0  0  0  0  0  0
  188.1060  177.8770  145.1560 C   0  0  0  0  0  2  0  0  0  0  0  0
  188.7040  176.7610  147.3830 C   0  0  0  0  0  2  0  0  0  0  0  0
  186.2020  178.5830  146.8220 C   0  0  0  0  0  2  0  0  0  0  0  0
  187.9300  177.5800  148.4270 C   0  0  0  0  0  2  0  0  0  0  0  0
  189.1960  177.6070  146.2070 C   0  0  0  0  0  2  0  0  0  0  0  0
  1 13  2  0  0  0  0
  2 25  1  6  0  0  0
  2 15  1  0  0  0  0
  3 20  1  0  0  0  0
  4  3  2  0  0  0  0
  5 19  1  0  0  0  0
  6 21  2  0  0  0  0
  7 13  1  1  0  0  0
  7  8  1  0  0  0  0
  7 22  1  0  0  0  0
  8 10  1  0  0  0  0
  9 12  1  0  0  0  0
 10 14  2  0  0  0  0
 10  2  1  0  0  0  0
 11  8  2  0  0  0  0
 12 18  2  0  0  0  0
 12  5  1  0  0  0  0
 14 16  1  0  0  0  0
 16 20  1  0  0  0  0
 17  9  1  0  0  0  0
 17 24  1  0  0  0  0
 19 14  1  0  0  0  0
 19  3  1  0  0  0  0
 20 34  1  1  0  0  0
 21  1  1  0  0  0  0
 21 11  1  0  0  0  0
 22 23  1  1  0  0  0
 22 15  1  0  0  0  0
 24 11  1  0  0  0  0
 24  5  2  0  0  0  0
 25 31  1  0  0  0  0
 26 27  2  0  0  0  0
 27 25  2  0  0  0  0
 29 31  1  0  0  0  0
 31 30  1  0  0  0  0
 31 28  1  0  0  0  0
 32 33  1  0  0  0  0
 33 26  1  0  0  0  0
 34 35  1  0  0  0  0
 35 36  1  0  0  0  0
 36 37  1  0  0  0  0
 37 41  1  0  0  0  0
 38 42  1  0  0  0  0
 39 37  1  0  0  0  0
 39 43  1  0  0  0  0
 40 42  1  0  0  0  0
 41 38  1  0  0  0  0
 43 40  1  0  0  0  0
M  END
>  <MODEL>
5

>  <REMARK>
 VINA RESULT:      -7.7      4.474      5.981
  Name = 
  7 active torsions:
  status: ('A' for Active; 'I' for Inactive)
    1  A    between atoms: C_1  and  O_31
    2  A    between atoms: C_3  and  C_11
    3  A    between atoms: C_11  and  C_34
    4  A    between atoms: C_16  and  C_28
    5  A    between atoms: C_16  and  O_31
    6  A    between atoms: C_18  and  C_26
    7  A    between atoms: C_28  and  C_39
                            x       y       z     vdW  Elec       q    Type
                         _______ _______ _______ _____ _____    ______ ____

>  <TORSDO>
F 7

$$$$
=
 OpenBabel11062412193D

 43 48  0  0  1  0  0  0  0  0999 V2000
  179.7370  181.5080  138.3080 N   0  0  0  0  0  0  0  0  0  0  0  0
  182.8210  177.4860  138.1970 C   0  0  2  0  0  3  0  0  0  0  0  0
  184.0810  178.9500  142.4280 C   0  0  0  0  0  0  0  0  0  0  0  0
  184.2370  179.5480  143.5250 O   0  0  0  0  0  0  0  0  0  0  0  0
  181.5780  179.2020  142.2320 C   0  0  0  0  0  0  0  0  0  0  0  0
  178.9310  181.6940  140.4810 O   0  0  0  0  0  0  0  0  0  0  0  0
  180.6400  179.3460  137.7350 C   0  0  1  0  0  3  0  0  0  0  0  0
  181.1540  179.1950  139.1580 C   0  0  0  0  0  0  0  0  0  0  0  0
  179.8300  179.2790  143.7380 O   0  0  0  0  0  0  0  0  0  0  0  0
  182.3300  178.2840  139.3830 C   0  0  0  0  0  0  0  0  0  0  0  0
  180.4750  179.8920  140.1100 C   0  0  0  0  0  0  0  0  0  0  0  0
  181.1740  179.0010  143.6080 C   0  0  0  0  0  0  0  0  0  0  0  0
  180.2530  180.7530  137.3900 C   0  0  0  0  0  3  0  0  0  0  0  0
  183.1220  178.2890  140.4800 C   0  0  0  0  0  0  0  0  0  0  0  0
  182.6910  178.1940  136.9210 N   0  0  0  0  0  2  0  0  0  0  0  0
  184.4600  177.6010  140.5240 C   0  0  0  0  0  2  0  0  0  0  0  0
  179.3140  179.6580  142.4670 C   0  0  0  0  0  2  0  0  0  0  0  0
  181.8990  178.5890  144.5500 O   0  0  0  0  0  0  0  0  0  0  0  0
  182.8800  179.0180  141.6730 N   0  0  0  0  0  0  0  0  0  0  0  0
  185.1430  178.1260  141.7870 C   0  0  1  0  0  3  0  0  0  0  0  0
  179.6430  181.0510  139.6650 C   0  0  0  0  0  0  0  0  0  0  0  0
  181.2900  178.4770  136.6440 C   0  0  2  0  0  3  0  0  0  0  0  0
  181.1310  179.0250  135.2340 C   0  0  0  0  0  1  0  0  0  0  0  0
  180.5100  179.5630  141.5490 C   0  0  0  0  0  0  0  0  0  0  0  0
  182.4160  176.0320  138.1700 C   0  0  0  0  0  0  0  0  0  0  0  0
  180.6370  175.2570  139.9170 C   0  0  0  0  0  3  0  0  0  0  0  0
  181.5270  175.6450  139.0470 C   0  0  0  0  0  0  0  0  0  0  0  0
  182.6890  173.7480  137.5160 F   0  0  0  0  0  0  0  0  0  0  0  0
  182.2530  175.2660  135.9260 F   0  0  0  0  0  0  0  0  0  0  0  0
  184.2690  175.2280  136.9340 F   0  0  0  0  0  0  0  0  0  0  0  0
  182.9110  175.0590  137.1240 C   0  0  0  0  0  0  0  0  0  0  0  0
  178.9310  176.1640  138.4100 C   0  0  0  0  0  1  0  0  0  0  0  0
  179.2450  175.7710  139.8370 C   0  0  0  0  0  2  0  0  0  0  0  0
  186.3300  178.9910  141.3830 C   0  0  0  0  0  2  0  0  0  0  0  0
  187.6320  178.2140  141.4790 C   0  0  0  0  0  2  0  0  0  0  0  0
  188.5890  178.9660  142.1830 O   0  0  0  0  0  0  0  0  0  0  0  0
  189.3250  178.0930  143.0100 C   0  0  0  0  0  3  0  0  0  0  0  0
  190.4330  175.7660  143.1740 C   0  0  0  0  0  2  0  0  0  0  0  0
  188.6680  177.8740  144.3900 C   0  0  0  0  0  2  0  0  0  0  0  0
  191.0720  177.3560  145.1030 C   0  0  0  0  0  2  0  0  0  0  0  0
  189.8130  176.8320  142.2680 C   0  0  0  0  0  2  0  0  0  0  0  0
  191.5420  176.3040  144.0850 C   0  0  0  0  0  2  0  0  0  0  0  0
  189.5860  177.2330  145.4440 C   0  0  0  0  0  2  0  0  0  0  0  0
  1 21  1  0  0  0  0
  2 25  1  6  0  0  0
  2 10  1  0  0  0  0
  3  4  2  0  0  0  0
  5 12  1  0  0  0  0
  7 13  1  6  0  0  0
  7  8  1  0  0  0  0
  8 10  1  0  0  0  0
  8 11  2  0  0  0  0
 10 14  2  0  0  0  0
 11 24  1  0  0  0  0
 12  9  1  0  0  0  0
 12 18  2  0  0  0  0
 13  1  2  0  0  0  0
 14 16  1  0  0  0  0
 14 19  1  0  0  0  0
 15  2  1  0  0  0  0
 16 20  1  0  0  0  0
 17  9  1  0  0  0  0
 19  5  1  0  0  0  0
 19  3  1  0  0  0  0
 20 34  1  6  0  0  0
 20  3  1  0  0  0  0
 21 11  1  0  0  0  0
 21  6  2  0  0  0  0
 22 23  1  6  0  0  0
 22 15  1  0  0  0  0
 22  7  1  0  0  0  0
 24  5  2  0  0  0  0
 24 17  1  0  0  0  0
 25 27  2  0  0  0  0
 27 26  2  0  0  0  0
 29 31  1  0  0  0  0
 30 31  1  0  0  0  0
 31 28  1  0  0  0  0
 31 25  1  0  0  0  0
 32 33  1  0  0  0  0
 33 26  1  0  0  0  0
 34 35  1  0  0  0  0
 35 36  1  0  0  0  0
 36 37  1  0  0  0  0
 37 39  1  0  0  0  0
 38 42  1  0  0  0  0
 39 43  1  0  0  0  0
 40 43  1  0  0  0  0
 41 37  1  0  0  0  0
 41 38  1  0  0  0  0
 42 40  1  0  0  0  0
M  END
>  <MODEL>
6

>  <REMARK>
 VINA RESULT:      -7.0      4.725      8.734
  Name = 
  7 active torsions:
  status: ('A' for Active; 'I' for Inactive)
    1  A    between atoms: C_1  and  O_31
    2  A    between atoms: C_3  and  C_11
    3  A    between atoms: C_11  and  C_34
    4  A    between atoms: C_16  and  C_28
    5  A    between atoms: C_16  and  O_31
    6  A    between atoms: C_18  and  C_26
    7  A    between atoms: C_28  and  C_39
                            x       y       z     vdW  Elec       q    Type
                         _______ _______ _______ _____ _____    ______ ____

>  <TORSDO>
F 7

$$$$
=
 OpenBabel11062412193D

 43 48  0  0  1  0  0  0  0  0999 V2000
  184.1090  173.6600  136.1280 N   0  0  0  0  0  0  0  0  0  0  0  0
  182.4680  177.1870  139.3790 C   0  0  2  0  0  3  0  0  0  0  0  0
  186.9780  178.2740  139.7160 C   0  0  0  0  0  0  0  0  0  0  0  0
  188.2310  178.3610  139.6250 O   0  0  0  0  0  0  0  0  0  0  0  0
  186.4710  177.8050  137.2890 C   0  0  0  0  0  0  0  0  0  0  0  0
  185.8460  174.6080  134.9080 O   0  0  0  0  0  0  0  0  0  0  0  0
  182.6590  175.2380  137.2370 C   0  0  1  0  0  3  0  0  0  0  0  0
  183.8510  176.1520  137.4710 C   0  0  0  0  0  0  0  0  0  0  0  0
  187.4190  178.4340  135.2800 O   0  0  0  0  0  0  0  0  0  0  0  0
  183.7770  177.1130  138.6260 C   0  0  0  0  0  0  0  0  0  0  0  0
  184.8760  176.0280  136.5850 C   0  0  0  0  0  0  0  0  0  0  0  0
  187.4210  178.6810  136.6370 C   0  0  0  0  0  0  0  0  0  0  0  0
  183.0490  173.8410  136.8510 C   0  0  0  0  0  3  0  0  0  0  0  0
  184.8350  177.7400  139.1900 C   0  0  0  0  0  0  0  0  0  0  0  0
  181.7670  175.9030  139.4630 N   0  0  0  0  0  2  0  0  0  0  0  0
  184.7620  178.4250  140.5270 C   0  0  0  0  0  2  0  0  0  0  0  0
  186.4740  177.4070  135.0020 C   0  0  0  0  0  2  0  0  0  0  0  0
  188.1180  179.5740  137.1850 O   0  0  0  0  0  0  0  0  0  0  0  0
  186.1610  177.7430  138.6820 N   0  0  0  0  0  0  0  0  0  0  0  0
  186.2140  178.6940  140.9240 C   0  0  1  0  0  3  0  0  0  0  0  0
  184.9670  174.7610  135.7970 C   0  0  0  0  0  0  0  0  0  0  0  0
  181.4210  175.4320  138.1300 C   0  0  2  0  0  3  0  0  0  0  0  0
  180.5200  174.2110  138.2190 C   0  0  0  0  0  1  0  0  0  0  0  0
  185.8950  177.0720  136.3560 C   0  0  0  0  0  0  0  0  0  0  0  0
  181.5940  178.3770  139.0630 C   0  0  0  0  0  0  0  0  0  0  0  0
  181.5590  179.2060  136.5870 C   0  0  0  0  0  3  0  0  0  0  0  0
  181.5800  178.7920  137.8230 C   0  0  0  0  0  0  0  0  0  0  0  0
  181.1120  180.2980  140.4010 F   0  0  0  0  0  0  0  0  0  0  0  0
  179.3950  179.1140  139.5800 F   0  0  0  0  0  0  0  0  0  0  0  0
  180.6660  178.2670  141.2390 F   0  0  0  0  0  0  0  0  0  0  0  0
  180.6800  179.0210  140.0810 C   0  0  0  0  0  0  0  0  0  0  0  0
  182.0790  177.8710  134.5980 C   0  0  0  0  0  1  0  0  0  0  0  0
  180.9790  178.3440  135.5240 C   0  0  0  0  0  2  0  0  0  0  0  0
  186.5690  177.8200  142.1200 C   0  0  0  0  0  2  0  0  0  0  0  0
  187.3390  178.6090  143.1650 C   0  0  0  0  0  2  0  0  0  0  0  0
  188.2200  177.7580  143.8560 O   0  0  0  0  0  0  0  0  0  0  0  0
  187.9160  177.8200  145.2320 C   0  0  0  0  0  3  0  0  0  0  0  0
  188.5870  176.9930  147.5840 C   0  0  0  0  0  2  0  0  0  0  0  0
  186.4400  177.4860  145.5380 C   0  0  0  0  0  2  0  0  0  0  0  0
  186.8730  178.9220  147.6130 C   0  0  0  0  0  2  0  0  0  0  0  0
  188.9780  177.1310  146.1120 C   0  0  0  0  0  2  0  0  0  0  0  0
  188.1430  178.3120  148.2280 C   0  0  0  0  0  2  0  0  0  0  0  0
  185.9720  177.8790  146.9490 C   0  0  0  0  0  2  0  0  0  0  0  0
  1 13  2  0  0  0  0
  2 25  1  6  0  0  0
  2 15  1  0  0  0  0
  3 20  1  0  0  0  0
  4  3  2  0  0  0  0
  5 19  1  0  0  0  0
  6 21  2  0  0  0  0
  7 13  1  1  0  0  0
  7  8  1  0  0  0  0
  7 22  1  0  0  0  0
  8 10  1  0  0  0  0
  9 12  1  0  0  0  0
 10 14  2  0  0  0  0
 10  2  1  0  0  0  0
 11  8  2  0  0  0  0
 12 18  2  0  0  0  0
 12  5  1  0  0  0  0
 14 16  1  0  0  0  0
 16 20  1  0  0  0  0
 17  9  1  0  0  0  0
 17 24  1  0  0  0  0
 19 14  1  0  0  0  0
 19  3  1  0  0  0  0
 20 34  1  1  0  0  0
 21  1  1  0  0  0  0
 21 11  1  0  0  0  0
 22 23  1  1  0  0  0
 22 15  1  0  0  0  0
 24 11  1  0  0  0  0
 24  5  2  0  0  0  0
 25 31  1  0  0  0  0
 26 27  2  0  0  0  0
 27 25  2  0  0  0  0
 29 31  1  0  0  0  0
 31 28  1  0  0  0  0
 31 30  1  0  0  0  0
 32 33  1  0  0  0  0
 33 26  1  0  0  0  0
 34 35  1  0  0  0  0
 35 36  1  0  0  0  0
 36 37  1  0  0  0  0
 37 39  1  0  0  0  0
 37 41  1  0  0  0  0
 38 42  1  0  0  0  0
 39 43  1  0  0  0  0
 40 42  1  0  0  0  0
 41 38  1  0  0  0  0
 43 40  1  0  0  0  0
M  END
>  <MODEL>
7

>  <REMARK>
 VINA RESULT:      -6.6      4.251      5.611
  Name = 
  7 active torsions:
  status: ('A' for Active; 'I' for Inactive)
    1  A    between atoms: C_1  and  O_31
    2  A    between atoms: C_3  and  C_11
    3  A    between atoms: C_11  and  C_34
    4  A    between atoms: C_16  and  C_28
    5  A    between atoms: C_16  and  O_31
    6  A    between atoms: C_18  and  C_26
    7  A    between atoms: C_28  and  C_39
                            x       y       z     vdW  Elec       q    Type
                         _______ _______ _______ _____ _____    ______ ____

>  <TORSDO>
F 7

$$$$
=
 OpenBabel11062412193D

 43 48  0  0  1  0  0  0  0  0999 V2000
  185.7900  173.0690  135.9840 N   0  0  0  0  0  0  0  0  0  0  0  0
  182.6660  176.7110  137.6210 C   0  0  2  0  0  3  0  0  0  0  0  0
  186.5050  178.4330  139.6050 C   0  0  0  0  0  0  0  0  0  0  0  0
  187.6660  178.6780  140.0280 O   0  0  0  0  0  0  0  0  0  0  0  0
  187.1240  177.6080  137.3030 C   0  0  0  0  0  0  0  0  0  0  0  0
  187.8110  174.0890  135.4510 O   0  0  0  0  0  0  0  0  0  0  0  0
  183.8970  174.5590  136.1110 C   0  0  1  0  0  3  0  0  0  0  0  0
  184.8040  175.6490  136.6600 C   0  0  0  0  0  0  0  0  0  0  0  0
  188.7960  178.1090  135.7910 O   0  0  0  0  0  0  0  0  0  0  0  0
  184.1730  176.7240  137.5010 C   0  0  0  0  0  0  0  0  0  0  0  0
  186.1170  175.5580  136.3120 C   0  0  0  0  0  0  0  0  0  0  0  0
  188.1970  178.5180  136.9640 C   0  0  0  0  0  0  0  0  0  0  0  0
  184.5120  173.1920  136.1620 C   0  0  0  0  0  3  0  0  0  0  0  0
  184.8400  177.5530  138.3380 C   0  0  0  0  0  0  0  0  0  0  0  0
  182.0910  175.3640  137.6230 N   0  0  0  0  0  2  0  0  0  0  0  0
  184.1510  178.3800  139.3890 C   0  0  0  0  0  2  0  0  0  0  0  0
  188.1370  176.9370  135.3240 C   0  0  0  0  0  2  0  0  0  0  0  0
  188.5250  179.5570  137.5930 O   0  0  0  0  0  0  0  0  0  0  0  0
  186.2510  177.6740  138.4310 N   0  0  0  0  0  0  0  0  0  0  0  0
  185.2690  178.8900  140.2990 C   0  0  1  0  0  3  0  0  0  0  0  0
  186.6270  174.2280  135.8570 C   0  0  0  0  0  0  0  0  0  0  0  0
  182.3850  174.6920  136.3650 C   0  0  2  0  0  3  0  0  0  0  0  0
  181.6220  173.3790  136.2780 C   0  0  0  0  0  1  0  0  0  0  0  0
  187.0580  176.6940  136.3530 C   0  0  0  0  0  0  0  0  0  0  0  0
  181.9310  177.7240  136.7770 C   0  0  0  0  0  0  0  0  0  0  0  0
  180.4300  179.4560  138.0290 C   0  0  0  0  0  3  0  0  0  0  0  0
  181.1780  178.5890  137.4050 C   0  0  0  0  0  0  0  0  0  0  0  0
  181.5280  176.7630  134.6250 F   0  0  0  0  0  0  0  0  0  0  0  0
  181.5270  178.9970  134.8110 F   0  0  0  0  0  0  0  0  0  0  0  0
  183.4600  177.8460  134.9720 F   0  0  0  0  0  0  0  0  0  0  0  0
  182.1130  177.8350  135.2800 C   0  0  0  0  0  0  0  0  0  0  0  0
  180.8390  180.0760  140.3640 C   0  0  0  0  0  1  0  0  0  0  0  0
  181.0530  180.4710  138.9190 C   0  0  0  0  0  2  0  0  0  0  0  0
  185.1360  178.2260  141.6630 C   0  0  0  0  0  2  0  0  0  0  0  0
  186.0710  178.8630  142.6760 C   0  0  0  0  0  2  0  0  0  0  0  0
  186.0350  178.1420  143.8830 O   0  0  0  0  0  0  0  0  0  0  0  0
  187.3530  177.7800  144.2280 C   0  0  0  0  0  3  0  0  0  0  0  0
  189.3940  176.3430  143.5630 C   0  0  0  0  0  2  0  0  0  0  0  0
  187.4790  177.2800  145.6840 C   0  0  0  0  0  2  0  0  0  0  0  0
  189.9000  178.0700  145.4140 C   0  0  0  0  0  2  0  0  0  0  0  0
  188.0450  176.9300  143.1430 C   0  0  0  0  0  2  0  0  0  0  0  0
  190.3700  177.3870  144.1200 C   0  0  0  0  0  2  0  0  0  0  0  0
  188.9190  177.2130  146.2170 C   0  0  0  0  0  2  0  0  0  0  0  0
  1 13  2  0  0  0  0
  2 25  1  6  0  0  0
  2 15  1  0  0  0  0
  3  4  2  0  0  0  0
  3 20  1  0  0  0  0
  5 19  1  0  0  0  0
  6 21  2  0  0  0  0
  7 13  1  1  0  0  0
  7 22  1  0  0  0  0
  7  8  1  0  0  0  0
  8 10  1  0  0  0  0
  9 12  1  0  0  0  0
 10  2  1  0  0  0  0
 10 14  2  0  0  0  0
 11 24  1  0  0  0  0
 11  8  2  0  0  0  0
 12  5  1  0  0  0  0
 12 18  2  0  0  0  0
 14 19  1  0  0  0  0
 14 16  1  0  0  0  0
 16 20  1  0  0  0  0
 17  9  1  0  0  0  0
 17 24  1  0  0  0  0
 19  3  1  0  0  0  0
 20 34  1  1  0  0  0
 21  1  1  0  0  0  0
 21 11  1  0  0  0  0
 22 23  1  1  0  0  0
 22 15  1  0  0  0  0
 24  5  2  0  0  0  0
 25 27  2  0  0  0  0
 26 33  1  0  0  0  0
 27 26  2  0  0  0  0
 28 31  1  0  0  0  0
 29 31  1  0  0  0  0
 30 31  1  0  0  0  0
 31 25  1  0  0  0  0
 33 32  1  0  0  0  0
 34 35  1  0  0  0  0
 35 36  1  0  0  0  0
 36 37  1  0  0  0  0
 37 39  1  0  0  0  0
 38 42  1  0  0  0  0
 39 43  1  0  0  0  0
 40 43  1  0  0  0  0
 41 38  1  0  0  0  0
 41 37  1  0  0  0  0
 42 40  1  0  0  0  0
M  END
>  <MODEL>
8

>  <REMARK>
 VINA RESULT:      -6.6      3.350      4.862
  Name = 
  7 active torsions:
  status: ('A' for Active; 'I' for Inactive)
    1  A    between atoms: C_1  and  O_31
    2  A    between atoms: C_3  and  C_11
    3  A    between atoms: C_11  and  C_34
    4  A    between atoms: C_16  and  C_28
    5  A    between atoms: C_16  and  O_31
    6  A    between atoms: C_18  and  C_26
    7  A    between atoms: C_28  and  C_39
                            x       y       z     vdW  Elec       q    Type
                         _______ _______ _______ _____ _____    ______ ____

>  <TORSDO>
F 7

$$$$
=
 OpenBabel11062412193D

 43 48  0  0  1  0  0  0  0  0999 V2000
  184.0780  173.5520  136.5000 N   0  0  0  0  0  0  0  0  0  0  0  0
  182.1590  177.3350  139.2760 C   0  0  2  0  0  3  0  0  0  0  0  0
  186.6220  178.4890  139.8980 C   0  0  0  0  0  0  0  0  0  0  0  0
  187.8780  178.5790  139.9070 O   0  0  0  0  0  0  0  0  0  0  0  0
  186.3250  177.8050  137.4880 C   0  0  0  0  0  0  0  0  0  0  0  0
  185.9110  174.4060  135.3530 O   0  0  0  0  0  0  0  0  0  0  0  0
  182.5360  175.2080  137.3380 C   0  0  1  0  0  3  0  0  0  0  0  0
  183.7010  176.1500  137.5910 C   0  0  0  0  0  0  0  0  0  0  0  0
  187.4400  178.2640  135.5190 O   0  0  0  0  0  0  0  0  0  0  0  0
  183.5270  177.2070  138.6470 C   0  0  0  0  0  0  0  0  0  0  0  0
  184.8000  175.9580  136.8100 C   0  0  0  0  0  0  0  0  0  0  0  0
  187.3250  178.6290  136.8430 C   0  0  0  0  0  0  0  0  0  0  0  0
  182.9600  173.7860  137.1120 C   0  0  0  0  0  3  0  0  0  0  0  0
  184.5330  177.8910  139.2400 C   0  0  0  0  0  0  0  0  0  0  0  0
  181.4560  176.0570  139.4130 N   0  0  0  0  0  2  0  0  0  0  0  0
  184.3450  178.6900  140.5010 C   0  0  0  0  0  2  0  0  0  0  0  0
  186.5240  177.2080  135.2530 C   0  0  0  0  0  2  0  0  0  0  0  0
  187.9720  179.5730  137.3690 O   0  0  0  0  0  0  0  0  0  0  0  0
  185.8970  177.8620  138.8490 N   0  0  0  0  0  0  0  0  0  0  0  0
  185.7570  179.0060  140.9950 C   0  0  1  0  0  3  0  0  0  0  0  0
  184.9590  174.6280  136.1470 C   0  0  0  0  0  0  0  0  0  0  0  0
  181.2260  175.4680  138.1020 C   0  0  2  0  0  3  0  0  0  0  0  0
  180.3220  174.2510  138.2220 C   0  0  0  0  0  1  0  0  0  0  0  0
  185.8320  176.9870  136.5780 C   0  0  0  0  0  0  0  0  0  0  0  0
  181.3140  178.4850  138.7830 C   0  0  0  0  0  0  0  0  0  0  0  0
  178.9990  178.8430  139.9390 C   0  0  0  0  0  3  0  0  0  0  0  0
  180.1540  178.6610  139.3610 C   0  0  0  0  0  0  0  0  0  0  0  0
  180.7380  180.2120  137.2340 F   0  0  0  0  0  0  0  0  0  0  0  0
  182.7010  180.3540  138.3060 F   0  0  0  0  0  0  0  0  0  0  0  0
  182.3950  178.8000  136.7000 F   0  0  0  0  0  0  0  0  0  0  0  0
  181.7930  179.4740  137.7450 C   0  0  0  0  0  0  0  0  0  0  0  0
  180.1510  178.7220  142.0990 C   0  0  0  0  0  1  0  0  0  0  0  0
  178.9380  179.2530  141.3670 C   0  0  0  0  0  2  0  0  0  0  0  0
  186.0090  178.2450  142.2890 C   0  0  0  0  0  2  0  0  0  0  0  0
  187.4960  178.0360  142.5220 C   0  0  0  0  0  2  0  0  0  0  0  0
  187.7440  177.8340  143.8910 O   0  0  0  0  0  0  0  0  0  0  0  0
  189.1090  177.5220  144.0580 C   0  0  0  0  0  3  0  0  0  0  0  0
  191.0330  177.2990  145.7660 C   0  0  0  0  0  2  0  0  0  0  0  0
  190.0320  178.3400  143.1290 C   0  0  0  0  0  2  0  0  0  0  0  0
  191.5960  176.3360  143.4380 C   0  0  0  0  0  2  0  0  0  0  0  0
  189.5260  177.4290  145.5400 C   0  0  0  0  0  2  0  0  0  0  0  0
  191.6780  176.1630  144.9630 C   0  0  0  0  0  2  0  0  0  0  0  0
  191.4660  177.7990  143.0110 C   0  0  0  0  0  2  0  0  0  0  0  0
  1 13  2  0  0  0  0
  2 25  1  6  0  0  0
  2 15  1  0  0  0  0
  3  4  2  0  0  0  0
  3 20  1  0  0  0  0
  5 19  1  0  0  0  0
  6 21  2  0  0  0  0
  7 13  1  1  0  0  0
  7  8  1  0  0  0  0
  7 22  1  0  0  0  0
  8 10  1  0  0  0  0
  9 12  1  0  0  0  0
 10 14  2  0  0  0  0
 10  2  1  0  0  0  0
 11  8  2  0  0  0  0
 12 18  2  0  0  0  0
 12  5  1  0  0  0  0
 14 16  1  0  0  0  0
 16 20  1  0  0  0  0
 17  9  1  0  0  0  0
 17 24  1  0  0  0  0
 19 14  1  0  0  0  0
 19  3  1  0  0  0  0
 20 34  1  1  0  0  0
 21  1  1  0  0  0  0
 21 11  1  0  0  0  0
 22 23  1  1  0  0  0
 22 15  1  0  0  0  0
 24 11  1  0  0  0  0
 24  5  2  0  0  0  0
 25 27  2  0  0  0  0
 26 33  1  0  0  0  0
 27 26  2  0  0  0  0
 28 31  1  0  0  0  0
 30 31  1  0  0  0  0
 31 29  1  0  0  0  0
 31 25  1  0  0  0  0
 33 32  1  0  0  0  0
 34 35  1  0  0  0  0
 35 36  1  0  0  0  0
 36 37  1  0  0  0  0
 37 41  1  0  0  0  0
 39 37  1  0  0  0  0
 40 42  1  0  0  0  0
 41 38  1  0  0  0  0
 42 38  1  0  0  0  0
 43 39  1  0  0  0  0
 43 40  1  0  0  0  0
M  END
>  <MODEL>
9

>  <REMARK>
 VINA RESULT:      -6.5      3.923      5.827
  Name = 
  7 active torsions:
  status: ('A' for Active; 'I' for Inactive)
    1  A    between atoms: C_1  and  O_31
    2  A    between atoms: C_3  and  C_11
    3  A    between atoms: C_11  and  C_34
    4  A    between atoms: C_16  and  C_28
    5  A    between atoms: C_16  and  O_31
    6  A    between atoms: C_18  and  C_26
    7  A    between atoms: C_28  and  C_39
                            x       y       z     vdW  Elec       q    Type
                         _______ _______ _______ _____ _____    ______ ____

>  <TORSDO>
F 7

$$$$
