=
 OpenBabel11062415583D

 41 44  0  0  1  0  0  0  0  0999 V2000
  180.6950  178.2690  143.6360 O   0  0  0  0  0  0  0  0  0  0  0  0
  180.6610  178.7990  141.3350 C   0  0  0  0  0  0  0  0  0  0  0  0
  182.1510  179.1070  141.2690 C   0  0  1  0  0  3  0  0  0  0  0  0
  181.9910  178.7940  143.7740 C   0  0  0  0  0  2  0  0  0  0  0  0
  180.0420  179.0590  142.6740 C   0  0  0  0  0  2  0  0  0  0  0  0
  180.0990  177.8510  140.5790 C   0  0  0  0  0  2  0  0  0  0  0  0
  182.8350  178.5020  142.5210 C   0  0  2  0  0  3  0  0  0  0  0  0
  184.1680  177.1440  137.6130 C   0  0  0  0  0  0  0  0  0  0  0  0
  185.2670  178.3320  139.5330 C   0  0  0  0  0  2  0  0  0  0  0  0
  184.0510  175.9660  137.9200 O   0  0  0  0  0  0  0  0  0  0  0  0
  182.7760  177.1300  135.6980 O   0  0  0  0  0  1  0  0  0  0  0  0
  184.1810  179.3710  139.7600 C   0  0  0  0  0  2  0  0  0  0  0  0
  185.3570  177.9440  138.0580 C   0  0  1  0  0  3  0  0  0  0  0  0
  182.8220  178.7060  139.9290 C   0  0  2  0  0  3  0  0  0  0  0  0
  183.0800  177.8420  136.8590 C   0  0  1  0  0  3  0  0  0  0  0  0
  181.8300  177.9820  137.7220 C   0  0  0  0  0  2  0  0  0  0  0  0
  181.9560  179.1130  138.7390 C   0  0  0  0  0  2  0  0  0  0  0  0
  186.7080  177.3170  137.6580 C   0  0  2  0  0  3  0  0  0  0  0  0
  188.3080  179.2700  137.6540 O   0  0  0  0  0  0  0  0  0  0  0  0
  188.6260  177.5040  139.0740 O   0  0  0  0  0  1  0  0  0  0  0  0
  187.9220  178.0400  138.1740 C   0  0  0  0  0  0  0  0  0  0  0  0
  186.8120  177.1380  136.1390 C   0  0  0  0  0  2  0  0  0  0  0  0
  186.9840  175.6770  135.7070 C   0  0  0  0  0  3  0  0  0  0  0  0
  185.8230  175.1900  134.8590 C   0  0  0  0  0  1  0  0  0  0  0  0
  187.1980  174.7590  136.8990 C   0  0  0  0  0  1  0  0  0  0  0  0
  184.1600  179.0760  142.7170 N   0  0  0  0  0  2  0  0  0  0  0  0
  185.0360  179.3630  144.9420 C   0  0  0  0  0  2  0  0  0  0  0  0
  185.0350  178.7030  143.7900 C   0  0  0  0  0  0  0  0  0  0  0  0
  185.9800  177.5640  143.5970 C   0  0  0  0  0  2  0  0  0  0  0  0
  188.8020  177.5140  147.2340 C   0  0  0  0  0  3  0  0  0  0  0  0
  190.4840  177.0010  145.4020 C   0  0  0  0  0  3  0  0  0  0  0  0
  189.4960  177.1220  144.5090 C   0  0  0  0  0  0  0  0  0  0  0  0
  189.6810  177.4190  143.0660 C   0  0  2  0  0  0  0  0  0  0  0  0
  190.2160  176.2140  142.3150 C   0  0  0  0  0  1  0  0  0  0  0  0
  190.5310  178.5150  142.8920 O   0  0  0  0  0  1  0  0  0  0  0  0
  187.4190  178.0040  143.8330 C   0  0  1  0  0  3  0  0  0  0  0  0
  187.8370  177.6390  146.3160 C   0  0  0  0  0  3  0  0  0  0  0  0
  191.0040  176.7520  147.7060 O   0  0  0  0  0  0  0  0  0  0  0  0
  188.0600  177.1490  144.9040 C   0  0  2  0  0  3  0  0  0  0  0  0
  190.1390  177.0330  146.8340 C   0  0  0  0  0  0  0  0  0  0  0  0
  188.2780  177.7750  142.5800 C   0  0  0  0  0  2  0  0  0  0  0  0
  1  4  1  0  0  0  0
  2  5  1  0  0  0  0
  3  2  1  6  0  0  0
  3  7  1  0  0  0  0
  5  1  1  0  0  0  0
  6  2  2  0  0  0  0
  7 26  1  1  0  0  0
  7  4  1  0  0  0  0
  8 10  2  0  0  0  0
  8 13  1  0  0  0  0
  9 12  1  0  0  0  0
 12 14  1  0  0  0  0
 13 18  1  1  0  0  0
 13  9  1  0  0  0  0
 14 17  1  6  0  0  0
 14  3  1  0  0  0  0
 15 11  1  6  0  0  0
 15  8  1  0  0  0  0
 15 16  1  0  0  0  0
 16 17  1  0  0  0  0
 18 22  1  6  0  0  0
 18 21  1  0  0  0  0
 19 21  2  0  0  0  0
 21 20  1  0  0  0  0
 23 22  1  0  0  0  0
 23 25  1  0  0  0  0
 24 23  1  0  0  0  0
 26 28  1  0  0  0  0
 28 27  2  0  0  0  0
 29 28  1  0  0  0  0
 31 40  1  0  0  0  0
 32 39  1  0  0  0  0
 32 31  2  0  0  0  0
 33 34  1  6  0  0  0
 33 32  1  0  0  0  0
 35 33  1  0  0  0  0
 36 29  1  6  0  0  0
 36 39  1  0  0  0  0
 37 30  2  0  0  0  0
 39 37  1  1  0  0  0
 40 30  1  0  0  0  0
 40 38  2  0  0  0  0
 41 33  1  0  0  0  0
 41 36  1  0  0  0  0
M  END
>  <MODEL>
1

>  <REMARK>
 VINA RESULT:      -8.6      0.000      0.000
  Name = 
  9 active torsions:
  status: ('A' for Active; 'I' for Inactive)
    1  A    between atoms: N_1  and  C_40
    2  A    between atoms: N_1  and  C_41
    3  A    between atoms: C_3  and  C_12
    4  A    between atoms: C_3  and  C_27
    5  A    between atoms: C_13  and  C_29
    6  A    between atoms: C_22  and  C_30
    7  A    between atoms: C_27  and  C_28
    8  A    between atoms: C_27  and  C_37
    9  A    between atoms: C_29  and  C_41
                            x       y       z     vdW  Elec       q    Type
                         _______ _______ _______ _____ _____    ______ ____

>  <TORSDO>
F 9

$$$$
=
 OpenBabel11062415583D

 41 44  0  0  1  0  0  0  0  0999 V2000
  181.2070  179.5630  142.6840 O   0  0  0  0  0  0  0  0  0  0  0  0
  182.9780  178.6420  143.9460 C   0  0  0  0  0  0  0  0  0  0  0  0
  183.7090  178.0910  142.7290 C   0  0  1  0  0  3  0  0  0  0  0  0
  181.6200  178.8700  141.5340 C   0  0  0  0  0  2  0  0  0  0  0  0
  181.4920  178.7300  143.7800 C   0  0  0  0  0  2  0  0  0  0  0  0
  183.5490  179.5170  144.7800 C   0  0  0  0  0  2  0  0  0  0  0  0
  183.1550  178.7930  141.4630 C   0  0  2  0  0  3  0  0  0  0  0  0
  188.2590  177.3820  143.0170 C   0  0  0  0  0  0  0  0  0  0  0  0
  186.6140  177.6550  144.8960 C   0  0  0  0  0  2  0  0  0  0  0  0
  188.3020  176.1930  142.7280 O   0  0  0  0  0  0  0  0  0  0  0  0
  189.4370  178.2230  141.1450 O   0  0  0  0  0  1  0  0  0  0  0  0
  185.7020  178.6550  144.2050 C   0  0  0  0  0  2  0  0  0  0  0  0
  188.0630  177.8240  144.4380 C   0  0  1  0  0  3  0  0  0  0  0  0
  185.2540  178.1330  142.8460 C   0  0  2  0  0  3  0  0  0  0  0  0
  188.3110  178.4240  141.9460 C   0  0  1  0  0  3  0  0  0  0  0  0
  187.0510  178.3800  141.0880 C   0  0  0  0  0  2  0  0  0  0  0  0
  185.8610  179.0400  141.7790 C   0  0  0  0  0  2  0  0  0  0  0  0
  189.0990  177.2380  145.4160 C   0  0  2  0  0  3  0  0  0  0  0  0
  188.7240  178.4710  147.5870 O   0  0  0  0  0  1  0  0  0  0  0  0
  188.3740  176.2130  147.4520 O   0  0  0  0  0  0  0  0  0  0  0  0
  188.7020  177.2820  146.8670 C   0  0  0  0  0  0  0  0  0  0  0  0
  190.4740  177.8900  145.2310 C   0  0  0  0  0  2  0  0  0  0  0  0
  191.6250  176.8810  145.1610 C   0  0  0  0  0  3  0  0  0  0  0  0
  191.4760  175.9220  143.9930 C   0  0  0  0  0  1  0  0  0  0  0  0
  191.7830  176.1150  146.4650 C   0  0  0  0  0  1  0  0  0  0  0  0
  183.5210  178.0580  140.2590 N   0  0  0  0  0  2  0  0  0  0  0  0
  183.4030  179.9550  138.7800 C   0  0  0  0  0  2  0  0  0  0  0  0
  183.5830  178.6510  138.9550 C   0  0  0  0  0  0  0  0  0  0  0  0
  183.8320  177.7790  137.7700 C   0  0  0  0  0  2  0  0  0  0  0  0
  184.8220  173.2970  137.4100 C   0  0  0  0  0  3  0  0  0  0  0  0
  186.9900  174.2700  136.5140 C   0  0  0  0  0  3  0  0  0  0  0  0
  186.5040  175.4910  136.7620 C   0  0  0  0  0  0  0  0  0  0  0  0
  187.3240  176.7150  136.9480 C   0  0  2  0  0  0  0  0  0  0  0  0
  187.8950  177.2060  135.6300 C   0  0  0  0  0  1  0  0  0  0  0  0
  188.3530  176.4860  137.8650 O   0  0  0  0  0  1  0  0  0  0  0  0
  185.0960  176.9500  137.9600 C   0  0  1  0  0  3  0  0  0  0  0  0
  184.3670  174.5310  137.6550 C   0  0  0  0  0  3  0  0  0  0  0  0
  186.4480  171.9680  136.2960 O   0  0  0  0  0  0  0  0  0  0  0  0
  185.0660  175.7330  137.0620 C   0  0  2  0  0  3  0  0  0  0  0  0
  186.0930  173.1140  136.6800 C   0  0  0  0  0  0  0  0  0  0  0  0
  186.3420  177.7340  137.5200 C   0  0  0  0  0  2  0  0  0  0  0  0
  1  5  1  0  0  0  0
  2  6  2  0  0  0  0
  3 14  1  0  0  0  0
  3  2  1  1  0  0  0
  4  1  1  0  0  0  0
  5  2  1  0  0  0  0
  7 26  1  6  0  0  0
  7  4  1  0  0  0  0
  7  3  1  0  0  0  0
  8 13  1  0  0  0  0
 10  8  2  0  0  0  0
 12  9  1  0  0  0  0
 13  9  1  0  0  0  0
 13 18  1  1  0  0  0
 14 17  1  6  0  0  0
 14 12  1  0  0  0  0
 15 11  1  6  0  0  0
 15  8  1  0  0  0  0
 16 17  1  0  0  0  0
 16 15  1  0  0  0  0
 18 22  1  1  0  0  0
 18 21  1  0  0  0  0
 21 20  2  0  0  0  0
 21 19  1  0  0  0  0
 23 22  1  0  0  0  0
 23 25  1  0  0  0  0
 24 23  1  0  0  0  0
 27 28  2  0  0  0  0
 28 26  1  0  0  0  0
 29 28  1  0  0  0  0
 30 37  2  0  0  0  0
 31 40  1  0  0  0  0
 31 32  2  0  0  0  0
 32 33  1  0  0  0  0
 32 39  1  0  0  0  0
 33 34  1  6  0  0  0
 33 41  1  0  0  0  0
 33 35  1  0  0  0  0
 36 29  1  6  0  0  0
 38 40  2  0  0  0  0
 39 37  1  1  0  0  0
 39 36  1  0  0  0  0
 40 30  1  0  0  0  0
 41 36  1  0  0  0  0
M  END
>  <MODEL>
2

>  <REMARK>
 VINA RESULT:      -8.5      1.857      7.493
  Name = 
  9 active torsions:
  status: ('A' for Active; 'I' for Inactive)
    1  A    between atoms: N_1  and  C_40
    2  A    between atoms: N_1  and  C_41
    3  A    between atoms: C_3  and  C_12
    4  A    between atoms: C_3  and  C_27
    5  A    between atoms: C_13  and  C_29
    6  A    between atoms: C_22  and  C_30
    7  A    between atoms: C_27  and  C_28
    8  A    between atoms: C_27  and  C_37
    9  A    between atoms: C_29  and  C_41
                            x       y       z     vdW  Elec       q    Type
                         _______ _______ _______ _____ _____    ______ ____

>  <TORSDO>
F 9

$$$$
=
 OpenBabel11062415583D

 41 44  0  0  1  0  0  0  0  0999 V2000
  181.3750  179.5370  142.2940 O   0  0  0  0  0  0  0  0  0  0  0  0
  183.0970  178.8990  143.7800 C   0  0  0  0  0  0  0  0  0  0  0  0
  183.8320  178.0590  142.7450 C   0  0  1  0  0  3  0  0  0  0  0  0
  181.7870  178.5810  141.3500 C   0  0  0  0  0  2  0  0  0  0  0  0
  181.6170  178.9800  143.5620 C   0  0  0  0  0  2  0  0  0  0  0  0
  183.6780  179.9330  144.3970 C   0  0  0  0  0  2  0  0  0  0  0  0
  183.3210  178.4530  141.3370 C   0  0  2  0  0  3  0  0  0  0  0  0
  188.3710  177.3180  143.1250 C   0  0  0  0  0  0  0  0  0  0  0  0
  186.7000  177.6570  144.9690 C   0  0  0  0  0  2  0  0  0  0  0  0
  188.4080  176.1220  142.8690 O   0  0  0  0  0  0  0  0  0  0  0  0
  189.5850  178.0980  141.2490 O   0  0  0  0  0  1  0  0  0  0  0  0
  185.8080  178.6460  144.2360 C   0  0  0  0  0  2  0  0  0  0  0  0
  188.1560  177.8010  144.5300 C   0  0  1  0  0  3  0  0  0  0  0  0
  185.3760  178.0900  142.8850 C   0  0  2  0  0  3  0  0  0  0  0  0
  188.4500  178.3300  142.0260 C   0  0  1  0  0  3  0  0  0  0  0  0
  187.2030  178.2740  141.1500 C   0  0  0  0  0  2  0  0  0  0  0  0
  186.0070  178.9630  141.8030 C   0  0  0  0  0  2  0  0  0  0  0  0
  189.1730  177.2340  145.5400 C   0  0  2  0  0  3  0  0  0  0  0  0
  188.3010  176.3260  147.7280 O   0  0  0  0  0  1  0  0  0  0  0  0
  188.8820  178.5310  147.5280 O   0  0  0  0  0  0  0  0  0  0  0  0
  188.7900  177.3950  146.9860 C   0  0  0  0  0  0  0  0  0  0  0  0
  190.5750  177.8050  145.3030 C   0  0  0  0  0  2  0  0  0  0  0  0
  191.6820  176.7470  145.3520 C   0  0  0  0  0  3  0  0  0  0  0  0
  191.5830  175.7590  144.2030 C   0  0  0  0  0  1  0  0  0  0  0  0
  191.7040  176.0160  146.6850 C   0  0  0  0  0  1  0  0  0  0  0  0
  183.6870  177.4450  140.3490 N   0  0  0  0  0  2  0  0  0  0  0  0
  184.5850  178.5870  138.4280 C   0  0  0  0  0  2  0  0  0  0  0  0
  183.7410  177.6980  138.9390 C   0  0  0  0  0  0  0  0  0  0  0  0
  182.8120  176.9630  138.0320 C   0  0  0  0  0  2  0  0  0  0  0  0
  179.8950  173.4100  138.2820 C   0  0  0  0  0  3  0  0  0  0  0  0
  181.7630  172.3150  136.9560 C   0  0  0  0  0  3  0  0  0  0  0  0
  182.4590  173.4520  137.0640 C   0  0  0  0  0  0  0  0  0  0  0  0
  183.9340  173.5670  136.9340 C   0  0  2  0  0  0  0  0  0  0  0  0
  184.3770  173.4290  135.4890 C   0  0  0  0  0  1  0  0  0  0  0  0
  184.5750  172.6140  137.7300 O   0  0  0  0  0  1  0  0  0  0  0  0
  182.9800  175.4570  138.1840 C   0  0  1  0  0  3  0  0  0  0  0  0
  180.6180  174.5310  138.3810 C   0  0  0  0  0  3  0  0  0  0  0  0
  179.6220  171.3140  137.1930 O   0  0  0  0  0  0  0  0  0  0  0  0
  181.8380  174.7300  137.5100 C   0  0  2  0  0  3  0  0  0  0  0  0
  180.3680  172.3020  137.4280 C   0  0  0  0  0  0  0  0  0  0  0  0
  184.2420  174.9670  137.4570 C   0  0  0  0  0  2  0  0  0  0  0  0
  1  5  1  0  0  0  0
  2  6  2  0  0  0  0
  3 14  1  0  0  0  0
  3  2  1  1  0  0  0
  4  1  1  0  0  0  0
  5  2  1  0  0  0  0
  7 26  1  6  0  0  0
  7  4  1  0  0  0  0
  7  3  1  0  0  0  0
  8 13  1  0  0  0  0
 10  8  2  0  0  0  0
 12  9  1  0  0  0  0
 13  9  1  0  0  0  0
 13 18  1  1  0  0  0
 14 17  1  6  0  0  0
 14 12  1  0  0  0  0
 15 11  1  6  0  0  0
 15  8  1  0  0  0  0
 16 17  1  0  0  0  0
 16 15  1  0  0  0  0
 18 22  1  1  0  0  0
 18 21  1  0  0  0  0
 21 20  2  0  0  0  0
 21 19  1  0  0  0  0
 22 23  1  0  0  0  0
 23 25  1  0  0  0  0
 24 23  1  0  0  0  0
 27 28  2  0  0  0  0
 28 26  1  0  0  0  0
 29 28  1  0  0  0  0
 30 37  2  0  0  0  0
 31 32  2  0  0  0  0
 31 40  1  0  0  0  0
 32 39  1  0  0  0  0
 33 34  1  6  0  0  0
 33 32  1  0  0  0  0
 33 41  1  0  0  0  0
 33 35  1  0  0  0  0
 36 29  1  6  0  0  0
 38 40  2  0  0  0  0
 39 36  1  0  0  0  0
 39 37  1  1  0  0  0
 40 30  1  0  0  0  0
 41 36  1  0  0  0  0
M  END
>  <MODEL>
3

>  <REMARK>
 VINA RESULT:      -8.4      2.650      8.443
  Name = 
  9 active torsions:
  status: ('A' for Active; 'I' for Inactive)
    1  A    between atoms: N_1  and  C_40
    2  A    between atoms: N_1  and  C_41
    3  A    between atoms: C_3  and  C_12
    4  A    between atoms: C_3  and  C_27
    5  A    between atoms: C_13  and  C_29
    6  A    between atoms: C_22  and  C_30
    7  A    between atoms: C_27  and  C_28
    8  A    between atoms: C_27  and  C_37
    9  A    between atoms: C_29  and  C_41
                            x       y       z     vdW  Elec       q    Type
                         _______ _______ _______ _____ _____    ______ ____

>  <TORSDO>
F 9

$$$$
=
 OpenBabel11062415583D

 41 44  0  0  1  0  0  0  0  0999 V2000
  181.8110  178.5120  144.2540 O   0  0  0  0  0  0  0  0  0  0  0  0
  180.7960  178.6420  142.1260 C   0  0  0  0  0  0  0  0  0  0  0  0
  182.0940  178.9710  141.4020 C   0  0  1  0  0  3  0  0  0  0  0  0
  182.9970  179.0840  143.7620 C   0  0  0  0  0  2  0  0  0  0  0  0
  180.7530  179.1100  143.5480 C   0  0  0  0  0  2  0  0  0  0  0  0
  180.0650  177.5660  141.8180 C   0  0  0  0  0  2  0  0  0  0  0  0
  183.2810  178.6040  142.3280 C   0  0  2  0  0  3  0  0  0  0  0  0
  181.6180  176.9000  137.3060 C   0  0  0  0  0  0  0  0  0  0  0  0
  182.6390  175.9650  139.4010 C   0  0  0  0  0  2  0  0  0  0  0  0
  180.4180  176.6580  137.3350 O   0  0  0  0  0  0  0  0  0  0  0  0
  181.6060  178.4320  135.5020 O   0  0  0  0  0  1  0  0  0  0  0  0
  183.2470  177.2620  139.9100 C   0  0  0  0  0  2  0  0  0  0  0  0
  182.6140  175.9320  137.8740 C   0  0  1  0  0  3  0  0  0  0  0  0
  182.1970  178.3640  139.9780 C   0  0  2  0  0  3  0  0  0  0  0  0
  182.1130  178.2110  136.7830 C   0  0  1  0  0  3  0  0  0  0  0  0
  181.7000  179.3520  137.7070 C   0  0  0  0  0  2  0  0  0  0  0  0
  182.5780  179.4300  138.9540 C   0  0  0  0  0  2  0  0  0  0  0  0
  182.5050  174.5130  137.2820 C   0  0  2  0  0  3  0  0  0  0  0  0
  183.7270  172.3130  137.4720 O   0  0  0  0  0  1  0  0  0  0  0  0
  184.8850  174.2820  137.3210 O   0  0  0  0  0  0  0  0  0  0  0  0
  183.7670  173.6970  137.3460 C   0  0  0  0  0  0  0  0  0  0  0  0
  181.9770  174.5480  135.8430 C   0  0  0  0  0  2  0  0  0  0  0  0
  180.8370  173.5560  135.5870 C   0  0  0  0  0  3  0  0  0  0  0  0
  180.1160  173.1680  136.8660 C   0  0  0  0  0  1  0  0  0  0  0  0
  181.3230  172.3180  134.8500 C   0  0  0  0  0  1  0  0  0  0  0  0
  184.5130  179.2350  141.8700 N   0  0  0  0  0  2  0  0  0  0  0  0
  186.5670  178.7230  140.7220 C   0  0  0  0  0  2  0  0  0  0  0  0
  185.7660  178.5460  141.7660 C   0  0  0  0  0  0  0  0  0  0  0  0
  186.1660  177.5950  142.8440 C   0  0  0  0  0  2  0  0  0  0  0  0
  186.5600  178.3940  147.3610 C   0  0  0  0  0  3  0  0  0  0  0  0
  188.9620  177.7490  146.8470 C   0  0  0  0  0  3  0  0  0  0  0  0
  188.6180  177.6330  145.5600 C   0  0  0  0  0  0  0  0  0  0  0  0
  189.5600  177.7090  144.4140 C   0  0  2  0  0  0  0  0  0  0  0  0
  190.4050  176.4530  144.3050 C   0  0  0  0  0  1  0  0  0  0  0  0
  190.3800  178.8350  144.5220 O   0  0  0  0  0  1  0  0  0  0  0  0
  187.2510  178.1980  143.7270 C   0  0  1  0  0  3  0  0  0  0  0  0
  186.2490  178.2790  146.0650 C   0  0  0  0  0  3  0  0  0  0  0  0
  188.1440  177.9250  149.0700 O   0  0  0  0  0  0  0  0  0  0  0  0
  187.1990  177.5910  145.1120 C   0  0  2  0  0  3  0  0  0  0  0  0
  187.8950  177.9800  147.8360 C   0  0  0  0  0  0  0  0  0  0  0  0
  188.6500  177.8500  143.1970 C   0  0  0  0  0  2  0  0  0  0  0  0
  2  5  1  0  0  0  0
  3  2  1  1  0  0  0
  3  7  1  0  0  0  0
  4  1  1  0  0  0  0
  5  1  1  0  0  0  0
  6  2  2  0  0  0  0
  7 26  1  6  0  0  0
  7  4  1  0  0  0  0
  8 10  2  0  0  0  0
  8 13  1  0  0  0  0
  9 12  1  0  0  0  0
 12 14  1  0  0  0  0
 13 18  1  1  0  0  0
 13  9  1  0  0  0  0
 14 17  1  6  0  0  0
 14  3  1  0  0  0  0
 15 11  1  6  0  0  0
 15  8  1  0  0  0  0
 15 16  1  0  0  0  0
 16 17  1  0  0  0  0
 18 22  1  6  0  0  0
 18 21  1  0  0  0  0
 20 21  2  0  0  0  0
 21 19  1  0  0  0  0
 23 22  1  0  0  0  0
 23 24  1  0  0  0  0
 25 23  1  0  0  0  0
 27 28  2  0  0  0  0
 28 26  1  0  0  0  0
 28 29  1  0  0  0  0
 30 40  1  0  0  0  0
 31 40  1  0  0  0  0
 32 31  2  0  0  0  0
 33 34  1  6  0  0  0
 33 35  1  0  0  0  0
 33 32  1  0  0  0  0
 36 29  1  6  0  0  0
 36 39  1  0  0  0  0
 37 30  2  0  0  0  0
 39 32  1  0  0  0  0
 39 37  1  1  0  0  0
 40 38  2  0  0  0  0
 41 36  1  0  0  0  0
 41 33  1  0  0  0  0
M  END
>  <MODEL>
4

>  <REMARK>
 VINA RESULT:      -8.3      2.314      3.322
  Name = 
  9 active torsions:
  status: ('A' for Active; 'I' for Inactive)
    1  A    between atoms: N_1  and  C_40
    2  A    between atoms: N_1  and  C_41
    3  A    between atoms: C_3  and  C_12
    4  A    between atoms: C_3  and  C_27
    5  A    between atoms: C_13  and  C_29
    6  A    between atoms: C_22  and  C_30
    7  A    between atoms: C_27  and  C_28
    8  A    between atoms: C_27  and  C_37
    9  A    between atoms: C_29  and  C_41
                            x       y       z     vdW  Elec       q    Type
                         _______ _______ _______ _____ _____    ______ ____

>  <TORSDO>
F 9

$$$$
=
 OpenBabel11062415583D

 41 44  0  0  1  0  0  0  0  0999 V2000
  181.4250  179.5220  142.1980 O   0  0  0  0  0  0  0  0  0  0  0  0
  183.1370  178.9210  143.7100 C   0  0  0  0  0  0  0  0  0  0  0  0
  183.8650  178.0350  142.7090 C   0  0  1  0  0  3  0  0  0  0  0  0
  181.8290  178.5270  141.2910 C   0  0  0  0  0  2  0  0  0  0  0  0
  181.6580  179.0100  143.4860 C   0  0  0  0  0  2  0  0  0  0  0  0
  183.7280  179.9710  144.2900 C   0  0  0  0  0  2  0  0  0  0  0  0
  183.3610  178.3820  141.2860 C   0  0  2  0  0  3  0  0  0  0  0  0
  188.3980  177.2610  143.0930 C   0  0  0  0  0  0  0  0  0  0  0  0
  186.7270  177.6060  144.9360 C   0  0  0  0  0  2  0  0  0  0  0  0
  188.4270  176.0660  142.8330 O   0  0  0  0  0  0  0  0  0  0  0  0
  189.6210  178.0380  141.2210 O   0  0  0  0  0  1  0  0  0  0  0  0
  185.8420  178.6040  144.2050 C   0  0  0  0  0  2  0  0  0  0  0  0
  188.1850  177.7410  144.4990 C   0  0  1  0  0  3  0  0  0  0  0  0
  185.4090  178.0550  142.8520 C   0  0  2  0  0  3  0  0  0  0  0  0
  188.4850  178.2760  141.9980 C   0  0  1  0  0  3  0  0  0  0  0  0
  187.2390  178.2310  141.1190 C   0  0  0  0  0  2  0  0  0  0  0  0
  186.0480  178.9270  141.7740 C   0  0  0  0  0  2  0  0  0  0  0  0
  189.1950  177.1630  145.5090 C   0  0  2  0  0  3  0  0  0  0  0  0
  188.8390  178.4620  147.6440 O   0  0  0  0  0  1  0  0  0  0  0  0
  188.3990  176.2180  147.5560 O   0  0  0  0  0  0  0  0  0  0  0  0
  188.7780  177.2580  146.9520 C   0  0  0  0  0  0  0  0  0  0  0  0
  190.5850  177.7820  145.3250 C   0  0  0  0  0  2  0  0  0  0  0  0
  191.7140  176.7460  145.2760 C   0  0  0  0  0  3  0  0  0  0  0  0
  191.5330  175.7540  144.1400 C   0  0  0  0  0  1  0  0  0  0  0  0
  191.8670  176.0180  146.6020 C   0  0  0  0  0  1  0  0  0  0  0  0
  183.7180  177.3350  140.3370 N   0  0  0  0  0  2  0  0  0  0  0  0
  182.0380  175.8530  139.4520 C   0  0  0  0  0  2  0  0  0  0  0  0
  182.8530  176.8880  139.2850 C   0  0  0  0  0  0  0  0  0  0  0  0
  182.8870  177.5890  137.9680 C   0  0  0  0  0  2  0  0  0  0  0  0
  187.4110  178.2270  137.3960 C   0  0  0  0  0  3  0  0  0  0  0  0
  187.2990  175.7190  137.0150 C   0  0  0  0  0  3  0  0  0  0  0  0
  185.9720  175.7910  137.1660 C   0  0  0  0  0  0  0  0  0  0  0  0
  184.9980  174.7950  136.6490 C   0  0  2  0  0  0  0  0  0  0  0  0
  185.0250  173.5160  137.4650 C   0  0  0  0  0  1  0  0  0  0  0  0
  185.2460  174.5150  135.3020 O   0  0  0  0  0  1  0  0  0  0  0  0
  183.9410  176.9780  137.0530 C   0  0  1  0  0  3  0  0  0  0  0  0
  186.0810  178.2680  137.5320 C   0  0  0  0  0  3  0  0  0  0  0  0
  189.3560  176.8630  137.3280 O   0  0  0  0  0  0  0  0  0  0  0  0
  185.2950  176.9920  137.7270 C   0  0  2  0  0  3  0  0  0  0  0  0
  188.0990  176.9250  137.2880 C   0  0  0  0  0  0  0  0  0  0  0  0
  183.6480  175.4920  136.7890 C   0  0  0  0  0  2  0  0  0  0  0  0
  1  5  1  0  0  0  0
  2  6  2  0  0  0  0
  3 14  1  0  0  0  0
  3  2  1  1  0  0  0
  4  1  1  0  0  0  0
  5  2  1  0  0  0  0
  7 26  1  6  0  0  0
  7  4  1  0  0  0  0
  7  3  1  0  0  0  0
  8 13  1  0  0  0  0
 10  8  2  0  0  0  0
 12  9  1  0  0  0  0
 13  9  1  0  0  0  0
 13 18  1  1  0  0  0
 14 17  1  6  0  0  0
 14 12  1  0  0  0  0
 15 11  1  6  0  0  0
 15  8  1  0  0  0  0
 16 17  1  0  0  0  0
 16 15  1  0  0  0  0
 18 22  1  1  0  0  0
 18 21  1  0  0  0  0
 21 20  2  0  0  0  0
 21 19  1  0  0  0  0
 23 22  1  0  0  0  0
 23 25  1  0  0  0  0
 24 23  1  0  0  0  0
 28 27  2  0  0  0  0
 28 26  1  0  0  0  0
 29 28  1  0  0  0  0
 30 37  2  0  0  0  0
 31 32  2  0  0  0  0
 31 40  1  0  0  0  0
 32 39  1  0  0  0  0
 33 41  1  0  0  0  0
 33 32  1  0  0  0  0
 33 34  1  1  0  0  0
 35 33  1  0  0  0  0
 36 39  1  0  0  0  0
 36 29  1  1  0  0  0
 39 37  1  6  0  0  0
 40 38  2  0  0  0  0
 40 30  1  0  0  0  0
 41 36  1  0  0  0  0
M  END
>  <MODEL>
5

>  <REMARK>
 VINA RESULT:      -8.3      1.751      7.526
  Name = 
  9 active torsions:
  status: ('A' for Active; 'I' for Inactive)
    1  A    between atoms: N_1  and  C_40
    2  A    between atoms: N_1  and  C_41
    3  A    between atoms: C_3  and  C_12
    4  A    between atoms: C_3  and  C_27
    5  A    between atoms: C_13  and  C_29
    6  A    between atoms: C_22  and  C_30
    7  A    between atoms: C_27  and  C_28
    8  A    between atoms: C_27  and  C_37
    9  A    between atoms: C_29  and  C_41
                            x       y       z     vdW  Elec       q    Type
                         _______ _______ _______ _____ _____    ______ ____

>  <TORSDO>
F 9

$$$$
=
 OpenBabel11062415583D

 41 44  0  0  1  0  0  0  0  0999 V2000
  180.0050  178.9690  142.7290 O   0  0  0  0  0  0  0  0  0  0  0  0
  180.5510  178.8340  140.4350 C   0  0  0  0  0  0  0  0  0  0  0  0
  182.0510  178.9470  140.6690 C   0  0  1  0  0  3  0  0  0  0  0  0
  181.3130  179.3670  143.0530 C   0  0  0  0  0  2  0  0  0  0  0  0
  179.7160  179.5250  141.4700 C   0  0  0  0  0  2  0  0  0  0  0  0
  180.0070  177.7800  139.8200 C   0  0  0  0  0  2  0  0  0  0  0  0
  182.3400  178.6460  142.1620 C   0  0  2  0  0  3  0  0  0  0  0  0
  184.0350  176.6950  137.1650 C   0  0  0  0  0  0  0  0  0  0  0  0
  182.4420  175.7880  138.8820 C   0  0  0  0  0  2  0  0  0  0  0  0
  183.3710  177.1340  136.2350 O   0  0  0  0  0  0  0  0  0  0  0  0
  186.1250  177.6200  136.5490 O   0  0  0  0  0  1  0  0  0  0  0  0
  182.9180  176.6380  140.0490 C   0  0  0  0  0  2  0  0  0  0  0  0
  183.5910  175.4790  137.9230 C   0  0  1  0  0  3  0  0  0  0  0  0
  182.9110  178.1160  139.6820 C   0  0  2  0  0  3  0  0  0  0  0  0
  185.2610  177.4170  137.6260 C   0  0  1  0  0  3  0  0  0  0  0  0
  184.8940  178.7570  138.2560 C   0  0  0  0  0  2  0  0  0  0  0  0
  184.3590  178.5990  139.6760 C   0  0  0  0  0  2  0  0  0  0  0  0
  183.3430  174.2490  137.0280 C   0  0  2  0  0  3  0  0  0  0  0  0
  181.0590  174.6980  136.0520 O   0  0  0  0  0  0  0  0  0  0  0  0
  181.4220  172.8680  137.3780 O   0  0  0  0  0  1  0  0  0  0  0  0
  181.8960  173.8950  136.8190 C   0  0  0  0  0  0  0  0  0  0  0  0
  184.1130  173.0240  137.5360 C   0  0  0  0  0  2  0  0  0  0  0  0
  185.3120  172.6490  136.6570 C   0  0  0  0  0  3  0  0  0  0  0  0
  186.6310  173.0770  137.2760 C   0  0  0  0  0  1  0  0  0  0  0  0
  185.1750  173.2070  135.2500 C   0  0  0  0  0  1  0  0  0  0  0  0
  183.6720  179.1040  142.5360 N   0  0  0  0  0  2  0  0  0  0  0  0
  184.2260  179.0060  144.8780 C   0  0  0  0  0  2  0  0  0  0  0  0
  184.4150  178.5680  143.6390 C   0  0  0  0  0  0  0  0  0  0  0  0
  185.4370  177.5110  143.3830 C   0  0  0  0  0  2  0  0  0  0  0  0
  188.0840  177.6410  147.1470 C   0  0  0  0  0  3  0  0  0  0  0  0
  189.8740  177.1970  145.4020 C   0  0  0  0  0  3  0  0  0  0  0  0
  188.9240  177.2590  144.4630 C   0  0  0  0  0  0  0  0  0  0  0  0
  189.1620  177.5510  143.0260 C   0  0  2  0  0  0  0  0  0  0  0  0
  189.7920  176.3670  142.3160 C   0  0  0  0  0  1  0  0  0  0  0  0
  189.9620  178.6860  142.8790 O   0  0  0  0  0  1  0  0  0  0  0  0
  186.8390  178.0260  143.6800 C   0  0  1  0  0  3  0  0  0  0  0  0
  187.1580  177.7070  146.1850 C   0  0  0  0  0  3  0  0  0  0  0  0
  190.2960  176.9980  147.7310 O   0  0  0  0  0  0  0  0  0  0  0  0
  187.4720  177.2160  144.7900 C   0  0  2  0  0  3  0  0  0  0  0  0
  189.4610  177.2250  146.8160 C   0  0  0  0  0  0  0  0  0  0  0  0
  187.7670  177.8290  142.4710 C   0  0  0  0  0  2  0  0  0  0  0  0
  1  4  1  0  0  0  0
  2  5  1  0  0  0  0
  3  2  1  6  0  0  0
  3  7  1  0  0  0  0
  5  1  1  0  0  0  0
  6  2  2  0  0  0  0
  7 26  1  1  0  0  0
  7  4  1  0  0  0  0
  8 15  1  0  0  0  0
  8 13  1  0  0  0  0
  9 12  1  0  0  0  0
 10  8  2  0  0  0  0
 13 18  1  6  0  0  0
 13  9  1  0  0  0  0
 14 17  1  1  0  0  0
 14 12  1  0  0  0  0
 14  3  1  0  0  0  0
 15 11  1  6  0  0  0
 15 16  1  0  0  0  0
 16 17  1  0  0  0  0
 18 22  1  1  0  0  0
 19 21  2  0  0  0  0
 21 18  1  0  0  0  0
 21 20  1  0  0  0  0
 23 24  1  0  0  0  0
 23 22  1  0  0  0  0
 25 23  1  0  0  0  0
 26 28  1  0  0  0  0
 28 27  2  0  0  0  0
 29 28  1  0  0  0  0
 31 40  1  0  0  0  0
 32 39  1  0  0  0  0
 32 31  2  0  0  0  0
 33 34  1  6  0  0  0
 33 32  1  0  0  0  0
 35 33  1  0  0  0  0
 36 29  1  6  0  0  0
 36 39  1  0  0  0  0
 37 30  2  0  0  0  0
 39 37  1  1  0  0  0
 40 30  1  0  0  0  0
 40 38  2  0  0  0  0
 41 33  1  0  0  0  0
 41 36  1  0  0  0  0
M  END
>  <MODEL>
6

>  <REMARK>
 VINA RESULT:      -8.3      1.709      3.025
  Name = 
  9 active torsions:
  status: ('A' for Active; 'I' for Inactive)
    1  A    between atoms: N_1  and  C_40
    2  A    between atoms: N_1  and  C_41
    3  A    between atoms: C_3  and  C_12
    4  A    between atoms: C_3  and  C_27
    5  A    between atoms: C_13  and  C_29
    6  A    between atoms: C_22  and  C_30
    7  A    between atoms: C_27  and  C_28
    8  A    between atoms: C_27  and  C_37
    9  A    between atoms: C_29  and  C_41
                            x       y       z     vdW  Elec       q    Type
                         _______ _______ _______ _____ _____    ______ ____

>  <TORSDO>
F 9

$$$$
=
 OpenBabel11062415583D

 41 44  0  0  1  0  0  0  0  0999 V2000
  186.7230  176.8310  136.5190 O   0  0  0  0  0  0  0  0  0  0  0  0
  188.6420  177.0990  137.8690 C   0  0  0  0  0  0  0  0  0  0  0  0
  187.9440  177.9990  138.8800 C   0  0  1  0  0  3  0  0  0  0  0  0
  186.0560  177.8630  137.2010 C   0  0  0  0  0  2  0  0  0  0  0  0
  188.0830  177.1870  136.4820 C   0  0  0  0  0  2  0  0  0  0  0  0
  189.2090  175.9410  138.2240 C   0  0  0  0  0  2  0  0  0  0  0  0
  186.4130  177.8480  138.6980 C   0  0  2  0  0  3  0  0  0  0  0  0
  188.9420  176.7070  143.1960 C   0  0  0  0  0  0  0  0  0  0  0  0
  187.1030  178.2330  142.4240 C   0  0  0  0  0  2  0  0  0  0  0  0
  188.5110  175.5620  143.1740 O   0  0  0  0  0  0  0  0  0  0  0  0
  191.2340  176.1960  143.4910 O   0  0  0  0  0  1  0  0  0  0  0  0
  187.8570  178.8700  141.2680 C   0  0  0  0  0  2  0  0  0  0  0  0
  188.0530  177.8600  143.5610 C   0  0  1  0  0  3  0  0  0  0  0  0
  188.4270  177.8040  140.3410 C   0  0  2  0  0  3  0  0  0  0  0  0
  190.3470  176.9960  142.7700 C   0  0  1  0  0  3  0  0  0  0  0  0
  190.5200  176.7440  141.2760 C   0  0  0  0  0  2  0  0  0  0  0  0
  189.9490  177.8800  140.4300 C   0  0  0  0  0  2  0  0  0  0  0  0
  187.3590  177.6950  144.9270 C   0  0  2  0  0  3  0  0  0  0  0  0
  184.9380  177.8830  144.2340 O   0  0  0  0  0  0  0  0  0  0  0  0
  185.8100  179.2830  145.8210 O   0  0  0  0  0  1  0  0  0  0  0  0
  185.9940  178.3200  145.0270 C   0  0  0  0  0  0  0  0  0  0  0  0
  188.2480  178.1970  146.0700 C   0  0  0  0  0  2  0  0  0  0  0  0
  188.3720  177.2020  147.2300 C   0  0  0  0  0  3  0  0  0  0  0  0
  187.9270  177.8040  148.5510 C   0  0  0  0  0  1  0  0  0  0  0  0
  189.7810  176.6430  147.3440 C   0  0  0  0  0  1  0  0  0  0  0  0
  185.7020  178.9410  139.3490 N   0  0  0  0  0  2  0  0  0  0  0  0
  183.5670  180.0150  139.0460 C   0  0  0  0  0  2  0  0  0  0  0  0
  184.2760  178.9850  139.4940 C   0  0  0  0  0  0  0  0  0  0  0  0
  183.5790  177.8600  140.1840 C   0  0  0  0  0  2  0  0  0  0  0  0
  182.9420  174.4630  137.1420 C   0  0  0  0  0  3  0  0  0  0  0  0
  180.6850  174.4020  138.3040 C   0  0  0  0  0  3  0  0  0  0  0  0
  181.0770  175.4440  139.0440 C   0  0  0  0  0  0  0  0  0  0  0  0
  180.1660  176.3910  139.7370 C   0  0  2  0  0  0  0  0  0  0  0  0
  179.5310  175.7570  140.9600 C   0  0  0  0  0  1  0  0  0  0  0  0
  179.1780  176.8540  138.8630 O   0  0  0  0  0  1  0  0  0  0  0  0
  182.3900  177.3740  139.3650 C   0  0  1  0  0  3  0  0  0  0  0  0
  183.3020  175.5110  137.8910 C   0  0  0  0  0  3  0  0  0  0  0  0
  181.4040  172.6760  136.8400 O   0  0  0  0  0  0  0  0  0  0  0  0
  182.4980  175.8860  139.1140 C   0  0  2  0  0  3  0  0  0  0  0  0
  181.6750  173.7590  137.4230 C   0  0  0  0  0  0  0  0  0  0  0  0
  181.0760  177.5480  140.1430 C   0  0  0  0  0  2  0  0  0  0  0  0
  1  4  1  0  0  0  0
  2  6  2  0  0  0  0
  3  2  1  6  0  0  0
  3 14  1  0  0  0  0
  4  7  1  0  0  0  0
  5  1  1  0  0  0  0
  5  2  1  0  0  0  0
  7  3  1  0  0  0  0
  7 26  1  1  0  0  0
  8 13  1  0  0  0  0
  9 13  1  0  0  0  0
 10  8  2  0  0  0  0
 12  9  1  0  0  0  0
 13 18  1  1  0  0  0
 14 17  1  6  0  0  0
 14 12  1  0  0  0  0
 15  8  1  0  0  0  0
 15 11  1  1  0  0  0
 16 15  1  0  0  0  0
 17 16  1  0  0  0  0
 18 21  1  0  0  0  0
 18 22  1  1  0  0  0
 19 21  2  0  0  0  0
 21 20  1  0  0  0  0
 22 23  1  0  0  0  0
 23 25  1  0  0  0  0
 23 24  1  0  0  0  0
 26 28  1  0  0  0  0
 27 28  2  0  0  0  0
 28 29  1  0  0  0  0
 30 40  1  0  0  0  0
 30 37  2  0  0  0  0
 31 32  2  0  0  0  0
 32 39  1  0  0  0  0
 32 33  1  0  0  0  0
 33 41  1  0  0  0  0
 33 34  1  1  0  0  0
 35 33  1  0  0  0  0
 36 41  1  0  0  0  0
 36 29  1  1  0  0  0
 38 40  2  0  0  0  0
 39 37  1  6  0  0  0
 39 36  1  0  0  0  0
 40 31  1  0  0  0  0
M  END
>  <MODEL>
7

>  <REMARK>
 VINA RESULT:      -8.2      2.457      9.064
  Name = 
  9 active torsions:
  status: ('A' for Active; 'I' for Inactive)
    1  A    between atoms: N_1  and  C_40
    2  A    between atoms: N_1  and  C_41
    3  A    between atoms: C_3  and  C_12
    4  A    between atoms: C_3  and  C_27
    5  A    between atoms: C_13  and  C_29
    6  A    between atoms: C_22  and  C_30
    7  A    between atoms: C_27  and  C_28
    8  A    between atoms: C_27  and  C_37
    9  A    between atoms: C_29  and  C_41
                            x       y       z     vdW  Elec       q    Type
                         _______ _______ _______ _____ _____    ______ ____

>  <TORSDO>
F 9

$$$$
=
 OpenBabel11062415583D

 41 44  0  0  1  0  0  0  0  0999 V2000
  181.5580  178.4880  144.3430 O   0  0  0  0  0  0  0  0  0  0  0  0
  180.4640  178.7460  142.2670 C   0  0  0  0  0  0  0  0  0  0  0  0
  181.7430  179.0590  141.5030 C   0  0  1  0  0  3  0  0  0  0  0  0
  182.7440  179.0380  143.8270 C   0  0  0  0  0  2  0  0  0  0  0  0
  180.4960  179.1540  143.7080 C   0  0  0  0  0  2  0  0  0  0  0  0
  179.6810  177.7110  141.9450 C   0  0  0  0  0  2  0  0  0  0  0  0
  182.9520  178.6100  142.3630 C   0  0  2  0  0  3  0  0  0  0  0  0
  180.9760  177.4050  137.2640 C   0  0  0  0  0  0  0  0  0  0  0  0
  181.5140  176.1180  139.3530 C   0  0  0  0  0  2  0  0  0  0  0  0
  179.7610  177.5350  137.2080 O   0  0  0  0  0  0  0  0  0  0  0  0
  181.5560  178.9440  135.5630 O   0  0  0  0  0  1  0  0  0  0  0  0
  182.4410  177.1470  139.9770 C   0  0  0  0  0  2  0  0  0  0  0  0
  181.5940  176.1580  137.8270 C   0  0  1  0  0  3  0  0  0  0  0  0
  181.7650  178.5100  140.0530 C   0  0  2  0  0  3  0  0  0  0  0  0
  181.8780  178.5260  136.8550 C   0  0  1  0  0  3  0  0  0  0  0  0
  181.7570  179.6980  137.8230 C   0  0  0  0  0  2  0  0  0  0  0  0
  182.5220  179.4540  139.1210 C   0  0  0  0  0  2  0  0  0  0  0  0
  181.1100  174.8650  137.1420 C   0  0  2  0  0  3  0  0  0  0  0  0
  178.9790  174.4430  138.4280 O   0  0  0  0  0  1  0  0  0  0  0  0
  180.6140  172.8450  138.3220 O   0  0  0  0  0  0  0  0  0  0  0  0
  180.2180  173.9940  137.9830 C   0  0  0  0  0  0  0  0  0  0  0  0
  182.2870  174.0440  136.6050 C   0  0  0  0  0  2  0  0  0  0  0  0
  183.6570  174.6090  136.9990 C   0  0  0  0  0  3  0  0  0  0  0  0
  184.3470  175.3000  135.8360 C   0  0  0  0  0  1  0  0  0  0  0  0
  184.5560  173.5390  137.5960 C   0  0  0  0  0  1  0  0  0  0  0  0
  184.1870  179.2160  141.8810 N   0  0  0  0  0  2  0  0  0  0  0  0
  186.1420  178.6280  140.6020 C   0  0  0  0  0  2  0  0  0  0  0  0
  185.4100  178.4890  141.7020 C   0  0  0  0  0  0  0  0  0  0  0  0
  185.8560  177.5420  142.7650 C   0  0  0  0  0  2  0  0  0  0  0  0
  186.5680  178.3000  147.2500 C   0  0  0  0  0  3  0  0  0  0  0  0
  188.9260  177.6520  146.5640 C   0  0  0  0  0  3  0  0  0  0  0  0
  188.4920  177.5480  145.3030 C   0  0  0  0  0  0  0  0  0  0  0  0
  189.3530  177.6310  144.0950 C   0  0  2  0  0  0  0  0  0  0  0  0
  190.1820  176.3740  143.9170 C   0  0  0  0  0  1  0  0  0  0  0  0
  190.1820  178.7540  144.1550 O   0  0  0  0  0  1  0  0  0  0  0  0
  187.0020  178.1340  143.5760 C   0  0  1  0  0  3  0  0  0  0  0  0
  186.1670  178.1980  145.9780 C   0  0  0  0  0  3  0  0  0  0  0  0
  188.2660  177.8110  148.8400 O   0  0  0  0  0  0  0  0  0  0  0  0
  187.0450  177.5150  144.9550 C   0  0  2  0  0  3  0  0  0  0  0  0
  187.9320  177.8780  147.6270 C   0  0  0  0  0  0  0  0  0  0  0  0
  188.3600  177.7860  142.9450 C   0  0  0  0  0  2  0  0  0  0  0  0
  2  5  1  0  0  0  0
  3  2  1  1  0  0  0
  3  7  1  0  0  0  0
  4  1  1  0  0  0  0
  5  1  1  0  0  0  0
  6  2  2  0  0  0  0
  7 26  1  6  0  0  0
  7  4  1  0  0  0  0
  8 13  1  0  0  0  0
  9 12  1  0  0  0  0
 10  8  2  0  0  0  0
 12 14  1  0  0  0  0
 13 18  1  6  0  0  0
 13  9  1  0  0  0  0
 14 17  1  6  0  0  0
 14  3  1  0  0  0  0
 15 11  1  6  0  0  0
 15  8  1  0  0  0  0
 15 16  1  0  0  0  0
 16 17  1  0  0  0  0
 18 22  1  1  0  0  0
 18 21  1  0  0  0  0
 21 20  2  0  0  0  0
 21 19  1  0  0  0  0
 22 23  1  0  0  0  0
 23 25  1  0  0  0  0
 24 23  1  0  0  0  0
 27 28  2  0  0  0  0
 28 26  1  0  0  0  0
 28 29  1  0  0  0  0
 30 40  1  0  0  0  0
 31 40  1  0  0  0  0
 32 31  2  0  0  0  0
 33 34  1  6  0  0  0
 33 35  1  0  0  0  0
 33 32  1  0  0  0  0
 36 29  1  6  0  0  0
 36 39  1  0  0  0  0
 37 30  2  0  0  0  0
 39 32  1  0  0  0  0
 39 37  1  1  0  0  0
 40 38  2  0  0  0  0
 41 36  1  0  0  0  0
 41 33  1  0  0  0  0
M  END
>  <MODEL>
8

>  <REMARK>
 VINA RESULT:      -8.2      2.270      3.581
  Name = 
  9 active torsions:
  status: ('A' for Active; 'I' for Inactive)
    1  A    between atoms: N_1  and  C_40
    2  A    between atoms: N_1  and  C_41
    3  A    between atoms: C_3  and  C_12
    4  A    between atoms: C_3  and  C_27
    5  A    between atoms: C_13  and  C_29
    6  A    between atoms: C_22  and  C_30
    7  A    between atoms: C_27  and  C_28
    8  A    between atoms: C_27  and  C_37
    9  A    between atoms: C_29  and  C_41
                            x       y       z     vdW  Elec       q    Type
                         _______ _______ _______ _____ _____    ______ ____

>  <TORSDO>
F 9

$$$$
=
 OpenBabel11062415583D

 41 44  0  0  1  0  0  0  0  0999 V2000
  190.4360  177.6550  145.3570 O   0  0  0  0  0  0  0  0  0  0  0  0
  191.0480  176.8840  143.2110 C   0  0  0  0  0  0  0  0  0  0  0  0
  189.6130  176.7760  142.7160 C   0  0  1  0  0  3  0  0  0  0  0  0
  189.0880  177.3290  145.1280 C   0  0  0  0  0  2  0  0  0  0  0  0
  191.2030  176.6860  144.6880 C   0  0  0  0  0  2  0  0  0  0  0  0
  191.9510  177.6600  142.6040 C   0  0  0  0  0  2  0  0  0  0  0  0
  188.7030  177.5980  143.6630 C   0  0  2  0  0  3  0  0  0  0  0  0
  188.7510  177.0330  138.1900 C   0  0  0  0  0  0  0  0  0  0  0  0
  190.8950  176.3760  139.3220 C   0  0  0  0  0  2  0  0  0  0  0  0
  188.0780  176.0210  138.0500 O   0  0  0  0  0  0  0  0  0  0  0  0
  187.0780  178.6230  137.6660 O   0  0  0  0  0  1  0  0  0  0  0  0
  190.7730  177.3080  140.5160 C   0  0  0  0  0  2  0  0  0  0  0  0
  190.2470  176.9860  138.0790 C   0  0  1  0  0  3  0  0  0  0  0  0
  189.4320  177.1210  141.2150 C   0  0  2  0  0  3  0  0  0  0  0  0
  188.1040  178.3280  138.5660 C   0  0  1  0  0  3  0  0  0  0  0  0
  187.5450  178.2610  139.9830 C   0  0  0  0  0  2  0  0  0  0  0  0
  188.6350  178.4110  141.0400 C   0  0  0  0  0  2  0  0  0  0  0  0
  190.7500  176.3830  136.7530 C   0  0  2  0  0  3  0  0  0  0  0  0
  189.2740  175.3060  135.0100 O   0  0  0  0  0  0  0  0  0  0  0  0
  189.4290  177.5850  135.1620 O   0  0  0  0  0  1  0  0  0  0  0  0
  189.7750  176.4570  135.6100 C   0  0  0  0  0  0  0  0  0  0  0  0
  191.2260  174.9380  136.9410 C   0  0  0  0  0  2  0  0  0  0  0  0
  192.6850  174.7160  136.5260 C   0  0  0  0  0  3  0  0  0  0  0  0
  193.4780  173.9790  137.5900 C   0  0  0  0  0  1  0  0  0  0  0  0
  193.3700  176.0220  136.1570 C   0  0  0  0  0  1  0  0  0  0  0  0
  187.3020  177.2350  143.4850 N   0  0  0  0  0  2  0  0  0  0  0  0
  185.8290  177.9160  145.2630 C   0  0  0  0  0  2  0  0  0  0  0  0
  186.2100  178.0100  143.9950 C   0  0  0  0  0  0  0  0  0  0  0  0
  185.4730  178.9240  143.0740 C   0  0  0  0  0  2  0  0  0  0  0  0
  181.0430  178.6120  144.2870 C   0  0  0  0  0  3  0  0  0  0  0  0
  180.7710  178.7090  141.7640 C   0  0  0  0  0  3  0  0  0  0  0  0
  182.1040  178.7340  141.6570 C   0  0  0  0  0  0  0  0  0  0  0  0
  182.8710  178.3380  140.4490 C   0  0  2  0  0  0  0  0  0  0  0  0
  182.7600  179.3820  139.3530 C   0  0  0  0  0  1  0  0  0  0  0  0
  182.4430  177.0940  139.9770 O   0  0  0  0  0  1  0  0  0  0  0  0
  184.2530  178.2310  142.4800 C   0  0  1  0  0  3  0  0  0  0  0  0
  182.3730  178.6290  144.1470 C   0  0  0  0  0  3  0  0  0  0  0  0
  178.9340  178.9650  143.2470 O   0  0  0  0  0  0  0  0  0  0  0  0
  182.9950  178.9990  142.8210 C   0  0  2  0  0  3  0  0  0  0  0  0
  180.1770  178.8110  143.1080 C   0  0  0  0  0  0  0  0  0  0  0  0
  184.3110  178.2320  140.9440 C   0  0  0  0  0  2  0  0  0  0  0  0
  2  5  1  0  0  0  0
  3  2  1  1  0  0  0
  3  7  1  0  0  0  0
  4  1  1  0  0  0  0
  5  1  1  0  0  0  0
  6  2  2  0  0  0  0
  7 26  1  1  0  0  0
  7  4  1  0  0  0  0
  8 15  1  0  0  0  0
  9 12  1  0  0  0  0
 10  8  2  0  0  0  0
 13 18  1  6  0  0  0
 13  8  1  0  0  0  0
 13  9  1  0  0  0  0
 14 12  1  1  0  0  0
 14  3  1  0  0  0  0
 15 11  1  6  0  0  0
 15 16  1  0  0  0  0
 16 17  1  0  0  0  0
 17 14  1  0  0  0  0
 18 22  1  1  0  0  0
 19 21  2  0  0  0  0
 20 21  1  0  0  0  0
 21 18  1  0  0  0  0
 23 22  1  0  0  0  0
 23 24  1  0  0  0  0
 25 23  1  0  0  0  0
 26 28  1  0  0  0  0
 28 27  2  0  0  0  0
 29 28  1  0  0  0  0
 31 40  1  0  0  0  0
 32 31  2  0  0  0  0
 32 39  1  0  0  0  0
 33 34  1  6  0  0  0
 33 41  1  0  0  0  0
 33 32  1  0  0  0  0
 35 33  1  0  0  0  0
 36 39  1  0  0  0  0
 36 29  1  1  0  0  0
 37 30  2  0  0  0  0
 39 37  1  1  0  0  0
 40 38  2  0  0  0  0
 40 30  1  0  0  0  0
 41 36  1  0  0  0  0
M  END
>  <MODEL>
9

>  <REMARK>
 VINA RESULT:      -8.1      2.559      7.116
  Name = 
  9 active torsions:
  status: ('A' for Active; 'I' for Inactive)
    1  A    between atoms: N_1  and  C_40
    2  A    between atoms: N_1  and  C_41
    3  A    between atoms: C_3  and  C_12
    4  A    between atoms: C_3  and  C_27
    5  A    between atoms: C_13  and  C_29
    6  A    between atoms: C_22  and  C_30
    7  A    between atoms: C_27  and  C_28
    8  A    between atoms: C_27  and  C_37
    9  A    between atoms: C_29  and  C_41
                            x       y       z     vdW  Elec       q    Type
                         _______ _______ _______ _____ _____    ______ ____

>  <TORSDO>
F 9

$$$$
