=
 OpenBabel11062413583D

 53 59  0  0  1  0  0  0  0  0999 V2000
  188.9550  177.2470  141.0280 C   0  0  0  0  0  2  0  0  0  0  0  0
  187.1730  178.7210  139.8030 C   0  0  0  0  0  2  0  0  0  0  0  0
  188.5600  178.1340  139.8770 C   0  0  0  0  0  0  0  0  0  0  0  0
  184.3380  176.5370  137.9320 O   0  0  0  0  0  0  0  0  0  0  0  0
  189.0820  179.2500  137.8490 C   0  0  0  0  0  2  0  0  0  0  0  0
  185.9270  177.4500  136.4730 N   0  0  0  0  0  2  0  0  0  0  0  0
  186.4320  178.1340  138.6860 N   0  0  0  0  0  0  0  0  0  0  0  0
  189.4230  178.4120  138.9720 N   0  0  0  0  0  0  0  0  0  0  0  0
  188.1520  178.5050  136.8950 C   0  0  0  0  0  2  0  0  0  0  0  0
  186.8030  178.0530  137.4320 C   0  0  0  0  0  0  0  0  0  0  0  0
  184.7090  176.7490  136.7470 C   0  0  0  0  0  0  0  0  0  0  0  0
  181.0850  176.1190  136.2640 C   0  0  0  0  0  0  0  0  0  0  0  0
  182.9320  177.2820  135.0430 C   0  0  0  0  0  2  0  0  0  0  0  0
  179.8690  176.0330  136.5520 O   0  0  0  0  0  0  0  0  0  0  0  0
  181.9020  174.9430  136.3100 N   0  0  0  0  0  0  0  0  0  0  0  0
  183.8870  176.2110  135.6080 C   0  0  2  0  0  3  0  0  0  0  0  0
  181.6660  177.4540  135.8890 C   0  0  2  0  0  3  0  0  0  0  0  0
  183.1700  174.9390  135.9970 C   0  0  0  0  0  0  0  0  0  0  0  0
  183.9010  173.7610  136.0810 O   0  0  0  0  0  0  0  0  0  0  0  0
  183.7120  172.8270  137.1440 C   0  0  0  0  0  1  0  0  0  0  0  0
  181.9310  178.2470  137.0850 N   0  0  0  0  0  2  0  0  0  0  0  0
  180.7360  182.3100  137.4100 C   0  0  0  0  0  3  0  0  0  0  0  0
  181.8610  180.3730  138.3550 C   0  0  0  0  0  3  0  0  0  0  0  0
  180.3930  181.5580  136.2770 C   0  0  0  0  0  3  0  0  0  0  0  0
  181.5190  179.6130  137.2190 C   0  0  0  0  0  0  0  0  0  0  0  0
  181.4700  181.7180  138.4500 C   0  0  0  0  0  3  0  0  0  0  0  0
  180.7840  180.2120  136.1830 C   0  0  0  0  0  3  0  0  0  0  0  0
  188.7240  177.8760  142.4060 C   0  0  1  0  0  3  0  0  0  0  0  0
  187.9910  176.8950  143.3220 C   0  0  0  0  0  2  0  0  0  0  0  0
  186.7120  177.4580  143.7720 N   0  0  0  0  0  0  0  0  0  0  0  0
  184.0190  178.8640  143.6820 C   0  0  0  0  0  0  0  0  0  0  0  0
  184.4570  179.1180  144.8910 O   0  0  0  0  0  0  0  0  0  0  0  0
  188.5090  176.5210  145.7880 F   0  0  0  0  0  0  0  0  0  0  0  0
  187.5170  177.4070  146.0700 C   0  0  0  0  0  0  0  0  0  0  0  0
  182.7940  179.4730  143.3640 C   0  0  0  0  0  3  0  0  0  0  0  0
  184.6410  178.0400  142.7200 C   0  0  0  0  0  0  0  0  0  0  0  0
  185.4950  178.6710  145.5690 C   0  0  0  0  0  0  0  0  0  0  0  0
  187.4750  177.8570  147.3920 C   0  0  0  0  0  3  0  0  0  0  0  0
  182.1670  179.2560  142.1400 C   0  0  0  0  0  3  0  0  0  0  0  0
  182.7630  178.4160  141.2040 C   0  0  0  0  0  3  0  0  0  0  0  0
  186.4750  178.7160  147.8110 C   0  0  0  0  0  3  0  0  0  0  0  0
  183.9880  177.8200  141.4980 C   0  0  0  0  0  3  0  0  0  0  0  0
  185.8350  177.4880  142.7980 O   0  0  0  0  0  0  0  0  0  0  0  0
  186.5460  177.8260  145.0940 C   0  0  0  0  0  0  0  0  0  0  0  0
  185.4980  179.1090  146.9050 C   0  0  0  0  0  3  0  0  0  0  0  0
  190.0170  178.4190  143.0260 C   0  0  0  0  0  2  0  0  0  0  0  0
  190.8620  177.5980  145.2290 C   0  0  0  0  0  3  0  0  0  0  0  0
  191.8950  175.2840  144.0470 C   0  0  0  0  0  3  0  0  0  0  0  0
  191.2400  176.2350  143.2610 C   0  0  0  0  0  3  0  0  0  0  0  0
  192.0330  175.4900  145.4230 C   0  0  0  0  0  3  0  0  0  0  0  0
  191.6590  176.8610  147.4780 C   0  0  0  0  0  1  0  0  0  0  0  0
  190.7300  177.3990  143.8510 C   0  0  0  0  0  0  0  0  0  0  0  0
  191.5150  176.6460  146.0150 C   0  0  0  0  0  0  0  0  0  0  0  0
  2  3  1  0  0  0  0
  3  1  1  0  0  0  0
  5  8  1  0  0  0  0
  6 11  1  0  0  0  0
  6 10  1  0  0  0  0
  7  2  1  0  0  0  0
  8  3  2  0  0  0  0
  9 10  1  0  0  0  0
  9  5  1  0  0  0  0
 10  7  2  0  0  0  0
 11  4  2  0  0  0  0
 12 15  1  0  0  0  0
 12 14  2  0  0  0  0
 13 16  1  0  0  0  0
 13 17  1  0  0  0  0
 16 18  1  0  0  0  0
 16 11  1  1  0  0  0
 17 12  1  0  0  0  0
 17 21  1  1  0  0  0
 18 19  1  0  0  0  0
 18 15  2  0  0  0  0
 19 20  1  0  0  0  0
 21 25  1  0  0  0  0
 22 26  1  0  0  0  0
 23 26  2  0  0  0  0
 24 22  2  0  0  0  0
 25 23  1  0  0  0  0
 27 24  1  0  0  0  0
 27 25  2  0  0  0  0
 28  1  1  6  0  0  0
 28 46  1  0  0  0  0
 28 29  1  0  0  0  0
 29 30  1  0  0  0  0
 30 44  1  0  0  0  0
 31 32  1  0  0  0  0
 32 37  1  0  0  0  0
 33 34  1  0  0  0  0
 34 38  1  0  0  0  0
 35 31  1  0  0  0  0
 36 43  1  0  0  0  0
 36 31  2  0  0  0  0
 37 45  2  0  0  0  0
 38 41  2  0  0  0  0
 39 35  2  0  0  0  0
 40 42  2  0  0  0  0
 40 39  1  0  0  0  0
 42 36  1  0  0  0  0
 43 30  1  0  0  0  0
 44 37  1  0  0  0  0
 44 34  2  0  0  0  0
 45 41  1  0  0  0  0
 46 52  1  0  0  0  0
 47 53  1  0  0  0  0
 48 50  1  0  0  0  0
 49 52  1  0  0  0  0
 49 48  2  0  0  0  0
 50 53  2  0  0  0  0
 52 47  2  0  0  0  0
 53 51  1  0  0  0  0
M  END
>  <MODEL>
1

>  <REMARK>
 VINA RESULT:      -9.8      0.000      0.000
  Name = 
  10 active torsions:
  status: ('A' for Active; 'I' for Inactive)
    1  A    between atoms: N_5  and  C_9
    2  A    between atoms: C_7  and  C_10
    3  A    between atoms: C_9  and  C_29
    4  A    between atoms: C_10  and  C_29
    5  A    between atoms: C_12  and  C_29
    6  A    between atoms: C_12  and  C_48
    7  A    between atoms: C_19  and  C_53
    8  A    between atoms: C_21  and  N_46
    9  A    between atoms: O_23  and  C_38
   10  A    between atoms: C_28  and  N_46
                            x       y       z     vdW  Elec       q    Type
                         _______ _______ _______ _____ _____    ______ ____

>  <TORSDO>
F 10

$$$$
=
 OpenBabel11062413583D

 53 59  0  0  1  0  0  0  0  0999 V2000
  188.7780  178.6990  139.1030 C   0  0  0  0  0  2  0  0  0  0  0  0
  186.7710  179.0840  137.4690 C   0  0  0  0  0  2  0  0  0  0  0  0
  187.7480  178.1580  138.1480 C   0  0  0  0  0  0  0  0  0  0  0  0
  183.2970  179.8330  139.3880 O   0  0  0  0  0  0  0  0  0  0  0  0
  186.7520  176.3430  136.9880 C   0  0  0  0  0  2  0  0  0  0  0  0
  183.4360  177.6610  138.5230 N   0  0  0  0  0  2  0  0  0  0  0  0
  185.4150  178.8400  137.9620 N   0  0  0  0  0  0  0  0  0  0  0  0
  187.7270  176.9030  137.8910 N   0  0  0  0  0  0  0  0  0  0  0  0
  185.3680  176.3510  137.6320 C   0  0  0  0  0  2  0  0  0  0  0  0
  184.7750  177.6970  138.0170 C   0  0  0  0  0  0  0  0  0  0  0  0
  182.7290  178.7340  139.1540 C   0  0  0  0  0  0  0  0  0  0  0  0
  179.8640  181.0210  139.7240 C   0  0  0  0  0  0  0  0  0  0  0  0
  180.3090  178.9030  138.4730 C   0  0  0  0  0  2  0  0  0  0  0  0
  179.2380  182.1020  139.8290 O   0  0  0  0  0  0  0  0  0  0  0  0
  180.3800  180.3920  140.9040 N   0  0  0  0  0  0  0  0  0  0  0  0
  181.3040  178.5310  139.5910 C   0  0  2  0  0  3  0  0  0  0  0  0
  180.0720  180.4120  138.3650 C   0  0  2  0  0  3  0  0  0  0  0  0
  181.0170  179.2530  140.8880 C   0  0  0  0  0  0  0  0  0  0  0  0
  181.5020  178.7120  142.0720 O   0  0  0  0  0  0  0  0  0  0  0  0
  180.7550  178.7630  143.2890 C   0  0  0  0  0  1  0  0  0  0  0  0
  181.1750  181.0740  137.6760 N   0  0  0  0  0  2  0  0  0  0  0  0
  180.6730  184.7530  135.6120 C   0  0  0  0  0  3  0  0  0  0  0  0
  180.3660  182.3440  135.7080 C   0  0  0  0  0  3  0  0  0  0  0  0
  181.3190  184.7200  136.8560 C   0  0  0  0  0  3  0  0  0  0  0  0
  181.0150  182.3040  136.9580 C   0  0  0  0  0  0  0  0  0  0  0  0
  180.1970  183.5650  135.0370 C   0  0  0  0  0  3  0  0  0  0  0  0
  181.4900  183.4970  137.5270 C   0  0  0  0  0  3  0  0  0  0  0  0
  188.8740  177.9230  140.4210 C   0  0  1  0  0  3  0  0  0  0  0  0
  187.5120  177.8810  141.1150 C   0  0  0  0  0  2  0  0  0  0  0  0
  187.6660  177.9560  142.5730 N   0  0  0  0  0  0  0  0  0  0  0  0
  188.7480  177.4250  145.3620 C   0  0  0  0  0  0  0  0  0  0  0  0
  187.4810  177.6880  145.5700 O   0  0  0  0  0  0  0  0  0  0  0  0
  185.3930  179.2610  141.4310 F   0  0  0  0  0  0  0  0  0  0  0  0
  185.4320  178.9100  142.7430 C   0  0  0  0  0  0  0  0  0  0  0  0
  189.4690  177.0750  146.5160 C   0  0  0  0  0  3  0  0  0  0  0  0
  189.4260  177.4880  144.1270 C   0  0  0  0  0  0  0  0  0  0  0  0
  186.5260  178.1270  144.7750 C   0  0  0  0  0  0  0  0  0  0  0  0
  184.2720  179.1880  143.4700 C   0  0  0  0  0  3  0  0  0  0  0  0
  190.8370  176.8220  146.4720 C   0  0  0  0  0  3  0  0  0  0  0  0
  191.5140  176.9170  145.2600 C   0  0  0  0  0  3  0  0  0  0  0  0
  184.2140  178.9280  144.8290 C   0  0  0  0  0  3  0  0  0  0  0  0
  190.8080  177.2440  144.1040 C   0  0  0  0  0  3  0  0  0  0  0  0
  188.8960  177.6820  142.9370 O   0  0  0  0  0  0  0  0  0  0  0  0
  186.5970  178.3330  143.3620 C   0  0  0  0  0  0  0  0  0  0  0  0
  185.3340  178.4100  145.4650 C   0  0  0  0  0  3  0  0  0  0  0  0
  189.4920  176.5310  140.2380 C   0  0  0  0  0  2  0  0  0  0  0  0
  191.1490  175.9570  138.4580 C   0  0  0  0  0  3  0  0  0  0  0  0
  193.1730  177.3460  139.8000 C   0  0  0  0  0  3  0  0  0  0  0  0
  191.8870  177.2920  140.3430 C   0  0  0  0  0  3  0  0  0  0  0  0
  193.4460  176.7070  138.5870 C   0  0  0  0  0  3  0  0  0  0  0  0
  192.7270  175.3380  136.6240 C   0  0  0  0  0  1  0  0  0  0  0  0
  190.8750  176.5890  139.6760 C   0  0  0  0  0  0  0  0  0  0  0  0
  192.4350  176.0130  137.9150 C   0  0  0  0  0  0  0  0  0  0  0  0
  2  7  1  0  0  0  0
  2  3  1  0  0  0  0
  3  1  1  0  0  0  0
  5  9  1  0  0  0  0
  5  8  1  0  0  0  0
  6 11  1  0  0  0  0
  7 10  2  0  0  0  0
  8  3  2  0  0  0  0
  9 10  1  0  0  0  0
 10  6  1  0  0  0  0
 11  4  2  0  0  0  0
 12 14  2  0  0  0  0
 12 15  1  0  0  0  0
 13 16  1  0  0  0  0
 16 11  1  6  0  0  0
 16 18  1  0  0  0  0
 17 21  1  1  0  0  0
 17 13  1  0  0  0  0
 17 12  1  0  0  0  0
 18 15  2  0  0  0  0
 18 19  1  0  0  0  0
 19 20  1  0  0  0  0
 22 24  1  0  0  0  0
 23 25  2  0  0  0  0
 24 27  2  0  0  0  0
 25 27  1  0  0  0  0
 25 21  1  0  0  0  0
 26 22  2  0  0  0  0
 26 23  1  0  0  0  0
 28  1  1  6  0  0  0
 28 29  1  0  0  0  0
 29 30  1  0  0  0  0
 30 43  1  0  0  0  0
 30 44  1  0  0  0  0
 31 32  1  0  0  0  0
 31 35  1  0  0  0  0
 33 34  1  0  0  0  0
 34 44  2  0  0  0  0
 34 38  1  0  0  0  0
 36 31  2  0  0  0  0
 37 45  2  0  0  0  0
 37 32  1  0  0  0  0
 38 41  2  0  0  0  0
 39 35  2  0  0  0  0
 40 39  1  0  0  0  0
 41 45  1  0  0  0  0
 42 36  1  0  0  0  0
 42 40  2  0  0  0  0
 43 36  1  0  0  0  0
 44 37  1  0  0  0  0
 46 28  1  0  0  0  0
 47 52  1  0  0  0  0
 48 49  1  0  0  0  0
 50 48  2  0  0  0  0
 51 53  1  0  0  0  0
 52 46  1  0  0  0  0
 52 49  2  0  0  0  0
 53 47  2  0  0  0  0
 53 50  1  0  0  0  0
M  END
>  <MODEL>
2

>  <REMARK>
 VINA RESULT:      -9.8      2.689      5.181
  Name = 
  10 active torsions:
  status: ('A' for Active; 'I' for Inactive)
    1  A    between atoms: N_5  and  C_9
    2  A    between atoms: C_7  and  C_10
    3  A    between atoms: C_9  and  C_29
    4  A    between atoms: C_10  and  C_29
    5  A    between atoms: C_12  and  C_29
    6  A    between atoms: C_12  and  C_48
    7  A    between atoms: C_19  and  C_53
    8  A    between atoms: C_21  and  N_46
    9  A    between atoms: O_23  and  C_38
   10  A    between atoms: C_28  and  N_46
                            x       y       z     vdW  Elec       q    Type
                         _______ _______ _______ _____ _____    ______ ____

>  <TORSDO>
F 10

$$$$
=
 OpenBabel11062413583D

 53 59  0  0  1  0  0  0  0  0999 V2000
  183.2510  177.6390  139.8660 C   0  0  0  0  0  2  0  0  0  0  0  0
  185.3020  179.1160  140.5450 C   0  0  0  0  0  2  0  0  0  0  0  0
  184.1050  178.2820  140.9270 C   0  0  0  0  0  0  0  0  0  0  0  0
  188.8320  177.1990  140.1250 O   0  0  0  0  0  0  0  0  0  0  0  0
  184.5850  178.7310  143.2070 C   0  0  0  0  0  2  0  0  0  0  0  0
  188.1200  177.3670  142.3500 N   0  0  0  0  0  2  0  0  0  0  0  0
  186.5380  178.4460  140.9530 N   0  0  0  0  0  0  0  0  0  0  0  0
  183.7900  178.1390  142.1600 N   0  0  0  0  0  0  0  0  0  0  0  0
  185.9150  177.9920  143.3430 C   0  0  0  0  0  2  0  0  0  0  0  0
  186.8450  177.9840  142.1410 C   0  0  0  0  0  0  0  0  0  0  0  0
  189.0850  177.0310  141.3460 C   0  0  0  0  0  0  0  0  0  0  0  0
  191.5290  177.7460  144.0450 C   0  0  0  0  0  0  0  0  0  0  0  0
  190.3110  175.7580  143.1410 C   0  0  0  0  0  2  0  0  0  0  0  0
  192.0530  178.3410  145.0140 O   0  0  0  0  0  0  0  0  0  0  0  0
  191.9960  178.0190  142.7180 N   0  0  0  0  0  0  0  0  0  0  0  0
  190.3990  176.4200  141.7520 C   0  0  2  0  0  3  0  0  0  0  0  0
  190.4140  176.7670  144.2890 C   0  0  2  0  0  3  0  0  0  0  0  0
  191.5260  177.4220  141.6560 C   0  0  0  0  0  0  0  0  0  0  0  0
  192.0190  177.7520  140.4000 O   0  0  0  0  0  0  0  0  0  0  0  0
  193.1870  177.1340  139.8590 C   0  0  0  0  0  1  0  0  0  0  0  0
  189.1530  177.4740  144.4880 N   0  0  0  0  0  2  0  0  0  0  0  0
  187.5460  178.1510  148.3620 C   0  0  0  0  0  3  0  0  0  0  0  0
  187.2460  178.0760  145.9510 C   0  0  0  0  0  3  0  0  0  0  0  0
  188.8950  177.8020  148.2050 C   0  0  0  0  0  3  0  0  0  0  0  0
  188.6000  177.7250  145.7870 C   0  0  0  0  0  0  0  0  0  0  0  0
  186.7210  178.2890  147.2350 C   0  0  0  0  0  3  0  0  0  0  0  0
  189.4200  177.5900  146.9190 C   0  0  0  0  0  3  0  0  0  0  0  0
  183.2000  178.4220  138.5490 C   0  0  1  0  0  3  0  0  0  0  0  0
  183.2790  177.4660  137.3580 C   0  0  0  0  0  2  0  0  0  0  0  0
  184.5920  176.8140  137.2990 N   0  0  0  0  0  0  0  0  0  0  0  0
  187.5530  176.3950  136.7570 C   0  0  0  0  0  0  0  0  0  0  0  0
  187.0470  175.1910  136.6390 O   0  0  0  0  0  0  0  0  0  0  0  0
  182.3620  175.1950  138.0600 F   0  0  0  0  0  0  0  0  0  0  0  0
  183.5110  174.6500  137.5810 C   0  0  0  0  0  0  0  0  0  0  0  0
  188.9280  176.4800  136.4830 C   0  0  0  0  0  3  0  0  0  0  0  0
  186.8630  177.5600  137.1480 C   0  0  0  0  0  0  0  0  0  0  0  0
  185.8480  174.7060  136.8910 C   0  0  0  0  0  0  0  0  0  0  0  0
  183.5010  173.2590  137.4440 C   0  0  0  0  0  3  0  0  0  0  0  0
  189.6260  177.6760  136.6200 C   0  0  0  0  0  3  0  0  0  0  0  0
  188.9530  178.8200  137.0380 C   0  0  0  0  0  3  0  0  0  0  0  0
  184.6330  172.5860  137.0190 C   0  0  0  0  0  3  0  0  0  0  0  0
  187.5840  178.7550  137.2950 C   0  0  0  0  0  3  0  0  0  0  0  0
  185.5640  177.6930  137.3300 O   0  0  0  0  0  0  0  0  0  0  0  0
  184.6780  175.4350  137.2740 C   0  0  0  0  0  0  0  0  0  0  0  0
  185.7890  173.3090  136.7540 C   0  0  0  0  0  3  0  0  0  0  0  0
  181.9950  179.3680  138.4770 C   0  0  0  0  0  2  0  0  0  0  0  0
  180.7620  179.8160  140.6020 C   0  0  0  0  0  3  0  0  0  0  0  0
  179.0930  177.6120  140.1780 C   0  0  0  0  0  3  0  0  0  0  0  0
  180.0900  177.9200  139.2500 C   0  0  0  0  0  3  0  0  0  0  0  0
  178.9310  178.4060  141.3180 C   0  0  0  0  0  3  0  0  0  0  0  0
  179.5860  180.3540  142.7390 C   0  0  0  0  0  1  0  0  0  0  0  0
  180.9320  179.0190  139.4660 C   0  0  0  0  0  0  0  0  0  0  0  0
  179.7630  179.5090  141.5290 C   0  0  0  0  0  0  0  0  0  0  0  0
  1  3  1  0  0  0  0
  2  3  1  0  0  0  0
  2  7  1  0  0  0  0
  3  8  2  0  0  0  0
  4 11  2  0  0  0  0
  5  9  1  0  0  0  0
  7 10  2  0  0  0  0
  8  5  1  0  0  0  0
 10  6  1  0  0  0  0
 10  9  1  0  0  0  0
 11  6  1  0  0  0  0
 12 17  1  0  0  0  0
 12 14  2  0  0  0  0
 13 17  1  0  0  0  0
 15 12  1  0  0  0  0
 16 11  1  1  0  0  0
 16 13  1  0  0  0  0
 17 21  1  6  0  0  0
 18 16  1  0  0  0  0
 18 15  2  0  0  0  0
 19 18  1  0  0  0  0
 20 19  1  0  0  0  0
 21 25  1  0  0  0  0
 23 26  1  0  0  0  0
 24 22  1  0  0  0  0
 25 23  2  0  0  0  0
 25 27  1  0  0  0  0
 26 22  2  0  0  0  0
 27 24  2  0  0  0  0
 28 29  1  6  0  0  0
 28  1  1  0  0  0  0
 30 43  1  0  0  0  0
 30 29  1  0  0  0  0
 31 36  1  0  0  0  0
 32 31  1  0  0  0  0
 32 37  1  0  0  0  0
 34 33  1  0  0  0  0
 35 39  1  0  0  0  0
 35 31  2  0  0  0  0
 36 42  2  0  0  0  0
 36 43  1  0  0  0  0
 37 44  1  0  0  0  0
 38 34  1  0  0  0  0
 39 40  2  0  0  0  0
 40 42  1  0  0  0  0
 41 38  2  0  0  0  0
 44 30  1  0  0  0  0
 44 34  2  0  0  0  0
 45 37  2  0  0  0  0
 45 41  1  0  0  0  0
 46 28  1  0  0  0  0
 46 52  1  0  0  0  0
 47 53  1  0  0  0  0
 48 50  1  0  0  0  0
 49 52  1  0  0  0  0
 49 48  2  0  0  0  0
 50 53  2  0  0  0  0
 52 47  2  0  0  0  0
 53 51  1  0  0  0  0
M  END
>  <MODEL>
3

>  <REMARK>
 VINA RESULT:      -9.3      2.804      9.943
  Name = 
  10 active torsions:
  status: ('A' for Active; 'I' for Inactive)
    1  A    between atoms: N_5  and  C_9
    2  A    between atoms: C_7  and  C_10
    3  A    between atoms: C_9  and  C_29
    4  A    between atoms: C_10  and  C_29
    5  A    between atoms: C_12  and  C_29
    6  A    between atoms: C_12  and  C_48
    7  A    between atoms: C_19  and  C_53
    8  A    between atoms: C_21  and  N_46
    9  A    between atoms: O_23  and  C_38
   10  A    between atoms: C_28  and  N_46
                            x       y       z     vdW  Elec       q    Type
                         _______ _______ _______ _____ _____    ______ ____

>  <TORSDO>
F 10

$$$$
=
 OpenBabel11062413583D

 53 59  0  0  1  0  0  0  0  0999 V2000
  183.0420  177.9510  140.1330 C   0  0  0  0  0  2  0  0  0  0  0  0
  185.1410  179.3300  140.8670 C   0  0  0  0  0  2  0  0  0  0  0  0
  183.9300  178.5030  141.2160 C   0  0  0  0  0  0  0  0  0  0  0  0
  188.6130  177.3570  140.2610 O   0  0  0  0  0  0  0  0  0  0  0  0
  184.4590  178.7940  143.5110 C   0  0  0  0  0  2  0  0  0  0  0  0
  187.9430  177.4000  142.5060 N   0  0  0  0  0  2  0  0  0  0  0  0
  186.3660  178.6050  141.2090 N   0  0  0  0  0  0  0  0  0  0  0  0
  183.6310  178.2900  142.4440 N   0  0  0  0  0  0  0  0  0  0  0  0
  185.7710  178.0150  143.5760 C   0  0  0  0  0  2  0  0  0  0  0  0
  186.6810  178.0600  142.3590 C   0  0  0  0  0  0  0  0  0  0  0  0
  188.8820  177.1050  141.4650 C   0  0  0  0  0  0  0  0  0  0  0  0
  191.4670  177.6890  144.0620 C   0  0  0  0  0  0  0  0  0  0  0  0
  190.1310  175.7620  143.1920 C   0  0  0  0  0  2  0  0  0  0  0  0
  192.0560  178.2510  145.0140 O   0  0  0  0  0  0  0  0  0  0  0  0
  191.8870  177.9590  142.7190 N   0  0  0  0  0  0  0  0  0  0  0  0
  190.1860  176.4370  141.8070 C   0  0  2  0  0  3  0  0  0  0  0  0
  190.3240  176.7530  144.3440 C   0  0  2  0  0  3  0  0  0  0  0  0
  191.3470  177.3940  141.6720 C   0  0  0  0  0  0  0  0  0  0  0  0
  191.7990  177.7180  140.3990 O   0  0  0  0  0  0  0  0  0  0  0  0
  191.8500  176.7540  139.3460 C   0  0  0  0  0  1  0  0  0  0  0  0
  189.1030  177.5080  144.6050 N   0  0  0  0  0  2  0  0  0  0  0  0
  187.5560  178.2190  148.4970 C   0  0  0  0  0  3  0  0  0  0  0  0
  189.4250  177.6320  147.0590 C   0  0  0  0  0  3  0  0  0  0  0  0
  186.7210  178.3130  147.3740 C   0  0  0  0  0  3  0  0  0  0  0  0
  188.5920  177.7250  145.9270 C   0  0  0  0  0  0  0  0  0  0  0  0
  188.9080  177.8780  148.3400 C   0  0  0  0  0  3  0  0  0  0  0  0
  187.2400  178.0660  146.0920 C   0  0  0  0  0  3  0  0  0  0  0  0
  182.7420  178.9460  139.0060 C   0  0  1  0  0  3  0  0  0  0  0  0
  182.6750  178.2230  137.6610 C   0  0  0  0  0  2  0  0  0  0  0  0
  183.8480  177.3610  137.4730 N   0  0  0  0  0  0  0  0  0  0  0  0
  186.6630  176.4890  136.7330 C   0  0  0  0  0  0  0  0  0  0  0  0
  185.9470  175.4080  136.5390 O   0  0  0  0  0  0  0  0  0  0  0  0
  181.3980  176.0890  138.2150 F   0  0  0  0  0  0  0  0  0  0  0  0
  182.4120  175.4010  137.6270 C   0  0  0  0  0  0  0  0  0  0  0  0
  188.0200  176.3600  136.3910 C   0  0  0  0  0  3  0  0  0  0  0  0
  186.2070  177.7140  137.2600 C   0  0  0  0  0  0  0  0  0  0  0  0
  184.6920  175.1160  136.8160 C   0  0  0  0  0  0  0  0  0  0  0  0
  182.1490  174.0530  137.3720 C   0  0  0  0  0  3  0  0  0  0  0  0
  188.9240  177.3990  136.5900 C   0  0  0  0  0  3  0  0  0  0  0  0
  188.4820  178.5970  137.1420 C   0  0  0  0  0  3  0  0  0  0  0  0
  183.1260  173.2360  136.8290 C   0  0  0  0  0  3  0  0  0  0  0  0
  187.1350  178.7460  137.4680 C   0  0  0  0  0  3  0  0  0  0  0  0
  184.9610  178.0520  137.5250 O   0  0  0  0  0  0  0  0  0  0  0  0
  183.6870  175.9970  137.3250 C   0  0  0  0  0  0  0  0  0  0  0  0
  184.3800  173.7690  136.5630 C   0  0  0  0  0  3  0  0  0  0  0  0
  181.4970  179.7950  139.2910 C   0  0  0  0  0  2  0  0  0  0  0  0
  181.4970  182.0490  138.2130 C   0  0  0  0  0  3  0  0  0  0  0  0
  180.1840  181.0460  135.9570 C   0  0  0  0  0  3  0  0  0  0  0  0
  180.4960  180.1930  137.0180 C   0  0  0  0  0  3  0  0  0  0  0  0
  180.5290  182.3990  136.0240 C   0  0  0  0  0  3  0  0  0  0  0  0
  181.5550  184.3390  137.2180 C   0  0  0  0  0  1  0  0  0  0  0  0
  181.1460  180.6960  138.1530 C   0  0  0  0  0  0  0  0  0  0  0  0
  181.1860  182.9010  137.1510 C   0  0  0  0  0  0  0  0  0  0  0  0
  1  3  1  0  0  0  0
  2  7  1  0  0  0  0
  2  3  1  0  0  0  0
  3  8  2  0  0  0  0
  4 11  2  0  0  0  0
  5  9  1  0  0  0  0
  7 10  2  0  0  0  0
  8  5  1  0  0  0  0
 10  6  1  0  0  0  0
 10  9  1  0  0  0  0
 11  6  1  0  0  0  0
 12 17  1  0  0  0  0
 12 14  2  0  0  0  0
 13 17  1  0  0  0  0
 15 12  1  0  0  0  0
 16 11  1  1  0  0  0
 16 13  1  0  0  0  0
 17 21  1  6  0  0  0
 18 16  1  0  0  0  0
 18 15  2  0  0  0  0
 19 18  1  0  0  0  0
 20 19  1  0  0  0  0
 21 25  1  0  0  0  0
 23 26  2  0  0  0  0
 24 22  2  0  0  0  0
 25 27  2  0  0  0  0
 25 23  1  0  0  0  0
 26 22  1  0  0  0  0
 27 24  1  0  0  0  0
 28 29  1  6  0  0  0
 28 46  1  0  0  0  0
 28  1  1  0  0  0  0
 30 43  1  0  0  0  0
 30 29  1  0  0  0  0
 31 36  1  0  0  0  0
 32 31  1  0  0  0  0
 32 37  1  0  0  0  0
 34 33  1  0  0  0  0
 35 39  1  0  0  0  0
 35 31  2  0  0  0  0
 36 42  2  0  0  0  0
 36 43  1  0  0  0  0
 37 44  1  0  0  0  0
 38 34  1  0  0  0  0
 39 40  2  0  0  0  0
 40 42  1  0  0  0  0
 41 38  2  0  0  0  0
 44 30  1  0  0  0  0
 44 34  2  0  0  0  0
 45 37  2  0  0  0  0
 45 41  1  0  0  0  0
 48 50  2  0  0  0  0
 48 49  1  0  0  0  0
 49 52  2  0  0  0  0
 50 53  1  0  0  0  0
 52 47  1  0  0  0  0
 52 46  1  0  0  0  0
 53 51  1  0  0  0  0
 53 47  2  0  0  0  0
M  END
>  <MODEL>
4

>  <REMARK>
 VINA RESULT:      -9.2      2.588     10.228
  Name = 
  10 active torsions:
  status: ('A' for Active; 'I' for Inactive)
    1  A    between atoms: N_5  and  C_9
    2  A    between atoms: C_7  and  C_10
    3  A    between atoms: C_9  and  C_29
    4  A    between atoms: C_10  and  C_29
    5  A    between atoms: C_12  and  C_29
    6  A    between atoms: C_12  and  C_48
    7  A    between atoms: C_19  and  C_53
    8  A    between atoms: C_21  and  N_46
    9  A    between atoms: O_23  and  C_38
   10  A    between atoms: C_28  and  N_46
                            x       y       z     vdW  Elec       q    Type
                         _______ _______ _______ _____ _____    ______ ____

>  <TORSDO>
F 10

$$$$
=
 OpenBabel11062413583D

 53 59  0  0  1  0  0  0  0  0999 V2000
  183.1490  178.1030  139.6520 C   0  0  0  0  0  2  0  0  0  0  0  0
  185.1520  179.3870  140.7420 C   0  0  0  0  0  2  0  0  0  0  0  0
  183.9310  178.5120  140.8720 C   0  0  0  0  0  0  0  0  0  0  0  0
  188.6990  177.5380  140.1850 O   0  0  0  0  0  0  0  0  0  0  0  0
  184.2570  178.4980  143.2230 C   0  0  0  0  0  2  0  0  0  0  0  0
  187.8400  177.2770  142.3490 N   0  0  0  0  0  2  0  0  0  0  0  0
  186.3560  178.6320  141.0900 N   0  0  0  0  0  0  0  0  0  0  0  0
  183.5330  178.1350  142.0300 N   0  0  0  0  0  0  0  0  0  0  0  0
  185.5730  177.7280  143.2980 C   0  0  0  0  0  2  0  0  0  0  0  0
  186.5830  177.9410  142.1810 C   0  0  0  0  0  0  0  0  0  0  0  0
  188.8690  177.1300  141.3640 C   0  0  0  0  0  0  0  0  0  0  0  0
  191.4720  177.7110  143.9430 C   0  0  0  0  0  0  0  0  0  0  0  0
  190.0760  175.8020  143.1320 C   0  0  0  0  0  2  0  0  0  0  0  0
  192.0790  178.2830  144.8780 O   0  0  0  0  0  0  0  0  0  0  0  0
  191.9000  177.9270  142.5930 N   0  0  0  0  0  0  0  0  0  0  0  0
  190.1520  176.4320  141.7270 C   0  0  2  0  0  3  0  0  0  0  0  0
  190.3010  176.8200  144.2530 C   0  0  2  0  0  3  0  0  0  0  0  0
  191.3430  177.3480  141.5640 C   0  0  0  0  0  0  0  0  0  0  0  0
  191.8040  177.6190  140.2820 O   0  0  0  0  0  0  0  0  0  0  0  0
  193.1230  177.2660  139.8610 C   0  0  0  0  0  1  0  0  0  0  0  0
  189.1040  177.6210  144.4910 N   0  0  0  0  0  2  0  0  0  0  0  0
  187.5010  178.1560  148.3880 C   0  0  0  0  0  3  0  0  0  0  0  0
  187.1970  178.1650  145.9770 C   0  0  0  0  0  3  0  0  0  0  0  0
  188.8510  177.8170  148.2170 C   0  0  0  0  0  3  0  0  0  0  0  0
  188.5520  177.8240  145.7980 C   0  0  0  0  0  0  0  0  0  0  0  0
  186.6740  178.3310  147.2680 C   0  0  0  0  0  3  0  0  0  0  0  0
  189.3740  177.6520  146.9230 C   0  0  0  0  0  3  0  0  0  0  0  0
  182.4900  176.7240  139.7690 C   0  0  1  0  0  3  0  0  0  0  0  0
  180.9770  176.8390  139.5820 C   0  0  0  0  0  2  0  0  0  0  0  0
  180.5610  178.2460  139.5560 N   0  0  0  0  0  0  0  0  0  0  0  0
  180.3580  181.1500  138.6840 C   0  0  0  0  0  0  0  0  0  0  0  0
  180.1520  181.2040  139.9780 O   0  0  0  0  0  0  0  0  0  0  0  0
  179.7290  176.6780  141.7970 F   0  0  0  0  0  0  0  0  0  0  0  0
  179.7670  178.0360  141.8480 C   0  0  0  0  0  0  0  0  0  0  0  0
  180.3790  182.4000  138.0440 C   0  0  0  0  0  3  0  0  0  0  0  0
  180.5260  179.9840  137.9090 C   0  0  0  0  0  0  0  0  0  0  0  0
  179.9800  180.2650  140.8860 C   0  0  0  0  0  0  0  0  0  0  0  0
  179.4210  178.5970  143.0800 C   0  0  0  0  0  3  0  0  0  0  0  0
  180.5300  182.5110  136.6640 C   0  0  0  0  0  3  0  0  0  0  0  0
  180.6620  181.3600  135.8940 C   0  0  0  0  0  3  0  0  0  0  0  0
  179.3670  179.9710  143.2370 C   0  0  0  0  0  3  0  0  0  0  0  0
  180.6620  180.1130  136.5180 C   0  0  0  0  0  3  0  0  0  0  0  0
  180.6490  178.7480  138.3480 O   0  0  0  0  0  0  0  0  0  0  0  0
  180.0970  178.8510  140.7080 C   0  0  0  0  0  0  0  0  0  0  0  0
  179.6400  180.7870  142.1470 C   0  0  0  0  0  3  0  0  0  0  0  0
  183.1300  175.6880  138.8360 C   0  0  0  0  0  2  0  0  0  0  0  0
  184.8330  176.5780  137.2390 C   0  0  0  0  0  3  0  0  0  0  0  0
  182.8790  176.9910  135.2800 C   0  0  0  0  0  3  0  0  0  0  0  0
  182.5190  176.4620  136.5220 C   0  0  0  0  0  3  0  0  0  0  0  0
  184.2140  177.3130  135.0180 C   0  0  0  0  0  3  0  0  0  0  0  0
  186.6100  177.4440  135.7140 C   0  0  0  0  0  1  0  0  0  0  0  0
  183.4960  176.2640  137.5070 C   0  0  0  0  0  0  0  0  0  0  0  0
  185.1910  177.1050  135.9960 C   0  0  0  0  0  0  0  0  0  0  0  0
  1 28  1  0  0  0  0
  1  3  1  0  0  0  0
  2  3  1  0  0  0  0
  2  7  1  0  0  0  0
  3  8  2  0  0  0  0
  4 11  2  0  0  0  0
  5  9  1  0  0  0  0
  7 10  2  0  0  0  0
  8  5  1  0  0  0  0
 10  6  1  0  0  0  0
 10  9  1  0  0  0  0
 11  6  1  0  0  0  0
 12 17  1  0  0  0  0
 12 14  2  0  0  0  0
 13 17  1  0  0  0  0
 15 12  1  0  0  0  0
 16 11  1  1  0  0  0
 16 13  1  0  0  0  0
 17 21  1  6  0  0  0
 18 16  1  0  0  0  0
 18 15  2  0  0  0  0
 19 18  1  0  0  0  0
 20 19  1  0  0  0  0
 21 25  1  0  0  0  0
 23 26  1  0  0  0  0
 24 22  1  0  0  0  0
 25 23  2  0  0  0  0
 25 27  1  0  0  0  0
 26 22  2  0  0  0  0
 27 24  2  0  0  0  0
 28 46  1  6  0  0  0
 29 28  1  0  0  0  0
 30 29  1  0  0  0  0
 30 44  1  0  0  0  0
 31 32  1  0  0  0  0
 32 37  1  0  0  0  0
 33 34  1  0  0  0  0
 34 38  1  0  0  0  0
 35 31  1  0  0  0  0
 36 43  1  0  0  0  0
 36 31  2  0  0  0  0
 37 45  2  0  0  0  0
 38 41  2  0  0  0  0
 39 35  2  0  0  0  0
 40 42  2  0  0  0  0
 40 39  1  0  0  0  0
 42 36  1  0  0  0  0
 43 30  1  0  0  0  0
 44 37  1  0  0  0  0
 44 34  2  0  0  0  0
 45 41  1  0  0  0  0
 47 52  1  0  0  0  0
 48 49  1  0  0  0  0
 49 52  2  0  0  0  0
 50 48  2  0  0  0  0
 50 53  1  0  0  0  0
 51 53  1  0  0  0  0
 52 46  1  0  0  0  0
 53 47  2  0  0  0  0
M  END
>  <MODEL>
5

>  <REMARK>
 VINA RESULT:      -9.1      2.866      9.351
  Name = 
  10 active torsions:
  status: ('A' for Active; 'I' for Inactive)
    1  A    between atoms: N_5  and  C_9
    2  A    between atoms: C_7  and  C_10
    3  A    between atoms: C_9  and  C_29
    4  A    between atoms: C_10  and  C_29
    5  A    between atoms: C_12  and  C_29
    6  A    between atoms: C_12  and  C_48
    7  A    between atoms: C_19  and  C_53
    8  A    between atoms: C_21  and  N_46
    9  A    between atoms: O_23  and  C_38
   10  A    between atoms: C_28  and  N_46
                            x       y       z     vdW  Elec       q    Type
                         _______ _______ _______ _____ _____    ______ ____

>  <TORSDO>
F 10

$$$$
=
 OpenBabel11062413583D

 53 59  0  0  1  0  0  0  0  0999 V2000
  187.6800  178.6090  140.6810 C   0  0  0  0  0  2  0  0  0  0  0  0
  188.1710  178.4570  138.1150 C   0  0  0  0  0  2  0  0  0  0  0  0
  188.4400  178.0080  139.5280 C   0  0  0  0  0  0  0  0  0  0  0  0
  185.2870  176.5020  136.0720 O   0  0  0  0  0  0  0  0  0  0  0  0
  190.0880  176.5220  138.6850 C   0  0  0  0  0  2  0  0  0  0  0  0
  187.2250  175.2280  136.4000 N   0  0  0  0  0  2  0  0  0  0  0  0
  187.5470  177.3770  137.3490 N   0  0  0  0  0  0  0  0  0  0  0  0
  189.3430  177.1290  139.7600 N   0  0  0  0  0  0  0  0  0  0  0  0
  189.1960  175.5650  137.8980 C   0  0  0  0  0  2  0  0  0  0  0  0
  187.9710  176.1440  137.2090 C   0  0  0  0  0  0  0  0  0  0  0  0
  185.9310  175.4480  135.8280 C   0  0  0  0  0  0  0  0  0  0  0  0
  183.9220  172.4110  136.5420 C   0  0  0  0  0  0  0  0  0  0  0  0
  183.7680  174.4140  135.0520 C   0  0  0  0  0  2  0  0  0  0  0  0
  183.3540  171.5230  137.2170 O   0  0  0  0  0  0  0  0  0  0  0  0
  185.2300  172.1610  136.0120 N   0  0  0  0  0  0  0  0  0  0  0  0
  185.3080  174.3840  134.9660 C   0  0  2  0  0  3  0  0  0  0  0  0
  183.2300  173.7260  136.3100 C   0  0  2  0  0  3  0  0  0  0  0  0
  185.8810  173.0200  135.2740 C   0  0  0  0  0  0  0  0  0  0  0  0
  187.1530  172.7110  134.8090 O   0  0  0  0  0  0  0  0  0  0  0  0
  188.0460  171.8750  135.5460 C   0  0  0  0  0  1  0  0  0  0  0  0
  183.3640  174.5840  137.4830 N   0  0  0  0  0  2  0  0  0  0  0  0
  180.3240  177.2300  138.8240 C   0  0  0  0  0  3  0  0  0  0  0  0
  181.3040  175.0070  138.7930 C   0  0  0  0  0  3  0  0  0  0  0  0
  181.3330  177.6860  137.9630 C   0  0  0  0  0  3  0  0  0  0  0  0
  182.3200  175.4590  137.9290 C   0  0  0  0  0  0  0  0  0  0  0  0
  180.3090  175.8900  139.2390 C   0  0  0  0  0  3  0  0  0  0  0  0
  182.3280  176.8010  137.5170 C   0  0  0  0  0  3  0  0  0  0  0  0
  188.3520  178.4050  142.0430 C   0  0  1  0  0  3  0  0  0  0  0  0
  187.7000  177.2400  142.7890 C   0  0  0  0  0  2  0  0  0  0  0  0
  186.4530  177.6670  143.4360 N   0  0  0  0  0  0  0  0  0  0  0  0
  183.6970  178.8940  143.7980 C   0  0  0  0  0  0  0  0  0  0  0  0
  184.2580  179.0480  144.9730 O   0  0  0  0  0  0  0  0  0  0  0  0
  188.5190  176.6420  145.1260 F   0  0  0  0  0  0  0  0  0  0  0  0
  187.5210  177.4270  145.6110 C   0  0  0  0  0  0  0  0  0  0  0  0
  182.4120  179.4510  143.6870 C   0  0  0  0  0  3  0  0  0  0  0  0
  184.2460  178.2190  142.6890 C   0  0  0  0  0  0  0  0  0  0  0  0
  185.3890  178.6000  145.4800 C   0  0  0  0  0  0  0  0  0  0  0  0
  187.6080  177.7310  146.9730 C   0  0  0  0  0  3  0  0  0  0  0  0
  181.6610  179.3230  142.5220 C   0  0  0  0  0  3  0  0  0  0  0  0
  182.1880  178.6280  141.4380 C   0  0  0  0  0  3  0  0  0  0  0  0
  186.6180  178.4740  147.5920 C   0  0  0  0  0  3  0  0  0  0  0  0
  183.4700  178.0870  141.5280 C   0  0  0  0  0  3  0  0  0  0  0  0
  185.4690  177.7410  142.5730 O   0  0  0  0  0  0  0  0  0  0  0  0
  186.4220  177.8820  144.8010 C   0  0  0  0  0  0  0  0  0  0  0  0
  185.5240  178.8940  146.8480 C   0  0  0  0  0  3  0  0  0  0  0  0
  189.8750  178.2640  141.9310 C   0  0  0  0  0  2  0  0  0  0  0  0
  190.9670  176.4570  143.2660 C   0  0  0  0  0  3  0  0  0  0  0  0
  191.2440  178.1580  145.4690 C   0  0  0  0  0  3  0  0  0  0  0  0
  190.6470  178.6280  144.2960 C   0  0  0  0  0  3  0  0  0  0  0  0
  191.7010  176.8390  145.5390 C   0  0  0  0  0  3  0  0  0  0  0  0
  192.0560  174.5880  144.5140 C   0  0  0  0  0  1  0  0  0  0  0  0
  190.5000  177.7740  143.1950 C   0  0  0  0  0  0  0  0  0  0  0  0
  191.5650  175.9890  144.4380 C   0  0  0  0  0  0  0  0  0  0  0  0
  2  3  1  0  0  0  0
  3  8  2  0  0  0  0
  3  1  1  0  0  0  0
  5  8  1  0  0  0  0
  6 10  1  0  0  0  0
  7  2  1  0  0  0  0
  9  5  1  0  0  0  0
 10  7  2  0  0  0  0
 10  9  1  0  0  0  0
 11  4  2  0  0  0  0
 11  6  1  0  0  0  0
 12 14  2  0  0  0  0
 13 17  1  0  0  0  0
 15 12  1  0  0  0  0
 16 13  1  0  0  0  0
 16 18  1  0  0  0  0
 16 11  1  1  0  0  0
 17 12  1  0  0  0  0
 17 21  1  1  0  0  0
 18 15  2  0  0  0  0
 19 18  1  0  0  0  0
 19 20  1  0  0  0  0
 21 25  1  0  0  0  0
 22 26  1  0  0  0  0
 23 26  2  0  0  0  0
 24 22  2  0  0  0  0
 25 23  1  0  0  0  0
 27 25  2  0  0  0  0
 27 24  1  0  0  0  0
 28  1  1  6  0  0  0
 28 29  1  0  0  0  0
 29 30  1  0  0  0  0
 30 44  1  0  0  0  0
 31 32  1  0  0  0  0
 32 37  1  0  0  0  0
 33 34  1  0  0  0  0
 34 38  1  0  0  0  0
 35 31  1  0  0  0  0
 36 31  2  0  0  0  0
 37 45  2  0  0  0  0
 38 41  2  0  0  0  0
 39 35  2  0  0  0  0
 40 42  2  0  0  0  0
 40 39  1  0  0  0  0
 42 36  1  0  0  0  0
 43 36  1  0  0  0  0
 43 30  1  0  0  0  0
 44 37  1  0  0  0  0
 44 34  2  0  0  0  0
 45 41  1  0  0  0  0
 46 28  1  0  0  0  0
 46 52  1  0  0  0  0
 47 53  1  0  0  0  0
 48 50  1  0  0  0  0
 49 48  2  0  0  0  0
 52 47  2  0  0  0  0
 52 49  1  0  0  0  0
 53 51  1  0  0  0  0
 53 50  2  0  0  0  0
M  END
>  <MODEL>
6

>  <REMARK>
 VINA RESULT:      -8.9      1.913      2.800
  Name = 
  10 active torsions:
  status: ('A' for Active; 'I' for Inactive)
    1  A    between atoms: N_5  and  C_9
    2  A    between atoms: C_7  and  C_10
    3  A    between atoms: C_9  and  C_29
    4  A    between atoms: C_10  and  C_29
    5  A    between atoms: C_12  and  C_29
    6  A    between atoms: C_12  and  C_48
    7  A    between atoms: C_19  and  C_53
    8  A    between atoms: C_21  and  N_46
    9  A    between atoms: O_23  and  C_38
   10  A    between atoms: C_28  and  N_46
                            x       y       z     vdW  Elec       q    Type
                         _______ _______ _______ _____ _____    ______ ____

>  <TORSDO>
F 10

$$$$
=
 OpenBabel11062413583D

 53 59  0  0  1  0  0  0  0  0999 V2000
  188.0620  178.8490  140.2340 C   0  0  0  0  0  2  0  0  0  0  0  0
  187.7110  178.5320  137.6600 C   0  0  0  0  0  2  0  0  0  0  0  0
  188.2060  178.0170  138.9870 C   0  0  0  0  0  0  0  0  0  0  0  0
  183.8760  177.7340  136.6790 O   0  0  0  0  0  0  0  0  0  0  0  0
  188.9300  176.0410  137.8900 C   0  0  0  0  0  2  0  0  0  0  0  0
  185.2700  175.8530  136.6030 N   0  0  0  0  0  2  0  0  0  0  0  0
  186.5640  177.7460  137.2050 N   0  0  0  0  0  0  0  0  0  0  0  0
  188.7800  176.8740  139.0580 N   0  0  0  0  0  0  0  0  0  0  0  0
  187.5790  175.4650  137.4730 C   0  0  0  0  0  2  0  0  0  0  0  0
  186.4830  176.4430  137.0830 C   0  0  0  0  0  0  0  0  0  0  0  0
  184.0220  176.5200  136.3800 C   0  0  0  0  0  0  0  0  0  0  0  0
  181.2240  174.6420  137.9330 C   0  0  0  0  0  0  0  0  0  0  0  0
  181.5120  176.4160  136.1940 C   0  0  0  0  0  2  0  0  0  0  0  0
  180.5310  174.1190  138.8360 O   0  0  0  0  0  0  0  0  0  0  0  0
  182.1700  173.8370  137.2180 N   0  0  0  0  0  0  0  0  0  0  0  0
  182.8530  175.7470  135.8310 C   0  0  2  0  0  3  0  0  0  0  0  0
  181.0600  176.1050  137.6230 C   0  0  2  0  0  3  0  0  0  0  0  0
  182.9100  174.2950  136.2450 C   0  0  0  0  0  0  0  0  0  0  0  0
  183.8160  173.4560  135.6090 O   0  0  0  0  0  0  0  0  0  0  0  0
  183.9880  172.0930  135.9990 C   0  0  0  0  0  1  0  0  0  0  0  0
  181.7860  176.9140  138.5970 N   0  0  0  0  0  2  0  0  0  0  0  0
  179.9840  179.9630  140.9430 C   0  0  0  0  0  3  0  0  0  0  0  0
  180.3370  177.6020  140.4860 C   0  0  0  0  0  3  0  0  0  0  0  0
  180.7980  180.2960  139.8500 C   0  0  0  0  0  3  0  0  0  0  0  0
  181.1550  177.9300  139.3870 C   0  0  0  0  0  0  0  0  0  0  0  0
  179.7530  178.6160  141.2610 C   0  0  0  0  0  3  0  0  0  0  0  0
  181.3810  179.2800  139.0740 C   0  0  0  0  0  3  0  0  0  0  0  0
  188.3720  178.0910  141.5290 C   0  0  1  0  0  3  0  0  0  0  0  0
  187.1380  177.3240  142.0050 C   0  0  0  0  0  2  0  0  0  0  0  0
  186.6890  177.8190  143.3110 N   0  0  0  0  0  0  0  0  0  0  0  0
  186.5100  178.1790  146.3240 C   0  0  0  0  0  0  0  0  0  0  0  0
  185.2840  178.3970  145.9160 O   0  0  0  0  0  0  0  0  0  0  0  0
  185.1480  178.5760  141.0260 F   0  0  0  0  0  0  0  0  0  0  0  0
  184.6300  178.6150  142.2820 C   0  0  0  0  0  0  0  0  0  0  0  0
  186.6790  178.2240  147.7170 C   0  0  0  0  0  3  0  0  0  0  0  0
  187.6350  177.9400  145.5080 C   0  0  0  0  0  0  0  0  0  0  0  0
  184.7590  178.5220  144.7130 C   0  0  0  0  0  0  0  0  0  0  0  0
  183.2900  179.0010  142.3640 C   0  0  0  0  0  3  0  0  0  0  0  0
  187.9320  178.0700  148.3050 C   0  0  0  0  0  3  0  0  0  0  0  0
  189.0480  177.8680  147.4990 C   0  0  0  0  0  3  0  0  0  0  0  0
  182.6700  179.1330  143.5950 C   0  0  0  0  0  3  0  0  0  0  0  0
  188.8920  177.8020  146.1160 C   0  0  0  0  0  3  0  0  0  0  0  0
  187.6470  177.7500  144.2040 O   0  0  0  0  0  0  0  0  0  0  0  0
  185.4100  178.3240  143.4560 C   0  0  0  0  0  0  0  0  0  0  0  0
  183.4050  178.8990  144.7490 C   0  0  0  0  0  3  0  0  0  0  0  0
  189.6160  177.2020  141.4030 C   0  0  0  0  0  2  0  0  0  0  0  0
  190.8480  176.0050  143.2170 C   0  0  0  0  0  3  0  0  0  0  0  0
  191.6740  178.4260  144.3480 C   0  0  0  0  0  3  0  0  0  0  0  0
  190.8780  178.4290  143.1990 C   0  0  0  0  0  3  0  0  0  0  0  0
  192.0560  177.2140  144.9290 C   0  0  0  0  0  3  0  0  0  0  0  0
  192.0560  174.7160  144.9820 C   0  0  0  0  0  1  0  0  0  0  0  0
  190.4570  177.2160  142.6370 C   0  0  0  0  0  0  0  0  0  0  0  0
  191.6450  176.0030  144.3640 C   0  0  0  0  0  0  0  0  0  0  0  0
  2  3  1  0  0  0  0
  3  8  2  0  0  0  0
  3  1  1  0  0  0  0
  5  8  1  0  0  0  0
  6 10  1  0  0  0  0
  7  2  1  0  0  0  0
  9  5  1  0  0  0  0
 10  7  2  0  0  0  0
 10  9  1  0  0  0  0
 11  6  1  0  0  0  0
 11  4  2  0  0  0  0
 12 14  2  0  0  0  0
 13 17  1  0  0  0  0
 15 12  1  0  0  0  0
 16 13  1  0  0  0  0
 16 18  1  0  0  0  0
 16 11  1  1  0  0  0
 17 12  1  0  0  0  0
 17 21  1  1  0  0  0
 18 15  2  0  0  0  0
 19 20  1  0  0  0  0
 19 18  1  0  0  0  0
 21 25  1  0  0  0  0
 22 26  1  0  0  0  0
 23 26  2  0  0  0  0
 24 22  2  0  0  0  0
 25 23  1  0  0  0  0
 27 25  2  0  0  0  0
 27 24  1  0  0  0  0
 28  1  1  6  0  0  0
 28 29  1  0  0  0  0
 29 30  1  0  0  0  0
 30 44  1  0  0  0  0
 30 43  1  0  0  0  0
 31 35  1  0  0  0  0
 32 31  1  0  0  0  0
 33 34  1  0  0  0  0
 34 38  2  0  0  0  0
 34 44  1  0  0  0  0
 35 39  2  0  0  0  0
 36 42  1  0  0  0  0
 36 31  2  0  0  0  0
 37 45  1  0  0  0  0
 37 32  1  0  0  0  0
 38 41  1  0  0  0  0
 40 39  1  0  0  0  0
 41 45  2  0  0  0  0
 42 40  2  0  0  0  0
 43 36  1  0  0  0  0
 44 37  2  0  0  0  0
 46 28  1  0  0  0  0
 46 52  1  0  0  0  0
 47 53  1  0  0  0  0
 48 50  1  0  0  0  0
 49 48  2  0  0  0  0
 52 49  1  0  0  0  0
 52 47  2  0  0  0  0
 53 50  2  0  0  0  0
 53 51  1  0  0  0  0
M  END
>  <MODEL>
7

>  <REMARK>
 VINA RESULT:      -8.8      1.748      3.468
  Name = 
  10 active torsions:
  status: ('A' for Active; 'I' for Inactive)
    1  A    between atoms: N_5  and  C_9
    2  A    between atoms: C_7  and  C_10
    3  A    between atoms: C_9  and  C_29
    4  A    between atoms: C_10  and  C_29
    5  A    between atoms: C_12  and  C_29
    6  A    between atoms: C_12  and  C_48
    7  A    between atoms: C_19  and  C_53
    8  A    between atoms: C_21  and  N_46
    9  A    between atoms: O_23  and  C_38
   10  A    between atoms: C_28  and  N_46
                            x       y       z     vdW  Elec       q    Type
                         _______ _______ _______ _____ _____    ______ ____

>  <TORSDO>
F 10

$$$$
=
 OpenBabel11062413583D

 53 59  0  0  1  0  0  0  0  0999 V2000
  188.4680  178.7890  140.2330 C   0  0  0  0  0  2  0  0  0  0  0  0
  188.8000  178.3690  137.6710 C   0  0  0  0  0  2  0  0  0  0  0  0
  189.0850  178.0040  139.1060 C   0  0  0  0  0  0  0  0  0  0  0  0
  185.5900  176.6460  135.9290 O   0  0  0  0  0  0  0  0  0  0  0  0
  190.4870  176.2550  138.3260 C   0  0  0  0  0  2  0  0  0  0  0  0
  187.3680  175.1620  136.2840 N   0  0  0  0  0  2  0  0  0  0  0  0
  188.0060  177.3210  137.0290 N   0  0  0  0  0  0  0  0  0  0  0  0
  189.8820  177.0370  139.3750 N   0  0  0  0  0  0  0  0  0  0  0  0
  189.4420  175.3610  137.6620 C   0  0  0  0  0  2  0  0  0  0  0  0
  188.2640  176.0370  136.9780 C   0  0  0  0  0  0  0  0  0  0  0  0
  186.0830  175.5010  135.7500 C   0  0  0  0  0  0  0  0  0  0  0  0
  184.0510  172.5840  136.8120 C   0  0  0  0  0  0  0  0  0  0  0  0
  183.7800  174.5730  135.3200 C   0  0  0  0  0  2  0  0  0  0  0  0
  183.5440  171.7350  137.5810 O   0  0  0  0  0  0  0  0  0  0  0  0
  185.2520  172.2580  136.1010 N   0  0  0  0  0  0  0  0  0  0  0  0
  185.2870  174.4600  135.0110 C   0  0  2  0  0  3  0  0  0  0  0  0
  183.3990  173.9300  136.6570 C   0  0  2  0  0  3  0  0  0  0  0  0
  185.8290  173.0720  135.2590 C   0  0  0  0  0  0  0  0  0  0  0  0
  187.0020  172.6910  134.6190 O   0  0  0  0  0  0  0  0  0  0  0  0
  187.8290  171.6390  135.1180 C   0  0  0  0  0  1  0  0  0  0  0  0
  183.7480  174.7940  137.7800 N   0  0  0  0  0  2  0  0  0  0  0  0
  180.9830  177.5830  139.4010 C   0  0  0  0  0  3  0  0  0  0  0  0
  183.1070  177.1290  138.3100 C   0  0  0  0  0  3  0  0  0  0  0  0
  180.7060  176.2090  139.4340 C   0  0  0  0  0  3  0  0  0  0  0  0
  182.8350  175.7470  138.3400 C   0  0  0  0  0  0  0  0  0  0  0  0
  182.1840  178.0430  138.8400 C   0  0  0  0  0  3  0  0  0  0  0  0
  181.6310  175.2930  138.9040 C   0  0  0  0  0  3  0  0  0  0  0  0
  188.3920  178.0220  141.5580 C   0  0  1  0  0  3  0  0  0  0  0  0
  186.9750  177.4960  141.7880 C   0  0  0  0  0  2  0  0  0  0  0  0
  186.4740  177.9060  143.1050 N   0  0  0  0  0  0  0  0  0  0  0  0
  186.2150  178.1150  146.1250 C   0  0  0  0  0  0  0  0  0  0  0  0
  184.9870  178.2920  145.7000 O   0  0  0  0  0  0  0  0  0  0  0  0
  184.9470  178.6960  140.8210 F   0  0  0  0  0  0  0  0  0  0  0  0
  184.4010  178.6500  142.0650 C   0  0  0  0  0  0  0  0  0  0  0  0
  186.3510  178.1020  147.5230 C   0  0  0  0  0  3  0  0  0  0  0  0
  187.3670  177.9690  145.3260 C   0  0  0  0  0  0  0  0  0  0  0  0
  184.4830  178.4480  144.4920 C   0  0  0  0  0  0  0  0  0  0  0  0
  183.0420  178.9660  142.1340 C   0  0  0  0  0  3  0  0  0  0  0  0
  187.5970  177.9810  148.1330 C   0  0  0  0  0  3  0  0  0  0  0  0
  188.7390  177.8710  147.3450 C   0  0  0  0  0  3  0  0  0  0  0  0
  182.3910  179.0090  143.3540 C   0  0  0  0  0  3  0  0  0  0  0  0
  188.6160  177.8630  145.9560 C   0  0  0  0  0  3  0  0  0  0  0  0
  187.4160  177.8420  144.0150 O   0  0  0  0  0  0  0  0  0  0  0  0
  185.1700  178.3420  143.2420 C   0  0  0  0  0  0  0  0  0  0  0  0
  183.1120  178.7570  144.5140 C   0  0  0  0  0  3  0  0  0  0  0  0
  189.4600  176.9260  141.6620 C   0  0  0  0  0  2  0  0  0  0  0  0
  190.7800  175.9890  143.5650 C   0  0  0  0  0  3  0  0  0  0  0  0
  191.6420  178.5430  144.3120 C   0  0  0  0  0  3  0  0  0  0  0  0
  190.7960  178.3880  143.2120 C   0  0  0  0  0  3  0  0  0  0  0  0
  192.0570  177.4220  145.0380 C   0  0  0  0  0  3  0  0  0  0  0  0
  192.0730  174.9550  145.4340 C   0  0  0  0  0  1  0  0  0  0  0  0
  190.3560  177.1100  142.8420 C   0  0  0  0  0  0  0  0  0  0  0  0
  191.6270  176.1450  144.6640 C   0  0  0  0  0  0  0  0  0  0  0  0
  2  3  1  0  0  0  0
  3  8  2  0  0  0  0
  3  1  1  0  0  0  0
  5  8  1  0  0  0  0
  6 10  1  0  0  0  0
  7  2  1  0  0  0  0
  9  5  1  0  0  0  0
 10  7  2  0  0  0  0
 10  9  1  0  0  0  0
 11  4  2  0  0  0  0
 11  6  1  0  0  0  0
 12 14  2  0  0  0  0
 13 17  1  0  0  0  0
 15 12  1  0  0  0  0
 16 18  1  0  0  0  0
 16 13  1  0  0  0  0
 16 11  1  1  0  0  0
 17 12  1  0  0  0  0
 17 21  1  1  0  0  0
 18 15  2  0  0  0  0
 19 20  1  0  0  0  0
 19 18  1  0  0  0  0
 21 25  1  0  0  0  0
 22 24  1  0  0  0  0
 23 25  2  0  0  0  0
 23 26  1  0  0  0  0
 25 27  1  0  0  0  0
 26 22  2  0  0  0  0
 27 24  2  0  0  0  0
 28  1  1  6  0  0  0
 28 46  1  0  0  0  0
 28 29  1  0  0  0  0
 29 30  1  0  0  0  0
 30 44  1  0  0  0  0
 30 43  1  0  0  0  0
 31 35  1  0  0  0  0
 32 31  1  0  0  0  0
 33 34  1  0  0  0  0
 34 38  2  0  0  0  0
 34 44  1  0  0  0  0
 35 39  2  0  0  0  0
 36 42  1  0  0  0  0
 36 31  2  0  0  0  0
 37 45  1  0  0  0  0
 37 32  1  0  0  0  0
 38 41  1  0  0  0  0
 40 39  1  0  0  0  0
 41 45  2  0  0  0  0
 42 40  2  0  0  0  0
 43 36  1  0  0  0  0
 44 37  2  0  0  0  0
 46 52  1  0  0  0  0
 47 53  1  0  0  0  0
 48 50  1  0  0  0  0
 49 48  2  0  0  0  0
 52 49  1  0  0  0  0
 52 47  2  0  0  0  0
 53 50  2  0  0  0  0
 53 51  1  0  0  0  0
M  END
>  <MODEL>
8

>  <REMARK>
 VINA RESULT:      -8.7      2.307      3.976
  Name = 
  10 active torsions:
  status: ('A' for Active; 'I' for Inactive)
    1  A    between atoms: N_5  and  C_9
    2  A    between atoms: C_7  and  C_10
    3  A    between atoms: C_9  and  C_29
    4  A    between atoms: C_10  and  C_29
    5  A    between atoms: C_12  and  C_29
    6  A    between atoms: C_12  and  C_48
    7  A    between atoms: C_19  and  C_53
    8  A    between atoms: C_21  and  N_46
    9  A    between atoms: O_23  and  C_38
   10  A    between atoms: C_28  and  N_46
                            x       y       z     vdW  Elec       q    Type
                         _______ _______ _______ _____ _____    ______ ____

>  <TORSDO>
F 10

$$$$
=
 OpenBabel11062413583D

 53 59  0  0  1  0  0  0  0  0999 V2000
  186.7100  178.7680  142.7760 C   0  0  0  0  0  2  0  0  0  0  0  0
  184.5060  177.5070  142.1420 C   0  0  0  0  0  2  0  0  0  0  0  0
  185.2750  178.4150  143.0680 C   0  0  0  0  0  0  0  0  0  0  0  0
  182.5250  179.2400  139.0790 O   0  0  0  0  0  0  0  0  0  0  0  0
  183.3450  178.5630  144.4410 C   0  0  0  0  0  2  0  0  0  0  0  0
  181.5520  179.6500  141.1700 N   0  0  0  0  0  2  0  0  0  0  0  0
  183.4470  178.2550  141.4630 N   0  0  0  0  0  0  0  0  0  0  0  0
  184.7190  178.8700  144.1280 N   0  0  0  0  0  0  0  0  0  0  0  0
  182.4080  179.3070  143.4920 C   0  0  0  0  0  2  0  0  0  0  0  0
  182.5190  179.0050  142.0060 C   0  0  0  0  0  0  0  0  0  0  0  0
  181.5630  179.7140  139.7390 C   0  0  0  0  0  0  0  0  0  0  0  0
  180.0850  179.3650  136.3550 C   0  0  0  0  0  0  0  0  0  0  0  0
  179.2770  179.4350  138.7200 C   0  0  0  0  0  2  0  0  0  0  0  0
  179.9490  178.9530  135.1800 O   0  0  0  0  0  0  0  0  0  0  0  0
  180.7730  180.6000  136.5900 N   0  0  0  0  0  0  0  0  0  0  0  0
  180.4390  180.4040  139.0170 C   0  0  2  0  0  3  0  0  0  0  0  0
  179.5370  178.5530  137.4950 C   0  0  2  0  0  3  0  0  0  0  0  0
  180.9330  181.1160  137.7790 C   0  0  0  0  0  0  0  0  0  0  0  0
  181.6260  182.3100  137.9290 O   0  0  0  0  0  0  0  0  0  0  0  0
  181.1170  183.5480  137.4300 C   0  0  0  0  0  1  0  0  0  0  0  0
  180.4410  177.4530  137.8160 N   0  0  0  0  0  2  0  0  0  0  0  0
  179.2340  173.9460  139.8860 C   0  0  0  0  0  3  0  0  0  0  0  0
  179.6050  175.1210  137.7910 C   0  0  0  0  0  3  0  0  0  0  0  0
  179.6380  175.0860  140.5960 C   0  0  0  0  0  3  0  0  0  0  0  0
  180.0120  176.2690  138.4990 C   0  0  0  0  0  0  0  0  0  0  0  0
  179.2160  173.9640  138.4830 C   0  0  0  0  0  3  0  0  0  0  0  0
  180.0260  176.2440  139.9030 C   0  0  0  0  0  3  0  0  0  0  0  0
  187.5610  177.5800  142.3130 C   0  0  1  0  0  3  0  0  0  0  0  0
  188.9190  178.0650  141.8040 C   0  0  0  0  0  2  0  0  0  0  0  0
  189.0530  177.8210  140.3630 N   0  0  0  0  0  0  0  0  0  0  0  0
  188.3120  177.1000  137.5050 C   0  0  0  0  0  0  0  0  0  0  0  0
  189.5690  176.7390  137.5960 O   0  0  0  0  0  0  0  0  0  0  0  0
  191.4570  178.2850  141.8400 F   0  0  0  0  0  0  0  0  0  0  0  0
  191.4680  177.6590  140.6340 C   0  0  0  0  0  0  0  0  0  0  0  0
  187.7070  176.8040  136.2730 C   0  0  0  0  0  3  0  0  0  0  0  0
  187.5550  177.7590  138.4960 C   0  0  0  0  0  0  0  0  0  0  0  0
  190.4770  176.9200  138.5340 C   0  0  0  0  0  0  0  0  0  0  0  0
  192.7220  177.2230  140.1990 C   0  0  0  0  0  3  0  0  0  0  0  0
  186.3940  177.1750  135.9970 C   0  0  0  0  0  3  0  0  0  0  0  0
  185.6570  177.8560  136.9610 C   0  0  0  0  0  3  0  0  0  0  0  0
  192.8680  176.6230  138.9600 C   0  0  0  0  0  3  0  0  0  0  0  0
  186.2380  178.1380  138.1970 C   0  0  0  0  0  3  0  0  0  0  0  0
  187.9160  178.0100  139.7380 O   0  0  0  0  0  0  0  0  0  0  0  0
  190.2860  177.4920  139.8300 C   0  0  0  0  0  0  0  0  0  0  0  0
  191.7550  176.4830  138.1430 C   0  0  0  0  0  3  0  0  0  0  0  0
  187.6800  176.4910  143.3850 C   0  0  0  0  0  2  0  0  0  0  0  0
  187.9050  177.3380  145.7240 C   0  0  0  0  0  3  0  0  0  0  0  0
  190.6960  177.2570  145.5570 C   0  0  0  0  0  3  0  0  0  0  0  0
  189.9210  176.8670  144.4630 C   0  0  0  0  0  3  0  0  0  0  0  0
  190.0750  177.6870  146.7340 C   0  0  0  0  0  3  0  0  0  0  0  0
  188.0240  178.1800  148.0730 C   0  0  0  0  0  1  0  0  0  0  0  0
  188.5220  176.9160  144.5420 C   0  0  0  0  0  0  0  0  0  0  0  0
  188.6800  177.7260  146.8190 C   0  0  0  0  0  0  0  0  0  0  0  0
  1  3  1  0  0  0  0
  2  3  1  0  0  0  0
  3  8  2  0  0  0  0
  4 11  2  0  0  0  0
  6 10  1  0  0  0  0
  7 10  2  0  0  0  0
  7  2  1  0  0  0  0
  8  5  1  0  0  0  0
  9  5  1  0  0  0  0
 10  9  1  0  0  0  0
 11  6  1  0  0  0  0
 12 15  1  0  0  0  0
 12 17  1  0  0  0  0
 13 16  1  0  0  0  0
 14 12  2  0  0  0  0
 15 18  2  0  0  0  0
 16 11  1  6  0  0  0
 17 21  1  1  0  0  0
 17 13  1  0  0  0  0
 18 19  1  0  0  0  0
 18 16  1  0  0  0  0
 20 19  1  0  0  0  0
 21 25  1  0  0  0  0
 22 24  1  0  0  0  0
 23 26  1  0  0  0  0
 23 25  2  0  0  0  0
 25 27  1  0  0  0  0
 26 22  2  0  0  0  0
 27 24  2  0  0  0  0
 28 29  1  1  0  0  0
 28  1  1  0  0  0  0
 28 46  1  0  0  0  0
 30 29  1  0  0  0  0
 31 32  1  0  0  0  0
 31 36  1  0  0  0  0
 32 37  1  0  0  0  0
 34 33  1  0  0  0  0
 35 31  2  0  0  0  0
 36 43  1  0  0  0  0
 37 44  1  0  0  0  0
 38 34  1  0  0  0  0
 39 35  1  0  0  0  0
 39 40  2  0  0  0  0
 40 42  1  0  0  0  0
 41 38  2  0  0  0  0
 42 36  2  0  0  0  0
 43 30  1  0  0  0  0
 44 30  1  0  0  0  0
 44 34  2  0  0  0  0
 45 37  2  0  0  0  0
 45 41  1  0  0  0  0
 46 52  1  0  0  0  0
 47 53  1  0  0  0  0
 48 50  1  0  0  0  0
 49 52  1  0  0  0  0
 49 48  2  0  0  0  0
 50 53  2  0  0  0  0
 52 47  2  0  0  0  0
 53 51  1  0  0  0  0
M  END
>  <MODEL>
9

>  <REMARK>
 VINA RESULT:      -8.6      2.696      6.211
  Name = 
  10 active torsions:
  status: ('A' for Active; 'I' for Inactive)
    1  A    between atoms: N_5  and  C_9
    2  A    between atoms: C_7  and  C_10
    3  A    between atoms: C_9  and  C_29
    4  A    between atoms: C_10  and  C_29
    5  A    between atoms: C_12  and  C_29
    6  A    between atoms: C_12  and  C_48
    7  A    between atoms: C_19  and  C_53
    8  A    between atoms: C_21  and  N_46
    9  A    between atoms: O_23  and  C_38
   10  A    between atoms: C_28  and  N_46
                            x       y       z     vdW  Elec       q    Type
                         _______ _______ _______ _____ _____    ______ ____

>  <TORSDO>
F 10

$$$$
