=
 OpenBabel11062416023D

 36 40  0  0  1  0  0  0  0  0999 V2000
  191.0240  176.6420  141.5460 O   0  0  0  0  0  0  0  0  0  0  0  0
  189.1020  176.5400  144.1210 C   0  0  0  0  0  2  0  0  0  0  0  0
  189.5120  178.3530  145.5740 C   0  0  0  0  0  3  0  0  0  0  0  0
  190.4090  177.1080  143.8640 N   0  0  0  0  0  0  0  0  0  0  0  0
  191.3860  179.1110  144.0940 N   0  0  0  0  0  0  0  0  0  0  0  0
  191.7130  178.6040  142.8780 C   0  0  0  0  0  3  0  0  0  0  0  0
  191.0650  177.3880  142.7290 C   0  0  0  0  0  0  0  0  0  0  0  0
  190.6070  178.1580  144.6440 C   0  0  0  0  0  0  0  0  0  0  0  0
  188.6470  177.3600  145.3110 C   0  0  0  0  0  0  0  0  0  0  0  0
  185.7960  177.8140  143.9140 N   0  0  0  0  0  2  0  0  0  0  0  0
  186.2660  178.0780  145.2410 C   0  0  0  0  0  0  0  0  0  0  0  0
  184.8820  178.6400  143.1870 C   0  0  0  0  0  0  0  0  0  0  0  0
  185.7740  179.0010  145.9960 N   0  0  0  0  0  0  0  0  0  0  0  0
  184.4170  178.2040  141.8420 C   0  0  0  0  0  1  0  0  0  0  0  0
  187.2870  177.2450  145.9540 C   0  0  2  0  0  3  0  0  0  0  0  0
  187.9580  177.5650  148.5030 C   0  0  0  0  0  1  0  0  0  0  0  0
  186.3710  178.9290  147.2540 N   0  0  0  0  0  0  0  0  0  0  0  0
  184.5000  179.7480  143.6460 O   0  0  0  0  0  0  0  0  0  0  0  0
  187.2280  177.9640  147.2680 C   0  0  0  0  0  0  0  0  0  0  0  0
  190.4600  177.2260  138.0830 C   0  0  0  0  0  3  0  0  0  0  0  0
  190.1110  176.8260  140.5030 C   0  0  0  0  0  0  0  0  0  0  0  0
  188.0120  177.9840  139.7660 C   0  0  0  0  0  3  0  0  0  0  0  0
  190.3270  176.2010  139.1590 C   0  0  0  0  0  2  0  0  0  0  0  0
  189.0360  177.5760  140.7480 C   0  0  0  0  0  3  0  0  0  0  0  0
  188.1710  178.1690  138.4410 C   0  0  0  0  0  0  0  0  0  0  0  0
  189.4730  178.0610  137.7570 C   0  0  0  0  0  3  0  0  0  0  0  0
  187.0780  178.6640  137.6630 N   0  0  0  0  0  2  0  0  0  0  0  0
  186.5980  178.0240  136.4450 C   0  0  0  0  0  2  0  0  0  0  0  0
  185.2040  177.4690  136.6630 C   0  0  0  0  0  2  0  0  0  0  0  0
  184.7620  177.6320  138.1160 C   0  0  0  0  0  2  0  0  0  0  0  0
  183.3880  178.2870  138.2310 C   0  0  0  0  0  0  0  0  0  0  0  0
  182.2110  177.3730  138.4920 C   0  0  0  0  0  2  0  0  0  0  0  0
  182.4570  177.9240  137.0900 C   0  0  0  0  0  2  0  0  0  0  0  0
  183.2570  179.6990  138.7240 C   0  0  0  0  0  0  0  0  0  0  0  0
  184.3860  180.4330  139.0770 O   0  0  0  0  0  1  0  0  0  0  0  0
  182.1200  180.2360  138.7990 O   0  0  0  0  0  0  0  0  0  0  0  0
  1  7  1  0  0  0  0
  2  9  1  0  0  0  0
  4  2  1  0  0  0  0
  4  8  1  0  0  0  0
  5  8  2  0  0  0  0
  6  5  1  0  0  0  0
  7  6  2  0  0  0  0
  7  4  1  0  0  0  0
  8  3  1  0  0  0  0
  9  3  2  0  0  0  0
 10 11  1  0  0  0  0
 11 15  1  0  0  0  0
 11 13  2  0  0  0  0
 12 18  2  0  0  0  0
 12 10  1  0  0  0  0
 13 17  1  0  0  0  0
 14 12  1  0  0  0  0
 15  9  1  6  0  0  0
 15 19  1  0  0  0  0
 17 19  2  0  0  0  0
 19 16  1  0  0  0  0
 20 23  1  0  0  0  0
 21 24  2  0  0  0  0
 21  1  1  0  0  0  0
 22 24  1  0  0  0  0
 23 21  1  0  0  0  0
 25 22  2  0  0  0  0
 26 20  2  0  0  0  0
 26 25  1  0  0  0  0
 27 25  1  0  0  0  0
 28 29  1  0  0  0  0
 28 27  1  0  0  0  0
 29 30  1  0  0  0  0
 30 31  1  0  0  0  0
 31 32  1  0  0  0  0
 31 34  1  0  0  0  0
 33 31  1  0  0  0  0
 33 32  1  0  0  0  0
 34 36  2  0  0  0  0
 34 35  1  0  0  0  0
M  END
>  <MODEL>
1

>  <REMARK>
 VINA RESULT:      -8.6      0.000      0.000
  Name = 
  9 active torsions:
  status: ('A' for Active; 'I' for Inactive)
    1  A    between atoms: C_2  and  C_5
    2  A    between atoms: C_2  and  C_9
    3  A    between atoms: C_5  and  C_24
    4  A    between atoms: O_7  and  C_13
    5  A    between atoms: O_7  and  C_26
    6  A    between atoms: C_9  and  C_10
    7  A    between atoms: N_12  and  C_24
    8  A    between atoms: N_12  and  C_25
    9  A    between atoms: C_29  and  C_30
                            x       y       z     vdW  Elec       q    Type
                         _______ _______ _______ _____ _____    ______ ____

>  <TORSDO>
F 9

$$$$
=
 OpenBabel11062416023D

 36 40  0  0  1  0  0  0  0  0999 V2000
  184.6370  179.5360  140.8950 O   0  0  0  0  0  0  0  0  0  0  0  0
  186.3480  177.8380  138.7670 C   0  0  0  0  0  2  0  0  0  0  0  0
  185.1080  177.4190  136.8050 C   0  0  0  0  0  3  0  0  0  0  0  0
  184.9310  177.9960  139.0210 N   0  0  0  0  0  0  0  0  0  0  0  0
  183.1160  178.5420  137.8270 N   0  0  0  0  0  0  0  0  0  0  0  0
  183.0830  179.2190  139.0020 C   0  0  0  0  0  3  0  0  0  0  0  0
  184.2330  178.9090  139.7110 C   0  0  0  0  0  0  0  0  0  0  0  0
  184.2490  177.8140  137.9030 C   0  0  0  0  0  0  0  0  0  0  0  0
  186.3440  177.3700  137.3270 C   0  0  0  0  0  0  0  0  0  0  0  0
  187.3950  174.5640  136.1820 N   0  0  0  0  0  2  0  0  0  0  0  0
  188.0870  175.7220  136.6630 C   0  0  0  0  0  0  0  0  0  0  0  0
  187.8140  173.2120  136.3880 C   0  0  0  0  0  0  0  0  0  0  0  0
  189.2660  175.6770  137.1850 N   0  0  0  0  0  0  0  0  0  0  0  0
  187.0400  172.1050  135.7650 C   0  0  0  0  0  1  0  0  0  0  0  0
  187.5880  177.1270  136.5070 C   0  0  2  0  0  3  0  0  0  0  0  0
  188.9890  179.2880  137.1500 C   0  0  0  0  0  1  0  0  0  0  0  0
  189.6980  176.9760  137.4500 N   0  0  0  0  0  0  0  0  0  0  0  0
  188.8000  172.9420  137.1250 O   0  0  0  0  0  0  0  0  0  0  0  0
  188.7840  177.8150  137.0910 C   0  0  0  0  0  0  0  0  0  0  0  0
  183.7930  179.3920  144.3480 C   0  0  0  0  0  3  0  0  0  0  0  0
  184.7920  178.9050  142.1340 C   0  0  0  0  0  0  0  0  0  0  0  0
  186.4200  177.9220  143.7690 C   0  0  0  0  0  3  0  0  0  0  0  0
  183.6270  178.6810  143.0470 C   0  0  0  0  0  2  0  0  0  0  0  0
  186.0180  178.5040  142.4730 C   0  0  0  0  0  3  0  0  0  0  0  0
  185.8670  178.1420  144.9770 C   0  0  0  0  0  0  0  0  0  0  0  0
  184.7730  179.1050  145.2050 C   0  0  0  0  0  3  0  0  0  0  0  0
  186.4600  177.5590  146.1400 N   0  0  0  0  0  2  0  0  0  0  0  0
  186.7970  178.3150  147.3400 C   0  0  0  0  0  2  0  0  0  0  0  0
  188.2460  178.0750  147.7180 C   0  0  0  0  0  2  0  0  0  0  0  0
  188.7820  176.7990  147.0720 C   0  0  0  0  0  2  0  0  0  0  0  0
  189.9970  177.0670  146.1870 C   0  0  0  0  0  0  0  0  0  0  0  0
  189.9210  178.2600  145.2590 C   0  0  0  0  0  2  0  0  0  0  0  0
  189.7190  176.8490  144.7120 C   0  0  0  0  0  2  0  0  0  0  0  0
  191.3700  176.6580  146.6350 C   0  0  0  0  0  0  0  0  0  0  0  0
  191.8330  177.0020  147.9020 O   0  0  0  0  0  1  0  0  0  0  0  0
  192.1050  175.9800  145.8690 O   0  0  0  0  0  0  0  0  0  0  0  0
  1 21  1  0  0  0  0
  2  4  1  0  0  0  0
  3  9  2  0  0  0  0
  3  8  1  0  0  0  0
  4  7  1  0  0  0  0
  5  8  2  0  0  0  0
  5  6  1  0  0  0  0
  6  7  2  0  0  0  0
  7  1  1  0  0  0  0
  8  4  1  0  0  0  0
  9  2  1  0  0  0  0
 10 12  1  0  0  0  0
 10 11  1  0  0  0  0
 11 13  2  0  0  0  0
 12 18  2  0  0  0  0
 13 17  1  0  0  0  0
 14 12  1  0  0  0  0
 15 11  1  0  0  0  0
 15 19  1  0  0  0  0
 15  9  1  1  0  0  0
 19 16  1  0  0  0  0
 19 17  2  0  0  0  0
 20 26  2  0  0  0  0
 21 24  2  0  0  0  0
 21 23  1  0  0  0  0
 22 25  2  0  0  0  0
 23 20  1  0  0  0  0
 24 22  1  0  0  0  0
 25 26  1  0  0  0  0
 25 27  1  0  0  0  0
 27 28  1  0  0  0  0
 28 29  1  0  0  0  0
 30 29  1  0  0  0  0
 31 34  1  0  0  0  0
 31 30  1  0  0  0  0
 32 31  1  0  0  0  0
 33 32  1  0  0  0  0
 33 31  1  0  0  0  0
 34 35  1  0  0  0  0
 36 34  2  0  0  0  0
M  END
>  <MODEL>
2

>  <REMARK>
 VINA RESULT:      -8.5      2.766      9.375
  Name = 
  9 active torsions:
  status: ('A' for Active; 'I' for Inactive)
    1  A    between atoms: C_2  and  C_5
    2  A    between atoms: C_2  and  C_9
    3  A    between atoms: C_5  and  C_24
    4  A    between atoms: O_7  and  C_13
    5  A    between atoms: O_7  and  C_26
    6  A    between atoms: C_9  and  C_10
    7  A    between atoms: N_12  and  C_24
    8  A    between atoms: N_12  and  C_25
    9  A    between atoms: C_29  and  C_30
                            x       y       z     vdW  Elec       q    Type
                         _______ _______ _______ _____ _____    ______ ____

>  <TORSDO>
F 9

$$$$
=
 OpenBabel11062416023D

 36 40  0  0  1  0  0  0  0  0999 V2000
  190.3350  176.7720  141.4060 O   0  0  0  0  0  0  0  0  0  0  0  0
  188.5170  176.6210  144.0540 C   0  0  0  0  0  2  0  0  0  0  0  0
  189.4020  177.9590  145.7830 C   0  0  0  0  0  3  0  0  0  0  0  0
  189.9160  176.9020  143.8100 N   0  0  0  0  0  0  0  0  0  0  0  0
  191.3640  178.5290  144.3330 N   0  0  0  0  0  0  0  0  0  0  0  0
  191.5220  178.2100  143.0240 C   0  0  0  0  0  3  0  0  0  0  0  0
  190.5910  177.2370  142.7010 C   0  0  0  0  0  0  0  0  0  0  0  0
  190.3880  177.6980  144.7540 C   0  0  0  0  0  0  0  0  0  0  0  0
  188.3110  177.2730  145.4050 C   0  0  0  0  0  0  0  0  0  0  0  0
  185.4660  178.0010  144.1170 N   0  0  0  0  0  2  0  0  0  0  0  0
  186.0330  178.2730  145.4040 C   0  0  0  0  0  0  0  0  0  0  0  0
  184.6210  178.8940  143.3870 C   0  0  0  0  0  0  0  0  0  0  0  0
  185.6950  179.2870  146.1270 N   0  0  0  0  0  0  0  0  0  0  0  0
  184.0370  178.4500  142.0920 C   0  0  0  0  0  1  0  0  0  0  0  0
  186.9830  177.3590  146.1160 C   0  0  2  0  0  3  0  0  0  0  0  0
  187.8200  177.7240  148.6090 C   0  0  0  0  0  1  0  0  0  0  0  0
  186.3450  179.2070  147.3580 N   0  0  0  0  0  0  0  0  0  0  0  0
  184.3990  180.0630  143.7990 O   0  0  0  0  0  0  0  0  0  0  0  0
  187.0800  178.1450  147.3880 C   0  0  0  0  0  0  0  0  0  0  0  0
  187.3010  178.1960  140.2130 C   0  0  0  0  0  3  0  0  0  0  0  0
  189.6670  177.4850  140.4060 C   0  0  0  0  0  0  0  0  0  0  0  0
  189.3080  177.7510  137.9380 C   0  0  0  0  0  3  0  0  0  0  0  0
  188.6540  178.5370  140.7410 C   0  0  0  0  0  2  0  0  0  0  0  0
  189.9670  177.2000  139.1380 C   0  0  0  0  0  3  0  0  0  0  0  0
  188.0360  178.1800  137.8210 C   0  0  0  0  0  0  0  0  0  0  0  0
  187.0450  178.0840  138.9090 C   0  0  0  0  0  3  0  0  0  0  0  0
  187.5460  178.5920  136.5430 N   0  0  0  0  0  2  0  0  0  0  0  0
  187.8030  177.8650  135.3060 C   0  0  0  0  0  2  0  0  0  0  0  0
  186.9050  176.6460  135.2230 C   0  0  0  0  0  2  0  0  0  0  0  0
  187.6930  175.4050  134.8070 C   0  0  0  0  0  2  0  0  0  0  0  0
  188.1290  174.5700  136.0090 C   0  0  0  0  0  0  0  0  0  0  0  0
  187.2820  173.3650  136.3530 C   0  0  0  0  0  2  0  0  0  0  0  0
  187.1590  174.6470  137.1720 C   0  0  0  0  0  2  0  0  0  0  0  0
  189.5760  174.5010  136.4020 C   0  0  0  0  0  0  0  0  0  0  0  0
  189.9850  173.6960  137.4610 O   0  0  0  0  0  1  0  0  0  0  0  0
  190.4350  175.1590  135.7560 O   0  0  0  0  0  0  0  0  0  0  0  0
  1  7  1  0  0  0  0
  2  9  1  0  0  0  0
  4  2  1  0  0  0  0
  4  8  1  0  0  0  0
  5  8  2  0  0  0  0
  6  5  1  0  0  0  0
  7  6  2  0  0  0  0
  7  4  1  0  0  0  0
  8  3  1  0  0  0  0
  9  3  2  0  0  0  0
 10 11  1  0  0  0  0
 11 15  1  0  0  0  0
 11 13  2  0  0  0  0
 12 18  2  0  0  0  0
 12 10  1  0  0  0  0
 13 17  1  0  0  0  0
 14 12  1  0  0  0  0
 15  9  1  6  0  0  0
 15 19  1  0  0  0  0
 17 19  2  0  0  0  0
 19 16  1  0  0  0  0
 20 23  1  0  0  0  0
 21 23  1  0  0  0  0
 21  1  1  0  0  0  0
 22 24  1  0  0  0  0
 24 21  2  0  0  0  0
 25 22  2  0  0  0  0
 25 26  1  0  0  0  0
 26 20  2  0  0  0  0
 27 25  1  0  0  0  0
 28 27  1  0  0  0  0
 29 28  1  0  0  0  0
 30 29  1  0  0  0  0
 30 31  1  0  0  0  0
 31 32  1  0  0  0  0
 31 34  1  0  0  0  0
 31 33  1  0  0  0  0
 32 33  1  0  0  0  0
 34 35  1  0  0  0  0
 36 34  2  0  0  0  0
M  END
>  <MODEL>
3

>  <REMARK>
 VINA RESULT:      -8.5      2.036      3.566
  Name = 
  9 active torsions:
  status: ('A' for Active; 'I' for Inactive)
    1  A    between atoms: C_2  and  C_5
    2  A    between atoms: C_2  and  C_9
    3  A    between atoms: C_5  and  C_24
    4  A    between atoms: O_7  and  C_13
    5  A    between atoms: O_7  and  C_26
    6  A    between atoms: C_9  and  C_10
    7  A    between atoms: N_12  and  C_24
    8  A    between atoms: N_12  and  C_25
    9  A    between atoms: C_29  and  C_30
                            x       y       z     vdW  Elec       q    Type
                         _______ _______ _______ _____ _____    ______ ____

>  <TORSDO>
F 9

$$$$
=
 OpenBabel11062416023D

 36 40  0  0  1  0  0  0  0  0999 V2000
  190.1550  176.1720  141.3810 O   0  0  0  0  0  0  0  0  0  0  0  0
  188.2690  177.0080  138.9150 C   0  0  0  0  0  2  0  0  0  0  0  0
  189.5310  177.4070  136.9620 C   0  0  0  0  0  3  0  0  0  0  0  0
  189.6540  177.2600  139.2510 N   0  0  0  0  0  0  0  0  0  0  0  0
  191.6430  177.0120  138.2500 N   0  0  0  0  0  0  0  0  0  0  0  0
  191.7400  176.5650  139.5280 C   0  0  0  0  0  3  0  0  0  0  0  0
  190.4930  176.6810  140.1220 C   0  0  0  0  0  0  0  0  0  0  0  0
  190.3640  177.4270  138.1480 C   0  0  0  0  0  0  0  0  0  0  0  0
  188.2800  177.2220  137.4150 C   0  0  0  0  0  0  0  0  0  0  0  0
  185.3020  178.3360  137.8320 N   0  0  0  0  0  2  0  0  0  0  0  0
  185.7990  177.1180  137.2670 C   0  0  0  0  0  0  0  0  0  0  0  0
  184.1130  178.4520  138.6190 C   0  0  0  0  0  0  0  0  0  0  0  0
  185.1280  176.0160  137.2570 N   0  0  0  0  0  0  0  0  0  0  0  0
  183.6710  179.7960  139.0790 C   0  0  0  0  0  1  0  0  0  0  0  0
  187.0900  177.0020  136.5140 C   0  0  2  0  0  3  0  0  0  0  0  0
  187.8810  174.8160  135.2340 C   0  0  0  0  0  1  0  0  0  0  0  0
  185.8400  175.0530  136.5440 N   0  0  0  0  0  0  0  0  0  0  0  0
  183.4610  177.4320  138.9660 O   0  0  0  0  0  0  0  0  0  0  0  0
  186.9470  175.5640  136.1180 C   0  0  0  0  0  0  0  0  0  0  0  0
  190.5400  178.2900  144.2130 C   0  0  0  0  0  3  0  0  0  0  0  0
  189.5560  176.8980  142.4150 C   0  0  0  0  0  0  0  0  0  0  0  0
  187.8170  176.8810  144.2230 C   0  0  0  0  0  3  0  0  0  0  0  0
  190.0520  178.2570  142.8030 C   0  0  0  0  0  2  0  0  0  0  0  0
  188.5200  176.3390  143.0420 C   0  0  0  0  0  3  0  0  0  0  0  0
  188.3220  177.6700  145.1900 C   0  0  0  0  0  0  0  0  0  0  0  0
  189.7410  178.0660  145.2560 C   0  0  0  0  0  3  0  0  0  0  0  0
  187.5080  178.0150  146.3140 N   0  0  0  0  0  2  0  0  0  0  0  0
  186.0560  177.8840  146.3310 C   0  0  0  0  0  2  0  0  0  0  0  0
  185.4190  179.0490  145.6000 C   0  0  0  0  0  2  0  0  0  0  0  0
  183.9650  178.7510  145.2420 C   0  0  0  0  0  2  0  0  0  0  0  0
  183.7270  178.7710  143.7340 C   0  0  0  0  0  0  0  0  0  0  0  0
  184.7260  178.0320  142.8700 C   0  0  0  0  0  2  0  0  0  0  0  0
  184.7800  179.5540  142.9750 C   0  0  0  0  0  2  0  0  0  0  0  0
  182.3340  178.8940  143.1860 C   0  0  0  0  0  0  0  0  0  0  0  0
  182.0900  178.7180  141.8270 O   0  0  0  0  0  0  0  0  0  0  0  0
  181.3730  179.1380  143.9620 O   0  0  0  0  0  1  0  0  0  0  0  0
  1 21  1  0  0  0  0
  2  4  1  0  0  0  0
  3  9  2  0  0  0  0
  3  8  1  0  0  0  0
  4  7  1  0  0  0  0
  5  6  1  0  0  0  0
  6  7  2  0  0  0  0
  7  1  1  0  0  0  0
  8  5  2  0  0  0  0
  8  4  1  0  0  0  0
  9  2  1  0  0  0  0
 10 12  1  0  0  0  0
 11 10  1  0  0  0  0
 12 18  2  0  0  0  0
 12 14  1  0  0  0  0
 13 11  2  0  0  0  0
 15 11  1  0  0  0  0
 15  9  1  1  0  0  0
 16 19  1  0  0  0  0
 17 13  1  0  0  0  0
 19 15  1  0  0  0  0
 19 17  2  0  0  0  0
 20 26  2  0  0  0  0
 21 23  1  0  0  0  0
 21 24  2  0  0  0  0
 22 25  2  0  0  0  0
 23 20  1  0  0  0  0
 24 22  1  0  0  0  0
 25 26  1  0  0  0  0
 25 27  1  0  0  0  0
 27 28  1  0  0  0  0
 29 28  1  0  0  0  0
 30 29  1  0  0  0  0
 31 30  1  0  0  0  0
 32 33  1  0  0  0  0
 32 31  1  0  0  0  0
 33 31  1  0  0  0  0
 34 31  1  0  0  0  0
 34 36  1  0  0  0  0
 35 34  2  0  0  0  0
M  END
>  <MODEL>
4

>  <REMARK>
 VINA RESULT:      -8.4      2.078      6.949
  Name = 
  9 active torsions:
  status: ('A' for Active; 'I' for Inactive)
    1  A    between atoms: C_2  and  C_5
    2  A    between atoms: C_2  and  C_9
    3  A    between atoms: C_5  and  C_24
    4  A    between atoms: O_7  and  C_13
    5  A    between atoms: O_7  and  C_26
    6  A    between atoms: C_9  and  C_10
    7  A    between atoms: N_12  and  C_24
    8  A    between atoms: N_12  and  C_25
    9  A    between atoms: C_29  and  C_30
                            x       y       z     vdW  Elec       q    Type
                         _______ _______ _______ _____ _____    ______ ____

>  <TORSDO>
F 9

$$$$
=
 OpenBabel11062416023D

 36 40  0  0  1  0  0  0  0  0999 V2000
  181.9910  178.3980  141.9500 O   0  0  0  0  0  0  0  0  0  0  0  0
  183.4030  177.0090  139.4170 C   0  0  0  0  0  2  0  0  0  0  0  0
  183.1220  178.2970  137.4610 C   0  0  0  0  0  3  0  0  0  0  0  0
  182.2940  177.9270  139.5710 N   0  0  0  0  0  0  0  0  0  0  0  0
  181.7050  179.9210  138.7380 N   0  0  0  0  0  0  0  0  0  0  0  0
  181.4910  179.9290  140.0780 C   0  0  0  0  0  3  0  0  0  0  0  0
  181.9020  178.7080  140.5880 C   0  0  0  0  0  0  0  0  0  0  0  0
  182.1800  178.6830  138.4920 C   0  0  0  0  0  0  0  0  0  0  0  0
  183.8070  177.2650  137.9800 C   0  0  0  0  0  0  0  0  0  0  0  0
  186.8870  177.4730  138.8510 N   0  0  0  0  0  2  0  0  0  0  0  0
  186.2580  177.3800  137.5670 C   0  0  0  0  0  0  0  0  0  0  0  0
  188.0490  178.2530  139.1410 C   0  0  0  0  0  0  0  0  0  0  0  0
  186.7800  177.8540  136.4860 N   0  0  0  0  0  0  0  0  0  0  0  0
  188.6440  178.1960  140.5040 C   0  0  0  0  0  1  0  0  0  0  0  0
  184.9920  176.6230  137.3010 C   0  0  2  0  0  3  0  0  0  0  0  0
  183.9730  176.2210  134.8830 C   0  0  0  0  0  1  0  0  0  0  0  0
  185.9770  177.5080  135.4010 N   0  0  0  0  0  0  0  0  0  0  0  0
  188.5500  179.0210  138.2780 O   0  0  0  0  0  0  0  0  0  0  0  0
  184.9630  176.8260  135.8170 C   0  0  0  0  0  0  0  0  0  0  0  0
  185.4480  178.0950  142.7330 C   0  0  0  0  0  3  0  0  0  0  0  0
  183.0550  178.7380  142.7910 C   0  0  0  0  0  0  0  0  0  0  0  0
  183.8170  179.0030  145.1650 C   0  0  0  0  0  3  0  0  0  0  0  0
  184.4130  179.0520  142.2420 C   0  0  0  0  0  2  0  0  0  0  0  0
  182.8180  178.7770  144.1020 C   0  0  0  0  0  3  0  0  0  0  0  0
  185.1290  178.6990  145.1400 C   0  0  0  0  0  0  0  0  0  0  0  0
  185.7750  177.9870  144.0210 C   0  0  0  0  0  3  0  0  0  0  0  0
  185.9230  178.9050  146.3110 N   0  0  0  0  0  2  0  0  0  0  0  0
  186.6830  177.8500  146.9680 C   0  0  0  0  0  2  0  0  0  0  0  0
  188.1460  178.2400  147.0570 C   0  0  0  0  0  2  0  0  0  0  0  0
  189.0550  177.0250  146.8860 C   0  0  0  0  0  2  0  0  0  0  0  0
  189.9070  177.1150  145.6220 C   0  0  0  0  0  0  0  0  0  0  0  0
  189.6070  178.2540  144.6710 C   0  0  0  0  0  2  0  0  0  0  0  0
  189.1220  176.8410  144.3540 C   0  0  0  0  0  2  0  0  0  0  0  0
  191.3150  176.5950  145.6150 C   0  0  0  0  0  0  0  0  0  0  0  0
  191.8240  175.9450  144.4940 O   0  0  0  0  0  0  0  0  0  0  0  0
  192.0520  176.7630  146.6230 O   0  0  0  0  0  1  0  0  0  0  0  0
  1 21  1  0  0  0  0
  2  4  1  0  0  0  0
  3  9  2  0  0  0  0
  3  8  1  0  0  0  0
  4  7  1  0  0  0  0
  5  6  1  0  0  0  0
  6  7  2  0  0  0  0
  7  1  1  0  0  0  0
  8  5  2  0  0  0  0
  8  4  1  0  0  0  0
  9  2  1  0  0  0  0
 10 12  1  0  0  0  0
 11 10  1  0  0  0  0
 12 14  1  0  0  0  0
 13 11  2  0  0  0  0
 15 11  1  0  0  0  0
 15  9  1  1  0  0  0
 16 19  1  0  0  0  0
 17 19  2  0  0  0  0
 17 13  1  0  0  0  0
 18 12  2  0  0  0  0
 19 15  1  0  0  0  0
 20 26  2  0  0  0  0
 21 24  2  0  0  0  0
 23 20  1  0  0  0  0
 23 21  1  0  0  0  0
 24 22  1  0  0  0  0
 25 22  2  0  0  0  0
 25 27  1  0  0  0  0
 26 25  1  0  0  0  0
 27 28  1  0  0  0  0
 28 29  1  0  0  0  0
 30 29  1  0  0  0  0
 31 30  1  0  0  0  0
 32 31  1  0  0  0  0
 33 32  1  0  0  0  0
 33 31  1  0  0  0  0
 34 31  1  0  0  0  0
 34 36  1  0  0  0  0
 35 34  2  0  0  0  0
M  END
>  <MODEL>
5

>  <REMARK>
 VINA RESULT:      -8.3      2.338      9.331
  Name = 
  9 active torsions:
  status: ('A' for Active; 'I' for Inactive)
    1  A    between atoms: C_2  and  C_5
    2  A    between atoms: C_2  and  C_9
    3  A    between atoms: C_5  and  C_24
    4  A    between atoms: O_7  and  C_13
    5  A    between atoms: O_7  and  C_26
    6  A    between atoms: C_9  and  C_10
    7  A    between atoms: N_12  and  C_24
    8  A    between atoms: N_12  and  C_25
    9  A    between atoms: C_29  and  C_30
                            x       y       z     vdW  Elec       q    Type
                         _______ _______ _______ _____ _____    ______ ____

>  <TORSDO>
F 9

$$$$
=
 OpenBabel11062416023D

 36 40  0  0  1  0  0  0  0  0999 V2000
  184.6150  179.5800  140.5690 O   0  0  0  0  0  0  0  0  0  0  0  0
  184.8710  177.4080  138.2130 C   0  0  0  0  0  2  0  0  0  0  0  0
  183.1420  177.6500  136.6280 C   0  0  0  0  0  3  0  0  0  0  0  0
  183.7650  178.1490  138.7810 N   0  0  0  0  0  0  0  0  0  0  0  0
  182.1310  179.4750  138.0140 N   0  0  0  0  0  0  0  0  0  0  0  0
  182.6730  180.0480  139.1180 C   0  0  0  0  0  3  0  0  0  0  0  0
  183.7120  179.2420  139.5560 C   0  0  0  0  0  0  0  0  0  0  0  0
  182.8250  178.3280  137.8690 C   0  0  0  0  0  0  0  0  0  0  0  0
  184.3230  177.0510  136.8470 C   0  0  0  0  0  0  0  0  0  0  0  0
  184.4720  173.8870  136.3450 N   0  0  0  0  0  2  0  0  0  0  0  0
  185.4400  174.9290  136.1820 C   0  0  0  0  0  0  0  0  0  0  0  0
  184.7600  172.5640  136.8070 C   0  0  0  0  0  0  0  0  0  0  0  0
  186.7130  174.7340  136.2650 N   0  0  0  0  0  0  0  0  0  0  0  0
  183.6670  171.5540  136.8550 C   0  0  0  0  0  1  0  0  0  0  0  0
  185.1070  176.3330  135.7760 C   0  0  2  0  0  3  0  0  0  0  0  0
  186.9150  178.1920  135.2080 C   0  0  0  0  0  1  0  0  0  0  0  0
  187.3790  175.9190  135.9530 N   0  0  0  0  0  0  0  0  0  0  0  0
  185.9100  172.2530  137.2150 O   0  0  0  0  0  0  0  0  0  0  0  0
  186.5140  176.8380  135.6800 C   0  0  0  0  0  0  0  0  0  0  0  0
  183.6190  179.2690  143.9700 C   0  0  0  0  0  3  0  0  0  0  0  0
  184.7480  178.9160  141.7930 C   0  0  0  0  0  0  0  0  0  0  0  0
  186.3500  177.9660  143.4730 C   0  0  0  0  0  3  0  0  0  0  0  0
  183.5550  178.5960  142.6400 C   0  0  0  0  0  2  0  0  0  0  0  0
  185.9770  178.5710  142.1790 C   0  0  0  0  0  3  0  0  0  0  0  0
  185.7290  178.1130  144.6580 C   0  0  0  0  0  0  0  0  0  0  0  0
  184.5730  179.0050  144.8640 C   0  0  0  0  0  3  0  0  0  0  0  0
  186.2980  177.5230  145.8300 N   0  0  0  0  0  2  0  0  0  0  0  0
  186.5500  178.2570  147.0630 C   0  0  0  0  0  2  0  0  0  0  0  0
  188.0350  178.2720  147.3670 C   0  0  0  0  0  2  0  0  0  0  0  0
  188.6870  176.9370  147.0110 C   0  0  0  0  0  2  0  0  0  0  0  0
  189.9190  177.1160  146.1260 C   0  0  0  0  0  0  0  0  0  0  0  0
  189.8690  178.2190  145.0920 C   0  0  0  0  0  2  0  0  0  0  0  0
  189.6650  176.7650  144.6730 C   0  0  0  0  0  2  0  0  0  0  0  0
  191.2810  176.7400  146.6340 C   0  0  0  0  0  0  0  0  0  0  0  0
  191.6980  177.1360  147.9020 O   0  0  0  0  0  1  0  0  0  0  0  0
  192.0490  176.0440  145.9190 O   0  0  0  0  0  0  0  0  0  0  0  0
  1 21  1  0  0  0  0
  2  4  1  0  0  0  0
  3  9  2  0  0  0  0
  3  8  1  0  0  0  0
  4  7  1  0  0  0  0
  5  6  1  0  0  0  0
  6  7  2  0  0  0  0
  7  1  1  0  0  0  0
  8  5  2  0  0  0  0
  8  4  1  0  0  0  0
  9  2  1  0  0  0  0
 10 12  1  0  0  0  0
 11 13  2  0  0  0  0
 11 10  1  0  0  0  0
 12 14  1  0  0  0  0
 12 18  2  0  0  0  0
 15 11  1  0  0  0  0
 15  9  1  1  0  0  0
 16 19  1  0  0  0  0
 17 13  1  0  0  0  0
 19 15  1  0  0  0  0
 19 17  2  0  0  0  0
 20 26  2  0  0  0  0
 21 24  2  0  0  0  0
 21 23  1  0  0  0  0
 22 25  2  0  0  0  0
 23 20  1  0  0  0  0
 24 22  1  0  0  0  0
 25 26  1  0  0  0  0
 25 27  1  0  0  0  0
 27 28  1  0  0  0  0
 28 29  1  0  0  0  0
 30 29  1  0  0  0  0
 31 34  1  0  0  0  0
 31 30  1  0  0  0  0
 32 31  1  0  0  0  0
 33 32  1  0  0  0  0
 33 31  1  0  0  0  0
 34 35  1  0  0  0  0
 36 34  2  0  0  0  0
M  END
>  <MODEL>
6

>  <REMARK>
 VINA RESULT:      -8.2      3.045      9.673
  Name = 
  9 active torsions:
  status: ('A' for Active; 'I' for Inactive)
    1  A    between atoms: C_2  and  C_5
    2  A    between atoms: C_2  and  C_9
    3  A    between atoms: C_5  and  C_24
    4  A    between atoms: O_7  and  C_13
    5  A    between atoms: O_7  and  C_26
    6  A    between atoms: C_9  and  C_10
    7  A    between atoms: N_12  and  C_24
    8  A    between atoms: N_12  and  C_25
    9  A    between atoms: C_29  and  C_30
                            x       y       z     vdW  Elec       q    Type
                         _______ _______ _______ _____ _____    ______ ____

>  <TORSDO>
F 9

$$$$
=
 OpenBabel11062416023D

 36 40  0  0  1  0  0  0  0  0999 V2000
  188.9610  176.3900  143.8110 O   0  0  0  0  0  0  0  0  0  0  0  0
  188.9410  177.4480  140.7750 C   0  0  0  0  0  2  0  0  0  0  0  0
  191.1210  177.5310  139.8770 C   0  0  0  0  0  3  0  0  0  0  0  0
  189.9240  177.4610  141.8370 N   0  0  0  0  0  0  0  0  0  0  0  0
  192.0550  176.8150  142.0890 N   0  0  0  0  0  0  0  0  0  0  0  0
  191.3470  176.4130  143.1740 C   0  0  0  0  0  3  0  0  0  0  0  0
  190.0230  176.7770  142.9860 C   0  0  0  0  0  0  0  0  0  0  0  0
  191.1430  177.4500  141.3240 C   0  0  0  0  0  0  0  0  0  0  0  0
  189.8200  177.5930  139.5500 C   0  0  0  0  0  0  0  0  0  0  0  0
  186.8910  178.3880  138.5120 N   0  0  0  0  0  2  0  0  0  0  0  0
  187.8250  177.3930  138.0760 C   0  0  0  0  0  0  0  0  0  0  0  0
  185.4710  178.2230  138.5430 C   0  0  0  0  0  0  0  0  0  0  0  0
  187.4720  176.2970  137.4930 N   0  0  0  0  0  0  0  0  0  0  0  0
  184.6130  179.3700  138.9460 C   0  0  0  0  0  1  0  0  0  0  0  0
  189.3140  177.5540  138.1290 C   0  0  2  0  0  3  0  0  0  0  0  0
  191.0400  175.8340  137.0750 C   0  0  0  0  0  1  0  0  0  0  0  0
  188.6150  175.6000  137.1020 N   0  0  0  0  0  0  0  0  0  0  0  0
  184.9390  177.1130  138.2790 O   0  0  0  0  0  0  0  0  0  0  0  0
  189.6650  176.2670  137.4460 C   0  0  0  0  0  0  0  0  0  0  0  0
  187.1910  177.5900  146.6530 C   0  0  0  0  0  3  0  0  0  0  0  0
  187.9860  177.2470  144.3320 C   0  0  0  0  0  0  0  0  0  0  0  0
  185.6670  178.1610  144.0550 C   0  0  0  0  0  3  0  0  0  0  0  0
  188.1990  177.9760  145.6230 C   0  0  0  0  0  2  0  0  0  0  0  0
  186.8590  177.3970  143.6360 C   0  0  0  0  0  3  0  0  0  0  0  0
  185.2390  178.3930  145.3100 C   0  0  0  0  0  0  0  0  0  0  0  0
  185.8860  177.8240  146.5070 C   0  0  0  0  0  3  0  0  0  0  0  0
  183.9990  179.0760  145.5170 N   0  0  0  0  0  2  0  0  0  0  0  0
  183.2460  179.7220  144.4500 C   0  0  0  0  0  2  0  0  0  0  0  0
  182.2150  178.7650  143.8860 C   0  0  0  0  0  2  0  0  0  0  0  0
  182.3180  178.6720  142.3650 C   0  0  0  0  0  2  0  0  0  0  0  0
  180.9680  178.8790  141.6820 C   0  0  0  0  0  0  0  0  0  0  0  0
  180.6050  177.9200  140.5700 C   0  0  0  0  0  2  0  0  0  0  0  0
  181.0920  179.3290  140.2400 C   0  0  0  0  0  2  0  0  0  0  0  0
  179.8210  179.4910  142.4350 C   0  0  0  0  0  0  0  0  0  0  0  0
  179.7190  180.8730  142.5680 O   0  0  0  0  0  0  0  0  0  0  0  0
  178.9310  178.7520  142.9330 O   0  0  0  0  0  1  0  0  0  0  0  0
  1 21  1  0  0  0  0
  2  4  1  0  0  0  0
  3  8  1  0  0  0  0
  4  7  1  0  0  0  0
  5  6  1  0  0  0  0
  7  6  2  0  0  0  0
  7  1  1  0  0  0  0
  8  4  1  0  0  0  0
  8  5  2  0  0  0  0
  9  3  2  0  0  0  0
  9  2  1  0  0  0  0
 10 12  1  0  0  0  0
 11 15  1  0  0  0  0
 11 10  1  0  0  0  0
 12 14  1  0  0  0  0
 13 11  2  0  0  0  0
 15  9  1  1  0  0  0
 16 19  1  0  0  0  0
 17 19  2  0  0  0  0
 17 13  1  0  0  0  0
 18 12  2  0  0  0  0
 19 15  1  0  0  0  0
 21 23  1  0  0  0  0
 22 25  2  0  0  0  0
 23 20  1  0  0  0  0
 24 22  1  0  0  0  0
 24 21  2  0  0  0  0
 25 27  1  0  0  0  0
 25 26  1  0  0  0  0
 26 20  2  0  0  0  0
 28 27  1  0  0  0  0
 29 28  1  0  0  0  0
 30 29  1  0  0  0  0
 31 30  1  0  0  0  0
 31 34  1  0  0  0  0
 32 31  1  0  0  0  0
 33 32  1  0  0  0  0
 33 31  1  0  0  0  0
 34 35  2  0  0  0  0
 34 36  1  0  0  0  0
M  END
>  <MODEL>
7

>  <REMARK>
 VINA RESULT:      -8.1      2.356      6.442
  Name = 
  9 active torsions:
  status: ('A' for Active; 'I' for Inactive)
    1  A    between atoms: C_2  and  C_5
    2  A    between atoms: C_2  and  C_9
    3  A    between atoms: C_5  and  C_24
    4  A    between atoms: O_7  and  C_13
    5  A    between atoms: O_7  and  C_26
    6  A    between atoms: C_9  and  C_10
    7  A    between atoms: N_12  and  C_24
    8  A    between atoms: N_12  and  C_25
    9  A    between atoms: C_29  and  C_30
                            x       y       z     vdW  Elec       q    Type
                         _______ _______ _______ _____ _____    ______ ____

>  <TORSDO>
F 9

$$$$
=
 OpenBabel11062416023D

 36 40  0  0  1  0  0  0  0  0999 V2000
  190.7790  176.3720  141.4680 O   0  0  0  0  0  0  0  0  0  0  0  0
  188.9200  176.4110  144.0900 C   0  0  0  0  0  2  0  0  0  0  0  0
  189.4220  178.2540  145.4740 C   0  0  0  0  0  3  0  0  0  0  0  0
  190.2360  176.9290  143.7840 N   0  0  0  0  0  0  0  0  0  0  0  0
  191.2800  178.9060  143.9260 N   0  0  0  0  0  0  0  0  0  0  0  0
  191.5610  178.3520  142.7200 C   0  0  0  0  0  3  0  0  0  0  0  0
  190.8730  177.1520  142.6260 C   0  0  0  0  0  0  0  0  0  0  0  0
  190.4860  177.9950  144.5250 C   0  0  0  0  0  0  0  0  0  0  0  0
  188.5200  177.2810  145.2640 C   0  0  0  0  0  0  0  0  0  0  0  0
  185.6580  177.8780  143.9450 N   0  0  0  0  0  2  0  0  0  0  0  0
  186.1750  178.1130  145.2600 C   0  0  0  0  0  0  0  0  0  0  0  0
  184.7660  178.7490  143.2450 C   0  0  0  0  0  0  0  0  0  0  0  0
  185.7480  179.0560  146.0300 N   0  0  0  0  0  0  0  0  0  0  0  0
  184.2450  178.3420  141.9120 C   0  0  0  0  0  1  0  0  0  0  0  0
  187.1730  177.2290  145.9430 C   0  0  2  0  0  3  0  0  0  0  0  0
  187.9260  177.5060  148.4740 C   0  0  0  0  0  1  0  0  0  0  0  0
  186.3740  178.9500  147.2720 N   0  0  0  0  0  0  0  0  0  0  0  0
  184.4500  179.8730  143.7170 O   0  0  0  0  0  0  0  0  0  0  0  0
  187.1850  177.9450  147.2600 C   0  0  0  0  0  0  0  0  0  0  0  0
  190.6340  177.1410  137.9980 C   0  0  0  0  0  3  0  0  0  0  0  0
  189.9990  176.6740  140.3470 C   0  0  0  0  0  0  0  0  0  0  0  0
  188.0890  178.0320  139.4570 C   0  0  0  0  0  3  0  0  0  0  0  0
  190.3060  176.0880  139.0030 C   0  0  0  0  0  2  0  0  0  0  0  0
  188.9670  177.5000  140.5180 C   0  0  0  0  0  3  0  0  0  0  0  0
  188.4010  178.2570  138.1660 C   0  0  0  0  0  0  0  0  0  0  0  0
  189.7550  178.0680  137.6140 C   0  0  0  0  0  3  0  0  0  0  0  0
  187.4390  178.8730  137.3060 N   0  0  0  0  0  2  0  0  0  0  0  0
  186.9940  178.2930  136.0450 C   0  0  0  0  0  2  0  0  0  0  0  0
  185.7460  177.4600  136.2670 C   0  0  0  0  0  2  0  0  0  0  0  0
  186.0790  176.1310  136.9410 C   0  0  0  0  0  2  0  0  0  0  0  0
  184.8750  175.1930  136.9920 C   0  0  0  0  0  0  0  0  0  0  0  0
  183.5630  175.7290  136.4600 C   0  0  0  0  0  2  0  0  0  0  0  0
  183.8050  175.6480  137.9650 C   0  0  0  0  0  2  0  0  0  0  0  0
  185.0660  173.7060  136.9180 C   0  0  0  0  0  0  0  0  0  0  0  0
  185.6680  173.0160  137.9670 O   0  0  0  0  0  1  0  0  0  0  0  0
  184.6610  173.0700  135.9090 O   0  0  0  0  0  0  0  0  0  0  0  0
  1  7  1  0  0  0  0
  2  9  1  0  0  0  0
  4  2  1  0  0  0  0
  4  8  1  0  0  0  0
  5  8  2  0  0  0  0
  6  5  1  0  0  0  0
  7  6  2  0  0  0  0
  7  4  1  0  0  0  0
  8  3  1  0  0  0  0
  9  3  2  0  0  0  0
 10 11  1  0  0  0  0
 11 15  1  0  0  0  0
 11 13  2  0  0  0  0
 12 18  2  0  0  0  0
 12 10  1  0  0  0  0
 13 17  1  0  0  0  0
 14 12  1  0  0  0  0
 15  9  1  6  0  0  0
 15 19  1  0  0  0  0
 19 17  2  0  0  0  0
 19 16  1  0  0  0  0
 20 23  1  0  0  0  0
 21 24  2  0  0  0  0
 21  1  1  0  0  0  0
 22 24  1  0  0  0  0
 23 21  1  0  0  0  0
 25 22  2  0  0  0  0
 26 20  2  0  0  0  0
 26 25  1  0  0  0  0
 27 25  1  0  0  0  0
 28 29  1  0  0  0  0
 28 27  1  0  0  0  0
 29 30  1  0  0  0  0
 30 31  1  0  0  0  0
 31 33  1  0  0  0  0
 32 31  1  0  0  0  0
 32 33  1  0  0  0  0
 34 31  1  0  0  0  0
 34 35  1  0  0  0  0
 36 34  2  0  0  0  0
M  END
>  <MODEL>
8

>  <REMARK>
 VINA RESULT:      -7.9      2.071      2.381
  Name = 
  9 active torsions:
  status: ('A' for Active; 'I' for Inactive)
    1  A    between atoms: C_2  and  C_5
    2  A    between atoms: C_2  and  C_9
    3  A    between atoms: C_5  and  C_24
    4  A    between atoms: O_7  and  C_13
    5  A    between atoms: O_7  and  C_26
    6  A    between atoms: C_9  and  C_10
    7  A    between atoms: N_12  and  C_24
    8  A    between atoms: N_12  and  C_25
    9  A    between atoms: C_29  and  C_30
                            x       y       z     vdW  Elec       q    Type
                         _______ _______ _______ _____ _____    ______ ____

>  <TORSDO>
F 9

$$$$
=
 OpenBabel11062416023D

 36 40  0  0  1  0  0  0  0  0999 V2000
  181.5410  178.4620  143.4150 O   0  0  0  0  0  0  0  0  0  0  0  0
  181.3680  178.8530  140.2280 C   0  0  0  0  0  2  0  0  0  0  0  0
  180.0510  180.7250  139.6620 C   0  0  0  0  0  3  0  0  0  0  0  0
  180.5090  179.2200  141.3340 N   0  0  0  0  0  0  0  0  0  0  0  0
  179.5330  181.0910  142.0850 N   0  0  0  0  0  0  0  0  0  0  0  0
  180.0820  180.4340  143.1380 C   0  0  0  0  0  3  0  0  0  0  0  0
  180.7220  179.3040  142.6550 C   0  0  0  0  0  0  0  0  0  0  0  0
  179.8150  180.3030  141.0280 C   0  0  0  0  0  0  0  0  0  0  0  0
  180.9220  179.8330  139.1630 C   0  0  0  0  0  0  0  0  0  0  0  0
  181.3220  182.5120  137.4470 N   0  0  0  0  0  2  0  0  0  0  0  0
  181.0520  181.1600  137.0620 C   0  0  0  0  0  0  0  0  0  0  0  0
  180.7870  183.6720  136.8030 C   0  0  0  0  0  0  0  0  0  0  0  0
  180.4320  180.8420  135.9760 N   0  0  0  0  0  0  0  0  0  0  0  0
  181.2150  185.0220  137.2600 C   0  0  0  0  0  1  0  0  0  0  0  0
  181.5560  179.9570  137.8000 C   0  0  2  0  0  3  0  0  0  0  0  0
  181.2890  177.4590  136.9420 C   0  0  0  0  0  1  0  0  0  0  0  0
  180.4250  179.4540  135.8420 N   0  0  0  0  0  0  0  0  0  0  0  0
  179.9260  183.5700  135.8890 O   0  0  0  0  0  0  0  0  0  0  0  0
  181.0380  178.9230  136.8470 C   0  0  0  0  0  0  0  0  0  0  0  0
  185.0220  178.1170  142.7670 C   0  0  0  0  0  3  0  0  0  0  0  0
  182.8570  178.7410  143.7980 C   0  0  0  0  0  0  0  0  0  0  0  0
  184.4880  178.8250  145.7020 C   0  0  0  0  0  3  0  0  0  0  0  0
  183.9030  179.1040  142.7890 C   0  0  0  0  0  2  0  0  0  0  0  0
  183.1490  178.6760  145.0980 C   0  0  0  0  0  3  0  0  0  0  0  0
  185.6780  178.5300  145.1460 C   0  0  0  0  0  0  0  0  0  0  0  0
  185.8210  177.9110  143.8150 C   0  0  0  0  0  3  0  0  0  0  0  0
  186.8700  178.6500  145.9270 N   0  0  0  0  0  2  0  0  0  0  0  0
  187.5370  177.5200  146.5610 C   0  0  0  0  0  2  0  0  0  0  0  0
  189.0290  177.5830  146.3010 C   0  0  0  0  0  2  0  0  0  0  0  0
  189.3260  178.1070  144.8970 C   0  0  0  0  0  2  0  0  0  0  0  0
  190.2930  177.2020  144.1370 C   0  0  0  0  0  0  0  0  0  0  0  0
  191.5120  176.7130  144.8880 C   0  0  0  0  0  2  0  0  0  0  0  0
  191.6390  177.8520  143.8790 C   0  0  0  0  0  2  0  0  0  0  0  0
  189.7970  176.3220  143.0270 C   0  0  0  0  0  0  0  0  0  0  0  0
  188.8000  176.7650  142.1620 O   0  0  0  0  0  0  0  0  0  0  0  0
  190.2990  175.1790  142.8590 O   0  0  0  0  0  1  0  0  0  0  0  0
  1 21  1  0  0  0  0
  2  4  1  0  0  0  0
  3  8  1  0  0  0  0
  4  7  1  0  0  0  0
  5  6  1  0  0  0  0
  7  6  2  0  0  0  0
  7  1  1  0  0  0  0
  8  4  1  0  0  0  0
  8  5  2  0  0  0  0
  9  3  2  0  0  0  0
  9  2  1  0  0  0  0
 11 10  1  0  0  0  0
 11 15  1  0  0  0  0
 12 14  1  0  0  0  0
 12 10  1  0  0  0  0
 13 11  2  0  0  0  0
 15  9  1  1  0  0  0
 17 13  1  0  0  0  0
 17 19  2  0  0  0  0
 18 12  2  0  0  0  0
 19 16  1  0  0  0  0
 19 15  1  0  0  0  0
 20 23  1  0  0  0  0
 20 26  2  0  0  0  0
 21 24  2  0  0  0  0
 23 21  1  0  0  0  0
 24 22  1  0  0  0  0
 25 22  2  0  0  0  0
 25 27  1  0  0  0  0
 26 25  1  0  0  0  0
 27 28  1  0  0  0  0
 29 28  1  0  0  0  0
 30 29  1  0  0  0  0
 31 32  1  0  0  0  0
 31 30  1  0  0  0  0
 33 31  1  0  0  0  0
 33 32  1  0  0  0  0
 34 31  1  0  0  0  0
 35 34  2  0  0  0  0
 36 34  1  0  0  0  0
M  END
>  <MODEL>
9

>  <REMARK>
 VINA RESULT:      -7.9      3.627      9.896
  Name = 
  9 active torsions:
  status: ('A' for Active; 'I' for Inactive)
    1  A    between atoms: C_2  and  C_5
    2  A    between atoms: C_2  and  C_9
    3  A    between atoms: C_5  and  C_24
    4  A    between atoms: O_7  and  C_13
    5  A    between atoms: O_7  and  C_26
    6  A    between atoms: C_9  and  C_10
    7  A    between atoms: N_12  and  C_24
    8  A    between atoms: N_12  and  C_25
    9  A    between atoms: C_29  and  C_30
                            x       y       z     vdW  Elec       q    Type
                         _______ _______ _______ _____ _____    ______ ____

>  <TORSDO>
F 9

$$$$
