=
 OpenBabel11062414443D

 27 28  0  0  1  0  0  0  0  0999 V2000
  188.7600  177.8930  142.6740 C   0  0  2  0  0  3  0  0  0  0  0  0
  187.4670  177.8600  147.4850 C   0  0  0  0  0  3  0  0  0  0  0  0
  185.8050  178.1620  145.7780 C   0  0  0  0  0  0  0  0  0  0  0  0
  187.0640  177.9770  146.0750 C   0  0  0  0  0  0  0  0  0  0  0  0
  189.8020  177.5820  146.7710 C   0  0  0  0  0  3  0  0  0  0  0  0
  188.1080  177.8800  145.0300 C   0  0  0  0  0  0  0  0  0  0  0  0
  189.5060  177.6780  145.4710 C   0  0  0  0  0  3  0  0  0  0  0  0
  184.6130  178.3370  145.4950 O   0  0  0  0  0  0  0  0  0  0  0  0
  187.7960  177.9810  143.7700 N   0  0  0  0  0  0  0  0  0  0  0  0
  188.7520  177.6740  147.8090 C   0  0  0  0  0  3  0  0  0  0  0  0
  186.8870  178.9140  141.5630 O   0  0  0  0  0  1  0  0  0  0  0  0
  188.2620  178.6920  141.4640 C   0  0  2  0  0  3  0  0  0  0  0  0
  188.5490  177.9390  140.1730 C   0  0  0  0  0  2  0  0  0  0  0  0
  188.0200  178.6840  139.0350 N   0  0  0  0  0  0  0  0  0  0  0  0
  188.1080  176.4680  138.0370 O   0  0  0  0  0  1  0  0  0  0  0  0
  187.9200  177.8390  137.8230 C   0  0  2  0  0  0  0  0  0  0  0  0
  189.0900  178.6810  138.0130 C   0  0  0  0  0  2  0  0  0  0  0  0
  187.3090  178.3980  135.5530 F   0  0  0  0  0  0  0  0  0  0  0  0
  186.8270  178.2790  136.8470 C   0  0  1  0  0  3  0  0  0  0  0  0
  185.6730  177.3340  136.8790 C   0  0  0  0  0  0  0  0  0  0  0  0
  185.4720  176.4070  135.8170 N   0  0  0  0  0  1  0  0  0  0  0  0
  184.8880  177.3390  137.8620 O   0  0  0  0  0  0  0  0  0  0  0  0
  189.0520  176.4160  142.3560 C   0  0  2  0  0  3  0  0  0  0  0  0
  188.3120  175.5600  143.1750 O   0  0  0  0  0  1  0  0  0  0  0  0
  190.5390  176.0590  142.3720 C   0  0  0  0  0  3  0  0  0  0  0  0
  190.8080  175.2090  143.4440 O   0  0  0  0  0  1  0  0  0  0  0  0
  191.3280  177.2070  142.4790 O   0  0  0  0  0  1  0  0  0  0  0  0
  1  9  1  1  0  0  0
  2 10  2  0  0  0  0
  3  4  2  0  0  0  0
  4  2  1  0  0  0  0
  5 10  1  0  0  0  0
  6  7  1  0  0  0  0
  6  4  1  0  0  0  0
  7  5  2  0  0  0  0
  8  3  2  0  0  0  0
  9  6  2  0  0  0  0
 12 11  1  1  0  0  0
 12  1  1  0  0  0  0
 13 12  1  0  0  0  0
 14 13  1  0  0  0  0
 16 17  1  0  0  0  0
 16 15  1  1  0  0  0
 16 14  1  0  0  0  0
 17 14  1  0  0  0  0
 19 18  1  6  0  0  0
 19 20  1  0  0  0  0
 19 16  1  0  0  0  0
 20 22  2  0  0  0  0
 21 20  1  0  0  0  0
 23 25  1  0  0  0  0
 23  1  1  0  0  0  0
 23 24  1  1  0  0  0
 25 27  1  0  0  0  0
 25 26  1  0  0  0  0
M  END
>  <MODEL>
1

>  <REMARK>
 VINA RESULT:      -7.2      0.000      0.000
  Name = 
  8 active torsions:
  status: ('A' for Active; 'I' for Inactive)
    1  A    between atoms: C_1  and  C_26
    2  A    between atoms: C_5  and  C_8
    3  A    between atoms: C_5  and  C_11
    4  A    between atoms: C_7  and  C_11
    5  A    between atoms: C_7  and  C_14
    6  A    between atoms: C_8  and  N_10
    7  A    between atoms: C_11  and  N_24
    8  A    between atoms: C_20  and  C_26
                            x       y       z     vdW  Elec       q    Type
                         _______ _______ _______ _____ _____    ______ ____

>  <TORSDO>
F 8

$$$$
=
 OpenBabel11062414443D

 27 28  0  0  1  0  0  0  0  0999 V2000
  187.2570  177.5290  142.1470 C   0  0  2  0  0  3  0  0  0  0  0  0
  183.3010  179.1540  144.7030 C   0  0  0  0  0  3  0  0  0  0  0  0
  185.4680  179.0640  145.7370 C   0  0  0  0  0  0  0  0  0  0  0  0
  184.7420  178.8570  144.6700 C   0  0  0  0  0  0  0  0  0  0  0  0
  183.1160  178.4120  142.3680 C   0  0  0  0  0  3  0  0  0  0  0  0
  185.3270  178.3290  143.4170 C   0  0  0  0  0  0  0  0  0  0  0  0
  184.4180  178.1220  142.2670 C   0  0  0  0  0  3  0  0  0  0  0  0
  186.1560  179.2600  146.7460 O   0  0  0  0  0  0  0  0  0  0  0  0
  186.5960  178.0490  143.3430 N   0  0  0  0  0  0  0  0  0  0  0  0
  182.5410  178.9450  143.6210 C   0  0  0  0  0  3  0  0  0  0  0  0
  188.0530  175.7800  143.5940 O   0  0  0  0  0  1  0  0  0  0  0  0
  188.4250  176.6170  142.5410 C   0  0  2  0  0  3  0  0  0  0  0  0
  189.6270  177.4470  142.9710 C   0  0  0  0  0  2  0  0  0  0  0  0
  190.3400  176.7680  144.0480 N   0  0  0  0  0  0  0  0  0  0  0  0
  189.5980  178.7400  145.2620 O   0  0  0  0  0  1  0  0  0  0  0  0
  190.4090  177.5980  145.2720 C   0  0  2  0  0  0  0  0  0  0  0  0
  191.5260  177.6020  144.3410 C   0  0  0  0  0  2  0  0  0  0  0  0
  191.7840  176.8450  147.1090 F   0  0  0  0  0  0  0  0  0  0  0  0
  190.5110  176.7900  146.5660 C   0  0  1  0  0  3  0  0  0  0  0  0
  189.5080  177.2580  147.5660 C   0  0  0  0  0  0  0  0  0  0  0  0
  188.1820  176.7380  147.5560 N   0  0  0  0  0  1  0  0  0  0  0  0
  189.8420  178.1000  148.4400 O   0  0  0  0  0  0  0  0  0  0  0  0
  187.6700  178.6950  141.2320 C   0  0  2  0  0  3  0  0  0  0  0  0
  186.7840  179.7700  141.3440 O   0  0  0  0  0  1  0  0  0  0  0  0
  187.8830  178.2940  139.7720 C   0  0  0  0  0  3  0  0  0  0  0  0
  188.9230  179.0430  139.2250 O   0  0  0  0  0  1  0  0  0  0  0  0
  186.7210  178.4960  139.0230 O   0  0  0  0  0  1  0  0  0  0  0  0
  1 12  1  0  0  0  0
  1  9  1  1  0  0  0
  3  8  2  0  0  0  0
  4  2  1  0  0  0  0
  4  3  2  0  0  0  0
  5 10  1  0  0  0  0
  6  4  1  0  0  0  0
  7  5  2  0  0  0  0
  7  6  1  0  0  0  0
  9  6  2  0  0  0  0
 10  2  2  0  0  0  0
 12 13  1  0  0  0  0
 12 11  1  1  0  0  0
 13 14  1  0  0  0  0
 14 17  1  0  0  0  0
 14 16  1  0  0  0  0
 16 15  1  1  0  0  0
 16 19  1  0  0  0  0
 17 16  1  0  0  0  0
 19 18  1  1  0  0  0
 19 20  1  0  0  0  0
 20 22  2  0  0  0  0
 21 20  1  0  0  0  0
 23 24  1  6  0  0  0
 23  1  1  0  0  0  0
 25 23  1  0  0  0  0
 26 25  1  0  0  0  0
 27 25  1  0  0  0  0
M  END
>  <MODEL>
2

>  <REMARK>
 VINA RESULT:      -7.2      3.521      6.793
  Name = 
  8 active torsions:
  status: ('A' for Active; 'I' for Inactive)
    1  A    between atoms: C_1  and  C_26
    2  A    between atoms: C_5  and  C_8
    3  A    between atoms: C_5  and  C_11
    4  A    between atoms: C_7  and  C_11
    5  A    between atoms: C_7  and  C_14
    6  A    between atoms: C_8  and  N_10
    7  A    between atoms: C_11  and  N_24
    8  A    between atoms: C_20  and  C_26
                            x       y       z     vdW  Elec       q    Type
                         _______ _______ _______ _____ _____    ______ ____

>  <TORSDO>
F 8

$$$$
=
 OpenBabel11062414443D

 27 28  0  0  1  0  0  0  0  0999 V2000
  188.5190  177.7640  143.9130 C   0  0  2  0  0  3  0  0  0  0  0  0
  183.6430  178.7860  143.8880 C   0  0  0  0  0  3  0  0  0  0  0  0
  184.8190  178.5030  145.9640 C   0  0  0  0  0  0  0  0  0  0  0  0
  184.8670  178.5160  144.6580 C   0  0  0  0  0  0  0  0  0  0  0  0
  184.9240  178.5460  141.8060 C   0  0  0  0  0  3  0  0  0  0  0  0
  186.1260  178.2650  143.9200 C   0  0  0  0  0  0  0  0  0  0  0  0
  186.0730  178.2940  142.4410 C   0  0  0  0  0  3  0  0  0  0  0  0
  184.7740  178.4900  147.2000 O   0  0  0  0  0  0  0  0  0  0  0  0
  187.2320  178.0180  144.5600 N   0  0  0  0  0  0  0  0  0  0  0  0
  183.6720  178.8010  142.5500 C   0  0  0  0  0  3  0  0  0  0  0  0
  188.3360  175.4870  143.1570 O   0  0  0  0  0  1  0  0  0  0  0  0
  188.3350  176.8140  142.7230 C   0  0  2  0  0  3  0  0  0  0  0  0
  189.4570  177.0030  141.7120 C   0  0  0  0  0  2  0  0  0  0  0  0
  188.9130  176.9990  140.3590 N   0  0  0  0  0  0  0  0  0  0  0  0
  191.2260  177.5430  139.8410 O   0  0  0  0  0  1  0  0  0  0  0  0
  189.9140  177.4400  139.3610 C   0  0  2  0  0  0  0  0  0  0  0  0
  188.9630  178.4030  139.8940 C   0  0  0  0  0  2  0  0  0  0  0  0
  189.5410  177.8590  137.0110 F   0  0  0  0  0  0  0  0  0  0  0  0
  189.6950  176.8620  137.9620 C   0  0  1  0  0  3  0  0  0  0  0  0
  190.8180  175.9580  137.5780 C   0  0  0  0  0  0  0  0  0  0  0  0
  190.8440  174.6080  138.0300 N   0  0  0  0  0  1  0  0  0  0  0  0
  191.7360  176.3840  136.8300 O   0  0  0  0  0  0  0  0  0  0  0  0
  189.5330  177.2560  144.9530 C   0  0  2  0  0  3  0  0  0  0  0  0
  189.0120  177.3200  146.2470 O   0  0  0  0  0  1  0  0  0  0  0  0
  190.9020  177.9310  144.8660 C   0  0  0  0  0  3  0  0  0  0  0  0
  190.7790  179.1640  144.2280 O   0  0  0  0  0  1  0  0  0  0  0  0
  191.8100  177.1330  144.1660 O   0  0  0  0  0  1  0  0  0  0  0  0
  1  9  1  1  0  0  0
  1 23  1  0  0  0  0
  2  4  1  0  0  0  0
  3  8  2  0  0  0  0
  4  3  2  0  0  0  0
  5  7  2  0  0  0  0
  5 10  1  0  0  0  0
  6  9  2  0  0  0  0
  6  4  1  0  0  0  0
  7  6  1  0  0  0  0
 10  2  2  0  0  0  0
 12 11  1  1  0  0  0
 12  1  1  0  0  0  0
 13 12  1  0  0  0  0
 14 13  1  0  0  0  0
 16 15  1  1  0  0  0
 16 17  1  0  0  0  0
 16 14  1  0  0  0  0
 17 14  1  0  0  0  0
 19 18  1  6  0  0  0
 19 16  1  0  0  0  0
 20 19  1  0  0  0  0
 20 21  1  0  0  0  0
 22 20  2  0  0  0  0
 23 24  1  1  0  0  0
 25 23  1  0  0  0  0
 26 25  1  0  0  0  0
 27 25  1  0  0  0  0
M  END
>  <MODEL>
3

>  <REMARK>
 VINA RESULT:      -7.1      2.770      3.905
  Name = 
  8 active torsions:
  status: ('A' for Active; 'I' for Inactive)
    1  A    between atoms: C_1  and  C_26
    2  A    between atoms: C_5  and  C_8
    3  A    between atoms: C_5  and  C_11
    4  A    between atoms: C_7  and  C_11
    5  A    between atoms: C_7  and  C_14
    6  A    between atoms: C_8  and  N_10
    7  A    between atoms: C_11  and  N_24
    8  A    between atoms: C_20  and  C_26
                            x       y       z     vdW  Elec       q    Type
                         _______ _______ _______ _____ _____    ______ ____

>  <TORSDO>
F 8

$$$$
=
 OpenBabel11062414443D

 27 28  0  0  1  0  0  0  0  0999 V2000
  190.0490  177.9190  145.1430 C   0  0  2  0  0  3  0  0  0  0  0  0
  185.1460  178.3220  145.9290 C   0  0  0  0  0  3  0  0  0  0  0  0
  185.9980  177.9170  143.7200 C   0  0  0  0  0  0  0  0  0  0  0  0
  186.2550  178.1080  144.9870 C   0  0  0  0  0  0  0  0  0  0  0  0
  186.7710  178.5360  147.7600 C   0  0  0  0  0  3  0  0  0  0  0  0
  187.6400  178.1150  145.5100 C   0  0  0  0  0  0  0  0  0  0  0  0
  187.8260  178.3460  146.9600 C   0  0  0  0  0  3  0  0  0  0  0  0
  185.7550  177.7370  142.5200 O   0  0  0  0  0  0  0  0  0  0  0  0
  188.6520  177.9320  144.7120 N   0  0  0  0  0  0  0  0  0  0  0  0
  185.3900  178.5220  147.2290 C   0  0  0  0  0  3  0  0  0  0  0  0
  191.6340  179.5350  144.3280 O   0  0  0  0  0  1  0  0  0  0  0  0
  190.9630  178.3570  143.9920 C   0  0  2  0  0  3  0  0  0  0  0  0
  190.1510  178.5960  142.7270 C   0  0  0  0  0  2  0  0  0  0  0  0
  190.7330  177.8520  141.6160 N   0  0  0  0  0  0  0  0  0  0  0  0
  188.4370  177.9880  140.8270 O   0  0  0  0  0  1  0  0  0  0  0  0
  189.7040  177.4190  140.6440 C   0  0  2  0  0  0  0  0  0  0  0  0
  190.1440  176.4960  141.6780 C   0  0  0  0  0  2  0  0  0  0  0  0
  190.6140  175.9490  138.9570 F   0  0  0  0  0  0  0  0  0  0  0  0
  190.2270  177.2540  139.2160 C   0  0  1  0  0  3  0  0  0  0  0  0
  189.2040  177.6900  138.2210 C   0  0  0  0  0  0  0  0  0  0  0  0
  189.0920  179.0630  137.8570 N   0  0  0  0  0  1  0  0  0  0  0  0
  188.4540  176.8370  137.6810 O   0  0  0  0  0  0  0  0  0  0  0  0
  190.4040  176.5360  145.7160 C   0  0  2  0  0  3  0  0  0  0  0  0
  190.0660  176.4410  147.0690 O   0  0  0  0  0  1  0  0  0  0  0  0
  191.8530  176.1150  145.4700 C   0  0  0  0  0  3  0  0  0  0  0  0
  191.9080  175.2160  144.4060 O   0  0  0  0  0  1  0  0  0  0  0  0
  192.4020  175.5220  146.6090 O   0  0  0  0  0  1  0  0  0  0  0  0
  1  9  1  6  0  0  0
  1 23  1  0  0  0  0
  2 10  2  0  0  0  0
  3  4  2  0  0  0  0
  4  6  1  0  0  0  0
  4  2  1  0  0  0  0
  6  7  1  0  0  0  0
  7  5  2  0  0  0  0
  8  3  2  0  0  0  0
  9  6  2  0  0  0  0
 10  5  1  0  0  0  0
 12 11  1  1  0  0  0
 12  1  1  0  0  0  0
 13 12  1  0  0  0  0
 14 17  1  0  0  0  0
 14 13  1  0  0  0  0
 16 15  1  1  0  0  0
 16 14  1  0  0  0  0
 16 17  1  0  0  0  0
 19 18  1  6  0  0  0
 19 16  1  0  0  0  0
 20 19  1  0  0  0  0
 21 20  1  0  0  0  0
 22 20  2  0  0  0  0
 23 24  1  1  0  0  0
 25 23  1  0  0  0  0
 25 27  1  0  0  0  0
 26 25  1  0  0  0  0
M  END
>  <MODEL>
4

>  <REMARK>
 VINA RESULT:      -7.0      2.356      3.539
  Name = 
  8 active torsions:
  status: ('A' for Active; 'I' for Inactive)
    1  A    between atoms: C_1  and  C_26
    2  A    between atoms: C_5  and  C_8
    3  A    between atoms: C_5  and  C_11
    4  A    between atoms: C_7  and  C_11
    5  A    between atoms: C_7  and  C_14
    6  A    between atoms: C_8  and  N_10
    7  A    between atoms: C_11  and  N_24
    8  A    between atoms: C_20  and  C_26
                            x       y       z     vdW  Elec       q    Type
                         _______ _______ _______ _____ _____    ______ ____

>  <TORSDO>
F 8

$$$$
=
 OpenBabel11062414443D

 27 28  0  0  1  0  0  0  0  0999 V2000
  189.1700  176.9190  143.2130 C   0  0  2  0  0  3  0  0  0  0  0  0
  188.7540  177.6050  148.1300 C   0  0  0  0  0  3  0  0  0  0  0  0
  190.8620  176.9820  147.1590 C   0  0  0  0  0  0  0  0  0  0  0  0
  189.5990  177.2640  146.9740 C   0  0  0  0  0  0  0  0  0  0  0  0
  186.8360  177.8770  146.6190 C   0  0  0  0  0  3  0  0  0  0  0  0
  188.9850  177.2510  145.6280 C   0  0  0  0  0  0  0  0  0  0  0  0
  187.5440  177.5780  145.5260 C   0  0  0  0  0  3  0  0  0  0  0  0
  192.0580  176.7150  147.3330 O   0  0  0  0  0  0  0  0  0  0  0  0
  189.6940  176.9520  144.5780 N   0  0  0  0  0  0  0  0  0  0  0  0
  187.4590  177.8930  147.9600 C   0  0  0  0  0  3  0  0  0  0  0  0
  190.5870  174.9750  143.2130 O   0  0  0  0  0  1  0  0  0  0  0  0
  189.9300  175.8800  142.3780 C   0  0  2  0  0  3  0  0  0  0  0  0
  190.9560  176.5620  141.4840 C   0  0  0  0  0  2  0  0  0  0  0  0
  190.7060  176.2180  140.0890 N   0  0  0  0  0  0  0  0  0  0  0  0
  192.8950  177.2500  139.8450 O   0  0  0  0  0  1  0  0  0  0  0  0
  191.7610  176.7470  139.1940 C   0  0  2  0  0  0  0  0  0  0  0  0
  190.5330  177.5030  139.3760 C   0  0  0  0  0  2  0  0  0  0  0  0
  191.2350  176.4500  136.8550 F   0  0  0  0  0  0  0  0  0  0  0  0
  191.9590  175.9300  137.9160 C   0  0  1  0  0  3  0  0  0  0  0  0
  193.4040  175.8460  137.5560 C   0  0  0  0  0  0  0  0  0  0  0  0
  194.1860  174.7290  137.9680 N   0  0  0  0  0  1  0  0  0  0  0  0
  193.9290  176.7560  136.8640 O   0  0  0  0  0  0  0  0  0  0  0  0
  189.2040  178.3340  142.6090 C   0  0  2  0  0  3  0  0  0  0  0  0
  189.7840  179.2520  143.4890 O   0  0  0  0  0  1  0  0  0  0  0  0
  187.8470  178.8260  142.1030 C   0  0  0  0  0  3  0  0  0  0  0  0
  186.8590  177.8990  142.4310 O   0  0  0  0  0  1  0  0  0  0  0  0
  187.8680  179.0140  140.7190 O   0  0  0  0  0  1  0  0  0  0  0  0
  1  9  1  1  0  0  0
  3  8  2  0  0  0  0
  4  3  2  0  0  0  0
  4  2  1  0  0  0  0
  5 10  1  0  0  0  0
  6  4  1  0  0  0  0
  7  6  1  0  0  0  0
  7  5  2  0  0  0  0
  9  6  2  0  0  0  0
 10  2  2  0  0  0  0
 12  1  1  0  0  0  0
 12 11  1  1  0  0  0
 13 12  1  0  0  0  0
 14 13  1  0  0  0  0
 16 17  1  0  0  0  0
 16 15  1  1  0  0  0
 16 14  1  0  0  0  0
 17 14  1  0  0  0  0
 19 18  1  6  0  0  0
 19 16  1  0  0  0  0
 20 19  1  0  0  0  0
 20 21  1  0  0  0  0
 22 20  2  0  0  0  0
 23  1  1  0  0  0  0
 23 24  1  1  0  0  0
 25 26  1  0  0  0  0
 25 23  1  0  0  0  0
 27 25  1  0  0  0  0
M  END
>  <MODEL>
5

>  <REMARK>
 VINA RESULT:      -6.9      2.963      4.713
  Name = 
  8 active torsions:
  status: ('A' for Active; 'I' for Inactive)
    1  A    between atoms: C_1  and  C_26
    2  A    between atoms: C_5  and  C_8
    3  A    between atoms: C_5  and  C_11
    4  A    between atoms: C_7  and  C_11
    5  A    between atoms: C_7  and  C_14
    6  A    between atoms: C_8  and  N_10
    7  A    between atoms: C_11  and  N_24
    8  A    between atoms: C_20  and  C_26
                            x       y       z     vdW  Elec       q    Type
                         _______ _______ _______ _____ _____    ______ ____

>  <TORSDO>
F 8

$$$$
=
 OpenBabel11062414443D

 27 28  0  0  1  0  0  0  0  0999 V2000
  189.1690  177.7290  143.8460 C   0  0  2  0  0  3  0  0  0  0  0  0
  185.1070  178.3770  146.6550 C   0  0  0  0  0  3  0  0  0  0  0  0
  187.2140  177.8230  147.6670 C   0  0  0  0  0  0  0  0  0  0  0  0
  186.5430  178.0670  146.5730 C   0  0  0  0  0  0  0  0  0  0  0  0
  185.0370  178.5990  144.2090 C   0  0  0  0  0  3  0  0  0  0  0  0
  187.1860  178.0430  145.2400 C   0  0  0  0  0  0  0  0  0  0  0  0
  186.3370  178.3270  144.0610 C   0  0  0  0  0  3  0  0  0  0  0  0
  187.8510  177.5910  148.7030 O   0  0  0  0  0  0  0  0  0  0  0  0
  188.4530  177.7710  145.1200 N   0  0  0  0  0  0  0  0  0  0  0  0
  184.4030  178.6270  145.5450 C   0  0  0  0  0  3  0  0  0  0  0  0
  188.2800  175.5810  143.2280 O   0  0  0  0  0  1  0  0  0  0  0  0
  188.3770  176.9120  142.8180 C   0  0  2  0  0  3  0  0  0  0  0  0
  189.0590  176.9600  141.4580 C   0  0  0  0  0  2  0  0  0  0  0  0
  188.1620  177.5570  140.4740 N   0  0  0  0  0  0  0  0  0  0  0  0
  189.7270  176.4710  138.9610 O   0  0  0  0  0  1  0  0  0  0  0  0
  188.6570  177.3670  139.0910 C   0  0  2  0  0  0  0  0  0  0  0  0
  188.9480  178.6080  139.7900 C   0  0  0  0  0  2  0  0  0  0  0  0
  187.2830  178.6050  137.5380 F   0  0  0  0  0  0  0  0  0  0  0  0
  187.5530  177.3390  138.0330 C   0  0  1  0  0  3  0  0  0  0  0  0
  187.9100  176.4180  136.9150 C   0  0  0  0  0  0  0  0  0  0  0  0
  187.4520  175.0690  136.9180 N   0  0  0  0  0  1  0  0  0  0  0  0
  188.5980  176.8420  135.9510 O   0  0  0  0  0  0  0  0  0  0  0  0
  190.6010  177.2100  144.0700 C   0  0  2  0  0  3  0  0  0  0  0  0
  190.7730  176.7340  145.3720 O   0  0  0  0  0  1  0  0  0  0  0  0
  191.6920  178.2130  143.6910 C   0  0  0  0  0  3  0  0  0  0  0  0
  191.2560  179.5080  143.9650 O   0  0  0  0  0  1  0  0  0  0  0  0
  192.0190  178.1090  142.3370 O   0  0  0  0  0  1  0  0  0  0  0  0
  1 23  1  0  0  0  0
  1  9  1  1  0  0  0
  3  8  2  0  0  0  0
  4  2  1  0  0  0  0
  4  3  2  0  0  0  0
  5 10  1  0  0  0  0
  6  4  1  0  0  0  0
  7  5  2  0  0  0  0
  7  6  1  0  0  0  0
  9  6  2  0  0  0  0
 10  2  2  0  0  0  0
 12 11  1  1  0  0  0
 12  1  1  0  0  0  0
 13 12  1  0  0  0  0
 14 13  1  0  0  0  0
 16 15  1  6  0  0  0
 16 17  1  0  0  0  0
 16 14  1  0  0  0  0
 17 14  1  0  0  0  0
 19 18  1  6  0  0  0
 19 16  1  0  0  0  0
 20 21  1  0  0  0  0
 20 19  1  0  0  0  0
 22 20  2  0  0  0  0
 23 24  1  1  0  0  0
 25 26  1  0  0  0  0
 25 23  1  0  0  0  0
 27 25  1  0  0  0  0
M  END
>  <MODEL>
6

>  <REMARK>
 VINA RESULT:      -6.8      2.097      2.894
  Name = 
  8 active torsions:
  status: ('A' for Active; 'I' for Inactive)
    1  A    between atoms: C_1  and  C_26
    2  A    between atoms: C_5  and  C_8
    3  A    between atoms: C_5  and  C_11
    4  A    between atoms: C_7  and  C_11
    5  A    between atoms: C_7  and  C_14
    6  A    between atoms: C_8  and  N_10
    7  A    between atoms: C_11  and  N_24
    8  A    between atoms: C_20  and  C_26
                            x       y       z     vdW  Elec       q    Type
                         _______ _______ _______ _____ _____    ______ ____

>  <TORSDO>
F 8

$$$$
=
 OpenBabel11062414443D

 27 28  0  0  1  0  0  0  0  0999 V2000
  189.6310  177.7600  138.5330 C   0  0  2  0  0  3  0  0  0  0  0  0
  192.6950  174.0520  137.2370 C   0  0  0  0  0  3  0  0  0  0  0  0
  190.3130  173.7470  137.1680 C   0  0  0  0  0  0  0  0  0  0  0  0
  191.3190  174.5410  137.4220 C   0  0  0  0  0  0  0  0  0  0  0  0
  193.5470  176.2350  137.9730 C   0  0  0  0  0  3  0  0  0  0  0  0
  191.1190  175.9290  137.8950 C   0  0  0  0  0  0  0  0  0  0  0  0
  192.3250  176.7450  138.1620 C   0  0  0  0  0  3  0  0  0  0  0  0
  189.3590  172.9960  136.9270 O   0  0  0  0  0  0  0  0  0  0  0  0
  189.9200  176.4020  138.0750 N   0  0  0  0  0  0  0  0  0  0  0  0
  193.7380  174.8490  137.4960 C   0  0  0  0  0  3  0  0  0  0  0  0
  188.4250  179.0090  140.1980 O   0  0  0  0  0  1  0  0  0  0  0  0
  188.8060  177.7190  139.8260 C   0  0  2  0  0  3  0  0  0  0  0  0
  189.6160  177.0980  140.9560 C   0  0  0  0  0  2  0  0  0  0  0  0
  189.1950  177.6590  142.2350 N   0  0  0  0  0  0  0  0  0  0  0  0
  190.2770  175.6350  143.0390 O   0  0  0  0  0  1  0  0  0  0  0  0
  189.4700  176.7350  143.3580 C   0  0  2  0  0  0  0  0  0  0  0  0
  188.1480  176.7520  142.7540 C   0  0  0  0  0  2  0  0  0  0  0  0
  189.0300  176.7920  145.7330 F   0  0  0  0  0  0  0  0  0  0  0  0
  189.6930  177.4350  144.6990 C   0  0  1  0  0  3  0  0  0  0  0  0
  191.1490  177.5370  145.0110 C   0  0  0  0  0  0  0  0  0  0  0  0
  191.6880  176.8860  146.1570 N   0  0  0  0  0  1  0  0  0  0  0  0
  191.9080  178.1820  144.2430 O   0  0  0  0  0  0  0  0  0  0  0  0
  188.9600  178.5600  137.4030 C   0  0  2  0  0  3  0  0  0  0  0  0
  189.0010  179.9330  137.6540 O   0  0  0  0  0  1  0  0  0  0  0  0
  187.5420  178.0940  137.0690 C   0  0  0  0  0  3  0  0  0  0  0  0
  187.4100  177.9400  135.6900 O   0  0  0  0  0  1  0  0  0  0  0  0
  186.5940  179.0100  137.5280 O   0  0  0  0  0  1  0  0  0  0  0  0
  1  9  1  6  0  0  0
  1 12  1  0  0  0  0
  2  4  1  0  0  0  0
  2 10  2  0  0  0  0
  3  4  2  0  0  0  0
  4  6  1  0  0  0  0
  5  7  2  0  0  0  0
  6  9  2  0  0  0  0
  6  7  1  0  0  0  0
  8  3  2  0  0  0  0
 10  5  1  0  0  0  0
 12 11  1  1  0  0  0
 12 13  1  0  0  0  0
 13 14  1  0  0  0  0
 14 17  1  0  0  0  0
 14 16  1  0  0  0  0
 16 15  1  6  0  0  0
 16 19  1  0  0  0  0
 17 16  1  0  0  0  0
 19 20  1  0  0  0  0
 19 18  1  1  0  0  0
 20 21  1  0  0  0  0
 22 20  2  0  0  0  0
 23 24  1  1  0  0  0
 23  1  1  0  0  0  0
 25 23  1  0  0  0  0
 25 27  1  0  0  0  0
 26 25  1  0  0  0  0
M  END
>  <MODEL>
7

>  <REMARK>
 VINA RESULT:      -6.7      3.727      8.127
  Name = 
  8 active torsions:
  status: ('A' for Active; 'I' for Inactive)
    1  A    between atoms: C_1  and  C_26
    2  A    between atoms: C_5  and  C_8
    3  A    between atoms: C_5  and  C_11
    4  A    between atoms: C_7  and  C_11
    5  A    between atoms: C_7  and  C_14
    6  A    between atoms: C_8  and  N_10
    7  A    between atoms: C_11  and  N_24
    8  A    between atoms: C_20  and  C_26
                            x       y       z     vdW  Elec       q    Type
                         _______ _______ _______ _____ _____    ______ ____

>  <TORSDO>
F 8

$$$$
=
 OpenBabel11062414443D

 27 28  0  0  1  0  0  0  0  0999 V2000
  184.5440  178.2100  141.0080 C   0  0  2  0  0  3  0  0  0  0  0  0
  179.6840  177.4970  140.1750 C   0  0  0  0  0  3  0  0  0  0  0  0
  180.4460  179.4460  141.3560 C   0  0  0  0  0  0  0  0  0  0  0  0
  180.7540  178.3320  140.7460 C   0  0  0  0  0  0  0  0  0  0  0  0
  181.3760  175.8870  139.4140 C   0  0  0  0  0  3  0  0  0  0  0  0
  182.1560  177.8770  140.6090 C   0  0  0  0  0  0  0  0  0  0  0  0
  182.3970  176.5960  139.9070 C   0  0  0  0  0  3  0  0  0  0  0  0
  180.1570  180.5020  141.9330 O   0  0  0  0  0  0  0  0  0  0  0  0
  183.1330  178.5810  141.1010 N   0  0  0  0  0  0  0  0  0  0  0  0
  179.9790  176.3520  139.5500 C   0  0  0  0  0  3  0  0  0  0  0  0
  184.9360  179.6440  142.8990 O   0  0  0  0  0  1  0  0  0  0  0  0
  185.2300  178.3870  142.3680 C   0  0  2  0  0  3  0  0  0  0  0  0
  186.7390  178.2530  142.2260 C   0  0  0  0  0  2  0  0  0  0  0  0
  187.3210  177.8120  143.4890 N   0  0  0  0  0  0  0  0  0  0  0  0
  189.3690  178.1670  142.2260 O   0  0  0  0  0  1  0  0  0  0  0  0
  188.7900  177.6510  143.3930 C   0  0  2  0  0  0  0  0  0  0  0  0
  187.9300  176.4910  143.2190 C   0  0  0  0  0  2  0  0  0  0  0  0
  189.1000  176.9510  145.6840 F   0  0  0  0  0  0  0  0  0  0  0  0
  189.5250  177.8500  144.7190 C   0  0  1  0  0  3  0  0  0  0  0  0
  191.0010  177.7390  144.5310 C   0  0  0  0  0  0  0  0  0  0  0  0
  191.6430  176.4700  144.5990 N   0  0  0  0  0  1  0  0  0  0  0  0
  191.6790  178.7700  144.2860 O   0  0  0  0  0  0  0  0  0  0  0  0
  185.2170  179.0030  139.8740 C   0  0  2  0  0  3  0  0  0  0  0  0
  184.4600  180.1200  139.5130 O   0  0  0  0  0  1  0  0  0  0  0  0
  185.5800  178.1550  138.6540 C   0  0  0  0  0  3  0  0  0  0  0  0
  186.7510  178.6420  138.0740 O   0  0  0  0  0  1  0  0  0  0  0  0
  184.5520  178.1720  137.7090 O   0  0  0  0  0  1  0  0  0  0  0  0
  1  9  1  1  0  0  0
  1 12  1  0  0  0  0
  2  4  1  0  0  0  0
  3  8  2  0  0  0  0
  4  3  2  0  0  0  0
  5 10  1  0  0  0  0
  5  7  2  0  0  0  0
  6  4  1  0  0  0  0
  6  9  2  0  0  0  0
  7  6  1  0  0  0  0
 10  2  2  0  0  0  0
 12 11  1  6  0  0  0
 13 12  1  0  0  0  0
 13 14  1  0  0  0  0
 16 15  1  6  0  0  0
 16 14  1  0  0  0  0
 16 19  1  0  0  0  0
 17 16  1  0  0  0  0
 17 14  1  0  0  0  0
 19 18  1  1  0  0  0
 20 21  1  0  0  0  0
 20 19  1  0  0  0  0
 22 20  2  0  0  0  0
 23 24  1  6  0  0  0
 23  1  1  0  0  0  0
 25 23  1  0  0  0  0
 26 25  1  0  0  0  0
 27 25  1  0  0  0  0
M  END
>  <MODEL>
8

>  <REMARK>
 VINA RESULT:      -6.6      4.413      7.648
  Name = 
  8 active torsions:
  status: ('A' for Active; 'I' for Inactive)
    1  A    between atoms: C_1  and  C_26
    2  A    between atoms: C_5  and  C_8
    3  A    between atoms: C_5  and  C_11
    4  A    between atoms: C_7  and  C_11
    5  A    between atoms: C_7  and  C_14
    6  A    between atoms: C_8  and  N_10
    7  A    between atoms: C_11  and  N_24
    8  A    between atoms: C_20  and  C_26
                            x       y       z     vdW  Elec       q    Type
                         _______ _______ _______ _____ _____    ______ ____

>  <TORSDO>
F 8

$$$$
=
 OpenBabel11062414443D

 27 28  0  0  1  0  0  0  0  0999 V2000
  188.6290  177.7470  138.6980 C   0  0  2  0  0  3  0  0  0  0  0  0
  183.8230  177.3430  137.4480 C   0  0  0  0  0  3  0  0  0  0  0  0
  184.5770  179.1620  138.8240 C   0  0  0  0  0  0  0  0  0  0  0  0
  184.8810  178.0800  138.1580 C   0  0  0  0  0  0  0  0  0  0  0  0
  185.4960  175.7070  136.7000 C   0  0  0  0  0  3  0  0  0  0  0  0
  186.2670  177.5650  138.0950 C   0  0  0  0  0  0  0  0  0  0  0  0
  186.5060  176.3260  137.3200 C   0  0  0  0  0  3  0  0  0  0  0  0
  184.2900  180.1880  139.4550 O   0  0  0  0  0  0  0  0  0  0  0  0
  187.2330  178.1820  138.7110 N   0  0  0  0  0  0  0  0  0  0  0  0
  184.1150  176.2310  136.7640 C   0  0  0  0  0  3  0  0  0  0  0  0
  190.3720  177.0650  140.2090 O   0  0  0  0  0  1  0  0  0  0  0  0
  189.2350  177.8680  140.1020 C   0  0  2  0  0  3  0  0  0  0  0  0
  188.2260  177.4370  141.1570 C   0  0  0  0  0  2  0  0  0  0  0  0
  188.4700  178.1570  142.4010 N   0  0  0  0  0  0  0  0  0  0  0  0
  189.0720  175.9160  143.1290 O   0  0  0  0  0  1  0  0  0  0  0  0
  188.8120  177.2390  143.5110 C   0  0  2  0  0  0  0  0  0  0  0  0
  187.4390  177.6890  143.3540 C   0  0  0  0  0  2  0  0  0  0  0  0
  189.2220  177.5900  145.8650 F   0  0  0  0  0  0  0  0  0  0  0  0
  189.6910  177.8690  144.5920 C   0  0  1  0  0  3  0  0  0  0  0  0
  191.1070  177.4170  144.4580 C   0  0  0  0  0  0  0  0  0  0  0  0
  191.6840  176.5550  145.4340 N   0  0  0  0  0  1  0  0  0  0  0  0
  191.7870  177.7780  143.4630 O   0  0  0  0  0  0  0  0  0  0  0  0
  189.4070  178.5290  137.6250 C   0  0  2  0  0  3  0  0  0  0  0  0
  188.7270  179.6870  137.2420 O   0  0  0  0  0  1  0  0  0  0  0  0
  189.8070  177.6880  136.4110 C   0  0  0  0  0  3  0  0  0  0  0  0
  188.8520  177.8300  135.4060 O   0  0  0  0  0  1  0  0  0  0  0  0
  189.9240  176.3390  136.7540 O   0  0  0  0  0  1  0  0  0  0  0  0
  1  9  1  1  0  0  0
  1 12  1  0  0  0  0
  2  4  1  0  0  0  0
  3  8  2  0  0  0  0
  4  3  2  0  0  0  0
  5 10  1  0  0  0  0
  5  7  2  0  0  0  0
  6  4  1  0  0  0  0
  6  9  2  0  0  0  0
  7  6  1  0  0  0  0
 10  2  2  0  0  0  0
 12 11  1  6  0  0  0
 12 13  1  0  0  0  0
 13 14  1  0  0  0  0
 14 17  1  0  0  0  0
 14 16  1  0  0  0  0
 16 15  1  6  0  0  0
 16 19  1  0  0  0  0
 17 16  1  0  0  0  0
 19 18  1  1  0  0  0
 20 19  1  0  0  0  0
 20 21  1  0  0  0  0
 22 20  2  0  0  0  0
 23 24  1  6  0  0  0
 23  1  1  0  0  0  0
 25 27  1  0  0  0  0
 25 23  1  0  0  0  0
 26 25  1  0  0  0  0
M  END
>  <MODEL>
9

>  <REMARK>
 VINA RESULT:      -6.5      3.108      7.563
  Name = 
  8 active torsions:
  status: ('A' for Active; 'I' for Inactive)
    1  A    between atoms: C_1  and  C_26
    2  A    between atoms: C_5  and  C_8
    3  A    between atoms: C_5  and  C_11
    4  A    between atoms: C_7  and  C_11
    5  A    between atoms: C_7  and  C_14
    6  A    between atoms: C_8  and  N_10
    7  A    between atoms: C_11  and  N_24
    8  A    between atoms: C_20  and  C_26
                            x       y       z     vdW  Elec       q    Type
                         _______ _______ _______ _____ _____    ______ ____

>  <TORSDO>
F 8

$$$$
