=
 OpenBabel11062414133D

 32 36  0  0  1  0  0  0  0  0999 V2000
  190.5460  175.5990  138.7670 N   0  0  2  0  0  0  0  0  0  0  0  0
  190.8840  177.0430  140.6680 C   0  0  0  0  0  3  0  0  0  0  0  0
  189.6690  177.5630  140.8990 C   0  0  0  0  0  0  0  0  0  0  0  0
  188.8560  174.6960  136.5670 O   0  0  0  0  0  1  0  0  0  0  0  0
  190.9750  174.9860  137.5220 C   0  0  1  0  0  3  0  0  0  0  0  0
  189.4430  176.2910  138.1920 N   0  0  0  0  0  0  0  0  0  0  0  0
  189.8180  175.6460  136.9140 C   0  0  2  0  0  3  0  0  0  0  0  0
  188.6230  177.8140  139.8670 C   0  0  0  0  0  3  0  0  0  0  0  0
  188.5210  177.2840  138.6400 C   0  0  0  0  0  0  0  0  0  0  0  0
  191.4180  176.6170  139.3390 C   0  0  0  0  0  2  0  0  0  0  0  0
  188.7420  177.9430  146.4460 C   0  0  0  0  0  3  0  0  0  0  0  0
  188.1270  177.2850  142.8340 C   0  0  0  0  0  2  0  0  0  0  0  0
  190.5620  177.6520  143.2240 C   0  0  0  0  0  2  0  0  0  0  0  0
  186.4850  177.7890  144.6660 C   0  0  0  0  0  2  0  0  0  0  0  0
  190.3320  178.2400  144.6120 C   0  0  0  0  0  2  0  0  0  0  0  0
  187.3920  177.6860  146.9710 C   0  0  0  0  0  3  0  0  0  0  0  0
  188.9670  177.9050  145.1330 C   0  0  0  0  0  0  0  0  0  0  0  0
  186.3460  177.5770  146.1500 C   0  0  0  0  0  3  0  0  0  0  0  0
  189.3840  177.9760  142.3080 C   0  0  1  0  0  3  0  0  0  0  0  0
  187.8760  177.6460  144.2260 N   0  0  0  0  0  0  0  0  0  0  0  0
  192.2370  174.3070  134.7500 F   0  0  0  0  0  0  0  0  0  0  0  0
  194.7340  175.9730  135.4670 C   0  0  0  0  0  0  0  0  0  0  0  0
  194.8040  175.2970  136.6200 C   0  0  0  0  0  3  0  0  0  0  0  0
  193.5980  174.7650  137.3420 C   0  0  0  0  0  2  0  0  0  0  0  0
  192.2330  175.5550  135.3480 C   0  0  1  0  0  3  0  0  0  0  0  0
  195.9130  176.3850  134.8600 O   0  0  0  0  0  1  0  0  0  0  0  0
  192.3050  175.4450  136.8710 C   0  0  1  0  0  3  0  0  0  0  0  0
  193.4210  176.3700  134.8410 C   0  0  0  0  0  2  0  0  0  0  0  0
  186.4910  178.4680  138.4450 F   0  0  0  0  0  0  0  0  0  0  0  0
  186.7230  176.5910  137.2290 F   0  0  0  0  0  0  0  0  0  0  0  0
  187.8960  178.4340  136.6840 F   0  0  0  0  0  0  0  0  0  0  0  0
  187.3920  177.6940  137.7370 C   0  0  0  0  0  0  0  0  0  0  0  0
  1 10  1  6  0  0  0
  2  3  2  0  0  0  0
  5 27  1  6  0  0  0
  5  1  1  0  0  0  0
  6  9  1  0  0  0  0
  6  1  1  0  0  0  0
  7  4  1  1  0  0  0
  7  5  1  0  0  0  0
  7  6  1  0  0  0  0
  8  3  1  0  0  0  0
  9  8  2  0  0  0  0
 10  2  1  0  0  0  0
 11 16  1  0  0  0  0
 12 20  1  0  0  0  0
 13 15  1  0  0  0  0
 14 18  1  0  0  0  0
 15 17  1  0  0  0  0
 17 11  2  0  0  0  0
 18 16  2  0  0  0  0
 19  3  1  6  0  0  0
 19 12  1  0  0  0  0
 19 13  1  0  0  0  0
 20 14  1  0  0  0  0
 20 17  1  0  0  0  0
 22 23  2  0  0  0  0
 23 24  1  0  0  0  0
 25 21  1  6  0  0  0
 25 27  1  0  0  0  0
 26 22  1  0  0  0  0
 27 24  1  6  0  0  0
 28 25  1  0  0  0  0
 28 22  1  0  0  0  0
 30 32  1  0  0  0  0
 31 32  1  0  0  0  0
 32 29  1  0  0  0  0
 32  9  1  0  0  0  0
M  END
>  <MODEL>
1

>  <REMARK>
 VINA RESULT:      -8.8      0.000      0.000
  Name = 
  3 active torsions:
  status: ('A' for Active; 'I' for Inactive)
    1  A    between atoms: C_9  and  C_25
    2  A    between atoms: C_15  and  C_27
    3  A    between atoms: C_29  and  C_31
                            x       y       z     vdW  Elec       q    Type
                         _______ _______ _______ _____ _____    ______ ____

>  <TORSDO>
F 3

$$$$
=
 OpenBabel11062414133D

 32 36  0  0  1  0  0  0  0  0999 V2000
  184.9570  179.1380  141.3750 N   0  0  2  0  0  0  0  0  0  0  0  0
  186.3490  177.9260  142.9270 C   0  0  0  0  0  3  0  0  0  0  0  0
  187.5480  177.8910  142.3260 C   0  0  0  0  0  0  0  0  0  0  0  0
  184.5550  180.2730  138.7180 O   0  0  0  0  0  1  0  0  0  0  0  0
  183.6910  179.3980  140.7110 C   0  0  1  0  0  3  0  0  0  0  0  0
  185.6560  178.8000  140.1830 N   0  0  0  0  0  0  0  0  0  0  0  0
  184.3990  179.1040  139.4640 C   0  0  2  0  0  3  0  0  0  0  0  0
  187.7790  177.8850  140.8540 C   0  0  0  0  0  3  0  0  0  0  0  0
  186.9380  178.2530  139.8770 C   0  0  0  0  0  0  0  0  0  0  0  0
  185.0230  177.9650  142.2380 C   0  0  0  0  0  2  0  0  0  0  0  0
  191.6810  176.3610  145.8410 C   0  0  0  0  0  3  0  0  0  0  0  0
  188.3130  177.4050  144.6450 C   0  0  0  0  0  2  0  0  0  0  0  0
  189.7400  176.7680  142.7030 C   0  0  0  0  0  2  0  0  0  0  0  0
  189.3500  177.6630  146.9170 C   0  0  0  0  0  2  0  0  0  0  0  0
  191.0210  176.8080  143.5290 C   0  0  0  0  0  2  0  0  0  0  0  0
  191.4370  176.3780  147.2910 C   0  0  0  0  0  3  0  0  0  0  0  0
  190.7310  176.7660  144.9990 C   0  0  0  0  0  0  0  0  0  0  0  0
  190.3410  176.9480  147.7960 C   0  0  0  0  0  3  0  0  0  0  0  0
  188.7360  177.7900  143.2290 C   0  0  1  0  0  3  0  0  0  0  0  0
  189.4750  177.2550  145.5150 N   0  0  0  0  0  0  0  0  0  0  0  0
  181.2720  178.6610  138.8830 F   0  0  0  0  0  0  0  0  0  0  0  0
  180.1280  176.8520  141.1070 C   0  0  0  0  0  0  0  0  0  0  0  0
  180.2690  177.8780  141.9560 C   0  0  0  0  0  3  0  0  0  0  0  0
  181.3540  178.9100  141.8350 C   0  0  0  0  0  2  0  0  0  0  0  0
  181.9980  177.7710  139.6550 C   0  0  1  0  0  3  0  0  0  0  0  0
  179.0650  175.9770  141.2840 O   0  0  0  0  0  1  0  0  0  0  0  0
  182.5030  178.4280  140.9390 C   0  0  1  0  0  3  0  0  0  0  0  0
  181.1230  176.5700  140.0090 C   0  0  0  0  0  2  0  0  0  0  0  0
  188.5200  178.8750  138.2420 F   0  0  0  0  0  0  0  0  0  0  0  0
  186.3850  178.6250  137.5840 F   0  0  0  0  0  0  0  0  0  0  0  0
  187.6080  176.8180  138.1360 F   0  0  0  0  0  0  0  0  0  0  0  0
  187.3630  178.1440  138.4400 C   0  0  0  0  0  0  0  0  0  0  0  0
  1 10  1  1  0  0  0
  3  2  2  0  0  0  0
  5 27  1  1  0  0  0
  5  1  1  0  0  0  0
  6  1  1  0  0  0  0
  7  4  1  6  0  0  0
  7  6  1  0  0  0  0
  7  5  1  0  0  0  0
  8  3  1  0  0  0  0
  9  6  1  0  0  0  0
  9  8  2  0  0  0  0
 10  2  1  0  0  0  0
 11 16  1  0  0  0  0
 12 20  1  0  0  0  0
 13 19  1  0  0  0  0
 13 15  1  0  0  0  0
 14 18  1  0  0  0  0
 15 17  1  0  0  0  0
 16 18  2  0  0  0  0
 17 20  1  0  0  0  0
 17 11  2  0  0  0  0
 19  3  1  6  0  0  0
 19 12  1  0  0  0  0
 20 14  1  0  0  0  0
 22 26  1  0  0  0  0
 22 23  2  0  0  0  0
 24 23  1  0  0  0  0
 25 21  1  1  0  0  0
 25 28  1  0  0  0  0
 25 27  1  0  0  0  0
 27 24  1  6  0  0  0
 28 22  1  0  0  0  0
 29 32  1  0  0  0  0
 30 32  1  0  0  0  0
 31 32  1  0  0  0  0
 32  9  1  0  0  0  0
M  END
>  <MODEL>
2

>  <REMARK>
 VINA RESULT:      -8.6      4.731      7.974
  Name = 
  3 active torsions:
  status: ('A' for Active; 'I' for Inactive)
    1  A    between atoms: C_9  and  C_25
    2  A    between atoms: C_15  and  C_27
    3  A    between atoms: C_29  and  C_31
                            x       y       z     vdW  Elec       q    Type
                         _______ _______ _______ _____ _____    ______ ____

>  <TORSDO>
F 3

$$$$
=
 OpenBabel11062414133D

 32 36  0  0  1  0  0  0  0  0999 V2000
  189.2950  178.1800  140.0130 N   0  0  2  0  0  0  0  0  0  0  0  0
  186.9160  178.1500  140.4060 C   0  0  0  0  0  3  0  0  0  0  0  0
  186.8100  178.0740  141.7410 C   0  0  0  0  0  0  0  0  0  0  0  0
  192.0110  177.8190  141.0140 O   0  0  0  0  0  1  0  0  0  0  0  0
  190.4780  177.8390  139.2420 C   0  0  1  0  0  3  0  0  0  0  0  0
  189.6920  177.4650  141.1770 N   0  0  0  0  0  0  0  0  0  0  0  0
  190.9350  177.1370  140.4440 C   0  0  2  0  0  3  0  0  0  0  0  0
  187.7910  177.4180  142.6520 C   0  0  0  0  0  3  0  0  0  0  0  0
  189.0710  177.1040  142.4100 C   0  0  0  0  0  0  0  0  0  0  0  0
  188.0320  177.5950  139.5810 C   0  0  0  0  0  2  0  0  0  0  0  0
  181.8570  179.0910  144.2330 C   0  0  0  0  0  3  0  0  0  0  0  0
  184.3240  178.1320  141.6150 C   0  0  0  0  0  2  0  0  0  0  0  0
  185.4640  178.3140  143.8240 C   0  0  0  0  0  2  0  0  0  0  0  0
  181.9690  178.9640  141.3590 C   0  0  0  0  0  2  0  0  0  0  0  0
  184.2920  179.0560  144.4570 C   0  0  0  0  0  2  0  0  0  0  0  0
  180.6210  179.0110  143.4400 C   0  0  0  0  0  3  0  0  0  0  0  0
  183.0390  178.9010  143.6490 C   0  0  0  0  0  0  0  0  0  0  0  0
  180.6640  178.9160  142.1090 C   0  0  0  0  0  3  0  0  0  0  0  0
  185.5660  178.6490  142.3390 C   0  0  1  0  0  3  0  0  0  0  0  0
  183.1060  178.6520  142.2290 N   0  0  0  0  0  0  0  0  0  0  0  0
  192.6380  176.6090  137.3570 F   0  0  0  0  0  0  0  0  0  0  0  0
  190.4230  175.2540  135.6870 C   0  0  0  0  0  0  0  0  0  0  0  0
  189.8100  176.4410  135.6140 C   0  0  0  0  0  3  0  0  0  0  0  0
  189.8830  177.4790  136.6970 C   0  0  0  0  0  2  0  0  0  0  0  0
  191.5370  175.9400  137.8630 C   0  0  1  0  0  3  0  0  0  0  0  0
  190.3260  174.3810  134.6110 O   0  0  0  0  0  1  0  0  0  0  0  0
  190.3430  176.8790  138.0330 C   0  0  1  0  0  3  0  0  0  0  0  0
  191.1560  174.7970  136.9240 C   0  0  0  0  0  2  0  0  0  0  0  0
  189.1450  176.3050  144.6280 F   0  0  0  0  0  0  0  0  0  0  0  0
  191.0480  177.1180  143.7500 F   0  0  0  0  0  0  0  0  0  0  0  0
  190.2290  175.1500  143.0260 F   0  0  0  0  0  0  0  0  0  0  0  0
  189.8880  176.4150  143.4670 C   0  0  0  0  0  0  0  0  0  0  0  0
  1 10  1  6  0  0  0
  1  6  1  0  0  0  0
  2  3  2  0  0  0  0
  3  8  1  0  0  0  0
  5 27  1  6  0  0  0
  5  1  1  0  0  0  0
  5  7  1  0  0  0  0
  6  9  1  0  0  0  0
  7  4  1  1  0  0  0
  7  6  1  0  0  0  0
  9  8  2  0  0  0  0
  9 32  1  0  0  0  0
 10  2  1  0  0  0  0
 12 20  1  0  0  0  0
 12 19  1  0  0  0  0
 13 15  1  0  0  0  0
 14 18  1  0  0  0  0
 14 20  1  0  0  0  0
 16 11  1  0  0  0  0
 17 11  2  0  0  0  0
 17 15  1  0  0  0  0
 18 16  2  0  0  0  0
 19  3  1  6  0  0  0
 19 13  1  0  0  0  0
 20 17  1  0  0  0  0
 22 28  1  0  0  0  0
 23 22  2  0  0  0  0
 23 24  1  0  0  0  0
 25 21  1  6  0  0  0
 25 27  1  0  0  0  0
 26 22  1  0  0  0  0
 27 24  1  6  0  0  0
 28 25  1  0  0  0  0
 31 32  1  0  0  0  0
 32 30  1  0  0  0  0
 32 29  1  0  0  0  0
M  END
>  <MODEL>
3

>  <REMARK>
 VINA RESULT:      -8.5      3.764      5.177
  Name = 
  3 active torsions:
  status: ('A' for Active; 'I' for Inactive)
    1  A    between atoms: C_9  and  C_25
    2  A    between atoms: C_15  and  C_27
    3  A    between atoms: C_29  and  C_31
                            x       y       z     vdW  Elec       q    Type
                         _______ _______ _______ _____ _____    ______ ____

>  <TORSDO>
F 3

$$$$
=
 OpenBabel11062414133D

 32 36  0  0  1  0  0  0  0  0999 V2000
  181.9150  178.5630  139.7010 N   0  0  2  0  0  0  0  0  0  0  0  0
  184.1500  178.8150  140.5690 C   0  0  0  0  0  3  0  0  0  0  0  0
  184.0260  178.5190  141.8710 C   0  0  0  0  0  0  0  0  0  0  0  0
  179.0560  178.2340  140.1800 O   0  0  0  0  0  1  0  0  0  0  0  0
  180.8250  178.9410  138.8170 C   0  0  1  0  0  3  0  0  0  0  0  0
  181.2070  178.8500  140.9010 N   0  0  0  0  0  0  0  0  0  0  0  0
  180.0570  179.1960  140.0370 C   0  0  2  0  0  3  0  0  0  0  0  0
  182.8060  178.7400  142.6980 C   0  0  0  0  0  3  0  0  0  0  0  0
  181.5440  178.9250  142.2860 C   0  0  0  0  0  0  0  0  0  0  0  0
  183.0930  179.4210  139.7020 C   0  0  0  0  0  2  0  0  0  0  0  0
  188.8410  177.6370  144.6670 C   0  0  0  0  0  3  0  0  0  0  0  0
  186.5160  178.5360  141.9020 C   0  0  0  0  0  2  0  0  0  0  0  0
  185.2450  178.3080  144.0340 C   0  0  0  0  0  2  0  0  0  0  0  0
  188.9060  177.7760  141.7930 C   0  0  0  0  0  2  0  0  0  0  0  0
  186.3970  177.5980  144.7380 C   0  0  0  0  0  2  0  0  0  0  0  0
  190.1220  177.7590  143.9540 C   0  0  0  0  0  3  0  0  0  0  0  0
  187.6920  177.7950  144.0110 C   0  0  0  0  0  0  0  0  0  0  0  0
  190.1590  177.8590  142.6240 C   0  0  0  0  0  3  0  0  0  0  0  0
  185.2470  177.9780  142.5440 C   0  0  1  0  0  3  0  0  0  0  0  0
  187.7080  178.0500  142.5900 N   0  0  0  0  0  0  0  0  0  0  0  0
  178.9310  181.3960  138.4750 F   0  0  0  0  0  0  0  0  0  0  0  0
  180.8390  182.5880  136.3620 C   0  0  0  0  0  0  0  0  0  0  0  0
  180.8170  181.4050  135.7350 C   0  0  0  0  0  3  0  0  0  0  0  0
  180.6570  180.0930  136.4490 C   0  0  0  0  0  2  0  0  0  0  0  0
  180.3100  181.4520  138.5700 C   0  0  1  0  0  3  0  0  0  0  0  0
  180.9500  183.7460  135.6040 O   0  0  0  0  0  1  0  0  0  0  0  0
  180.9630  180.2180  137.9480 C   0  0  1  0  0  3  0  0  0  0  0  0
  180.8220  182.7070  137.8660 C   0  0  0  0  0  2  0  0  0  0  0  0
  180.9590  179.0020  144.5700 F   0  0  0  0  0  0  0  0  0  0  0  0
  179.4050  178.2680  143.1210 F   0  0  0  0  0  0  0  0  0  0  0  0
  179.9710  180.4470  143.1520 F   0  0  0  0  0  0  0  0  0  0  0  0
  180.4530  179.1590  143.2930 C   0  0  0  0  0  0  0  0  0  0  0  0
  1 10  1  6  0  0  0
  1  6  1  0  0  0  0
  2  3  2  0  0  0  0
  3  8  1  0  0  0  0
  5 27  1  1  0  0  0
  5  1  1  0  0  0  0
  5  7  1  0  0  0  0
  6  9  1  0  0  0  0
  7  4  1  1  0  0  0
  7  6  1  0  0  0  0
  9  8  2  0  0  0  0
  9 32  1  0  0  0  0
 10  2  1  0  0  0  0
 12 19  1  0  0  0  0
 12 20  1  0  0  0  0
 13 15  1  0  0  0  0
 14 20  1  0  0  0  0
 14 18  1  0  0  0  0
 16 11  1  0  0  0  0
 17 11  2  0  0  0  0
 17 15  1  0  0  0  0
 18 16  2  0  0  0  0
 19  3  1  6  0  0  0
 19 13  1  0  0  0  0
 20 17  1  0  0  0  0
 22 28  1  0  0  0  0
 23 22  2  0  0  0  0
 23 24  1  0  0  0  0
 25 21  1  6  0  0  0
 26 22  1  0  0  0  0
 27 24  1  6  0  0  0
 27 25  1  0  0  0  0
 28 25  1  0  0  0  0
 30 32  1  0  0  0  0
 31 32  1  0  0  0  0
 32 29  1  0  0  0  0
M  END
>  <MODEL>
4

>  <REMARK>
 VINA RESULT:      -8.5      6.681      9.701
  Name = 
  3 active torsions:
  status: ('A' for Active; 'I' for Inactive)
    1  A    between atoms: C_9  and  C_25
    2  A    between atoms: C_15  and  C_27
    3  A    between atoms: C_29  and  C_31
                            x       y       z     vdW  Elec       q    Type
                         _______ _______ _______ _____ _____    ______ ____

>  <TORSDO>
F 3

$$$$
=
 OpenBabel11062414133D

 32 36  0  0  1  0  0  0  0  0999 V2000
  182.5030  177.9510  140.4800 N   0  0  2  0  0  0  0  0  0  0  0  0
  184.5560  178.8510  141.3670 C   0  0  0  0  0  3  0  0  0  0  0  0
  184.4070  178.7470  142.6960 C   0  0  0  0  0  0  0  0  0  0  0  0
  179.7630  177.0470  140.9110 O   0  0  0  0  0  1  0  0  0  0  0  0
  181.4240  177.9180  139.5070 C   0  0  1  0  0  3  0  0  0  0  0  0
  181.6640  178.2540  141.5880 N   0  0  0  0  0  0  0  0  0  0  0  0
  180.5310  178.1800  140.6380 C   0  0  2  0  0  3  0  0  0  0  0  0
  183.1110  178.8080  143.4300 C   0  0  0  0  0  3  0  0  0  0  0  0
  181.8730  178.6260  142.9500 C   0  0  0  0  0  0  0  0  0  0  0  0
  183.4570  179.0470  140.3730 C   0  0  0  0  0  2  0  0  0  0  0  0
  188.7630  177.1420  145.8940 C   0  0  0  0  0  3  0  0  0  0  0  0
  185.3550  178.3110  144.9570 C   0  0  0  0  0  2  0  0  0  0  0  0
  186.5680  177.5280  142.9250 C   0  0  0  0  0  2  0  0  0  0  0  0
  186.6040  178.6030  147.1150 C   0  0  0  0  0  2  0  0  0  0  0  0
  187.9190  177.5340  143.6320 C   0  0  0  0  0  2  0  0  0  0  0  0
  188.6530  177.2280  147.3580 C   0  0  0  0  0  3  0  0  0  0  0  0
  187.7610  177.5630  145.1220 C   0  0  0  0  0  0  0  0  0  0  0  0
  187.6360  177.8730  147.9330 C   0  0  0  0  0  3  0  0  0  0  0  0
  185.6660  178.6200  143.4940 C   0  0  1  0  0  3  0  0  0  0  0  0
  186.5830  178.1350  145.7270 N   0  0  0  0  0  0  0  0  0  0  0  0
  179.0170  179.6690  138.5720 F   0  0  0  0  0  0  0  0  0  0  0  0
  180.8050  181.0080  136.4430 C   0  0  0  0  0  0  0  0  0  0  0  0
  181.1720  179.7860  136.0410 C   0  0  0  0  0  3  0  0  0  0  0  0
  181.2680  178.6050  136.9650 C   0  0  0  0  0  2  0  0  0  0  0  0
  180.3100  180.1190  138.7690 C   0  0  1  0  0  3  0  0  0  0  0  0
  180.7080  182.0230  135.4990 O   0  0  0  0  0  1  0  0  0  0  0  0
  181.3360  179.0350  138.4370 C   0  0  1  0  0  3  0  0  0  0  0  0
  180.5650  181.3450  137.8930 C   0  0  0  0  0  2  0  0  0  0  0  0
  181.1010  179.2340  145.0940 F   0  0  0  0  0  0  0  0  0  0  0  0
  180.0540  177.5390  144.0510 F   0  0  0  0  0  0  0  0  0  0  0  0
  179.7850  179.6490  143.3130 F   0  0  0  0  0  0  0  0  0  0  0  0
  180.6870  178.7580  143.8630 C   0  0  0  0  0  0  0  0  0  0  0  0
  1 10  1  6  0  0  0
  1  6  1  0  0  0  0
  2  3  2  0  0  0  0
  3  8  1  0  0  0  0
  5 27  1  6  0  0  0
  5  1  1  0  0  0  0
  5  7  1  0  0  0  0
  6  9  1  0  0  0  0
  7  4  1  1  0  0  0
  7  6  1  0  0  0  0
  9  8  2  0  0  0  0
  9 32  1  0  0  0  0
 10  2  1  0  0  0  0
 11 16  1  0  0  0  0
 12 20  1  0  0  0  0
 13 19  1  0  0  0  0
 13 15  1  0  0  0  0
 14 18  1  0  0  0  0
 15 17  1  0  0  0  0
 16 18  2  0  0  0  0
 17 20  1  0  0  0  0
 17 11  2  0  0  0  0
 19  3  1  6  0  0  0
 19 12  1  0  0  0  0
 20 14  1  0  0  0  0
 22 28  1  0  0  0  0
 23 22  2  0  0  0  0
 23 24  1  0  0  0  0
 25 21  1  6  0  0  0
 26 22  1  0  0  0  0
 27 24  1  6  0  0  0
 27 25  1  0  0  0  0
 28 25  1  0  0  0  0
 31 32  1  0  0  0  0
 32 30  1  0  0  0  0
 32 29  1  0  0  0  0
M  END
>  <MODEL>
5

>  <REMARK>
 VINA RESULT:      -8.4      7.381      9.252
  Name = 
  3 active torsions:
  status: ('A' for Active; 'I' for Inactive)
    1  A    between atoms: C_9  and  C_25
    2  A    between atoms: C_15  and  C_27
    3  A    between atoms: C_29  and  C_31
                            x       y       z     vdW  Elec       q    Type
                         _______ _______ _______ _____ _____    ______ ____

>  <TORSDO>
F 3

$$$$
=
 OpenBabel11062414133D

 32 36  0  0  1  0  0  0  0  0999 V2000
  186.0450  178.9060  139.7900 N   0  0  2  0  0  0  0  0  0  0  0  0
  186.3270  178.2530  142.0940 C   0  0  0  0  0  3  0  0  0  0  0  0
  187.6410  178.0060  142.2000 C   0  0  0  0  0  0  0  0  0  0  0  0
  187.1210  179.1110  137.0870 O   0  0  0  0  0  1  0  0  0  0  0  0
  185.2960  178.9510  138.5460 C   0  0  1  0  0  3  0  0  0  0  0  0
  187.1450  178.1860  139.2480 N   0  0  0  0  0  0  0  0  0  0  0  0
  186.4380  178.2540  137.9500 C   0  0  2  0  0  3  0  0  0  0  0  0
  188.5220  177.5130  141.1040 C   0  0  0  0  0  3  0  0  0  0  0  0
  188.3070  177.5510  139.7820 C   0  0  0  0  0  0  0  0  0  0  0  0
  185.4990  178.0810  140.8610 C   0  0  0  0  0  2  0  0  0  0  0  0
  189.7560  177.5070  147.4030 C   0  0  0  0  0  3  0  0  0  0  0  0
  187.2630  177.7530  144.6490 C   0  0  0  0  0  2  0  0  0  0  0  0
  189.5400  177.4050  143.6980 C   0  0  0  0  0  2  0  0  0  0  0  0
  187.0020  178.2850  147.0880 C   0  0  0  0  0  2  0  0  0  0  0  0
  190.2290  177.7460  145.0150 C   0  0  0  0  0  2  0  0  0  0  0  0
  188.8420  177.5030  148.5550 C   0  0  0  0  0  3  0  0  0  0  0  0
  189.2770  177.6730  146.1700 C   0  0  0  0  0  0  0  0  0  0  0  0
  187.5560  177.8280  148.4120 C   0  0  0  0  0  3  0  0  0  0  0  0
  188.2390  178.1900  143.5590 C   0  0  1  0  0  3  0  0  0  0  0  0
  187.8630  177.8830  145.9730 N   0  0  0  0  0  0  0  0  0  0  0  0
  184.0240  177.5030  136.0920 F   0  0  0  0  0  0  0  0  0  0  0  0
  181.5920  176.6980  137.8150 C   0  0  0  0  0  0  0  0  0  0  0  0
  181.4880  177.9780  138.1930 C   0  0  0  0  0  3  0  0  0  0  0  0
  182.6670  178.9000  138.3260 C   0  0  0  0  0  2  0  0  0  0  0  0
  184.0750  177.0050  137.3820 C   0  0  1  0  0  3  0  0  0  0  0  0
  180.4350  175.9420  137.6830 O   0  0  0  0  0  1  0  0  0  0  0  0
  183.9900  178.1260  138.4180 C   0  0  1  0  0  3  0  0  0  0  0  0
  182.9250  176.0240  137.5990 C   0  0  0  0  0  2  0  0  0  0  0  0
  189.8560  177.9760  138.0550 F   0  0  0  0  0  0  0  0  0  0  0  0
  188.7540  176.0170  138.0070 F   0  0  0  0  0  0  0  0  0  0  0  0
  190.3350  176.3770  139.5690 F   0  0  0  0  0  0  0  0  0  0  0  0
  189.3220  176.9690  138.8390 C   0  0  0  0  0  0  0  0  0  0  0  0
  1 10  1  1  0  0  0
  2  3  2  0  0  0  0
  5 27  1  1  0  0  0
  5  1  1  0  0  0  0
  6  9  1  0  0  0  0
  6  1  1  0  0  0  0
  7  4  1  6  0  0  0
  7  5  1  0  0  0  0
  7  6  1  0  0  0  0
  8  3  1  0  0  0  0
  9  8  2  0  0  0  0
 10  2  1  0  0  0  0
 11 16  1  0  0  0  0
 12 20  1  0  0  0  0
 13 15  1  0  0  0  0
 14 18  1  0  0  0  0
 15 17  1  0  0  0  0
 17 11  2  0  0  0  0
 18 16  2  0  0  0  0
 19  3  1  6  0  0  0
 19 13  1  0  0  0  0
 19 12  1  0  0  0  0
 20 17  1  0  0  0  0
 20 14  1  0  0  0  0
 22 23  2  0  0  0  0
 23 24  1  0  0  0  0
 25 21  1  6  0  0  0
 25 28  1  0  0  0  0
 25 27  1  0  0  0  0
 26 22  1  0  0  0  0
 27 24  1  6  0  0  0
 28 22  1  0  0  0  0
 29 32  1  0  0  0  0
 30 32  1  0  0  0  0
 32 31  1  0  0  0  0
 32  9  1  0  0  0  0
M  END
>  <MODEL>
6

>  <REMARK>
 VINA RESULT:      -8.3      3.561      6.566
  Name = 
  3 active torsions:
  status: ('A' for Active; 'I' for Inactive)
    1  A    between atoms: C_9  and  C_25
    2  A    between atoms: C_15  and  C_27
    3  A    between atoms: C_29  and  C_31
                            x       y       z     vdW  Elec       q    Type
                         _______ _______ _______ _____ _____    ______ ____

>  <TORSDO>
F 3

$$$$
=
 OpenBabel11062414133D

 32 36  0  0  1  0  0  0  0  0999 V2000
  186.0830  179.0030  139.9130 N   0  0  2  0  0  0  0  0  0  0  0  0
  186.8970  178.2280  142.0460 C   0  0  0  0  0  3  0  0  0  0  0  0
  188.1720  177.8880  141.8010 C   0  0  0  0  0  0  0  0  0  0  0  0
  186.4390  179.2570  137.0290 O   0  0  0  0  0  1  0  0  0  0  0  0
  185.0440  179.1550  138.9080 C   0  0  1  0  0  3  0  0  0  0  0  0
  186.9470  178.2350  139.0850 N   0  0  0  0  0  0  0  0  0  0  0  0
  185.9370  178.4100  138.0180 C   0  0  2  0  0  3  0  0  0  0  0  0
  188.7000  177.3860  140.5000 C   0  0  0  0  0  3  0  0  0  0  0  0
  188.1540  177.4990  139.2810 C   0  0  0  0  0  0  0  0  0  0  0  0
  185.7700  178.1700  141.0670 C   0  0  0  0  0  2  0  0  0  0  0  0
  191.6800  176.9920  146.1220 C   0  0  0  0  0  3  0  0  0  0  0  0
  188.5070  177.3120  144.2000 C   0  0  0  0  0  2  0  0  0  0  0  0
  190.4470  177.3060  142.6340 C   0  0  0  0  0  2  0  0  0  0  0  0
  188.9050  177.5240  146.6700 C   0  0  0  0  0  2  0  0  0  0  0  0
  191.4530  177.5560  143.7530 C   0  0  0  0  0  2  0  0  0  0  0  0
  191.1260  176.7610  147.4640 C   0  0  0  0  0  3  0  0  0  0  0  0
  190.8670  177.2530  145.0990 C   0  0  0  0  0  0  0  0  0  0  0  0
  189.8330  176.9710  147.7180 C   0  0  0  0  0  3  0  0  0  0  0  0
  189.1120  177.9700  142.9610 C   0  0  1  0  0  3  0  0  0  0  0  0
  189.4440  177.3440  145.3200 N   0  0  0  0  0  0  0  0  0  0  0  0
  183.0850  177.8910  136.8350 F   0  0  0  0  0  0  0  0  0  0  0  0
  181.1160  177.1920  139.1070 C   0  0  0  0  0  0  0  0  0  0  0  0
  181.2090  178.4610  139.5220 C   0  0  0  0  0  3  0  0  0  0  0  0
  182.4500  179.2940  139.3670 C   0  0  0  0  0  2  0  0  0  0  0  0
  183.4240  177.3430  138.0600 C   0  0  1  0  0  3  0  0  0  0  0  0
  179.9090  176.5240  139.2610 O   0  0  0  0  0  1  0  0  0  0  0  0
  183.6900  178.4280  139.1030 C   0  0  1  0  0  3  0  0  0  0  0  0
  182.2950  176.4370  138.5450 C   0  0  0  0  0  2  0  0  0  0  0  0
  187.9830  176.0200  137.4520 F   0  0  0  0  0  0  0  0  0  0  0  0
  189.9820  176.1960  138.4660 F   0  0  0  0  0  0  0  0  0  0  0  0
  189.2050  177.8980  137.2140 F   0  0  0  0  0  0  0  0  0  0  0  0
  188.8440  176.8930  138.0910 C   0  0  0  0  0  0  0  0  0  0  0  0
  1 10  1  1  0  0  0
  3  2  2  0  0  0  0
  5 27  1  1  0  0  0
  5  1  1  0  0  0  0
  6  9  1  0  0  0  0
  6  1  1  0  0  0  0
  7  4  1  6  0  0  0
  7  5  1  0  0  0  0
  7  6  1  0  0  0  0
  8  3  1  0  0  0  0
  9  8  2  0  0  0  0
 10  2  1  0  0  0  0
 11 16  1  0  0  0  0
 12 20  1  0  0  0  0
 13 19  1  0  0  0  0
 13 15  1  0  0  0  0
 14 18  1  0  0  0  0
 15 17  1  0  0  0  0
 16 18  2  0  0  0  0
 17 20  1  0  0  0  0
 17 11  2  0  0  0  0
 19  3  1  6  0  0  0
 19 12  1  0  0  0  0
 20 14  1  0  0  0  0
 22 26  1  0  0  0  0
 22 23  2  0  0  0  0
 24 23  1  0  0  0  0
 25 21  1  6  0  0  0
 25 28  1  0  0  0  0
 25 27  1  0  0  0  0
 27 24  1  6  0  0  0
 28 22  1  0  0  0  0
 29 32  1  0  0  0  0
 31 32  1  0  0  0  0
 32 30  1  0  0  0  0
 32  9  1  0  0  0  0
M  END
>  <MODEL>
7

>  <REMARK>
 VINA RESULT:      -7.9      3.656      6.941
  Name = 
  3 active torsions:
  status: ('A' for Active; 'I' for Inactive)
    1  A    between atoms: C_9  and  C_25
    2  A    between atoms: C_15  and  C_27
    3  A    between atoms: C_29  and  C_31
                            x       y       z     vdW  Elec       q    Type
                         _______ _______ _______ _____ _____    ______ ____

>  <TORSDO>
F 3

$$$$
=
 OpenBabel11062414133D

 32 36  0  0  1  0  0  0  0  0999 V2000
  187.8240  178.5170  139.2050 N   0  0  2  0  0  0  0  0  0  0  0  0
  187.6780  177.8540  141.5180 C   0  0  0  0  0  3  0  0  0  0  0  0
  188.9550  177.6600  141.8800 C   0  0  0  0  0  0  0  0  0  0  0  0
  189.3980  178.7930  136.7650 O   0  0  0  0  0  1  0  0  0  0  0  0
  187.3310  178.5440  137.8380 C   0  0  1  0  0  3  0  0  0  0  0  0
  189.0390  177.8490  138.8870 N   0  0  0  0  0  0  0  0  0  0  0  0
  188.5960  177.9000  137.4760 C   0  0  2  0  0  3  0  0  0  0  0  0
  190.0540  177.2140  140.9760 C   0  0  0  0  0  3  0  0  0  0  0  0
  190.0990  177.2560  139.6370 C   0  0  0  0  0  0  0  0  0  0  0  0
  187.1150  177.6610  140.1470 C   0  0  0  0  0  2  0  0  0  0  0  0
  189.8140  177.2390  147.4350 C   0  0  0  0  0  3  0  0  0  0  0  0
  188.0290  177.6210  144.1910 C   0  0  0  0  0  2  0  0  0  0  0  0
  190.3860  176.9190  143.7810 C   0  0  0  0  0  2  0  0  0  0  0  0
  187.3290  178.3440  146.4910 C   0  0  0  0  0  2  0  0  0  0  0  0
  190.8170  177.2550  145.2050 C   0  0  0  0  0  2  0  0  0  0  0  0
  188.6830  177.4300  148.3560 C   0  0  0  0  0  3  0  0  0  0  0  0
  189.6390  177.3830  146.1220 C   0  0  0  0  0  0  0  0  0  0  0  0
  187.5160  177.9080  147.9200 C   0  0  0  0  0  3  0  0  0  0  0  0
  189.2680  177.8560  143.3290 C   0  0  1  0  0  3  0  0  0  0  0  0
  188.3440  177.7610  145.6090 N   0  0  0  0  0  0  0  0  0  0  0  0
  186.1030  177.8510  135.0550 F   0  0  0  0  0  0  0  0  0  0  0  0
  183.8470  176.2600  136.4360 C   0  0  0  0  0  0  0  0  0  0  0  0
  183.6310  177.3250  137.2180 C   0  0  0  0  0  3  0  0  0  0  0  0
  184.7140  178.2760  137.6390 C   0  0  0  0  0  2  0  0  0  0  0  0
  186.2630  176.9660  136.1070 C   0  0  1  0  0  3  0  0  0  0  0  0
  182.7670  175.4660  136.0710 O   0  0  0  0  0  1  0  0  0  0  0  0
  186.1120  177.6670  137.4560 C   0  0  1  0  0  3  0  0  0  0  0  0
  185.2290  175.8470  135.9970 C   0  0  0  0  0  2  0  0  0  0  0  0
  191.5340  177.4890  137.7800 F   0  0  0  0  0  0  0  0  0  0  0  0
  191.1210  175.4080  138.5230 F   0  0  0  0  0  0  0  0  0  0  0  0
  192.4060  176.8010  139.7400 F   0  0  0  0  0  0  0  0  0  0  0  0
  191.3030  176.7260  138.9100 C   0  0  0  0  0  0  0  0  0  0  0  0
  1 10  1  1  0  0  0
  2  3  2  0  0  0  0
  5 27  1  1  0  0  0
  5  1  1  0  0  0  0
  6  1  1  0  0  0  0
  6  9  1  0  0  0  0
  7  4  1  6  0  0  0
  7  5  1  0  0  0  0
  7  6  1  0  0  0  0
  8  3  1  0  0  0  0
  9  8  2  0  0  0  0
 10  2  1  0  0  0  0
 11 16  1  0  0  0  0
 12 20  1  0  0  0  0
 13 15  1  0  0  0  0
 14 18  1  0  0  0  0
 15 17  1  0  0  0  0
 17 11  2  0  0  0  0
 18 16  2  0  0  0  0
 19  3  1  6  0  0  0
 19 13  1  0  0  0  0
 19 12  1  0  0  0  0
 20 17  1  0  0  0  0
 20 14  1  0  0  0  0
 22 23  2  0  0  0  0
 23 24  1  0  0  0  0
 25 21  1  6  0  0  0
 25 27  1  0  0  0  0
 26 22  1  0  0  0  0
 27 24  1  6  0  0  0
 28 25  1  0  0  0  0
 28 22  1  0  0  0  0
 29 32  1  0  0  0  0
 30 32  1  0  0  0  0
 32  9  1  0  0  0  0
 32 31  1  0  0  0  0
M  END
>  <MODEL>
8

>  <REMARK>
 VINA RESULT:      -7.6      2.806      5.448
  Name = 
  3 active torsions:
  status: ('A' for Active; 'I' for Inactive)
    1  A    between atoms: C_9  and  C_25
    2  A    between atoms: C_15  and  C_27
    3  A    between atoms: C_29  and  C_31
                            x       y       z     vdW  Elec       q    Type
                         _______ _______ _______ _____ _____    ______ ____

>  <TORSDO>
F 3

$$$$
=
 OpenBabel11062414133D

 32 36  0  0  1  0  0  0  0  0999 V2000
  183.8370  179.1720  141.0550 N   0  0  2  0  0  0  0  0  0  0  0  0
  184.1600  177.9320  143.0980 C   0  0  0  0  0  3  0  0  0  0  0  0
  185.4880  177.9540  143.2830 C   0  0  0  0  0  0  0  0  0  0  0  0
  184.9590  180.4080  138.6630 O   0  0  0  0  0  1  0  0  0  0  0  0
  183.1590  179.4270  139.7960 C   0  0  1  0  0  3  0  0  0  0  0  0
  185.1030  178.9030  140.4640 N   0  0  0  0  0  0  0  0  0  0  0  0
  184.4610  179.2040  139.1650 C   0  0  2  0  0  3  0  0  0  0  0  0
  186.5120  178.0160  142.2020 C   0  0  0  0  0  3  0  0  0  0  0  0
  186.3560  178.4030  140.9280 C   0  0  0  0  0  0  0  0  0  0  0  0
  183.4560  177.9660  141.7800 C   0  0  0  0  0  2  0  0  0  0  0  0
  187.7700  178.6180  148.3950 C   0  0  0  0  0  3  0  0  0  0  0  0
  187.4860  177.8410  144.7650 C   0  0  0  0  0  2  0  0  0  0  0  0
  185.4180  178.9920  145.5470 C   0  0  0  0  0  2  0  0  0  0  0  0
  189.1660  177.0280  146.4430 C   0  0  0  0  0  2  0  0  0  0  0  0
  185.7550  178.7690  147.0180 C   0  0  0  0  0  2  0  0  0  0  0  0
  189.1680  178.2200  148.6180 C   0  0  0  0  0  3  0  0  0  0  0  0
  187.2010  178.4230  147.2060 C   0  0  0  0  0  0  0  0  0  0  0  0
  189.8350  177.5130  147.7020 C   0  0  0  0  0  3  0  0  0  0  0  0
  185.9600  177.8460  144.6980 C   0  0  1  0  0  3  0  0  0  0  0  0
  187.9490  177.7880  146.1480 N   0  0  0  0  0  0  0  0  0  0  0  0
  181.9540  178.9780  136.9540 F   0  0  0  0  0  0  0  0  0  0  0  0
  180.0720  176.8070  138.0820 C   0  0  0  0  0  0  0  0  0  0  0  0
  179.7060  177.6760  139.0320 C   0  0  0  0  0  3  0  0  0  0  0  0
  180.6230  178.7280  139.5900 C   0  0  0  0  0  2  0  0  0  0  0  0
  182.3110  177.9800  137.8420 C   0  0  1  0  0  3  0  0  0  0  0  0
  179.1340  175.9010  137.6060 O   0  0  0  0  0  1  0  0  0  0  0  0
  182.0970  178.4170  139.2910 C   0  0  1  0  0  3  0  0  0  0  0  0
  181.4860  176.7250  137.5630 C   0  0  0  0  0  2  0  0  0  0  0  0
  188.4390  179.3390  140.3390 F   0  0  0  0  0  0  0  0  0  0  0  0
  187.1260  178.5910  138.6750 F   0  0  0  0  0  0  0  0  0  0  0  0
  188.1310  177.1250  140.0580 F   0  0  0  0  0  0  0  0  0  0  0  0
  187.5250  178.3650  139.9830 C   0  0  0  0  0  0  0  0  0  0  0  0
  1 10  1  6  0  0  0
  2  3  2  0  0  0  0
  5 27  1  6  0  0  0
  5  1  1  0  0  0  0
  6  9  1  0  0  0  0
  6  1  1  0  0  0  0
  7  4  1  1  0  0  0
  7  5  1  0  0  0  0
  7  6  1  0  0  0  0
  8  3  1  0  0  0  0
  9  8  2  0  0  0  0
 10  2  1  0  0  0  0
 11 16  1  0  0  0  0
 12 20  1  0  0  0  0
 13 15  1  0  0  0  0
 14 18  1  0  0  0  0
 15 17  1  0  0  0  0
 17 11  2  0  0  0  0
 18 16  2  0  0  0  0
 19  3  1  6  0  0  0
 19 12  1  0  0  0  0
 19 13  1  0  0  0  0
 20 14  1  0  0  0  0
 20 17  1  0  0  0  0
 22 23  2  0  0  0  0
 23 24  1  0  0  0  0
 25 21  1  6  0  0  0
 25 27  1  0  0  0  0
 26 22  1  0  0  0  0
 27 24  1  6  0  0  0
 28 25  1  0  0  0  0
 28 22  1  0  0  0  0
 30 32  1  0  0  0  0
 32 31  1  0  0  0  0
 32 29  1  0  0  0  0
 32  9  1  0  0  0  0
M  END
>  <MODEL>
9

>  <REMARK>
 VINA RESULT:      -7.6      5.150      8.027
  Name = 
  3 active torsions:
  status: ('A' for Active; 'I' for Inactive)
    1  A    between atoms: C_9  and  C_25
    2  A    between atoms: C_15  and  C_27
    3  A    between atoms: C_29  and  C_31
                            x       y       z     vdW  Elec       q    Type
                         _______ _______ _______ _____ _____    ______ ____

>  <TORSDO>
F 3

$$$$
