=
 OpenBabel11062417103D

 36 39  0  0  1  0  0  0  0  0999 V2000
  188.2230  178.0790  147.0130 S   0  0  0  0  0  0  0  0  0  0  0  0
  187.1480  177.6480  144.5310 N   0  0  0  0  0  0  0  0  0  0  0  0
  186.8680  177.4280  145.9560 C   0  0  2  0  0  3  0  0  0  0  0  0
  190.7030  176.4830  144.2700 C   0  0  2  0  0  3  0  0  0  0  0  0
  190.2360  177.5030  139.5590 C   0  0  0  0  0  3  0  0  0  0  0  0
  190.0560  177.4930  140.8500 C   0  0  0  0  0  0  0  0  0  0  0  0
  189.5030  177.1830  146.1250 C   0  0  0  0  0  0  0  0  0  0  0  0
  191.6690  176.6660  145.4510 C   0  0  0  0  0  3  0  0  0  0  0  0
  189.8630  177.4800  142.1380 C   0  0  0  0  0  0  0  0  0  0  0  0
  191.0480  177.3770  143.0740 C   0  0  0  0  0  2  0  0  0  0  0  0
  189.4170  176.9300  144.8450 C   0  0  0  0  0  0  0  0  0  0  0  0
  190.8280  177.0160  146.5960 N   0  0  0  0  0  0  0  0  0  0  0  0
  188.3070  177.3780  144.0090 C   0  0  0  0  0  0  0  0  0  0  0  0
  188.5540  177.5710  142.6460 O   0  0  0  0  0  0  0  0  0  0  0  0
  185.5570  178.0940  146.3410 C   0  0  0  0  0  2  0  0  0  0  0  0
  185.2600  179.2850  145.4410 C   0  0  0  0  0  2  0  0  0  0  0  0
  182.1590  178.9280  143.5090 O   0  0  0  0  0  0  0  0  0  0  0  0
  183.3900  178.8890  143.7630 C   0  0  0  0  0  0  0  0  0  0  0  0
  183.8550  179.3020  145.0520 N   0  0  0  0  0  2  0  0  0  0  0  0
  184.3330  178.3840  142.7220 C   0  0  0  0  0  2  0  0  0  0  0  0
  184.8800  179.4600  142.0220 O   0  0  0  0  0  0  0  0  0  0  0  0
  184.8870  178.9740  140.4000 P   0  0  0  0  0  0  0  0  0  0  0  0
  184.2930  180.2190  139.4210 O   0  0  0  0  0  0  0  0  0  0  0  0
  184.0050  177.7580  140.2430 O   0  0  0  0  0  1  0  0  0  0  0  0
  186.4630  178.5830  139.9230 O   0  0  0  0  0  1  0  0  0  0  0  0
  190.2710  176.2160  138.7990 C   0  0  0  0  0  2  0  0  0  0  0  0
  187.5820  177.8850  135.6420 C   0  0  0  0  0  2  0  0  0  0  0  0
  186.9040  176.5750  136.6300 S   0  0  0  0  0  0  0  0  0  0  0  0
  189.0580  177.6240  135.4210 C   0  0  0  0  0  2  0  0  0  0  0  0
  189.3890  176.2330  137.5490 C   0  0  1  0  0  0  0  0  0  0  0  0
  186.7550  175.3300  135.8000 O   0  0  0  0  0  0  0  0  0  0  0  0
  187.9770  176.2780  137.9660 N   0  0  0  0  0  2  0  0  0  0  0  0
  189.7890  177.4900  136.7570 C   0  0  0  0  0  2  0  0  0  0  0  0
  185.5570  176.9860  137.1530 O   0  0  0  0  0  0  0  0  0  0  0  0
  189.9010  174.0230  136.1160 C   0  0  0  0  0  3  0  0  0  0  0  0
  189.6680  175.0150  136.7600 C   0  0  0  0  0  0  0  0  0  0  0  0
  2  3  1  0  0  0  0
  3 15  1  1  0  0  0
  3  1  1  0  0  0  0
  4 10  1  6  0  0  0
  4 11  1  0  0  0  0
  4  8  1  0  0  0  0
  5  6  2  0  0  0  0
  6  9  2  0  0  0  0
  7 12  1  0  0  0  0
  7  1  1  0  0  0  0
  8 12  2  0  0  0  0
  9 14  1  0  0  0  0
  9 10  1  0  0  0  0
 11  7  2  0  0  0  0
 13  2  2  0  0  0  0
 13 11  1  0  0  0  0
 14 13  1  0  0  0  0
 16 15  1  0  0  0  0
 17 18  2  0  0  0  0
 18 19  1  0  0  0  0
 19 16  1  0  0  0  0
 20 18  1  0  0  0  0
 21 20  1  0  0  0  0
 22 21  1  0  0  0  0
 23 22  2  0  0  0  0
 24 22  1  0  0  0  0
 25 22  1  0  0  0  0
 26  5  1  0  0  0  0
 27 28  1  0  0  0  0
 28 34  2  0  0  0  0
 28 32  1  0  0  0  0
 29 27  1  0  0  0  0
 29 33  1  0  0  0  0
 30 36  1  6  0  0  0
 30 32  1  0  0  0  0
 30 26  1  0  0  0  0
 31 28  2  0  0  0  0
 33 30  1  0  0  0  0
 35 36  3  0  0  0  0
M  END
>  <MODEL>
1

>  <REMARK>
 VINA RESULT:      -8.5      0.000      0.000
  Name = 
  9 active torsions:
  status: ('A' for Active; 'I' for Inactive)
    1  A    between atoms: C_3  and  C_8
    2  A    between atoms: C_3  and  C_36
    3  A    between atoms: C_5  and  C_11
    4  A    between atoms: P_7  and  O_14
    5  A    between atoms: C_11  and  O_14
    6  A    between atoms: C_12  and  C_32
    7  A    between atoms: C_17  and  C_26
    8  A    between atoms: C_17  and  C_32
    9  A    between atoms: N_18  and  C_36
                            x       y       z     vdW  Elec       q    Type
                         _______ _______ _______ _____ _____    ______ ____

>  <TORSDO>
F 9

$$$$
=
 OpenBabel11062417103D

 36 39  0  0  1  0  0  0  0  0999 V2000
  188.8470  177.7880  146.5050 S   0  0  0  0  0  0  0  0  0  0  0  0
  187.1780  177.7510  144.3340 N   0  0  0  0  0  0  0  0  0  0  0  0
  187.2190  177.3820  145.7550 C   0  0  2  0  0  3  0  0  0  0  0  0
  190.4250  176.3440  143.0920 C   0  0  2  0  0  3  0  0  0  0  0  0
  188.9730  177.9660  138.7660 C   0  0  0  0  0  3  0  0  0  0  0  0
  189.1020  177.8130  140.0540 C   0  0  0  0  0  0  0  0  0  0  0  0
  189.7770  176.9070  145.2450 C   0  0  0  0  0  0  0  0  0  0  0  0
  191.6550  176.3030  144.0110 C   0  0  0  0  0  3  0  0  0  0  0  0
  189.2190  177.6580  141.3420 C   0  0  0  0  0  0  0  0  0  0  0  0
  190.5720  177.3470  141.9430 C   0  0  0  0  0  2  0  0  0  0  0  0
  189.3650  176.8200  144.0080 C   0  0  0  0  0  0  0  0  0  0  0  0
  191.1500  176.5770  145.3570 N   0  0  0  0  0  0  0  0  0  0  0  0
  188.1460  177.4550  143.5190 C   0  0  0  0  0  0  0  0  0  0  0  0
  188.0840  177.7920  142.1630 O   0  0  0  0  0  0  0  0  0  0  0  0
  186.1150  178.1000  146.5150 C   0  0  0  0  0  2  0  0  0  0  0  0
  185.4710  179.1810  145.6590 C   0  0  0  0  0  2  0  0  0  0  0  0
  182.1490  178.7070  144.1730 O   0  0  0  0  0  0  0  0  0  0  0  0
  183.3830  178.9390  144.2280 C   0  0  0  0  0  0  0  0  0  0  0  0
  184.0440  178.9320  145.4970 N   0  0  0  0  0  2  0  0  0  0  0  0
  184.1340  179.1870  142.9620 C   0  0  0  0  0  2  0  0  0  0  0  0
  184.1460  178.0270  142.1880 O   0  0  0  0  0  0  0  0  0  0  0  0
  183.6450  178.5180  140.6470 P   0  0  0  0  0  0  0  0  0  0  0  0
  184.7510  179.6260  140.0050 O   0  0  0  0  0  1  0  0  0  0  0  0
  182.2910  179.1770  140.7530 O   0  0  0  0  0  1  0  0  0  0  0  0
  183.5320  177.1760  139.6230 O   0  0  0  0  0  0  0  0  0  0  0  0
  188.6900  176.7830  137.8970 C   0  0  0  0  0  2  0  0  0  0  0  0
  192.3250  174.2300  137.3980 C   0  0  0  0  0  2  0  0  0  0  0  0
  192.6000  175.9840  137.4030 S   0  0  0  0  0  0  0  0  0  0  0  0
  191.0060  173.9390  136.7110 C   0  0  0  0  0  2  0  0  0  0  0  0
  189.9440  176.2130  137.2310 C   0  0  1  0  0  0  0  0  0  0  0  0
  192.9950  176.4460  136.0270 O   0  0  0  0  0  0  0  0  0  0  0  0
  191.1310  176.7720  137.9000 N   0  0  0  0  0  2  0  0  0  0  0  0
  189.8630  174.6860  137.3980 C   0  0  0  0  0  2  0  0  0  0  0  0
  193.6980  176.3170  138.3720 O   0  0  0  0  0  0  0  0  0  0  0  0
  189.9090  176.8740  134.6310 C   0  0  0  0  0  3  0  0  0  0  0  0
  189.9230  176.5780  135.7990 C   0  0  0  0  0  0  0  0  0  0  0  0
  2  3  1  0  0  0  0
  3  1  1  0  0  0  0
  3 15  1  1  0  0  0
  4 10  1  6  0  0  0
  4 11  1  0  0  0  0
  4  8  1  0  0  0  0
  5  6  2  0  0  0  0
  6  9  2  0  0  0  0
  7 12  1  0  0  0  0
  7  1  1  0  0  0  0
  8 12  2  0  0  0  0
  9 10  1  0  0  0  0
  9 14  1  0  0  0  0
 11  7  2  0  0  0  0
 13 11  1  0  0  0  0
 13  2  2  0  0  0  0
 14 13  1  0  0  0  0
 16 15  1  0  0  0  0
 17 18  2  0  0  0  0
 18 19  1  0  0  0  0
 19 16  1  0  0  0  0
 20 18  1  0  0  0  0
 21 20  1  0  0  0  0
 22 24  1  0  0  0  0
 22 21  1  0  0  0  0
 23 22  1  0  0  0  0
 25 22  2  0  0  0  0
 26  5  1  0  0  0  0
 27 28  1  0  0  0  0
 28 32  1  0  0  0  0
 28 34  2  0  0  0  0
 29 27  1  0  0  0  0
 29 33  1  0  0  0  0
 30 36  1  6  0  0  0
 30 33  1  0  0  0  0
 30 26  1  0  0  0  0
 30 32  1  0  0  0  0
 31 28  2  0  0  0  0
 35 36  3  0  0  0  0
M  END
>  <MODEL>
2

>  <REMARK>
 VINA RESULT:      -8.3      2.181      2.765
  Name = 
  9 active torsions:
  status: ('A' for Active; 'I' for Inactive)
    1  A    between atoms: C_3  and  C_8
    2  A    between atoms: C_3  and  C_36
    3  A    between atoms: C_5  and  C_11
    4  A    between atoms: P_7  and  O_14
    5  A    between atoms: C_11  and  O_14
    6  A    between atoms: C_12  and  C_32
    7  A    between atoms: C_17  and  C_26
    8  A    between atoms: C_17  and  C_32
    9  A    between atoms: N_18  and  C_36
                            x       y       z     vdW  Elec       q    Type
                         _______ _______ _______ _____ _____    ______ ____

>  <TORSDO>
F 9

$$$$
=
 OpenBabel11062417103D

 36 39  0  0  1  0  0  0  0  0999 V2000
  191.9830  177.1650  142.7120 S   0  0  0  0  0  0  0  0  0  0  0  0
  189.4610  176.8820  143.7420 N   0  0  0  0  0  0  0  0  0  0  0  0
  190.7940  176.2670  143.7890 C   0  0  2  0  0  3  0  0  0  0  0  0
  188.9620  177.3300  140.0520 C   0  0  2  0  0  3  0  0  0  0  0  0
  184.6130  179.0640  141.2900 C   0  0  0  0  0  3  0  0  0  0  0  0
  185.8650  178.7040  141.3380 C   0  0  0  0  0  0  0  0  0  0  0  0
  190.9210  177.0720  141.2650 C   0  0  0  0  0  0  0  0  0  0  0  0
  190.1600  177.6280  139.1380 C   0  0  0  0  0  2  0  0  0  0  0  0
  187.1140  178.3380  141.3980 C   0  0  0  0  0  0  0  0  0  0  0  0
  188.0090  178.5220  140.1910 C   0  0  0  0  0  2  0  0  0  0  0  0
  189.6160  177.0870  141.3560 C   0  0  1  0  0  3  0  0  0  0  0  0
  191.3500  177.3550  139.9460 N   0  0  0  0  0  0  0  0  0  0  0  0
  188.8990  177.2200  142.6200 C   0  0  0  0  0  0  0  0  0  0  0  0
  187.6190  177.7850  142.5880 O   0  0  0  0  0  0  0  0  0  0  0  0
  191.3140  176.2500  145.2170 C   0  0  0  0  0  2  0  0  0  0  0  0
  190.7720  177.4300  146.0130 C   0  0  0  0  0  2  0  0  0  0  0  0
  188.0910  176.8290  148.4460 O   0  0  0  0  0  0  0  0  0  0  0  0
  188.6560  177.2710  147.4140 C   0  0  0  0  0  0  0  0  0  0  0  0
  190.0360  176.9700  147.1840 N   0  0  0  0  0  2  0  0  0  0  0  0
  187.8630  178.0750  146.4380 C   0  0  0  0  0  2  0  0  0  0  0  0
  186.6080  177.4940  146.2590 O   0  0  0  0  0  0  0  0  0  0  0  0
  185.5150  178.7860  146.2770 P   0  0  0  0  0  0  0  0  0  0  0  0
  185.4370  179.4980  144.7440 O   0  0  0  0  0  0  0  0  0  0  0  0
  185.9820  179.8170  147.2770 O   0  0  0  0  0  1  0  0  0  0  0  0
  183.9780  178.2350  146.7220 O   0  0  0  0  0  1  0  0  0  0  0  0
  183.5760  178.0960  140.8180 C   0  0  0  0  0  2  0  0  0  0  0  0
  179.1930  178.7500  140.2290 C   0  0  0  0  0  2  0  0  0  0  0  0
  180.1680  180.2080  140.5040 S   0  0  0  0  0  0  0  0  0  0  0  0
  179.7580  177.6140  141.0580 C   0  0  0  0  0  2  0  0  0  0  0  0
  182.1480  178.5360  141.1510 C   0  0  1  0  0  0  0  0  0  0  0  0
  179.8580  180.7860  141.8560 O   0  0  0  0  0  0  0  0  0  0  0  0
  181.8500  179.7740  140.4110 N   0  0  0  0  0  2  0  0  0  0  0  0
  181.2300  177.3790  140.7200 C   0  0  0  0  0  2  0  0  0  0  0  0
  179.8560  181.2270  139.4450 O   0  0  0  0  0  0  0  0  0  0  0  0
  181.9780  178.9320  143.7990 C   0  0  0  0  0  3  0  0  0  0  0  0
  182.0530  178.7560  142.6090 C   0  0  0  0  0  0  0  0  0  0  0  0
  1  3  1  0  0  0  0
  2  3  1  0  0  0  0
  3 15  1  1  0  0  0
  4  8  1  6  0  0  0
  4 10  1  0  0  0  0
  4 11  1  0  0  0  0
  5  6  2  0  0  0  0
  6  9  2  0  0  0  0
  7  1  1  0  0  0  0
  8 12  1  0  0  0  0
  9 14  1  0  0  0  0
 10  9  1  0  0  0  0
 11  7  1  1  0  0  0
 11 13  1  0  0  0  0
 12  7  2  0  0  0  0
 13  2  2  0  0  0  0
 14 13  1  0  0  0  0
 15 16  1  0  0  0  0
 16 19  1  0  0  0  0
 18 17  2  0  0  0  0
 19 18  1  0  0  0  0
 20 18  1  0  0  0  0
 21 22  1  0  0  0  0
 21 20  1  0  0  0  0
 22 25  1  0  0  0  0
 22 24  1  0  0  0  0
 23 22  2  0  0  0  0
 26  5  1  0  0  0  0
 27 28  1  0  0  0  0
 27 29  1  0  0  0  0
 28 31  2  0  0  0  0
 30 26  1  6  0  0  0
 30 36  1  0  0  0  0
 32 28  1  0  0  0  0
 32 30  1  0  0  0  0
 33 29  1  0  0  0  0
 33 30  1  0  0  0  0
 34 28  2  0  0  0  0
 36 35  3  0  0  0  0
M  END
>  <MODEL>
3

>  <REMARK>
 VINA RESULT:      -7.8      3.541      6.920
  Name = 
  9 active torsions:
  status: ('A' for Active; 'I' for Inactive)
    1  A    between atoms: C_3  and  C_8
    2  A    between atoms: C_3  and  C_36
    3  A    between atoms: C_5  and  C_11
    4  A    between atoms: P_7  and  O_14
    5  A    between atoms: C_11  and  O_14
    6  A    between atoms: C_12  and  C_32
    7  A    between atoms: C_17  and  C_26
    8  A    between atoms: C_17  and  C_32
    9  A    between atoms: N_18  and  C_36
                            x       y       z     vdW  Elec       q    Type
                         _______ _______ _______ _____ _____    ______ ____

>  <TORSDO>
F 9

$$$$
=
 OpenBabel11062417103D

 36 39  0  0  1  0  0  0  0  0999 V2000
  185.6510  178.8570  146.1010 S   0  0  0  0  0  0  0  0  0  0  0  0
  185.3870  178.3230  143.4280 N   0  0  0  0  0  0  0  0  0  0  0  0
  184.6550  178.2140  144.6970 C   0  0  2  0  0  3  0  0  0  0  0  0
  188.7460  176.9450  144.3700 C   0  0  2  0  0  3  0  0  0  0  0  0
  189.8690  177.6760  139.7170 C   0  0  0  0  0  3  0  0  0  0  0  0
  189.2890  177.7610  140.8810 C   0  0  0  0  0  0  0  0  0  0  0  0
  187.0760  177.8330  145.7110 C   0  0  0  0  0  0  0  0  0  0  0  0
  189.2990  177.1510  145.7890 C   0  0  0  0  0  3  0  0  0  0  0  0
  188.6990  177.8440  142.0400 C   0  0  0  0  0  0  0  0  0  0  0  0
  189.5160  177.7370  143.3090 C   0  0  0  0  0  2  0  0  0  0  0  0
  187.3800  177.5010  144.4830 C   0  0  0  0  0  0  0  0  0  0  0  0
  188.1670  177.6230  146.5880 N   0  0  0  0  0  0  0  0  0  0  0  0
  186.6290  177.9550  143.3170 C   0  0  0  0  0  0  0  0  0  0  0  0
  187.3070  178.0430  142.0970 O   0  0  0  0  0  0  0  0  0  0  0  0
  183.3430  178.9770  144.6120 C   0  0  0  0  0  2  0  0  0  0  0  0
  182.8000  178.9810  143.1900 C   0  0  0  0  0  2  0  0  0  0  0  0
  179.3800  178.2170  142.1000 O   0  0  0  0  0  0  0  0  0  0  0  0
  180.6220  178.3910  142.0170 C   0  0  0  0  0  0  0  0  0  0  0  0
  181.3590  178.7660  143.1850 N   0  0  0  0  0  2  0  0  0  0  0  0
  181.3020  178.1730  140.7070 C   0  0  0  0  0  2  0  0  0  0  0  0
  181.7120  179.3970  140.1800 O   0  0  0  0  0  0  0  0  0  0  0  0
  183.0970  179.0470  139.2710 P   0  0  0  0  0  0  0  0  0  0  0  0
  183.9800  180.4640  138.9940 O   0  0  0  0  0  1  0  0  0  0  0  0
  182.6830  178.4560  137.9450 O   0  0  0  0  0  0  0  0  0  0  0  0
  184.0630  177.9330  140.1000 O   0  0  0  0  0  1  0  0  0  0  0  0
  190.0460  176.3410  139.0660 C   0  0  0  0  0  2  0  0  0  0  0  0
  187.9380  177.6690  135.3540 C   0  0  0  0  0  2  0  0  0  0  0  0
  186.9900  176.6670  136.4720 S   0  0  0  0  0  0  0  0  0  0  0  0
  189.3780  177.1950  135.3670 C   0  0  0  0  0  2  0  0  0  0  0  0
  189.3010  176.2180  137.7350 C   0  0  1  0  0  0  0  0  0  0  0  0
  186.7510  175.3110  135.8700 O   0  0  0  0  0  0  0  0  0  0  0  0
  187.8760  176.5120  137.9620 N   0  0  0  0  0  2  0  0  0  0  0  0
  189.9490  177.2400  136.7840 C   0  0  0  0  0  2  0  0  0  0  0  0
  185.6700  177.3300  136.7430 O   0  0  0  0  0  0  0  0  0  0  0  0
  189.6300  173.7270  136.7970 C   0  0  0  0  0  3  0  0  0  0  0  0
  189.4830  174.8450  137.2210 C   0  0  0  0  0  0  0  0  0  0  0  0
  2  3  1  0  0  0  0
  3 15  1  6  0  0  0
  3  1  1  0  0  0  0
  4 10  1  6  0  0  0
  4 11  1  0  0  0  0
  4  8  1  0  0  0  0
  5  6  2  0  0  0  0
  6  9  2  0  0  0  0
  7  1  1  0  0  0  0
  7 12  1  0  0  0  0
  8 12  2  0  0  0  0
  9 14  1  0  0  0  0
  9 10  1  0  0  0  0
 11  7  2  0  0  0  0
 13  2  2  0  0  0  0
 13 11  1  0  0  0  0
 14 13  1  0  0  0  0
 16 15  1  0  0  0  0
 18 17  2  0  0  0  0
 18 19  1  0  0  0  0
 19 16  1  0  0  0  0
 20 18  1  0  0  0  0
 21 20  1  0  0  0  0
 22 25  1  0  0  0  0
 22 21  1  0  0  0  0
 23 22  1  0  0  0  0
 24 22  2  0  0  0  0
 26  5  1  0  0  0  0
 27 29  1  0  0  0  0
 27 28  1  0  0  0  0
 28 34  2  0  0  0  0
 28 32  1  0  0  0  0
 29 33  1  0  0  0  0
 30 36  1  6  0  0  0
 30 32  1  0  0  0  0
 30 26  1  0  0  0  0
 31 28  2  0  0  0  0
 33 30  1  0  0  0  0
 35 36  3  0  0  0  0
M  END
>  <MODEL>
4

>  <REMARK>
 VINA RESULT:      -7.7      1.668      2.092
  Name = 
  9 active torsions:
  status: ('A' for Active; 'I' for Inactive)
    1  A    between atoms: C_3  and  C_8
    2  A    between atoms: C_3  and  C_36
    3  A    between atoms: C_5  and  C_11
    4  A    between atoms: P_7  and  O_14
    5  A    between atoms: C_11  and  O_14
    6  A    between atoms: C_12  and  C_32
    7  A    between atoms: C_17  and  C_26
    8  A    between atoms: C_17  and  C_32
    9  A    between atoms: N_18  and  C_36
                            x       y       z     vdW  Elec       q    Type
                         _______ _______ _______ _____ _____    ______ ____

>  <TORSDO>
F 9

$$$$
=
 OpenBabel11062417103D

 36 39  0  0  1  0  0  0  0  0999 V2000
  188.8800  177.0870  146.6150 S   0  0  0  0  0  0  0  0  0  0  0  0
  188.7420  177.4500  143.9040 N   0  0  0  0  0  0  0  0  0  0  0  0
  189.6670  177.6000  145.0360 C   0  0  2  0  0  3  0  0  0  0  0  0
  185.6220  179.0300  145.2590 C   0  0  2  0  0  3  0  0  0  0  0  0
  183.7630  178.0780  140.8900 C   0  0  0  0  0  3  0  0  0  0  0  0
  184.5130  178.0360  141.9550 C   0  0  0  0  0  0  0  0  0  0  0  0
  187.4490  178.1490  146.3820 C   0  0  0  0  0  0  0  0  0  0  0  0
  185.2900  178.9330  146.7550 C   0  0  0  0  0  3  0  0  0  0  0  0
  185.2730  177.9940  143.0120 C   0  0  0  0  0  0  0  0  0  0  0  0
  184.6680  178.2130  144.3820 C   0  0  0  0  0  2  0  0  0  0  0  0
  186.9680  178.4210  145.1970 C   0  0  0  0  0  0  0  0  0  0  0  0
  186.5150  178.4590  147.4010 N   0  0  0  0  0  0  0  0  0  0  0  0
  187.5120  177.8670  143.9610 C   0  0  0  0  0  0  0  0  0  0  0  0
  186.6490  177.7370  142.8680 O   0  0  0  0  0  0  0  0  0  0  0  0
  190.9220  176.7760  144.8010 C   0  0  0  0  0  2  0  0  0  0  0  0
  190.9360  176.1830  143.3980 C   0  0  0  0  0  2  0  0  0  0  0  0
  192.5730  177.8770  140.5840 O   0  0  0  0  0  0  0  0  0  0  0  0
  191.6630  177.3040  141.2350 C   0  0  0  0  0  0  0  0  0  0  0  0
  191.9290  176.8500  142.5650 N   0  0  0  0  0  2  0  0  0  0  0  0
  190.3160  177.1400  140.6120 C   0  0  0  0  0  2  0  0  0  0  0  0
  190.3790  177.4790  139.2600 O   0  0  0  0  0  0  0  0  0  0  0  0
  188.8630  178.1420  138.9000 P   0  0  0  0  0  0  0  0  0  0  0  0
  187.8990  176.9910  138.1200 O   0  0  0  0  0  1  0  0  0  0  0  0
  189.0480  179.3310  137.9880 O   0  0  0  0  0  0  0  0  0  0  0  0
  188.1010  178.6460  140.3240 O   0  0  0  0  0  1  0  0  0  0  0  0
  183.5330  179.3790  140.1890 C   0  0  0  0  0  2  0  0  0  0  0  0
  180.9810  179.3940  136.5190 C   0  0  0  0  0  2  0  0  0  0  0  0
  180.7970  180.7890  137.6010 S   0  0  0  0  0  0  0  0  0  0  0  0
  181.2290  178.1520  137.3520 C   0  0  0  0  0  2  0  0  0  0  0  0
  182.2540  179.3900  139.3490 C   0  0  1  0  0  0  0  0  0  0  0  0
  179.4550  180.7410  138.2770 O   0  0  0  0  0  0  0  0  0  0  0  0
  182.0670  180.7390  138.7890 N   0  0  0  0  0  2  0  0  0  0  0  0
  182.4550  178.3370  138.2450 C   0  0  0  0  0  2  0  0  0  0  0  0
  180.9070  182.0590  136.8060 O   0  0  0  0  0  0  0  0  0  0  0  0
  180.1900  178.7150  140.9250 C   0  0  0  0  0  3  0  0  0  0  0  0
  181.1180  179.0160  140.2180 C   0  0  0  0  0  0  0  0  0  0  0  0
  2 13  2  0  0  0  0
  2  3  1  0  0  0  0
  3 15  1  6  0  0  0
  3  1  1  0  0  0  0
  4 10  1  6  0  0  0
  4  8  1  0  0  0  0
  5  6  2  0  0  0  0
  6  9  2  0  0  0  0
  7  1  1  0  0  0  0
  7 12  1  0  0  0  0
  8 12  2  0  0  0  0
  9 10  1  0  0  0  0
 11  4  1  0  0  0  0
 11  7  2  0  0  0  0
 13 11  1  0  0  0  0
 14  9  1  0  0  0  0
 14 13  1  0  0  0  0
 16 15  1  0  0  0  0
 17 18  2  0  0  0  0
 18 19  1  0  0  0  0
 19 16  1  0  0  0  0
 20 18  1  0  0  0  0
 21 20  1  0  0  0  0
 22 21  1  0  0  0  0
 22 25  1  0  0  0  0
 23 22  1  0  0  0  0
 24 22  2  0  0  0  0
 26  5  1  0  0  0  0
 27 29  1  0  0  0  0
 27 28  1  0  0  0  0
 28 31  2  0  0  0  0
 28 32  1  0  0  0  0
 29 33  1  0  0  0  0
 30 26  1  1  0  0  0
 30 36  1  0  0  0  0
 32 30  1  0  0  0  0
 33 30  1  0  0  0  0
 34 28  2  0  0  0  0
 36 35  3  0  0  0  0
M  END
>  <MODEL>
5

>  <REMARK>
 VINA RESULT:      -7.6      3.508      6.600
  Name = 
  9 active torsions:
  status: ('A' for Active; 'I' for Inactive)
    1  A    between atoms: C_3  and  C_8
    2  A    between atoms: C_3  and  C_36
    3  A    between atoms: C_5  and  C_11
    4  A    between atoms: P_7  and  O_14
    5  A    between atoms: C_11  and  O_14
    6  A    between atoms: C_12  and  C_32
    7  A    between atoms: C_17  and  C_26
    8  A    between atoms: C_17  and  C_32
    9  A    between atoms: N_18  and  C_36
                            x       y       z     vdW  Elec       q    Type
                         _______ _______ _______ _____ _____    ______ ____

>  <TORSDO>
F 9

$$$$
=
 OpenBabel11062417103D

 36 39  0  0  1  0  0  0  0  0999 V2000
  188.5460  177.1250  146.5500 S   0  0  0  0  0  0  0  0  0  0  0  0
  188.4970  177.4970  143.8370 N   0  0  0  0  0  0  0  0  0  0  0  0
  189.3820  177.6500  145.0000 C   0  0  2  0  0  3  0  0  0  0  0  0
  185.3220  179.0510  145.0900 C   0  0  2  0  0  3  0  0  0  0  0  0
  183.6180  178.1000  140.6580 C   0  0  0  0  0  3  0  0  0  0  0  0
  184.3320  178.0590  141.7480 C   0  0  0  0  0  0  0  0  0  0  0  0
  187.1160  178.1780  146.2720 C   0  0  0  0  0  0  0  0  0  0  0  0
  184.9400  178.9450  146.5750 C   0  0  0  0  0  3  0  0  0  0  0  0
  185.0560  178.0200  142.8300 C   0  0  0  0  0  0  0  0  0  0  0  0
  184.4040  178.2290  144.1790 C   0  0  0  0  0  2  0  0  0  0  0  0
  186.6740  178.4510  145.0720 C   0  0  0  0  0  0  0  0  0  0  0  0
  186.1460  178.4780  147.2590 N   0  0  0  0  0  0  0  0  0  0  0  0
  187.2630  177.9050  143.8540 C   0  0  0  0  0  0  0  0  0  0  0  0
  186.4380  177.7730  142.7320 O   0  0  0  0  0  0  0  0  0  0  0  0
  190.6500  176.8350  144.8040 C   0  0  0  0  0  2  0  0  0  0  0  0
  190.6860  176.1960  143.4230 C   0  0  0  0  0  2  0  0  0  0  0  0
  192.2340  177.8750  140.5500 O   0  0  0  0  0  0  0  0  0  0  0  0
  191.3520  177.2860  141.2240 C   0  0  0  0  0  0  0  0  0  0  0  0
  191.6460  176.8760  142.5630 N   0  0  0  0  0  2  0  0  0  0  0  0
  190.0070  177.0570  140.6190 C   0  0  0  0  0  2  0  0  0  0  0  0
  190.0750  177.2410  139.2390 O   0  0  0  0  0  0  0  0  0  0  0  0
  188.6690  178.0950  138.8360 P   0  0  0  0  0  0  0  0  0  0  0  0
  189.0560  179.4160  137.8520 O   0  0  0  0  0  0  0  0  0  0  0  0
  188.0150  178.5970  140.1020 O   0  0  0  0  0  1  0  0  0  0  0  0
  187.5910  177.0790  138.0190 O   0  0  0  0  0  1  0  0  0  0  0  0
  183.4020  179.4010  139.9540 C   0  0  0  0  0  2  0  0  0  0  0  0
  179.9610  177.7000  137.6630 C   0  0  0  0  0  2  0  0  0  0  0  0
  181.3280  178.2860  136.6940 S   0  0  0  0  0  0  0  0  0  0  0  0
  179.7900  178.5990  138.8710 C   0  0  0  0  0  2  0  0  0  0  0  0
  182.2360  179.3620  138.9650 C   0  0  1  0  0  0  0  0  0  0  0  0
  180.9340  179.5320  135.9510 O   0  0  0  0  0  0  0  0  0  0  0  0
  182.6590  178.6240  137.7620 N   0  0  0  0  0  2  0  0  0  0  0  0
  181.0790  178.6530  139.6910 C   0  0  0  0  0  2  0  0  0  0  0  0
  181.7360  177.2290  135.7090 O   0  0  0  0  0  0  0  0  0  0  0  0
  181.5570  181.8840  138.3510 C   0  0  0  0  0  3  0  0  0  0  0  0
  181.8590  180.7510  138.6270 C   0  0  0  0  0  0  0  0  0  0  0  0
  2 13  2  0  0  0  0
  2  3  1  0  0  0  0
  3 15  1  6  0  0  0
  3  1  1  0  0  0  0
  4 10  1  6  0  0  0
  4  8  1  0  0  0  0
  5  6  2  0  0  0  0
  6  9  2  0  0  0  0
  7  1  1  0  0  0  0
  7 12  1  0  0  0  0
  8 12  2  0  0  0  0
  9 10  1  0  0  0  0
 11  4  1  0  0  0  0
 11  7  2  0  0  0  0
 13 11  1  0  0  0  0
 14  9  1  0  0  0  0
 14 13  1  0  0  0  0
 16 15  1  0  0  0  0
 17 18  2  0  0  0  0
 18 19  1  0  0  0  0
 19 16  1  0  0  0  0
 20 18  1  0  0  0  0
 21 20  1  0  0  0  0
 22 21  1  0  0  0  0
 22 24  1  0  0  0  0
 23 22  2  0  0  0  0
 25 22  1  0  0  0  0
 26  5  1  0  0  0  0
 27 29  1  0  0  0  0
 28 27  1  0  0  0  0
 28 32  1  0  0  0  0
 29 33  1  0  0  0  0
 30 36  1  6  0  0  0
 30 33  1  0  0  0  0
 30 26  1  0  0  0  0
 31 28  2  0  0  0  0
 32 30  1  0  0  0  0
 34 28  2  0  0  0  0
 35 36  3  0  0  0  0
M  END
>  <MODEL>
6

>  <REMARK>
 VINA RESULT:      -7.6      3.439      6.472
  Name = 
  9 active torsions:
  status: ('A' for Active; 'I' for Inactive)
    1  A    between atoms: C_3  and  C_8
    2  A    between atoms: C_3  and  C_36
    3  A    between atoms: C_5  and  C_11
    4  A    between atoms: P_7  and  O_14
    5  A    between atoms: C_11  and  O_14
    6  A    between atoms: C_12  and  C_32
    7  A    between atoms: C_17  and  C_26
    8  A    between atoms: C_17  and  C_32
    9  A    between atoms: N_18  and  C_36
                            x       y       z     vdW  Elec       q    Type
                         _______ _______ _______ _____ _____    ______ ____

>  <TORSDO>
F 9

$$$$
=
 OpenBabel11062417103D

 36 39  0  0  1  0  0  0  0  0999 V2000
  188.2250  177.9790  146.2600 S   0  0  0  0  0  0  0  0  0  0  0  0
  187.0280  177.2670  143.9020 N   0  0  0  0  0  0  0  0  0  0  0  0
  186.8660  177.1360  145.3560 C   0  0  2  0  0  3  0  0  0  0  0  0
  190.6480  176.3900  143.4610 C   0  0  2  0  0  3  0  0  0  0  0  0
  189.7730  176.9990  138.7380 C   0  0  0  0  0  3  0  0  0  0  0  0
  189.6820  177.0730  140.0360 C   0  0  0  0  0  0  0  0  0  0  0  0
  189.5180  177.1280  145.3460 C   0  0  0  0  0  0  0  0  0  0  0  0
  191.6700  176.7450  144.5510 C   0  0  0  0  0  3  0  0  0  0  0  0
  189.5790  177.1440  141.3320 C   0  0  0  0  0  0  0  0  0  0  0  0
  190.8290  177.2140  142.1830 C   0  0  0  0  0  2  0  0  0  0  0  0
  189.3680  176.7700  144.0970 C   0  0  0  0  0  0  0  0  0  0  0  0
  190.8810  177.1100  145.7280 N   0  0  0  0  0  0  0  0  0  0  0  0
  188.1690  177.0570  143.3160 C   0  0  0  0  0  0  0  0  0  0  0  0
  188.3050  177.1640  141.9280 O   0  0  0  0  0  0  0  0  0  0  0  0
  185.5290  177.7160  145.7890 C   0  0  0  0  0  2  0  0  0  0  0  0
  185.2660  179.0550  145.1120 C   0  0  0  0  0  2  0  0  0  0  0  0
  182.0040  179.2190  143.4380 O   0  0  0  0  0  0  0  0  0  0  0  0
  183.2430  179.0510  143.5720 C   0  0  0  0  0  0  0  0  0  0  0  0
  183.8420  179.2350  144.8580 N   0  0  0  0  0  2  0  0  0  0  0  0
  184.0520  178.6330  142.3900 C   0  0  0  0  0  2  0  0  0  0  0  0
  183.3210  178.8450  141.2210 O   0  0  0  0  0  0  0  0  0  0  0  0
  184.4800  179.0010  139.9960 P   0  0  0  0  0  0  0  0  0  0  0  0
  184.4310  177.6500  138.9790 O   0  0  0  0  0  0  0  0  0  0  0  0
  185.8510  179.0990  140.6220 O   0  0  0  0  0  1  0  0  0  0  0  0
  184.1790  180.3990  139.0930 O   0  0  0  0  0  1  0  0  0  0  0  0
  189.8720  175.6640  138.0710 C   0  0  0  0  0  2  0  0  0  0  0  0
  192.6660  174.5660  134.7590 C   0  0  0  0  0  2  0  0  0  0  0  0
  192.8390  173.6390  136.2630 S   0  0  0  0  0  0  0  0  0  0  0  0
  192.3050  175.9980  135.1000 C   0  0  0  0  0  2  0  0  0  0  0  0
  191.2040  175.4510  137.3490 C   0  0  1  0  0  0  0  0  0  0  0  0
  194.1280  174.0030  136.9450 O   0  0  0  0  0  0  0  0  0  0  0  0
  191.4900  174.0070  137.2970 N   0  0  0  0  0  2  0  0  0  0  0  0
  191.0310  176.0480  135.9410 C   0  0  0  0  0  2  0  0  0  0  0  0
  192.8410  172.1700  135.9500 O   0  0  0  0  0  0  0  0  0  0  0  0
  193.1200  176.7600  138.6970 C   0  0  0  0  0  3  0  0  0  0  0  0
  192.2600  176.1730  138.0890 C   0  0  0  0  0  0  0  0  0  0  0  0
  2  3  1  0  0  0  0
  3 15  1  1  0  0  0
  3  1  1  0  0  0  0
  4 10  1  6  0  0  0
  4 11  1  0  0  0  0
  4  8  1  0  0  0  0
  5  6  2  0  0  0  0
  6  9  2  0  0  0  0
  7 12  1  0  0  0  0
  7  1  1  0  0  0  0
  8 12  2  0  0  0  0
  9 14  1  0  0  0  0
  9 10  1  0  0  0  0
 11  7  2  0  0  0  0
 13  2  2  0  0  0  0
 13 11  1  0  0  0  0
 14 13  1  0  0  0  0
 16 15  1  0  0  0  0
 17 18  2  0  0  0  0
 18 19  1  0  0  0  0
 19 16  1  0  0  0  0
 20 18  1  0  0  0  0
 21 20  1  0  0  0  0
 22 24  1  0  0  0  0
 22 21  1  0  0  0  0
 23 22  2  0  0  0  0
 25 22  1  0  0  0  0
 26  5  1  0  0  0  0
 27 29  1  0  0  0  0
 27 28  1  0  0  0  0
 28 31  2  0  0  0  0
 28 32  1  0  0  0  0
 29 33  1  0  0  0  0
 30 26  1  1  0  0  0
 30 36  1  0  0  0  0
 32 30  1  0  0  0  0
 33 30  1  0  0  0  0
 34 28  2  0  0  0  0
 36 35  3  0  0  0  0
M  END
>  <MODEL>
7

>  <REMARK>
 VINA RESULT:      -7.6      2.490      3.019
  Name = 
  9 active torsions:
  status: ('A' for Active; 'I' for Inactive)
    1  A    between atoms: C_3  and  C_8
    2  A    between atoms: C_3  and  C_36
    3  A    between atoms: C_5  and  C_11
    4  A    between atoms: P_7  and  O_14
    5  A    between atoms: C_11  and  O_14
    6  A    between atoms: C_12  and  C_32
    7  A    between atoms: C_17  and  C_26
    8  A    between atoms: C_17  and  C_32
    9  A    between atoms: N_18  and  C_36
                            x       y       z     vdW  Elec       q    Type
                         _______ _______ _______ _____ _____    ______ ____

>  <TORSDO>
F 9

$$$$
=
 OpenBabel11062417103D

 36 39  0  0  1  0  0  0  0  0999 V2000
  187.9740  177.8160  141.8600 S   0  0  0  0  0  0  0  0  0  0  0  0
  190.5470  176.9530  141.4930 N   0  0  0  0  0  0  0  0  0  0  0  0
  189.7510  177.8640  142.3260 C   0  0  2  0  0  3  0  0  0  0  0  0
  189.2980  177.7830  138.0550 C   0  0  2  0  0  3  0  0  0  0  0  0
  192.5620  174.5350  136.5560 C   0  0  0  0  0  3  0  0  0  0  0  0
  191.7220  175.1960  137.3020 C   0  0  0  0  0  0  0  0  0  0  0  0
  188.3030  178.1280  140.1200 C   0  0  0  0  0  0  0  0  0  0  0  0
  187.8370  178.2080  137.8420 C   0  0  0  0  0  2  0  0  0  0  0  0
  190.8920  175.8590  138.0560 C   0  0  0  0  0  0  0  0  0  0  0  0
  189.6100  176.4050  137.4650 C   0  0  0  0  0  2  0  0  0  0  0  0
  189.3890  177.7030  139.5290 C   0  0  1  0  0  3  0  0  0  0  0  0
  187.3110  178.4930  139.1780 N   0  0  0  0  0  0  0  0  0  0  0  0
  190.4120  176.9080  140.2010 C   0  0  0  0  0  0  0  0  0  0  0  0
  191.1930  176.0510  139.4170 O   0  0  0  0  0  0  0  0  0  0  0  0
  189.9020  177.4990  143.7940 C   0  0  0  0  0  2  0  0  0  0  0  0
  188.5940  177.6970  144.5480 C   0  0  0  0  0  2  0  0  0  0  0  0
  188.0400  177.7330  148.1760 O   0  0  0  0  0  0  0  0  0  0  0  0
  187.7630  177.7630  146.9500 C   0  0  0  0  0  0  0  0  0  0  0  0
  188.8180  177.6790  145.9880 N   0  0  0  0  0  2  0  0  0  0  0  0
  186.3340  177.8570  146.5290 C   0  0  0  0  0  2  0  0  0  0  0  0
  186.0380  179.1680  146.1570 O   0  0  0  0  0  0  0  0  0  0  0  0
  184.8840  179.0290  144.9260 P   0  0  0  0  0  0  0  0  0  0  0  0
  183.3310  178.9650  145.5940 O   0  0  0  0  0  1  0  0  0  0  0  0
  185.1400  177.7600  144.1490 O   0  0  0  0  0  1  0  0  0  0  0  0
  184.9940  180.3540  143.8800 O   0  0  0  0  0  0  0  0  0  0  0  0
  193.6340  175.2630  135.8120 C   0  0  0  0  0  2  0  0  0  0  0  0
  196.8510  172.7560  137.6430 C   0  0  0  0  0  2  0  0  0  0  0  0
  196.6490  174.3830  138.3240 S   0  0  0  0  0  0  0  0  0  0  0  0
  196.5880  172.8090  136.1500 C   0  0  0  0  0  2  0  0  0  0  0  0
  195.0460  174.8540  136.2400 C   0  0  1  0  0  0  0  0  0  0  0  0
  197.8240  175.2440  137.9540 O   0  0  0  0  0  0  0  0  0  0  0  0
  195.1820  175.0690  137.6910 N   0  0  0  0  0  2  0  0  0  0  0  0
  195.1950  173.3690  135.8680 C   0  0  0  0  0  2  0  0  0  0  0  0
  196.5530  174.2920  139.8200 O   0  0  0  0  0  0  0  0  0  0  0  0
  196.8120  176.3480  134.8800 C   0  0  0  0  0  3  0  0  0  0  0  0
  196.0200  175.6750  135.4900 C   0  0  0  0  0  0  0  0  0  0  0  0
  1  3  1  0  0  0  0
  2  3  1  0  0  0  0
  3 15  1  1  0  0  0
  4 10  1  6  0  0  0
  4 11  1  0  0  0  0
  5  6  2  0  0  0  0
  6  9  2  0  0  0  0
  7  1  1  0  0  0  0
  8  4  1  0  0  0  0
  8 12  1  0  0  0  0
  9 14  1  0  0  0  0
 10  9  1  0  0  0  0
 11  7  1  6  0  0  0
 11 13  1  0  0  0  0
 12  7  2  0  0  0  0
 13  2  2  0  0  0  0
 14 13  1  0  0  0  0
 15 16  1  0  0  0  0
 16 19  1  0  0  0  0
 18 17  2  0  0  0  0
 19 18  1  0  0  0  0
 20 18  1  0  0  0  0
 21 20  1  0  0  0  0
 22 23  1  0  0  0  0
 22 21  1  0  0  0  0
 24 22  1  0  0  0  0
 25 22  2  0  0  0  0
 26 30  1  0  0  0  0
 26  5  1  0  0  0  0
 27 28  1  0  0  0  0
 28 34  2  0  0  0  0
 29 27  1  0  0  0  0
 30 36  1  6  0  0  0
 30 32  1  0  0  0  0
 31 28  2  0  0  0  0
 32 28  1  0  0  0  0
 33 29  1  0  0  0  0
 33 30  1  0  0  0  0
 35 36  3  0  0  0  0
M  END
>  <MODEL>
8

>  <REMARK>
 VINA RESULT:      -7.5      4.750      6.604
  Name = 
  9 active torsions:
  status: ('A' for Active; 'I' for Inactive)
    1  A    between atoms: C_3  and  C_8
    2  A    between atoms: C_3  and  C_36
    3  A    between atoms: C_5  and  C_11
    4  A    between atoms: P_7  and  O_14
    5  A    between atoms: C_11  and  O_14
    6  A    between atoms: C_12  and  C_32
    7  A    between atoms: C_17  and  C_26
    8  A    between atoms: C_17  and  C_32
    9  A    between atoms: N_18  and  C_36
                            x       y       z     vdW  Elec       q    Type
                         _______ _______ _______ _____ _____    ______ ____

>  <TORSDO>
F 9

$$$$
=
 OpenBabel11062417103D

 36 39  0  0  1  0  0  0  0  0999 V2000
  187.6990  177.8920  141.8910 S   0  0  0  0  0  0  0  0  0  0  0  0
  190.2730  177.0020  141.6010 N   0  0  0  0  0  0  0  0  0  0  0  0
  189.4580  177.9080  142.4220 C   0  0  2  0  0  3  0  0  0  0  0  0
  189.1620  177.9140  138.1370 C   0  0  2  0  0  3  0  0  0  0  0  0
  192.4390  174.6530  136.6960 C   0  0  0  0  0  3  0  0  0  0  0  0
  191.5810  175.3110  137.4230 C   0  0  0  0  0  0  0  0  0  0  0  0
  188.0960  178.2320  140.1710 C   0  0  0  0  0  0  0  0  0  0  0  0
  187.7160  178.3620  137.8790 C   0  0  0  0  0  2  0  0  0  0  0  0
  190.7310  175.9700  138.1590 C   0  0  0  0  0  0  0  0  0  0  0  0
  189.4790  176.5430  137.5310 C   0  0  0  0  0  2  0  0  0  0  0  0
  189.1980  177.8050  139.6120 C   0  0  1  0  0  3  0  0  0  0  0  0
  187.1440  178.6280  139.2000 N   0  0  0  0  0  0  0  0  0  0  0  0
  190.1860  176.9840  140.3050 C   0  0  0  0  0  0  0  0  0  0  0  0
  190.9840  176.1320  139.5330 O   0  0  0  0  0  0  0  0  0  0  0  0
  189.5510  177.5130  143.8870 C   0  0  0  0  0  2  0  0  0  0  0  0
  190.8510  178.0060  144.5090 C   0  0  0  0  0  2  0  0  0  0  0  0
  192.4190  175.4000  146.5640 O   0  0  0  0  0  0  0  0  0  0  0  0
  191.6820  176.3770  146.2760 C   0  0  0  0  0  0  0  0  0  0  0  0
  191.6770  176.8840  144.9390 N   0  0  0  0  0  2  0  0  0  0  0  0
  190.8070  176.9650  147.3330 C   0  0  0  0  0  2  0  0  0  0  0  0
  189.5390  176.3870  147.2690 O   0  0  0  0  0  0  0  0  0  0  0  0
  188.4780  177.5870  147.8150 P   0  0  0  0  0  0  0  0  0  0  0  0
  189.3520  178.8770  148.4730 O   0  0  0  0  0  1  0  0  0  0  0  0
  187.5790  177.0050  148.8810 O   0  0  0  0  0  1  0  0  0  0  0  0
  187.5280  178.1460  146.5310 O   0  0  0  0  0  0  0  0  0  0  0  0
  193.5470  175.3810  136.0060 C   0  0  0  0  0  2  0  0  0  0  0  0
  196.6200  172.8010  137.9770 C   0  0  0  0  0  2  0  0  0  0  0  0
  196.5900  174.5020  138.4840 S   0  0  0  0  0  0  0  0  0  0  0  0
  196.2930  172.7200  136.4990 C   0  0  0  0  0  2  0  0  0  0  0  0
  194.9370  174.8940  136.4230 C   0  0  1  0  0  0  0  0  0  0  0  0
  197.8160  175.2110  137.9780 O   0  0  0  0  0  0  0  0  0  0  0  0
  195.1590  175.2470  137.8350 N   0  0  0  0  0  2  0  0  0  0  0  0
  194.9410  173.3700  136.2090 C   0  0  0  0  0  2  0  0  0  0  0  0
  196.5560  174.5790  139.9840 O   0  0  0  0  0  0  0  0  0  0  0  0
  196.7640  176.0640  134.8440 C   0  0  0  0  0  3  0  0  0  0  0  0
  195.9420  175.5400  135.5520 C   0  0  0  0  0  0  0  0  0  0  0  0
  1  3  1  0  0  0  0
  2  3  1  0  0  0  0
  3 15  1  1  0  0  0
  4 10  1  6  0  0  0
  4 11  1  0  0  0  0
  5  6  2  0  0  0  0
  6  9  2  0  0  0  0
  7  1  1  0  0  0  0
  8  4  1  0  0  0  0
  8 12  1  0  0  0  0
  9 14  1  0  0  0  0
 10  9  1  0  0  0  0
 11  7  1  6  0  0  0
 11 13  1  0  0  0  0
 12  7  2  0  0  0  0
 13  2  2  0  0  0  0
 14 13  1  0  0  0  0
 15 16  1  0  0  0  0
 16 19  1  0  0  0  0
 18 17  2  0  0  0  0
 18 20  1  0  0  0  0
 19 18  1  0  0  0  0
 21 20  1  0  0  0  0
 21 22  1  0  0  0  0
 22 23  1  0  0  0  0
 22 24  1  0  0  0  0
 25 22  2  0  0  0  0
 26 30  1  0  0  0  0
 26  5  1  0  0  0  0
 27 28  1  0  0  0  0
 28 34  2  0  0  0  0
 29 27  1  0  0  0  0
 30 36  1  6  0  0  0
 30 32  1  0  0  0  0
 31 28  2  0  0  0  0
 32 28  1  0  0  0  0
 33 30  1  0  0  0  0
 33 29  1  0  0  0  0
 35 36  3  0  0  0  0
M  END
>  <MODEL>
9

>  <REMARK>
 VINA RESULT:      -7.5      5.082      7.478
  Name = 
  9 active torsions:
  status: ('A' for Active; 'I' for Inactive)
    1  A    between atoms: C_3  and  C_8
    2  A    between atoms: C_3  and  C_36
    3  A    between atoms: C_5  and  C_11
    4  A    between atoms: P_7  and  O_14
    5  A    between atoms: C_11  and  O_14
    6  A    between atoms: C_12  and  C_32
    7  A    between atoms: C_17  and  C_26
    8  A    between atoms: C_17  and  C_32
    9  A    between atoms: N_18  and  C_36
                            x       y       z     vdW  Elec       q    Type
                         _______ _______ _______ _____ _____    ______ ____

>  <TORSDO>
F 9

$$$$
