=
 OpenBabel11062416563D

 56 63  0  0  1  0  0  0  0  0999 V2000
  184.6080  178.4640  146.2800 C   0  0  0  0  0  2  0  0  0  0  0  0
  185.9960  178.9460  146.6990 C   0  0  0  0  0  2  0  0  0  0  0  0
  187.0600  178.1750  145.9750 C   0  0  0  0  0  0  0  0  0  0  0  0
  188.1720  177.9920  146.5340 O   0  0  0  0  0  0  0  0  0  0  0  0
  183.2460  178.7270  144.1890 C   0  0  0  0  0  3  0  0  0  0  0  0
  184.2020  178.3390  142.0030 C   0  0  0  0  0  3  0  0  0  0  0  0
  183.0940  178.6820  142.7940 C   0  0  0  0  0  0  0  0  0  0  0  0
  185.4280  178.0240  142.5940 C   0  0  0  0  0  3  0  0  0  0  0  0
  185.5720  178.0570  143.9940 C   0  0  0  0  0  0  0  0  0  0  0  0
  186.8280  177.7170  144.6250 N   0  0  0  0  0  0  0  0  0  0  0  0
  184.4780  178.4400  144.7870 C   0  0  0  0  0  0  0  0  0  0  0  0
  187.8590  176.9500  143.9130 C   0  0  2  0  0  3  0  0  0  0  0  0
  189.2310  177.5300  144.2010 C   0  0  0  0  0  2  0  0  0  0  0  0
  188.5560  177.8360  142.8930 C   0  0  1  0  0  3  0  0  0  0  0  0
  189.3220  176.8200  141.5990 S   0  0  0  0  0  0  0  0  0  0  0  0
  188.1500  178.9540  140.5550 O   0  0  0  0  0  0  0  0  0  0  0  0
  188.4080  177.2230  138.9970 N   0  0  0  0  0  2  0  0  0  0  0  0
  188.5490  177.7850  140.3060 C   0  0  0  0  0  0  0  0  0  0  0  0
  187.9660  177.9790  137.8300 C   0  0  1  0  0  3  0  0  0  0  0  0
  189.0150  179.0050  137.4410 C   0  0  0  0  0  1  0  0  0  0  0  0
  187.7850  177.0240  136.6640 C   0  0  0  0  0  2  0  0  0  0  0  0
  186.8580  175.8840  137.0370 C   0  0  1  0  0  3  0  0  0  0  0  0
  185.5560  176.3830  137.1990 O   0  0  0  0  0  1  0  0  0  0  0  0
  187.2380  173.5550  136.5050 N   0  0  0  0  0  0  0  0  0  0  0  0
  189.5920  174.4690  135.4370 N   0  0  0  0  0  2  0  0  0  0  0  0
  188.2400  174.3160  135.8640 C   0  0  0  0  0  0  0  0  0  0  0  0
  186.9640  174.7810  135.9680 C   0  0  2  0  0  3  0  0  0  0  0  0
  190.5240  173.4340  135.5820 N   0  0  0  0  0  2  0  0  0  0  0  0
  191.3900  173.7500  136.7070 C   0  0  0  0  0  2  0  0  0  0  0  0
  191.1460  175.1850  137.1540 C   0  0  1  0  0  3  0  0  0  0  0  0
  190.7590  175.2150  138.4960 O   0  0  0  0  0  1  0  0  0  0  0  0
  195.3000  175.5620  136.5390 N   0  0  0  0  0  2  0  0  0  0  0  0
  193.0140  175.7870  135.5380 C   0  0  0  0  0  2  0  0  0  0  0  0
  194.4730  176.2500  135.5340 C   0  0  0  0  0  2  0  0  0  0  0  0
  194.5390  175.0090  137.6690 C   0  0  0  0  0  2  0  0  0  0  0  0
  192.3740  176.0570  136.9090 C   0  0  0  0  0  3  0  0  0  0  0  0
  193.3690  175.9110  138.0660 C   0  0  0  0  0  2  0  0  0  0  0  0
  180.8690  179.8590  142.8630 C   0  0  0  0  0  1  0  0  0  0  0  0
  181.8240  178.9900  142.1820 N   0  0  0  0  0  0  0  0  0  0  0  0
  180.6360  177.4130  140.8780 O   0  0  0  0  0  1  0  0  0  0  0  0
  181.5220  178.4940  140.8340 C   0  0  1  0  0  3  0  0  0  0  0  0
  180.0060  177.6240  136.4120 C   0  0  1  0  0  3  0  0  0  0  0  0
  180.0330  174.9600  137.4160 S   0  0  0  0  0  1  0  0  0  0  0  0
  179.1880  177.2680  138.6920 C   0  0  0  0  0  2  0  0  0  0  0  0
  183.3490  180.0520  139.3140 O   0  0  0  0  0  1  0  0  0  0  0  0
  179.6330  178.9870  136.9920 C   0  0  2  0  0  3  0  0  0  0  0  0
  180.6650  179.9470  136.8860 O   0  0  0  0  0  0  0  0  0  0  0  0
  181.5270  177.4650  136.4330 C   0  0  1  0  0  3  0  0  0  0  0  0
  181.8790  179.5160  137.4930 C   0  0  1  0  0  3  0  0  0  0  0  0
  182.1690  177.8860  135.1180 C   0  0  0  0  0  1  0  0  0  0  0  0
  179.2820  176.6240  137.3280 C   0  0  1  0  0  3  0  0  0  0  0  0
  182.0310  180.1560  138.8660 C   0  0  1  0  0  3  0  0  0  0  0  0
  181.0410  179.6340  139.9150 C   0  0  1  0  0  3  0  0  0  0  0  0
  179.0800  178.7530  138.4030 C   0  0  2  0  0  3  0  0  0  0  0  0
  182.0920  178.1110  137.5490 O   0  0  0  0  0  0  0  0  0  0  0  0
  179.5490  179.6830  139.5340 C   0  0  0  0  0  2  0  0  0  0  0  0
  1  2  1  0  0  0  0
  3  4  2  0  0  0  0
  3  2  1  0  0  0  0
  5 11  1  0  0  0  0
  6  8  2  0  0  0  0
  6  7  1  0  0  0  0
  7  5  2  0  0  0  0
  8  9  1  0  0  0  0
  9 10  1  0  0  0  0
  9 11  2  0  0  0  0
 10  3  1  0  0  0  0
 11  1  1  0  0  0  0
 12 13  1  1  0  0  0
 12 10  1  0  0  0  0
 14 15  1  6  0  0  0
 14 12  1  0  0  0  0
 14 13  1  0  0  0  0
 17 18  1  0  0  0  0
 18 16  2  0  0  0  0
 18 15  1  0  0  0  0
 19 20  1  6  0  0  0
 19 17  1  0  0  0  0
 21 22  1  0  0  0  0
 21 19  1  0  0  0  0
 22 23  1  6  0  0  0
 25 28  1  0  0  0  0
 25 26  1  0  0  0  0
 26 27  1  0  0  0  0
 26 24  2  0  0  0  0
 27 24  1  0  0  0  0
 27 22  1  1  0  0  0
 28 29  1  0  0  0  0
 29 30  1  0  0  0  0
 30 31  1  1  0  0  0
 32 35  1  0  0  0  0
 33 36  1  0  0  0  0
 34 33  1  0  0  0  0
 34 32  1  0  0  0  0
 35 37  1  0  0  0  0
 36 30  1  0  0  0  0
 36 37  1  0  0  0  0
 39  7  1  0  0  0  0
 39 38  1  0  0  0  0
 41 40  1  1  0  0  0
 41 39  1  0  0  0  0
 42 48  1  0  0  0  0
 42 46  1  0  0  0  0
 42 51  1  0  0  0  0
 46 54  1  0  0  0  0
 47 46  1  0  0  0  0
 47 49  1  0  0  0  0
 48 55  1  0  0  0  0
 49 55  1  0  0  0  0
 49 52  1  0  0  0  0
 50 48  1  0  0  0  0
 51 43  1  0  0  0  0
 51 44  1  0  0  0  0
 52 45  1  0  0  0  0
 52 53  1  0  0  0  0
 53 41  1  0  0  0  0
 54 44  1  0  0  0  0
 54 56  1  0  0  0  0
 56 53  1  0  0  0  0
M  END
>  <MODEL>
1

>  <REMARK>
 VINA RESULT:      -8.5      0.000      0.000
  Name = 
  14 active torsions:
  status: ('A' for Active; 'I' for Inactive)
    1  A    between atoms: C_2  and  N_32
    2  A    between atoms: C_2  and  C_41
    3  A    between atoms: N_6  and  N_20
    4  A    between atoms: C_10  and  C_48
    5  A    between atoms: C_10  and  C_49
    6  A    between atoms: C_18  and  N_36
    7  A    between atoms: C_18  and  C_53
    8  A    between atoms: N_20  and  C_48
    9  A    between atoms: C_25  and  N_50
   10  A    between atoms: N_32  and  C_39
   11  A    between atoms: C_33  and  C_35
   12  A    between atoms: C_35  and  C_53
   13  A    between atoms: C_40  and  S_47
   14  A    between atoms: C_45  and  S_47
                            x       y       z     vdW  Elec       q    Type
                         _______ _______ _______ _____ _____    ______ ____

>  <TORSDO>
F 14

$$$$
=
 OpenBabel11062416563D

 56 63  0  0  1  0  0  0  0  0999 V2000
  185.8330  178.7150  142.1100 C   0  0  0  0  0  2  0  0  0  0  0  0
  186.7310  177.5520  142.5300 C   0  0  0  0  0  2  0  0  0  0  0  0
  186.8600  177.5030  144.0240 C   0  0  0  0  0  0  0  0  0  0  0  0
  187.9190  177.0510  144.5330 O   0  0  0  0  0  0  0  0  0  0  0  0
  183.3620  179.1270  142.2460 C   0  0  0  0  0  3  0  0  0  0  0  0
  182.1240  178.7150  144.2810 C   0  0  0  0  0  3  0  0  0  0  0  0
  182.1430  179.1420  142.9440 C   0  0  0  0  0  0  0  0  0  0  0  0
  183.3000  178.3060  144.9150 C   0  0  0  0  0  3  0  0  0  0  0  0
  184.5210  178.3060  144.2150 C   0  0  0  0  0  0  0  0  0  0  0  0
  185.7520  177.9030  144.8590 N   0  0  0  0  0  0  0  0  0  0  0  0
  184.5380  178.6920  142.8650 C   0  0  0  0  0  0  0  0  0  0  0  0
  185.8750  177.8710  146.3230 C   0  0  2  0  0  3  0  0  0  0  0  0
  185.9830  179.2830  146.8670 C   0  0  0  0  0  2  0  0  0  0  0  0
  187.2210  178.4390  146.7440 C   0  0  1  0  0  3  0  0  0  0  0  0
  187.6690  177.8310  148.3950 S   0  0  0  0  0  0  0  0  0  0  0  0
  190.2000  178.5500  148.6980 O   0  0  0  0  0  0  0  0  0  0  0  0
  189.8950  177.0950  146.8890 N   0  0  0  0  0  2  0  0  0  0  0  0
  189.4110  177.8640  147.9950 C   0  0  0  0  0  0  0  0  0  0  0  0
  191.3090  176.9010  146.5870 C   0  0  1  0  0  3  0  0  0  0  0  0
  191.9360  175.9570  147.5970 C   0  0  0  0  0  1  0  0  0  0  0  0
  191.4380  176.2730  145.2120 C   0  0  0  0  0  2  0  0  0  0  0  0
  191.1550  177.2910  144.1240 C   0  0  1  0  0  3  0  0  0  0  0  0
  191.7730  178.5060  144.4560 O   0  0  0  0  0  1  0  0  0  0  0  0
  192.1570  177.6700  141.9550 N   0  0  0  0  0  0  0  0  0  0  0  0
  189.6250  177.2060  141.0110 N   0  0  0  0  0  2  0  0  0  0  0  0
  190.8440  177.1900  141.7480 C   0  0  0  0  0  0  0  0  0  0  0  0
  191.6130  176.7190  142.7700 C   0  0  2  0  0  3  0  0  0  0  0  0
  189.4900  177.9650  139.8410 N   0  0  0  0  0  2  0  0  0  0  0  0
  188.1710  177.7140  139.2810 C   0  0  0  0  0  2  0  0  0  0  0  0
  188.0880  178.3090  137.8820 C   0  0  1  0  0  3  0  0  0  0  0  0
  189.0280  179.3320  137.7340 O   0  0  0  0  0  1  0  0  0  0  0  0
  189.8620  174.7170  136.5650 N   0  0  0  0  0  2  0  0  0  0  0  0
  187.7520  175.8610  137.2800 C   0  0  0  0  0  2  0  0  0  0  0  0
  188.3940  174.7450  136.4530 C   0  0  0  0  0  2  0  0  0  0  0  0
  190.4620  176.0020  136.9550 C   0  0  0  0  0  2  0  0  0  0  0  0
  188.2650  177.2330  136.8130 C   0  0  0  0  0  3  0  0  0  0  0  0
  189.7210  177.1890  136.3380 C   0  0  0  0  0  2  0  0  0  0  0  0
  179.8200  180.1020  143.0900 C   0  0  0  0  0  1  0  0  0  0  0  0
  180.9300  179.5810  142.2980 N   0  0  0  0  0  0  0  0  0  0  0  0
  182.0820  179.3080  140.2490 O   0  0  0  0  0  1  0  0  0  0  0  0
  180.8400  179.5810  140.8330 C   0  0  1  0  0  3  0  0  0  0  0  0
  181.6090  176.4410  137.3470 C   0  0  1  0  0  3  0  0  0  0  0  0
  184.3050  177.1630  137.9110 S   0  0  0  0  0  1  0  0  0  0  0  0
  182.2400  176.7020  139.6980 C   0  0  0  0  0  2  0  0  0  0  0  0
  178.9310  180.4260  138.9060 O   0  0  0  0  0  1  0  0  0  0  0  0
  180.3590  176.2080  138.1940 C   0  0  2  0  0  3  0  0  0  0  0  0
  179.2540  176.9950  137.7960 O   0  0  0  0  0  0  0  0  0  0  0  0
  181.5460  177.8360  136.7240 C   0  0  1  0  0  3  0  0  0  0  0  0
  179.5450  178.3890  137.7950 C   0  0  1  0  0  3  0  0  0  0  0  0
  180.9440  177.8170  135.3260 C   0  0  0  0  0  1  0  0  0  0  0  0
  182.7660  176.2770  138.3460 C   0  0  1  0  0  3  0  0  0  0  0  0
  178.9880  179.0390  139.0540 C   0  0  1  0  0  3  0  0  0  0  0  0
  179.7220  178.6430  140.3410 C   0  0  1  0  0  3  0  0  0  0  0  0
  180.7700  176.3300  139.6660 C   0  0  2  0  0  3  0  0  0  0  0  0
  180.9050  178.7500  137.5820 O   0  0  0  0  0  0  0  0  0  0  0  0
  179.8640  177.1330  140.6130 C   0  0  0  0  0  2  0  0  0  0  0  0
  1  2  1  0  0  0  0
  1 11  1  0  0  0  0
  2  3  1  0  0  0  0
  3  4  2  0  0  0  0
  3 10  1  0  0  0  0
  5 11  2  0  0  0  0
  5  7  1  0  0  0  0
  6  8  1  0  0  0  0
  7  6  2  0  0  0  0
  9 10  1  0  0  0  0
  9  8  2  0  0  0  0
 11  9  1  0  0  0  0
 12 10  1  6  0  0  0
 12 14  1  0  0  0  0
 12 13  1  0  0  0  0
 14 13  1  0  0  0  0
 14 15  1  1  0  0  0
 17 18  1  0  0  0  0
 18 15  1  0  0  0  0
 18 16  2  0  0  0  0
 19 17  1  0  0  0  0
 19 20  1  1  0  0  0
 21 19  1  0  0  0  0
 22 23  1  1  0  0  0
 22 21  1  0  0  0  0
 24 27  1  0  0  0  0
 25 26  1  0  0  0  0
 26 24  2  0  0  0  0
 26 27  1  0  0  0  0
 27 22  1  1  0  0  0
 28 25  1  0  0  0  0
 29 28  1  0  0  0  0
 30 31  1  1  0  0  0
 30 29  1  0  0  0  0
 32 35  1  0  0  0  0
 34 32  1  0  0  0  0
 34 33  1  0  0  0  0
 36 33  1  0  0  0  0
 36 30  1  0  0  0  0
 37 36  1  0  0  0  0
 37 35  1  0  0  0  0
 39  7  1  0  0  0  0
 39 38  1  0  0  0  0
 41 40  1  6  0  0  0
 41 39  1  0  0  0  0
 42 46  1  0  0  0  0
 42 51  1  0  0  0  0
 43 51  1  0  0  0  0
 45 52  1  0  0  0  0
 46 54  1  0  0  0  0
 47 46  1  0  0  0  0
 48 42  1  0  0  0  0
 48 55  1  0  0  0  0
 49 47  1  0  0  0  0
 49 52  1  0  0  0  0
 50 48  1  0  0  0  0
 51 44  1  0  0  0  0
 52 53  1  0  0  0  0
 53 56  1  0  0  0  0
 53 41  1  0  0  0  0
 54 44  1  0  0  0  0
 54 56  1  0  0  0  0
 55 49  1  0  0  0  0
M  END
>  <MODEL>
2

>  <REMARK>
 VINA RESULT:      -8.5      2.327      5.140
  Name = 
  14 active torsions:
  status: ('A' for Active; 'I' for Inactive)
    1  A    between atoms: C_2  and  N_32
    2  A    between atoms: C_2  and  C_41
    3  A    between atoms: N_6  and  N_20
    4  A    between atoms: C_10  and  C_48
    5  A    between atoms: C_10  and  C_49
    6  A    between atoms: C_18  and  N_36
    7  A    between atoms: C_18  and  C_53
    8  A    between atoms: N_20  and  C_48
    9  A    between atoms: C_25  and  N_50
   10  A    between atoms: N_32  and  C_39
   11  A    between atoms: C_33  and  C_35
   12  A    between atoms: C_35  and  C_53
   13  A    between atoms: C_40  and  S_47
   14  A    between atoms: C_45  and  S_47
                            x       y       z     vdW  Elec       q    Type
                         _______ _______ _______ _____ _____    ______ ____

>  <TORSDO>
F 14

$$$$
=
 OpenBabel11062416563D

 56 63  0  0  1  0  0  0  0  0999 V2000
  185.3040  178.4680  147.0140 C   0  0  0  0  0  2  0  0  0  0  0  0
  186.6140  179.0140  147.5820 C   0  0  0  0  0  2  0  0  0  0  0  0
  187.7790  178.2200  147.0700 C   0  0  0  0  0  0  0  0  0  0  0  0
  188.8060  178.1050  147.7890 O   0  0  0  0  0  0  0  0  0  0  0  0
  184.2420  178.5460  144.7420 C   0  0  0  0  0  3  0  0  0  0  0  0
  185.4970  178.0260  142.7430 C   0  0  0  0  0  3  0  0  0  0  0  0
  184.2850  178.3970  143.3460 C   0  0  0  0  0  0  0  0  0  0  0  0
  186.6340  177.7850  143.5190 C   0  0  0  0  0  3  0  0  0  0  0  0
  186.5820  177.9230  144.9180 C   0  0  0  0  0  0  0  0  0  0  0  0
  187.7430  177.6600  145.7390 N   0  0  0  0  0  0  0  0  0  0  0  0
  185.3830  178.3340  145.5230 C   0  0  0  0  0  0  0  0  0  0  0  0
  188.8750  176.8700  145.2350 C   0  0  2  0  0  3  0  0  0  0  0  0
  190.0950  177.7560  145.0680 C   0  0  0  0  0  2  0  0  0  0  0  0
  189.2870  177.3710  143.8590 C   0  0  1  0  0  3  0  0  0  0  0  0
  190.1800  176.0720  142.9610 S   0  0  0  0  0  0  0  0  0  0  0  0
  189.4460  178.0750  141.3920 O   0  0  0  0  0  0  0  0  0  0  0  0
  190.5580  176.3810  140.2170 N   0  0  0  0  0  2  0  0  0  0  0  0
  190.0190  176.9530  141.4140 C   0  0  0  0  0  0  0  0  0  0  0  0
  190.6480  177.0880  138.9450 C   0  0  1  0  0  3  0  0  0  0  0  0
  191.8210  176.5670  138.1360 C   0  0  0  0  0  1  0  0  0  0  0  0
  189.3800  176.8360  138.1500 C   0  0  0  0  0  2  0  0  0  0  0  0
  189.1400  177.9480  137.1470 C   0  0  1  0  0  3  0  0  0  0  0  0
  189.6860  177.5760  135.9080 O   0  0  0  0  0  1  0  0  0  0  0  0
  186.9910  177.9610  138.2570 N   0  0  0  0  0  0  0  0  0  0  0  0
  186.3910  175.9260  136.5200 N   0  0  0  0  0  2  0  0  0  0  0  0
  186.8940  177.1110  137.1330 C   0  0  0  0  0  0  0  0  0  0  0  0
  187.6330  178.2540  137.0870 C   0  0  2  0  0  3  0  0  0  0  0  0
  185.4750  175.0960  137.1790 N   0  0  0  0  0  2  0  0  0  0  0  0
  185.0510  174.0550  136.2550 C   0  0  0  0  0  2  0  0  0  0  0  0
  183.6960  174.4170  135.6640 C   0  0  1  0  0  3  0  0  0  0  0  0
  183.8550  175.3010  134.5940 O   0  0  0  0  0  1  0  0  0  0  0  0
  180.9540  171.3390  136.5520 N   0  0  0  0  0  2  0  0  0  0  0  0
  181.4070  173.4080  135.2120 C   0  0  0  0  0  2  0  0  0  0  0  0
  180.6590  172.0760  135.3110 C   0  0  0  0  0  2  0  0  0  0  0  0
  182.2400  171.6930  137.1700 C   0  0  0  0  0  2  0  0  0  0  0  0
  182.9250  173.1680  135.2430 C   0  0  0  0  0  3  0  0  0  0  0  0
  183.3190  171.9780  136.1240 C   0  0  0  0  0  2  0  0  0  0  0  0
  181.8540  179.0280  143.1750 C   0  0  0  0  0  1  0  0  0  0  0  0
  183.1080  178.6280  142.5450 N   0  0  0  0  0  0  0  0  0  0  0  0
  182.8990  177.2470  140.6350 O   0  0  0  0  0  1  0  0  0  0  0  0
  183.1900  178.5400  141.0820 C   0  0  1  0  0  3  0  0  0  0  0  0
  180.1250  177.4410  137.6170 C   0  0  1  0  0  3  0  0  0  0  0  0
  180.6940  174.8180  138.5690 S   0  0  0  0  0  1  0  0  0  0  0  0
  180.2810  177.1280  140.0400 C   0  0  0  0  0  2  0  0  0  0  0  0
  184.1870  180.1270  138.9470 O   0  0  0  0  0  1  0  0  0  0  0  0
  179.9280  178.8050  138.2770 C   0  0  2  0  0  3  0  0  0  0  0  0
  180.7810  179.8080  137.7630 O   0  0  0  0  0  0  0  0  0  0  0  0
  181.5400  177.3550  137.0440 C   0  0  1  0  0  3  0  0  0  0  0  0
  182.1580  179.4570  137.8530 C   0  0  1  0  0  3  0  0  0  0  0  0
  181.5940  177.7590  135.5780 C   0  0  0  0  0  1  0  0  0  0  0  0
  179.8730  176.4410  138.7580 C   0  0  1  0  0  3  0  0  0  0  0  0
  182.7950  180.1530  139.0490 C   0  0  1  0  0  3  0  0  0  0  0  0
  182.3240  179.6210  140.4080 C   0  0  1  0  0  3  0  0  0  0  0  0
  179.9840  178.5950  139.7950 C   0  0  2  0  0  3  0  0  0  0  0  0
  182.4570  178.0670  137.8410 O   0  0  0  0  0  0  0  0  0  0  0  0
  180.8010  179.5850  140.6400 C   0  0  0  0  0  2  0  0  0  0  0  0
  1  2  1  0  0  0  0
  3  2  1  0  0  0  0
  3  4  2  0  0  0  0
  5 11  1  0  0  0  0
  6  7  1  0  0  0  0
  6  8  2  0  0  0  0
  7  5  2  0  0  0  0
  8  9  1  0  0  0  0
  9 11  2  0  0  0  0
  9 10  1  0  0  0  0
 10  3  1  0  0  0  0
 11  1  1  0  0  0  0
 12 13  1  1  0  0  0
 12 10  1  0  0  0  0
 14 15  1  6  0  0  0
 14 13  1  0  0  0  0
 14 12  1  0  0  0  0
 16 18  2  0  0  0  0
 17 18  1  0  0  0  0
 18 15  1  0  0  0  0
 19 20  1  6  0  0  0
 19 17  1  0  0  0  0
 21 19  1  0  0  0  0
 22 23  1  6  0  0  0
 22 21  1  0  0  0  0
 25 26  1  0  0  0  0
 25 28  1  0  0  0  0
 26 24  2  0  0  0  0
 27 26  1  0  0  0  0
 27 22  1  1  0  0  0
 27 24  1  0  0  0  0
 29 28  1  0  0  0  0
 30 31  1  6  0  0  0
 30 29  1  0  0  0  0
 32 35  1  0  0  0  0
 33 36  1  0  0  0  0
 33 34  1  0  0  0  0
 34 32  1  0  0  0  0
 36 30  1  0  0  0  0
 36 37  1  0  0  0  0
 37 35  1  0  0  0  0
 39 38  1  0  0  0  0
 39  7  1  0  0  0  0
 41 40  1  6  0  0  0
 41 39  1  0  0  0  0
 42 46  1  0  0  0  0
 42 51  1  0  0  0  0
 43 51  1  0  0  0  0
 45 52  1  0  0  0  0
 46 54  1  0  0  0  0
 47 49  1  0  0  0  0
 47 46  1  0  0  0  0
 48 42  1  0  0  0  0
 48 55  1  0  0  0  0
 49 52  1  0  0  0  0
 50 48  1  0  0  0  0
 51 44  1  0  0  0  0
 52 53  1  0  0  0  0
 53 56  1  0  0  0  0
 53 41  1  0  0  0  0
 54 44  1  0  0  0  0
 54 56  1  0  0  0  0
 55 49  1  0  0  0  0
M  END
>  <MODEL>
3

>  <REMARK>
 VINA RESULT:      -8.4      2.289      4.897
  Name = 
  14 active torsions:
  status: ('A' for Active; 'I' for Inactive)
    1  A    between atoms: C_2  and  N_32
    2  A    between atoms: C_2  and  C_41
    3  A    between atoms: N_6  and  N_20
    4  A    between atoms: C_10  and  C_48
    5  A    between atoms: C_10  and  C_49
    6  A    between atoms: C_18  and  N_36
    7  A    between atoms: C_18  and  C_53
    8  A    between atoms: N_20  and  C_48
    9  A    between atoms: C_25  and  N_50
   10  A    between atoms: N_32  and  C_39
   11  A    between atoms: C_33  and  C_35
   12  A    between atoms: C_35  and  C_53
   13  A    between atoms: C_40  and  S_47
   14  A    between atoms: C_45  and  S_47
                            x       y       z     vdW  Elec       q    Type
                         _______ _______ _______ _____ _____    ______ ____

>  <TORSDO>
F 14

$$$$
=
 OpenBabel11062416563D

 56 63  0  0  1  0  0  0  0  0999 V2000
  188.8350  176.7060  138.9560 C   0  0  0  0  0  2  0  0  0  0  0  0
  188.4120  177.9190  139.7840 C   0  0  0  0  0  2  0  0  0  0  0  0
  189.2220  178.0030  141.0440 C   0  0  0  0  0  0  0  0  0  0  0  0
  188.7070  178.5160  142.0710 O   0  0  0  0  0  0  0  0  0  0  0  0
  190.8630  176.1780  137.5770 C   0  0  0  0  0  3  0  0  0  0  0  0
  193.0960  176.5680  138.4160 C   0  0  0  0  0  3  0  0  0  0  0  0
  192.2530  176.1170  137.3880 C   0  0  0  0  0  0  0  0  0  0  0  0
  192.5630  177.0460  139.6160 C   0  0  0  0  0  3  0  0  0  0  0  0
  191.1700  177.0920  139.8060 C   0  0  0  0  0  0  0  0  0  0  0  0
  190.5990  177.5660  141.0470 N   0  0  0  0  0  0  0  0  0  0  0  0
  190.3210  176.6810  138.7650 C   0  0  0  0  0  0  0  0  0  0  0  0
  191.3960  177.6320  142.2800 C   0  0  2  0  0  3  0  0  0  0  0  0
  191.3010  176.3190  143.0320 C   0  0  0  0  0  2  0  0  0  0  0  0
  190.4900  177.4980  143.4930 C   0  0  1  0  0  3  0  0  0  0  0  0
  191.2930  178.2110  144.9570 S   0  0  0  0  0  0  0  0  0  0  0  0
  190.4920  176.3650  146.6800 O   0  0  0  0  0  0  0  0  0  0  0  0
  188.8250  177.9450  146.2230 N   0  0  0  0  0  2  0  0  0  0  0  0
  190.1370  177.4000  146.0540 C   0  0  0  0  0  0  0  0  0  0  0  0
  187.8710  177.4790  147.2240 C   0  0  1  0  0  3  0  0  0  0  0  0
  187.9300  178.3610  148.4570 C   0  0  0  0  0  1  0  0  0  0  0  0
  186.4700  177.5660  146.6480 C   0  0  0  0  0  2  0  0  0  0  0  0
  186.4870  178.2180  145.2790 C   0  0  1  0  0  3  0  0  0  0  0  0
  186.4370  177.2220  144.2930 O   0  0  0  0  0  1  0  0  0  0  0  0
  184.1050  178.6390  145.3390 N   0  0  0  0  0  0  0  0  0  0  0  0
  184.4030  179.1270  142.6570 N   0  0  0  0  0  2  0  0  0  0  0  0
  184.5830  179.0290  144.0680 C   0  0  0  0  0  0  0  0  0  0  0  0
  185.3280  179.2280  145.1910 C   0  0  2  0  0  3  0  0  0  0  0  0
  183.1950  178.7640  142.0490 N   0  0  0  0  0  2  0  0  0  0  0  0
  183.4970  177.9880  140.8560 C   0  0  0  0  0  2  0  0  0  0  0  0
  183.3420  178.8660  139.6220 C   0  0  1  0  0  3  0  0  0  0  0  0
  184.4430  179.7170  139.4930 O   0  0  0  0  0  1  0  0  0  0  0  0
  184.5160  175.6700  137.1340 N   0  0  0  0  0  2  0  0  0  0  0  0
  182.7740  176.5680  138.6950 C   0  0  0  0  0  2  0  0  0  0  0  0
  183.0910  175.6590  137.5060 C   0  0  0  0  0  2  0  0  0  0  0  0
  185.2380  176.8800  137.5550 C   0  0  0  0  0  2  0  0  0  0  0  0
  183.1410  178.0240  138.3650 C   0  0  0  0  0  3  0  0  0  0  0  0
  184.3660  178.1320  137.4500 C   0  0  0  0  0  2  0  0  0  0  0  0
  192.0290  175.6570  134.9230 C   0  0  0  0  0  1  0  0  0  0  0  0
  192.8070  175.6080  136.1570 N   0  0  0  0  0  0  0  0  0  0  0  0
  195.1040  176.1550  136.3030 O   0  0  0  0  0  1  0  0  0  0  0  0
  194.1880  175.1130  136.1250 C   0  0  1  0  0  3  0  0  0  0  0  0
  198.2390  172.6260  136.2310 C   0  0  1  0  0  3  0  0  0  0  0  0
  199.0870  174.8070  134.6090 S   0  0  0  0  0  1  0  0  0  0  0  0
  197.4930  174.8670  136.8730 C   0  0  0  0  0  2  0  0  0  0  0  0
  193.2360  172.4940  135.5730 O   0  0  0  0  0  1  0  0  0  0  0  0
  197.3340  172.4840  137.4540 C   0  0  2  0  0  3  0  0  0  0  0  0
  196.2890  171.5490  137.2760 O   0  0  0  0  0  0  0  0  0  0  0  0
  197.4640  172.2180  134.9770 C   0  0  1  0  0  3  0  0  0  0  0  0
  195.4750  171.8460  136.1450 C   0  0  1  0  0  3  0  0  0  0  0  0
  197.6790  170.7550  134.6170 C   0  0  0  0  0  1  0  0  0  0  0  0
  198.6370  174.1110  136.2390 C   0  0  1  0  0  3  0  0  0  0  0  0
  194.1900  172.5290  136.5910 C   0  0  1  0  0  3  0  0  0  0  0  0
  194.3900  173.9550  137.1210 C   0  0  1  0  0  3  0  0  0  0  0  0
  196.9060  173.8940  137.8770 C   0  0  2  0  0  3  0  0  0  0  0  0
  196.1030  172.5600  135.0860 O   0  0  0  0  0  0  0  0  0  0  0  0
  195.4320  174.1300  138.2430 C   0  0  0  0  0  2  0  0  0  0  0  0
  1  2  1  0  0  0  0
  2  3  1  0  0  0  0
  3 10  1  0  0  0  0
  3  4  2  0  0  0  0
  5 11  1  0  0  0  0
  6  8  2  0  0  0  0
  7  5  2  0  0  0  0
  7  6  1  0  0  0  0
  8  9  1  0  0  0  0
  9 10  1  0  0  0  0
 11  1  1  0  0  0  0
 11  9  2  0  0  0  0
 12 10  1  6  0  0  0
 12 13  1  0  0  0  0
 12 14  1  0  0  0  0
 13 14  1  0  0  0  0
 14 15  1  1  0  0  0
 15 18  1  0  0  0  0
 17 19  1  0  0  0  0
 18 17  1  0  0  0  0
 18 16  2  0  0  0  0
 19 20  1  1  0  0  0
 21 19  1  0  0  0  0
 22 23  1  6  0  0  0
 22 21  1  0  0  0  0
 25 26  1  0  0  0  0
 26 27  1  0  0  0  0
 26 24  2  0  0  0  0
 27 22  1  6  0  0  0
 27 24  1  0  0  0  0
 28 25  1  0  0  0  0
 29 28  1  0  0  0  0
 30 31  1  6  0  0  0
 30 29  1  0  0  0  0
 32 34  1  0  0  0  0
 32 35  1  0  0  0  0
 34 33  1  0  0  0  0
 36 33  1  0  0  0  0
 36 30  1  0  0  0  0
 37 35  1  0  0  0  0
 37 36  1  0  0  0  0
 38 39  1  0  0  0  0
 39  7  1  0  0  0  0
 41 39  1  0  0  0  0
 41 40  1  1  0  0  0
 41 53  1  0  0  0  0
 42 51  1  0  0  0  0
 42 46  1  0  0  0  0
 43 51  1  0  0  0  0
 44 54  1  0  0  0  0
 45 52  1  0  0  0  0
 46 54  1  0  0  0  0
 47 46  1  0  0  0  0
 48 55  1  0  0  0  0
 48 42  1  0  0  0  0
 49 52  1  0  0  0  0
 49 47  1  0  0  0  0
 50 48  1  0  0  0  0
 51 44  1  0  0  0  0
 52 53  1  0  0  0  0
 53 56  1  0  0  0  0
 54 56  1  0  0  0  0
 55 49  1  0  0  0  0
M  END
>  <MODEL>
4

>  <REMARK>
 VINA RESULT:      -8.0      3.364     11.921
  Name = 
  14 active torsions:
  status: ('A' for Active; 'I' for Inactive)
    1  A    between atoms: C_2  and  N_32
    2  A    between atoms: C_2  and  C_41
    3  A    between atoms: N_6  and  N_20
    4  A    between atoms: C_10  and  C_48
    5  A    between atoms: C_10  and  C_49
    6  A    between atoms: C_18  and  N_36
    7  A    between atoms: C_18  and  C_53
    8  A    between atoms: N_20  and  C_48
    9  A    between atoms: C_25  and  N_50
   10  A    between atoms: N_32  and  C_39
   11  A    between atoms: C_33  and  C_35
   12  A    between atoms: C_35  and  C_53
   13  A    between atoms: C_40  and  S_47
   14  A    between atoms: C_45  and  S_47
                            x       y       z     vdW  Elec       q    Type
                         _______ _______ _______ _____ _____    ______ ____

>  <TORSDO>
F 14

$$$$
=
 OpenBabel11062416563D

 56 63  0  0  1  0  0  0  0  0999 V2000
  188.8640  176.5910  138.7870 C   0  0  0  0  0  2  0  0  0  0  0  0
  188.4020  177.8090  139.5870 C   0  0  0  0  0  2  0  0  0  0  0  0
  189.2220  177.9590  140.8350 C   0  0  0  0  0  0  0  0  0  0  0  0
  188.6980  178.4780  141.8540 O   0  0  0  0  0  0  0  0  0  0  0  0
  190.8970  176.1070  137.4000 C   0  0  0  0  0  3  0  0  0  0  0  0
  193.1220  176.6070  138.2020 C   0  0  0  0  0  3  0  0  0  0  0  0
  192.2870  176.0960  137.1960 C   0  0  0  0  0  0  0  0  0  0  0  0
  192.5830  177.0950  139.3940 C   0  0  0  0  0  3  0  0  0  0  0  0
  191.1910  177.0920  139.5990 C   0  0  0  0  0  0  0  0  0  0  0  0
  190.6150  177.5760  140.8340 N   0  0  0  0  0  0  0  0  0  0  0  0
  190.3480  176.6190  138.5790 C   0  0  0  0  0  0  0  0  0  0  0  0
  191.4210  177.7070  142.0550 C   0  0  2  0  0  3  0  0  0  0  0  0
  191.3870  176.4110  142.8430 C   0  0  0  0  0  2  0  0  0  0  0  0
  190.5340  177.5690  143.2820 C   0  0  1  0  0  3  0  0  0  0  0  0
  191.3230  178.3520  144.7170 S   0  0  0  0  0  0  0  0  0  0  0  0
  190.8040  176.4130  146.4450 O   0  0  0  0  0  0  0  0  0  0  0  0
  188.9610  177.8150  146.0960 N   0  0  0  0  0  2  0  0  0  0  0  0
  190.3130  177.4120  145.8550 C   0  0  0  0  0  0  0  0  0  0  0  0
  188.1110  177.2400  147.1320 C   0  0  1  0  0  3  0  0  0  0  0  0
  188.4140  177.8810  148.4740 C   0  0  0  0  0  1  0  0  0  0  0  0
  186.6590  177.5210  146.7930 C   0  0  0  0  0  2  0  0  0  0  0  0
  186.5450  178.2470  145.4670 C   0  0  1  0  0  3  0  0  0  0  0  0
  186.2650  177.3180  144.4540 O   0  0  0  0  0  1  0  0  0  0  0  0
  184.4360  178.9920  146.3890 N   0  0  0  0  0  0  0  0  0  0  0  0
  183.5470  178.7840  143.8030 N   0  0  0  0  0  2  0  0  0  0  0  0
  184.3210  179.0000  144.9800 C   0  0  0  0  0  0  0  0  0  0  0  0
  185.4850  179.3560  145.5930 C   0  0  2  0  0  3  0  0  0  0  0  0
  182.1870  178.4560  143.8740 N   0  0  0  0  0  2  0  0  0  0  0  0
  181.4790  179.2120  142.8520 C   0  0  0  0  0  2  0  0  0  0  0  0
  180.4650  178.3110  142.1610 C   0  0  1  0  0  3  0  0  0  0  0  0
  179.2940  178.2300  142.9190 O   0  0  0  0  0  1  0  0  0  0  0  0
  180.2490  181.4260  139.3270 N   0  0  0  0  0  2  0  0  0  0  0  0
  181.4320  179.3390  140.0470 C   0  0  0  0  0  2  0  0  0  0  0  0
  181.0410  180.2630  138.8920 C   0  0  0  0  0  2  0  0  0  0  0  0
  179.5370  181.2290  140.5980 C   0  0  0  0  0  2  0  0  0  0  0  0
  180.1750  178.7930  140.7410 C   0  0  0  0  0  3  0  0  0  0  0  0
  179.0180  179.7980  140.7470 C   0  0  0  0  0  2  0  0  0  0  0  0
  192.1910  175.8310  134.6940 C   0  0  0  0  0  1  0  0  0  0  0  0
  192.8470  175.5750  135.9720 N   0  0  0  0  0  0  0  0  0  0  0  0
  195.1860  175.7190  136.2970 O   0  0  0  0  0  1  0  0  0  0  0  0
  194.1260  174.8560  136.0010 C   0  0  1  0  0  3  0  0  0  0  0  0
  197.7700  171.8230  136.3670 C   0  0  1  0  0  3  0  0  0  0  0  0
  199.0750  173.9370  134.9740 S   0  0  0  0  0  1  0  0  0  0  0  0
  197.2670  174.1150  137.0640 C   0  0  0  0  0  2  0  0  0  0  0  0
  192.8950  172.4250  135.1980 O   0  0  0  0  0  1  0  0  0  0  0  0
  196.7270  171.7540  137.4800 C   0  0  2  0  0  3  0  0  0  0  0  0
  195.5900  170.9840  137.1410 O   0  0  0  0  0  0  0  0  0  0  0  0
  197.0880  171.5870  135.0180 C   0  0  1  0  0  3  0  0  0  0  0  0
  194.9520  171.4440  135.9530 C   0  0  1  0  0  3  0  0  0  0  0  0
  197.1420  170.1260  134.5940 C   0  0  0  0  0  1  0  0  0  0  0  0
  198.3610  173.2360  136.5050 C   0  0  1  0  0  3  0  0  0  0  0  0
  193.7300  172.2790  136.3080 C   0  0  1  0  0  3  0  0  0  0  0  0
  194.0600  173.6370  136.9410 C   0  0  1  0  0  3  0  0  0  0  0  0
  196.4480  173.1890  137.9430 C   0  0  2  0  0  3  0  0  0  0  0  0
  195.7810  172.1100  135.0090 O   0  0  0  0  0  0  0  0  0  0  0  0
  194.9880  173.6120  138.1710 C   0  0  0  0  0  2  0  0  0  0  0  0
  1  2  1  0  0  0  0
  2  3  1  0  0  0  0
  3  4  2  0  0  0  0
  5 11  1  0  0  0  0
  6  8  2  0  0  0  0
  7  5  2  0  0  0  0
  7  6  1  0  0  0  0
  8  9  1  0  0  0  0
  9 10  1  0  0  0  0
 10  3  1  0  0  0  0
 11  1  1  0  0  0  0
 11  9  2  0  0  0  0
 12 10  1  6  0  0  0
 12 13  1  0  0  0  0
 12 14  1  0  0  0  0
 13 14  1  0  0  0  0
 14 15  1  1  0  0  0
 15 18  1  0  0  0  0
 17 19  1  0  0  0  0
 18 17  1  0  0  0  0
 18 16  2  0  0  0  0
 19 20  1  1  0  0  0
 21 19  1  0  0  0  0
 22 23  1  6  0  0  0
 22 21  1  0  0  0  0
 25 28  1  0  0  0  0
 25 26  1  0  0  0  0
 26 27  1  0  0  0  0
 26 24  2  0  0  0  0
 27 22  1  6  0  0  0
 27 24  1  0  0  0  0
 29 28  1  0  0  0  0
 30 29  1  0  0  0  0
 30 31  1  1  0  0  0
 32 35  1  0  0  0  0
 33 36  1  0  0  0  0
 34 32  1  0  0  0  0
 34 33  1  0  0  0  0
 35 37  1  0  0  0  0
 36 37  1  0  0  0  0
 36 30  1  0  0  0  0
 38 39  1  0  0  0  0
 39 41  1  0  0  0  0
 39  7  1  0  0  0  0
 41 40  1  1  0  0  0
 41 53  1  0  0  0  0
 42 51  1  0  0  0  0
 42 46  1  0  0  0  0
 43 51  1  0  0  0  0
 44 54  1  0  0  0  0
 45 52  1  0  0  0  0
 46 54  1  0  0  0  0
 47 46  1  0  0  0  0
 48 42  1  0  0  0  0
 49 52  1  0  0  0  0
 49 47  1  0  0  0  0
 50 48  1  0  0  0  0
 51 44  1  0  0  0  0
 52 53  1  0  0  0  0
 53 56  1  0  0  0  0
 54 56  1  0  0  0  0
 55 48  1  0  0  0  0
 55 49  1  0  0  0  0
M  END
>  <MODEL>
5

>  <REMARK>
 VINA RESULT:      -8.0      3.488     12.632
  Name = 
  14 active torsions:
  status: ('A' for Active; 'I' for Inactive)
    1  A    between atoms: C_2  and  N_32
    2  A    between atoms: C_2  and  C_41
    3  A    between atoms: N_6  and  N_20
    4  A    between atoms: C_10  and  C_48
    5  A    between atoms: C_10  and  C_49
    6  A    between atoms: C_18  and  N_36
    7  A    between atoms: C_18  and  C_53
    8  A    between atoms: N_20  and  C_48
    9  A    between atoms: C_25  and  N_50
   10  A    between atoms: N_32  and  C_39
   11  A    between atoms: C_33  and  C_35
   12  A    between atoms: C_35  and  C_53
   13  A    between atoms: C_40  and  S_47
   14  A    between atoms: C_45  and  S_47
                            x       y       z     vdW  Elec       q    Type
                         _______ _______ _______ _____ _____    ______ ____

>  <TORSDO>
F 14

$$$$
=
 OpenBabel11062416563D

 56 63  0  0  1  0  0  0  0  0999 V2000
  185.2950  178.5160  146.8500 C   0  0  0  0  0  2  0  0  0  0  0  0
  186.6130  179.0500  147.4120 C   0  0  0  0  0  2  0  0  0  0  0  0
  187.7650  178.2240  146.9210 C   0  0  0  0  0  0  0  0  0  0  0  0
  188.7870  178.1060  147.6460 O   0  0  0  0  0  0  0  0  0  0  0  0
  184.2430  178.5650  144.5730 C   0  0  0  0  0  3  0  0  0  0  0  0
  185.4950  177.9790  142.5900 C   0  0  0  0  0  3  0  0  0  0  0  0
  184.2880  178.3850  143.1810 C   0  0  0  0  0  0  0  0  0  0  0  0
  186.6240  177.7330  143.3750 C   0  0  0  0  0  3  0  0  0  0  0  0
  186.5700  177.9020  144.7710 C   0  0  0  0  0  0  0  0  0  0  0  0
  187.7230  177.6360  145.6020 N   0  0  0  0  0  0  0  0  0  0  0  0
  185.3770  178.3480  145.3620 C   0  0  0  0  0  0  0  0  0  0  0  0
  188.8410  176.8140  145.1200 C   0  0  2  0  0  3  0  0  0  0  0  0
  190.1080  177.6460  145.0550 C   0  0  0  0  0  2  0  0  0  0  0  0
  189.3480  177.3530  143.7910 C   0  0  1  0  0  3  0  0  0  0  0  0
  190.2250  176.0520  142.8800 S   0  0  0  0  0  0  0  0  0  0  0  0
  191.0340  177.4630  140.7900 O   0  0  0  0  0  0  0  0  0  0  0  0
  188.7400  176.9930  140.7180 N   0  0  0  0  0  2  0  0  0  0  0  0
  190.0310  176.9260  141.3330 C   0  0  0  0  0  0  0  0  0  0  0  0
  188.5020  177.5150  139.3780 C   0  0  1  0  0  3  0  0  0  0  0  0
  189.0740  178.9150  139.2500 C   0  0  0  0  0  1  0  0  0  0  0  0
  189.2050  176.6250  138.3690 C   0  0  0  0  0  2  0  0  0  0  0  0
  188.3210  176.3700  137.1640 C   0  0  1  0  0  3  0  0  0  0  0  0
  188.4230  177.4550  136.2800 O   0  0  0  0  0  1  0  0  0  0  0  0
  189.5060  174.2700  137.3490 N   0  0  0  0  0  0  0  0  0  0  0  0
  191.1660  175.3560  135.4560 N   0  0  0  0  0  2  0  0  0  0  0  0
  190.0450  174.9770  136.2510 C   0  0  0  0  0  0  0  0  0  0  0  0
  188.7130  175.0230  136.5310 C   0  0  2  0  0  3  0  0  0  0  0  0
  192.4380  174.8130  135.6820 N   0  0  0  0  0  2  0  0  0  0  0  0
  193.3860  175.9080  135.8230 C   0  0  0  0  0  2  0  0  0  0  0  0
  194.4860  175.5090  136.7970 C   0  0  1  0  0  3  0  0  0  0  0  0
  194.1440  175.8910  138.0970 O   0  0  0  0  0  1  0  0  0  0  0  0
  197.1350  172.2700  137.3170 N   0  0  0  0  0  2  0  0  0  0  0  0
  195.0400  173.3980  138.1010 C   0  0  0  0  0  2  0  0  0  0  0  0
  195.8230  172.0900  137.9610 C   0  0  0  0  0  2  0  0  0  0  0  0
  197.2300  173.4660  136.4670 C   0  0  0  0  0  2  0  0  0  0  0  0
  194.7800  174.0130  136.7170 C   0  0  0  0  0  3  0  0  0  0  0  0
  195.9210  173.7480  135.7280 C   0  0  0  0  0  2  0  0  0  0  0  0
  181.8530  178.9980  142.9930 C   0  0  0  0  0  1  0  0  0  0  0  0
  183.1180  178.6200  142.3700 N   0  0  0  0  0  0  0  0  0  0  0  0
  183.6980  177.3160  140.4830 O   0  0  0  0  0  1  0  0  0  0  0  0
  183.2180  178.5590  140.9070 C   0  0  1  0  0  3  0  0  0  0  0  0
  181.6180  176.2740  137.0560 C   0  0  1  0  0  3  0  0  0  0  0  0
  183.6750  174.4650  137.8370 S   0  0  0  0  0  1  0  0  0  0  0  0
  181.8640  175.8070  139.4470 C   0  0  0  0  0  2  0  0  0  0  0  0
  183.0660  180.6880  139.0320 O   0  0  0  0  0  1  0  0  0  0  0  0
  180.5920  177.1220  137.8060 C   0  0  2  0  0  3  0  0  0  0  0  0
  180.6440  178.4950  137.4710 O   0  0  0  0  0  0  0  0  0  0  0  0
  182.7920  177.1570  136.6310 C   0  0  1  0  0  3  0  0  0  0  0  0
  181.9350  179.0610  137.6770 C   0  0  1  0  0  3  0  0  0  0  0  0
  182.6240  177.6970  135.2180 C   0  0  0  0  0  1  0  0  0  0  0  0
  182.0140  175.1910  138.0750 C   0  0  1  0  0  3  0  0  0  0  0  0
  181.9610  179.8360  138.9880 C   0  0  1  0  0  3  0  0  0  0  0  0
  181.8860  178.9530  140.2390 C   0  0  1  0  0  3  0  0  0  0  0  0
  180.7220  176.7930  139.2980 C   0  0  2  0  0  3  0  0  0  0  0  0
  183.0380  178.1690  137.5780 O   0  0  0  0  0  0  0  0  0  0  0  0
  180.7140  177.9540  140.3050 C   0  0  0  0  0  2  0  0  0  0  0  0
  1  2  1  0  0  0  0
  3  2  1  0  0  0  0
  3  4  2  0  0  0  0
  5 11  1  0  0  0  0
  6  7  1  0  0  0  0
  6  8  2  0  0  0  0
  7  5  2  0  0  0  0
  8  9  1  0  0  0  0
  9 11  2  0  0  0  0
  9 10  1  0  0  0  0
 10  3  1  0  0  0  0
 11  1  1  0  0  0  0
 12 13  1  1  0  0  0
 12 10  1  0  0  0  0
 14 15  1  6  0  0  0
 14 13  1  0  0  0  0
 14 12  1  0  0  0  0
 16 18  2  0  0  0  0
 17 18  1  0  0  0  0
 18 15  1  0  0  0  0
 19 20  1  1  0  0  0
 19 17  1  0  0  0  0
 21 19  1  0  0  0  0
 22 23  1  6  0  0  0
 22 21  1  0  0  0  0
 25 28  1  0  0  0  0
 25 26  1  0  0  0  0
 26 27  1  0  0  0  0
 26 24  2  0  0  0  0
 27 22  1  1  0  0  0
 27 24  1  0  0  0  0
 28 29  1  0  0  0  0
 29 30  1  0  0  0  0
 30 31  1  1  0  0  0
 32 34  1  0  0  0  0
 34 33  1  0  0  0  0
 35 32  1  0  0  0  0
 36 30  1  0  0  0  0
 36 33  1  0  0  0  0
 37 35  1  0  0  0  0
 37 36  1  0  0  0  0
 39 38  1  0  0  0  0
 39  7  1  0  0  0  0
 41 40  1  1  0  0  0
 41 39  1  0  0  0  0
 42 46  1  0  0  0  0
 42 51  1  0  0  0  0
 43 51  1  0  0  0  0
 46 54  1  0  0  0  0
 47 49  1  0  0  0  0
 47 46  1  0  0  0  0
 48 42  1  0  0  0  0
 48 55  1  0  0  0  0
 49 52  1  0  0  0  0
 50 48  1  0  0  0  0
 51 44  1  0  0  0  0
 52 45  1  0  0  0  0
 52 53  1  0  0  0  0
 53 56  1  0  0  0  0
 53 41  1  0  0  0  0
 54 44  1  0  0  0  0
 54 56  1  0  0  0  0
 55 49  1  0  0  0  0
M  END
>  <MODEL>
6

>  <REMARK>
 VINA RESULT:      -7.8      1.855      2.296
  Name = 
  14 active torsions:
  status: ('A' for Active; 'I' for Inactive)
    1  A    between atoms: C_2  and  N_32
    2  A    between atoms: C_2  and  C_41
    3  A    between atoms: N_6  and  N_20
    4  A    between atoms: C_10  and  C_48
    5  A    between atoms: C_10  and  C_49
    6  A    between atoms: C_18  and  N_36
    7  A    between atoms: C_18  and  C_53
    8  A    between atoms: N_20  and  C_48
    9  A    between atoms: C_25  and  N_50
   10  A    between atoms: N_32  and  C_39
   11  A    between atoms: C_33  and  C_35
   12  A    between atoms: C_35  and  C_53
   13  A    between atoms: C_40  and  S_47
   14  A    between atoms: C_45  and  S_47
                            x       y       z     vdW  Elec       q    Type
                         _______ _______ _______ _____ _____    ______ ____

>  <TORSDO>
F 14

$$$$
=
 OpenBabel11062416563D

 56 63  0  0  1  0  0  0  0  0999 V2000
  184.9580  178.3390  145.8760 C   0  0  0  0  0  2  0  0  0  0  0  0
  186.0560  178.9820  146.7230 C   0  0  0  0  0  2  0  0  0  0  0  0
  187.3630  178.2790  146.5080 C   0  0  0  0  0  0  0  0  0  0  0  0
  188.2000  178.2410  147.4470 O   0  0  0  0  0  0  0  0  0  0  0  0
  184.4490  178.3380  143.4190 C   0  0  0  0  0  3  0  0  0  0  0  0
  186.1690  177.9160  141.7740 C   0  0  0  0  0  3  0  0  0  0  0  0
  184.8260  178.1930  142.0740 C   0  0  0  0  0  0  0  0  0  0  0  0
  187.1090  177.7610  142.7960 C   0  0  0  0  0  3  0  0  0  0  0  0
  186.7240  177.8930  144.1430 C   0  0  0  0  0  0  0  0  0  0  0  0
  187.6790  177.7180  145.2150 N   0  0  0  0  0  0  0  0  0  0  0  0
  185.3900  178.2120  144.4460 C   0  0  0  0  0  0  0  0  0  0  0  0
  188.9510  177.0160  145.0000 C   0  0  2  0  0  3  0  0  0  0  0  0
  190.1130  177.9680  145.2110 C   0  0  0  0  0  2  0  0  0  0  0  0
  189.6840  177.6200  143.8130 C   0  0  1  0  0  3  0  0  0  0  0  0
  190.8660  176.4230  143.1310 S   0  0  0  0  0  0  0  0  0  0  0  0
  191.5980  177.7920  140.9840 O   0  0  0  0  0  0  0  0  0  0  0  0
  189.4860  176.8080  140.7400 N   0  0  0  0  0  2  0  0  0  0  0  0
  190.6770  177.0910  141.4830 C   0  0  0  0  0  0  0  0  0  0  0  0
  189.3060  177.1420  139.3320 C   0  0  1  0  0  3  0  0  0  0  0  0
  189.1160  178.6390  139.1680 C   0  0  0  0  0  1  0  0  0  0  0  0
  190.5510  176.7380  138.5650 C   0  0  0  0  0  2  0  0  0  0  0  0
  190.1890  176.1560  137.2130 C   0  0  1  0  0  3  0  0  0  0  0  0
  190.9840  176.7550  136.2240 O   0  0  0  0  0  1  0  0  0  0  0  0
  191.4240  174.2270  137.9900 N   0  0  0  0  0  0  0  0  0  0  0  0
  192.0970  173.9370  135.3480 N   0  0  0  0  0  2  0  0  0  0  0  0
  191.4270  174.2030  136.5770 C   0  0  0  0  0  0  0  0  0  0  0  0
  190.3330  174.6240  137.2710 C   0  0  2  0  0  3  0  0  0  0  0  0
  193.3660  173.3460  135.3220 N   0  0  0  0  0  2  0  0  0  0  0  0
  193.3990  172.2850  136.3170 C   0  0  0  0  0  2  0  0  0  0  0  0
  194.7430  171.5710  136.2600 C   0  0  1  0  0  3  0  0  0  0  0  0
  195.2440  171.5860  134.9560 O   0  0  0  0  0  1  0  0  0  0  0  0
  196.7460  174.9390  137.8160 N   0  0  0  0  0  2  0  0  0  0  0  0
  195.0550  173.1390  138.2360 C   0  0  0  0  0  2  0  0  0  0  0  0
  196.0820  174.1050  138.8320 C   0  0  0  0  0  2  0  0  0  0  0  0
  196.7370  174.3630  136.4630 C   0  0  0  0  0  2  0  0  0  0  0  0
  195.7360  172.1830  137.2440 C   0  0  0  0  0  3  0  0  0  0  0  0
  196.8960  172.8420  136.4880 C   0  0  0  0  0  2  0  0  0  0  0  0
  182.9470  179.4790  140.9990 C   0  0  0  0  0  1  0  0  0  0  0  0
  183.8540  178.3350  141.0180 N   0  0  0  0  0  0  0  0  0  0  0  0
  182.8680  176.3780  140.1270 O   0  0  0  0  0  1  0  0  0  0  0  0
  183.8290  177.3700  139.9120 C   0  0  1  0  0  3  0  0  0  0  0  0
  184.6880  175.1000  135.8230 C   0  0  1  0  0  3  0  0  0  0  0  0
  184.6320  172.8620  137.5840 S   0  0  0  0  0  1  0  0  0  0  0  0
  182.9650  175.0740  137.5630 C   0  0  0  0  0  2  0  0  0  0  0  0
  185.9050  178.9750  138.8220 O   0  0  0  0  0  1  0  0  0  0  0  0
  183.8940  176.4000  135.7130 C   0  0  2  0  0  3  0  0  0  0  0  0
  184.7050  177.5580  135.7130 O   0  0  0  0  0  0  0  0  0  0  0  0
  186.0290  175.3820  136.5020 C   0  0  1  0  0  3  0  0  0  0  0  0
  185.5460  177.6390  136.8610 C   0  0  1  0  0  3  0  0  0  0  0  0
  187.1400  175.6450  135.4940 C   0  0  0  0  0  1  0  0  0  0  0  0
  183.7740  174.1800  136.6510 C   0  0  1  0  0  3  0  0  0  0  0  0
  184.9460  178.5990  137.8790 C   0  0  1  0  0  3  0  0  0  0  0  0
  183.6700  178.0810  138.5540 C   0  0  1  0  0  3  0  0  0  0  0  0
  182.7890  176.3580  136.7760 C   0  0  2  0  0  3  0  0  0  0  0  0
  185.9100  176.4030  137.4630 O   0  0  0  0  0  0  0  0  0  0  0  0
  182.5370  177.6200  137.6170 C   0  0  0  0  0  2  0  0  0  0  0  0
  1  2  1  0  0  0  0
  3  2  1  0  0  0  0
  3  4  2  0  0  0  0
  5 11  1  0  0  0  0
  6  7  1  0  0  0  0
  6  8  2  0  0  0  0
  7  5  2  0  0  0  0
  8  9  1  0  0  0  0
  9 11  2  0  0  0  0
  9 10  1  0  0  0  0
 10  3  1  0  0  0  0
 11  1  1  0  0  0  0
 12 13  1  1  0  0  0
 12 10  1  0  0  0  0
 14 15  1  6  0  0  0
 14 12  1  0  0  0  0
 14 13  1  0  0  0  0
 16 18  2  0  0  0  0
 17 18  1  0  0  0  0
 18 15  1  0  0  0  0
 19 20  1  1  0  0  0
 19 17  1  0  0  0  0
 21 19  1  0  0  0  0
 22 23  1  6  0  0  0
 22 21  1  0  0  0  0
 25 26  1  0  0  0  0
 26 27  1  0  0  0  0
 26 24  2  0  0  0  0
 27 22  1  6  0  0  0
 27 24  1  0  0  0  0
 28 25  1  0  0  0  0
 28 29  1  0  0  0  0
 30 31  1  6  0  0  0
 30 29  1  0  0  0  0
 30 36  1  0  0  0  0
 32 34  1  0  0  0  0
 33 34  1  0  0  0  0
 35 37  1  0  0  0  0
 35 32  1  0  0  0  0
 36 33  1  0  0  0  0
 37 36  1  0  0  0  0
 38 39  1  0  0  0  0
 39  7  1  0  0  0  0
 41 40  1  1  0  0  0
 41 39  1  0  0  0  0
 42 48  1  0  0  0  0
 42 51  1  0  0  0  0
 46 42  1  0  0  0  0
 46 54  1  0  0  0  0
 47 46  1  0  0  0  0
 47 49  1  0  0  0  0
 48 55  1  0  0  0  0
 49 55  1  0  0  0  0
 49 52  1  0  0  0  0
 50 48  1  0  0  0  0
 51 44  1  0  0  0  0
 51 43  1  0  0  0  0
 52 53  1  0  0  0  0
 52 45  1  0  0  0  0
 53 41  1  0  0  0  0
 54 44  1  0  0  0  0
 54 56  1  0  0  0  0
 56 53  1  0  0  0  0
M  END
>  <MODEL>
7

>  <REMARK>
 VINA RESULT:      -7.7      2.347      3.507
  Name = 
  14 active torsions:
  status: ('A' for Active; 'I' for Inactive)
    1  A    between atoms: C_2  and  N_32
    2  A    between atoms: C_2  and  C_41
    3  A    between atoms: N_6  and  N_20
    4  A    between atoms: C_10  and  C_48
    5  A    between atoms: C_10  and  C_49
    6  A    between atoms: C_18  and  N_36
    7  A    between atoms: C_18  and  C_53
    8  A    between atoms: N_20  and  C_48
    9  A    between atoms: C_25  and  N_50
   10  A    between atoms: N_32  and  C_39
   11  A    between atoms: C_33  and  C_35
   12  A    between atoms: C_35  and  C_53
   13  A    between atoms: C_40  and  S_47
   14  A    between atoms: C_45  and  S_47
                            x       y       z     vdW  Elec       q    Type
                         _______ _______ _______ _____ _____    ______ ____

>  <TORSDO>
F 14

$$$$
=
 OpenBabel11062416563D

 56 63  0  0  1  0  0  0  0  0999 V2000
  184.1600  178.6250  144.8990 C   0  0  0  0  0  2  0  0  0  0  0  0
  185.1910  179.0950  145.9250 C   0  0  0  0  0  2  0  0  0  0  0  0
  186.4340  178.2600  145.8390 C   0  0  0  0  0  0  0  0  0  0  0  0
  187.1240  178.0800  146.8760 O   0  0  0  0  0  0  0  0  0  0  0  0
  184.0010  178.8090  142.4020 C   0  0  0  0  0  3  0  0  0  0  0  0
  185.8790  178.2800  140.9750 C   0  0  0  0  0  3  0  0  0  0  0  0
  184.5440  178.6930  141.1120 C   0  0  0  0  0  0  0  0  0  0  0  0
  186.6460  177.9670  142.0990 C   0  0  0  0  0  3  0  0  0  0  0  0
  186.0930  178.0720  143.3890 C   0  0  0  0  0  0  0  0  0  0  0  0
  186.8660  177.7360  144.5640 N   0  0  0  0  0  0  0  0  0  0  0  0
  184.7710  178.5250  143.5330 C   0  0  0  0  0  0  0  0  0  0  0  0
  188.0750  176.9060  144.4730 C   0  0  2  0  0  3  0  0  0  0  0  0
  189.2890  177.7070  144.9040 C   0  0  0  0  0  2  0  0  0  0  0  0
  189.0280  177.4860  143.4400 C   0  0  1  0  0  3  0  0  0  0  0  0
  190.1610  176.2010  142.8410 S   0  0  0  0  0  0  0  0  0  0  0  0
  191.2430  177.5450  140.8320 O   0  0  0  0  0  0  0  0  0  0  0  0
  189.0830  176.7850  140.3390 N   0  0  0  0  0  2  0  0  0  0  0  0
  190.2110  176.9280  141.2080 C   0  0  0  0  0  0  0  0  0  0  0  0
  189.0840  177.1730  138.9330 C   0  0  1  0  0  3  0  0  0  0  0  0
  189.0550  178.6850  138.8050 C   0  0  0  0  0  1  0  0  0  0  0  0
  190.3600  176.6700  138.2830 C   0  0  0  0  0  2  0  0  0  0  0  0
  190.0730  176.0640  136.9230 C   0  0  1  0  0  3  0  0  0  0  0  0
  190.8410  176.7230  135.9520 O   0  0  0  0  0  1  0  0  0  0  0  0
  191.3060  174.2180  137.8840 N   0  0  0  0  0  0  0  0  0  0  0  0
  192.4610  174.0580  135.4030 N   0  0  0  0  0  2  0  0  0  0  0  0
  191.5630  174.2350  136.4950 C   0  0  0  0  0  0  0  0  0  0  0  0
  190.3310  174.5470  136.9860 C   0  0  2  0  0  3  0  0  0  0  0  0
  193.7600  173.5710  135.5980 N   0  0  0  0  0  2  0  0  0  0  0  0
  194.1340  173.8040  136.9840 C   0  0  0  0  0  2  0  0  0  0  0  0
  194.8450  172.5760  137.5350 C   0  0  1  0  0  3  0  0  0  0  0  0
  195.0990  171.6620  136.5090 O   0  0  0  0  0  1  0  0  0  0  0  0
  198.0470  175.2520  138.1410 N   0  0  0  0  0  2  0  0  0  0  0  0
  195.9610  174.2450  139.0950 C   0  0  0  0  0  2  0  0  0  0  0  0
  197.3260  174.8810  139.3700 C   0  0  0  0  0  2  0  0  0  0  0  0
  197.6340  174.4980  136.9490 C   0  0  0  0  0  2  0  0  0  0  0  0
  196.1290  172.9620  138.2670 C   0  0  0  0  0  3  0  0  0  0  0  0
  197.2990  173.0420  137.2800 C   0  0  0  0  0  2  0  0  0  0  0  0
  184.0870  180.1390  139.1020 C   0  0  0  0  0  1  0  0  0  0  0  0
  183.7490  178.9980  139.9480 N   0  0  0  0  0  0  0  0  0  0  0  0
  181.4820  178.4100  140.2820 O   0  0  0  0  0  1  0  0  0  0  0  0
  182.6440  178.1110  139.5630 C   0  0  1  0  0  3  0  0  0  0  0  0
  180.0400  174.7530  137.4300 C   0  0  1  0  0  3  0  0  0  0  0  0
  179.3080  174.2460  140.1350 S   0  0  0  0  0  1  0  0  0  0  0  0
  179.6370  176.6890  138.8730 C   0  0  0  0  0  2  0  0  0  0  0  0
  184.5550  176.9840  137.7900 O   0  0  0  0  0  1  0  0  0  0  0  0
  180.3130  176.0120  136.6090 C   0  0  2  0  0  3  0  0  0  0  0  0
  181.5770  176.0090  135.9750 O   0  0  0  0  0  0  0  0  0  0  0  0
  181.3700  174.1270  137.8530 C   0  0  1  0  0  3  0  0  0  0  0  0
  182.6500  175.8290  136.8950 C   0  0  1  0  0  3  0  0  0  0  0  0
  181.8350  173.0520  136.8810 C   0  0  0  0  0  1  0  0  0  0  0  0
  179.2080  175.2630  138.6190 C   0  0  1  0  0  3  0  0  0  0  0  0
  183.3020  177.1700  137.2030 C   0  0  1  0  0  3  0  0  0  0  0  0
  182.4290  178.1150  138.0380 C   0  0  1  0  0  3  0  0  0  0  0  0
  180.0170  177.2210  137.5040 C   0  0  2  0  0  3  0  0  0  0  0  0
  182.3470  175.1130  138.0860 O   0  0  0  0  0  0  0  0  0  0  0  0
  181.0110  178.3920  137.5010 C   0  0  0  0  0  2  0  0  0  0  0  0
  1  2  1  0  0  0  0
  3  2  1  0  0  0  0
  3  4  2  0  0  0  0
  5 11  1  0  0  0  0
  6  7  1  0  0  0  0
  6  8  2  0  0  0  0
  7  5  2  0  0  0  0
  8  9  1  0  0  0  0
  9 11  2  0  0  0  0
  9 10  1  0  0  0  0
 10  3  1  0  0  0  0
 11  1  1  0  0  0  0
 12 10  1  6  0  0  0
 12 13  1  0  0  0  0
 14 15  1  1  0  0  0
 14 12  1  0  0  0  0
 14 13  1  0  0  0  0
 16 18  2  0  0  0  0
 17 18  1  0  0  0  0
 18 15  1  0  0  0  0
 19 20  1  1  0  0  0
 19 17  1  0  0  0  0
 21 19  1  0  0  0  0
 22 23  1  6  0  0  0
 22 21  1  0  0  0  0
 25 28  1  0  0  0  0
 25 26  1  0  0  0  0
 26 27  1  0  0  0  0
 26 24  2  0  0  0  0
 27 22  1  1  0  0  0
 27 24  1  0  0  0  0
 28 29  1  0  0  0  0
 29 30  1  0  0  0  0
 30 31  1  6  0  0  0
 30 36  1  0  0  0  0
 32 34  1  0  0  0  0
 33 34  1  0  0  0  0
 35 37  1  0  0  0  0
 35 32  1  0  0  0  0
 36 33  1  0  0  0  0
 37 36  1  0  0  0  0
 38 39  1  0  0  0  0
 39  7  1  0  0  0  0
 41 39  1  0  0  0  0
 41 40  1  1  0  0  0
 42 48  1  0  0  0  0
 42 51  1  0  0  0  0
 46 42  1  0  0  0  0
 46 54  1  0  0  0  0
 47 46  1  0  0  0  0
 47 49  1  0  0  0  0
 48 55  1  0  0  0  0
 49 52  1  0  0  0  0
 49 55  1  0  0  0  0
 50 48  1  0  0  0  0
 51 44  1  0  0  0  0
 51 43  1  0  0  0  0
 52 45  1  0  0  0  0
 52 53  1  0  0  0  0
 53 41  1  0  0  0  0
 54 44  1  0  0  0  0
 56 54  1  0  0  0  0
 56 53  1  0  0  0  0
M  END
>  <MODEL>
8

>  <REMARK>
 VINA RESULT:      -7.5      2.187      3.104
  Name = 
  14 active torsions:
  status: ('A' for Active; 'I' for Inactive)
    1  A    between atoms: C_2  and  N_32
    2  A    between atoms: C_2  and  C_41
    3  A    between atoms: N_6  and  N_20
    4  A    between atoms: C_10  and  C_48
    5  A    between atoms: C_10  and  C_49
    6  A    between atoms: C_18  and  N_36
    7  A    between atoms: C_18  and  C_53
    8  A    between atoms: N_20  and  C_48
    9  A    between atoms: C_25  and  N_50
   10  A    between atoms: N_32  and  C_39
   11  A    between atoms: C_33  and  C_35
   12  A    between atoms: C_35  and  C_53
   13  A    between atoms: C_40  and  S_47
   14  A    between atoms: C_45  and  S_47
                            x       y       z     vdW  Elec       q    Type
                         _______ _______ _______ _____ _____    ______ ____

>  <TORSDO>
F 14

$$$$
=
 OpenBabel11062416563D

 56 63  0  0  1  0  0  0  0  0999 V2000
  191.8120  176.9290  143.3950 C   0  0  0  0  0  2  0  0  0  0  0  0
  191.5500  176.1240  144.6670 C   0  0  0  0  0  2  0  0  0  0  0  0
  190.5280  176.8120  145.5230 C   0  0  0  0  0  0  0  0  0  0  0  0
  190.5790  176.6720  146.7720 O   0  0  0  0  0  0  0  0  0  0  0  0
  190.4800  177.3430  141.3090 C   0  0  0  0  0  3  0  0  0  0  0  0
  188.1490  177.9740  141.4040 C   0  0  0  0  0  3  0  0  0  0  0  0
  189.2940  177.6920  140.6430 C   0  0  0  0  0  0  0  0  0  0  0  0
  188.1940  177.9330  142.8000 C   0  0  0  0  0  3  0  0  0  0  0  0
  189.3890  177.5960  143.4630 C   0  0  0  0  0  0  0  0  0  0  0  0
  189.4600  177.5650  144.9070 N   0  0  0  0  0  0  0  0  0  0  0  0
  190.5260  177.2720  142.7050 C   0  0  0  0  0  0  0  0  0  0  0  0
  188.4620  178.2540  145.7370 C   0  0  2  0  0  3  0  0  0  0  0  0
  187.9060  177.3020  146.7790 C   0  0  0  0  0  2  0  0  0  0  0  0
  187.0970  177.6120  145.5500 C   0  0  1  0  0  3  0  0  0  0  0  0
  185.7870  178.7830  146.0050 S   0  0  0  0  0  0  0  0  0  0  0  0
  185.3440  177.6180  143.6680 O   0  0  0  0  0  0  0  0  0  0  0  0
  183.5710  179.0000  144.3280 N   0  0  0  0  0  2  0  0  0  0  0  0
  184.8610  178.4090  144.5210 C   0  0  0  0  0  0  0  0  0  0  0  0
  182.6570  178.6260  143.2550 C   0  0  1  0  0  3  0  0  0  0  0  0
  181.2450  179.0730  143.5890 C   0  0  0  0  0  1  0  0  0  0  0  0
  183.0820  179.3240  141.9770 C   0  0  0  0  0  2  0  0  0  0  0  0
  182.4000  178.7090  140.7710 C   0  0  1  0  0  3  0  0  0  0  0  0
  181.0090  178.7990  140.9320 O   0  0  0  0  0  1  0  0  0  0  0  0
  182.4690  178.7960  138.3550 N   0  0  0  0  0  0  0  0  0  0  0  0
  185.0730  177.9980  138.6750 N   0  0  0  0  0  2  0  0  0  0  0  0
  183.7890  178.6000  138.8200 C   0  0  0  0  0  0  0  0  0  0  0  0
  182.9170  179.3990  139.4960 C   0  0  2  0  0  3  0  0  0  0  0  0
  185.3990  177.2390  137.5450 N   0  0  0  0  0  2  0  0  0  0  0  0
  184.4630  176.1300  137.4500 C   0  0  0  0  0  2  0  0  0  0  0  0
  185.1060  174.9800  136.6870 C   0  0  1  0  0  3  0  0  0  0  0  0
  185.6740  174.0660  137.5780 O   0  0  0  0  0  1  0  0  0  0  0  0
  181.2790  173.3490  136.0030 N   0  0  0  0  0  2  0  0  0  0  0  0
  182.8860  175.1950  135.4680 C   0  0  0  0  0  2  0  0  0  0  0  0
  181.7020  174.3430  135.0030 C   0  0  0  0  0  2  0  0  0  0  0  0
  182.3280  172.9770  136.9640 C   0  0  0  0  0  2  0  0  0  0  0  0
  184.1020  174.3020  135.7580 C   0  0  0  0  0  3  0  0  0  0  0  0
  183.7100  172.9280  136.3120 C   0  0  0  0  0  2  0  0  0  0  0  0
  188.9450  179.0110  138.5270 C   0  0  0  0  0  1  0  0  0  0  0  0
  189.2490  177.7530  139.2020 N   0  0  0  0  0  0  0  0  0  0  0  0
  188.4420  175.8810  138.0030 O   0  0  0  0  0  1  0  0  0  0  0  0
  189.5910  176.5670  138.4090 C   0  0  1  0  0  3  0  0  0  0  0  0
  190.4050  173.5010  134.8660 C   0  0  1  0  0  3  0  0  0  0  0  0
  188.1790  172.2090  136.0840 S   0  0  0  0  0  1  0  0  0  0  0  0
  188.5560  174.9140  135.6270 C   0  0  0  0  0  2  0  0  0  0  0  0
  192.4080  176.2480  138.5990 O   0  0  0  0  0  1  0  0  0  0  0  0
  190.7870  174.9550  134.5940 C   0  0  2  0  0  3  0  0  0  0  0  0
  192.0490  175.3150  135.1190 O   0  0  0  0  0  0  0  0  0  0  0  0
  191.1520  173.0050  136.1050 C   0  0  1  0  0  3  0  0  0  0  0  0
  192.1490  175.0770  136.5200 C   0  0  1  0  0  3  0  0  0  0  0  0
  192.4550  172.3030  135.7500 C   0  0  0  0  0  1  0  0  0  0  0  0
  188.8800  173.5510  135.0600 C   0  0  1  0  0  3  0  0  0  0  0  0
  191.9560  176.3790  137.2850 C   0  0  1  0  0  3  0  0  0  0  0  0
  190.5250  176.9280  137.2380 C   0  0  1  0  0  3  0  0  0  0  0  0
  189.6070  175.8320  135.0330 C   0  0  2  0  0  3  0  0  0  0  0  0
  191.3270  174.0400  137.0440 O   0  0  0  0  0  0  0  0  0  0  0  0
  189.9040  177.1060  135.8380 C   0  0  0  0  0  2  0  0  0  0  0  0
  1  2  1  0  0  0  0
  2  3  1  0  0  0  0
  3  4  2  0  0  0  0
  5 11  1  0  0  0  0
  6  8  2  0  0  0  0
  7  5  2  0  0  0  0
  7  6  1  0  0  0  0
  8  9  1  0  0  0  0
  9 10  1  0  0  0  0
 10  3  1  0  0  0  0
 11  1  1  0  0  0  0
 11  9  2  0  0  0  0
 12 10  1  6  0  0  0
 12 13  1  0  0  0  0
 14 12  1  0  0  0  0
 14 15  1  1  0  0  0
 14 13  1  0  0  0  0
 16 18  2  0  0  0  0
 17 18  1  0  0  0  0
 18 15  1  0  0  0  0
 19 20  1  1  0  0  0
 19 17  1  0  0  0  0
 21 19  1  0  0  0  0
 22 23  1  1  0  0  0
 22 21  1  0  0  0  0
 24 26  2  0  0  0  0
 24 27  1  0  0  0  0
 25 26  1  0  0  0  0
 26 27  1  0  0  0  0
 27 22  1  1  0  0  0
 28 25  1  0  0  0  0
 29 28  1  0  0  0  0
 30 29  1  0  0  0  0
 30 31  1  1  0  0  0
 32 35  1  0  0  0  0
 33 36  1  0  0  0  0
 34 33  1  0  0  0  0
 34 32  1  0  0  0  0
 36 37  1  0  0  0  0
 36 30  1  0  0  0  0
 37 35  1  0  0  0  0
 38 39  1  0  0  0  0
 39  7  1  0  0  0  0
 41 40  1  6  0  0  0
 41 39  1  0  0  0  0
 42 51  1  0  0  0  0
 42 48  1  0  0  0  0
 46 42  1  0  0  0  0
 46 54  1  0  0  0  0
 46 47  1  0  0  0  0
 47 49  1  0  0  0  0
 48 55  1  0  0  0  0
 49 55  1  0  0  0  0
 49 52  1  0  0  0  0
 50 48  1  0  0  0  0
 51 44  1  0  0  0  0
 51 43  1  0  0  0  0
 52 45  1  0  0  0  0
 53 52  1  0  0  0  0
 53 41  1  0  0  0  0
 54 44  1  0  0  0  0
 54 56  1  0  0  0  0
 56 53  1  0  0  0  0
M  END
>  <MODEL>
9

>  <REMARK>
 VINA RESULT:      -7.2      3.012      8.457
  Name = 
  14 active torsions:
  status: ('A' for Active; 'I' for Inactive)
    1  A    between atoms: C_2  and  N_32
    2  A    between atoms: C_2  and  C_41
    3  A    between atoms: N_6  and  N_20
    4  A    between atoms: C_10  and  C_48
    5  A    between atoms: C_10  and  C_49
    6  A    between atoms: C_18  and  N_36
    7  A    between atoms: C_18  and  C_53
    8  A    between atoms: N_20  and  C_48
    9  A    between atoms: C_25  and  N_50
   10  A    between atoms: N_32  and  C_39
   11  A    between atoms: C_33  and  C_35
   12  A    between atoms: C_35  and  C_53
   13  A    between atoms: C_40  and  S_47
   14  A    between atoms: C_45  and  S_47
                            x       y       z     vdW  Elec       q    Type
                         _______ _______ _______ _____ _____    ______ ____

>  <TORSDO>
F 14

$$$$
