=
 OpenBabel11062412563D

 50 55  0  0  1  0  0  0  0  0999 V2000
  185.9680  178.2110  140.6830 O   0  0  0  0  0  0  0  0  0  0  0  0
  179.4840  178.3640  141.6240 C   0  0  0  0  0  2  0  0  0  0  0  0
  185.0000  178.7810  143.4060 N   0  0  0  0  0  0  0  0  0  0  0  0
  180.8800  178.4170  142.0340 N   0  0  0  0  0  0  0  0  0  0  0  0
  185.7770  177.0650  135.8720 C   0  0  0  0  0  3  0  0  0  0  0  0
  178.9370  179.7810  141.4860 C   0  0  0  0  0  2  0  0  0  0  0  0
  179.6330  182.2890  138.9580 N   0  0  0  0  0  0  0  0  0  0  0  0
  183.4130  177.7580  138.7740 C   0  0  0  0  0  2  0  0  0  0  0  0
  183.1760  178.9060  141.7200 N   0  0  0  0  0  2  0  0  0  0  0  0
  186.9530  178.2770  137.5490 N   0  0  0  0  0  0  0  0  0  0  0  0
  184.6270  177.7780  137.8850 C   0  0  0  0  0  0  0  0  0  0  0  0
  178.9520  181.8030  139.9120 N   0  0  0  0  0  2  0  0  0  0  0  0
  180.7340  181.4290  138.7140 C   0  0  0  0  0  0  0  0  0  0  0  0
  181.5270  179.0870  139.7800 C   0  0  2  0  0  3  0  0  0  0  0  0
  184.5960  177.1450  136.6250 C   0  0  0  0  0  0  0  0  0  0  0  0
  183.6440  178.5050  143.0120 C   0  0  0  0  0  0  0  0  0  0  0  0
  179.5370  180.5760  140.3540 C   0  0  0  0  0  0  0  0  0  0  0  0
  182.8810  177.8690  143.7930 O   0  0  0  0  0  0  0  0  0  0  0  0
  180.6580  180.3200  139.6660 C   0  0  0  0  0  0  0  0  0  0  0  0
  186.9530  177.6380  136.3530 C   0  0  0  0  0  3  0  0  0  0  0  0
  185.9350  179.1080  139.6120 C   0  0  0  0  0  2  0  0  0  0  0  0
  186.7280  178.8490  141.6680 C   0  0  0  0  0  2  0  0  0  0  0  0
  181.5470  181.5620  137.6750 C   0  0  0  0  0  1  0  0  0  0  0  0
  185.8370  179.6580  142.6010 C   0  0  0  0  0  2  0  0  0  0  0  0
  181.8370  178.7650  141.2250 C   0  0  0  0  0  0  0  0  0  0  0  0
  185.8380  178.3670  138.3200 C   0  0  0  0  0  0  0  0  0  0  0  0
  182.7740  179.1340  138.8930 C   0  0  0  0  0  2  0  0  0  0  0  0
  180.9280  174.5080  139.1690 C   0  0  0  0  0  1  0  0  0  0  0  0
  178.9350  175.1650  137.9070 C   0  0  0  0  0  1  0  0  0  0  0  0
  181.0860  174.7160  136.6360 C   0  0  1  0  0  3  0  0  0  0  0  0
  181.0890  176.2490  136.4130 C   0  0  0  0  0  2  0  0  0  0  0  0
  179.6780  172.8630  137.7820 C   0  0  0  0  0  2  0  0  0  0  0  0
  183.3140  176.5440  136.1000 C   0  0  1  0  0  3  0  0  0  0  0  0
  183.4400  175.0340  135.7830 C   0  0  0  0  0  2  0  0  0  0  0  0
  182.5570  174.2140  136.7300 C   0  0  2  0  0  3  0  0  0  0  0  0
  182.2420  176.8250  136.9770 O   0  0  0  0  0  0  0  0  0  0  0  0
  182.7660  172.7090  136.4730 C   0  0  2  0  0  3  0  0  0  0  0  0
  181.9230  171.8480  137.3950 C   0  0  0  0  0  2  0  0  0  0  0  0
  180.1930  174.3080  137.8490 C   0  0  0  0  0  0  0  0  0  0  0  0
  180.4810  171.8820  136.9420 C   0  0  0  0  0  2  0  0  0  0  0  0
  184.2110  172.3200  136.6600 C   0  0  0  0  0  0  0  0  0  0  0  0
  184.8080  172.6470  137.7250 O   0  0  0  0  0  0  0  0  0  0  0  0
  184.1720  170.8180  134.6370 C   0  0  0  0  0  1  0  0  0  0  0  0
  184.8990  171.5390  135.6660 N   0  0  0  0  0  0  0  0  0  0  0  0
  186.3480  171.4020  135.7120 C   0  0  0  0  0  2  0  0  0  0  0  0
  186.9830  172.3270  134.6820 C   0  0  0  0  0  2  0  0  0  0  0  0
  187.9600  173.5630  136.6140 C   0  0  0  0  0  1  0  0  0  0  0  0
  187.2350  173.6950  135.2860 C   0  0  0  0  0  2  0  0  0  0  0  0
  184.9840  179.0330  145.8420 C   0  0  0  0  0  1  0  0  0  0  0  0
  185.5440  178.2670  144.6560 C   0  0  0  0  0  2  0  0  0  0  0  0
  1 22  1  0  0  0  0
  2  4  1  0  0  0  0
  3 50  1  0  0  0  0
  5 20  2  0  0  0  0
  5 15  1  0  0  0  0
  6  2  1  0  0  0  0
  7 12  1  0  0  0  0
  8 27  1  0  0  0  0
  9 16  1  0  0  0  0
 10 26  2  0  0  0  0
 11 26  1  0  0  0  0
 11  8  1  0  0  0  0
 12 17  1  0  0  0  0
 13  7  2  0  0  0  0
 13 19  1  0  0  0  0
 14 27  1  6  0  0  0
 14 25  1  0  0  0  0
 15 11  2  0  0  0  0
 16  3  1  0  0  0  0
 16 18  2  0  0  0  0
 17  6  1  0  0  0  0
 19 14  1  0  0  0  0
 19 17  2  0  0  0  0
 20 10  1  0  0  0  0
 21  1  1  0  0  0  0
 22 24  1  0  0  0  0
 23 13  1  0  0  0  0
 24  3  1  0  0  0  0
 25  9  1  0  0  0  0
 25  4  2  0  0  0  0
 26 21  1  0  0  0  0
 30 31  1  1  0  0  0
 30 35  1  0  0  0  0
 30 39  1  0  0  0  0
 31 36  1  0  0  0  0
 32 39  1  0  0  0  0
 33 15  1  1  0  0  0
 33 36  1  0  0  0  0
 34 33  1  0  0  0  0
 35 34  1  6  0  0  0
 37 41  1  1  0  0  0
 37 35  1  0  0  0  0
 37 38  1  0  0  0  0
 39 29  1  0  0  0  0
 39 28  1  0  0  0  0
 40 38  1  0  0  0  0
 40 32  1  0  0  0  0
 41 42  2  0  0  0  0
 43 44  1  0  0  0  0
 44 45  1  0  0  0  0
 44 41  1  0  0  0  0
 46 48  1  0  0  0  0
 46 45  1  0  0  0  0
 48 47  1  0  0  0  0
 50 49  1  0  0  0  0
M  END
>  <MODEL>
1

>  <REMARK>
 VINA RESULT:      -4.9      0.000      0.000
  Name = 
  6 active torsions:
  status: ('A' for Active; 'I' for Inactive)
    1  A    between atoms: C_3  and  C_39
    2  A    between atoms: N_4  and  C_22
    3  A    between atoms: C_11  and  C_20
    4  A    between atoms: C_16  and  C_20
    5  A    between atoms: C_16  and  N_48
    6  A    between atoms: C_26  and  C_29
                            x       y       z     vdW  Elec       q    Type
                         _______ _______ _______ _____ _____    ______ ____

>  <TORSDO>
F 6

$$$$
=
 OpenBabel11062412563D

 50 55  0  0  1  0  0  0  0  0999 V2000
  185.6940  178.3470  142.0320 O   0  0  0  0  0  0  0  0  0  0  0  0
  179.3350  178.8640  140.5380 C   0  0  0  0  0  2  0  0  0  0  0  0
  183.8080  178.8060  144.2470 N   0  0  0  0  0  0  0  0  0  0  0  0
  180.4800  178.8000  141.4350 N   0  0  0  0  0  0  0  0  0  0  0  0
  187.2580  177.5220  137.4090 C   0  0  0  0  0  3  0  0  0  0  0  0
  178.9310  180.3200  140.3260 C   0  0  0  0  0  2  0  0  0  0  0  0
  180.6090  182.9310  138.4470 N   0  0  0  0  0  0  0  0  0  0  0  0
  184.0140  178.1840  139.2880 C   0  0  0  0  0  2  0  0  0  0  0  0
  182.7450  179.1560  142.0260 N   0  0  0  0  0  2  0  0  0  0  0  0
  187.7730  178.5460  139.4950 N   0  0  0  0  0  0  0  0  0  0  0  0
  185.4710  178.1800  138.9110 C   0  0  0  0  0  0  0  0  0  0  0  0
  179.6040  182.4320  139.0410 N   0  0  0  0  0  2  0  0  0  0  0  0
  181.6880  182.0190  138.5550 C   0  0  0  0  0  0  0  0  0  0  0  0
  181.9410  179.5660  139.6390 C   0  0  2  0  0  3  0  0  0  0  0  0
  185.8860  177.6320  137.6800 C   0  0  0  0  0  0  0  0  0  0  0  0
  182.6860  178.6440  143.3620 C   0  0  0  0  0  0  0  0  0  0  0  0
  179.9370  181.1440  139.5640 C   0  0  0  0  0  0  0  0  0  0  0  0
  181.6640  178.0110  143.7530 O   0  0  0  0  0  0  0  0  0  0  0  0
  181.2230  180.8590  139.3160 C   0  0  0  0  0  0  0  0  0  0  0  0
  188.1920  177.9860  138.3340 C   0  0  0  0  0  3  0  0  0  0  0  0
  186.0950  179.3100  141.1020 C   0  0  0  0  0  2  0  0  0  0  0  0
  186.0580  178.8700  143.2770 C   0  0  0  0  0  2  0  0  0  0  0  0
  182.8330  182.1630  137.9010 C   0  0  0  0  0  1  0  0  0  0  0  0
  184.9160  179.6750  143.8810 C   0  0  0  0  0  2  0  0  0  0  0  0
  181.6800  179.1340  141.0650 C   0  0  0  0  0  0  0  0  0  0  0  0
  186.4560  178.6600  139.8080 C   0  0  0  0  0  0  0  0  0  0  0  0
  183.4290  179.5880  139.2780 C   0  0  0  0  0  2  0  0  0  0  0  0
  181.4610  175.0490  138.4700 C   0  0  0  0  0  1  0  0  0  0  0  0
  180.0910  175.9170  136.6340 C   0  0  0  0  0  1  0  0  0  0  0  0
  182.5440  175.4290  136.1970 C   0  0  1  0  0  3  0  0  0  0  0  0
  182.6760  176.9710  136.1290 C   0  0  0  0  0  2  0  0  0  0  0  0
  180.7560  173.5890  136.5820 C   0  0  0  0  0  2  0  0  0  0  0  0
  184.8690  177.1500  136.6730 C   0  0  1  0  0  3  0  0  0  0  0  0
  185.0550  175.6620  136.2900 C   0  0  0  0  0  2  0  0  0  0  0  0
  183.8620  174.8320  136.7740 C   0  0  2  0  0  3  0  0  0  0  0  0
  183.5590  177.4330  137.1230 O   0  0  0  0  0  0  0  0  0  0  0  0
  184.1040  173.3390  136.4770 C   0  0  2  0  0  3  0  0  0  0  0  0
  182.9540  172.4680  136.9480 C   0  0  0  0  0  2  0  0  0  0  0  0
  181.2560  174.9910  136.9610 C   0  0  0  0  0  0  0  0  0  0  0  0
  181.7820  172.6230  136.0070 C   0  0  0  0  0  2  0  0  0  0  0  0
  185.3660  172.8490  137.1410 C   0  0  0  0  0  0  0  0  0  0  0  0
  185.4070  172.7530  138.4000 O   0  0  0  0  0  0  0  0  0  0  0  0
  186.3780  172.1640  134.9360 C   0  0  0  0  0  1  0  0  0  0  0  0
  186.5020  172.4430  136.3560 N   0  0  0  0  0  0  0  0  0  0  0  0
  187.7970  172.2380  136.9880 C   0  0  0  0  0  2  0  0  0  0  0  0
  188.8850  172.9040  136.1550 C   0  0  0  0  0  2  0  0  0  0  0  0
  190.1330  175.0560  136.3000 C   0  0  0  0  0  1  0  0  0  0  0  0
  188.7600  174.4130  136.2320 C   0  0  0  0  0  2  0  0  0  0  0  0
  185.1040  178.5370  146.3070 C   0  0  0  0  0  1  0  0  0  0  0  0
  183.8300  178.1790  145.5630 C   0  0  0  0  0  2  0  0  0  0  0  0
  1 22  1  0  0  0  0
  2  4  1  0  0  0  0
  3 50  1  0  0  0  0
  5 15  2  0  0  0  0
  5 20  1  0  0  0  0
  6  2  1  0  0  0  0
  7 13  2  0  0  0  0
  7 12  1  0  0  0  0
  9 16  1  0  0  0  0
 10 26  1  0  0  0  0
 11  8  1  0  0  0  0
 11 26  2  0  0  0  0
 12 17  1  0  0  0  0
 13 19  1  0  0  0  0
 14 27  1  1  0  0  0
 14 25  1  0  0  0  0
 15 11  1  0  0  0  0
 16 18  2  0  0  0  0
 16  3  1  0  0  0  0
 17  6  1  0  0  0  0
 19 17  2  0  0  0  0
 19 14  1  0  0  0  0
 20 10  2  0  0  0  0
 21  1  1  0  0  0  0
 22 24  1  0  0  0  0
 23 13  1  0  0  0  0
 24  3  1  0  0  0  0
 25  4  2  0  0  0  0
 25  9  1  0  0  0  0
 26 21  1  0  0  0  0
 27  8  1  0  0  0  0
 29 39  1  0  0  0  0
 30 31  1  1  0  0  0
 30 35  1  0  0  0  0
 30 39  1  0  0  0  0
 31 36  1  0  0  0  0
 32 39  1  0  0  0  0
 33 36  1  0  0  0  0
 33 15  1  1  0  0  0
 34 33  1  0  0  0  0
 35 34  1  6  0  0  0
 37 35  1  0  0  0  0
 37 38  1  0  0  0  0
 37 41  1  1  0  0  0
 39 28  1  0  0  0  0
 40 32  1  0  0  0  0
 40 38  1  0  0  0  0
 41 42  2  0  0  0  0
 43 44  1  0  0  0  0
 44 45  1  0  0  0  0
 44 41  1  0  0  0  0
 46 48  1  0  0  0  0
 46 45  1  0  0  0  0
 48 47  1  0  0  0  0
 50 49  1  0  0  0  0
M  END
>  <MODEL>
2

>  <REMARK>
 VINA RESULT:      -4.1      1.214      1.575
  Name = 
  6 active torsions:
  status: ('A' for Active; 'I' for Inactive)
    1  A    between atoms: C_3  and  C_39
    2  A    between atoms: N_4  and  C_22
    3  A    between atoms: C_11  and  C_20
    4  A    between atoms: C_16  and  C_20
    5  A    between atoms: C_16  and  N_48
    6  A    between atoms: C_26  and  C_29
                            x       y       z     vdW  Elec       q    Type
                         _______ _______ _______ _____ _____    ______ ____

>  <TORSDO>
F 6

$$$$
=
 OpenBabel11062412563D

 50 55  0  0  1  0  0  0  0  0999 V2000
  183.6740  178.3770  142.7320 O   0  0  0  0  0  0  0  0  0  0  0  0
  179.3230  178.8070  137.8510 C   0  0  0  0  0  2  0  0  0  0  0  0
  180.8180  178.4280  143.4530 N   0  0  0  0  0  0  0  0  0  0  0  0
  179.7420  178.6680  139.2380 N   0  0  0  0  0  0  0  0  0  0  0  0
  187.6960  178.2930  139.8500 C   0  0  0  0  0  3  0  0  0  0  0  0
  178.9410  180.2570  137.5730 C   0  0  0  0  0  2  0  0  0  0  0  0
  181.0640  183.1850  137.2720 N   0  0  0  0  0  0  0  0  0  0  0  0
  183.9110  178.5290  139.5230 C   0  0  0  0  0  2  0  0  0  0  0  0
  181.1930  179.0420  141.0730 N   0  0  0  0  0  2  0  0  0  0  0  0
  186.7900  179.0320  141.9220 N   0  0  0  0  0  0  0  0  0  0  0  0
  185.3070  178.6470  140.0720 C   0  0  0  0  0  0  0  0  0  0  0  0
  179.9700  182.5590  137.1180 N   0  0  0  0  0  0  0  0  0  0  0  0
  181.9860  182.3170  137.9100 C   0  0  0  0  0  0  0  0  0  0  0  0
  181.8640  179.7500  138.7140 C   0  0  2  0  0  3  0  0  0  0  0  0
  186.4170  178.2990  139.2740 C   0  0  0  0  0  0  0  0  0  0  0  0
  180.4380  178.3420  142.0690 C   0  0  0  0  0  0  0  0  0  0  0  0
  180.0950  181.2270  137.6200 C   0  0  0  0  0  0  0  0  0  0  0  0
  179.4630  177.6130  141.7300 O   0  0  0  0  0  0  0  0  0  0  0  0
  181.3130  181.0400  138.1490 C   0  0  0  0  0  0  0  0  0  0  0  0
  187.8640  178.6630  141.1820 C   0  0  0  0  0  3  0  0  0  0  0  0
  184.4160  179.4800  142.3020 C   0  0  0  0  0  2  0  0  0  0  0  0
  183.1900  178.7340  143.9940 C   0  0  0  0  0  2  0  0  0  0  0  0
  183.2710  182.6060  138.0670 C   0  0  0  0  0  2  0  0  0  0  0  0
  181.8210  179.3910  143.8840 C   0  0  0  0  0  2  0  0  0  0  0  0
  180.8860  179.1070  139.6730 C   0  0  0  0  0  0  0  0  0  0  0  0
  185.5310  179.0390  141.4130 C   0  0  0  0  0  0  0  0  0  0  0  0
  183.2730  179.8910  139.2970 C   0  0  0  0  0  2  0  0  0  0  0  0
  185.4760  173.6420  137.2000 C   0  0  0  0  0  1  0  0  0  0  0  0
  184.1160  174.2700  135.2630 C   0  0  0  0  0  1  0  0  0  0  0  0
  186.1000  175.7280  135.8810 C   0  0  1  0  0  3  0  0  0  0  0  0
  185.0160  176.7480  136.3110 C   0  0  0  0  0  2  0  0  0  0  0  0
  186.3220  173.3460  134.8780 C   0  0  0  0  0  2  0  0  0  0  0  0
  186.2300  177.9190  137.8240 C   0  0  1  0  0  3  0  0  0  0  0  0
  187.5210  177.3650  137.1740 C   0  0  0  0  0  2  0  0  0  0  0  0
  187.3430  175.8880  136.8060 C   0  0  2  0  0  3  0  0  0  0  0  0
  185.1330  177.0400  137.6830 O   0  0  0  0  0  0  0  0  0  0  0  0
  188.6640  175.3210  136.2530 C   0  0  2  0  0  3  0  0  0  0  0  0
  188.5470  173.8540  135.8830 C   0  0  0  0  0  2  0  0  0  0  0  0
  185.5360  174.2750  135.8150 C   0  0  0  0  0  0  0  0  0  0  0  0
  187.7700  173.7160  134.5940 C   0  0  0  0  0  2  0  0  0  0  0  0
  189.7810  175.4640  137.2550 C   0  0  0  0  0  0  0  0  0  0  0  0
  189.6730  174.9110  138.3870 O   0  0  0  0  0  0  0  0  0  0  0  0
  191.3230  176.4840  135.5430 C   0  0  0  0  0  1  0  0  0  0  0  0
  190.9860  176.1760  136.9210 N   0  0  0  0  0  0  0  0  0  0  0  0
  191.9330  176.5500  137.9620 C   0  0  0  0  0  2  0  0  0  0  0  0
  193.3460  176.5510  137.3930 C   0  0  0  0  0  2  0  0  0  0  0  0
  194.9800  174.9240  136.4490 C   0  0  0  0  0  1  0  0  0  0  0  0
  193.9860  175.1880  137.5660 C   0  0  0  0  0  2  0  0  0  0  0  0
  178.9660  178.3640  145.0550 C   0  0  0  0  0  1  0  0  0  0  0  0
  180.1560  177.6220  144.4710 C   0  0  0  0  0  2  0  0  0  0  0  0
  1 22  1  0  0  0  0
  2  4  1  0  0  0  0
  3 24  1  0  0  0  0
  3 50  1  0  0  0  0
  4 25  2  0  0  0  0
  5 20  1  0  0  0  0
  6 17  1  0  0  0  0
  6  2  1  0  0  0  0
  7 13  1  0  0  0  0
  8 11  1  0  0  0  0
  9 16  1  0  0  0  0
 11 26  2  0  0  0  0
 12  7  2  0  0  0  0
 12 17  1  0  0  0  0
 13 23  2  0  0  0  0
 13 19  1  0  0  0  0
 14 27  1  1  0  0  0
 14 25  1  0  0  0  0
 15  5  2  0  0  0  0
 15 11  1  0  0  0  0
 16  3  1  0  0  0  0
 17 19  2  0  0  0  0
 18 16  2  0  0  0  0
 19 14  1  0  0  0  0
 20 10  2  0  0  0  0
 21  1  1  0  0  0  0
 24 22  1  0  0  0  0
 25  9  1  0  0  0  0
 26 10  1  0  0  0  0
 26 21  1  0  0  0  0
 27  8  1  0  0  0  0
 29 39  1  0  0  0  0
 30 31  1  1  0  0  0
 30 35  1  0  0  0  0
 31 36  1  0  0  0  0
 32 39  1  0  0  0  0
 33 15  1  1  0  0  0
 34 33  1  0  0  0  0
 35 34  1  6  0  0  0
 36 33  1  0  0  0  0
 37 35  1  0  0  0  0
 37 41  1  1  0  0  0
 38 37  1  0  0  0  0
 39 30  1  0  0  0  0
 39 28  1  0  0  0  0
 40 32  1  0  0  0  0
 40 38  1  0  0  0  0
 41 42  2  0  0  0  0
 43 44  1  0  0  0  0
 44 41  1  0  0  0  0
 44 45  1  0  0  0  0
 46 48  1  0  0  0  0
 46 45  1  0  0  0  0
 47 48  1  0  0  0  0
 50 49  1  0  0  0  0
M  END
>  <MODEL>
3

>  <REMARK>
 VINA RESULT:      -3.4      2.739      4.911
  Name = 
  6 active torsions:
  status: ('A' for Active; 'I' for Inactive)
    1  A    between atoms: C_3  and  C_39
    2  A    between atoms: N_4  and  C_22
    3  A    between atoms: C_11  and  C_20
    4  A    between atoms: C_16  and  C_20
    5  A    between atoms: C_16  and  N_48
    6  A    between atoms: C_26  and  C_29
                            x       y       z     vdW  Elec       q    Type
                         _______ _______ _______ _____ _____    ______ ____

>  <TORSDO>
F 6

$$$$
=
 OpenBabel11062412563D

 50 55  0  0  1  0  0  0  0  0999 V2000
  181.7650  176.7490  141.4580 O   0  0  0  0  0  0  0  0  0  0  0  0
  181.3520  177.6290  134.9770 C   0  0  0  0  0  2  0  0  0  0  0  0
  179.4870  175.5140  140.0580 N   0  0  0  0  0  0  0  0  0  0  0  0
  180.9460  177.0850  136.2650 N   0  0  0  0  0  0  0  0  0  0  0  0
  185.9950  179.2470  142.0630 C   0  0  0  0  0  3  0  0  0  0  0  0
  180.4860  178.8370  134.6350 C   0  0  0  0  0  2  0  0  0  0  0  0
  180.4790  182.1600  136.0920 N   0  0  0  0  0  0  0  0  0  0  0  0
  183.5810  178.2820  139.2820 C   0  0  0  0  0  2  0  0  0  0  0  0
  180.6970  177.1420  138.6200 N   0  0  0  0  0  2  0  0  0  0  0  0
  183.8880  178.7060  143.0280 N   0  0  0  0  0  0  0  0  0  0  0  0
  184.1300  178.6340  140.6380 C   0  0  0  0  0  0  0  0  0  0  0  0
  180.1820  181.3210  135.1880 N   0  0  0  0  0  0  0  0  0  0  0  0
  181.1940  181.4820  137.1110 C   0  0  0  0  0  0  0  0  0  0  0  0
  182.0390  178.9420  137.4060 C   0  0  2  0  0  3  0  0  0  0  0  0
  185.4700  179.0510  140.7760 C   0  0  0  0  0  0  0  0  0  0  0  0
  180.0360  175.8810  138.7810 C   0  0  0  0  0  0  0  0  0  0  0  0
  180.6960  180.0320  135.5300 C   0  0  0  0  0  0  0  0  0  0  0  0
  179.9710  175.0720  137.8130 O   0  0  0  0  0  0  0  0  0  0  0  0
  181.3020  180.0750  136.7250 C   0  0  0  0  0  0  0  0  0  0  0  0
  185.1840  179.0680  143.1820 C   0  0  0  0  0  3  0  0  0  0  0  0
  181.8970  178.1120  141.7370 C   0  0  0  0  0  2  0  0  0  0  0  0
  180.5760  176.3640  142.0840 C   0  0  0  0  0  2  0  0  0  0  0  0
  181.7930  182.1030  138.1190 C   0  0  0  0  0  2  0  0  0  0  0  0
  179.3950  176.4930  141.1310 C   0  0  0  0  0  2  0  0  0  0  0  0
  181.2220  177.6690  137.3930 C   0  0  0  0  0  0  0  0  0  0  0  0
  183.3400  178.4890  141.8040 C   0  0  0  0  0  0  0  0  0  0  0  0
  182.5660  179.3050  138.7970 C   0  0  0  0  0  2  0  0  0  0  0  0
  187.2670  175.5680  137.3820 C   0  0  0  0  0  1  0  0  0  0  0  0
  187.3160  176.9100  135.3340 C   0  0  0  0  0  1  0  0  0  0  0  0
  188.0170  177.9980  137.5170 C   0  0  1  0  0  3  0  0  0  0  0  0
  186.6890  178.7800  137.3720 C   0  0  0  0  0  2  0  0  0  0  0  0
  189.4180  176.1880  136.2950 C   0  0  0  0  0  2  0  0  0  0  0  0
  186.3370  179.2640  139.5580 C   0  0  1  0  0  3  0  0  0  0  0  0
  187.8370  178.9940  139.8290 C   0  0  0  0  0  2  0  0  0  0  0  0
  188.3140  177.7760  139.0300 C   0  0  2  0  0  3  0  0  0  0  0  0
  185.8420  178.5170  138.4650 O   0  0  0  0  0  0  0  0  0  0  0  0
  189.7790  177.4570  139.3840 C   0  0  2  0  0  3  0  0  0  0  0  0
  190.3000  176.2480  138.6270 C   0  0  0  0  0  2  0  0  0  0  0  0
  188.0150  176.6880  136.6680 C   0  0  0  0  0  0  0  0  0  0  0  0
  190.5680  176.6270  137.1890 C   0  0  0  0  0  2  0  0  0  0  0  0
  189.9380  177.1910  140.8590 C   0  0  0  0  0  0  0  0  0  0  0  0
  188.9120  176.9890  141.5670 O   0  0  0  0  0  0  0  0  0  0  0  0
  192.4380  176.9470  140.6470 C   0  0  0  0  0  1  0  0  0  0  0  0
  191.2450  177.1140  141.4580 N   0  0  0  0  0  0  0  0  0  0  0  0
  191.3930  177.1350  142.9060 C   0  0  0  0  0  2  0  0  0  0  0  0
  190.9940  178.5040  143.4420 C   0  0  0  0  0  2  0  0  0  0  0  0
  190.8060  177.6560  145.7780 C   0  0  0  0  0  1  0  0  0  0  0  0
  190.0800  178.3540  144.6430 C   0  0  0  0  0  2  0  0  0  0  0  0
  179.4680  173.5950  141.5800 C   0  0  0  0  0  1  0  0  0  0  0  0
  178.9310  174.1870  140.2880 C   0  0  0  0  0  2  0  0  0  0  0  0
  1 21  1  0  0  0  0
  1 22  1  0  0  0  0
  2  4  1  0  0  0  0
  3 50  1  0  0  0  0
  3 24  1  0  0  0  0
  4 25  2  0  0  0  0
  5 20  1  0  0  0  0
  6  2  1  0  0  0  0
  6 17  1  0  0  0  0
  7 13  1  0  0  0  0
  8 11  1  0  0  0  0
  9 16  1  0  0  0  0
 10 20  2  0  0  0  0
 11 15  1  0  0  0  0
 11 26  2  0  0  0  0
 12 17  1  0  0  0  0
 12  7  2  0  0  0  0
 13 23  2  0  0  0  0
 14 27  1  1  0  0  0
 15  5  2  0  0  0  0
 16  3  1  0  0  0  0
 17 19  2  0  0  0  0
 18 16  2  0  0  0  0
 19 13  1  0  0  0  0
 19 14  1  0  0  0  0
 21 26  1  0  0  0  0
 24 22  1  0  0  0  0
 25 14  1  0  0  0  0
 25  9  1  0  0  0  0
 26 10  1  0  0  0  0
 27  8  1  0  0  0  0
 29 39  1  0  0  0  0
 30 31  1  1  0  0  0
 30 35  1  0  0  0  0
 31 36  1  0  0  0  0
 32 39  1  0  0  0  0
 32 40  1  0  0  0  0
 33 34  1  0  0  0  0
 33 15  1  1  0  0  0
 35 37  1  0  0  0  0
 35 34  1  1  0  0  0
 36 33  1  0  0  0  0
 37 41  1  1  0  0  0
 38 37  1  0  0  0  0
 39 28  1  0  0  0  0
 39 30  1  0  0  0  0
 40 38  1  0  0  0  0
 41 44  1  0  0  0  0
 41 42  2  0  0  0  0
 43 44  1  0  0  0  0
 44 45  1  0  0  0  0
 45 46  1  0  0  0  0
 46 48  1  0  0  0  0
 48 47  1  0  0  0  0
 50 49  1  0  0  0  0
M  END
>  <MODEL>
4

>  <REMARK>
 VINA RESULT:      -2.1      3.084      7.143
  Name = 
  6 active torsions:
  status: ('A' for Active; 'I' for Inactive)
    1  A    between atoms: C_3  and  C_39
    2  A    between atoms: N_4  and  C_22
    3  A    between atoms: C_11  and  C_20
    4  A    between atoms: C_16  and  C_20
    5  A    between atoms: C_16  and  N_48
    6  A    between atoms: C_26  and  C_29
                            x       y       z     vdW  Elec       q    Type
                         _______ _______ _______ _____ _____    ______ ____

>  <TORSDO>
F 6

$$$$
=
 OpenBabel11062412563D

 50 55  0  0  1  0  0  0  0  0999 V2000
  185.5390  178.8820  140.4890 O   0  0  0  0  0  0  0  0  0  0  0  0
  183.6730  176.6350  134.6230 C   0  0  0  0  0  2  0  0  0  0  0  0
  187.6520  178.2610  138.5330 N   0  0  0  0  0  0  0  0  0  0  0  0
  184.6320  177.0920  135.6190 N   0  0  0  0  0  0  0  0  0  0  0  0
  180.9730  179.4670  142.3080 C   0  0  0  0  0  3  0  0  0  0  0  0
  183.6530  175.1100  134.5940 C   0  0  0  0  0  2  0  0  0  0  0  0
  182.3160  172.7710  137.0250 N   0  0  0  0  0  0  0  0  0  0  0  0
  182.6840  178.2760  139.1240 C   0  0  0  0  0  2  0  0  0  0  0  0
  185.4360  177.3800  137.8280 N   0  0  0  0  0  2  0  0  0  0  0  0
  183.2210  178.8760  142.8190 N   0  0  0  0  0  0  0  0  0  0  0  0
  182.4210  178.5880  140.5720 C   0  0  0  0  0  0  0  0  0  0  0  0
  182.7520  173.0810  135.8740 N   0  0  0  0  0  0  0  0  0  0  0  0
  182.3650  173.9260  137.8450 C   0  0  0  0  0  0  0  0  0  0  0  0
  183.0840  176.4840  137.4030 C   0  0  2  0  0  3  0  0  0  0  0  0
  181.1550  179.0600  140.9780 C   0  0  0  0  0  0  0  0  0  0  0  0
  186.6720  178.0290  137.5070 C   0  0  0  0  0  0  0  0  0  0  0  0
  183.0990  174.4670  135.8400 C   0  0  0  0  0  0  0  0  0  0  0  0
  186.8870  178.4360  136.3300 O   0  0  0  0  0  0  0  0  0  0  0  0
  182.9070  175.0250  137.0440 C   0  0  0  0  0  0  0  0  0  0  0  0
  182.0230  179.3680  143.2190 C   0  0  0  0  0  3  0  0  0  0  0  0
  184.7960  177.9360  141.2010 C   0  0  0  0  0  2  0  0  0  0  0  0
  186.8710  178.6270  140.8290 C   0  0  0  0  0  2  0  0  0  0  0  0
  181.8270  173.9850  139.0550 C   0  0  0  0  0  2  0  0  0  0  0  0
  187.5030  177.6510  139.8460 C   0  0  0  0  0  2  0  0  0  0  0  0
  184.4060  177.0180  136.8970 C   0  0  0  0  0  0  0  0  0  0  0  0
  183.4490  178.4840  141.5380 C   0  0  0  0  0  0  0  0  0  0  0  0
  182.8420  176.7820  138.8850 C   0  0  0  0  0  2  0  0  0  0  0  0
  181.1890  178.2740  135.8540 C   0  0  0  0  0  1  0  0  0  0  0  0
  178.9390  177.3690  135.5150 C   0  0  0  0  0  1  0  0  0  0  0  0
  179.2490  179.2740  137.1650 C   0  0  1  0  0  3  0  0  0  0  0  0
  178.9550  178.1890  138.2310 C   0  0  0  0  0  2  0  0  0  0  0  0
  179.4620  179.5470  134.5940 C   0  0  0  0  0  2  0  0  0  0  0  0
  180.0150  179.1440  139.9910 C   0  0  1  0  0  3  0  0  0  0  0  0
  179.9550  180.5040  139.2520 C   0  0  0  0  0  2  0  0  0  0  0  0
  180.2440  180.3140  137.7600 C   0  0  2  0  0  3  0  0  0  0  0  0
  180.0510  178.0470  139.1020 O   0  0  0  0  0  0  0  0  0  0  0  0
  180.2810  181.6830  137.0530 C   0  0  2  0  0  3  0  0  0  0  0  0
  180.5770  181.5530  135.5700 C   0  0  0  0  0  2  0  0  0  0  0  0
  179.7120  178.6470  135.8130 C   0  0  0  0  0  0  0  0  0  0  0  0
  179.3490  181.0430  134.8510 C   0  0  0  0  0  2  0  0  0  0  0  0
  181.3250  182.5830  137.6620 C   0  0  0  0  0  0  0  0  0  0  0  0
  182.0960  182.1240  138.5530 O   0  0  0  0  0  0  0  0  0  0  0  0
  180.9140  184.3860  135.9500 C   0  0  0  0  0  1  0  0  0  0  0  0
  181.4870  183.9380  137.2070 N   0  0  0  0  0  0  0  0  0  0  0  0
  182.2920  184.8800  137.9720 C   0  0  0  0  0  2  0  0  0  0  0  0
  181.3800  185.8370  138.7290 C   0  0  0  0  0  2  0  0  0  0  0  0
  179.0190  186.5630  139.0570 C   0  0  0  0  0  1  0  0  0  0  0  0
  179.9250  185.5000  138.4640 C   0  0  0  0  0  2  0  0  0  0  0  0
  190.0530  178.1230  138.0710 C   0  0  0  0  0  1  0  0  0  0  0  0
  188.8570  179.0370  138.2670 C   0  0  0  0  0  2  0  0  0  0  0  0
  1 22  1  0  0  0  0
  1 21  1  0  0  0  0
  2  4  1  0  0  0  0
  3 24  1  0  0  0  0
  4 25  2  0  0  0  0
  5 20  1  0  0  0  0
  6  2  1  0  0  0  0
  6 17  1  0  0  0  0
  7 13  1  0  0  0  0
  8 11  1  0  0  0  0
 10 20  2  0  0  0  0
 11 15  1  0  0  0  0
 11 26  2  0  0  0  0
 12  7  2  0  0  0  0
 13 23  2  0  0  0  0
 14 27  1  1  0  0  0
 15  5  2  0  0  0  0
 16  9  1  0  0  0  0
 16  3  1  0  0  0  0
 17 12  1  0  0  0  0
 17 19  2  0  0  0  0
 18 16  2  0  0  0  0
 19 14  1  0  0  0  0
 19 13  1  0  0  0  0
 21 26  1  0  0  0  0
 24 22  1  0  0  0  0
 25 14  1  0  0  0  0
 25  9  1  0  0  0  0
 26 10  1  0  0  0  0
 27  8  1  0  0  0  0
 29 39  1  0  0  0  0
 30 35  1  0  0  0  0
 30 31  1  1  0  0  0
 31 36  1  0  0  0  0
 32 40  1  0  0  0  0
 32 39  1  0  0  0  0
 33 15  1  6  0  0  0
 34 33  1  0  0  0  0
 35 34  1  1  0  0  0
 36 33  1  0  0  0  0
 37 41  1  1  0  0  0
 37 35  1  0  0  0  0
 38 37  1  0  0  0  0
 39 28  1  0  0  0  0
 39 30  1  0  0  0  0
 40 38  1  0  0  0  0
 41 42  2  0  0  0  0
 43 44  1  0  0  0  0
 44 41  1  0  0  0  0
 44 45  1  0  0  0  0
 45 46  1  0  0  0  0
 48 46  1  0  0  0  0
 48 47  1  0  0  0  0
 49 50  1  0  0  0  0
 50  3  1  0  0  0  0
M  END
>  <MODEL>
5

>  <REMARK>
 VINA RESULT:      -2.0      2.567      8.144
  Name = 
  6 active torsions:
  status: ('A' for Active; 'I' for Inactive)
    1  A    between atoms: C_3  and  C_39
    2  A    between atoms: N_4  and  C_22
    3  A    between atoms: C_11  and  C_20
    4  A    between atoms: C_16  and  C_20
    5  A    between atoms: C_16  and  N_48
    6  A    between atoms: C_26  and  C_29
                            x       y       z     vdW  Elec       q    Type
                         _______ _______ _______ _____ _____    ______ ____

>  <TORSDO>
F 6

$$$$
=
 OpenBabel11062412563D

 50 55  0  0  1  0  0  0  0  0999 V2000
  188.4000  177.9810  141.7690 O   0  0  0  0  0  0  0  0  0  0  0  0
  189.1360  177.4780  135.2760 C   0  0  0  0  0  2  0  0  0  0  0  0
  191.0650  177.2450  140.7530 N   0  0  0  0  0  0  0  0  0  0  0  0
  189.5860  177.4740  136.6610 N   0  0  0  0  0  0  0  0  0  0  0  0
  183.6390  179.3310  141.6580 C   0  0  0  0  0  3  0  0  0  0  0  0
  188.9200  176.0450  134.8020 C   0  0  0  0  0  2  0  0  0  0  0  0
  186.3080  173.6880  135.6920 N   0  0  0  0  0  0  0  0  0  0  0  0
  186.4350  178.3970  139.2490 C   0  0  0  0  0  2  0  0  0  0  0  0
  189.3200  177.1090  138.9860 N   0  0  0  0  0  2  0  0  0  0  0  0
  185.2970  178.1020  142.8440 N   0  0  0  0  0  0  0  0  0  0  0  0
  185.5830  178.4750  140.4880 C   0  0  0  0  0  0  0  0  0  0  0  0
  187.2610  174.0980  134.9600 N   0  0  0  0  0  0  0  0  0  0  0  0
  186.1360  174.6090  136.7560 C   0  0  0  0  0  0  0  0  0  0  0  0
  187.3250  176.9370  137.4030 C   0  0  2  0  0  3  0  0  0  0  0  0
  184.3510  179.1610  140.4610 C   0  0  0  0  0  0  0  0  0  0  0  0
  190.6420  177.4740  139.3980 C   0  0  0  0  0  0  0  0  0  0  0  0
  187.7740  175.3300  135.4720 C   0  0  0  0  0  0  0  0  0  0  0  0
  191.4260  178.0380  138.5830 O   0  0  0  0  0  0  0  0  0  0  0  0
  187.1310  175.6700  136.5990 C   0  0  0  0  0  0  0  0  0  0  0  0
  184.1300  178.7930  142.8460 C   0  0  0  0  0  3  0  0  0  0  0  0
  187.2900  177.1330  141.8100 C   0  0  0  0  0  2  0  0  0  0  0  0
  189.3790  177.3370  142.5310 C   0  0  0  0  0  2  0  0  0  0  0  0
  185.1170  174.5620  137.6040 C   0  0  0  0  0  2  0  0  0  0  0  0
  190.2480  176.4460  141.6550 C   0  0  0  0  0  2  0  0  0  0  0  0
  188.7920  177.2090  137.6560 C   0  0  0  0  0  0  0  0  0  0  0  0
  186.0290  177.9250  141.7130 C   0  0  0  0  0  0  0  0  0  0  0  0
  186.4750  176.9890  138.6760 C   0  0  0  0  0  2  0  0  0  0  0  0
  179.6840  181.1790  139.4510 C   0  0  0  0  0  1  0  0  0  0  0  0
  180.2640  182.8450  137.7530 C   0  0  0  0  0  1  0  0  0  0  0  0
  181.4320  180.5920  137.6960 C   0  0  1  0  0  3  0  0  0  0  0  0
  182.6710  181.3990  138.1560 C   0  0  0  0  0  2  0  0  0  0  0  0
  178.9320  180.9340  137.0920 C   0  0  0  0  0  2  0  0  0  0  0  0
  183.8140  179.7230  139.1670 C   0  0  1  0  0  3  0  0  0  0  0  0
  182.9620  178.7030  138.3720 C   0  0  0  0  0  2  0  0  0  0  0  0
  181.5020  179.1610  138.3070 C   0  0  2  0  0  3  0  0  0  0  0  0
  183.1240  180.9340  139.4040 O   0  0  0  0  0  0  0  0  0  0  0  0
  180.6460  178.0910  137.6020 C   0  0  2  0  0  3  0  0  0  0  0  0
  179.1840  178.4900  137.5210 C   0  0  0  0  0  2  0  0  0  0  0  0
  180.1020  181.3500  137.9960 C   0  0  0  0  0  0  0  0  0  0  0  0
  179.0060  179.5510  136.4600 C   0  0  0  0  0  2  0  0  0  0  0  0
  180.7320  176.7670  138.3170 C   0  0  0  0  0  0  0  0  0  0  0  0
  181.0770  176.7390  139.5320 O   0  0  0  0  0  0  0  0  0  0  0  0
  179.6150  175.5530  136.4120 C   0  0  0  0  0  1  0  0  0  0  0  0
  180.3760  175.5430  137.6480 N   0  0  0  0  0  0  0  0  0  0  0  0
  180.7190  174.2560  138.2370 C   0  0  0  0  0  2  0  0  0  0  0  0
  181.7490  173.5510  137.3640 C   0  0  0  0  0  2  0  0  0  0  0  0
  179.8540  171.9350  137.4450 C   0  0  0  0  0  1  0  0  0  0  0  0
  181.3160  172.1260  137.0830 C   0  0  0  0  0  2  0  0  0  0  0  0
  193.4820  177.2180  140.3580 C   0  0  0  0  0  1  0  0  0  0  0  0
  192.3520  177.7280  141.2360 C   0  0  0  0  0  2  0  0  0  0  0  0
  1 21  1  0  0  0  0
  1 22  1  0  0  0  0
  2  4  1  0  0  0  0
  3 50  1  0  0  0  0
  3 24  1  0  0  0  0
  4 25  2  0  0  0  0
  5 20  1  0  0  0  0
  6  2  1  0  0  0  0
  6 17  1  0  0  0  0
  7 13  1  0  0  0  0
  8 11  1  0  0  0  0
  9 16  1  0  0  0  0
 10 20  2  0  0  0  0
 11 26  2  0  0  0  0
 12 17  1  0  0  0  0
 12  7  2  0  0  0  0
 13 23  2  0  0  0  0
 14 25  1  0  0  0  0
 14 27  1  1  0  0  0
 15 11  1  0  0  0  0
 15  5  2  0  0  0  0
 16  3  1  0  0  0  0
 17 19  2  0  0  0  0
 18 16  2  0  0  0  0
 19 13  1  0  0  0  0
 19 14  1  0  0  0  0
 24 22  1  0  0  0  0
 25  9  1  0  0  0  0
 26 21  1  0  0  0  0
 26 10  1  0  0  0  0
 27  8  1  0  0  0  0
 29 39  1  0  0  0  0
 30 39  1  0  0  0  0
 30 31  1  1  0  0  0
 30 35  1  0  0  0  0
 31 36  1  0  0  0  0
 32 39  1  0  0  0  0
 33 36  1  0  0  0  0
 33 15  1  1  0  0  0
 34 33  1  0  0  0  0
 35 34  1  6  0  0  0
 37 35  1  0  0  0  0
 37 41  1  1  0  0  0
 38 37  1  0  0  0  0
 39 28  1  0  0  0  0
 40 32  1  0  0  0  0
 40 38  1  0  0  0  0
 41 42  2  0  0  0  0
 43 44  1  0  0  0  0
 44 45  1  0  0  0  0
 44 41  1  0  0  0  0
 46 45  1  0  0  0  0
 48 46  1  0  0  0  0
 48 47  1  0  0  0  0
 49 50  1  0  0  0  0
M  END
>  <MODEL>
6

>  <REMARK>
 VINA RESULT:      -2.0      2.836      7.309
  Name = 
  6 active torsions:
  status: ('A' for Active; 'I' for Inactive)
    1  A    between atoms: C_3  and  C_39
    2  A    between atoms: N_4  and  C_22
    3  A    between atoms: C_11  and  C_20
    4  A    between atoms: C_16  and  C_20
    5  A    between atoms: C_16  and  N_48
    6  A    between atoms: C_26  and  C_29
                            x       y       z     vdW  Elec       q    Type
                         _______ _______ _______ _____ _____    ______ ____

>  <TORSDO>
F 6

$$$$
