=
 OpenBabel11062416273D

 46 52  0  0  1  0  0  0  0  0999 V2000
  183.1100  178.3320  140.8230 C   0  0  1  0  0  3  0  0  0  0  0  0
  182.0590  173.1300  136.3470 C   0  0  2  0  0  3  0  0  0  0  0  0
  183.9280  175.8990  136.0800 C   0  0  0  0  0  2  0  0  0  0  0  0
  180.6220  173.5910  138.2270 F   0  0  0  0  0  0  0  0  0  0  0  0
  183.3410  173.5750  135.9630 O   0  0  0  0  0  0  0  0  0  0  0  0
  182.2990  176.4910  140.0090 C   0  0  0  0  0  2  0  0  0  0  0  0
  182.6410  174.8000  137.8910 C   0  0  1  0  0  3  0  0  0  0  0  0
  181.4350  174.1630  137.2620 C   0  0  0  0  0  0  0  0  0  0  0  0
  183.7250  177.0750  137.0190 C   0  0  0  0  0  2  0  0  0  0  0  0
  184.9160  174.2450  137.4890 O   0  0  0  0  0  1  0  0  0  0  0  0
  183.7260  174.5990  136.8540 C   0  0  2  0  0  0  0  0  0  0  0  0
  180.7040  175.0540  136.4950 F   0  0  0  0  0  0  0  0  0  0  0  0
  182.4550  176.5770  138.2090 P   0  0  1  0  0  4  0  0  0  0  0  0
  182.1740  171.8970  136.9910 O   0  0  0  0  0  1  0  0  0  0  0  0
  183.2110  178.8850  139.4470 C   0  0  2  0  0  0  0  0  0  0  0  0
  183.4060  177.3400  139.6740 C   0  0  2  0  0  0  0  0  0  0  0  0
  184.4260  179.5260  139.1140 O   0  0  0  0  0  0  0  0  0  0  0  0
  185.3330  178.5540  138.6640 C   0  0  0  0  0  1  0  0  0  0  0  0
  184.8750  179.7870  141.5000 O   0  0  0  0  0  1  0  0  0  0  0  0
  184.3630  178.5020  141.6730 C   0  0  1  0  0  3  0  0  0  0  0  0
  184.0330  178.2870  143.1410 C   0  0  0  0  0  2  0  0  0  0  0  0
  186.0260  178.7560  146.2820 C   0  0  0  0  0  3  0  0  0  0  0  0
  187.9650  177.5360  145.3530 C   0  0  0  0  0  0  0  0  0  0  0  0
  185.2970  179.0450  145.2010 C   0  0  0  0  0  3  0  0  0  0  0  0
  185.2820  178.2600  143.9480 C   0  0  0  0  0  0  0  0  0  0  0  0
  187.6910  177.5170  144.0460 C   0  0  0  0  0  3  0  0  0  0  0  0
  186.8720  177.5310  146.3810 C   0  0  0  0  0  2  0  0  0  0  0  0
  186.3470  177.6230  143.4400 C   0  0  0  0  0  3  0  0  0  0  0  0
  189.3080  177.5020  145.7430 O   0  0  0  0  0  0  0  0  0  0  0  0
  189.7230  177.3900  147.1020 C   0  0  0  0  0  2  0  0  0  0  0  0
  191.0050  176.5820  147.2090 C   0  0  0  0  0  2  0  0  0  0  0  0
  191.6690  176.4670  145.8560 C   0  0  0  0  0  1  0  0  0  0  0  0
  181.8850  179.5600  138.9680 C   0  0  1  0  0  3  0  0  0  0  0  0
  181.0490  180.0960  140.1230 C   0  0  0  0  0  2  0  0  0  0  0  0
  179.8680  179.2610  140.3210 N   0  0  0  0  0  2  0  0  0  0  0  0
  179.8470  178.2370  142.5800 C   0  0  0  0  0  2  0  0  0  0  0  0
  180.0060  180.3430  142.4480 O   0  0  0  0  0  0  0  0  0  0  0  0
  180.4890  179.3670  143.3430 C   0  0  0  0  0  2  0  0  0  0  0  0
  179.3480  179.3530  141.6970 C   0  0  1  0  0  3  0  0  0  0  0  0
  182.1000  180.5680  138.0200 O   0  0  0  0  0  0  0  0  0  0  0  0
  181.4190  181.6810  138.5160 C   0  0  2  0  0  3  0  0  0  0  0  0
  180.6990  182.4060  137.4430 C   0  0  1  0  0  0  0  0  0  0  0  0
  179.6750  183.2600  137.8470 O   0  0  0  0  0  1  0  0  0  0  0  0
  181.9400  182.8490  137.9190 O   0  0  0  0  0  0  0  0  0  0  0  0
  180.7590  181.9860  135.9840 C   0  0  0  0  0  2  0  0  0  0  0  0
  180.4860  183.1790  135.0910 C   0  0  0  0  0  1  0  0  0  0  0  0
  1 20  1  1  0  0  0
  2 14  1  1  0  0  0
  2  8  1  0  0  0  0
  3 11  1  0  0  0  0
  3  9  1  0  0  0  0
  5  2  1  0  0  0  0
  5 11  1  0  0  0  0
  7  8  1  6  0  0  0
  7 13  1  0  0  0  0
  8  4  1  0  0  0  0
 11 10  1  1  0  0  0
 11  7  1  0  0  0  0
 12  8  1  0  0  0  0
 13  9  1  6  0  0  0
 13 16  1  0  0  0  0
 13  6  1  0  0  0  0
 15 17  1  6  0  0  0
 15 16  1  0  0  0  0
 15  1  1  0  0  0  0
 16  6  1  1  0  0  0
 16  1  1  0  0  0  0
 18 17  1  0  0  0  0
 20 19  1  1  0  0  0
 20 21  1  0  0  0  0
 21 25  1  0  0  0  0
 22 27  1  0  0  0  0
 23 29  1  0  0  0  0
 23 27  1  0  0  0  0
 24 22  2  0  0  0  0
 25 24  1  0  0  0  0
 26 23  2  0  0  0  0
 28 25  2  0  0  0  0
 28 26  1  0  0  0  0
 29 30  1  0  0  0  0
 30 31  1  0  0  0  0
 32 31  1  0  0  0  0
 33 15  1  0  0  0  0
 33 34  1  1  0  0  0
 34 35  1  0  0  0  0
 36 38  1  0  0  0  0
 37 38  1  0  0  0  0
 39 35  1  6  0  0  0
 39 37  1  0  0  0  0
 39 36  1  0  0  0  0
 40 33  1  0  0  0  0
 41 40  1  6  0  0  0
 42 43  1  1  0  0  0
 42 44  1  0  0  0  0
 42 41  1  0  0  0  0
 44 41  1  0  0  0  0
 45 42  1  0  0  0  0
 46 45  1  0  0  0  0
M  END
>  <MODEL>
1

>  <REMARK>
 VINA RESULT:      -7.8      0.000      0.000
  Name = 
  14 active torsions:
  status: ('A' for Active; 'I' for Inactive)
    1  A    between atoms: C_1  and  C_5
    2  A    between atoms: C_2  and  C_31
    3  A    between atoms: C_3  and  C_45
    4  A    between atoms: C_4  and  O_19
    5  A    between atoms: O_6  and  C_23
    6  A    between atoms: O_6  and  C_31
    7  A    between atoms: O_7  and  C_44
    8  A    between atoms: C_9  and  C_11
    9  A    between atoms: C_9  and  N_18
   10  A    between atoms: C_11  and  O_19
   11  A    between atoms: C_11  and  C_44
   12  A    between atoms: N_18  and  C_40
   13  A    between atoms: C_30  and  C_42
   14  A    between atoms: C_42  and  C_45
                            x       y       z     vdW  Elec       q    Type
                         _______ _______ _______ _____ _____    ______ ____

>  <TORSDO>
F 14

$$$$
=
 OpenBabel11062416273D

 46 52  0  0  1  0  0  0  0  0999 V2000
  182.9690  177.9930  140.6850 C   0  0  1  0  0  3  0  0  0  0  0  0
  182.5330  172.9410  135.9440 C   0  0  2  0  0  3  0  0  0  0  0  0
  184.0010  175.9500  135.8010 C   0  0  0  0  0  2  0  0  0  0  0  0
  181.0900  173.1000  137.8690 F   0  0  0  0  0  0  0  0  0  0  0  0
  183.7330  173.5770  135.5640 O   0  0  0  0  0  0  0  0  0  0  0  0
  182.3980  176.1050  139.7820 C   0  0  0  0  0  2  0  0  0  0  0  0
  182.9180  174.5900  137.5680 C   0  0  1  0  0  3  0  0  0  0  0  0
  181.7960  173.8280  136.9240 C   0  0  0  0  0  0  0  0  0  0  0  0
  183.6620  177.0350  136.8070 C   0  0  0  0  0  2  0  0  0  0  0  0
  185.2370  174.3750  137.1000 O   0  0  0  0  0  1  0  0  0  0  0  0
  183.9950  174.5960  136.5050 C   0  0  2  0  0  0  0  0  0  0  0  0
  180.9320  174.6490  136.2190 F   0  0  0  0  0  0  0  0  0  0  0  0
  182.4990  176.3060  137.9870 P   0  0  1  0  0  4  0  0  0  0  0  0
  182.8300  171.7020  136.5160 O   0  0  0  0  0  1  0  0  0  0  0  0
  182.9620  178.6270  139.3400 C   0  0  2  0  0  0  0  0  0  0  0  0
  183.3710  177.1140  139.4780 C   0  0  2  0  0  0  0  0  0  0  0  0
  184.0700  179.4450  139.0240 O   0  0  0  0  0  0  0  0  0  0  0  0
  183.6060  180.7480  138.7830 C   0  0  0  0  0  1  0  0  0  0  0  0
  184.6480  179.5860  141.2660 O   0  0  0  0  0  1  0  0  0  0  0  0
  184.2070  178.2880  141.5230 C   0  0  1  0  0  3  0  0  0  0  0  0
  183.8830  178.1540  143.0010 C   0  0  0  0  0  2  0  0  0  0  0  0
  185.8270  178.9890  146.0960 C   0  0  0  0  0  3  0  0  0  0  0  0
  187.8340  177.7990  145.2780 C   0  0  0  0  0  0  0  0  0  0  0  0
  185.0910  179.1480  144.9930 C   0  0  0  0  0  3  0  0  0  0  0  0
  185.1260  178.2600  143.8110 C   0  0  0  0  0  0  0  0  0  0  0  0
  187.5690  177.6560  143.9760 C   0  0  0  0  0  3  0  0  0  0  0  0
  186.7350  177.8230  146.3000 C   0  0  0  0  0  2  0  0  0  0  0  0
  186.2260  177.6390  143.3600 C   0  0  0  0  0  3  0  0  0  0  0  0
  189.1730  177.8680  145.6720 O   0  0  0  0  0  0  0  0  0  0  0  0
  190.2580  177.8940  144.7480 C   0  0  0  0  0  2  0  0  0  0  0  0
  191.2700  176.8080  145.0740 C   0  0  0  0  0  2  0  0  0  0  0  0
  191.4210  176.6630  146.5710 C   0  0  0  0  0  1  0  0  0  0  0  0
  181.5460  179.1380  138.9200 C   0  0  1  0  0  3  0  0  0  0  0  0
  181.1310  178.6440  137.5390 C   0  0  0  0  0  2  0  0  0  0  0  0
  181.1830  179.7400  136.5750 N   0  0  0  0  0  2  0  0  0  0  0  0
  180.4070  182.0490  136.1060 C   0  0  0  0  0  2  0  0  0  0  0  0
  178.9650  180.5000  136.1090 O   0  0  0  0  0  0  0  0  0  0  0  0
  179.1170  181.7120  135.4050 C   0  0  0  0  0  2  0  0  0  0  0  0
  180.1450  180.7530  136.8320 C   0  0  1  0  0  3  0  0  0  0  0  0
  180.5550  178.8290  139.8600 O   0  0  0  0  0  0  0  0  0  0  0  0
  180.3020  180.0300  140.5250 C   0  0  2  0  0  3  0  0  0  0  0  0
  179.8680  179.8020  141.9220 C   0  0  1  0  0  0  0  0  0  0  0  0
  179.9830  180.8830  142.7950 O   0  0  0  0  0  1  0  0  0  0  0  0
  178.9430  180.0730  140.9050 O   0  0  0  0  0  0  0  0  0  0  0  0
  179.6850  178.4120  142.5100 C   0  0  0  0  0  2  0  0  0  0  0  0
  180.2170  178.3770  143.9280 C   0  0  0  0  0  1  0  0  0  0  0  0
  1 20  1  1  0  0  0
  2 14  1  1  0  0  0
  2  8  1  0  0  0  0
  3 11  1  0  0  0  0
  3  9  1  0  0  0  0
  5  2  1  0  0  0  0
  5 11  1  0  0  0  0
  7  8  1  6  0  0  0
  7 13  1  0  0  0  0
  8  4  1  0  0  0  0
 11 10  1  1  0  0  0
 11  7  1  0  0  0  0
 12  8  1  0  0  0  0
 13  9  1  6  0  0  0
 13 16  1  0  0  0  0
 13  6  1  0  0  0  0
 15 17  1  6  0  0  0
 15 16  1  0  0  0  0
 15  1  1  0  0  0  0
 16  6  1  1  0  0  0
 16  1  1  0  0  0  0
 18 17  1  0  0  0  0
 20 19  1  1  0  0  0
 20 21  1  0  0  0  0
 21 25  1  0  0  0  0
 22 27  1  0  0  0  0
 23 29  1  0  0  0  0
 23 27  1  0  0  0  0
 24 22  2  0  0  0  0
 25 24  1  0  0  0  0
 26 23  2  0  0  0  0
 28 25  2  0  0  0  0
 28 26  1  0  0  0  0
 30 31  1  0  0  0  0
 30 29  1  0  0  0  0
 31 32  1  0  0  0  0
 33 34  1  6  0  0  0
 33 15  1  0  0  0  0
 33 40  1  0  0  0  0
 35 34  1  0  0  0  0
 36 39  1  0  0  0  0
 37 39  1  0  0  0  0
 38 36  1  0  0  0  0
 38 37  1  0  0  0  0
 39 35  1  6  0  0  0
 41 40  1  6  0  0  0
 41 44  1  0  0  0  0
 41 42  1  0  0  0  0
 42 45  1  0  0  0  0
 42 43  1  1  0  0  0
 44 42  1  0  0  0  0
 45 46  1  0  0  0  0
M  END
>  <MODEL>
2

>  <REMARK>
 VINA RESULT:      -7.5      1.320      3.304
  Name = 
  14 active torsions:
  status: ('A' for Active; 'I' for Inactive)
    1  A    between atoms: C_1  and  C_5
    2  A    between atoms: C_2  and  C_31
    3  A    between atoms: C_3  and  C_45
    4  A    between atoms: C_4  and  O_19
    5  A    between atoms: O_6  and  C_23
    6  A    between atoms: O_6  and  C_31
    7  A    between atoms: O_7  and  C_44
    8  A    between atoms: C_9  and  C_11
    9  A    between atoms: C_9  and  N_18
   10  A    between atoms: C_11  and  O_19
   11  A    between atoms: C_11  and  C_44
   12  A    between atoms: N_18  and  C_40
   13  A    between atoms: C_30  and  C_42
   14  A    between atoms: C_42  and  C_45
                            x       y       z     vdW  Elec       q    Type
                         _______ _______ _______ _____ _____    ______ ____

>  <TORSDO>
F 14

$$$$
=
 OpenBabel11062416273D

 46 52  0  0  1  0  0  0  0  0999 V2000
  189.3820  176.4680  138.1960 C   0  0  1  0  0  3  0  0  0  0  0  0
  195.3190  173.7520  135.8360 C   0  0  2  0  0  3  0  0  0  0  0  0
  193.3870  176.1920  134.5940 C   0  0  0  0  0  2  0  0  0  0  0  0
  193.8990  172.6670  137.4530 F   0  0  0  0  0  0  0  0  0  0  0  0
  195.3790  175.0580  135.3040 O   0  0  0  0  0  0  0  0  0  0  0  0
  191.1110  175.1620  138.0870 C   0  0  0  0  0  2  0  0  0  0  0  0
  193.4420  174.8710  136.6900 C   0  0  1  0  0  3  0  0  0  0  0  0
  193.9160  173.4900  136.3390 C   0  0  0  0  0  0  0  0  0  0  0  0
  191.9550  176.3740  135.0650 C   0  0  0  0  0  2  0  0  0  0  0  0
  194.6700  176.8940  136.4800 O   0  0  0  0  0  1  0  0  0  0  0  0
  194.2520  175.7650  135.7760 C   0  0  2  0  0  0  0  0  0  0  0  0
  193.1760  172.9190  135.3180 F   0  0  0  0  0  0  0  0  0  0  0  0
  191.6770  175.1500  136.3690 P   0  0  1  0  0  4  0  0  0  0  0  0
  196.2510  173.6340  136.8690 O   0  0  0  0  0  1  0  0  0  0  0  0
  189.3680  176.5580  136.7120 C   0  0  2  0  0  0  0  0  0  0  0  0
  190.7420  176.4000  137.4630 C   0  0  2  0  0  0  0  0  0  0  0  0
  189.2150  177.8510  136.1610 O   0  0  0  0  0  0  0  0  0  0  0  0
  189.1570  177.7340  134.7630 C   0  0  0  0  0  1  0  0  0  0  0  0
  189.3760  178.8460  137.9940 O   0  0  0  0  0  1  0  0  0  0  0  0
  189.2700  177.8060  138.9170 C   0  0  1  0  0  3  0  0  0  0  0  0
  187.9320  177.9050  139.6310 C   0  0  0  0  0  2  0  0  0  0  0  0
  186.7670  177.8950  143.1940 C   0  0  0  0  0  3  0  0  0  0  0  0
  189.0410  177.4230  144.0420 C   0  0  0  0  0  0  0  0  0  0  0  0
  186.9840  178.3110  141.9440 C   0  0  0  0  0  3  0  0  0  0  0  0
  188.1360  177.9210  141.1040 C   0  0  0  0  0  0  0  0  0  0  0  0
  189.8050  177.7100  142.9840 C   0  0  0  0  0  3  0  0  0  0  0  0
  187.6440  176.9000  143.8780 C   0  0  0  0  0  2  0  0  0  0  0  0
  189.3720  177.6910  141.5710 C   0  0  0  0  0  3  0  0  0  0  0  0
  189.6010  177.5680  145.3150 O   0  0  0  0  0  0  0  0  0  0  0  0
  188.8870  178.1100  146.4230 C   0  0  0  0  0  2  0  0  0  0  0  0
  188.5650  177.0260  147.4390 C   0  0  0  0  0  2  0  0  0  0  0  0
  188.0610  177.6420  148.7230 C   0  0  0  0  0  1  0  0  0  0  0  0
  188.5730  175.3900  136.0430 C   0  0  1  0  0  3  0  0  0  0  0  0
  188.3800  174.2020  136.9770 C   0  0  0  0  0  2  0  0  0  0  0  0
  188.6530  172.9540  136.2690 N   0  0  0  0  0  2  0  0  0  0  0  0
  186.3180  172.1430  136.0570 C   0  0  0  0  0  2  0  0  0  0  0  0
  187.8810  170.7300  135.8570 O   0  0  0  0  0  0  0  0  0  0  0  0
  186.5930  170.8690  135.3010 C   0  0  0  0  0  2  0  0  0  0  0  0
  187.6930  171.8940  136.6240 C   0  0  1  0  0  3  0  0  0  0  0  0
  187.3400  175.8010  135.5230 O   0  0  0  0  0  0  0  0  0  0  0  0
  186.4990  175.9070  136.6330 C   0  0  2  0  0  3  0  0  0  0  0  0
  185.0740  175.9840  136.2350 C   0  0  1  0  0  0  0  0  0  0  0  0
  184.1350  175.6810  137.2200 O   0  0  0  0  0  1  0  0  0  0  0  0
  185.8020  177.1330  136.5710 O   0  0  0  0  0  0  0  0  0  0  0  0
  184.6250  175.9920  134.7830 C   0  0  0  0  0  2  0  0  0  0  0  0
  183.4690  175.0300  134.5940 C   0  0  0  0  0  1  0  0  0  0  0  0
  1 20  1  1  0  0  0
  2  8  1  0  0  0  0
  2 14  1  1  0  0  0
  3  9  1  0  0  0  0
  3 11  1  0  0  0  0
  5 11  1  0  0  0  0
  5  2  1  0  0  0  0
  7  8  1  6  0  0  0
  8  4  1  0  0  0  0
 11 10  1  1  0  0  0
 11  7  1  0  0  0  0
 12  8  1  0  0  0  0
 13  9  1  6  0  0  0
 13  7  1  0  0  0  0
 13 16  1  0  0  0  0
 13  6  1  0  0  0  0
 15 17  1  6  0  0  0
 15 16  1  0  0  0  0
 15  1  1  0  0  0  0
 16  6  1  6  0  0  0
 16  1  1  0  0  0  0
 18 17  1  0  0  0  0
 20 19  1  6  0  0  0
 20 21  1  0  0  0  0
 21 25  1  0  0  0  0
 22 27  1  0  0  0  0
 23 29  1  0  0  0  0
 24 22  2  0  0  0  0
 25 28  2  0  0  0  0
 25 24  1  0  0  0  0
 26 23  2  0  0  0  0
 27 23  1  0  0  0  0
 28 26  1  0  0  0  0
 29 30  1  0  0  0  0
 30 31  1  0  0  0  0
 31 32  1  0  0  0  0
 33 15  1  0  0  0  0
 33 34  1  1  0  0  0
 35 34  1  0  0  0  0
 36 39  1  0  0  0  0
 37 39  1  0  0  0  0
 38 37  1  0  0  0  0
 38 36  1  0  0  0  0
 39 35  1  6  0  0  0
 40 33  1  0  0  0  0
 41 40  1  6  0  0  0
 42 44  1  0  0  0  0
 42 41  1  0  0  0  0
 42 43  1  1  0  0  0
 44 41  1  0  0  0  0
 45 42  1  0  0  0  0
 46 45  1  0  0  0  0
M  END
>  <MODEL>
3

>  <REMARK>
 VINA RESULT:      -6.7      6.441      8.717
  Name = 
  14 active torsions:
  status: ('A' for Active; 'I' for Inactive)
    1  A    between atoms: C_1  and  C_5
    2  A    between atoms: C_2  and  C_31
    3  A    between atoms: C_3  and  C_45
    4  A    between atoms: C_4  and  O_19
    5  A    between atoms: O_6  and  C_23
    6  A    between atoms: O_6  and  C_31
    7  A    between atoms: O_7  and  C_44
    8  A    between atoms: C_9  and  C_11
    9  A    between atoms: C_9  and  N_18
   10  A    between atoms: C_11  and  O_19
   11  A    between atoms: C_11  and  C_44
   12  A    between atoms: N_18  and  C_40
   13  A    between atoms: C_30  and  C_42
   14  A    between atoms: C_42  and  C_45
                            x       y       z     vdW  Elec       q    Type
                         _______ _______ _______ _____ _____    ______ ____

>  <TORSDO>
F 14

$$$$
=
 OpenBabel11062416273D

 46 52  0  0  1  0  0  0  0  0999 V2000
  189.1800  177.2580  137.6870 C   0  0  1  0  0  3  0  0  0  0  0  0
  189.3380  176.9920  144.6230 C   0  0  2  0  0  3  0  0  0  0  0  0
  191.8140  177.3450  142.3920 C   0  0  0  0  0  2  0  0  0  0  0  0
  187.4790  176.2220  143.2940 F   0  0  0  0  0  0  0  0  0  0  0  0
  190.4860  177.7650  144.3470 O   0  0  0  0  0  0  0  0  0  0  0  0
  188.4630  177.0530  139.7250 C   0  0  0  0  0  2  0  0  0  0  0  0
  189.3380  177.3210  142.2990 C   0  0  1  0  0  3  0  0  0  0  0  0
  188.8580  176.3490  143.3390 C   0  0  0  0  0  0  0  0  0  0  0  0
  191.6030  177.0080  140.9270 C   0  0  0  0  0  2  0  0  0  0  0  0
  190.5330  179.3380  142.6800 O   0  0  0  0  0  1  0  0  0  0  0  0
  190.5390  177.9710  142.9520 C   0  0  2  0  0  0  0  0  0  0  0  0
  189.4520  175.1040  143.2150 F   0  0  0  0  0  0  0  0  0  0  0  0
  189.8640  176.5410  140.7470 P   0  0  1  0  0  4  0  0  0  0  0  0
  188.3510  177.8150  145.1690 O   0  0  0  0  0  1  0  0  0  0  0  0
  190.4750  176.6500  138.0920 C   0  0  2  0  0  0  0  0  0  0  0  0
  189.6770  177.5270  139.1270 C   0  0  2  0  0  0  0  0  0  0  0  0
  191.6450  177.3020  137.6410 O   0  0  0  0  0  0  0  0  0  0  0  0
  192.7460  176.7630  138.3250 C   0  0  0  0  0  1  0  0  0  0  0  0
  189.6010  178.2160  135.5430 O   0  0  0  0  0  1  0  0  0  0  0  0
  189.3040  178.5370  136.8680 C   0  0  1  0  0  3  0  0  0  0  0  0
  188.0010  179.3160  136.9140 C   0  0  0  0  0  2  0  0  0  0  0  0
  186.1060  176.7370  134.9610 C   0  0  0  0  0  3  0  0  0  0  0  0
  184.5520  176.3130  136.8360 C   0  0  0  0  0  0  0  0  0  0  0  0
  186.6710  177.9020  135.2860 C   0  0  0  0  0  3  0  0  0  0  0  0
  186.8500  178.4070  136.6640 C   0  0  0  0  0  0  0  0  0  0  0  0
  184.7590  177.3730  137.6240 C   0  0  0  0  0  3  0  0  0  0  0  0
  185.6480  175.7490  135.9810 C   0  0  0  0  0  2  0  0  0  0  0  0
  185.9880  178.1930  137.6690 C   0  0  0  0  0  3  0  0  0  0  0  0
  183.2940  175.7030  136.8740 O   0  0  0  0  0  0  0  0  0  0  0  0
  182.7650  174.9390  135.7930 C   0  0  0  0  0  2  0  0  0  0  0  0
  182.0800  173.6830  136.3050 C   0  0  0  0  0  2  0  0  0  0  0  0
  183.1010  172.7160  136.8580 C   0  0  0  0  0  1  0  0  0  0  0  0
  190.4540  175.0880  138.0370 C   0  0  1  0  0  3  0  0  0  0  0  0
  189.6210  174.5540  136.8790 C   0  0  0  0  0  2  0  0  0  0  0  0
  188.3940  173.9420  137.3800 N   0  0  0  0  0  2  0  0  0  0  0  0
  186.7760  172.2760  136.5100 C   0  0  0  0  0  2  0  0  0  0  0  0
  188.6520  172.4340  135.5450 O   0  0  0  0  0  0  0  0  0  0  0  0
  187.3450  172.1150  135.1240 C   0  0  0  0  0  2  0  0  0  0  0  0
  188.2090  172.5720  136.8720 C   0  0  1  0  0  3  0  0  0  0  0  0
  191.7370  174.5290  138.0070 O   0  0  0  0  0  0  0  0  0  0  0  0
  191.7830  173.7950  136.8200 C   0  0  2  0  0  3  0  0  0  0  0  0
  193.1240  173.2130  136.5860 C   0  0  1  0  0  0  0  0  0  0  0  0
  193.1940  172.1500  135.6880 O   0  0  0  0  0  1  0  0  0  0  0  0
  192.7160  174.3890  135.9430 O   0  0  0  0  0  0  0  0  0  0  0  0
  194.2970  173.4480  137.5240 C   0  0  0  0  0  2  0  0  0  0  0  0
  195.4820  173.9840  136.7460 C   0  0  0  0  0  1  0  0  0  0  0  0
  1 20  1  6  0  0  0
  1 15  1  0  0  0  0
  1 16  1  0  0  0  0
  2 14  1  6  0  0  0
  3 11  1  0  0  0  0
  4  8  1  0  0  0  0
  5  2  1  0  0  0  0
  7 11  1  0  0  0  0
  7  8  1  1  0  0  0
  8  2  1  0  0  0  0
  9  3  1  0  0  0  0
 11 10  1  6  0  0  0
 11  5  1  0  0  0  0
 12  8  1  0  0  0  0
 13  6  1  6  0  0  0
 13  9  1  0  0  0  0
 13  7  1  0  0  0  0
 15 17  1  6  0  0  0
 15 16  1  0  0  0  0
 16  6  1  6  0  0  0
 16 13  1  0  0  0  0
 17 18  1  0  0  0  0
 20 19  1  6  0  0  0
 20 21  1  0  0  0  0
 22 24  2  0  0  0  0
 22 27  1  0  0  0  0
 23 29  1  0  0  0  0
 23 26  2  0  0  0  0
 24 25  1  0  0  0  0
 25 21  1  0  0  0  0
 25 28  2  0  0  0  0
 26 28  1  0  0  0  0
 27 23  1  0  0  0  0
 30 31  1  0  0  0  0
 30 29  1  0  0  0  0
 31 32  1  0  0  0  0
 33 34  1  6  0  0  0
 33 15  1  0  0  0  0
 34 35  1  0  0  0  0
 36 39  1  0  0  0  0
 37 39  1  0  0  0  0
 38 37  1  0  0  0  0
 38 36  1  0  0  0  0
 39 35  1  6  0  0  0
 40 33  1  0  0  0  0
 41 40  1  1  0  0  0
 42 43  1  6  0  0  0
 42 41  1  0  0  0  0
 42 45  1  0  0  0  0
 44 42  1  0  0  0  0
 44 41  1  0  0  0  0
 46 45  1  0  0  0  0
M  END
>  <MODEL>
4

>  <REMARK>
 VINA RESULT:      -6.0      5.569     10.908
  Name = 
  14 active torsions:
  status: ('A' for Active; 'I' for Inactive)
    1  A    between atoms: C_1  and  C_5
    2  A    between atoms: C_2  and  C_31
    3  A    between atoms: C_3  and  C_45
    4  A    between atoms: C_4  and  O_19
    5  A    between atoms: O_6  and  C_23
    6  A    between atoms: O_6  and  C_31
    7  A    between atoms: O_7  and  C_44
    8  A    between atoms: C_9  and  C_11
    9  A    between atoms: C_9  and  N_18
   10  A    between atoms: C_11  and  O_19
   11  A    between atoms: C_11  and  C_44
   12  A    between atoms: N_18  and  C_40
   13  A    between atoms: C_30  and  C_42
   14  A    between atoms: C_42  and  C_45
                            x       y       z     vdW  Elec       q    Type
                         _______ _______ _______ _____ _____    ______ ____

>  <TORSDO>
F 14

$$$$
=
 OpenBabel11062416273D

 46 52  0  0  1  0  0  0  0  0999 V2000
  182.9690  178.1770  140.8920 C   0  0  1  0  0  3  0  0  0  0  0  0
  184.7120  173.7490  135.8370 C   0  0  2  0  0  3  0  0  0  0  0  0
  185.2260  177.0480  136.1260 C   0  0  0  0  0  2  0  0  0  0  0  0
  183.0350  173.2850  137.5060 F   0  0  0  0  0  0  0  0  0  0  0  0
  185.7100  174.7360  135.7000 O   0  0  0  0  0  0  0  0  0  0  0  0
  183.1140  176.3120  139.7920 C   0  0  0  0  0  2  0  0  0  0  0  0
  184.3620  175.2550  137.6030 C   0  0  1  0  0  3  0  0  0  0  0  0
  183.6170  174.2800  136.7370 C   0  0  0  0  0  0  0  0  0  0  0  0
  184.4440  177.8780  137.1280 C   0  0  0  0  0  2  0  0  0  0  0  0
  186.6820  175.7580  137.5090 O   0  0  0  0  0  1  0  0  0  0  0  0
  185.5250  175.6800  136.7330 C   0  0  2  0  0  0  0  0  0  0  0  0
  182.6550  174.8940  135.9530 F   0  0  0  0  0  0  0  0  0  0  0  0
  183.3990  176.7260  138.0540 P   0  0  1  0  0  4  0  0  0  0  0  0
  185.2810  172.5910  136.3720 O   0  0  0  0  0  1  0  0  0  0  0  0
  182.9600  178.9240  139.6070 C   0  0  2  0  0  0  0  0  0  0  0  0
  183.7760  177.5830  139.7150 C   0  0  2  0  0  0  0  0  0  0  0  0
  183.8080  180.0520  139.5280 O   0  0  0  0  0  0  0  0  0  0  0  0
  183.1880  181.0190  138.7210 C   0  0  0  0  0  1  0  0  0  0  0  0
  183.5510  178.2750  143.2040 O   0  0  0  0  0  1  0  0  0  0  0  0
  183.9340  178.7190  141.9380 C   0  0  1  0  0  3  0  0  0  0  0  0
  185.3460  178.2390  141.6460 C   0  0  0  0  0  2  0  0  0  0  0  0
  188.1910  176.8810  143.6770 C   0  0  0  0  0  3  0  0  0  0  0  0
  187.4210  178.0450  145.7180 C   0  0  0  0  0  0  0  0  0  0  0  0
  187.1200  176.9160  142.8800 C   0  0  0  0  0  3  0  0  0  0  0  0
  186.0630  177.9500  142.9170 C   0  0  0  0  0  0  0  0  0  0  0  0
  186.1660  178.3770  145.4010 C   0  0  0  0  0  3  0  0  0  0  0  0
  188.4920  177.9520  144.6710 C   0  0  0  0  0  2  0  0  0  0  0  0
  185.6350  178.5570  144.0340 C   0  0  0  0  0  3  0  0  0  0  0  0
  187.7260  177.8420  147.0670 O   0  0  0  0  0  0  0  0  0  0  0  0
  189.0540  177.8890  147.5820 C   0  0  0  0  0  2  0  0  0  0  0  0
  189.7810  176.5820  147.3160 C   0  0  0  0  0  2  0  0  0  0  0  0
  191.2590  176.7360  147.5970 C   0  0  0  0  0  1  0  0  0  0  0  0
  181.5290  179.0540  138.9920 C   0  0  1  0  0  3  0  0  0  0  0  0
  181.3480  178.2010  137.7430 C   0  0  0  0  0  2  0  0  0  0  0  0
  180.0970  178.5480  137.0720 N   0  0  0  0  0  2  0  0  0  0  0  0
  179.7240  176.3220  136.0430 C   0  0  0  0  0  2  0  0  0  0  0  0
  179.2480  176.5600  138.0910 O   0  0  0  0  0  0  0  0  0  0  0  0
  179.7220  175.4930  137.3010 C   0  0  0  0  0  2  0  0  0  0  0  0
  179.1890  177.3940  136.9600 C   0  0  1  0  0  3  0  0  0  0  0  0
  180.5130  178.7780  139.9160 O   0  0  0  0  0  0  0  0  0  0  0  0
  180.2790  179.9900  140.5680 C   0  0  2  0  0  3  0  0  0  0  0  0
  179.8830  179.7850  141.9810 C   0  0  1  0  0  0  0  0  0  0  0  0
  180.0220  180.8800  142.8320 O   0  0  0  0  0  1  0  0  0  0  0  0
  178.9310  180.0400  140.9840 O   0  0  0  0  0  0  0  0  0  0  0  0
  179.7150  178.4050  142.5960 C   0  0  0  0  0  2  0  0  0  0  0  0
  180.1900  178.4200  144.0340 C   0  0  0  0  0  1  0  0  0  0  0  0
  1 20  1  1  0  0  0
  2 14  1  1  0  0  0
  2  8  1  0  0  0  0
  3 11  1  0  0  0  0
  3  9  1  0  0  0  0
  5  2  1  0  0  0  0
  5 11  1  0  0  0  0
  7  8  1  6  0  0  0
  7 13  1  0  0  0  0
  8  4  1  0  0  0  0
 11 10  1  1  0  0  0
 11  7  1  0  0  0  0
 12  8  1  0  0  0  0
 13  9  1  6  0  0  0
 13 16  1  0  0  0  0
 13  6  1  0  0  0  0
 15 17  1  6  0  0  0
 15 16  1  0  0  0  0
 15  1  1  0  0  0  0
 16  6  1  6  0  0  0
 16  1  1  0  0  0  0
 18 17  1  0  0  0  0
 20 19  1  1  0  0  0
 21 20  1  0  0  0  0
 21 25  1  0  0  0  0
 22 27  1  0  0  0  0
 23 29  1  0  0  0  0
 24 25  1  0  0  0  0
 24 22  2  0  0  0  0
 25 28  2  0  0  0  0
 26 23  2  0  0  0  0
 27 23  1  0  0  0  0
 28 26  1  0  0  0  0
 29 30  1  0  0  0  0
 31 30  1  0  0  0  0
 31 32  1  0  0  0  0
 33 34  1  6  0  0  0
 33 15  1  0  0  0  0
 33 40  1  0  0  0  0
 35 34  1  0  0  0  0
 36 39  1  0  0  0  0
 36 38  1  0  0  0  0
 38 37  1  0  0  0  0
 39 35  1  1  0  0  0
 39 37  1  0  0  0  0
 41 40  1  6  0  0  0
 41 44  1  0  0  0  0
 41 42  1  0  0  0  0
 42 45  1  0  0  0  0
 42 43  1  1  0  0  0
 44 42  1  0  0  0  0
 45 46  1  0  0  0  0
M  END
>  <MODEL>
5

>  <REMARK>
 VINA RESULT:      -5.8      1.981      3.547
  Name = 
  14 active torsions:
  status: ('A' for Active; 'I' for Inactive)
    1  A    between atoms: C_1  and  C_5
    2  A    between atoms: C_2  and  C_31
    3  A    between atoms: C_3  and  C_45
    4  A    between atoms: C_4  and  O_19
    5  A    between atoms: O_6  and  C_23
    6  A    between atoms: O_6  and  C_31
    7  A    between atoms: O_7  and  C_44
    8  A    between atoms: C_9  and  C_11
    9  A    between atoms: C_9  and  N_18
   10  A    between atoms: C_11  and  O_19
   11  A    between atoms: C_11  and  C_44
   12  A    between atoms: N_18  and  C_40
   13  A    between atoms: C_30  and  C_42
   14  A    between atoms: C_42  and  C_45
                            x       y       z     vdW  Elec       q    Type
                         _______ _______ _______ _____ _____    ______ ____

>  <TORSDO>
F 14

$$$$
=
 OpenBabel11062416273D

 46 52  0  0  1  0  0  0  0  0999 V2000
  188.0440  177.4860  139.2890 C   0  0  1  0  0  3  0  0  0  0  0  0
  191.0610  173.0160  134.9170 C   0  0  2  0  0  3  0  0  0  0  0  0
  190.5840  176.3250  134.6750 C   0  0  0  0  0  2  0  0  0  0  0  0
  189.5750  172.3550  136.6960 F   0  0  0  0  0  0  0  0  0  0  0  0
  191.7280  174.2170  134.5940 O   0  0  0  0  0  0  0  0  0  0  0  0
  188.7410  175.5950  138.4840 C   0  0  0  0  0  2  0  0  0  0  0  0
  190.2660  174.6150  136.4410 C   0  0  1  0  0  3  0  0  0  0  0  0
  189.8480  173.3410  135.7630 C   0  0  0  0  0  0  0  0  0  0  0  0
  189.5830  177.0390  135.5660 C   0  0  0  0  0  2  0  0  0  0  0  0
  192.3380  175.7490  136.1870 O   0  0  0  0  0  1  0  0  0  0  0  0
  191.2640  175.2170  135.4750 C   0  0  2  0  0  0  0  0  0  0  0  0
  188.7570  173.5180  134.9290 F   0  0  0  0  0  0  0  0  0  0  0  0
  188.9100  175.7950  136.6950 P   0  0  1  0  0  4  0  0  0  0  0  0
  191.9380  172.1740  135.6030 O   0  0  0  0  0  1  0  0  0  0  0  0
  187.8310  177.9860  137.9060 C   0  0  2  0  0  0  0  0  0  0  0  0
  189.0030  176.9740  138.1890 C   0  0  2  0  0  0  0  0  0  0  0  0
  188.3130  179.2850  137.6230 O   0  0  0  0  0  0  0  0  0  0  0  0
  187.6310  179.7780  136.5000 C   0  0  0  0  0  1  0  0  0  0  0  0
  188.1400  178.5340  141.4310 O   0  0  0  0  0  1  0  0  0  0  0  0
  188.7980  178.4430  140.2040 C   0  0  1  0  0  3  0  0  0  0  0  0
  190.2150  177.9430  140.4320 C   0  0  0  0  0  2  0  0  0  0  0  0
  190.3020  175.4390  143.2210 C   0  0  0  0  0  3  0  0  0  0  0  0
  191.3660  177.0490  144.7670 C   0  0  0  0  0  0  0  0  0  0  0  0
  189.8270  176.2170  142.2450 C   0  0  0  0  0  3  0  0  0  0  0  0
  190.3890  177.5260  141.8490 C   0  0  0  0  0  0  0  0  0  0  0  0
  191.1610  178.2160  144.1500 C   0  0  0  0  0  3  0  0  0  0  0  0
  191.5340  175.7740  143.9940 C   0  0  0  0  0  2  0  0  0  0  0  0
  190.9420  178.4030  142.7000 C   0  0  0  0  0  3  0  0  0  0  0  0
  191.4780  177.0540  146.1610 O   0  0  0  0  0  0  0  0  0  0  0  0
  190.4460  177.5220  147.0250 C   0  0  0  0  0  2  0  0  0  0  0  0
  189.1370  176.8050  146.7390 C   0  0  0  0  0  2  0  0  0  0  0  0
  188.0810  177.7940  146.3010 C   0  0  0  0  0  1  0  0  0  0  0  0
  186.4310  177.5970  137.3300 C   0  0  1  0  0  3  0  0  0  0  0  0
  186.4850  176.3570  136.4460 C   0  0  0  0  0  2  0  0  0  0  0  0
  185.1360  175.9560  136.0570 N   0  0  0  0  0  2  0  0  0  0  0  0
  183.7440  173.9050  135.9590 C   0  0  0  0  0  2  0  0  0  0  0  0
  185.6750  173.7520  136.8100 O   0  0  0  0  0  0  0  0  0  0  0  0
  184.8450  172.8830  136.0740 C   0  0  0  0  0  2  0  0  0  0  0  0
  184.6860  174.7510  136.7770 C   0  0  1  0  0  3  0  0  0  0  0  0
  185.4600  177.4360  138.3260 O   0  0  0  0  0  0  0  0  0  0  0  0
  184.6660  178.5820  138.2440 C   0  0  2  0  0  3  0  0  0  0  0  0
  183.8850  178.7980  139.4840 C   0  0  1  0  0  0  0  0  0  0  0  0
  183.3900  180.0840  139.6920 O   0  0  0  0  0  1  0  0  0  0  0  0
  183.3070  178.2150  138.3480 O   0  0  0  0  0  0  0  0  0  0  0  0
  183.9320  177.8390  140.6620 C   0  0  0  0  0  2  0  0  0  0  0  0
  183.7380  178.6020  141.9570 C   0  0  0  0  0  1  0  0  0  0  0  0
  1 20  1  1  0  0  0
  2 14  1  1  0  0  0
  2  8  1  0  0  0  0
  3 11  1  0  0  0  0
  3  9  1  0  0  0  0
  5  2  1  0  0  0  0
  5 11  1  0  0  0  0
  7  8  1  6  0  0  0
  7 13  1  0  0  0  0
  8  4  1  0  0  0  0
 11 10  1  1  0  0  0
 11  7  1  0  0  0  0
 12  8  1  0  0  0  0
 13  9  1  6  0  0  0
 13 16  1  0  0  0  0
 13  6  1  0  0  0  0
 15 17  1  6  0  0  0
 15 16  1  0  0  0  0
 15  1  1  0  0  0  0
 16  6  1  6  0  0  0
 16  1  1  0  0  0  0
 18 17  1  0  0  0  0
 20 21  1  0  0  0  0
 20 19  1  1  0  0  0
 21 25  1  0  0  0  0
 22 27  1  0  0  0  0
 23 29  1  0  0  0  0
 24 22  2  0  0  0  0
 25 24  1  0  0  0  0
 25 28  2  0  0  0  0
 26 23  2  0  0  0  0
 27 23  1  0  0  0  0
 28 26  1  0  0  0  0
 29 30  1  0  0  0  0
 31 30  1  0  0  0  0
 32 31  1  0  0  0  0
 33 34  1  1  0  0  0
 33 15  1  0  0  0  0
 33 40  1  0  0  0  0
 35 34  1  0  0  0  0
 36 38  1  0  0  0  0
 36 39  1  0  0  0  0
 38 37  1  0  0  0  0
 39 35  1  6  0  0  0
 39 37  1  0  0  0  0
 41 40  1  1  0  0  0
 41 44  1  0  0  0  0
 41 42  1  0  0  0  0
 42 43  1  1  0  0  0
 42 45  1  0  0  0  0
 44 42  1  0  0  0  0
 45 46  1  0  0  0  0
M  END
>  <MODEL>
6

>  <REMARK>
 VINA RESULT:      -5.8      4.482      6.586
  Name = 
  14 active torsions:
  status: ('A' for Active; 'I' for Inactive)
    1  A    between atoms: C_1  and  C_5
    2  A    between atoms: C_2  and  C_31
    3  A    between atoms: C_3  and  C_45
    4  A    between atoms: C_4  and  O_19
    5  A    between atoms: O_6  and  C_23
    6  A    between atoms: O_6  and  C_31
    7  A    between atoms: O_7  and  C_44
    8  A    between atoms: C_9  and  C_11
    9  A    between atoms: C_9  and  N_18
   10  A    between atoms: C_11  and  O_19
   11  A    between atoms: C_11  and  C_44
   12  A    between atoms: N_18  and  C_40
   13  A    between atoms: C_30  and  C_42
   14  A    between atoms: C_42  and  C_45
                            x       y       z     vdW  Elec       q    Type
                         _______ _______ _______ _____ _____    ______ ____

>  <TORSDO>
F 14

$$$$
=
 OpenBabel11062416273D

 46 52  0  0  1  0  0  0  0  0999 V2000
  187.8130  177.3490  138.8850 C   0  0  1  0  0  3  0  0  0  0  0  0
  191.3620  176.8520  144.8310 C   0  0  2  0  0  3  0  0  0  0  0  0
  192.2150  178.1980  141.8830 C   0  0  0  0  0  2  0  0  0  0  0  0
  189.4300  175.5070  144.3060 F   0  0  0  0  0  0  0  0  0  0  0  0
  191.9350  178.0070  144.2590 O   0  0  0  0  0  0  0  0  0  0  0  0
  188.2660  176.8010  140.9350 C   0  0  0  0  0  2  0  0  0  0  0  0
  190.1430  177.2600  142.8670 C   0  0  1  0  0  3  0  0  0  0  0  0
  190.5460  176.1350  143.7760 C   0  0  0  0  0  0  0  0  0  0  0  0
  191.4390  177.8720  140.6190 C   0  0  0  0  0  2  0  0  0  0  0  0
  190.6910  179.5580  143.1170 O   0  0  0  0  0  1  0  0  0  0  0  0
  191.2450  178.2800  143.0590 C   0  0  2  0  0  0  0  0  0  0  0  0
  191.3540  175.2060  143.1430 F   0  0  0  0  0  0  0  0  0  0  0  0
  190.0660  176.8010  141.1130 P   0  0  1  0  0  4  0  0  0  0  0  0
  190.5620  177.2240  145.9130 O   0  0  0  0  0  1  0  0  0  0  0  0
  189.2570  177.2470  138.5480 C   0  0  2  0  0  0  0  0  0  0  0  0
  188.8310  177.7190  139.9880 C   0  0  2  0  0  0  0  0  0  0  0  0
  189.8020  178.3070  137.7870 O   0  0  0  0  0  0  0  0  0  0  0  0
  189.8200  177.9220  136.4370 C   0  0  0  0  0  1  0  0  0  0  0  0
  187.5730  178.9150  137.1010 O   0  0  0  0  0  1  0  0  0  0  0  0
  187.1290  178.6170  138.3890 C   0  0  1  0  0  3  0  0  0  0  0  0
  185.6220  178.4250  138.3670 C   0  0  0  0  0  2  0  0  0  0  0  0
  182.8120  178.8080  140.8200 C   0  0  0  0  0  3  0  0  0  0  0  0
  184.3730  179.1240  142.7120 C   0  0  0  0  0  0  0  0  0  0  0  0
  183.5810  179.0130  139.7480 C   0  0  0  0  0  3  0  0  0  0  0  0
  185.0410  178.7820  139.6890 C   0  0  0  0  0  0  0  0  0  0  0  0
  185.5260  179.3880  142.0890 C   0  0  0  0  0  3  0  0  0  0  0  0
  183.3380  178.2310  142.0920 C   0  0  0  0  0  2  0  0  0  0  0  0
  185.8820  178.9810  140.7140 C   0  0  0  0  0  3  0  0  0  0  0  0
  184.1790  179.6570  143.9900 O   0  0  0  0  0  0  0  0  0  0  0  0
  183.9500  178.8530  145.1440 C   0  0  0  0  0  2  0  0  0  0  0  0
  185.2550  178.2690  145.6610 C   0  0  0  0  0  2  0  0  0  0  0  0
  185.6950  178.9940  146.9120 C   0  0  0  0  0  1  0  0  0  0  0  0
  189.6910  175.7940  138.1730 C   0  0  1  0  0  3  0  0  0  0  0  0
  188.5510  174.9780  137.5750 C   0  0  0  0  0  2  0  0  0  0  0  0
  189.0840  173.8850  136.7660 N   0  0  0  0  0  2  0  0  0  0  0  0
  186.7870  173.0640  137.2180 C   0  0  0  0  0  2  0  0  0  0  0  0
  187.3920  173.2550  135.1990 O   0  0  0  0  0  0  0  0  0  0  0  0
  186.1680  173.3900  135.8830 C   0  0  0  0  0  2  0  0  0  0  0  0
  188.0430  172.9100  136.3970 C   0  0  1  0  0  3  0  0  0  0  0  0
  190.8040  175.7610  137.3240 O   0  0  0  0  0  0  0  0  0  0  0  0
  191.8770  175.4170  138.1490 C   0  0  2  0  0  3  0  0  0  0  0  0
  193.1740  175.5510  137.4470 C   0  0  1  0  0  0  0  0  0  0  0  0
  194.3100  175.6410  138.2480 O   0  0  0  0  0  1  0  0  0  0  0  0
  192.5500  174.3060  137.5970 O   0  0  0  0  0  0  0  0  0  0  0  0
  193.2800  175.9690  135.9890 C   0  0  0  0  0  2  0  0  0  0  0  0
  194.6670  176.5070  135.7050 C   0  0  0  0  0  1  0  0  0  0  0  0
  1 20  1  6  0  0  0
  1 16  1  0  0  0  0
  2 14  1  1  0  0  0
  3 11  1  0  0  0  0
  5  2  1  0  0  0  0
  6 13  1  0  0  0  0
  7 11  1  0  0  0  0
  7  8  1  1  0  0  0
  8  4  1  0  0  0  0
  8  2  1  0  0  0  0
  9  3  1  0  0  0  0
 11 10  1  1  0  0  0
 11  5  1  0  0  0  0
 12  8  1  0  0  0  0
 13  9  1  6  0  0  0
 13  7  1  0  0  0  0
 15 17  1  6  0  0  0
 15  1  1  0  0  0  0
 15 16  1  0  0  0  0
 16  6  1  6  0  0  0
 16 13  1  0  0  0  0
 18 17  1  0  0  0  0
 20 19  1  6  0  0  0
 21 20  1  0  0  0  0
 21 25  1  0  0  0  0
 22 27  1  0  0  0  0
 23 29  1  0  0  0  0
 24 22  2  0  0  0  0
 25 24  1  0  0  0  0
 25 28  2  0  0  0  0
 26 23  2  0  0  0  0
 27 23  1  0  0  0  0
 28 26  1  0  0  0  0
 29 30  1  0  0  0  0
 30 31  1  0  0  0  0
 31 32  1  0  0  0  0
 33 34  1  6  0  0  0
 33 15  1  0  0  0  0
 35 34  1  0  0  0  0
 37 38  1  0  0  0  0
 37 39  1  0  0  0  0
 38 36  1  0  0  0  0
 39 35  1  1  0  0  0
 39 36  1  0  0  0  0
 40 33  1  0  0  0  0
 41 40  1  6  0  0  0
 42 44  1  0  0  0  0
 42 41  1  0  0  0  0
 42 43  1  1  0  0  0
 44 41  1  0  0  0  0
 45 42  1  0  0  0  0
 46 45  1  0  0  0  0
M  END
>  <MODEL>
7

>  <REMARK>
 VINA RESULT:      -5.6      5.275      9.563
  Name = 
  14 active torsions:
  status: ('A' for Active; 'I' for Inactive)
    1  A    between atoms: C_1  and  C_5
    2  A    between atoms: C_2  and  C_31
    3  A    between atoms: C_3  and  C_45
    4  A    between atoms: C_4  and  O_19
    5  A    between atoms: O_6  and  C_23
    6  A    between atoms: O_6  and  C_31
    7  A    between atoms: O_7  and  C_44
    8  A    between atoms: C_9  and  C_11
    9  A    between atoms: C_9  and  N_18
   10  A    between atoms: C_11  and  O_19
   11  A    between atoms: C_11  and  C_44
   12  A    between atoms: N_18  and  C_40
   13  A    between atoms: C_30  and  C_42
   14  A    between atoms: C_42  and  C_45
                            x       y       z     vdW  Elec       q    Type
                         _______ _______ _______ _____ _____    ______ ____

>  <TORSDO>
F 14

$$$$
=
 OpenBabel11062416273D

 46 52  0  0  1  0  0  0  0  0999 V2000
  190.2980  177.1280  138.1890 C   0  0  1  0  0  3  0  0  0  0  0  0
  190.7230  177.8750  145.0780 C   0  0  2  0  0  3  0  0  0  0  0  0
  188.6620  176.0110  143.2050 C   0  0  0  0  0  2  0  0  0  0  0  0
  191.6820  179.4260  143.5000 F   0  0  0  0  0  0  0  0  0  0  0  0
  190.1870  176.5750  144.9710 O   0  0  0  0  0  0  0  0  0  0  0  0
  190.9780  177.8770  140.1090 C   0  0  0  0  0  2  0  0  0  0  0  0
  190.6720  177.3970  142.7810 C   0  0  1  0  0  3  0  0  0  0  0  0
  190.6250  178.5590  143.7310 C   0  0  0  0  0  0  0  0  0  0  0  0
  188.4970  176.2770  141.7200 C   0  0  0  0  0  2  0  0  0  0  0  0
  190.8620  175.0990  143.3510 O   0  0  0  0  0  1  0  0  0  0  0  0
  190.1170  176.2510  143.5990 C   0  0  2  0  0  0  0  0  0  0  0  0
  189.4260  179.2490  143.6680 F   0  0  0  0  0  0  0  0  0  0  0  0
  189.6440  177.6130  141.3010 P   0  0  1  0  0  4  0  0  0  0  0  0
  192.0510  177.7910  145.5010 O   0  0  0  0  0  1  0  0  0  0  0  0
  188.9340  176.9480  138.7540 C   0  0  2  0  0  0  0  0  0  0  0  0
  190.1870  176.7570  139.6860 C   0  0  2  0  0  0  0  0  0  0  0  0
  188.2940  175.7190  138.4740 O   0  0  0  0  0  0  0  0  0  0  0  0
  187.2130  175.9670  137.6130 C   0  0  0  0  0  1  0  0  0  0  0  0
  191.5390  176.3720  136.2970 O   0  0  0  0  0  1  0  0  0  0  0  0
  190.8310  175.9290  137.4150 C   0  0  1  0  0  3  0  0  0  0  0  0
  191.7530  175.1040  138.2970 C   0  0  0  0  0  2  0  0  0  0  0  0
  193.1280  173.1410  135.4130 C   0  0  0  0  0  3  0  0  0  0  0  0
  195.4270  173.9510  135.8280 C   0  0  0  0  0  0  0  0  0  0  0  0
  192.4920  173.4210  136.5540 C   0  0  0  0  0  3  0  0  0  0  0  0
  192.8490  174.5150  137.4830 C   0  0  0  0  0  0  0  0  0  0  0  0
  195.3370  174.4440  137.0670 C   0  0  0  0  0  3  0  0  0  0  0  0
  194.2540  173.9700  134.8920 C   0  0  0  0  0  2  0  0  0  0  0  0
  194.1030  174.9300  137.7190 C   0  0  0  0  0  3  0  0  0  0  0  0
  196.6680  173.4670  135.4030 O   0  0  0  0  0  0  0  0  0  0  0  0
  197.8030  173.3720  136.2600 C   0  0  0  0  0  2  0  0  0  0  0  0
  197.9090  171.9800  136.8620 C   0  0  0  0  0  2  0  0  0  0  0  0
  197.6630  170.9290  135.8030 C   0  0  0  0  0  1  0  0  0  0  0  0
  188.0690  178.2470  138.6710 C   0  0  1  0  0  3  0  0  0  0  0  0
  188.3810  179.0810  137.4350 C   0  0  0  0  0  2  0  0  0  0  0  0
  187.1760  179.2550  136.6270 N   0  0  0  0  0  2  0  0  0  0  0  0
  188.5450  177.9000  135.0640 C   0  0  0  0  0  2  0  0  0  0  0  0
  186.4450  177.8890  134.8070 O   0  0  0  0  0  0  0  0  0  0  0  0
  187.4730  176.9490  134.5970 C   0  0  0  0  0  2  0  0  0  0  0  0
  187.3830  178.8480  135.2260 C   0  0  1  0  0  3  0  0  0  0  0  0
  186.6940  177.9890  138.7450 O   0  0  0  0  0  0  0  0  0  0  0  0
  186.2700  178.6280  139.9110 C   0  0  2  0  0  3  0  0  0  0  0  0
  184.8180  178.4420  140.1410 C   0  0  1  0  0  0  0  0  0  0  0  0
  184.3590  178.6620  141.4380 O   0  0  0  0  0  1  0  0  0  0  0  0
  185.3230  179.6210  139.5790 O   0  0  0  0  0  0  0  0  0  0  0  0
  183.9240  177.6810  139.1750 C   0  0  0  0  0  2  0  0  0  0  0  0
  182.9510  178.6350  138.5120 C   0  0  0  0  0  1  0  0  0  0  0  0
  1 20  1  6  0  0  0
  1 15  1  0  0  0  0
  1 16  1  0  0  0  0
  2 14  1  6  0  0  0
  3 11  1  0  0  0  0
  4  8  1  0  0  0  0
  5  2  1  0  0  0  0
  7 11  1  0  0  0  0
  7  8  1  1  0  0  0
  8  2  1  0  0  0  0
  9  3  1  0  0  0  0
 11 10  1  6  0  0  0
 11  5  1  0  0  0  0
 12  8  1  0  0  0  0
 13  6  1  6  0  0  0
 13  9  1  0  0  0  0
 13  7  1  0  0  0  0
 15 17  1  6  0  0  0
 15 16  1  0  0  0  0
 16  6  1  6  0  0  0
 16 13  1  0  0  0  0
 18 17  1  0  0  0  0
 20 19  1  6  0  0  0
 20 21  1  0  0  0  0
 22 24  2  0  0  0  0
 23 26  2  0  0  0  0
 24 25  1  0  0  0  0
 25 28  2  0  0  0  0
 25 21  1  0  0  0  0
 26 28  1  0  0  0  0
 27 22  1  0  0  0  0
 27 23  1  0  0  0  0
 29 23  1  0  0  0  0
 29 30  1  0  0  0  0
 30 31  1  0  0  0  0
 32 31  1  0  0  0  0
 33 34  1  6  0  0  0
 33 40  1  0  0  0  0
 33 15  1  0  0  0  0
 35 34  1  0  0  0  0
 36 39  1  0  0  0  0
 37 39  1  0  0  0  0
 38 37  1  0  0  0  0
 38 36  1  0  0  0  0
 39 35  1  1  0  0  0
 41 40  1  6  0  0  0
 41 42  1  0  0  0  0
 42 43  1  1  0  0  0
 44 41  1  0  0  0  0
 44 42  1  0  0  0  0
 45 42  1  0  0  0  0
 46 45  1  0  0  0  0
M  END
>  <MODEL>
8

>  <REMARK>
 VINA RESULT:      -5.4      6.809     10.004
  Name = 
  14 active torsions:
  status: ('A' for Active; 'I' for Inactive)
    1  A    between atoms: C_1  and  C_5
    2  A    between atoms: C_2  and  C_31
    3  A    between atoms: C_3  and  C_45
    4  A    between atoms: C_4  and  O_19
    5  A    between atoms: O_6  and  C_23
    6  A    between atoms: O_6  and  C_31
    7  A    between atoms: O_7  and  C_44
    8  A    between atoms: C_9  and  C_11
    9  A    between atoms: C_9  and  N_18
   10  A    between atoms: C_11  and  O_19
   11  A    between atoms: C_11  and  C_44
   12  A    between atoms: N_18  and  C_40
   13  A    between atoms: C_30  and  C_42
   14  A    between atoms: C_42  and  C_45
                            x       y       z     vdW  Elec       q    Type
                         _______ _______ _______ _____ _____    ______ ____

>  <TORSDO>
F 14

$$$$
=
 OpenBabel11062416273D

 46 52  0  0  1  0  0  0  0  0999 V2000
  187.9670  177.5810  138.4610 C   0  0  1  0  0  3  0  0  0  0  0  0
  190.8280  176.8770  144.7480 C   0  0  2  0  0  3  0  0  0  0  0  0
  192.1880  177.7580  141.8140 C   0  0  0  0  0  2  0  0  0  0  0  0
  188.7040  175.9200  144.1270 F   0  0  0  0  0  0  0  0  0  0  0  0
  191.6800  177.8350  144.1590 O   0  0  0  0  0  0  0  0  0  0  0  0
  188.1240  177.1310  140.5780 C   0  0  0  0  0  2  0  0  0  0  0  0
  189.8900  177.3580  142.6510 C   0  0  1  0  0  3  0  0  0  0  0  0
  189.9670  176.2560  143.6680 C   0  0  0  0  0  0  0  0  0  0  0  0
  191.4670  177.4920  140.5050 C   0  0  0  0  0  2  0  0  0  0  0  0
  190.8940  179.5050  142.7990 O   0  0  0  0  0  1  0  0  0  0  0  0
  191.1650  178.1400  142.8810 C   0  0  2  0  0  0  0  0  0  0  0  0
  190.6080  175.1280  143.1820 F   0  0  0  0  0  0  0  0  0  0  0  0
  189.8610  176.7740  140.9320 P   0  0  1  0  0  4  0  0  0  0  0  0
  190.0400  177.4990  145.7190 O   0  0  0  0  0  1  0  0  0  0  0  0
  189.3790  177.1550  138.2760 C   0  0  2  0  0  0  0  0  0  0  0  0
  188.9470  177.8270  139.6320 C   0  0  2  0  0  0  0  0  0  0  0  0
  190.1990  178.0090  137.5030 O   0  0  0  0  0  0  0  0  0  0  0  0
  190.1780  177.5610  136.1730 C   0  0  0  0  0  1  0  0  0  0  0  0
  188.7770  179.6500  137.5910 O   0  0  0  0  0  1  0  0  0  0  0  0
  187.6130  178.9150  137.8170 C   0  0  1  0  0  3  0  0  0  0  0  0
  186.9020  178.6860  136.4940 C   0  0  0  0  0  2  0  0  0  0  0  0
  184.8790  175.5920  135.8640 C   0  0  0  0  0  3  0  0  0  0  0  0
  183.4170  176.0310  137.8090 C   0  0  0  0  0  0  0  0  0  0  0  0
  185.4750  176.7690  135.6540 C   0  0  0  0  0  3  0  0  0  0  0  0
  185.7290  177.7920  136.6910 C   0  0  0  0  0  0  0  0  0  0  0  0
  183.6770  177.3140  138.0780 C   0  0  0  0  0  3  0  0  0  0  0  0
  184.4620  175.1290  137.2200 C   0  0  0  0  0  2  0  0  0  0  0  0
  184.9160  178.0400  137.7290 C   0  0  0  0  0  3  0  0  0  0  0  0
  182.1560  175.5320  138.1470 O   0  0  0  0  0  0  0  0  0  0  0  0
  181.4120  175.9890  139.2740 C   0  0  0  0  0  2  0  0  0  0  0  0
  180.4000  174.9440  139.7120 C   0  0  0  0  0  2  0  0  0  0  0  0
  179.2980  175.5870  140.5240 C   0  0  0  0  0  1  0  0  0  0  0  0
  189.5220  175.6160  138.0440 C   0  0  1  0  0  3  0  0  0  0  0  0
  188.2190  174.9690  137.5900 C   0  0  0  0  0  2  0  0  0  0  0  0
  188.3530  174.4710  136.2240 N   0  0  0  0  0  2  0  0  0  0  0  0
  187.0400  172.5430  137.0670 C   0  0  0  0  0  2  0  0  0  0  0  0
  187.4090  172.6570  134.9870 O   0  0  0  0  0  0  0  0  0  0  0  0
  186.3560  172.1590  135.7810 C   0  0  0  0  0  2  0  0  0  0  0  0
  188.1300  173.0170  136.1390 C   0  0  1  0  0  3  0  0  0  0  0  0
  190.5550  175.2940  137.1560 O   0  0  0  0  0  0  0  0  0  0  0  0
  191.6120  174.8780  137.9680 C   0  0  2  0  0  3  0  0  0  0  0  0
  192.9010  174.8860  137.2370 C   0  0  1  0  0  0  0  0  0  0  0  0
  194.0570  174.8970  138.0140 O   0  0  0  0  0  1  0  0  0  0  0  0
  192.1770  173.7020  137.4290 O   0  0  0  0  0  0  0  0  0  0  0  0
  193.0100  175.2620  135.7680 C   0  0  0  0  0  2  0  0  0  0  0  0
  194.0170  176.3810  135.5950 C   0  0  0  0  0  1  0  0  0  0  0  0
  1 20  1  6  0  0  0
  1 16  1  0  0  0  0
  2 14  1  1  0  0  0
  3 11  1  0  0  0  0
  5  2  1  0  0  0  0
  6 13  1  0  0  0  0
  7 11  1  0  0  0  0
  7  8  1  1  0  0  0
  8  4  1  0  0  0  0
  8  2  1  0  0  0  0
  9  3  1  0  0  0  0
 11 10  1  6  0  0  0
 11  5  1  0  0  0  0
 12  8  1  0  0  0  0
 13  9  1  6  0  0  0
 13  7  1  0  0  0  0
 15 17  1  6  0  0  0
 15  1  1  0  0  0  0
 15 16  1  0  0  0  0
 16  6  1  6  0  0  0
 16 13  1  0  0  0  0
 18 17  1  0  0  0  0
 20 19  1  6  0  0  0
 21 25  1  0  0  0  0
 21 20  1  0  0  0  0
 22 27  1  0  0  0  0
 23 26  2  0  0  0  0
 23 29  1  0  0  0  0
 24 22  2  0  0  0  0
 24 25  1  0  0  0  0
 25 28  2  0  0  0  0
 27 23  1  0  0  0  0
 28 26  1  0  0  0  0
 29 30  1  0  0  0  0
 30 31  1  0  0  0  0
 31 32  1  0  0  0  0
 33 34  1  6  0  0  0
 33 15  1  0  0  0  0
 35 34  1  0  0  0  0
 37 38  1  0  0  0  0
 37 39  1  0  0  0  0
 38 36  1  0  0  0  0
 39 35  1  6  0  0  0
 39 36  1  0  0  0  0
 40 33  1  0  0  0  0
 41 40  1  6  0  0  0
 42 44  1  0  0  0  0
 42 41  1  0  0  0  0
 42 43  1  1  0  0  0
 44 41  1  0  0  0  0
 45 42  1  0  0  0  0
 46 45  1  0  0  0  0
M  END
>  <MODEL>
9

>  <REMARK>
 VINA RESULT:      -5.4      5.273     10.433
  Name = 
  14 active torsions:
  status: ('A' for Active; 'I' for Inactive)
    1  A    between atoms: C_1  and  C_5
    2  A    between atoms: C_2  and  C_31
    3  A    between atoms: C_3  and  C_45
    4  A    between atoms: C_4  and  O_19
    5  A    between atoms: O_6  and  C_23
    6  A    between atoms: O_6  and  C_31
    7  A    between atoms: O_7  and  C_44
    8  A    between atoms: C_9  and  C_11
    9  A    between atoms: C_9  and  N_18
   10  A    between atoms: C_11  and  O_19
   11  A    between atoms: C_11  and  C_44
   12  A    between atoms: N_18  and  C_40
   13  A    between atoms: C_30  and  C_42
   14  A    between atoms: C_42  and  C_45
                            x       y       z     vdW  Elec       q    Type
                         _______ _______ _______ _____ _____    ______ ____

>  <TORSDO>
F 14

$$$$
