=
 OpenBabel11062416103D

 59 62  0  0  1  0  0  0  0  0999 V2000
  184.1950  178.6270  144.8080 F   0  0  0  0  0  0  0  0  0  0  0  0
  182.1590  178.8570  143.6530 C   0  0  0  0  0  0  0  0  0  0  0  0
  181.4940  178.9190  141.2030 C   0  0  0  0  0  0  0  0  0  0  0  0
  184.3240  178.4170  142.4060 C   0  0  1  0  0  3  0  0  0  0  0  0
  181.6010  178.8640  142.4900 C   0  0  0  0  0  0  0  0  0  0  0  0
  182.7140  179.7340  138.8100 Cl  0  0  0  0  0  0  0  0  0  0  0  0
  183.8690  180.4800  143.5710 F   0  0  0  0  0  0  0  0  0  0  0  0
  181.5330  178.3110  144.7260 F   0  0  0  0  0  0  0  0  0  0  0  0
  183.6470  179.1130  143.6320 C   0  0  0  0  0  0  0  0  0  0  0  0
  182.7690  179.1510  140.4660 C   0  0  0  0  0  0  0  0  0  0  0  0
  183.9950  178.9750  141.0170 C   0  0  0  0  0  3  0  0  0  0  0  0
  180.1600  178.9770  140.5380 C   0  0  0  0  0  2  0  0  0  0  0  0
  179.6710  177.5780  140.1800 C   0  0  0  0  0  2  0  0  0  0  0  0
  178.9340  177.2570  137.8980 O   0  0  0  0  0  1  0  0  0  0  0  0
  180.0390  177.1860  138.7470 C   0  0  2  0  0  3  0  0  0  0  0  0
  180.7350  175.8220  138.6240 C   0  0  1  0  0  3  0  0  0  0  0  0
  179.7520  174.7110  138.2420 C   0  0  1  0  0  3  0  0  0  0  0  0
  180.2020  174.0690  137.0920 O   0  0  0  0  0  1  0  0  0  0  0  0
  179.6170  173.6820  139.3530 C   0  0  0  0  0  2  0  0  0  0  0  0
  178.9400  174.2390  140.4360 O   0  0  0  0  0  0  0  0  0  0  0  0
  179.6050  173.7470  141.5600 C   0  0  0  0  0  1  0  0  0  0  0  0
  181.7880  175.8660  137.6970 O   0  0  0  0  0  0  0  0  0  0  0  0
  182.9580  175.7000  138.4470 C   0  0  0  0  0  2  0  0  0  0  0  0
  184.1720  175.6230  137.5240 C   0  0  1  0  0  3  0  0  0  0  0  0
  184.3000  174.5240  135.4090 O   0  0  0  0  0  0  0  0  0  0  0  0
  184.1090  174.4110  136.6530 C   0  0  0  0  0  0  0  0  0  0  0  0
  183.8320  173.1610  137.1910 O   0  0  0  0  0  1  0  0  0  0  0  0
  184.2630  176.8780  136.6730 C   0  0  0  0  0  2  0  0  0  0  0  0
  185.7130  177.1860  136.3400 C   0  0  0  0  0  2  0  0  0  0  0  0
  186.6010  176.9920  137.5570 C   0  0  0  0  0  2  0  0  0  0  0  0
  186.5250  178.1950  138.4740 C   0  0  0  0  0  1  0  0  0  0  0  0
  185.8310  178.2210  142.5920 C   0  0  0  0  0  2  0  0  0  0  0  0
  186.2350  177.9520  144.0400 C   0  0  0  0  0  2  0  0  0  0  0  0
  187.5700  177.2340  144.1030 C   0  0  0  0  0  2  0  0  0  0  0  0
  188.5250  177.7960  143.0550 C   0  0  0  0  0  2  0  0  0  0  0  0
  189.8030  176.9630  142.9360 C   0  0  2  0  0  0  0  0  0  0  0  0
  192.2510  175.6820  144.3730 O   0  0  0  0  0  1  0  0  0  0  0  0
  191.1800  176.5670  144.5600 C   0  0  2  0  0  0  0  0  0  0  0  0
  189.8770  175.9470  144.0730 C   0  0  0  0  0  2  0  0  0  0  0  0
  191.1200  177.5980  143.4220 C   0  0  2  0  0  3  0  0  0  0  0  0
  191.0380  177.1050  145.9990 C   0  0  1  0  0  3  0  0  0  0  0  0
  189.9760  176.3580  146.7850 C   0  0  2  0  0  3  0  0  0  0  0  0
  189.1830  177.5090  147.9600 S   0  0  0  0  0  1  0  0  0  0  0  0
  191.4680  176.0790  147.0310 C   0  0  2  0  0  3  0  0  0  0  0  0
  192.0800  176.7870  148.2310 C   0  0  0  0  0  2  0  0  0  0  0  0
  192.8290  174.6270  148.8920 O   0  0  0  0  0  1  0  0  0  0  0  0
  193.2300  175.9550  148.7660 C   0  0  0  0  0  2  0  0  0  0  0  0
  192.1420  179.6670  144.0460 O   0  0  0  0  0  1  0  0  0  0  0  0
  189.8570  179.7300  143.9650 O   0  0  0  0  0  0  0  0  0  0  0  0
  191.0660  179.0530  143.8300 C   0  0  0  0  0  0  0  0  0  0  0  0
  189.9260  176.2890  141.5630 C   0  0  0  0  0  2  0  0  0  0  0  0
  189.1460  176.9430  140.6010 O   0  0  0  0  0  0  0  0  0  0  0  0
  190.0660  177.4870  139.6970 C   0  0  0  0  0  2  0  0  0  0  0  0
  190.8600  176.3740  139.0200 C   0  0  0  0  0  2  0  0  0  0  0  0
  192.2950  175.6750  135.8620 C   0  0  0  0  0  2  0  0  0  0  0  0
  191.3410  176.8230  137.7200 N   0  0  0  0  0  0  0  0  0  0  0  0
  192.4290  175.9380  137.3380 C   0  0  0  0  0  2  0  0  0  0  0  0
  190.2650  176.5880  136.7600 C   0  0  0  0  0  2  0  0  0  0  0  0
  190.8180  175.7920  135.5840 C   0  0  0  0  0  2  0  0  0  0  0  0
  2  8  1  0  0  0  0
  3  5  2  0  0  0  0
  4 32  1  1  0  0  0
  4  9  1  0  0  0  0
  5  2  2  0  0  0  0
  6 10  1  0  0  0  0
  7  9  1  0  0  0  0
  9  2  1  0  0  0  0
  9  1  1  0  0  0  0
 10 11  2  0  0  0  0
 10  3  1  0  0  0  0
 11  4  1  0  0  0  0
 12  3  1  0  0  0  0
 13 12  1  0  0  0  0
 15 14  1  6  0  0  0
 15 13  1  0  0  0  0
 16 22  1  6  0  0  0
 16 15  1  0  0  0  0
 17 18  1  6  0  0  0
 17 16  1  0  0  0  0
 17 19  1  0  0  0  0
 19 20  1  0  0  0  0
 20 21  1  0  0  0  0
 22 23  1  0  0  0  0
 24 28  1  6  0  0  0
 24 23  1  0  0  0  0
 25 26  2  0  0  0  0
 26 27  1  0  0  0  0
 26 24  1  0  0  0  0
 29 28  1  0  0  0  0
 29 30  1  0  0  0  0
 30 31  1  0  0  0  0
 32 33  1  0  0  0  0
 33 34  1  0  0  0  0
 35 34  1  0  0  0  0
 36 51  1  6  0  0  0
 36 35  1  0  0  0  0
 36 40  1  0  0  0  0
 36 39  1  0  0  0  0
 38 37  1  6  0  0  0
 39 38  1  0  0  0  0
 40 50  1  1  0  0  0
 40 38  1  0  0  0  0
 41 38  1  6  0  0  0
 41 42  1  0  0  0  0
 41 44  1  0  0  0  0
 42 44  1  0  0  0  0
 42 43  1  1  0  0  0
 44 45  1  1  0  0  0
 45 47  1  0  0  0  0
 47 46  1  0  0  0  0
 50 49  2  0  0  0  0
 50 48  1  0  0  0  0
 52 51  1  0  0  0  0
 53 52  1  0  0  0  0
 54 53  1  0  0  0  0
 55 57  1  0  0  0  0
 56 54  1  0  0  0  0
 57 56  1  0  0  0  0
 58 56  1  0  0  0  0
 59 55  1  0  0  0  0
 59 58  1  0  0  0  0
M  END
>  <MODEL>
1

>  <REMARK>
 VINA RESULT:      -5.2      0.000      0.000
  Name = 
  28 active torsions:
  status: ('A' for Active; 'I' for Inactive)
    1  A    between atoms: C_5  and  C_19
    2  A    between atoms: C_6  and  C_10
    3  A    between atoms: C_7  and  C_26
    4  A    between atoms: C_7  and  C_42
    5  A    between atoms: C_9  and  C_13
    6  A    between atoms: C_9  and  C_49
    7  A    between atoms: C_10  and  C_32
    8  A    between atoms: C_12  and  C_38
    9  A    between atoms: C_12  and  C_52
   10  A    between atoms: C_13  and  C_47
   11  A    between atoms: N_14  and  C_46
   12  A    between atoms: O_16  and  C_20
   13  A    between atoms: C_19  and  C_41
   14  A    between atoms: C_20  and  C_24
   15  A    between atoms: C_21  and  C_25
   16  A    between atoms: C_21  and  C_26
   17  A    between atoms: C_21  and  C_56
   18  A    between atoms: C_24  and  C_35
   19  A    between atoms: C_27  and  C_44
   20  A    between atoms: C_28  and  C_46
   21  A    between atoms: C_28  and  O_57
   22  A    between atoms: C_32  and  C_49
   23  A    between atoms: C_35  and  O_37
   24  A    between atoms: C_35  and  C_51
   25  A    between atoms: O_37  and  C_56
   26  A    between atoms: C_41  and  C_51
   27  A    between atoms: C_47  and  O_57
   28  A    between atoms: C_58  and  C_59
                            x       y       z     vdW  Elec       q    Type
                         _______ _______ _______ _____ _____    ______ ____

>  <TORSDO>
F 28

$$$$
=
 OpenBabel11062416103D

 59 62  0  0  1  0  0  0  0  0999 V2000
  191.8900  177.0010  143.0870 F   0  0  0  0  0  0  0  0  0  0  0  0
  189.7020  177.2270  143.9180 C   0  0  0  0  0  0  0  0  0  0  0  0
  187.4300  177.6670  142.8710 C   0  0  0  0  0  0  0  0  0  0  0  0
  190.1580  177.2490  141.4230 C   0  0  1  0  0  3  0  0  0  0  0  0
  188.4620  177.3880  143.5980 C   0  0  0  0  0  0  0  0  0  0  0  0
  186.4940  179.0270  140.6020 Cl  0  0  0  0  0  0  0  0  0  0  0  0
  190.8790  179.0060  142.9110 F   0  0  0  0  0  0  0  0  0  0  0  0
  190.0560  176.4320  144.9590 F   0  0  0  0  0  0  0  0  0  0  0  0
  190.6820  177.6360  142.8450 C   0  0  0  0  0  0  0  0  0  0  0  0
  187.7320  178.1600  141.4970 C   0  0  0  0  0  0  0  0  0  0  0  0
  188.9380  178.0140  140.8970 C   0  0  0  0  0  3  0  0  0  0  0  0
  186.0590  177.7060  143.4560 C   0  0  0  0  0  2  0  0  0  0  0  0
  185.4850  179.1170  143.4010 C   0  0  0  0  0  2  0  0  0  0  0  0
  183.7920  178.7770  145.0950 O   0  0  0  0  0  1  0  0  0  0  0  0
  183.9990  179.1510  143.7670 C   0  0  2  0  0  3  0  0  0  0  0  0
  183.0990  178.3370  142.8250 C   0  0  1  0  0  3  0  0  0  0  0  0
  181.6130  178.5320  143.1430 C   0  0  1  0  0  3  0  0  0  0  0  0
  181.4170  178.4340  144.5180 O   0  0  0  0  0  1  0  0  0  0  0  0
  181.1200  179.8920  142.6760 C   0  0  0  0  0  2  0  0  0  0  0  0
  180.0260  179.7340  141.8280 O   0  0  0  0  0  0  0  0  0  0  0  0
  178.9310  179.6010  142.6830 C   0  0  0  0  0  1  0  0  0  0  0  0
  183.3450  178.6560  141.4800 O   0  0  0  0  0  0  0  0  0  0  0  0
  183.1750  177.4600  140.7720 C   0  0  0  0  0  2  0  0  0  0  0  0
  181.9100  177.5250  139.9200 C   0  0  1  0  0  3  0  0  0  0  0  0
  181.0270  178.8990  138.1800 O   0  0  0  0  0  0  0  0  0  0  0  0
  182.0480  178.5360  138.8290 C   0  0  0  0  0  0  0  0  0  0  0  0
  183.2880  179.0760  138.5110 O   0  0  0  0  0  1  0  0  0  0  0  0
  181.6030  176.1580  139.3340 C   0  0  0  0  0  2  0  0  0  0  0  0
  182.5160  175.8710  138.1540 C   0  0  0  0  0  2  0  0  0  0  0  0
  181.9570  174.7480  137.2970 C   0  0  0  0  0  2  0  0  0  0  0  0
  180.4510  174.8590  137.1830 C   0  0  0  0  0  1  0  0  0  0  0  0
  191.2740  177.1800  140.3780 C   0  0  0  0  0  2  0  0  0  0  0  0
  190.8570  176.4780  139.0880 C   0  0  0  0  0  2  0  0  0  0  0  0
  192.0510  175.8230  138.4190 C   0  0  0  0  0  2  0  0  0  0  0  0
  192.1740  176.2930  136.9740 C   0  0  0  0  0  2  0  0  0  0  0  0
  192.3180  175.1220  135.9990 C   0  0  2  0  0  0  0  0  0  0  0  0
  193.9730  172.6480  135.0870 O   0  0  0  0  0  1  0  0  0  0  0  0
  194.0050  173.7660  135.9330 C   0  0  2  0  0  0  0  0  0  0  0  0
  192.7240  173.8580  136.7510 C   0  0  0  0  0  2  0  0  0  0  0  0
  193.6110  175.0400  135.1660 C   0  0  2  0  0  3  0  0  0  0  0  0
  195.2520  173.8510  136.8360 C   0  0  1  0  0  3  0  0  0  0  0  0
  194.9510  173.4370  138.2660 C   0  0  2  0  0  3  0  0  0  0  0  0
  196.0030  174.4040  139.4010 S   0  0  0  0  0  1  0  0  0  0  0  0
  195.6960  172.4820  137.3180 C   0  0  2  0  0  3  0  0  0  0  0  0
  197.2100  172.4590  137.4650 C   0  0  0  0  0  2  0  0  0  0  0  0
  197.5590  171.9990  135.1570 O   0  0  0  0  0  1  0  0  0  0  0  0
  197.8440  172.9160  136.1660 C   0  0  0  0  0  2  0  0  0  0  0  0
  194.3300  177.2460  134.5950 O   0  0  0  0  0  0  0  0  0  0  0  0
  195.6880  176.1680  136.0860 O   0  0  0  0  0  1  0  0  0  0  0  0
  194.5640  176.2090  135.2650 C   0  0  0  0  0  0  0  0  0  0  0  0
  191.0470  174.9050  135.1670 C   0  0  0  0  0  2  0  0  0  0  0  0
  189.9740  175.6540  135.6660 O   0  0  0  0  0  0  0  0  0  0  0  0
  189.7480  176.6480  134.7070 C   0  0  0  0  0  2  0  0  0  0  0  0
  188.5800  177.5330  135.1330 C   0  0  0  0  0  2  0  0  0  0  0  0
  185.9460  177.4410  137.4940 C   0  0  0  0  0  2  0  0  0  0  0  0
  187.6680  176.7810  135.9850 N   0  0  0  0  0  0  0  0  0  0  0  0
  187.4040  177.5990  137.1570 C   0  0  0  0  0  2  0  0  0  0  0  0
  186.4000  176.6730  135.2670 C   0  0  0  0  0  2  0  0  0  0  0  0
  185.2750  177.1540  136.1750 C   0  0  0  0  0  2  0  0  0  0  0  0
  2  8  1  0  0  0  0
  3 12  1  0  0  0  0
  3  5  2  0  0  0  0
  4 32  1  6  0  0  0
  4  9  1  0  0  0  0
  5  2  2  0  0  0  0
  6 10  1  0  0  0  0
  9  7  1  0  0  0  0
  9  1  1  0  0  0  0
  9  2  1  0  0  0  0
 10  3  1  0  0  0  0
 11  4  1  0  0  0  0
 11 10  2  0  0  0  0
 13 12  1  0  0  0  0
 13 15  1  0  0  0  0
 15 14  1  1  0  0  0
 16 22  1  6  0  0  0
 16 17  1  0  0  0  0
 16 15  1  0  0  0  0
 17 18  1  1  0  0  0
 19 17  1  0  0  0  0
 20 19  1  0  0  0  0
 20 21  1  0  0  0  0
 23 22  1  0  0  0  0
 24 28  1  6  0  0  0
 24 23  1  0  0  0  0
 25 26  2  0  0  0  0
 26 24  1  0  0  0  0
 27 26  1  0  0  0  0
 29 28  1  0  0  0  0
 30 29  1  0  0  0  0
 31 30  1  0  0  0  0
 33 32  1  0  0  0  0
 34 33  1  0  0  0  0
 35 34  1  0  0  0  0
 36 51  1  6  0  0  0
 36 39  1  0  0  0  0
 36 35  1  0  0  0  0
 38 37  1  6  0  0  0
 38 39  1  0  0  0  0
 40 50  1  1  0  0  0
 40 38  1  0  0  0  0
 40 36  1  0  0  0  0
 41 38  1  6  0  0  0
 41 44  1  0  0  0  0
 41 42  1  0  0  0  0
 42 43  1  1  0  0  0
 44 45  1  1  0  0  0
 44 42  1  0  0  0  0
 46 47  1  0  0  0  0
 47 45  1  0  0  0  0
 48 50  2  0  0  0  0
 50 49  1  0  0  0  0
 51 52  1  0  0  0  0
 53 54  1  0  0  0  0
 53 52  1  0  0  0  0
 54 56  1  0  0  0  0
 56 57  1  0  0  0  0
 57 55  1  0  0  0  0
 58 56  1  0  0  0  0
 58 59  1  0  0  0  0
 59 55  1  0  0  0  0
M  END
>  <MODEL>
2

>  <REMARK>
 VINA RESULT:      -4.7      4.143      7.618
  Name = 
  28 active torsions:
  status: ('A' for Active; 'I' for Inactive)
    1  A    between atoms: C_5  and  C_19
    2  A    between atoms: C_6  and  C_10
    3  A    between atoms: C_7  and  C_26
    4  A    between atoms: C_7  and  C_42
    5  A    between atoms: C_9  and  C_13
    6  A    between atoms: C_9  and  C_49
    7  A    between atoms: C_10  and  C_32
    8  A    between atoms: C_12  and  C_38
    9  A    between atoms: C_12  and  C_52
   10  A    between atoms: C_13  and  C_47
   11  A    between atoms: N_14  and  C_46
   12  A    between atoms: O_16  and  C_20
   13  A    between atoms: C_19  and  C_41
   14  A    between atoms: C_20  and  C_24
   15  A    between atoms: C_21  and  C_25
   16  A    between atoms: C_21  and  C_26
   17  A    between atoms: C_21  and  C_56
   18  A    between atoms: C_24  and  C_35
   19  A    between atoms: C_27  and  C_44
   20  A    between atoms: C_28  and  C_46
   21  A    between atoms: C_28  and  O_57
   22  A    between atoms: C_32  and  C_49
   23  A    between atoms: C_35  and  O_37
   24  A    between atoms: C_35  and  C_51
   25  A    between atoms: O_37  and  C_56
   26  A    between atoms: C_41  and  C_51
   27  A    between atoms: C_47  and  O_57
   28  A    between atoms: C_58  and  C_59
                            x       y       z     vdW  Elec       q    Type
                         _______ _______ _______ _____ _____    ______ ____

>  <TORSDO>
F 28

$$$$
=
 OpenBabel11062416103D

 59 62  0  0  1  0  0  0  0  0999 V2000
  185.7670  179.2570  140.9810 F   0  0  0  0  0  0  0  0  0  0  0  0
  183.8430  179.1330  139.6330 C   0  0  0  0  0  0  0  0  0  0  0  0
  181.3550  178.9060  140.0900 C   0  0  0  0  0  0  0  0  0  0  0  0
  183.6610  179.2180  142.1620 C   0  0  1  0  0  3  0  0  0  0  0  0
  182.5540  179.0740  139.6370 C   0  0  0  0  0  0  0  0  0  0  0  0
  179.7800  177.7390  142.0980 Cl  0  0  0  0  0  0  0  0  0  0  0  0
  184.5890  177.3380  140.9690 F   0  0  0  0  0  0  0  0  0  0  0  0
  184.5070  179.8440  138.6870 F   0  0  0  0  0  0  0  0  0  0  0  0
  184.4910  178.7200  140.9330 C   0  0  0  0  0  0  0  0  0  0  0  0
  181.2660  178.4700  141.5120 C   0  0  0  0  0  0  0  0  0  0  0  0
  182.2930  178.5670  142.3910 C   0  0  0  0  0  3  0  0  0  0  0  0
  180.1730  178.9270  139.1800 C   0  0  0  0  0  2  0  0  0  0  0  0
  180.5740  179.3760  137.7800 C   0  0  0  0  0  2  0  0  0  0  0  0
  178.9490  178.0240  136.6030 O   0  0  0  0  0  1  0  0  0  0  0  0
  180.3120  178.2940  136.7300 C   0  0  2  0  0  3  0  0  0  0  0  0
  181.1060  176.9970  136.9480 C   0  0  1  0  0  3  0  0  0  0  0  0
  180.1850  175.7870  137.1320 C   0  0  1  0  0  3  0  0  0  0  0  0
  179.6450  175.4240  135.9000 O   0  0  0  0  0  1  0  0  0  0  0  0
  180.9380  174.5970  137.7030 C   0  0  0  0  0  2  0  0  0  0  0  0
  180.0610  173.7720  138.4040 O   0  0  0  0  0  0  0  0  0  0  0  0
  180.2720  172.4980  137.8750 C   0  0  0  0  0  1  0  0  0  0  0  0
  182.0000  176.7600  135.8920 O   0  0  0  0  0  0  0  0  0  0  0  0
  183.2390  177.2370  136.3330 C   0  0  0  0  0  2  0  0  0  0  0  0
  184.3580  176.7090  135.4390 C   0  0  1  0  0  3  0  0  0  0  0  0
  186.7420  176.7730  135.3500 O   0  0  0  0  0  0  0  0  0  0  0  0
  185.6990  177.0090  136.0230 C   0  0  0  0  0  0  0  0  0  0  0  0
  185.8170  177.5340  137.3040 O   0  0  0  0  0  1  0  0  0  0  0  0
  184.1980  175.2130  135.2280 C   0  0  0  0  0  2  0  0  0  0  0  0
  185.1020  174.4470  136.1780 C   0  0  0  0  0  2  0  0  0  0  0  0
  184.2850  173.6970  137.2180 C   0  0  0  0  0  2  0  0  0  0  0  0
  184.1150  172.2450  136.8220 C   0  0  0  0  0  1  0  0  0  0  0  0
  184.4850  179.2700  143.4510 C   0  0  0  0  0  2  0  0  0  0  0  0
  185.0090  177.9070  143.8940 C   0  0  0  0  0  2  0  0  0  0  0  0
  186.3720  178.0390  144.5480 C   0  0  0  0  0  2  0  0  0  0  0  0
  187.3640  177.0770  143.9060 C   0  0  0  0  0  2  0  0  0  0  0  0
  188.6730  177.7710  143.5210 C   0  0  2  0  0  0  0  0  0  0  0  0
  191.7850  177.7510  143.6090 O   0  0  0  0  0  1  0  0  0  0  0  0
  190.6460  177.1170  144.1270 C   0  0  2  0  0  0  0  0  0  0  0  0
  189.6810  176.7470  143.0080 C   0  0  0  0  0  2  0  0  0  0  0  0
  189.6410  178.1530  144.6570 C   0  0  2  0  0  3  0  0  0  0  0  0
  190.9450  175.9050  145.0320 C   0  0  1  0  0  3  0  0  0  0  0  0
  192.2210  175.1900  144.6260 C   0  0  2  0  0  3  0  0  0  0  0  0
  192.0420  173.4060  144.9690 S   0  0  0  0  0  1  0  0  0  0  0  0
  192.2000  176.1100  145.8580 C   0  0  2  0  0  3  0  0  0  0  0  0
  192.0500  175.4090  147.2010 C   0  0  0  0  0  2  0  0  0  0  0  0
  193.2480  175.7820  149.2220 O   0  0  0  0  0  1  0  0  0  0  0  0
  192.3830  176.3850  148.3120 C   0  0  0  0  0  2  0  0  0  0  0  0
  189.0590  178.9470  146.8340 O   0  0  0  0  0  1  0  0  0  0  0  0
  188.7830  176.6950  146.5470 O   0  0  0  0  0  0  0  0  0  0  0  0
  189.1480  177.9520  146.0720 C   0  0  0  0  0  0  0  0  0  0  0  0
  188.4490  178.9040  142.5100 C   0  0  0  0  0  2  0  0  0  0  0  0
  188.0630  178.4050  141.2600 O   0  0  0  0  0  0  0  0  0  0  0  0
  189.2150  177.8090  140.7350 C   0  0  0  0  0  2  0  0  0  0  0  0
  188.8540  176.9210  139.5480 C   0  0  0  0  0  2  0  0  0  0  0  0
  191.9080  176.3840  137.8440 C   0  0  0  0  0  2  0  0  0  0  0  0
  189.7450  177.1960  138.4290 N   0  0  0  0  0  0  0  0  0  0  0  0
  191.1060  177.0610  138.9220 C   0  0  0  0  0  2  0  0  0  0  0  0
  189.5550  176.1240  137.4550 C   0  0  0  0  0  2  0  0  0  0  0  0
  190.9130  175.5260  137.1050 C   0  0  0  0  0  2  0  0  0  0  0  0
  2  5  2  0  0  0  0
  2  9  1  0  0  0  0
  3 10  1  0  0  0  0
  4 11  1  0  0  0  0
  4 32  1  1  0  0  0
  5  3  2  0  0  0  0
  8  2  1  0  0  0  0
  9  7  1  0  0  0  0
  9  1  1  0  0  0  0
  9  4  1  0  0  0  0
 10  6  1  0  0  0  0
 10 11  2  0  0  0  0
 12  3  1  0  0  0  0
 13 12  1  0  0  0  0
 15 14  1  1  0  0  0
 15 16  1  0  0  0  0
 15 13  1  0  0  0  0
 16 22  1  6  0  0  0
 16 17  1  0  0  0  0
 17 18  1  6  0  0  0
 17 19  1  0  0  0  0
 19 20  1  0  0  0  0
 21 20  1  0  0  0  0
 22 23  1  0  0  0  0
 24 28  1  1  0  0  0
 24 26  1  0  0  0  0
 24 23  1  0  0  0  0
 25 26  2  0  0  0  0
 26 27  1  0  0  0  0
 28 29  1  0  0  0  0
 29 30  1  0  0  0  0
 31 30  1  0  0  0  0
 32 33  1  0  0  0  0
 33 34  1  0  0  0  0
 35 34  1  0  0  0  0
 36 51  1  6  0  0  0
 36 35  1  0  0  0  0
 36 40  1  0  0  0  0
 38 37  1  6  0  0  0
 38 40  1  0  0  0  0
 39 36  1  0  0  0  0
 39 38  1  0  0  0  0
 40 50  1  1  0  0  0
 41 38  1  6  0  0  0
 41 44  1  0  0  0  0
 42 43  1  1  0  0  0
 42 41  1  0  0  0  0
 42 44  1  0  0  0  0
 44 45  1  1  0  0  0
 45 47  1  0  0  0  0
 47 46  1  0  0  0  0
 50 49  2  0  0  0  0
 50 48  1  0  0  0  0
 52 51  1  0  0  0  0
 53 52  1  0  0  0  0
 54 53  1  0  0  0  0
 55 57  1  0  0  0  0
 56 57  1  0  0  0  0
 56 54  1  0  0  0  0
 58 56  1  0  0  0  0
 59 58  1  0  0  0  0
 59 55  1  0  0  0  0
M  END
>  <MODEL>
3

>  <REMARK>
 VINA RESULT:      -3.9      2.128      2.922
  Name = 
  28 active torsions:
  status: ('A' for Active; 'I' for Inactive)
    1  A    between atoms: C_5  and  C_19
    2  A    between atoms: C_6  and  C_10
    3  A    between atoms: C_7  and  C_26
    4  A    between atoms: C_7  and  C_42
    5  A    between atoms: C_9  and  C_13
    6  A    between atoms: C_9  and  C_49
    7  A    between atoms: C_10  and  C_32
    8  A    between atoms: C_12  and  C_38
    9  A    between atoms: C_12  and  C_52
   10  A    between atoms: C_13  and  C_47
   11  A    between atoms: N_14  and  C_46
   12  A    between atoms: O_16  and  C_20
   13  A    between atoms: C_19  and  C_41
   14  A    between atoms: C_20  and  C_24
   15  A    between atoms: C_21  and  C_25
   16  A    between atoms: C_21  and  C_26
   17  A    between atoms: C_21  and  C_56
   18  A    between atoms: C_24  and  C_35
   19  A    between atoms: C_27  and  C_44
   20  A    between atoms: C_28  and  C_46
   21  A    between atoms: C_28  and  O_57
   22  A    between atoms: C_32  and  C_49
   23  A    between atoms: C_35  and  O_37
   24  A    between atoms: C_35  and  C_51
   25  A    between atoms: O_37  and  C_56
   26  A    between atoms: C_41  and  C_51
   27  A    between atoms: C_47  and  O_57
   28  A    between atoms: C_58  and  C_59
                            x       y       z     vdW  Elec       q    Type
                         _______ _______ _______ _____ _____    ______ ____

>  <TORSDO>
F 28

$$$$
=
 OpenBabel11062416103D

 59 62  0  0  1  0  0  0  0  0999 V2000
  188.9070  177.9720  142.1560 F   0  0  0  0  0  0  0  0  0  0  0  0
  187.1950  178.2880  140.5740 C   0  0  0  0  0  0  0  0  0  0  0  0
  186.9930  177.9340  138.0670 C   0  0  0  0  0  0  0  0  0  0  0  0
  189.4050  177.2350  139.9110 C   0  0  1  0  0  3  0  0  0  0  0  0
  186.8600  178.1390  139.3370 C   0  0  0  0  0  0  0  0  0  0  0  0
  188.7500  178.0020  135.8810 Cl  0  0  0  0  0  0  0  0  0  0  0  0
  189.1900  179.5460  140.5690 F   0  0  0  0  0  0  0  0  0  0  0  0
  186.2930  178.0970  141.5700 F   0  0  0  0  0  0  0  0  0  0  0  0
  188.6840  178.2810  140.8230 C   0  0  0  0  0  0  0  0  0  0  0  0
  188.3960  177.7860  137.5880 C   0  0  0  0  0  0  0  0  0  0  0  0
  189.4440  177.5300  138.4070 C   0  0  0  0  0  3  0  0  0  0  0  0
  185.8350  178.0700  137.1360 C   0  0  0  0  0  2  0  0  0  0  0  0
  184.5190  177.8260  137.8660 C   0  0  0  0  0  2  0  0  0  0  0  0
  183.7950  176.5770  135.9240 O   0  0  0  0  0  1  0  0  0  0  0  0
  183.7750  176.6050  137.3190 C   0  0  2  0  0  3  0  0  0  0  0  0
  182.3400  176.4520  137.8470 C   0  0  1  0  0  3  0  0  0  0  0  0
  181.6380  175.2300  137.2480 C   0  0  1  0  0  3  0  0  0  0  0  0
  182.2210  174.0690  137.7490 O   0  0  0  0  0  1  0  0  0  0  0  0
  180.1570  175.2180  137.5890 C   0  0  0  0  0  2  0  0  0  0  0  0
  179.4020  175.3870  136.4310 O   0  0  0  0  0  0  0  0  0  0  0  0
  179.6170  176.7150  136.0580 C   0  0  0  0  0  1  0  0  0  0  0  0
  182.3160  176.3760  139.2490 O   0  0  0  0  0  0  0  0  0  0  0  0
  181.1380  177.0230  139.6400 C   0  0  0  0  0  2  0  0  0  0  0  0
  181.3620  178.5320  139.7120 C   0  0  1  0  0  3  0  0  0  0  0  0
  180.2310  180.5130  139.0100 O   0  0  0  0  0  0  0  0  0  0  0  0
  180.1510  179.2760  139.2540 C   0  0  0  0  0  0  0  0  0  0  0  0
  178.9310  178.6290  139.1040 O   0  0  0  0  0  1  0  0  0  0  0  0
  181.7270  178.9410  141.1280 C   0  0  0  0  0  2  0  0  0  0  0  0
  183.1980  178.6690  141.3930 C   0  0  0  0  0  2  0  0  0  0  0  0
  183.4380  178.3800  142.8660 C   0  0  0  0  0  2  0  0  0  0  0  0
  182.4160  179.0920  143.7270 C   0  0  0  0  0  1  0  0  0  0  0  0
  190.7830  176.8340  140.4430 C   0  0  0  0  0  2  0  0  0  0  0  0
  191.9280  177.1870  139.4960 C   0  0  0  0  0  2  0  0  0  0  0  0
  191.8690  176.3380  138.2390 C   0  0  0  0  0  2  0  0  0  0  0  0
  193.2550  176.2140  137.6180 C   0  0  0  0  0  2  0  0  0  0  0  0
  193.3570  175.0140  136.6740 C   0  0  2  0  0  0  0  0  0  0  0  0
  195.1390  172.7710  135.4530 O   0  0  0  0  0  1  0  0  0  0  0  0
  195.1830  173.9380  136.2300 C   0  0  2  0  0  0  0  0  0  0  0  0
  194.1410  173.8860  137.3390 C   0  0  0  0  0  2  0  0  0  0  0  0
  194.4060  175.0760  135.5470 C   0  0  2  0  0  3  0  0  0  0  0  0
  196.5780  174.2820  136.7900 C   0  0  1  0  0  3  0  0  0  0  0  0
  196.8140  173.6630  138.1560 C   0  0  2  0  0  3  0  0  0  0  0  0
  197.8810  174.7710  139.1380 S   0  0  0  0  0  1  0  0  0  0  0  0
  197.4630  173.0550  136.9010 C   0  0  2  0  0  3  0  0  0  0  0  0
  198.9130  173.4450  136.6550 C   0  0  0  0  0  2  0  0  0  0  0  0
  198.9780  175.0840  134.9320 O   0  0  0  0  0  1  0  0  0  0  0  0
  199.1110  173.7190  135.1770 C   0  0  0  0  0  2  0  0  0  0  0  0
  196.2550  176.5400  135.9300 O   0  0  0  0  0  1  0  0  0  0  0  0
  194.6190  177.4170  134.5950 O   0  0  0  0  0  0  0  0  0  0  0  0
  195.1410  176.3840  135.3700 C   0  0  0  0  0  0  0  0  0  0  0  0
  191.9790  174.5410  136.1930 C   0  0  0  0  0  2  0  0  0  0  0  0
  191.8040  173.1690  136.4110 O   0  0  0  0  0  0  0  0  0  0  0  0
  190.7930  172.7850  135.5220 C   0  0  0  0  0  2  0  0  0  0  0  0
  189.8670  173.9640  135.2390 C   0  0  0  0  0  2  0  0  0  0  0  0
  187.4260  171.5110  135.9780 C   0  0  0  0  0  2  0  0  0  0  0  0
  188.4780  173.5240  135.2570 N   0  0  0  0  0  0  0  0  0  0  0  0
  188.4840  172.0820  135.0720 C   0  0  0  0  0  2  0  0  0  0  0  0
  187.9680  173.7620  136.6050 C   0  0  0  0  0  2  0  0  0  0  0  0
  187.3480  172.4750  137.1340 C   0  0  0  0  0  2  0  0  0  0  0  0
  2  9  1  0  0  0  0
  2  8  1  0  0  0  0
  3  5  2  0  0  0  0
  4 32  1  1  0  0  0
  4  9  1  0  0  0  0
  5  2  2  0  0  0  0
  6 10  1  0  0  0  0
  7  9  1  0  0  0  0
  9  1  1  0  0  0  0
 10  3  1  0  0  0  0
 10 11  2  0  0  0  0
 11  4  1  0  0  0  0
 12 13  1  0  0  0  0
 12  3  1  0  0  0  0
 15 14  1  6  0  0  0
 15 16  1  0  0  0  0
 15 13  1  0  0  0  0
 16 22  1  1  0  0  0
 17 19  1  0  0  0  0
 17 18  1  1  0  0  0
 17 16  1  0  0  0  0
 20 19  1  0  0  0  0
 21 20  1  0  0  0  0
 22 23  1  0  0  0  0
 24 23  1  1  0  0  0
 24 28  1  0  0  0  0
 25 26  2  0  0  0  0
 26 24  1  0  0  0  0
 27 26  1  0  0  0  0
 28 29  1  0  0  0  0
 29 30  1  0  0  0  0
 30 31  1  0  0  0  0
 33 32  1  0  0  0  0
 34 33  1  0  0  0  0
 35 34  1  0  0  0  0
 36 51  1  6  0  0  0
 36 39  1  0  0  0  0
 36 35  1  0  0  0  0
 38 37  1  6  0  0  0
 38 39  1  0  0  0  0
 40 50  1  1  0  0  0
 40 38  1  0  0  0  0
 40 36  1  0  0  0  0
 41 38  1  6  0  0  0
 41 44  1  0  0  0  0
 41 42  1  0  0  0  0
 42 43  1  1  0  0  0
 44 45  1  1  0  0  0
 44 42  1  0  0  0  0
 46 47  1  0  0  0  0
 47 45  1  0  0  0  0
 49 50  2  0  0  0  0
 50 48  1  0  0  0  0
 51 52  1  0  0  0  0
 53 52  1  0  0  0  0
 54 56  1  0  0  0  0
 54 53  1  0  0  0  0
 55 59  1  0  0  0  0
 56 58  1  0  0  0  0
 57 56  1  0  0  0  0
 57 55  1  0  0  0  0
 58 59  1  0  0  0  0
M  END
>  <MODEL>
4

>  <REMARK>
 VINA RESULT:      -3.9      4.509      7.510
  Name = 
  28 active torsions:
  status: ('A' for Active; 'I' for Inactive)
    1  A    between atoms: C_5  and  C_19
    2  A    between atoms: C_6  and  C_10
    3  A    between atoms: C_7  and  C_26
    4  A    between atoms: C_7  and  C_42
    5  A    between atoms: C_9  and  C_13
    6  A    between atoms: C_9  and  C_49
    7  A    between atoms: C_10  and  C_32
    8  A    between atoms: C_12  and  C_38
    9  A    between atoms: C_12  and  C_52
   10  A    between atoms: C_13  and  C_47
   11  A    between atoms: N_14  and  C_46
   12  A    between atoms: O_16  and  C_20
   13  A    between atoms: C_19  and  C_41
   14  A    between atoms: C_20  and  C_24
   15  A    between atoms: C_21  and  C_25
   16  A    between atoms: C_21  and  C_26
   17  A    between atoms: C_21  and  C_56
   18  A    between atoms: C_24  and  C_35
   19  A    between atoms: C_27  and  C_44
   20  A    between atoms: C_28  and  C_46
   21  A    between atoms: C_28  and  O_57
   22  A    between atoms: C_32  and  C_49
   23  A    between atoms: C_35  and  O_37
   24  A    between atoms: C_35  and  C_51
   25  A    between atoms: O_37  and  C_56
   26  A    between atoms: C_41  and  C_51
   27  A    between atoms: C_47  and  O_57
   28  A    between atoms: C_58  and  C_59
                            x       y       z     vdW  Elec       q    Type
                         _______ _______ _______ _____ _____    ______ ____

>  <TORSDO>
F 28

$$$$
=
 OpenBabel11062416103D

 59 62  0  0  1  0  0  0  0  0999 V2000
  191.1090  179.2370  141.6060 F   0  0  0  0  0  0  0  0  0  0  0  0
  191.0350  178.6480  143.8820 C   0  0  0  0  0  0  0  0  0  0  0  0
  191.6990  176.5920  145.2160 C   0  0  0  0  0  0  0  0  0  0  0  0
  192.1030  177.1100  142.1700 C   0  0  1  0  0  3  0  0  0  0  0  0
  191.3430  177.7440  144.7480 C   0  0  0  0  0  0  0  0  0  0  0  0
  191.8530  173.8350  144.7140 Cl  0  0  0  0  0  0  0  0  0  0  0  0
  189.7350  177.5680  142.2370 F   0  0  0  0  0  0  0  0  0  0  0  0
  191.1260  179.9670  144.1860 F   0  0  0  0  0  0  0  0  0  0  0  0
  190.9720  178.1520  142.4570 C   0  0  0  0  0  0  0  0  0  0  0  0
  191.8670  175.5140  144.2000 C   0  0  0  0  0  0  0  0  0  0  0  0
  191.9940  175.7510  142.8720 C   0  0  0  0  0  3  0  0  0  0  0  0
  191.7080  176.3210  146.6830 C   0  0  0  0  0  2  0  0  0  0  0  0
  190.2890  176.2920  147.2390 C   0  0  0  0  0  2  0  0  0  0  0  0
  189.4880  178.3960  148.1250 O   0  0  0  0  0  1  0  0  0  0  0  0
  189.5410  177.6010  146.9790 C   0  0  2  0  0  3  0  0  0  0  0  0
  188.1390  177.4180  146.3790 C   0  0  1  0  0  3  0  0  0  0  0  0
  187.0410  177.5400  147.4410 C   0  0  1  0  0  3  0  0  0  0  0  0
  187.5100  177.0340  148.6510 O   0  0  0  0  0  1  0  0  0  0  0  0
  186.6240  178.9860  147.6460 C   0  0  0  0  0  2  0  0  0  0  0  0
  185.4460  179.2440  146.9490 O   0  0  0  0  0  0  0  0  0  0  0  0
  184.5910  178.1970  147.2980 C   0  0  0  0  0  1  0  0  0  0  0  0
  187.9020  178.3360  145.3420 O   0  0  0  0  0  0  0  0  0  0  0  0
  187.1910  177.6270  144.3670 C   0  0  0  0  0  2  0  0  0  0  0  0
  186.1720  178.5380  143.6880 C   0  0  1  0  0  3  0  0  0  0  0  0
  187.3640  178.8360  141.6410 O   0  0  0  0  0  1  0  0  0  0  0  0
  186.2940  178.4650  142.2010 C   0  0  0  0  0  0  0  0  0  0  0  0
  185.2400  178.0040  141.4220 O   0  0  0  0  0  0  0  0  0  0  0  0
  184.7650  178.1650  144.1200 C   0  0  0  0  0  2  0  0  0  0  0  0
  183.8190  179.3350  143.9090 C   0  0  0  0  0  2  0  0  0  0  0  0
  182.3780  178.8590  143.8340 C   0  0  0  0  0  2  0  0  0  0  0  0
  181.8510  178.9640  142.4180 C   0  0  0  0  0  1  0  0  0  0  0  0
  192.3990  176.9520  140.6770 C   0  0  0  0  0  2  0  0  0  0  0  0
  191.2400  177.3750  139.7780 C   0  0  0  0  0  2  0  0  0  0  0  0
  190.5100  176.1620  139.2310 C   0  0  0  0  0  2  0  0  0  0  0  0
  191.3720  175.4470  138.1960 C   0  0  0  0  0  2  0  0  0  0  0  0
  191.1490  175.9950  136.7850 C   0  0  2  0  0  0  0  0  0  0  0  0
  189.1180  176.8730  134.5940 O   0  0  0  0  0  1  0  0  0  0  0  0
  189.2160  176.2370  135.8410 C   0  0  2  0  0  0  0  0  0  0  0  0
  190.0600  177.0640  136.8010 C   0  0  0  0  0  2  0  0  0  0  0  0
  190.3030  175.1510  135.8140 C   0  0  2  0  0  3  0  0  0  0  0  0
  187.8620  175.8560  136.4730 C   0  0  1  0  0  3  0  0  0  0  0  0
  186.7220  176.7020  135.9330 C   0  0  2  0  0  3  0  0  0  0  0  0
  185.4820  176.9440  137.2510 S   0  0  0  0  0  1  0  0  0  0  0  0
  186.9120  175.2530  135.4550 C   0  0  2  0  0  3  0  0  0  0  0  0
  186.0280  174.2150  136.1330 C   0  0  0  0  0  2  0  0  0  0  0  0
  185.3310  171.9500  135.9250 O   0  0  0  0  0  1  0  0  0  0  0  0
  186.3240  172.8500  135.5460 C   0  0  0  0  0  2  0  0  0  0  0  0
  189.9020  172.8200  135.4660 O   0  0  0  0  0  0  0  0  0  0  0  0
  189.5150  173.5350  137.6030 O   0  0  0  0  0  1  0  0  0  0  0  0
  189.8940  173.7740  136.2850 C   0  0  0  0  0  0  0  0  0  0  0  0
  192.4490  176.5180  136.1580 C   0  0  0  0  0  2  0  0  0  0  0  0
  193.3460  175.4760  135.8940 O   0  0  0  0  0  0  0  0  0  0  0  0
  194.5990  175.9690  136.2750 C   0  0  0  0  0  2  0  0  0  0  0  0
  195.4210  174.8650  136.9320 C   0  0  0  0  0  2  0  0  0  0  0  0
  198.8500  174.0300  137.1950 C   0  0  0  0  0  2  0  0  0  0  0  0
  196.8200  175.2650  137.0150 N   0  0  0  0  0  0  0  0  0  0  0  0
  197.5030  174.2680  137.8230 C   0  0  0  0  0  2  0  0  0  0  0  0
  197.3790  175.1560  135.6700 C   0  0  0  0  0  2  0  0  0  0  0  0
  198.6450  174.3100  135.7270 C   0  0  0  0  0  2  0  0  0  0  0  0
  1  9  1  0  0  0  0
  2  8  1  0  0  0  0
  2  5  2  0  0  0  0
  3 12  1  0  0  0  0
  4 32  1  6  0  0  0
  4  9  1  0  0  0  0
  4 11  1  0  0  0  0
  5  3  2  0  0  0  0
  7  9  1  0  0  0  0
  9  2  1  0  0  0  0
 10  6  1  0  0  0  0
 10  3  1  0  0  0  0
 11 10  2  0  0  0  0
 12 13  1  0  0  0  0
 15 13  1  0  0  0  0
 15 14  1  1  0  0  0
 16 22  1  6  0  0  0
 16 15  1  0  0  0  0
 16 17  1  0  0  0  0
 17 19  1  0  0  0  0
 17 18  1  1  0  0  0
 20 21  1  0  0  0  0
 20 19  1  0  0  0  0
 23 22  1  0  0  0  0
 24 28  1  6  0  0  0
 24 23  1  0  0  0  0
 25 26  1  0  0  0  0
 26 24  1  0  0  0  0
 27 26  2  0  0  0  0
 29 28  1  0  0  0  0
 30 29  1  0  0  0  0
 31 30  1  0  0  0  0
 33 32  1  0  0  0  0
 34 33  1  0  0  0  0
 35 34  1  0  0  0  0
 36 51  1  6  0  0  0
 36 39  1  0  0  0  0
 36 35  1  0  0  0  0
 38 37  1  6  0  0  0
 38 39  1  0  0  0  0
 40 38  1  0  0  0  0
 40 50  1  1  0  0  0
 40 36  1  0  0  0  0
 41 38  1  6  0  0  0
 42 41  1  0  0  0  0
 42 43  1  1  0  0  0
 44 42  1  0  0  0  0
 44 45  1  1  0  0  0
 44 41  1  0  0  0  0
 47 46  1  0  0  0  0
 47 45  1  0  0  0  0
 48 50  2  0  0  0  0
 50 49  1  0  0  0  0
 52 51  1  0  0  0  0
 52 53  1  0  0  0  0
 53 54  1  0  0  0  0
 54 56  1  0  0  0  0
 55 57  1  0  0  0  0
 56 57  1  0  0  0  0
 58 59  1  0  0  0  0
 58 56  1  0  0  0  0
 59 55  1  0  0  0  0
M  END
>  <MODEL>
5

>  <REMARK>
 VINA RESULT:      -3.9      4.166      9.567
  Name = 
  28 active torsions:
  status: ('A' for Active; 'I' for Inactive)
    1  A    between atoms: C_5  and  C_19
    2  A    between atoms: C_6  and  C_10
    3  A    between atoms: C_7  and  C_26
    4  A    between atoms: C_7  and  C_42
    5  A    between atoms: C_9  and  C_13
    6  A    between atoms: C_9  and  C_49
    7  A    between atoms: C_10  and  C_32
    8  A    between atoms: C_12  and  C_38
    9  A    between atoms: C_12  and  C_52
   10  A    between atoms: C_13  and  C_47
   11  A    between atoms: N_14  and  C_46
   12  A    between atoms: O_16  and  C_20
   13  A    between atoms: C_19  and  C_41
   14  A    between atoms: C_20  and  C_24
   15  A    between atoms: C_21  and  C_25
   16  A    between atoms: C_21  and  C_26
   17  A    between atoms: C_21  and  C_56
   18  A    between atoms: C_24  and  C_35
   19  A    between atoms: C_27  and  C_44
   20  A    between atoms: C_28  and  C_46
   21  A    between atoms: C_28  and  O_57
   22  A    between atoms: C_32  and  C_49
   23  A    between atoms: C_35  and  O_37
   24  A    between atoms: C_35  and  C_51
   25  A    between atoms: O_37  and  C_56
   26  A    between atoms: C_41  and  C_51
   27  A    between atoms: C_47  and  O_57
   28  A    between atoms: C_58  and  C_59
                            x       y       z     vdW  Elec       q    Type
                         _______ _______ _______ _____ _____    ______ ____

>  <TORSDO>
F 28

$$$$
=
 OpenBabel11062416103D

 59 62  0  0  1  0  0  0  0  0999 V2000
  191.7710  176.7720  142.4000 F   0  0  0  0  0  0  0  0  0  0  0  0
  189.6740  176.9410  143.4500 C   0  0  0  0  0  0  0  0  0  0  0  0
  187.3260  177.5110  142.6680 C   0  0  0  0  0  0  0  0  0  0  0  0
  189.8990  177.2070  140.9380 C   0  0  1  0  0  3  0  0  0  0  0  0
  188.4140  177.1490  143.2650 C   0  0  0  0  0  0  0  0  0  0  0  0
  186.2150  179.1030  140.6410 Cl  0  0  0  0  0  0  0  0  0  0  0  0
  190.7910  178.7970  142.5180 F   0  0  0  0  0  0  0  0  0  0  0  0
  190.1050  176.0420  144.3700 F   0  0  0  0  0  0  0  0  0  0  0  0
  190.5600  177.4430  142.3350 C   0  0  0  0  0  0  0  0  0  0  0  0
  187.5100  178.1360  141.3270 C   0  0  0  0  0  0  0  0  0  0  0  0
  188.6530  178.0360  140.6060 C   0  0  0  0  0  3  0  0  0  0  0  0
  186.0140  177.5090  143.3790 C   0  0  0  0  0  2  0  0  0  0  0  0
  185.3730  178.8910  143.3410 C   0  0  0  0  0  2  0  0  0  0  0  0
  183.8140  178.1350  145.0290 O   0  0  0  0  0  1  0  0  0  0  0  0
  183.9300  178.8720  143.8500 C   0  0  2  0  0  3  0  0  0  0  0  0
  182.9000  178.4030  142.8110 C   0  0  1  0  0  3  0  0  0  0  0  0
  181.4830  178.8690  143.1590 C   0  0  1  0  0  3  0  0  0  0  0  0
  181.2330  178.6230  144.5070 O   0  0  0  0  0  1  0  0  0  0  0  0
  181.3060  180.3550  142.8940 C   0  0  0  0  0  2  0  0  0  0  0  0
  179.9500  180.6690  142.8430 O   0  0  0  0  0  0  0  0  0  0  0  0
  179.4900  180.0680  141.6700 C   0  0  0  0  0  1  0  0  0  0  0  0
  183.2410  178.8380  141.5200 O   0  0  0  0  0  0  0  0  0  0  0  0
  182.8890  177.7880  140.6640 C   0  0  0  0  0  2  0  0  0  0  0  0
  182.7340  178.3000  139.2340 C   0  0  1  0  0  3  0  0  0  0  0  0
  182.4160  176.5100  137.6880 O   0  0  0  0  0  0  0  0  0  0  0  0
  183.2320  177.2970  138.2470 C   0  0  0  0  0  0  0  0  0  0  0  0
  184.5850  177.2080  137.9420 O   0  0  0  0  0  1  0  0  0  0  0  0
  181.2800  178.6380  138.9530 C   0  0  0  0  0  2  0  0  0  0  0  0
  181.1270  180.1240  138.6770 C   0  0  0  0  0  2  0  0  0  0  0  0
  181.7450  180.4920  137.3380 C   0  0  0  0  0  2  0  0  0  0  0  0
  180.8150  181.3870  136.5460 C   0  0  0  0  0  1  0  0  0  0  0  0
  190.9130  177.2280  139.7910 C   0  0  0  0  0  2  0  0  0  0  0  0
  191.3340  175.8370  139.3250 C   0  0  0  0  0  2  0  0  0  0  0  0
  192.6250  175.9020  138.5300 C   0  0  0  0  0  2  0  0  0  0  0  0
  192.3900  176.5910  137.1920 C   0  0  0  0  0  2  0  0  0  0  0  0
  192.2670  175.5880  136.0420 C   0  0  2  0  0  0  0  0  0  0  0  0
  193.4310  173.0890  134.5960 O   0  0  0  0  0  1  0  0  0  0  0  0
  193.7080  174.0370  135.5910 C   0  0  2  0  0  0  0  0  0  0  0  0
  192.5310  174.1730  136.5480 C   0  0  0  0  0  2  0  0  0  0  0  0
  193.4560  175.4620  135.0710 C   0  0  2  0  0  3  0  0  0  0  0  0
  195.0250  173.7950  136.3560 C   0  0  1  0  0  3  0  0  0  0  0  0
  194.7830  173.2380  137.7470 C   0  0  2  0  0  3  0  0  0  0  0  0
  196.0810  173.8560  138.8730 S   0  0  0  0  0  1  0  0  0  0  0  0
  195.2680  172.3200  136.6130 C   0  0  2  0  0  3  0  0  0  0  0  0
  196.7630  172.0360  136.5900 C   0  0  0  0  0  2  0  0  0  0  0  0
  196.0120  169.9800  137.5240 O   0  0  0  0  0  1  0  0  0  0  0  0
  196.9870  170.5400  136.7010 C   0  0  0  0  0  2  0  0  0  0  0  0
  194.3860  177.4950  135.9140 O   0  0  0  0  0  1  0  0  0  0  0  0
  195.8390  176.2350  134.6770 O   0  0  0  0  0  0  0  0  0  0  0  0
  194.5840  176.4530  135.2410 C   0  0  0  0  0  0  0  0  0  0  0  0
  190.9110  175.6930  135.3300 C   0  0  0  0  0  2  0  0  0  0  0  0
  190.0110  176.4820  136.0560 O   0  0  0  0  0  0  0  0  0  0  0  0
  188.8550  176.5330  135.2680 C   0  0  0  0  0  2  0  0  0  0  0  0
  188.5860  175.1680  134.6420 C   0  0  0  0  0  2  0  0  0  0  0  0
  186.5520  172.7660  136.2590 C   0  0  0  0  0  2  0  0  0  0  0  0
  188.3910  174.1690  135.6840 N   0  0  0  0  0  0  0  0  0  0  0  0
  186.9810  174.1920  136.0400 C   0  0  0  0  0  2  0  0  0  0  0  0
  188.6390  172.8620  135.0790 C   0  0  0  0  0  2  0  0  0  0  0  0
  187.4510  171.9520  135.3630 C   0  0  0  0  0  2  0  0  0  0  0  0
  2  8  1  0  0  0  0
  3  5  2  0  0  0  0
  3 12  1  0  0  0  0
  4 32  1  6  0  0  0
  4  9  1  0  0  0  0
  5  2  2  0  0  0  0
  6 10  1  0  0  0  0
  9  1  1  0  0  0  0
  9  7  1  0  0  0  0
  9  2  1  0  0  0  0
 10  3  1  0  0  0  0
 11  4  1  0  0  0  0
 11 10  2  0  0  0  0
 13 12  1  0  0  0  0
 13 15  1  0  0  0  0
 15 14  1  1  0  0  0
 16 22  1  6  0  0  0
 16 17  1  0  0  0  0
 16 15  1  0  0  0  0
 17 18  1  1  0  0  0
 19 17  1  0  0  0  0
 20 19  1  0  0  0  0
 21 20  1  0  0  0  0
 23 22  1  0  0  0  0
 24 28  1  6  0  0  0
 24 23  1  0  0  0  0
 25 26  2  0  0  0  0
 26 24  1  0  0  0  0
 27 26  1  0  0  0  0
 29 28  1  0  0  0  0
 30 29  1  0  0  0  0
 31 30  1  0  0  0  0
 33 32  1  0  0  0  0
 34 33  1  0  0  0  0
 35 34  1  0  0  0  0
 36 51  1  6  0  0  0
 36 39  1  0  0  0  0
 36 35  1  0  0  0  0
 38 37  1  6  0  0  0
 38 39  1  0  0  0  0
 40 50  1  1  0  0  0
 40 38  1  0  0  0  0
 40 36  1  0  0  0  0
 41 38  1  6  0  0  0
 41 44  1  0  0  0  0
 41 42  1  0  0  0  0
 42 43  1  1  0  0  0
 44 45  1  1  0  0  0
 44 42  1  0  0  0  0
 45 47  1  0  0  0  0
 47 46  1  0  0  0  0
 49 50  2  0  0  0  0
 50 48  1  0  0  0  0
 51 52  1  0  0  0  0
 53 52  1  0  0  0  0
 54 53  1  0  0  0  0
 54 56  1  0  0  0  0
 56 57  1  0  0  0  0
 57 55  1  0  0  0  0
 58 59  1  0  0  0  0
 58 56  1  0  0  0  0
 59 55  1  0  0  0  0
M  END
>  <MODEL>
6

>  <REMARK>
 VINA RESULT:      -3.2      4.289      7.613
  Name = 
  28 active torsions:
  status: ('A' for Active; 'I' for Inactive)
    1  A    between atoms: C_5  and  C_19
    2  A    between atoms: C_6  and  C_10
    3  A    between atoms: C_7  and  C_26
    4  A    between atoms: C_7  and  C_42
    5  A    between atoms: C_9  and  C_13
    6  A    between atoms: C_9  and  C_49
    7  A    between atoms: C_10  and  C_32
    8  A    between atoms: C_12  and  C_38
    9  A    between atoms: C_12  and  C_52
   10  A    between atoms: C_13  and  C_47
   11  A    between atoms: N_14  and  C_46
   12  A    between atoms: O_16  and  C_20
   13  A    between atoms: C_19  and  C_41
   14  A    between atoms: C_20  and  C_24
   15  A    between atoms: C_21  and  C_25
   16  A    between atoms: C_21  and  C_26
   17  A    between atoms: C_21  and  C_56
   18  A    between atoms: C_24  and  C_35
   19  A    between atoms: C_27  and  C_44
   20  A    between atoms: C_28  and  C_46
   21  A    between atoms: C_28  and  O_57
   22  A    between atoms: C_32  and  C_49
   23  A    between atoms: C_35  and  O_37
   24  A    between atoms: C_35  and  C_51
   25  A    between atoms: O_37  and  C_56
   26  A    between atoms: C_41  and  C_51
   27  A    between atoms: C_47  and  O_57
   28  A    between atoms: C_58  and  C_59
                            x       y       z     vdW  Elec       q    Type
                         _______ _______ _______ _____ _____    ______ ____

>  <TORSDO>
F 28

$$$$
=
 OpenBabel11062416103D

 59 62  0  0  1  0  0  0  0  0999 V2000
  189.3420  178.9810  137.6210 F   0  0  0  0  0  0  0  0  0  0  0  0
  187.3770  178.5260  136.4100 C   0  0  0  0  0  0  0  0  0  0  0  0
  186.1680  176.4090  135.6980 C   0  0  0  0  0  0  0  0  0  0  0  0
  188.7110  176.6540  137.4820 C   0  0  1  0  0  3  0  0  0  0  0  0
  186.5850  177.5970  135.9950 C   0  0  0  0  0  0  0  0  0  0  0  0
  186.9210  173.7780  135.0770 Cl  0  0  0  0  0  0  0  0  0  0  0  0
  189.5270  177.9580  135.6240 F   0  0  0  0  0  0  0  0  0  0  0  0
  186.8930  179.7260  136.8190 F   0  0  0  0  0  0  0  0  0  0  0  0
  188.7620  178.0480  136.7760 C   0  0  0  0  0  0  0  0  0  0  0  0
  187.1660  175.3180  135.8870 C   0  0  0  0  0  0  0  0  0  0  0  0
  188.2930  175.4530  136.6270 C   0  0  0  0  0  3  0  0  0  0  0  0
  184.8660  176.1960  135.0040 C   0  0  0  0  0  2  0  0  0  0  0  0
  183.7570  177.0050  135.6680 C   0  0  0  0  0  2  0  0  0  0  0  0
  181.3880  177.1350  135.1940 O   0  0  0  0  0  1  0  0  0  0  0  0
  182.4080  176.2840  135.6200 C   0  0  2  0  0  3  0  0  0  0  0  0
  182.0210  175.5830  136.9310 C   0  0  1  0  0  3  0  0  0  0  0  0
  181.5490  174.1450  136.6930 C   0  0  1  0  0  3  0  0  0  0  0  0
  181.3680  173.9370  135.3280 O   0  0  0  0  0  1  0  0  0  0  0  0
  182.5600  173.1350  137.2090 C   0  0  0  0  0  2  0  0  0  0  0  0
  183.8390  173.4800  136.7770 O   0  0  0  0  0  0  0  0  0  0  0  0
  184.6930  172.6340  137.4840 C   0  0  0  0  0  1  0  0  0  0  0  0
  183.0840  175.5890  137.8480 O   0  0  0  0  0  0  0  0  0  0  0  0
  182.5130  175.9170  139.0840 C   0  0  0  0  0  2  0  0  0  0  0  0
  181.6920  177.1980  138.9640 C   0  0  1  0  0  3  0  0  0  0  0  0
  180.0490  175.9550  140.1680 O   0  0  0  0  0  1  0  0  0  0  0  0
  180.3900  177.0710  139.6840 C   0  0  0  0  0  0  0  0  0  0  0  0
  179.5420  178.1630  139.8200 O   0  0  0  0  0  0  0  0  0  0  0  0
  182.4810  178.3780  139.5070 C   0  0  0  0  0  2  0  0  0  0  0  0
  182.8320  179.3390  138.3850 C   0  0  0  0  0  2  0  0  0  0  0  0
  182.2450  180.7160  138.6480 C   0  0  0  0  0  2  0  0  0  0  0  0
  180.9160  180.8770  137.9400 C   0  0  0  0  0  1  0  0  0  0  0  0
  189.9730  176.3550  138.2960 C   0  0  0  0  0  2  0  0  0  0  0  0
  189.8210  176.6520  139.7860 C   0  0  0  0  0  2  0  0  0  0  0  0
  191.1790  176.7880  140.4500 C   0  0  0  0  0  2  0  0  0  0  0  0
  191.0580  177.5870  141.7430 C   0  0  0  0  0  2  0  0  0  0  0  0
  190.4340  176.7630  142.8720 C   0  0  2  0  0  0  0  0  0  0  0  0
  187.9450  176.2110  144.6580 O   0  0  0  0  0  1  0  0  0  0  0  0
  188.4710  177.1080  143.7180 C   0  0  2  0  0  0  0  0  0  0  0  0
  189.0080  176.3620  142.5040 C   0  0  0  0  0  2  0  0  0  0  0  0
  189.9020  177.5220  144.1020 C   0  0  2  0  0  3  0  0  0  0  0  0
  187.5060  178.2360  143.2990 C   0  0  1  0  0  3  0  0  0  0  0  0
  186.3480  177.7150  142.4670 C   0  0  2  0  0  3  0  0  0  0  0  0
  185.8580  178.9940  141.2590 S   0  0  0  0  0  1  0  0  0  0  0  0
  186.1430  178.0840  143.9460 C   0  0  2  0  0  3  0  0  0  0  0  0
  185.5430  179.4580  144.2050 C   0  0  0  0  0  2  0  0  0  0  0  0
  184.2720  178.6290  146.0370 O   0  0  0  0  0  1  0  0  0  0  0  0
  184.1660  179.2920  144.8170 C   0  0  0  0  0  2  0  0  0  0  0  0
  190.1610  179.5860  145.2780 O   0  0  0  0  0  1  0  0  0  0  0  0
  190.4700  179.7430  143.0180 O   0  0  0  0  0  0  0  0  0  0  0  0
  190.1820  179.0060  144.1630 C   0  0  0  0  0  0  0  0  0  0  0  0
  191.2910  175.5430  143.2370 C   0  0  0  0  0  2  0  0  0  0  0  0
  191.1160  175.1770  144.5770 O   0  0  0  0  0  0  0  0  0  0  0  0
  192.0500  175.9410  145.2870 C   0  0  0  0  0  2  0  0  0  0  0  0
  192.4020  175.2510  146.6010 C   0  0  0  0  0  2  0  0  0  0  0  0
  190.0830  177.6410  147.7970 C   0  0  0  0  0  2  0  0  0  0  0  0
  191.6670  175.8630  147.7000 N   0  0  0  0  0  0  0  0  0  0  0  0
  191.4710  177.2620  147.3570 C   0  0  0  0  0  2  0  0  0  0  0  0
  190.3380  175.2560  147.7180 C   0  0  0  0  0  2  0  0  0  0  0  0
  189.2890  176.3620  147.7090 C   0  0  0  0  0  2  0  0  0  0  0  0
  2  9  1  0  0  0  0
  2  8  1  0  0  0  0
  3 10  1  0  0  0  0
  3  5  2  0  0  0  0
  4 32  1  6  0  0  0
  5  2  2  0  0  0  0
  6 10  1  0  0  0  0
  7  9  1  0  0  0  0
  9  4  1  0  0  0  0
  9  1  1  0  0  0  0
 10 11  2  0  0  0  0
 11  4  1  0  0  0  0
 12 13  1  0  0  0  0
 12  3  1  0  0  0  0
 15 14  1  1  0  0  0
 15 13  1  0  0  0  0
 15 16  1  0  0  0  0
 16 22  1  1  0  0  0
 17 18  1  6  0  0  0
 17 16  1  0  0  0  0
 17 19  1  0  0  0  0
 20 19  1  0  0  0  0
 20 21  1  0  0  0  0
 22 23  1  0  0  0  0
 24 23  1  1  0  0  0
 24 28  1  0  0  0  0
 24 26  1  0  0  0  0
 26 27  2  0  0  0  0
 26 25  1  0  0  0  0
 29 30  1  0  0  0  0
 29 28  1  0  0  0  0
 31 30  1  0  0  0  0
 32 33  1  0  0  0  0
 33 34  1  0  0  0  0
 34 35  1  0  0  0  0
 36 35  1  6  0  0  0
 36 51  1  0  0  0  0
 36 40  1  0  0  0  0
 38 40  1  0  0  0  0
 38 37  1  1  0  0  0
 39 36  1  0  0  0  0
 39 38  1  0  0  0  0
 40 50  1  6  0  0  0
 41 38  1  1  0  0  0
 41 44  1  0  0  0  0
 42 43  1  6  0  0  0
 42 41  1  0  0  0  0
 42 44  1  0  0  0  0
 44 45  1  6  0  0  0
 45 47  1  0  0  0  0
 47 46  1  0  0  0  0
 49 50  2  0  0  0  0
 50 48  1  0  0  0  0
 51 52  1  0  0  0  0
 52 53  1  0  0  0  0
 53 54  1  0  0  0  0
 54 56  1  0  0  0  0
 56 58  1  0  0  0  0
 57 56  1  0  0  0  0
 57 55  1  0  0  0  0
 59 58  1  0  0  0  0
 59 55  1  0  0  0  0
M  END
>  <MODEL>
7

>  <REMARK>
 VINA RESULT:      -3.1      3.339      6.610
  Name = 
  28 active torsions:
  status: ('A' for Active; 'I' for Inactive)
    1  A    between atoms: C_5  and  C_19
    2  A    between atoms: C_6  and  C_10
    3  A    between atoms: C_7  and  C_26
    4  A    between atoms: C_7  and  C_42
    5  A    between atoms: C_9  and  C_13
    6  A    between atoms: C_9  and  C_49
    7  A    between atoms: C_10  and  C_32
    8  A    between atoms: C_12  and  C_38
    9  A    between atoms: C_12  and  C_52
   10  A    between atoms: C_13  and  C_47
   11  A    between atoms: N_14  and  C_46
   12  A    between atoms: O_16  and  C_20
   13  A    between atoms: C_19  and  C_41
   14  A    between atoms: C_20  and  C_24
   15  A    between atoms: C_21  and  C_25
   16  A    between atoms: C_21  and  C_26
   17  A    between atoms: C_21  and  C_56
   18  A    between atoms: C_24  and  C_35
   19  A    between atoms: C_27  and  C_44
   20  A    between atoms: C_28  and  C_46
   21  A    between atoms: C_28  and  O_57
   22  A    between atoms: C_32  and  C_49
   23  A    between atoms: C_35  and  O_37
   24  A    between atoms: C_35  and  C_51
   25  A    between atoms: O_37  and  C_56
   26  A    between atoms: C_41  and  C_51
   27  A    between atoms: C_47  and  O_57
   28  A    between atoms: C_58  and  C_59
                            x       y       z     vdW  Elec       q    Type
                         _______ _______ _______ _____ _____    ______ ____

>  <TORSDO>
F 28

$$$$
=
 OpenBabel11062416103D

 59 62  0  0  1  0  0  0  0  0999 V2000
  190.1330  177.4820  143.5340 F   0  0  0  0  0  0  0  0  0  0  0  0
  191.3340  177.0900  141.5500 C   0  0  0  0  0  0  0  0  0  0  0  0
  190.7500  177.0990  139.0780 C   0  0  0  0  0  0  0  0  0  0  0  0
  188.9140  177.8480  141.4820 C   0  0  1  0  0  3  0  0  0  0  0  0
  191.2720  177.0890  140.2610 C   0  0  0  0  0  0  0  0  0  0  0  0
  188.4530  176.5730  137.5550 Cl  0  0  0  0  0  0  0  0  0  0  0  0
  189.5950  175.6810  142.2940 F   0  0  0  0  0  0  0  0  0  0  0  0
  192.4570  177.4950  142.1950 F   0  0  0  0  0  0  0  0  0  0  0  0
  189.9930  177.0070  142.2400 C   0  0  0  0  0  0  0  0  0  0  0  0
  189.2610  177.0590  139.0370 C   0  0  0  0  0  0  0  0  0  0  0  0
  188.4740  177.3400  140.1040 C   0  0  0  0  0  3  0  0  0  0  0  0
  191.5930  176.9290  137.8590 C   0  0  0  0  0  2  0  0  0  0  0  0
  192.1090  175.4990  137.7500 C   0  0  0  0  0  2  0  0  0  0  0  0
  190.6730  173.5550  137.6230 O   0  0  0  0  0  1  0  0  0  0  0  0
  191.1960  174.6210  136.8900 C   0  0  2  0  0  3  0  0  0  0  0  0
  191.8440  174.1220  135.5900 C   0  0  1  0  0  3  0  0  0  0  0  0
  192.1700  175.2740  134.6340 C   0  0  1  0  0  3  0  0  0  0  0  0
  191.4920  176.4200  135.0410 O   0  0  0  0  0  1  0  0  0  0  0  0
  193.6600  175.5720  134.6110 C   0  0  0  0  0  2  0  0  0  0  0  0
  193.8830  176.9040  134.9510 O   0  0  0  0  0  0  0  0  0  0  0  0
  195.1230  176.9050  135.5910 C   0  0  0  0  0  1  0  0  0  0  0  0
  193.0060  173.3760  135.8500 O   0  0  0  0  0  0  0  0  0  0  0  0
  193.5070  173.8700  137.0590 C   0  0  0  0  0  2  0  0  0  0  0  0
  194.6270  172.9700  137.5750 C   0  0  1  0  0  3  0  0  0  0  0  0
  195.6770  171.7180  135.8350 O   0  0  0  0  0  0  0  0  0  0  0  0
  194.7760  171.7550  136.7200 C   0  0  0  0  0  0  0  0  0  0  0  0
  193.9290  170.6650  136.8780 O   0  0  0  0  0  1  0  0  0  0  0  0
  195.9360  173.7400  137.6280 C   0  0  0  0  0  2  0  0  0  0  0  0
  196.3680  173.9480  139.0690 C   0  0  0  0  0  2  0  0  0  0  0  0
  197.6860  174.7020  139.1360 C   0  0  0  0  0  2  0  0  0  0  0  0
  198.2980  174.8350  137.7570 C   0  0  0  0  0  1  0  0  0  0  0  0
  187.7140  178.2040  142.3620 C   0  0  0  0  0  2  0  0  0  0  0  0
  186.7040  179.1190  141.6730 C   0  0  0  0  0  2  0  0  0  0  0  0
  185.6980  178.3100  140.8760 C   0  0  0  0  0  2  0  0  0  0  0  0
  184.6510  177.7040  141.8040 C   0  0  0  0  0  2  0  0  0  0  0  0
  183.6530  178.7510  142.3070 C   0  0  2  0  0  0  0  0  0  0  0  0
  180.7290  179.8180  142.2890 O   0  0  0  0  0  1  0  0  0  0  0  0
  181.5910  178.9050  141.6650 C   0  0  2  0  0  0  0  0  0  0  0  0
  182.3410  178.0790  142.7020 C   0  0  0  0  0  2  0  0  0  0  0  0
  182.9050  179.5900  141.2550 C   0  0  2  0  0  3  0  0  0  0  0  0
  180.9150  178.0020  140.6130 C   0  0  1  0  0  3  0  0  0  0  0  0
  179.9160  177.0450  141.2400 C   0  0  2  0  0  3  0  0  0  0  0  0
  179.9000  175.4890  140.2850 S   0  0  0  0  0  1  0  0  0  0  0  0
  179.4320  178.2950  140.4850 C   0  0  2  0  0  3  0  0  0  0  0  0
  178.9870  178.0640  139.0480 C   0  0  0  0  0  2  0  0  0  0  0  0
  179.6270  180.2040  138.2300 O   0  0  0  0  0  1  0  0  0  0  0  0
  179.8940  178.8420  138.1160 C   0  0  0  0  0  2  0  0  0  0  0  0
  184.0870  180.2840  139.2970 O   0  0  0  0  0  1  0  0  0  0  0  0
  182.9200  178.3330  139.0520 O   0  0  0  0  0  0  0  0  0  0  0  0
  183.3330  179.4220  139.8150 C   0  0  0  0  0  0  0  0  0  0  0  0
  184.2290  179.5910  143.4540 C   0  0  0  0  0  2  0  0  0  0  0  0
  183.7430  179.1630  144.6960 O   0  0  0  0  0  0  0  0  0  0  0  0
  184.8110  179.3360  145.5840 C   0  0  0  0  0  2  0  0  0  0  0  0
  185.9060  178.3140  145.2940 C   0  0  0  0  0  2  0  0  0  0  0  0
  187.7830  177.8070  148.2510 C   0  0  0  0  0  2  0  0  0  0  0  0
  187.0780  178.5910  146.1130 N   0  0  0  0  0  0  0  0  0  0  0  0
  186.6650  178.4830  147.5030 C   0  0  0  0  0  2  0  0  0  0  0  0
  188.0300  177.5070  145.8830 C   0  0  0  0  0  2  0  0  0  0  0  0
  188.4540  176.9270  147.2270 C   0  0  0  0  0  2  0  0  0  0  0  0
  2  8  1  0  0  0  0
  2  9  1  0  0  0  0
  3  5  2  0  0  0  0
  4  9  1  0  0  0  0
  4 32  1  1  0  0  0
  5  2  2  0  0  0  0
  6 10  1  0  0  0  0
  9  7  1  0  0  0  0
  9  1  1  0  0  0  0
 10  3  1  0  0  0  0
 10 11  2  0  0  0  0
 11  4  1  0  0  0  0
 12  3  1  0  0  0  0
 13 12  1  0  0  0  0
 15 14  1  1  0  0  0
 15 13  1  0  0  0  0
 16 22  1  1  0  0  0
 16 15  1  0  0  0  0
 17 18  1  1  0  0  0
 17 16  1  0  0  0  0
 19 17  1  0  0  0  0
 19 20  1  0  0  0  0
 20 21  1  0  0  0  0
 22 23  1  0  0  0  0
 24 23  1  6  0  0  0
 24 28  1  0  0  0  0
 25 26  2  0  0  0  0
 26 27  1  0  0  0  0
 26 24  1  0  0  0  0
 28 29  1  0  0  0  0
 29 30  1  0  0  0  0
 31 30  1  0  0  0  0
 33 32  1  0  0  0  0
 34 33  1  0  0  0  0
 34 35  1  0  0  0  0
 36 35  1  6  0  0  0
 36 39  1  0  0  0  0
 36 51  1  0  0  0  0
 38 37  1  1  0  0  0
 38 39  1  0  0  0  0
 40 50  1  6  0  0  0
 40 38  1  0  0  0  0
 40 36  1  0  0  0  0
 41 42  1  0  0  0  0
 41 38  1  1  0  0  0
 42 43  1  6  0  0  0
 44 45  1  6  0  0  0
 44 41  1  0  0  0  0
 44 42  1  0  0  0  0
 47 46  1  0  0  0  0
 47 45  1  0  0  0  0
 48 50  1  0  0  0  0
 49 50  2  0  0  0  0
 51 52  1  0  0  0  0
 52 53  1  0  0  0  0
 54 53  1  0  0  0  0
 54 56  1  0  0  0  0
 56 57  1  0  0  0  0
 57 55  1  0  0  0  0
 58 56  1  0  0  0  0
 58 59  1  0  0  0  0
 59 55  1  0  0  0  0
M  END
>  <MODEL>
8

>  <REMARK>
 VINA RESULT:      -3.1      4.471     10.792
  Name = 
  28 active torsions:
  status: ('A' for Active; 'I' for Inactive)
    1  A    between atoms: C_5  and  C_19
    2  A    between atoms: C_6  and  C_10
    3  A    between atoms: C_7  and  C_26
    4  A    between atoms: C_7  and  C_42
    5  A    between atoms: C_9  and  C_13
    6  A    between atoms: C_9  and  C_49
    7  A    between atoms: C_10  and  C_32
    8  A    between atoms: C_12  and  C_38
    9  A    between atoms: C_12  and  C_52
   10  A    between atoms: C_13  and  C_47
   11  A    between atoms: N_14  and  C_46
   12  A    between atoms: O_16  and  C_20
   13  A    between atoms: C_19  and  C_41
   14  A    between atoms: C_20  and  C_24
   15  A    between atoms: C_21  and  C_25
   16  A    between atoms: C_21  and  C_26
   17  A    between atoms: C_21  and  C_56
   18  A    between atoms: C_24  and  C_35
   19  A    between atoms: C_27  and  C_44
   20  A    between atoms: C_28  and  C_46
   21  A    between atoms: C_28  and  O_57
   22  A    between atoms: C_32  and  C_49
   23  A    between atoms: C_35  and  O_37
   24  A    between atoms: C_35  and  C_51
   25  A    between atoms: O_37  and  C_56
   26  A    between atoms: C_41  and  C_51
   27  A    between atoms: C_47  and  O_57
   28  A    between atoms: C_58  and  C_59
                            x       y       z     vdW  Elec       q    Type
                         _______ _______ _______ _____ _____    ______ ____

>  <TORSDO>
F 28

$$$$
=
 OpenBabel11062416103D

 59 62  0  0  1  0  0  0  0  0999 V2000
  188.9140  178.8460  139.7360 F   0  0  0  0  0  0  0  0  0  0  0  0
  187.3530  177.9620  138.2140 C   0  0  0  0  0  0  0  0  0  0  0  0
  187.4250  176.1560  136.4300 C   0  0  0  0  0  0  0  0  0  0  0  0
  189.6780  176.9690  138.4230 C   0  0  1  0  0  3  0  0  0  0  0  0
  187.1540  177.0650  137.3080 C   0  0  0  0  0  0  0  0  0  0  0  0
  189.3860  175.0880  134.7300 Cl  0  0  0  0  0  0  0  0  0  0  0  0
  189.2600  179.1720  137.5340 F   0  0  0  0  0  0  0  0  0  0  0  0
  186.3690  178.3100  139.0810 F   0  0  0  0  0  0  0  0  0  0  0  0
  188.8080  178.2670  138.4810 C   0  0  0  0  0  0  0  0  0  0  0  0
  188.8750  175.9030  136.2000 C   0  0  0  0  0  0  0  0  0  0  0  0
  189.8500  176.3040  137.0520 C   0  0  0  0  0  3  0  0  0  0  0  0
  186.3600  175.5800  135.5580 C   0  0  0  0  0  2  0  0  0  0  0  0
  185.1980  175.0560  136.3930 C   0  0  0  0  0  2  0  0  0  0  0  0
  183.6400  176.5990  135.3700 O   0  0  0  0  0  1  0  0  0  0  0  0
  183.8500  175.2590  135.6970 C   0  0  2  0  0  3  0  0  0  0  0  0
  182.6490  174.6910  136.4680 C   0  0  1  0  0  3  0  0  0  0  0  0
  182.8160  173.1970  136.7670 C   0  0  1  0  0  3  0  0  0  0  0  0
  181.5610  172.6110  136.9110 O   0  0  0  0  0  1  0  0  0  0  0  0
  183.5600  172.4870  135.6480 C   0  0  0  0  0  2  0  0  0  0  0  0
  183.7520  171.1480  135.9820 O   0  0  0  0  0  0  0  0  0  0  0  0
  182.7420  170.4650  135.3020 C   0  0  0  0  0  1  0  0  0  0  0  0
  182.4300  175.3940  137.6640 O   0  0  0  0  0  0  0  0  0  0  0  0
  181.5350  176.4190  137.3390 C   0  0  0  0  0  2  0  0  0  0  0  0
  181.4290  177.4140  138.4920 C   0  0  1  0  0  3  0  0  0  0  0  0
  183.1780  177.3320  140.1130 O   0  0  0  0  0  1  0  0  0  0  0  0
  182.7800  177.7890  139.0050 C   0  0  0  0  0  0  0  0  0  0  0  0
  183.6050  178.6430  138.2830 O   0  0  0  0  0  0  0  0  0  0  0  0
  180.6730  178.6540  138.0460 C   0  0  0  0  0  2  0  0  0  0  0  0
  181.5740  179.5500  137.2130 C   0  0  0  0  0  2  0  0  0  0  0  0
  180.9690  179.8000  135.8410 C   0  0  0  0  0  2  0  0  0  0  0  0
  180.5910  181.2580  135.6790 C   0  0  0  0  0  1  0  0  0  0  0  0
  191.0170  177.1190  139.1490 C   0  0  0  0  0  2  0  0  0  0  0  0
  190.9630  176.7040  140.6170 C   0  0  0  0  0  2  0  0  0  0  0  0
  191.6060  177.7580  141.5000 C   0  0  0  0  0  2  0  0  0  0  0  0
  190.7460  178.0160  142.7310 C   0  0  0  0  0  2  0  0  0  0  0  0
  189.9050  176.7950  143.1110 C   0  0  2  0  0  0  0  0  0  0  0  0
  187.0750  175.6140  143.6480 O   0  0  0  0  0  1  0  0  0  0  0  0
  187.7640  176.8160  143.4330 C   0  0  2  0  0  0  0  0  0  0  0  0
  188.6730  176.7050  142.2160 C   0  0  0  0  0  2  0  0  0  0  0  0
  188.9960  176.9090  144.3490 C   0  0  2  0  0  3  0  0  0  0  0  0
  186.8630  178.0640  143.3450 C   0  0  1  0  0  3  0  0  0  0  0  0
  185.6370  177.8230  142.4820 C   0  0  2  0  0  3  0  0  0  0  0  0
  185.1860  179.3780  141.6370 S   0  0  0  0  0  1  0  0  0  0  0  0
  185.5200  177.8420  144.0150 C   0  0  2  0  0  3  0  0  0  0  0  0
  185.0280  179.1470  144.6220 C   0  0  0  0  0  2  0  0  0  0  0  0
  182.7220  179.5660  144.2160 O   0  0  0  0  0  1  0  0  0  0  0  0
  183.6040  178.9640  145.1100 C   0  0  0  0  0  2  0  0  0  0  0  0
  188.4600  178.2680  146.2400 O   0  0  0  0  0  1  0  0  0  0  0  0
  189.9710  179.2060  144.8030 O   0  0  0  0  0  0  0  0  0  0  0  0
  189.1260  178.1650  145.1790 C   0  0  0  0  0  0  0  0  0  0  0  0
  190.7260  175.4980  143.0800 C   0  0  0  0  0  2  0  0  0  0  0  0
  190.8840  174.9610  144.3640 O   0  0  0  0  0  0  0  0  0  0  0  0
  192.0480  175.5560  144.8650 C   0  0  0  0  0  2  0  0  0  0  0  0
  191.6890  176.6810  145.8300 C   0  0  0  0  0  2  0  0  0  0  0  0
  193.0010  175.6960  148.9650 C   0  0  0  0  0  2  0  0  0  0  0  0
  191.4980  176.1470  147.1720 N   0  0  0  0  0  0  0  0  0  0  0  0
  192.7050  175.4130  147.5170 C   0  0  0  0  0  2  0  0  0  0  0  0
  191.4360  177.2870  148.0840 C   0  0  0  0  0  2  0  0  0  0  0  0
  192.4370  177.0720  149.2120 C   0  0  0  0  0  2  0  0  0  0  0  0
  2  9  1  0  0  0  0
  2  8  1  0  0  0  0
  3  5  2  0  0  0  0
  4  9  1  0  0  0  0
  4 32  1  6  0  0  0
  5  2  2  0  0  0  0
  6 10  1  0  0  0  0
  7  9  1  0  0  0  0
  9  1  1  0  0  0  0
 10  3  1  0  0  0  0
 10 11  2  0  0  0  0
 11  4  1  0  0  0  0
 12 13  1  0  0  0  0
 12  3  1  0  0  0  0
 15 14  1  1  0  0  0
 15 13  1  0  0  0  0
 15 16  1  0  0  0  0
 16 17  1  0  0  0  0
 16 22  1  1  0  0  0
 17 18  1  6  0  0  0
 19 20  1  0  0  0  0
 19 17  1  0  0  0  0
 21 20  1  0  0  0  0
 23 22  1  0  0  0  0
 24 23  1  6  0  0  0
 24 26  1  0  0  0  0
 26 25  1  0  0  0  0
 27 26  2  0  0  0  0
 28 24  1  0  0  0  0
 29 28  1  0  0  0  0
 30 29  1  0  0  0  0
 31 30  1  0  0  0  0
 32 33  1  0  0  0  0
 33 34  1  0  0  0  0
 34 35  1  0  0  0  0
 36 35  1  6  0  0  0
 36 40  1  0  0  0  0
 38 37  1  1  0  0  0
 38 40  1  0  0  0  0
 39 36  1  0  0  0  0
 39 38  1  0  0  0  0
 40 50  1  6  0  0  0
 41 38  1  1  0  0  0
 41 44  1  0  0  0  0
 42 43  1  6  0  0  0
 42 41  1  0  0  0  0
 42 44  1  0  0  0  0
 44 45  1  6  0  0  0
 45 47  1  0  0  0  0
 46 47  1  0  0  0  0
 49 50  2  0  0  0  0
 50 48  1  0  0  0  0
 51 36  1  0  0  0  0
 51 52  1  0  0  0  0
 52 53  1  0  0  0  0
 53 54  1  0  0  0  0
 54 56  1  0  0  0  0
 55 59  1  0  0  0  0
 56 57  1  0  0  0  0
 56 58  1  0  0  0  0
 57 55  1  0  0  0  0
 58 59  1  0  0  0  0
M  END
>  <MODEL>
9

>  <REMARK>
 VINA RESULT:      -2.9      3.277      6.798
  Name = 
  28 active torsions:
  status: ('A' for Active; 'I' for Inactive)
    1  A    between atoms: C_5  and  C_19
    2  A    between atoms: C_6  and  C_10
    3  A    between atoms: C_7  and  C_26
    4  A    between atoms: C_7  and  C_42
    5  A    between atoms: C_9  and  C_13
    6  A    between atoms: C_9  and  C_49
    7  A    between atoms: C_10  and  C_32
    8  A    between atoms: C_12  and  C_38
    9  A    between atoms: C_12  and  C_52
   10  A    between atoms: C_13  and  C_47
   11  A    between atoms: N_14  and  C_46
   12  A    between atoms: O_16  and  C_20
   13  A    between atoms: C_19  and  C_41
   14  A    between atoms: C_20  and  C_24
   15  A    between atoms: C_21  and  C_25
   16  A    between atoms: C_21  and  C_26
   17  A    between atoms: C_21  and  C_56
   18  A    between atoms: C_24  and  C_35
   19  A    between atoms: C_27  and  C_44
   20  A    between atoms: C_28  and  C_46
   21  A    between atoms: C_28  and  O_57
   22  A    between atoms: C_32  and  C_49
   23  A    between atoms: C_35  and  O_37
   24  A    between atoms: C_35  and  C_51
   25  A    between atoms: O_37  and  C_56
   26  A    between atoms: C_41  and  C_51
   27  A    between atoms: C_47  and  O_57
   28  A    between atoms: C_58  and  C_59
                            x       y       z     vdW  Elec       q    Type
                         _______ _______ _______ _____ _____    ______ ____

>  <TORSDO>
F 28

$$$$
