=
 OpenBabel11062413163D

 42 46  0  0  1  0  0  0  0  0999 V2000
  183.9910  175.5380  136.3920 C   0  0  0  0  0  2  0  0  0  0  0  0
  188.2910  178.5160  140.2070 C   0  0  0  0  0  3  0  0  0  0  0  0
  181.9280  177.6210  136.7680 C   0  0  0  0  0  2  0  0  0  0  0  0
  187.8920  175.9090  137.4450 C   0  0  0  0  0  0  0  0  0  0  0  0
  182.7690  179.3140  138.4490 C   0  0  2  0  0  3  0  0  0  0  0  0
  188.1370  178.5370  141.6000 C   0  0  0  0  0  0  0  0  0  0  0  0
  187.4490  178.3180  137.8860 C   0  0  0  0  0  2  0  0  0  0  0  0
  186.6920  178.3630  143.5270 O   0  0  0  0  0  1  0  0  0  0  0  0
  183.4780  172.8040  136.2850 C   0  0  0  0  0  2  0  0  0  0  0  0
  186.8640  178.3380  142.1470 C   0  0  0  0  0  0  0  0  0  0  0  0
  187.2010  178.2860  139.3630 C   0  0  0  0  0  0  0  0  0  0  0  0
  188.7230  174.6630  135.6290 O   0  0  0  0  0  1  0  0  0  0  0  0
  182.2950  173.6650  136.7550 C   0  0  2  0  0  3  0  0  0  0  0  0
  181.8970  178.0630  138.2230 C   0  0  1  0  0  3  0  0  0  0  0  0
  180.4630  178.3170  138.6810 C   0  0  0  0  0  2  0  0  0  0  0  0
  185.1580  174.6300  136.7990 C   0  0  1  0  0  3  0  0  0  0  0  0
  182.8030  175.2400  138.5780 C   0  0  0  0  0  1  0  0  0  0  0  0
  185.9200  178.0860  139.9180 C   0  0  0  0  0  0  0  0  0  0  0  0
  180.3910  178.6640  140.1740 C   0  0  0  0  0  2  0  0  0  0  0  0
  181.1140  173.4870  135.8030 C   0  0  0  0  0  2  0  0  0  0  0  0
  181.0670  175.9190  135.1570 C   0  0  2  0  0  3  0  0  0  0  0  0
  184.7550  173.1640  137.0400 C   0  0  0  0  0  2  0  0  0  0  0  0
  186.2430  173.8720  134.6220 C   0  0  0  0  0  1  0  0  0  0  0  0
  186.3280  174.8080  135.8250 C   0  0  2  0  0  3  0  0  0  0  0  0
  184.5060  177.9030  141.8810 O   0  0  0  0  0  1  0  0  0  0  0  0
  184.2690  179.0470  138.2990 C   0  0  0  0  0  2  0  0  0  0  0  0
  182.6590  175.1510  137.0630 C   0  0  1  0  0  0  0  0  0  0  0  0
  187.6750  174.7240  136.5510 C   0  0  2  0  0  3  0  0  0  0  0  0
  181.2210  174.4790  134.6580 C   0  0  0  0  0  2  0  0  0  0  0  0
  182.4730  180.0360  139.7730 C   0  0  0  0  0  2  0  0  0  0  0  0
  188.7970  175.8620  138.3210 O   0  0  0  0  0  0  0  0  0  0  0  0
  187.1360  177.0750  137.2650 O   0  0  0  0  0  0  0  0  0  0  0  0
  185.7600  178.1110  141.3130 C   0  0  0  0  0  0  0  0  0  0  0  0
  184.7250  177.8060  139.0580 C   0  0  0  0  0  2  0  0  0  0  0  0
  181.7220  179.1470  140.7620 C   0  0  0  0  0  2  0  0  0  0  0  0
  181.5440  176.1410  136.6070 C   0  0  1  0  0  3  0  0  0  0  0  0
  178.9300  176.1100  136.2110 O   0  0  0  0  0  1  0  0  0  0  0  0
  179.6200  176.3650  135.0250 C   0  0  0  0  0  2  0  0  0  0  0  0
  189.2160  178.7710  142.4700 O   0  0  0  0  0  0  0  0  0  0  0  0
  190.2230  177.8580  142.8170 C   0  0  0  0  0  0  0  0  0  0  0  0
  190.0410  176.4510  142.6910 N   0  0  0  0  0  1  0  0  0  0  0  0
  191.3090  178.2940  143.2770 O   0  0  0  0  0  0  0  0  0  0  0  0
  1 27  1  0  0  0  0
  2  6  1  0  0  0  0
  4 31  2  0  0  0  0
  5 26  1  1  0  0  0
  5 30  1  0  0  0  0
  6 10  2  0  0  0  0
  6 39  1  0  0  0  0
  7 11  1  0  0  0  0
  9 13  1  0  0  0  0
  9 22  1  0  0  0  0
 10  8  1  0  0  0  0
 11 18  1  0  0  0  0
 11  2  2  0  0  0  0
 13 20  1  6  0  0  0
 13 27  1  0  0  0  0
 14  3  1  6  0  0  0
 14  5  1  0  0  0  0
 14 15  1  0  0  0  0
 15 19  1  0  0  0  0
 16  1  1  6  0  0  0
 16 22  1  0  0  0  0
 18 33  2  0  0  0  0
 19 35  1  0  0  0  0
 21 38  1  1  0  0  0
 21 36  1  0  0  0  0
 24 23  1  6  0  0  0
 24 28  1  0  0  0  0
 24 16  1  0  0  0  0
 26 34  1  0  0  0  0
 27 17  1  1  0  0  0
 28 12  1  6  0  0  0
 28  4  1  0  0  0  0
 29 21  1  0  0  0  0
 29 20  1  0  0  0  0
 30 35  1  0  0  0  0
 32  4  1  0  0  0  0
 32  7  1  0  0  0  0
 33 25  1  0  0  0  0
 33 10  1  0  0  0  0
 34 18  1  0  0  0  0
 36  3  1  6  0  0  0
 36 27  1  0  0  0  0
 38 37  1  0  0  0  0
 39 40  1  0  0  0  0
 40 42  2  0  0  0  0
 41 40  1  0  0  0  0
M  END
>  <MODEL>
1

>  <REMARK>
 VINA RESULT:      -4.8      0.000      0.000
  Name = 
  3 active torsions:
  status: ('A' for Active; 'I' for Inactive)
    1  A    between atoms: C_6  and  O_33
    2  A    between atoms: C_9  and  O_33
    3  A    between atoms: C_23  and  C_42
                            x       y       z     vdW  Elec       q    Type
                         _______ _______ _______ _____ _____    ______ ____

>  <TORSDO>
F 3

$$$$
=
 OpenBabel11062413163D

 42 46  0  0  1  0  0  0  0  0999 V2000
  183.8740  177.5780  138.3390 C   0  0  0  0  0  2  0  0  0  0  0  0
  189.4340  178.0040  141.6280 C   0  0  0  0  0  3  0  0  0  0  0  0
  182.3950  179.2870  140.2440 C   0  0  0  0  0  2  0  0  0  0  0  0
  187.9100  177.1710  138.2270 C   0  0  0  0  0  0  0  0  0  0  0  0
  183.9130  179.8550  142.1860 C   0  0  2  0  0  3  0  0  0  0  0  0
  189.6160  177.3260  142.8410 C   0  0  0  0  0  0  0  0  0  0  0  0
  188.0520  179.0460  139.8560 C   0  0  0  0  0  2  0  0  0  0  0  0
  188.6540  176.2770  144.7920 O   0  0  0  0  0  1  0  0  0  0  0  0
  182.8350  175.3010  137.1190 C   0  0  0  0  0  2  0  0  0  0  0  0
  188.4920  176.9430  143.5820 C   0  0  0  0  0  0  0  0  0  0  0  0
  188.1550  178.2860  141.1430 C   0  0  0  0  0  0  0  0  0  0  0  0
  188.0400  176.9730  135.8850 O   0  0  0  0  0  1  0  0  0  0  0  0
  181.9830  175.8660  138.2660 C   0  0  2  0  0  3  0  0  0  0  0  0
  182.7890  178.9350  141.6700 C   0  0  1  0  0  3  0  0  0  0  0  0
  181.5770  178.9950  142.5960 C   0  0  0  0  0  2  0  0  0  0  0  0
  184.9070  176.5320  137.9030 C   0  0  1  0  0  3  0  0  0  0  0  0
  183.1930  176.2780  140.3690 C   0  0  0  0  0  1  0  0  0  0  0  0
  187.0240  177.8980  141.8920 C   0  0  0  0  0  0  0  0  0  0  0  0
  181.9230  178.5430  144.0220 C   0  0  0  0  0  2  0  0  0  0  0  0
  180.6010  176.2520  137.7430 C   0  0  0  0  0  2  0  0  0  0  0  0
  180.8720  178.6770  138.3620 C   0  0  2  0  0  3  0  0  0  0  0  0
  184.2980  175.1660  137.5350 C   0  0  0  0  0  2  0  0  0  0  0  0
  185.2890  176.9230  135.4140 C   0  0  0  0  0  1  0  0  0  0  0  0
  185.8300  177.1180  136.8290 C   0  0  2  0  0  3  0  0  0  0  0  0
  186.0980  176.8210  143.8580 O   0  0  0  0  0  1  0  0  0  0  0  0
  185.2570  179.6260  141.4890 C   0  0  0  0  0  2  0  0  0  0  0  0
  182.6860  176.9730  139.1110 C   0  0  1  0  0  0  0  0  0  0  0  0
  187.2670  176.6120  136.9920 C   0  0  2  0  0  3  0  0  0  0  0  0
  180.6260  177.6800  137.2250 C   0  0  0  0  0  2  0  0  0  0  0  0
  184.0780  179.8250  143.7130 C   0  0  0  0  0  2  0  0  0  0  0  0
  188.9680  176.6430  138.6630 O   0  0  0  0  0  0  0  0  0  0  0  0
  187.3710  178.3050  138.8490 O   0  0  0  0  0  0  0  0  0  0  0  0
  187.2020  177.2230  143.1110 C   0  0  0  0  0  0  0  0  0  0  0  0
  185.6310  178.1510  141.4010 C   0  0  0  0  0  2  0  0  0  0  0  0
  183.4220  178.5970  144.3410 C   0  0  0  0  0  2  0  0  0  0  0  0
  181.7070  178.1120  139.5290 C   0  0  1  0  0  3  0  0  0  0  0  0
  179.1160  178.4140  139.9620 O   0  0  0  0  0  1  0  0  0  0  0  0
  179.5470  179.2000  138.8920 C   0  0  0  0  0  2  0  0  0  0  0  0
  190.8920  177.0350  143.3530 O   0  0  0  0  0  0  0  0  0  0  0  0
  191.5660  177.7320  144.3670 C   0  0  0  0  0  0  0  0  0  0  0  0
  191.8040  177.1550  145.6480 N   0  0  0  0  0  1  0  0  0  0  0  0
  191.9470  178.9100  144.1470 O   0  0  0  0  0  0  0  0  0  0  0  0
  1 27  1  0  0  0  0
  2  6  1  0  0  0  0
  4 31  2  0  0  0  0
  4 32  1  0  0  0  0
  5 26  1  6  0  0  0
  5 30  1  0  0  0  0
  6 39  1  0  0  0  0
  6 10  2  0  0  0  0
  7 11  1  0  0  0  0
  9 22  1  0  0  0  0
 10  8  1  0  0  0  0
 11  2  2  0  0  0  0
 11 18  1  0  0  0  0
 13  9  1  6  0  0  0
 13 27  1  0  0  0  0
 14  3  1  6  0  0  0
 14  5  1  0  0  0  0
 14 15  1  0  0  0  0
 15 19  1  0  0  0  0
 16 22  1  6  0  0  0
 16  1  1  0  0  0  0
 18 33  2  0  0  0  0
 19 35  1  0  0  0  0
 20 13  1  0  0  0  0
 21 38  1  1  0  0  0
 21 36  1  0  0  0  0
 24 23  1  6  0  0  0
 24 28  1  0  0  0  0
 24 16  1  0  0  0  0
 27 36  1  0  0  0  0
 27 17  1  1  0  0  0
 28 12  1  6  0  0  0
 28  4  1  0  0  0  0
 29 20  1  0  0  0  0
 29 21  1  0  0  0  0
 30 35  1  0  0  0  0
 32  7  1  0  0  0  0
 33 10  1  0  0  0  0
 33 25  1  0  0  0  0
 34 26  1  0  0  0  0
 34 18  1  0  0  0  0
 36  3  1  6  0  0  0
 38 37  1  0  0  0  0
 39 40  1  0  0  0  0
 40 41  1  0  0  0  0
 42 40  2  0  0  0  0
M  END
>  <MODEL>
2

>  <REMARK>
 VINA RESULT:      -4.8      1.938      3.039
  Name = 
  3 active torsions:
  status: ('A' for Active; 'I' for Inactive)
    1  A    between atoms: C_6  and  O_33
    2  A    between atoms: C_9  and  O_33
    3  A    between atoms: C_23  and  C_42
                            x       y       z     vdW  Elec       q    Type
                         _______ _______ _______ _____ _____    ______ ____

>  <TORSDO>
F 3

$$$$
=
 OpenBabel11062413163D

 42 46  0  0  1  0  0  0  0  0999 V2000
  187.3720  178.4250  142.7370 C   0  0  0  0  0  2  0  0  0  0  0  0
  183.7160  177.9230  137.4180 C   0  0  0  0  0  3  0  0  0  0  0  0
  189.8890  178.7000  141.2130 C   0  0  0  0  0  2  0  0  0  0  0  0
  183.6480  178.7190  141.1520 C   0  0  0  0  0  0  0  0  0  0  0  0
  189.3910  178.4180  138.7490 C   0  0  2  0  0  3  0  0  0  0  0  0
  183.7210  176.7590  136.6370 C   0  0  0  0  0  0  0  0  0  0  0  0
  184.7070  179.5080  139.0430 C   0  0  0  0  0  2  0  0  0  0  0  0
  184.8460  174.7400  135.9380 O   0  0  0  0  0  1  0  0  0  0  0  0
  187.0960  176.9580  145.0870 C   0  0  0  0  0  2  0  0  0  0  0  0
  184.8210  175.8970  136.7110 C   0  0  0  0  0  0  0  0  0  0  0  0
  184.7780  178.2250  138.2740 C   0  0  0  0  0  0  0  0  0  0  0  0
  182.6940  179.7550  143.0380 O   0  0  0  0  0  1  0  0  0  0  0  0
  188.4180  176.7340  144.3370 C   0  0  2  0  0  3  0  0  0  0  0  0
  189.8900  177.7350  140.0370 C   0  0  1  0  0  3  0  0  0  0  0  0
  191.2810  177.1420  139.8260 C   0  0  0  0  0  2  0  0  0  0  0  0
  185.9590  177.9060  143.0300 C   0  0  1  0  0  3  0  0  0  0  0  0
  188.1890  176.1940  141.9450 C   0  0  0  0  0  1  0  0  0  0  0  0
  185.8840  177.3530  138.3460 C   0  0  0  0  0  0  0  0  0  0  0  0
  191.2910  176.0860  138.7120 C   0  0  0  0  0  2  0  0  0  0  0  0
  189.5930  177.1280  145.2280 C   0  0  0  0  0  2  0  0  0  0  0  0
  190.3960  178.9140  143.6480 C   0  0  2  0  0  3  0  0  0  0  0  0
  185.9010  176.8430  144.1430 C   0  0  0  0  0  2  0  0  0  0  0  0
  184.9390  179.5540  144.6840 C   0  0  0  0  0  1  0  0  0  0  0  0
  184.9970  179.0820  143.2330 C   0  0  2  0  0  3  0  0  0  0  0  0
  186.9730  175.3070  137.6280 O   0  0  0  0  0  1  0  0  0  0  0  0
  187.9010  178.7700  138.7840 C   0  0  0  0  0  2  0  0  0  0  0  0
  188.4610  177.3490  142.9030 C   0  0  1  0  0  0  0  0  0  0  0  0
  183.6120  178.7760  142.6510 C   0  0  2  0  0  3  0  0  0  0  0  0
  189.8940  178.6070  145.0620 C   0  0  0  0  0  2  0  0  0  0  0  0
  189.7380  177.6420  137.4680 C   0  0  0  0  0  2  0  0  0  0  0  0
  182.6790  178.2020  140.5330 O   0  0  0  0  0  0  0  0  0  0  0  0
  184.7180  179.2890  140.4510 O   0  0  0  0  0  0  0  0  0  0  0  0
  185.8960  176.1870  137.5620 C   0  0  0  0  0  0  0  0  0  0  0  0
  187.0340  177.6150  139.2700 C   0  0  0  0  0  2  0  0  0  0  0  0
  190.0970  176.1860  137.7550 C   0  0  0  0  0  2  0  0  0  0  0  0
  189.8520  177.9640  142.5620 C   0  0  1  0  0  3  0  0  0  0  0  0
  192.3740  177.6640  143.1600 O   0  0  0  0  0  1  0  0  0  0  0  0
  191.9170  178.9000  143.6200 C   0  0  0  0  0  2  0  0  0  0  0  0
  182.6680  176.4370  135.7650 O   0  0  0  0  0  0  0  0  0  0  0  0
  181.3260  176.2270  136.1160 C   0  0  0  0  0  0  0  0  0  0  0  0
  180.9080  175.0740  136.8410 N   0  0  0  0  0  1  0  0  0  0  0  0
  180.4630  177.0690  135.7580 O   0  0  0  0  0  0  0  0  0  0  0  0
  1 27  1  0  0  0  0
  2 11  1  0  0  0  0
  4 28  1  0  0  0  0
  5 30  1  6  0  0  0
  5 26  1  0  0  0  0
  5 14  1  0  0  0  0
  6 10  1  0  0  0  0
  6  2  2  0  0  0  0
  7 32  1  0  0  0  0
  8 10  1  0  0  0  0
 10 33  2  0  0  0  0
 11 18  2  0  0  0  0
 11  7  1  0  0  0  0
 13  9  1  1  0  0  0
 13 20  1  0  0  0  0
 14 15  1  6  0  0  0
 14  3  1  0  0  0  0
 16  1  1  1  0  0  0
 16 24  1  0  0  0  0
 16 22  1  0  0  0  0
 18 34  1  0  0  0  0
 19 15  1  0  0  0  0
 21 38  1  1  0  0  0
 21 29  1  0  0  0  0
 22  9  1  0  0  0  0
 24 23  1  1  0  0  0
 26 34  1  0  0  0  0
 27 17  1  6  0  0  0
 27 13  1  0  0  0  0
 28 12  1  6  0  0  0
 28 24  1  0  0  0  0
 29 20  1  0  0  0  0
 30 35  1  0  0  0  0
 31  4  2  0  0  0  0
 32  4  1  0  0  0  0
 33 25  1  0  0  0  0
 33 18  1  0  0  0  0
 35 19  1  0  0  0  0
 36  3  1  6  0  0  0
 36 27  1  0  0  0  0
 36 21  1  0  0  0  0
 37 38  1  0  0  0  0
 39 40  1  0  0  0  0
 39  6  1  0  0  0  0
 40 41  1  0  0  0  0
 42 40  2  0  0  0  0
M  END
>  <MODEL>
3

>  <REMARK>
 VINA RESULT:      -4.5      2.730      9.141
  Name = 
  3 active torsions:
  status: ('A' for Active; 'I' for Inactive)
    1  A    between atoms: C_6  and  O_33
    2  A    between atoms: C_9  and  O_33
    3  A    between atoms: C_23  and  C_42
                            x       y       z     vdW  Elec       q    Type
                         _______ _______ _______ _____ _____    ______ ____

>  <TORSDO>
F 3

$$$$
=
 OpenBabel11062413163D

 42 46  0  0  1  0  0  0  0  0999 V2000
  183.0900  177.6920  138.8570 C   0  0  0  0  0  2  0  0  0  0  0  0
  189.4800  177.9300  139.8740 C   0  0  0  0  0  3  0  0  0  0  0  0
  182.4610  179.3590  141.2160 C   0  0  0  0  0  2  0  0  0  0  0  0
  186.7900  177.2310  137.2550 C   0  0  0  0  0  0  0  0  0  0  0  0
  184.6010  179.8420  142.4740 C   0  0  2  0  0  3  0  0  0  0  0  0
  190.0790  177.2110  140.9170 C   0  0  0  0  0  0  0  0  0  0  0  0
  187.5700  179.0500  138.7630 C   0  0  0  0  0  2  0  0  0  0  0  0
  189.8770  176.1120  143.0580 O   0  0  0  0  0  1  0  0  0  0  0  0
  181.6180  175.4710  138.0510 C   0  0  0  0  0  2  0  0  0  0  0  0
  189.2970  176.8200  142.0100 C   0  0  0  0  0  0  0  0  0  0  0  0
  188.1200  178.2470  139.9020 C   0  0  0  0  0  0  0  0  0  0  0  0
  186.0430  177.1060  135.0260 O   0  0  0  0  0  1  0  0  0  0  0  0
  181.2620  176.0100  139.4450 C   0  0  2  0  0  3  0  0  0  0  0  0
  183.3440  178.9550  142.3870 C   0  0  1  0  0  3  0  0  0  0  0  0
  182.5600  179.0020  143.6960 C   0  0  0  0  0  2  0  0  0  0  0  0
  183.8640  176.6460  138.0460 C   0  0  1  0  0  3  0  0  0  0  0  0
  183.1730  176.3370  140.9630 C   0  0  0  0  0  1  0  0  0  0  0  0
  187.3340  177.8510  141.0050 C   0  0  0  0  0  0  0  0  0  0  0  0
  183.3950  178.5000  144.8820 C   0  0  0  0  0  2  0  0  0  0  0  0
  179.7960  176.4340  139.4780 C   0  0  0  0  0  2  0  0  0  0  0  0
  180.3370  178.8330  140.0130 C   0  0  2  0  0  3  0  0  0  0  0  0
  183.1280  175.3020  137.8950 C   0  0  0  0  0  2  0  0  0  0  0  0
  183.3120  177.1120  135.6020 C   0  0  0  0  0  1  0  0  0  0  0  0
  184.3410  177.2530  136.7220 C   0  0  2  0  0  3  0  0  0  0  0  0
  187.1710  176.7230  143.1470 O   0  0  0  0  0  1  0  0  0  0  0  0
  185.5880  179.6160  141.3250 C   0  0  0  0  0  2  0  0  0  0  0  0
  182.2560  177.0800  139.9980 C   0  0  1  0  0  0  0  0  0  0  0  0
  185.7240  176.7210  136.3310 C   0  0  2  0  0  3  0  0  0  0  0  0
  179.6640  177.8770  139.0230 C   0  0  0  0  0  2  0  0  0  0  0  0
  185.3170  179.7590  143.8320 C   0  0  0  0  0  2  0  0  0  0  0  0
  187.9200  176.6730  137.2570 O   0  0  0  0  0  0  0  0  0  0  0  0
  186.5470  178.3510  138.0600 O   0  0  0  0  0  0  0  0  0  0  0  0
  187.9320  177.1340  142.0550 C   0  0  0  0  0  0  0  0  0  0  0  0
  185.8650  178.1390  141.0690 C   0  0  0  0  0  2  0  0  0  0  0  0
  184.9070  178.5210  144.6260 C   0  0  0  0  0  2  0  0  0  0  0  0
  181.5280  178.2180  140.7760 C   0  0  1  0  0  3  0  0  0  0  0  0
  179.2500  178.5150  142.1180 O   0  0  0  0  0  1  0  0  0  0  0  0
  179.3140  179.3580  141.0080 C   0  0  0  0  0  2  0  0  0  0  0  0
  191.4460  176.8850  140.9140 O   0  0  0  0  0  0  0  0  0  0  0  0
  192.3030  176.8850  139.8050 C   0  0  0  0  0  0  0  0  0  0  0  0
  193.5870  177.5030  139.8440 N   0  0  0  0  0  1  0  0  0  0  0  0
  191.9170  176.3480  138.7350 O   0  0  0  0  0  0  0  0  0  0  0  0
  1 27  1  0  0  0  0
  2 11  2  0  0  0  0
  2  6  1  0  0  0  0
  4 31  2  0  0  0  0
  4 32  1  0  0  0  0
  5 26  1  6  0  0  0
  5 30  1  0  0  0  0
  6 10  2  0  0  0  0
  7 11  1  0  0  0  0
 10 33  1  0  0  0  0
 10  8  1  0  0  0  0
 11 18  1  0  0  0  0
 13  9  1  6  0  0  0
 13 20  1  0  0  0  0
 13 27  1  0  0  0  0
 14  3  1  6  0  0  0
 14  5  1  0  0  0  0
 14 15  1  0  0  0  0
 15 19  1  0  0  0  0
 16 22  1  6  0  0  0
 16  1  1  0  0  0  0
 18 34  1  0  0  0  0
 18 33  2  0  0  0  0
 21 36  1  0  0  0  0
 21 38  1  1  0  0  0
 22  9  1  0  0  0  0
 24 23  1  6  0  0  0
 24 16  1  0  0  0  0
 27 36  1  0  0  0  0
 27 17  1  1  0  0  0
 28 12  1  6  0  0  0
 28 24  1  0  0  0  0
 28  4  1  0  0  0  0
 29 20  1  0  0  0  0
 29 21  1  0  0  0  0
 30 35  1  0  0  0  0
 32  7  1  0  0  0  0
 33 25  1  0  0  0  0
 34 26  1  0  0  0  0
 35 19  1  0  0  0  0
 36  3  1  6  0  0  0
 38 37  1  0  0  0  0
 39  6  1  0  0  0  0
 40 41  1  0  0  0  0
 40 39  1  0  0  0  0
 42 40  2  0  0  0  0
M  END
>  <MODEL>
4

>  <REMARK>
 VINA RESULT:      -3.8      2.349      3.927
  Name = 
  3 active torsions:
  status: ('A' for Active; 'I' for Inactive)
    1  A    between atoms: C_6  and  O_33
    2  A    between atoms: C_9  and  O_33
    3  A    between atoms: C_23  and  C_42
                            x       y       z     vdW  Elec       q    Type
                         _______ _______ _______ _____ _____    ______ ____

>  <TORSDO>
F 3

$$$$
=
 OpenBabel11062413163D

 42 46  0  0  1  0  0  0  0  0999 V2000
  184.6290  174.9290  136.2690 C   0  0  0  0  0  2  0  0  0  0  0  0
  189.4710  177.9280  139.3460 C   0  0  0  0  0  3  0  0  0  0  0  0
  182.8000  177.2400  136.4960 C   0  0  0  0  0  2  0  0  0  0  0  0
  188.6190  175.0400  136.9980 C   0  0  0  0  0  0  0  0  0  0  0  0
  183.9220  179.0420  137.8710 C   0  0  2  0  0  3  0  0  0  0  0  0
  189.4330  178.1440  140.7310 C   0  0  0  0  0  0  0  0  0  0  0  0
  188.4330  177.5170  137.1360 C   0  0  0  0  0  2  0  0  0  0  0  0
  188.1360  178.3660  142.7560 O   0  0  0  0  0  1  0  0  0  0  0  0
  183.8630  172.2690  136.5710 C   0  0  0  0  0  2  0  0  0  0  0  0
  188.1940  178.1460  141.3830 C   0  0  0  0  0  0  0  0  0  0  0  0
  188.3020  177.7020  138.6170 C   0  0  0  0  0  0  0  0  0  0  0  0
  189.1860  173.4930  135.3170 O   0  0  0  0  0  1  0  0  0  0  0  0
  182.8050  173.2980  136.9970 C   0  0  2  0  0  3  0  0  0  0  0  0
  182.9250  177.8670  137.8760 C   0  0  1  0  0  3  0  0  0  0  0  0
  181.5610  178.3200  138.3900 C   0  0  0  0  0  2  0  0  0  0  0  0
  185.7370  173.9690  136.7170 C   0  0  1  0  0  3  0  0  0  0  0  0
  183.5970  175.0370  138.5500 C   0  0  0  0  0  1  0  0  0  0  0  0
  187.0560  177.7050  139.2780 C   0  0  0  0  0  0  0  0  0  0  0  0
  181.6400  178.8620  139.8240 C   0  0  0  0  0  2  0  0  0  0  0  0
  181.5410  173.1180  136.1590 C   0  0  0  0  0  2  0  0  0  0  0  0
  181.6630  175.4390  135.1930 C   0  0  2  0  0  3  0  0  0  0  0  0
  185.2240  172.5940  137.1820 C   0  0  0  0  0  2  0  0  0  0  0  0
  186.5730  172.8300  134.5960 C   0  0  0  0  0  1  0  0  0  0  0  0
  186.8370  173.9010  135.6520 C   0  0  2  0  0  3  0  0  0  0  0  0
  185.7930  177.9200  141.3380 O   0  0  0  0  0  1  0  0  0  0  0  0
  185.3750  178.6090  137.6580 C   0  0  0  0  0  2  0  0  0  0  0  0
  183.3250  174.7680  137.0740 C   0  0  1  0  0  0  0  0  0  0  0  0
  188.2250  173.7770  136.2910 C   0  0  2  0  0  3  0  0  0  0  0  0
  181.6450  173.9380  134.8850 C   0  0  0  0  0  2  0  0  0  0  0  0
  183.7990  179.9560  139.1000 C   0  0  0  0  0  2  0  0  0  0  0  0
  189.5830  175.0150  137.8090 O   0  0  0  0  0  0  0  0  0  0  0  0
  187.9600  176.2420  136.7120 O   0  0  0  0  0  0  0  0  0  0  0  0
  187.0110  177.9250  140.6650 C   0  0  0  0  0  0  0  0  0  0  0  0
  185.7760  177.4370  138.5460 C   0  0  0  0  0  2  0  0  0  0  0  0
  183.0520  179.2810  140.2490 C   0  0  0  0  0  2  0  0  0  0  0  0
  182.2720  175.7970  136.5630 C   0  0  1  0  0  3  0  0  0  0  0  0
  180.2970  177.4010  135.1720 O   0  0  0  0  0  1  0  0  0  0  0  0
  180.2550  176.0080  135.0990 C   0  0  0  0  0  2  0  0  0  0  0  0
  190.5940  178.3780  141.4860 O   0  0  0  0  0  0  0  0  0  0  0  0
  191.6460  177.4770  141.7030 C   0  0  0  0  0  0  0  0  0  0  0  0
  191.7160  176.6680  142.8740 N   0  0  0  0  0  1  0  0  0  0  0  0
  192.5680  177.3990  140.8520 O   0  0  0  0  0  0  0  0  0  0  0  0
  1 27  1  0  0  0  0
  2  6  1  0  0  0  0
  4 31  2  0  0  0  0
  5 26  1  1  0  0  0
  5 14  1  0  0  0  0
  5 30  1  0  0  0  0
  6 10  2  0  0  0  0
  6 39  1  0  0  0  0
  7 11  1  0  0  0  0
  9 13  1  0  0  0  0
  9 22  1  0  0  0  0
 10  8  1  0  0  0  0
 11 18  1  0  0  0  0
 11  2  2  0  0  0  0
 13 20  1  6  0  0  0
 13 27  1  0  0  0  0
 14  3  1  6  0  0  0
 14 15  1  0  0  0  0
 15 19  1  0  0  0  0
 16  1  1  6  0  0  0
 16 22  1  0  0  0  0
 18 33  2  0  0  0  0
 19 35  1  0  0  0  0
 21 38  1  1  0  0  0
 21 36  1  0  0  0  0
 24 23  1  6  0  0  0
 24 28  1  0  0  0  0
 24 16  1  0  0  0  0
 26 34  1  0  0  0  0
 27 17  1  1  0  0  0
 28 12  1  6  0  0  0
 28  4  1  0  0  0  0
 29 21  1  0  0  0  0
 29 20  1  0  0  0  0
 30 35  1  0  0  0  0
 32  4  1  0  0  0  0
 32  7  1  0  0  0  0
 33 25  1  0  0  0  0
 33 10  1  0  0  0  0
 34 18  1  0  0  0  0
 36  3  1  6  0  0  0
 36 27  1  0  0  0  0
 38 37  1  0  0  0  0
 39 40  1  0  0  0  0
 40 41  1  0  0  0  0
 42 40  2  0  0  0  0
M  END
>  <MODEL>
5

>  <REMARK>
 VINA RESULT:      -3.5      1.219      1.328
  Name = 
  3 active torsions:
  status: ('A' for Active; 'I' for Inactive)
    1  A    between atoms: C_6  and  O_33
    2  A    between atoms: C_9  and  O_33
    3  A    between atoms: C_23  and  C_42
                            x       y       z     vdW  Elec       q    Type
                         _______ _______ _______ _____ _____    ______ ____

>  <TORSDO>
F 3

$$$$
=
 OpenBabel11062413163D

 42 46  0  0  1  0  0  0  0  0999 V2000
  187.6610  178.2890  142.2950 C   0  0  0  0  0  2  0  0  0  0  0  0
  184.7160  177.2660  136.6210 C   0  0  0  0  0  3  0  0  0  0  0  0
  190.3430  178.5290  141.0760 C   0  0  0  0  0  2  0  0  0  0  0  0
  184.1600  178.3400  140.2430 C   0  0  0  0  0  0  0  0  0  0  0  0
  190.1650  178.0450  138.6000 C   0  0  2  0  0  3  0  0  0  0  0  0
  184.8450  176.0470  135.9420 C   0  0  0  0  0  0  0  0  0  0  0  0
  185.4570  179.0010  138.2260 C   0  0  0  0  0  2  0  0  0  0  0  0
  186.0950  174.0190  135.5490 O   0  0  0  0  0  1  0  0  0  0  0  0
  187.1260  176.9960  144.7010 C   0  0  0  0  0  2  0  0  0  0  0  0
  185.9470  175.2290  136.2190 C   0  0  0  0  0  0  0  0  0  0  0  0
  185.6540  177.6660  137.5750 C   0  0  0  0  0  0  0  0  0  0  0  0
  182.9530  179.4840  141.9090 O   0  0  0  0  0  1  0  0  0  0  0  0
  188.5360  176.7580  144.1400 C   0  0  2  0  0  3  0  0  0  0  0  0
  190.5140  177.4780  139.9900 C   0  0  1  0  0  3  0  0  0  0  0  0
  191.9340  176.9160  140.0000 C   0  0  0  0  0  2  0  0  0  0  0  0
  186.2350  177.7470  142.4510 C   0  0  1  0  0  3  0  0  0  0  0  0
  188.6220  176.0310  141.7900 C   0  0  0  0  0  1  0  0  0  0  0  0
  186.7620  176.8380  137.8520 C   0  0  0  0  0  0  0  0  0  0  0  0
  192.1080  175.7800  138.9830 C   0  0  0  0  0  2  0  0  0  0  0  0
  189.5810  177.2570  145.1360 C   0  0  0  0  0  2  0  0  0  0  0  0
  190.5350  178.9440  143.5310 C   0  0  2  0  0  3  0  0  0  0  0  0
  186.0620  176.7710  143.6290 C   0  0  0  0  0  2  0  0  0  0  0  0
  184.9770  179.4820  143.8300 C   0  0  0  0  0  1  0  0  0  0  0  0
  185.2280  178.9030  142.4400 C   0  0  2  0  0  3  0  0  0  0  0  0
  187.9790  174.7810  137.4390 O   0  0  0  0  0  1  0  0  0  0  0  0
  188.6750  178.3500  138.4230 C   0  0  0  0  0  2  0  0  0  0  0  0
  188.7450  177.2640  142.6780 C   0  0  1  0  0  0  0  0  0  0  0  0
  183.9350  178.5090  141.7170 C   0  0  2  0  0  3  0  0  0  0  0  0
  189.8660  178.7290  144.8920 C   0  0  0  0  0  2  0  0  0  0  0  0
  190.6880  177.1860  137.4380 C   0  0  0  0  0  2  0  0  0  0  0  0
  183.2890  177.7460  139.5530 O   0  0  0  0  0  0  0  0  0  0  0  0
  185.2960  178.8900  139.6360 O   0  0  0  0  0  0  0  0  0  0  0  0
  186.8990  175.6180  137.1710 C   0  0  0  0  0  0  0  0  0  0  0  0
  187.7800  177.2070  138.8880 C   0  0  0  0  0  2  0  0  0  0  0  0
  191.0420  175.7680  137.8810 C   0  0  0  0  0  2  0  0  0  0  0  0
  190.1540  177.8970  142.4650 C   0  0  1  0  0  3  0  0  0  0  0  0
  192.4280  178.1990  144.7870 O   0  0  0  0  0  1  0  0  0  0  0  0
  192.0470  178.9760  143.6920 C   0  0  0  0  0  2  0  0  0  0  0  0
  183.9180  175.6250  134.9740 O   0  0  0  0  0  0  0  0  0  0  0  0
  182.7340  174.9100  135.2070 C   0  0  0  0  0  0  0  0  0  0  0  0
  181.5780  175.5260  135.7680 N   0  0  0  0  0  1  0  0  0  0  0  0
  182.7000  173.6830  134.9360 O   0  0  0  0  0  0  0  0  0  0  0  0
  1 27  1  0  0  0  0
  2 11  1  0  0  0  0
  4 28  1  0  0  0  0
  5 30  1  6  0  0  0
  5 14  1  0  0  0  0
  6 10  1  0  0  0  0
  6  2  2  0  0  0  0
  7 32  1  0  0  0  0
  8 10  1  0  0  0  0
 10 33  2  0  0  0  0
 11 18  2  0  0  0  0
 11  7  1  0  0  0  0
 13  9  1  1  0  0  0
 13 20  1  0  0  0  0
 14 15  1  6  0  0  0
 14  3  1  0  0  0  0
 16  1  1  1  0  0  0
 16 22  1  0  0  0  0
 18 34  1  0  0  0  0
 19 15  1  0  0  0  0
 21 38  1  1  0  0  0
 21 29  1  0  0  0  0
 22  9  1  0  0  0  0
 24 16  1  0  0  0  0
 24 23  1  1  0  0  0
 26  5  1  0  0  0  0
 26 34  1  0  0  0  0
 27 17  1  6  0  0  0
 27 13  1  0  0  0  0
 28 12  1  6  0  0  0
 28 24  1  0  0  0  0
 29 20  1  0  0  0  0
 30 35  1  0  0  0  0
 31  4  2  0  0  0  0
 32  4  1  0  0  0  0
 33 25  1  0  0  0  0
 33 18  1  0  0  0  0
 35 19  1  0  0  0  0
 36  3  1  6  0  0  0
 36 27  1  0  0  0  0
 36 21  1  0  0  0  0
 38 37  1  0  0  0  0
 39 40  1  0  0  0  0
 39  6  1  0  0  0  0
 40 41  1  0  0  0  0
 42 40  2  0  0  0  0
M  END
>  <MODEL>
6

>  <REMARK>
 VINA RESULT:      -3.5      2.885      9.190
  Name = 
  3 active torsions:
  status: ('A' for Active; 'I' for Inactive)
    1  A    between atoms: C_6  and  O_33
    2  A    between atoms: C_9  and  O_33
    3  A    between atoms: C_23  and  C_42
                            x       y       z     vdW  Elec       q    Type
                         _______ _______ _______ _____ _____    ______ ____

>  <TORSDO>
F 3

$$$$
=
 OpenBabel11062413163D

 42 46  0  0  1  0  0  0  0  0999 V2000
  188.7250  177.8540  141.3820 C   0  0  0  0  0  2  0  0  0  0  0  0
  183.3000  178.0270  137.8530 C   0  0  0  0  0  3  0  0  0  0  0  0
  190.4900  178.1910  139.0350 C   0  0  0  0  0  2  0  0  0  0  0  0
  184.7090  178.4410  141.3770 C   0  0  0  0  0  0  0  0  0  0  0  0
  189.0760  178.1790  136.9370 C   0  0  2  0  0  3  0  0  0  0  0  0
  182.9250  176.9490  137.0400 C   0  0  0  0  0  0  0  0  0  0  0  0
  184.9450  179.4020  139.0950 C   0  0  0  0  0  2  0  0  0  0  0  0
  183.5520  174.9720  135.8030 O   0  0  0  0  0  1  0  0  0  0  0  0
  189.2550  176.1660  143.5320 C   0  0  0  0  0  2  0  0  0  0  0  0
  183.9050  176.0440  136.6160 C   0  0  0  0  0  0  0  0  0  0  0  0
  184.6260  178.2020  138.2560 C   0  0  0  0  0  0  0  0  0  0  0  0
  184.6190  179.3140  143.5620 O   0  0  0  0  0  1  0  0  0  0  0  0
  190.1740  175.9720  142.3160 C   0  0  2  0  0  3  0  0  0  0  0  0
  189.9750  177.3510  137.8760 C   0  0  1  0  0  3  0  0  0  0  0  0
  191.1360  176.7320  137.1000 C   0  0  0  0  0  2  0  0  0  0  0  0
  187.4950  177.3590  142.1530 C   0  0  1  0  0  3  0  0  0  0  0  0
  189.0180  175.6860  140.1610 C   0  0  0  0  0  1  0  0  0  0  0  0
  185.6110  177.2870  137.8280 C   0  0  0  0  0  0  0  0  0  0  0  0
  190.6460  175.7950  135.9870 C   0  0  0  0  0  2  0  0  0  0  0  0
  191.6250  176.2310  142.7160 C   0  0  0  0  0  2  0  0  0  0  0  0
  191.8960  178.1380  141.0970 C   0  0  2  0  0  3  0  0  0  0  0  0
  187.7870  176.1920  143.1140 C   0  0  0  0  0  2  0  0  0  0  0  0
  187.3000  178.8660  144.1980 C   0  0  0  0  0  1  0  0  0  0  0  0
  186.7690  178.5420  142.8030 C   0  0  2  0  0  3  0  0  0  0  0  0
  186.1960  175.2870  136.5860 O   0  0  0  0  0  1  0  0  0  0  0  0
  187.7400  178.5790  137.5700 C   0  0  0  0  0  2  0  0  0  0  0  0
  189.7150  176.7270  141.0300 C   0  0  1  0  0  0  0  0  0  0  0  0
  185.2490  178.3470  142.7740 C   0  0  2  0  0  3  0  0  0  0  0  0
  191.9460  177.7070  142.5660 C   0  0  0  0  0  2  0  0  0  0  0  0
  188.8550  177.5250  135.5640 C   0  0  0  0  0  2  0  0  0  0  0  0
  183.5440  178.0250  141.1390 O   0  0  0  0  0  0  0  0  0  0  0  0
  185.4720  179.0410  140.3670 O   0  0  0  0  0  0  0  0  0  0  0  0
  185.2410  176.2080  137.0090 C   0  0  0  0  0  0  0  0  0  0  0  0
  187.0410  177.4130  138.2580 C   0  0  0  0  0  2  0  0  0  0  0  0
  189.1900  176.0350  135.5730 C   0  0  0  0  0  2  0  0  0  0  0  0
  190.9140  177.3230  140.2320 C   0  0  1  0  0  3  0  0  0  0  0  0
  193.4170  176.9120  139.7200 O   0  0  0  0  0  1  0  0  0  0  0  0
  193.2870  178.0710  140.4860 C   0  0  0  0  0  2  0  0  0  0  0  0
  181.5990  176.7550  136.6160 O   0  0  0  0  0  0  0  0  0  0  0  0
  180.5750  176.1240  137.3370 C   0  0  0  0  0  0  0  0  0  0  0  0
  179.7440  176.8380  138.2490 N   0  0  0  0  0  1  0  0  0  0  0  0
  180.4020  174.8870  137.1950 O   0  0  0  0  0  0  0  0  0  0  0  0
  2 11  1  0  0  0  0
  4 28  1  0  0  0  0
  5 30  1  6  0  0  0
  5 26  1  0  0  0  0
  5 14  1  0  0  0  0
  6  2  2  0  0  0  0
  7 32  1  0  0  0  0
  8 10  1  0  0  0  0
 10 33  2  0  0  0  0
 10  6  1  0  0  0  0
 11  7  1  0  0  0  0
 13 20  1  1  0  0  0
 13  9  1  0  0  0  0
 14 15  1  6  0  0  0
 14  3  1  0  0  0  0
 16  1  1  1  0  0  0
 16 24  1  0  0  0  0
 16 22  1  0  0  0  0
 18 11  2  0  0  0  0
 18 34  1  0  0  0  0
 19 15  1  0  0  0  0
 21 38  1  6  0  0  0
 21 29  1  0  0  0  0
 22  9  1  0  0  0  0
 24 23  1  1  0  0  0
 25 33  1  0  0  0  0
 26 34  1  0  0  0  0
 27 17  1  6  0  0  0
 27  1  1  0  0  0  0
 27 13  1  0  0  0  0
 28 24  1  0  0  0  0
 28 12  1  1  0  0  0
 29 20  1  0  0  0  0
 30 35  1  0  0  0  0
 31  4  2  0  0  0  0
 32  4  1  0  0  0  0
 33 18  1  0  0  0  0
 35 19  1  0  0  0  0
 36  3  1  6  0  0  0
 36 27  1  0  0  0  0
 36 21  1  0  0  0  0
 37 38  1  0  0  0  0
 39  6  1  0  0  0  0
 39 40  1  0  0  0  0
 40 41  1  0  0  0  0
 42 40  2  0  0  0  0
M  END
>  <MODEL>
7

>  <REMARK>
 VINA RESULT:      -2.1      2.897      8.941
  Name = 
  3 active torsions:
  status: ('A' for Active; 'I' for Inactive)
    1  A    between atoms: C_6  and  O_33
    2  A    between atoms: C_9  and  O_33
    3  A    between atoms: C_23  and  C_42
                            x       y       z     vdW  Elec       q    Type
                         _______ _______ _______ _____ _____    ______ ____

>  <TORSDO>
F 3

$$$$
