=
 OpenBabel11062414203D

 45 47  0  0  1  0  0  0  0  0999 V2000
  191.8540  176.8370  142.4280 O   0  0  0  0  0  1  0  0  0  0  0  0
  188.9000  177.0470  145.2850 C   0  0  2  0  0  3  0  0  0  0  0  0
  190.4720  177.0430  142.3690 C   0  0  1  0  0  0  0  0  0  0  0  0
  190.3270  177.6270  145.3310 C   0  0  0  0  0  2  0  0  0  0  0  0
  189.7620  175.9160  143.1570 C   0  0  0  0  0  2  0  0  0  0  0  0
  190.5850  178.7570  144.3310 C   0  0  2  0  0  3  0  0  0  0  0  0
  190.1490  178.4550  142.8930 C   0  0  0  0  0  2  0  0  0  0  0  0
  191.9350  179.1030  144.3540 O   0  0  0  0  0  1  0  0  0  0  0  0
  188.5340  176.3840  143.9490 C   0  0  0  0  0  2  0  0  0  0  0  0
  190.0270  177.0180  140.9080 C   0  0  0  0  0  2  0  0  0  0  0  0
  188.5930  177.4940  140.6990 C   0  0  0  0  0  2  0  0  0  0  0  0
  188.5070  178.5060  139.5630 C   0  0  0  0  0  2  0  0  0  0  0  0
  187.8320  177.9050  138.3340 C   0  0  1  0  0  3  0  0  0  0  0  0
  185.5850  177.2980  137.7440 O   0  0  0  0  0  0  0  0  0  0  0  0
  186.3450  178.0140  138.4520 C   0  0  0  0  0  0  0  0  0  0  0  0
  185.7990  178.9360  139.3350 O   0  0  0  0  0  1  0  0  0  0  0  0
  187.9260  179.6600  136.7090 O   0  0  0  0  0  0  0  0  0  0  0  0
  189.2500  177.8220  136.2020 N   0  0  0  0  0  2  0  0  0  0  0  0
  188.3300  178.5180  137.0530 C   0  0  0  0  0  0  0  0  0  0  0  0
  189.2980  174.1020  136.5350 C   0  0  0  0  0  2  0  0  0  0  0  0
  190.2270  173.6460  137.4780 O   0  0  0  0  0  0  0  0  0  0  0  0
  191.4590  174.1890  137.0950 C   0  0  0  0  0  2  0  0  0  0  0  0
  189.8670  176.5290  136.4990 C   0  0  1  0  0  3  0  0  0  0  0  0
  191.7470  175.4190  137.9510 C   0  0  0  0  0  2  0  0  0  0  0  0
  190.9990  176.6960  137.5190 C   0  0  0  0  0  2  0  0  0  0  0  0
  188.8130  175.5020  136.9000 C   0  0  0  0  0  2  0  0  0  0  0  0
  187.9080  178.0670  145.6070 N   0  0  0  0  0  2  0  0  0  0  0  0
  187.8530  177.8430  148.2340 S   0  0  0  0  0  0  0  0  0  0  0  0
  187.1200  178.1050  146.8030 C   0  0  0  0  0  0  0  0  0  0  0  0
  185.7050  178.3110  146.7830 N   0  0  0  0  0  2  0  0  0  0  0  0
  185.0900  179.2660  145.9640 N   0  0  0  0  0  2  0  0  0  0  0  0
  184.1790  178.5460  145.0830 C   0  0  0  0  0  2  0  0  0  0  0  0
  184.3350  178.9660  143.6210 C   0  0  1  0  0  0  0  0  0  0  0  0
  184.8760  180.2540  143.5980 O   0  0  0  0  0  1  0  0  0  0  0  0
  185.2930  178.0130  142.9160 C   0  0  0  0  0  1  0  0  0  0  0  0
  183.0190  178.9630  142.9670 N   0  0  0  0  0  2  0  0  0  0  0  0
  183.0880  178.3160  141.6590 C   0  0  0  0  0  2  0  0  0  0  0  0
  182.0230  178.3630  138.0890 C   0  0  1  0  0  3  0  0  0  0  0  0
  182.1440  175.9890  138.0920 F   0  0  0  0  0  0  0  0  0  0  0  0
  181.7050  178.2620  141.0190 C   0  0  2  0  0  3  0  0  0  0  0  0
  182.8100  178.4500  136.9570 F   0  0  0  0  0  0  0  0  0  0  0  0
  182.3870  177.1050  138.8710 C   0  0  2  0  0  3  0  0  0  0  0  0
  181.5530  177.0120  140.1490 C   0  0  0  0  0  2  0  0  0  0  0  0
  182.2440  179.6050  138.9470 C   0  0  0  0  0  2  0  0  0  0  0  0
  181.3960  179.5290  140.2150 C   0  0  0  0  0  2  0  0  0  0  0  0
  2  4  1  0  0  0  0
  2 27  1  6  0  0  0
  3  1  1  1  0  0  0
  3  7  1  0  0  0  0
  3  5  1  0  0  0  0
  5  9  1  0  0  0  0
  6  8  1  6  0  0  0
  6  4  1  0  0  0  0
  7  6  1  0  0  0  0
  9  2  1  0  0  0  0
 10  3  1  0  0  0  0
 11 10  1  0  0  0  0
 12 11  1  0  0  0  0
 13 15  1  0  0  0  0
 13 12  1  1  0  0  0
 14 15  2  0  0  0  0
 15 16  1  0  0  0  0
 17 19  2  0  0  0  0
 18 19  1  0  0  0  0
 19 13  1  0  0  0  0
 20 26  1  0  0  0  0
 20 21  1  0  0  0  0
 22 21  1  0  0  0  0
 22 24  1  0  0  0  0
 23 18  1  1  0  0  0
 23 26  1  0  0  0  0
 23 25  1  0  0  0  0
 25 24  1  0  0  0  0
 27 29  1  0  0  0  0
 29 28  2  0  0  0  0
 30 29  1  0  0  0  0
 31 30  1  0  0  0  0
 32 31  1  0  0  0  0
 33 35  1  6  0  0  0
 33 32  1  0  0  0  0
 34 33  1  0  0  0  0
 36 33  1  0  0  0  0
 37 36  1  0  0  0  0
 38 41  1  6  0  0  0
 38 42  1  0  0  0  0
 38 44  1  0  0  0  0
 40 37  1  6  0  0  0
 42 39  1  6  0  0  0
 42 43  1  0  0  0  0
 43 40  1  0  0  0  0
 44 45  1  0  0  0  0
 45 40  1  0  0  0  0
M  END
>  <MODEL>
1

>  <REMARK>
 VINA RESULT:      -7.8      0.000      0.000
  Name = 
  16 active torsions:
  status: ('A' for Active; 'I' for Inactive)
    1  A    between atoms: N_2  and  C_4
    2  A    between atoms: N_2  and  C_22
    3  A    between atoms: C_5  and  C_16
    4  A    between atoms: C_10  and  C_19
    5  A    between atoms: C_10  and  N_44
    6  A    between atoms: C_13  and  N_36
    7  A    between atoms: C_16  and  C_41
    8  A    between atoms: C_22  and  N_31
    9  A    between atoms: C_26  and  C_27
   10  A    between atoms: C_26  and  C_41
   11  A    between atoms: C_27  and  C_37
   12  A    between atoms: C_27  and  C_38
   13  A    between atoms: C_28  and  C_32
   14  A    between atoms: C_28  and  N_44
   15  A    between atoms: N_30  and  N_31
   16  A    between atoms: N_30  and  C_32
                            x       y       z     vdW  Elec       q    Type
                         _______ _______ _______ _____ _____    ______ ____

>  <TORSDO>
F 16

$$$$
=
 OpenBabel11062414203D

 45 47  0  0  1  0  0  0  0  0999 V2000
  191.2330  176.7780  142.0380 O   0  0  0  0  0  1  0  0  0  0  0  0
  188.8020  177.1000  145.3430 C   0  0  2  0  0  3  0  0  0  0  0  0
  189.8790  177.0830  142.2100 C   0  0  1  0  0  0  0  0  0  0  0  0
  190.2570  177.5770  145.1680 C   0  0  0  0  0  2  0  0  0  0  0  0
  189.2230  175.9830  143.0790 C   0  0  0  0  0  2  0  0  0  0  0  0
  190.4350  178.7180  144.1630 C   0  0  2  0  0  3  0  0  0  0  0  0
  189.7510  178.4950  142.8100 C   0  0  0  0  0  2  0  0  0  0  0  0
  191.7920  178.9670  143.9740 O   0  0  0  0  0  1  0  0  0  0  0  0
  188.1780  176.5090  144.0710 C   0  0  0  0  0  2  0  0  0  0  0  0
  189.2040  177.1380  140.8410 C   0  0  0  0  0  2  0  0  0  0  0  0
  190.1650  176.9150  139.6770 C   0  0  0  0  0  2  0  0  0  0  0  0
  189.7780  177.7630  138.4710 C   0  0  0  0  0  2  0  0  0  0  0  0
  188.5170  177.2280  137.7990 C   0  0  1  0  0  3  0  0  0  0  0  0
  186.5690  178.3270  138.6730 O   0  0  0  0  0  1  0  0  0  0  0  0
  187.4550  178.2810  137.7750 C   0  0  0  0  0  0  0  0  0  0  0  0
  187.4330  179.2020  136.7360 O   0  0  0  0  0  0  0  0  0  0  0  0
  189.7940  177.0980  135.7780 O   0  0  0  0  0  0  0  0  0  0  0  0
  187.9220  175.7260  135.8120 N   0  0  0  0  0  2  0  0  0  0  0  0
  188.7910  176.6890  136.4210 C   0  0  0  0  0  0  0  0  0  0  0  0
  186.1240  172.9690  137.5770 C   0  0  0  0  0  2  0  0  0  0  0  0
  184.7430  172.9760  137.3460 O   0  0  0  0  0  0  0  0  0  0  0  0
  184.3010  174.2540  137.7080 C   0  0  0  0  0  2  0  0  0  0  0  0
  186.7670  175.1000  136.4550 C   0  0  1  0  0  3  0  0  0  0  0  0
  184.1450  175.1010  136.4490 C   0  0  0  0  0  2  0  0  0  0  0  0
  185.4630  175.6680  135.8840 C   0  0  0  0  0  2  0  0  0  0  0  0
  186.8650  173.5790  136.3920 C   0  0  0  0  0  2  0  0  0  0  0  0
  187.9550  178.1760  145.8440 N   0  0  0  0  0  2  0  0  0  0  0  0
  187.9350  177.7080  148.4390 S   0  0  0  0  0  0  0  0  0  0  0  0
  187.1880  178.1290  147.0540 C   0  0  0  0  0  0  0  0  0  0  0  0
  185.7820  178.3860  147.0820 N   0  0  0  0  0  2  0  0  0  0  0  0
  185.1250  179.1140  146.0830 N   0  0  0  0  0  2  0  0  0  0  0  0
  184.8590  178.1880  144.9890 C   0  0  0  0  0  2  0  0  0  0  0  0
  184.7680  178.9010  143.6390 C   0  0  1  0  0  0  0  0  0  0  0  0
  184.8880  180.2740  143.8660 O   0  0  0  0  0  1  0  0  0  0  0  0
  185.9120  178.4440  142.7420 C   0  0  0  0  0  1  0  0  0  0  0  0
  183.4680  178.6080  143.0180 N   0  0  0  0  0  2  0  0  0  0  0  0
  183.5290  178.7910  141.5700 C   0  0  0  0  0  2  0  0  0  0  0  0
  181.6390  179.2080  138.3860 C   0  0  1  0  0  3  0  0  0  0  0  0
  183.4190  178.1030  137.2630 F   0  0  0  0  0  0  0  0  0  0  0  0
  182.5110  177.8910  140.8770 C   0  0  2  0  0  3  0  0  0  0  0  0
  181.6700  180.2650  137.4980 F   0  0  0  0  0  0  0  0  0  0  0  0
  183.0290  178.5890  138.4970 C   0  0  2  0  0  3  0  0  0  0  0  0
  183.0220  177.4410  139.5060 C   0  0  0  0  0  2  0  0  0  0  0  0
  181.1710  179.7120  139.7480 C   0  0  0  0  0  2  0  0  0  0  0  0
  181.1410  178.5650  140.7560 C   0  0  0  0  0  2  0  0  0  0  0  0
  2 27  1  6  0  0  0
  3  1  1  6  0  0  0
  3  7  1  0  0  0  0
  3  5  1  0  0  0  0
  4  2  1  0  0  0  0
  5  9  1  0  0  0  0
  6  8  1  6  0  0  0
  6  4  1  0  0  0  0
  7  6  1  0  0  0  0
  9  2  1  0  0  0  0
 10  3  1  0  0  0  0
 11 10  1  0  0  0  0
 12 11  1  0  0  0  0
 13 12  1  6  0  0  0
 15 13  1  0  0  0  0
 15 14  1  0  0  0  0
 16 15  2  0  0  0  0
 17 19  2  0  0  0  0
 18 19  1  0  0  0  0
 19 13  1  0  0  0  0
 21 20  1  0  0  0  0
 21 22  1  0  0  0  0
 23 18  1  6  0  0  0
 24 22  1  0  0  0  0
 25 24  1  0  0  0  0
 25 23  1  0  0  0  0
 26 23  1  0  0  0  0
 26 20  1  0  0  0  0
 27 29  1  0  0  0  0
 29 30  1  0  0  0  0
 29 28  2  0  0  0  0
 31 30  1  0  0  0  0
 32 31  1  0  0  0  0
 33 35  1  6  0  0  0
 33 34  1  0  0  0  0
 33 32  1  0  0  0  0
 36 33  1  0  0  0  0
 37 36  1  0  0  0  0
 38 41  1  6  0  0  0
 38 42  1  0  0  0  0
 38 44  1  0  0  0  0
 40 37  1  6  0  0  0
 42 39  1  6  0  0  0
 42 43  1  0  0  0  0
 43 40  1  0  0  0  0
 44 45  1  0  0  0  0
 45 40  1  0  0  0  0
M  END
>  <MODEL>
2

>  <REMARK>
 VINA RESULT:      -7.5      1.654      2.492
  Name = 
  16 active torsions:
  status: ('A' for Active; 'I' for Inactive)
    1  A    between atoms: N_2  and  C_4
    2  A    between atoms: N_2  and  C_22
    3  A    between atoms: C_5  and  C_16
    4  A    between atoms: C_10  and  C_19
    5  A    between atoms: C_10  and  N_44
    6  A    between atoms: C_13  and  N_36
    7  A    between atoms: C_16  and  C_41
    8  A    between atoms: C_22  and  N_31
    9  A    between atoms: C_26  and  C_27
   10  A    between atoms: C_26  and  C_41
   11  A    between atoms: C_27  and  C_37
   12  A    between atoms: C_27  and  C_38
   13  A    between atoms: C_28  and  C_32
   14  A    between atoms: C_28  and  N_44
   15  A    between atoms: N_30  and  N_31
   16  A    between atoms: N_30  and  C_32
                            x       y       z     vdW  Elec       q    Type
                         _______ _______ _______ _____ _____    ______ ____

>  <TORSDO>
F 16

$$$$
=
 OpenBabel11062414203D

 45 47  0  0  1  0  0  0  0  0999 V2000
  191.6970  176.9080  142.3270 O   0  0  0  0  0  1  0  0  0  0  0  0
  188.9430  177.0620  145.3810 C   0  0  2  0  0  3  0  0  0  0  0  0
  190.3190  177.1390  142.3680 C   0  0  1  0  0  0  0  0  0  0  0  0
  190.3810  177.6170  145.3520 C   0  0  0  0  0  2  0  0  0  0  0  0
  189.6410  175.9950  143.1620 C   0  0  0  0  0  2  0  0  0  0  0  0
  190.5940  178.7780  144.3770 C   0  0  2  0  0  3  0  0  0  0  0  0
  190.0580  178.5350  142.9620 C   0  0  0  0  0  2  0  0  0  0  0  0
  191.9480  179.1000  144.3220 O   0  0  0  0  0  1  0  0  0  0  0  0
  188.4780  176.4540  144.0500 C   0  0  0  0  0  2  0  0  0  0  0  0
  189.7780  177.1740  140.9400 C   0  0  0  0  0  2  0  0  0  0  0  0
  188.3080  177.5760  140.8540 C   0  0  0  0  0  2  0  0  0  0  0  0
  188.0590  178.5120  139.6790 C   0  0  0  0  0  2  0  0  0  0  0  0
  188.1090  177.7620  138.3510 C   0  0  1  0  0  3  0  0  0  0  0  0
  186.3880  176.5200  137.2270 O   0  0  0  0  0  0  0  0  0  0  0  0
  186.7290  177.5930  137.7980 C   0  0  0  0  0  0  0  0  0  0  0  0
  185.8250  178.6420  137.8940 O   0  0  0  0  0  1  0  0  0  0  0  0
  189.0600  179.6800  137.2810 O   0  0  0  0  0  0  0  0  0  0  0  0
  189.8520  177.6510  136.4780 N   0  0  0  0  0  2  0  0  0  0  0  0
  189.0250  178.4240  137.3570 C   0  0  0  0  0  0  0  0  0  0  0  0
  191.4820  174.4170  137.3880 C   0  0  0  0  0  2  0  0  0  0  0  0
  191.2250  173.3930  136.4680 O   0  0  0  0  0  0  0  0  0  0  0  0
  189.8320  173.3090  136.3680 C   0  0  0  0  0  2  0  0  0  0  0  0
  189.9790  176.1940  136.4960 C   0  0  1  0  0  3  0  0  0  0  0  0
  189.3780  174.0490  135.1140 C   0  0  0  0  0  2  0  0  0  0  0  0
  189.3190  175.5830  135.2540 C   0  0  0  0  0  2  0  0  0  0  0  0
  191.4320  175.7770  136.6990 C   0  0  0  0  0  2  0  0  0  0  0  0
  187.9950  178.0860  145.8040 N   0  0  0  0  0  2  0  0  0  0  0  0
  188.0030  177.6970  148.4120 S   0  0  0  0  0  0  0  0  0  0  0  0
  187.2380  178.0590  147.0210 C   0  0  0  0  0  0  0  0  0  0  0  0
  185.8270  178.2870  147.0510 N   0  0  0  0  0  2  0  0  0  0  0  0
  185.1840  179.1800  146.1850 N   0  0  0  0  0  2  0  0  0  0  0  0
  184.3680  178.3820  145.2800 C   0  0  0  0  0  2  0  0  0  0  0  0
  184.4150  178.9060  143.8450 C   0  0  1  0  0  0  0  0  0  0  0  0
  184.5770  180.2930  143.8970 O   0  0  0  0  0  1  0  0  0  0  0  0
  185.6050  178.2950  143.1160 C   0  0  0  0  0  1  0  0  0  0  0  0
  183.1570  178.5740  143.1610 N   0  0  0  0  0  2  0  0  0  0  0  0
  182.0050  178.9770  143.9640 C   0  0  0  0  0  2  0  0  0  0  0  0
  179.2310  180.3230  141.8730 C   0  0  1  0  0  3  0  0  0  0  0  0
  180.4290  179.6130  139.9470 F   0  0  0  0  0  0  0  0  0  0  0  0
  180.7320  178.3230  143.4350 C   0  0  2  0  0  3  0  0  0  0  0  0
  179.0760  181.5990  141.3650 F   0  0  0  0  0  0  0  0  0  0  0  0
  180.5130  179.7050  141.3230 C   0  0  2  0  0  3  0  0  0  0  0  0
  180.7220  178.3070  141.9050 C   0  0  0  0  0  2  0  0  0  0  0  0
  179.2850  180.3940  143.3960 C   0  0  0  0  0  2  0  0  0  0  0  0
  179.4720  178.9970  143.9840 C   0  0  0  0  0  2  0  0  0  0  0  0
  2 27  1  6  0  0  0
  3  1  1  6  0  0  0
  3  7  1  0  0  0  0
  3  5  1  0  0  0  0
  4  2  1  0  0  0  0
  5  9  1  0  0  0  0
  6  8  1  6  0  0  0
  6  4  1  0  0  0  0
  7  6  1  0  0  0  0
  9  2  1  0  0  0  0
 10  3  1  0  0  0  0
 11 10  1  0  0  0  0
 12 11  1  0  0  0  0
 13 12  1  1  0  0  0
 14 15  2  0  0  0  0
 15 16  1  0  0  0  0
 15 13  1  0  0  0  0
 17 19  2  0  0  0  0
 18 19  1  0  0  0  0
 19 13  1  0  0  0  0
 21 20  1  0  0  0  0
 22 21  1  0  0  0  0
 23 18  1  6  0  0  0
 23 26  1  0  0  0  0
 24 25  1  0  0  0  0
 24 22  1  0  0  0  0
 25 23  1  0  0  0  0
 26 20  1  0  0  0  0
 27 29  1  0  0  0  0
 29 30  1  0  0  0  0
 29 28  2  0  0  0  0
 31 30  1  0  0  0  0
 32 31  1  0  0  0  0
 33 35  1  6  0  0  0
 33 34  1  0  0  0  0
 33 32  1  0  0  0  0
 36 33  1  0  0  0  0
 36 37  1  0  0  0  0
 38 41  1  6  0  0  0
 38 44  1  0  0  0  0
 40 37  1  6  0  0  0
 40 45  1  0  0  0  0
 42 39  1  6  0  0  0
 42 38  1  0  0  0  0
 42 43  1  0  0  0  0
 43 40  1  0  0  0  0
 44 45  1  0  0  0  0
M  END
>  <MODEL>
3

>  <REMARK>
 VINA RESULT:      -7.5      1.709      2.231
  Name = 
  16 active torsions:
  status: ('A' for Active; 'I' for Inactive)
    1  A    between atoms: N_2  and  C_4
    2  A    between atoms: N_2  and  C_22
    3  A    between atoms: C_5  and  C_16
    4  A    between atoms: C_10  and  C_19
    5  A    between atoms: C_10  and  N_44
    6  A    between atoms: C_13  and  N_36
    7  A    between atoms: C_16  and  C_41
    8  A    between atoms: C_22  and  N_31
    9  A    between atoms: C_26  and  C_27
   10  A    between atoms: C_26  and  C_41
   11  A    between atoms: C_27  and  C_37
   12  A    between atoms: C_27  and  C_38
   13  A    between atoms: C_28  and  C_32
   14  A    between atoms: C_28  and  N_44
   15  A    between atoms: N_30  and  N_31
   16  A    between atoms: N_30  and  C_32
                            x       y       z     vdW  Elec       q    Type
                         _______ _______ _______ _____ _____    ______ ____

>  <TORSDO>
F 16

$$$$
=
 OpenBabel11062414203D

 45 47  0  0  1  0  0  0  0  0999 V2000
  191.3360  176.0750  144.2280 O   0  0  0  0  0  1  0  0  0  0  0  0
  187.3260  176.9650  144.4780 C   0  0  2  0  0  3  0  0  0  0  0  0
  190.4580  176.7950  143.4120 C   0  0  1  0  0  0  0  0  0  0  0  0
  188.3800  176.9480  145.6010 C   0  0  0  0  0  2  0  0  0  0  0  0
  189.2200  175.9180  143.1100 C   0  0  0  0  0  2  0  0  0  0  0  0
  189.4570  178.0290  145.4790 C   0  0  2  0  0  3  0  0  0  0  0  0
  190.1120  178.1300  144.0970 C   0  0  0  0  0  2  0  0  0  0  0  0
  190.4330  177.8310  146.4530 O   0  0  0  0  0  1  0  0  0  0  0  0
  187.8960  176.6930  143.0780 C   0  0  0  0  0  2  0  0  0  0  0  0
  191.1720  177.1560  142.1110 C   0  0  0  0  0  2  0  0  0  0  0  0
  190.4300  176.6940  140.8600 C   0  0  0  0  0  2  0  0  0  0  0  0
  190.3680  177.8000  139.8140 C   0  0  0  0  0  2  0  0  0  0  0  0
  189.0390  177.7810  139.0650 C   0  0  1  0  0  3  0  0  0  0  0  0
  188.2540  179.0020  140.9780 O   0  0  0  0  0  1  0  0  0  0  0  0
  187.9770  178.4570  139.8740 C   0  0  0  0  0  0  0  0  0  0  0  0
  186.6680  178.4580  139.4120 O   0  0  0  0  0  0  0  0  0  0  0  0
  188.9650  179.6190  137.5320 O   0  0  0  0  0  0  0  0  0  0  0  0
  189.4520  177.5750  136.5460 N   0  0  0  0  0  2  0  0  0  0  0  0
  189.1510  178.3830  137.6900 C   0  0  0  0  0  0  0  0  0  0  0  0
  191.5200  174.5930  137.4280 C   0  0  0  0  0  2  0  0  0  0  0  0
  191.3630  173.5290  136.5310 O   0  0  0  0  0  0  0  0  0  0  0  0
  189.9890  173.2640  136.4890 C   0  0  0  0  0  2  0  0  0  0  0  0
  189.7670  176.1460  136.5760 C   0  0  1  0  0  3  0  0  0  0  0  0
  189.3950  173.9180  135.2450 C   0  0  0  0  0  2  0  0  0  0  0  0
  189.1450  175.4350  135.3690 C   0  0  0  0  0  2  0  0  0  0  0  0
  191.2690  175.9230  136.7250 C   0  0  0  0  0  2  0  0  0  0  0  0
  186.5920  178.2240  144.4660 N   0  0  0  0  0  2  0  0  0  0  0  0
  184.0670  178.8830  144.8450 S   0  0  0  0  0  0  0  0  0  0  0  0
  185.2980  178.4210  143.8830 C   0  0  0  0  0  0  0  0  0  0  0  0
  185.0350  178.1780  142.4990 N   0  0  0  0  0  2  0  0  0  0  0  0
  184.0540  178.8720  141.7810 N   0  0  0  0  0  2  0  0  0  0  0  0
  183.4390  177.9160  140.8680 C   0  0  0  0  0  2  0  0  0  0  0  0
  182.6370  178.6050  139.7640 C   0  0  1  0  0  0  0  0  0  0  0  0
  181.5410  179.2370  140.3570 O   0  0  0  0  0  1  0  0  0  0  0  0
  183.5040  179.6550  139.0800 C   0  0  0  0  0  1  0  0  0  0  0  0
  182.1730  177.6000  138.7960 N   0  0  0  0  0  2  0  0  0  0  0  0
  183.1420  176.5150  138.6670 C   0  0  0  0  0  2  0  0  0  0  0  0
  185.7340  174.4870  136.9190 C   0  0  1  0  0  3  0  0  0  0  0  0
  184.4340  172.5520  137.3810 F   0  0  0  0  0  0  0  0  0  0  0  0
  183.2790  176.0960  137.2060 C   0  0  2  0  0  3  0  0  0  0  0  0
  186.8720  173.9070  137.4450 F   0  0  0  0  0  0  0  0  0  0  0  0
  184.5000  173.9130  137.6090 C   0  0  2  0  0  3  0  0  0  0  0  0
  183.2320  174.5730  137.0680 C   0  0  0  0  0  2  0  0  0  0  0  0
  185.8030  175.9970  137.1230 C   0  0  0  0  0  2  0  0  0  0  0  0
  184.5480  176.6650  136.5650 C   0  0  0  0  0  2  0  0  0  0  0  0
  2 27  1  6  0  0  0
  2  4  1  0  0  0  0
  3  7  1  0  0  0  0
  3  1  1  1  0  0  0
  5  3  1  0  0  0  0
  6  4  1  0  0  0  0
  6  8  1  1  0  0  0
  7  6  1  0  0  0  0
  9  5  1  0  0  0  0
  9  2  1  0  0  0  0
 10  3  1  0  0  0  0
 11 10  1  0  0  0  0
 12 11  1  0  0  0  0
 13 12  1  1  0  0  0
 13 15  1  0  0  0  0
 15 14  1  0  0  0  0
 16 15  2  0  0  0  0
 17 19  2  0  0  0  0
 18 19  1  0  0  0  0
 19 13  1  0  0  0  0
 21 20  1  0  0  0  0
 22 21  1  0  0  0  0
 23 18  1  6  0  0  0
 23 26  1  0  0  0  0
 24 25  1  0  0  0  0
 24 22  1  0  0  0  0
 25 23  1  0  0  0  0
 26 20  1  0  0  0  0
 29 27  1  0  0  0  0
 29 28  2  0  0  0  0
 30 29  1  0  0  0  0
 31 30  1  0  0  0  0
 32 31  1  0  0  0  0
 33 35  1  6  0  0  0
 33 34  1  0  0  0  0
 33 32  1  0  0  0  0
 36 33  1  0  0  0  0
 37 36  1  0  0  0  0
 38 44  1  0  0  0  0
 38 41  1  1  0  0  0
 38 42  1  0  0  0  0
 40 37  1  1  0  0  0
 42 39  1  6  0  0  0
 43 40  1  0  0  0  0
 43 42  1  0  0  0  0
 45 44  1  0  0  0  0
 45 40  1  0  0  0  0
M  END
>  <MODEL>
4

>  <REMARK>
 VINA RESULT:      -7.5      2.259      3.352
  Name = 
  16 active torsions:
  status: ('A' for Active; 'I' for Inactive)
    1  A    between atoms: N_2  and  C_4
    2  A    between atoms: N_2  and  C_22
    3  A    between atoms: C_5  and  C_16
    4  A    between atoms: C_10  and  C_19
    5  A    between atoms: C_10  and  N_44
    6  A    between atoms: C_13  and  N_36
    7  A    between atoms: C_16  and  C_41
    8  A    between atoms: C_22  and  N_31
    9  A    between atoms: C_26  and  C_27
   10  A    between atoms: C_26  and  C_41
   11  A    between atoms: C_27  and  C_37
   12  A    between atoms: C_27  and  C_38
   13  A    between atoms: C_28  and  C_32
   14  A    between atoms: C_28  and  N_44
   15  A    between atoms: N_30  and  N_31
   16  A    between atoms: N_30  and  C_32
                            x       y       z     vdW  Elec       q    Type
                         _______ _______ _______ _____ _____    ______ ____

>  <TORSDO>
F 16

$$$$
=
 OpenBabel11062414203D

 45 47  0  0  1  0  0  0  0  0999 V2000
  191.9590  177.1150  142.2310 O   0  0  0  0  0  1  0  0  0  0  0  0
  188.9470  176.9820  145.0310 C   0  0  2  0  0  3  0  0  0  0  0  0
  190.5640  177.0770  142.1420 C   0  0  1  0  0  0  0  0  0  0  0  0
  190.2530  177.7990  145.0600 C   0  0  0  0  0  2  0  0  0  0  0  0
  190.0380  175.8930  142.9880 C   0  0  0  0  0  2  0  0  0  0  0  0
  190.3390  178.8960  143.9960 C   0  0  2  0  0  3  0  0  0  0  0  0
  189.9930  178.4400  142.5740 C   0  0  0  0  0  2  0  0  0  0  0  0
  191.6080  179.4690  144.0150 O   0  0  0  0  0  1  0  0  0  0  0  0
  188.7310  176.1880  143.7340 C   0  0  0  0  0  2  0  0  0  0  0  0
  190.1640  176.8910  140.6790 C   0  0  0  0  0  2  0  0  0  0  0  0
  189.0950  177.8740  140.2100 C   0  0  0  0  0  2  0  0  0  0  0  0
  188.3190  177.3190  139.0210 C   0  0  0  0  0  2  0  0  0  0  0  0
  188.7440  177.9900  137.7190 C   0  0  1  0  0  3  0  0  0  0  0  0
  189.8670  177.3330  135.7010 O   0  0  0  0  0  0  0  0  0  0  0  0
  189.5560  177.0460  136.8900 C   0  0  0  0  0  0  0  0  0  0  0  0
  189.9480  175.8300  137.4320 O   0  0  0  0  0  1  0  0  0  0  0  0
  187.4680  179.7730  136.7570 O   0  0  0  0  0  0  0  0  0  0  0  0
  186.5530  177.6650  136.4330 N   0  0  0  0  0  2  0  0  0  0  0  0
  187.5710  178.5320  136.9470 C   0  0  0  0  0  0  0  0  0  0  0  0
  187.4830  174.2380  135.2760 C   0  0  0  0  0  2  0  0  0  0  0  0
  186.5540  173.2590  135.6510 O   0  0  0  0  0  0  0  0  0  0  0  0
  186.4270  173.3650  137.0410 C   0  0  0  0  0  2  0  0  0  0  0  0
  186.5670  176.2040  136.5060 C   0  0  1  0  0  3  0  0  0  0  0  0
  185.1660  174.1620  137.3660 C   0  0  0  0  0  2  0  0  0  0  0  0
  185.3110  175.6890  137.2180 C   0  0  0  0  0  2  0  0  0  0  0  0
  186.7980  175.5920  135.1270 C   0  0  0  0  0  2  0  0  0  0  0  0
  187.7900  177.8330  145.2770 N   0  0  0  0  0  2  0  0  0  0  0  0
  187.9800  177.8040  147.9070 S   0  0  0  0  0  0  0  0  0  0  0  0
  187.1170  177.9720  146.5350 C   0  0  0  0  0  0  0  0  0  0  0  0
  185.7090  178.1990  146.6320 N   0  0  0  0  0  2  0  0  0  0  0  0
  185.0420  179.1610  145.8640 N   0  0  0  0  0  2  0  0  0  0  0  0
  184.1590  178.4420  144.9550 C   0  0  0  0  0  2  0  0  0  0  0  0
  184.3380  178.8870  143.5030 C   0  0  1  0  0  0  0  0  0  0  0  0
  184.7770  180.2130  143.5090 O   0  0  0  0  0  1  0  0  0  0  0  0
  185.3920  178.0190  142.8280 C   0  0  0  0  0  1  0  0  0  0  0  0
  183.0510  178.7890  142.7990 N   0  0  0  0  0  2  0  0  0  0  0  0
  183.2540  178.6090  141.3640 C   0  0  0  0  0  2  0  0  0  0  0  0
  181.6360  177.0610  138.3860 C   0  0  1  0  0  3  0  0  0  0  0  0
  180.3710  175.6980  139.8660 F   0  0  0  0  0  0  0  0  0  0  0  0
  181.9890  178.9800  140.5970 C   0  0  2  0  0  3  0  0  0  0  0  0
  182.0500  175.9650  137.6530 F   0  0  0  0  0  0  0  0  0  0  0  0
  181.3780  176.6440  139.8300 C   0  0  2  0  0  3  0  0  0  0  0  0
  180.9570  177.8520  140.6660 C   0  0  0  0  0  2  0  0  0  0  0  0
  182.7160  178.1380  138.3280 C   0  0  0  0  0  2  0  0  0  0  0  0
  182.2910  179.3570  139.1430 C   0  0  0  0  0  2  0  0  0  0  0  0
  2  4  1  0  0  0  0
  2 27  1  6  0  0  0
  3  1  1  1  0  0  0
  3  7  1  0  0  0  0
  3  5  1  0  0  0  0
  5  9  1  0  0  0  0
  6  8  1  6  0  0  0
  6  4  1  0  0  0  0
  7  6  1  0  0  0  0
  9  2  1  0  0  0  0
 10  3  1  0  0  0  0
 11 10  1  0  0  0  0
 12 11  1  0  0  0  0
 13 12  1  1  0  0  0
 14 15  2  0  0  0  0
 15 16  1  0  0  0  0
 15 13  1  0  0  0  0
 17 19  2  0  0  0  0
 18 19  1  0  0  0  0
 19 13  1  0  0  0  0
 20 21  1  0  0  0  0
 21 22  1  0  0  0  0
 22 24  1  0  0  0  0
 23 18  1  6  0  0  0
 23 25  1  0  0  0  0
 25 24  1  0  0  0  0
 26 20  1  0  0  0  0
 26 23  1  0  0  0  0
 27 29  1  0  0  0  0
 29 30  1  0  0  0  0
 29 28  2  0  0  0  0
 31 30  1  0  0  0  0
 32 31  1  0  0  0  0
 33 35  1  6  0  0  0
 33 34  1  0  0  0  0
 33 32  1  0  0  0  0
 36 33  1  0  0  0  0
 37 36  1  0  0  0  0
 38 41  1  6  0  0  0
 38 42  1  0  0  0  0
 40 43  1  0  0  0  0
 40 37  1  6  0  0  0
 42 39  1  6  0  0  0
 42 43  1  0  0  0  0
 44 38  1  0  0  0  0
 44 45  1  0  0  0  0
 45 40  1  0  0  0  0
M  END
>  <MODEL>
5

>  <REMARK>
 VINA RESULT:      -7.1      1.532      2.356
  Name = 
  16 active torsions:
  status: ('A' for Active; 'I' for Inactive)
    1  A    between atoms: N_2  and  C_4
    2  A    between atoms: N_2  and  C_22
    3  A    between atoms: C_5  and  C_16
    4  A    between atoms: C_10  and  C_19
    5  A    between atoms: C_10  and  N_44
    6  A    between atoms: C_13  and  N_36
    7  A    between atoms: C_16  and  C_41
    8  A    between atoms: C_22  and  N_31
    9  A    between atoms: C_26  and  C_27
   10  A    between atoms: C_26  and  C_41
   11  A    between atoms: C_27  and  C_37
   12  A    between atoms: C_27  and  C_38
   13  A    between atoms: C_28  and  C_32
   14  A    between atoms: C_28  and  N_44
   15  A    between atoms: N_30  and  N_31
   16  A    between atoms: N_30  and  C_32
                            x       y       z     vdW  Elec       q    Type
                         _______ _______ _______ _____ _____    ______ ____

>  <TORSDO>
F 16

$$$$
=
 OpenBabel11062414203D

 45 47  0  0  1  0  0  0  0  0999 V2000
  186.3770  177.9160  135.4600 O   0  0  0  0  0  1  0  0  0  0  0  0
  189.6280  176.0070  137.1080 C   0  0  2  0  0  3  0  0  0  0  0  0
  186.5180  176.9340  136.4450 C   0  0  1  0  0  0  0  0  0  0  0  0
  189.4750  177.4930  136.7290 C   0  0  0  0  0  2  0  0  0  0  0  0
  187.3900  175.7840  135.8870 C   0  0  0  0  0  2  0  0  0  0  0  0
  188.4570  178.2620  137.5740 C   0  0  2  0  0  3  0  0  0  0  0  0
  187.0940  177.5770  137.7200 C   0  0  0  0  0  2  0  0  0  0  0  0
  188.2900  179.5440  137.0540 O   0  0  0  0  0  1  0  0  0  0  0  0
  188.3530  175.1740  136.9130 C   0  0  0  0  0  2  0  0  0  0  0  0
  185.1350  176.4050  136.8210 C   0  0  0  0  0  2  0  0  0  0  0  0
  184.6840  176.8160  138.2190 C   0  0  0  0  0  2  0  0  0  0  0  0
  183.2930  177.4390  138.1900 C   0  0  0  0  0  2  0  0  0  0  0  0
  182.9590  178.1130  139.5180 C   0  0  1  0  0  3  0  0  0  0  0  0
  184.6170  179.8200  139.1990 O   0  0  0  0  0  0  0  0  0  0  0  0
  184.1030  178.9640  139.9700 C   0  0  0  0  0  0  0  0  0  0  0  0
  184.6190  178.7870  141.2480 O   0  0  0  0  0  1  0  0  0  0  0  0
  181.7210  180.1580  139.4020 O   0  0  0  0  0  0  0  0  0  0  0  0
  180.4020  178.2490  139.4560 N   0  0  0  0  0  2  0  0  0  0  0  0
  181.6790  178.9000  139.4510 C   0  0  0  0  0  0  0  0  0  0  0  0
  180.1550  174.8990  137.8230 C   0  0  0  0  0  2  0  0  0  0  0  0
  179.3080  174.0160  138.5030 O   0  0  0  0  0  0  0  0  0  0  0  0
  179.7860  173.9640  139.8180 C   0  0  0  0  0  2  0  0  0  0  0  0
  180.1890  176.8020  139.4330 C   0  0  1  0  0  3  0  0  0  0  0  0
  178.9330  174.8770  140.6940 C   0  0  0  0  0  2  0  0  0  0  0  0
  179.2700  176.3770  140.5840 C   0  0  0  0  0  2  0  0  0  0  0  0
  179.7190  176.3420  138.0570 C   0  0  0  0  0  2  0  0  0  0  0  0
  190.0970  175.8630  138.4820 N   0  0  0  0  0  2  0  0  0  0  0  0
  192.6730  176.4030  138.3320 S   0  0  0  0  0  0  0  0  0  0  0  0
  191.2180  176.5510  139.0490 C   0  0  0  0  0  0  0  0  0  0  0  0
  191.1190  177.3200  140.2510 N   0  0  0  0  0  2  0  0  0  0  0  0
  190.6840  176.7750  141.4650 N   0  0  0  0  0  2  0  0  0  0  0  0
  191.6670  177.1490  142.4740 C   0  0  0  0  0  2  0  0  0  0  0  0
  191.0120  177.5840  143.7860 C   0  0  1  0  0  0  0  0  0  0  0  0
  191.6610  176.9230  144.8320 O   0  0  0  0  0  1  0  0  0  0  0  0
  191.1820  179.0880  143.9680 C   0  0  0  0  0  1  0  0  0  0  0  0
  189.5890  177.2180  143.7670 N   0  0  0  0  0  2  0  0  0  0  0  0
  188.8330  178.0130  144.7320 C   0  0  0  0  0  2  0  0  0  0  0  0
  186.3380  178.8210  147.3780 C   0  0  1  0  0  3  0  0  0  0  0  0
  184.7220  179.1360  145.6630 F   0  0  0  0  0  0  0  0  0  0  0  0
  187.8630  177.1270  145.5070 C   0  0  2  0  0  3  0  0  0  0  0  0
  186.0480  180.0480  147.9430 F   0  0  0  0  0  0  0  0  0  0  0  0
  186.0610  178.8690  145.8780 C   0  0  2  0  0  3  0  0  0  0  0  0
  186.4130  177.5310  145.2300 C   0  0  0  0  0  2  0  0  0  0  0  0
  187.8030  178.4850  147.6380 C   0  0  0  0  0  2  0  0  0  0  0  0
  188.1560  177.1380  147.0110 C   0  0  0  0  0  2  0  0  0  0  0  0
  2 27  1  1  0  0  0
  3  1  1  6  0  0  0
  3 10  1  0  0  0  0
  3  7  1  0  0  0  0
  4  2  1  0  0  0  0
  4  6  1  0  0  0  0
  5  3  1  0  0  0  0
  5  9  1  0  0  0  0
  6  8  1  6  0  0  0
  6  7  1  0  0  0  0
  9  2  1  0  0  0  0
 10 11  1  0  0  0  0
 12 11  1  0  0  0  0
 13 12  1  6  0  0  0
 13 15  1  0  0  0  0
 14 15  2  0  0  0  0
 15 16  1  0  0  0  0
 17 19  2  0  0  0  0
 19 18  1  0  0  0  0
 19 13  1  0  0  0  0
 20 26  1  0  0  0  0
 20 21  1  0  0  0  0
 21 22  1  0  0  0  0
 22 24  1  0  0  0  0
 23 18  1  6  0  0  0
 23 25  1  0  0  0  0
 25 24  1  0  0  0  0
 26 23  1  0  0  0  0
 27 29  1  0  0  0  0
 28 29  2  0  0  0  0
 29 30  1  0  0  0  0
 30 31  1  0  0  0  0
 31 32  1  0  0  0  0
 32 33  1  0  0  0  0
 33 35  1  1  0  0  0
 33 34  1  0  0  0  0
 36 33  1  0  0  0  0
 36 37  1  0  0  0  0
 38 44  1  0  0  0  0
 38 41  1  6  0  0  0
 40 37  1  6  0  0  0
 40 45  1  0  0  0  0
 42 39  1  1  0  0  0
 42 38  1  0  0  0  0
 43 40  1  0  0  0  0
 43 42  1  0  0  0  0
 45 44  1  0  0  0  0
M  END
>  <MODEL>
6

>  <REMARK>
 VINA RESULT:      -6.9      3.649      8.303
  Name = 
  16 active torsions:
  status: ('A' for Active; 'I' for Inactive)
    1  A    between atoms: N_2  and  C_4
    2  A    between atoms: N_2  and  C_22
    3  A    between atoms: C_5  and  C_16
    4  A    between atoms: C_10  and  C_19
    5  A    between atoms: C_10  and  N_44
    6  A    between atoms: C_13  and  N_36
    7  A    between atoms: C_16  and  C_41
    8  A    between atoms: C_22  and  N_31
    9  A    between atoms: C_26  and  C_27
   10  A    between atoms: C_26  and  C_41
   11  A    between atoms: C_27  and  C_37
   12  A    between atoms: C_27  and  C_38
   13  A    between atoms: C_28  and  C_32
   14  A    between atoms: C_28  and  N_44
   15  A    between atoms: N_30  and  N_31
   16  A    between atoms: N_30  and  C_32
                            x       y       z     vdW  Elec       q    Type
                         _______ _______ _______ _____ _____    ______ ____

>  <TORSDO>
F 16

$$$$
=
 OpenBabel11062414203D

 45 47  0  0  1  0  0  0  0  0999 V2000
  191.3250  176.0990  144.1050 O   0  0  0  0  0  1  0  0  0  0  0  0
  187.3030  176.9540  144.2690 C   0  0  2  0  0  3  0  0  0  0  0  0
  190.4560  176.8020  143.2650 C   0  0  1  0  0  0  0  0  0  0  0  0
  188.3360  176.9590  145.4120 C   0  0  0  0  0  2  0  0  0  0  0  0
  189.2320  175.9100  142.9490 C   0  0  0  0  0  2  0  0  0  0  0  0
  189.4040  178.0490  145.2980 C   0  0  2  0  0  3  0  0  0  0  0  0
  190.0840  178.1410  143.9280 C   0  0  0  0  0  2  0  0  0  0  0  0
  190.3630  177.8710  146.2930 O   0  0  0  0  0  1  0  0  0  0  0  0
  187.9020  176.6730  142.8830 C   0  0  0  0  0  2  0  0  0  0  0  0
  191.1910  177.1550  141.9730 C   0  0  0  0  0  2  0  0  0  0  0  0
  190.4230  176.7750  140.7110 C   0  0  0  0  0  2  0  0  0  0  0  0
  190.1970  177.9870  139.8160 C   0  0  0  0  0  2  0  0  0  0  0  0
  188.9370  177.8260  138.9710 C   0  0  1  0  0  3  0  0  0  0  0  0
  187.8970  179.0040  140.7870 O   0  0  0  0  0  1  0  0  0  0  0  0
  187.7570  178.4070  139.6840 C   0  0  0  0  0  0  0  0  0  0  0  0
  186.4900  178.2610  139.1340 O   0  0  0  0  0  0  0  0  0  0  0  0
  188.8210  179.6280  137.4000 O   0  0  0  0  0  0  0  0  0  0  0  0
  189.5350  177.6160  136.4900 N   0  0  0  0  0  2  0  0  0  0  0  0
  189.0930  178.4140  137.5950 C   0  0  0  0  0  0  0  0  0  0  0  0
  191.7450  174.8190  137.6040 C   0  0  0  0  0  2  0  0  0  0  0  0
  191.7580  173.7390  136.7120 O   0  0  0  0  0  0  0  0  0  0  0  0
  190.4200  173.3630  136.5460 C   0  0  0  0  0  2  0  0  0  0  0  0
  189.9590  176.2180  136.5700 C   0  0  1  0  0  3  0  0  0  0  0  0
  189.8950  173.9580  135.2430 C   0  0  0  0  0  2  0  0  0  0  0  0
  189.5120  175.4490  135.3220 C   0  0  0  0  0  2  0  0  0  0  0  0
  191.4540  176.1190  136.8620 C   0  0  0  0  0  2  0  0  0  0  0  0
  186.5580  178.2060  144.2290 N   0  0  0  0  0  2  0  0  0  0  0  0
  184.9370  178.6670  146.2580 S   0  0  0  0  0  0  0  0  0  0  0  0
  185.2070  178.3790  144.6780 C   0  0  0  0  0  0  0  0  0  0  0  0
  184.0860  178.2550  143.8000 N   0  0  0  0  0  2  0  0  0  0  0  0
  183.1250  179.2630  143.6520 N   0  0  0  0  0  2  0  0  0  0  0  0
  181.8500  178.7000  144.0770 C   0  0  0  0  0  2  0  0  0  0  0  0
  180.8040  178.7310  142.9610 C   0  0  1  0  0  0  0  0  0  0  0  0
  179.7740  177.8540  143.3110 O   0  0  0  0  0  1  0  0  0  0  0  0
  180.2340  180.1380  142.8320 C   0  0  0  0  0  1  0  0  0  0  0  0
  181.4220  178.3000  141.6990 N   0  0  0  0  0  2  0  0  0  0  0  0
  181.1920  179.2830  140.6430 C   0  0  0  0  0  2  0  0  0  0  0  0
  181.7590  178.6600  137.0140 C   0  0  1  0  0  3  0  0  0  0  0  0
  181.1650  180.9240  136.6020 F   0  0  0  0  0  0  0  0  0  0  0  0
  182.4380  179.4350  139.7770 C   0  0  2  0  0  3  0  0  0  0  0  0
  180.8620  178.2020  136.0690 F   0  0  0  0  0  0  0  0  0  0  0  0
  181.2570  179.9750  137.6020 C   0  0  2  0  0  3  0  0  0  0  0  0
  182.2180  180.4770  138.6790 C   0  0  0  0  0  2  0  0  0  0  0  0
  181.9090  177.6100  138.1100 C   0  0  0  0  0  2  0  0  0  0  0  0
  182.8850  178.0970  139.1790 C   0  0  0  0  0  2  0  0  0  0  0  0
  2 27  1  6  0  0  0
  2  4  1  0  0  0  0
  3  7  1  0  0  0  0
  3  1  1  1  0  0  0
  5  3  1  0  0  0  0
  6  4  1  0  0  0  0
  6  8  1  1  0  0  0
  7  6  1  0  0  0  0
  9  5  1  0  0  0  0
  9  2  1  0  0  0  0
 10  3  1  0  0  0  0
 11 10  1  0  0  0  0
 12 11  1  0  0  0  0
 13 15  1  0  0  0  0
 13 12  1  1  0  0  0
 15 14  1  0  0  0  0
 16 15  2  0  0  0  0
 17 19  2  0  0  0  0
 18 19  1  0  0  0  0
 19 13  1  0  0  0  0
 21 20  1  0  0  0  0
 22 21  1  0  0  0  0
 23 18  1  6  0  0  0
 23 26  1  0  0  0  0
 24 25  1  0  0  0  0
 24 22  1  0  0  0  0
 25 23  1  0  0  0  0
 26 20  1  0  0  0  0
 27 29  1  0  0  0  0
 29 28  2  0  0  0  0
 30 29  1  0  0  0  0
 31 30  1  0  0  0  0
 31 32  1  0  0  0  0
 33 35  1  6  0  0  0
 33 34  1  0  0  0  0
 33 32  1  0  0  0  0
 36 33  1  0  0  0  0
 37 36  1  0  0  0  0
 38 41  1  6  0  0  0
 38 42  1  0  0  0  0
 38 44  1  0  0  0  0
 40 37  1  6  0  0  0
 42 39  1  6  0  0  0
 42 43  1  0  0  0  0
 43 40  1  0  0  0  0
 44 45  1  0  0  0  0
 45 40  1  0  0  0  0
M  END
>  <MODEL>
7

>  <REMARK>
 VINA RESULT:      -6.9      1.781      2.640
  Name = 
  16 active torsions:
  status: ('A' for Active; 'I' for Inactive)
    1  A    between atoms: N_2  and  C_4
    2  A    between atoms: N_2  and  C_22
    3  A    between atoms: C_5  and  C_16
    4  A    between atoms: C_10  and  C_19
    5  A    between atoms: C_10  and  N_44
    6  A    between atoms: C_13  and  N_36
    7  A    between atoms: C_16  and  C_41
    8  A    between atoms: C_22  and  N_31
    9  A    between atoms: C_26  and  C_27
   10  A    between atoms: C_26  and  C_41
   11  A    between atoms: C_27  and  C_37
   12  A    between atoms: C_27  and  C_38
   13  A    between atoms: C_28  and  C_32
   14  A    between atoms: C_28  and  N_44
   15  A    between atoms: N_30  and  N_31
   16  A    between atoms: N_30  and  C_32
                            x       y       z     vdW  Elec       q    Type
                         _______ _______ _______ _____ _____    ______ ____

>  <TORSDO>
F 16

$$$$
=
 OpenBabel11062414203D

 45 47  0  0  1  0  0  0  0  0999 V2000
  185.9350  177.6070  143.9090 O   0  0  0  0  0  1  0  0  0  0  0  0
  182.1180  178.7750  142.9110 C   0  0  2  0  0  3  0  0  0  0  0  0
  185.4220  178.5840  143.0500 C   0  0  1  0  0  0  0  0  0  0  0  0
  182.6750  178.3850  144.2940 C   0  0  0  0  0  2  0  0  0  0  0  0
  184.3920  177.9260  142.1000 C   0  0  0  0  0  2  0  0  0  0  0  0
  183.7120  179.3590  144.8580 C   0  0  2  0  0  3  0  0  0  0  0  0
  184.8360  179.7360  143.8860 C   0  0  0  0  0  2  0  0  0  0  0  0
  184.2530  178.8380  146.0310 O   0  0  0  0  0  1  0  0  0  0  0  0
  183.1720  178.8040  141.7940 C   0  0  0  0  0  2  0  0  0  0  0  0
  186.5690  179.1850  142.2390 C   0  0  0  0  0  2  0  0  0  0  0  0
  186.7960  178.4950  140.8980 C   0  0  0  0  0  2  0  0  0  0  0  0
  188.2420  178.6410  140.4390 C   0  0  0  0  0  2  0  0  0  0  0  0
  188.6640  177.4750  139.5510 C   0  0  1  0  0  3  0  0  0  0  0  0
  187.6710  176.6040  137.5460 O   0  0  0  0  0  0  0  0  0  0  0  0
  188.0640  177.6170  138.1880 C   0  0  0  0  0  0  0  0  0  0  0  0
  187.9640  178.8780  137.6170 O   0  0  0  0  0  1  0  0  0  0  0  0
  190.7200  177.1660  138.3650 O   0  0  0  0  0  0  0  0  0  0  0  0
  190.9650  177.3360  140.6670 N   0  0  0  0  0  2  0  0  0  0  0  0
  190.1590  177.3220  139.4820 C   0  0  0  0  0  0  0  0  0  0  0  0
  190.9750  179.0020  144.0090 C   0  0  0  0  0  2  0  0  0  0  0  0
  190.4410  178.2010  145.0260 O   0  0  0  0  0  0  0  0  0  0  0  0
  189.1640  177.8290  144.5900 C   0  0  0  0  0  2  0  0  0  0  0  0
  190.4740  177.5820  142.0230 C   0  0  1  0  0  3  0  0  0  0  0  0
  189.2270  176.4180  144.0140 C   0  0  0  0  0  2  0  0  0  0  0  0
  189.7910  176.3290  142.5810 C   0  0  0  0  0  2  0  0  0  0  0  0
  191.5840  178.1360  142.9120 C   0  0  0  0  0  2  0  0  0  0  0  0
  181.4330  180.0610  142.9650 N   0  0  0  0  0  2  0  0  0  0  0  0
  178.9940  179.5630  143.8340 S   0  0  0  0  0  0  0  0  0  0  0  0
  180.0250  180.2560  142.7810 C   0  0  0  0  0  0  0  0  0  0  0  0
  179.4910  180.9930  141.6780 N   0  0  0  0  0  2  0  0  0  0  0  0
  179.0510  180.3780  140.4990 N   0  0  0  0  0  2  0  0  0  0  0  0
  180.0380  180.6790  139.4700 C   0  0  0  0  0  2  0  0  0  0  0  0
  180.5570  179.4170  138.7800 C   0  0  1  0  0  0  0  0  0  0  0  0
  179.7610  179.1800  137.6570 O   0  0  0  0  0  1  0  0  0  0  0  0
  181.9970  179.6350  138.3310 C   0  0  0  0  0  1  0  0  0  0  0  0
  180.4650  178.2800  139.7070 N   0  0  0  0  0  2  0  0  0  0  0  0
  180.1180  177.0530  138.9940 C   0  0  0  0  0  2  0  0  0  0  0  0
  182.3830  174.5240  137.4590 C   0  0  1  0  0  3  0  0  0  0  0  0
  184.2130  175.9500  137.9740 F   0  0  0  0  0  0  0  0  0  0  0  0
  180.8540  175.8610  139.5980 C   0  0  2  0  0  3  0  0  0  0  0  0
  182.7800  174.4110  136.1410 F   0  0  0  0  0  0  0  0  0  0  0  0
  182.8340  175.8700  138.0170 C   0  0  2  0  0  3  0  0  0  0  0  0
  182.3690  176.0300  139.4640 C   0  0  0  0  0  2  0  0  0  0  0  0
  180.8650  174.3980  137.5370 C   0  0  0  0  0  2  0  0  0  0  0  0
  180.3950  174.5350  138.9840 C   0  0  0  0  0  2  0  0  0  0  0  0
  2 27  1  1  0  0  0
  2  4  1  0  0  0  0
  3  7  1  0  0  0  0
  3  1  1  1  0  0  0
  4  6  1  0  0  0  0
  5  3  1  0  0  0  0
  6  8  1  1  0  0  0
  7  6  1  0  0  0  0
  9  5  1  0  0  0  0
  9  2  1  0  0  0  0
 10  3  1  0  0  0  0
 11 10  1  0  0  0  0
 12 11  1  0  0  0  0
 13 12  1  1  0  0  0
 14 15  2  0  0  0  0
 15 13  1  0  0  0  0
 16 15  1  0  0  0  0
 17 19  2  0  0  0  0
 19 13  1  0  0  0  0
 19 18  1  0  0  0  0
 20 21  1  0  0  0  0
 22 21  1  0  0  0  0
 23 18  1  6  0  0  0
 23 25  1  0  0  0  0
 23 26  1  0  0  0  0
 24 22  1  0  0  0  0
 25 24  1  0  0  0  0
 26 20  1  0  0  0  0
 29 27  1  0  0  0  0
 29 28  2  0  0  0  0
 30 29  1  0  0  0  0
 31 30  1  0  0  0  0
 32 31  1  0  0  0  0
 33 35  1  6  0  0  0
 33 32  1  0  0  0  0
 33 36  1  0  0  0  0
 34 33  1  0  0  0  0
 37 36  1  0  0  0  0
 38 41  1  6  0  0  0
 38 44  1  0  0  0  0
 38 42  1  0  0  0  0
 40 37  1  6  0  0  0
 42 39  1  1  0  0  0
 42 43  1  0  0  0  0
 43 40  1  0  0  0  0
 44 45  1  0  0  0  0
 45 40  1  0  0  0  0
M  END
>  <MODEL>
8

>  <REMARK>
 VINA RESULT:      -6.8      2.923      5.910
  Name = 
  16 active torsions:
  status: ('A' for Active; 'I' for Inactive)
    1  A    between atoms: N_2  and  C_4
    2  A    between atoms: N_2  and  C_22
    3  A    between atoms: C_5  and  C_16
    4  A    between atoms: C_10  and  C_19
    5  A    between atoms: C_10  and  N_44
    6  A    between atoms: C_13  and  N_36
    7  A    between atoms: C_16  and  C_41
    8  A    between atoms: C_22  and  N_31
    9  A    between atoms: C_26  and  C_27
   10  A    between atoms: C_26  and  C_41
   11  A    between atoms: C_27  and  C_37
   12  A    between atoms: C_27  and  C_38
   13  A    between atoms: C_28  and  C_32
   14  A    between atoms: C_28  and  N_44
   15  A    between atoms: N_30  and  N_31
   16  A    between atoms: N_30  and  C_32
                            x       y       z     vdW  Elec       q    Type
                         _______ _______ _______ _____ _____    ______ ____

>  <TORSDO>
F 16

$$$$
=
 OpenBabel11062414203D

 45 47  0  0  1  0  0  0  0  0999 V2000
  191.0520  176.1410  143.5130 O   0  0  0  0  0  1  0  0  0  0  0  0
  187.2610  177.2970  144.6200 C   0  0  2  0  0  3  0  0  0  0  0  0
  190.1200  177.0300  142.9680 C   0  0  1  0  0  0  0  0  0  0  0  0
  188.4920  177.0480  145.5140 C   0  0  0  0  0  2  0  0  0  0  0  0
  188.7650  176.2990  142.8050 C   0  0  0  0  0  2  0  0  0  0  0  0
  189.6330  178.0490  145.3170 C   0  0  2  0  0  3  0  0  0  0  0  0
  190.0380  178.2830  143.8580 C   0  0  0  0  0  2  0  0  0  0  0  0
  190.7410  177.6470  146.0590 O   0  0  0  0  0  1  0  0  0  0  0  0
  187.5430  177.1720  143.1150 C   0  0  0  0  0  2  0  0  0  0  0  0
  190.6240  177.5050  141.6070 C   0  0  0  0  0  2  0  0  0  0  0  0
  190.0100  176.7510  140.4310 C   0  0  0  0  0  2  0  0  0  0  0  0
  189.8410  177.6590  139.2190 C   0  0  0  0  0  2  0  0  0  0  0  0
  188.5500  177.3480  138.4680 C   0  0  1  0  0  3  0  0  0  0  0  0
  187.4100  178.6730  140.1140 O   0  0  0  0  0  1  0  0  0  0  0  0
  187.4530  178.2570  138.9230 C   0  0  0  0  0  0  0  0  0  0  0  0
  186.4580  178.6250  138.0270 O   0  0  0  0  0  0  0  0  0  0  0  0
  189.4290  178.3210  136.4660 O   0  0  0  0  0  0  0  0  0  0  0  0
  188.1100  176.4450  136.1120 N   0  0  0  0  0  2  0  0  0  0  0  0
  188.7300  177.4060  136.9750 C   0  0  0  0  0  0  0  0  0  0  0  0
  187.5700  172.8170  136.8140 C   0  0  0  0  0  2  0  0  0  0  0  0
  186.2280  172.4300  136.7130 O   0  0  0  0  0  0  0  0  0  0  0  0
  185.5190  173.2780  137.5720 C   0  0  0  0  0  2  0  0  0  0  0  0
  187.3350  175.2850  136.5530 C   0  0  1  0  0  3  0  0  0  0  0  0
  184.8780  174.3930  136.7530 C   0  0  0  0  0  2  0  0  0  0  0  0
  185.8370  175.5310  136.3480 C   0  0  0  0  0  2  0  0  0  0  0  0
  187.8520  174.0050  135.9020 C   0  0  0  0  0  2  0  0  0  0  0  0
  186.6680  178.5990  144.8960 N   0  0  0  0  0  2  0  0  0  0  0  0
  186.0760  178.9300  147.4440 S   0  0  0  0  0  0  0  0  0  0  0  0
  185.6510  178.8540  145.8730 C   0  0  0  0  0  0  0  0  0  0  0  0
  184.2710  178.9920  145.5270 N   0  0  0  0  0  2  0  0  0  0  0  0
  183.8410  179.2630  144.2220 N   0  0  0  0  0  2  0  0  0  0  0  0
  182.4520  179.6940  144.3140 C   0  0  0  0  0  2  0  0  0  0  0  0
  181.5550  178.9760  143.3040 C   0  0  1  0  0  0  0  0  0  0  0  0
  180.9450  177.9020  143.9570 O   0  0  0  0  0  1  0  0  0  0  0  0
  180.4770  179.9320  142.8080 C   0  0  0  0  0  1  0  0  0  0  0  0
  182.3730  178.4840  142.1870 N   0  0  0  0  0  2  0  0  0  0  0  0
  181.8050  178.8960  140.9050 C   0  0  0  0  0  2  0  0  0  0  0  0
  182.2750  177.0500  137.7020 C   0  0  1  0  0  3  0  0  0  0  0  0
  181.0420  178.7650  136.6120 F   0  0  0  0  0  0  0  0  0  0  0  0
  182.8970  178.9810  139.8430 C   0  0  2  0  0  3  0  0  0  0  0  0
  181.4810  176.0630  137.1530 F   0  0  0  0  0  0  0  0  0  0  0  0
  181.4660  178.3340  137.8550 C   0  0  2  0  0  3  0  0  0  0  0  0
  182.3180  179.4270  138.4980 C   0  0  0  0  0  2  0  0  0  0  0  0
  182.7890  176.5810  139.0600 C   0  0  0  0  0  2  0  0  0  0  0  0
  183.6600  177.6600  139.6990 C   0  0  0  0  0  2  0  0  0  0  0  0
  2 27  1  6  0  0  0
  2  4  1  0  0  0  0
  3  1  1  1  0  0  0
  3  7  1  0  0  0  0
  5  3  1  0  0  0  0
  5  9  1  0  0  0  0
  6  4  1  0  0  0  0
  6  8  1  1  0  0  0
  7  6  1  0  0  0  0
  9  2  1  0  0  0  0
 10  3  1  0  0  0  0
 11 10  1  0  0  0  0
 12 11  1  0  0  0  0
 13 15  1  0  0  0  0
 13 12  1  1  0  0  0
 15 14  1  0  0  0  0
 16 15  2  0  0  0  0
 17 19  2  0  0  0  0
 18 19  1  0  0  0  0
 19 13  1  0  0  0  0
 21 20  1  0  0  0  0
 21 22  1  0  0  0  0
 23 18  1  6  0  0  0
 24 22  1  0  0  0  0
 25 23  1  0  0  0  0
 25 24  1  0  0  0  0
 26 23  1  0  0  0  0
 26 20  1  0  0  0  0
 27 29  1  0  0  0  0
 29 28  2  0  0  0  0
 30 29  1  0  0  0  0
 31 32  1  0  0  0  0
 31 30  1  0  0  0  0
 33 35  1  6  0  0  0
 33 34  1  0  0  0  0
 33 32  1  0  0  0  0
 36 33  1  0  0  0  0
 37 36  1  0  0  0  0
 38 41  1  1  0  0  0
 38 42  1  0  0  0  0
 38 44  1  0  0  0  0
 40 37  1  1  0  0  0
 42 39  1  6  0  0  0
 42 43  1  0  0  0  0
 43 40  1  0  0  0  0
 44 45  1  0  0  0  0
 45 40  1  0  0  0  0
M  END
>  <MODEL>
9

>  <REMARK>
 VINA RESULT:      -6.6      1.952      2.759
  Name = 
  16 active torsions:
  status: ('A' for Active; 'I' for Inactive)
    1  A    between atoms: N_2  and  C_4
    2  A    between atoms: N_2  and  C_22
    3  A    between atoms: C_5  and  C_16
    4  A    between atoms: C_10  and  C_19
    5  A    between atoms: C_10  and  N_44
    6  A    between atoms: C_13  and  N_36
    7  A    between atoms: C_16  and  C_41
    8  A    between atoms: C_22  and  N_31
    9  A    between atoms: C_26  and  C_27
   10  A    between atoms: C_26  and  C_41
   11  A    between atoms: C_27  and  C_37
   12  A    between atoms: C_27  and  C_38
   13  A    between atoms: C_28  and  C_32
   14  A    between atoms: C_28  and  N_44
   15  A    between atoms: N_30  and  N_31
   16  A    between atoms: N_30  and  C_32
                            x       y       z     vdW  Elec       q    Type
                         _______ _______ _______ _____ _____    ______ ____

>  <TORSDO>
F 16

$$$$
