=
 OpenBabel11062412153D

 55 58  0  0  1  0  0  0  0  0999 V2000
  186.5420  174.6160  137.2270 C   0  0  0  0  0  2  0  0  0  0  0  0
  184.0520  174.0450  136.4600 C   0  0  0  0  0  0  0  0  0  0  0  0
  183.7040  175.4320  136.9680 C   0  0  1  0  0  3  0  0  0  0  0  0
  184.7960  176.3340  137.0930 O   0  0  0  0  0  0  0  0  0  0  0  0
  185.9740  175.8390  136.4720 C   0  0  1  0  0  3  0  0  0  0  0  0
  183.5760  173.5920  135.4300 O   0  0  0  0  0  0  0  0  0  0  0  0
  185.3750  173.1860  137.3090 S   0  0  0  0  0  0  0  0  0  0  0  0
  187.3790  178.9100  137.6710 O   0  0  0  0  0  0  0  0  0  0  0  0
  187.0010  176.9640  136.3370 C   0  0  2  0  0  3  0  0  0  0  0  0
  188.1960  176.7420  137.2000 C   0  0  0  0  0  2  0  0  0  0  0  0
  186.4700  178.3160  136.7740 C   0  0  0  0  0  2  0  0  0  0  0  0
  188.5640  178.1520  137.6060 C   0  0  2  0  0  3  0  0  0  0  0  0
  188.3310  177.8400  140.0890 C   0  0  0  0  0  1  0  0  0  0  0  0
  189.2910  178.1670  138.9530 C   0  0  1  0  0  3  0  0  0  0  0  0
  190.1440  175.6460  139.3290 O   0  0  0  0  0  0  0  0  0  0  0  0
  191.2810  176.9320  137.6010 O   0  0  0  0  0  0  0  0  0  0  0  0
  190.6590  177.0090  138.9700 S   0  0  0  0  0  0  0  0  0  0  0  0
  191.6900  177.4310  141.4950 C   0  0  0  0  0  3  0  0  0  0  0  0
  191.8720  177.4710  140.1690 C   0  0  0  0  0  3  0  0  0  0  0  0
  190.4290  176.9570  142.1460 C   0  0  1  0  0  3  0  0  0  0  0  0
  190.5170  175.5870  142.4000 O   0  0  0  0  0  1  0  0  0  0  0  0
  189.4980  176.7470  145.4400 N   0  0  0  0  0  0  0  0  0  0  0  0
  189.0640  177.1610  144.1780 N   0  0  0  0  0  0  0  0  0  0  0  0
  190.1800  177.7330  143.4380 C   0  0  1  0  0  3  0  0  0  0  0  0
  191.2650  177.5710  144.3470 O   0  0  0  0  0  0  0  0  0  0  0  0
  190.7600  176.9910  145.5070 C   0  0  0  0  0  0  0  0  0  0  0  0
  191.5920  176.6490  146.6860 C   0  0  0  0  0  2  0  0  0  0  0  0
  190.9710  177.1070  147.8420 O   0  0  0  0  0  1  0  0  0  0  0  0
  187.6650  177.1770  143.7760 C   0  0  0  0  0  2  0  0  0  0  0  0
  186.8210  177.9360  144.7930 C   0  0  2  0  0  3  0  0  0  0  0  0
  186.5640  177.1380  145.9090 O   0  0  0  0  0  1  0  0  0  0  0  0
  185.5130  178.3920  144.1640 C   0  0  0  0  0  2  0  0  0  0  0  0
  184.6900  179.0980  145.1340 N   0  0  0  0  0  2  0  0  0  0  0  0
  183.3150  178.9830  144.6830 C   0  0  0  0  0  1  0  0  0  0  0  0
  182.4830  176.1060  136.3370 C   0  0  2  0  0  3  0  0  0  0  0  0
  182.8360  177.5170  135.8710 C   0  0  0  0  0  2  0  0  0  0  0  0
  182.0800  177.8580  134.5990 C   0  0  0  0  0  2  0  0  0  0  0  0
  179.5950  178.0570  134.9820 C   0  0  0  0  0  1  0  0  0  0  0  0
  180.9240  178.8110  134.9090 C   0  0  0  0  0  3  0  0  0  0  0  0
  181.1860  179.5040  136.2280 C   0  0  0  0  0  1  0  0  0  0  0  0
  181.4020  176.1410  137.2350 O   0  0  0  0  0  0  0  0  0  0  0  0
  181.5040  174.9690  138.0040 C   0  0  2  0  0  3  0  0  0  0  0  0
  180.1630  174.1930  136.3130 C   0  0  0  0  0  1  0  0  0  0  0  0
  180.5130  174.0200  137.6620 O   0  0  0  0  0  0  0  0  0  0  0  0
  181.4900  175.2770  139.5050 C   0  0  0  0  0  2  0  0  0  0  0  0
  183.9750  179.1520  141.0410 O   0  0  0  0  0  0  0  0  0  0  0  0
  180.3930  177.1590  140.7240 C   0  0  1  0  0  3  0  0  0  0  0  0
  181.6980  179.1400  141.3490 O   0  0  0  0  0  0  0  0  0  0  0  0
  181.5310  176.7730  139.7800 C   0  0  1  0  0  3  0  0  0  0  0  0
  182.8770  177.1350  140.3980 C   0  0  0  0  0  2  0  0  0  0  0  0
  180.4070  178.6700  140.9560 C   0  0  2  0  0  3  0  0  0  0  0  0
  182.8820  178.5390  140.9150 C   0  0  0  0  0  0  0  0  0  0  0  0
  179.1670  176.7900  140.1630 O   0  0  0  0  0  1  0  0  0  0  0  0
  179.3820  179.0590  142.0070 C   0  0  0  0  0  2  0  0  0  0  0  0
  179.8720  178.6430  143.3840 C   0  0  0  0  0  1  0  0  0  0  0  0
  1  7  1  0  0  0  0
  2  3  1  0  0  0  0
  2  7  1  0  0  0  0
  3 35  1  6  0  0  0
  3  4  1  0  0  0  0
  5  4  1  0  0  0  0
  5  1  1  1  0  0  0
  6  2  2  0  0  0  0
  9  5  1  0  0  0  0
  9 11  1  1  0  0  0
  9 10  1  0  0  0  0
 10 12  1  0  0  0  0
 11  8  1  0  0  0  0
 12  8  1  0  0  0  0
 12 14  1  1  0  0  0
 14 17  1  0  0  0  0
 14 13  1  1  0  0  0
 16 17  2  0  0  0  0
 17 15  2  0  0  0  0
 17 19  1  0  0  0  0
 18 20  1  0  0  0  0
 19 18  2  0  0  0  0
 20 21  1  1  0  0  0
 22 26  2  0  0  0  0
 23 22  1  0  0  0  0
 24 20  1  6  0  0  0
 24 23  1  0  0  0  0
 24 25  1  0  0  0  0
 25 26  1  0  0  0  0
 26 27  1  0  0  0  0
 27 28  1  0  0  0  0
 29 23  1  0  0  0  0
 29 30  1  0  0  0  0
 30 31  1  1  0  0  0
 32 30  1  0  0  0  0
 32 33  1  0  0  0  0
 34 33  1  0  0  0  0
 35 36  1  1  0  0  0
 35 41  1  0  0  0  0
 37 39  1  0  0  0  0
 37 36  1  0  0  0  0
 39 38  1  0  0  0  0
 39 40  1  0  0  0  0
 41 42  1  0  0  0  0
 42 45  1  1  0  0  0
 43 44  1  0  0  0  0
 44 42  1  0  0  0  0
 47 53  1  6  0  0  0
 47 51  1  0  0  0  0
 49 45  1  1  0  0  0
 49 50  1  0  0  0  0
 49 47  1  0  0  0  0
 50 52  1  0  0  0  0
 51 48  1  0  0  0  0
 51 54  1  1  0  0  0
 52 46  2  0  0  0  0
 52 48  1  0  0  0  0
 54 55  1  0  0  0  0
M  END
>  <MODEL>
1

>  <REMARK>
 VINA RESULT:      -6.6      0.000      0.000
  Name = 
  21 active torsions:
  status: ('A' for Active; 'I' for Inactive)
    1  A    between atoms: C_2  and  C_9
    2  A    between atoms: N_7  and  C_38
    3  A    between atoms: C_9  and  C_43
    4  A    between atoms: C_10  and  C_44
    5  A    between atoms: C_11  and  C_25
    6  A    between atoms: C_12  and  C_23
    7  A    between atoms: C_12  and  C_25
    8  A    between atoms: N_13  and  C_21
    9  A    between atoms: C_16  and  S_34
   10  A    between atoms: C_16  and  C_52
   11  A    between atoms: C_21  and  C_28
   12  A    between atoms: C_23  and  C_42
   13  A    between atoms: O_24  and  C_25
   14  A    between atoms: O_24  and  C_37
   15  A    between atoms: C_26  and  C_30
   16  A    between atoms: C_28  and  C_38
   17  A    between atoms: C_29  and  C_55
   18  A    between atoms: C_32  and  C_46
   19  A    between atoms: S_34  and  C_54
   20  A    between atoms: C_37  and  O_39
   21  A    between atoms: C_37  and  C_46
                            x       y       z     vdW  Elec       q    Type
                         _______ _______ _______ _____ _____    ______ ____

>  <TORSDO>
F 21

$$$$
=
 OpenBabel11062412153D

 55 58  0  0  1  0  0  0  0  0999 V2000
  184.0700  178.5890  145.3310 C   0  0  0  0  0  2  0  0  0  0  0  0
  186.5290  178.2130  146.2930 C   0  0  0  0  0  0  0  0  0  0  0  0
  186.7940  177.4720  144.9960 C   0  0  1  0  0  3  0  0  0  0  0  0
  185.9030  177.7610  143.9270 O   0  0  0  0  0  0  0  0  0  0  0  0
  185.0830  178.8880  144.2030 C   0  0  1  0  0  3  0  0  0  0  0  0
  187.3540  178.9600  146.7950 O   0  0  0  0  0  0  0  0  0  0  0  0
  184.8580  178.1340  146.9370 S   0  0  0  0  0  0  0  0  0  0  0  0
  183.7570  178.1580  140.9540 O   0  0  0  0  0  0  0  0  0  0  0  0
  184.3990  179.3580  142.9180 C   0  0  2  0  0  3  0  0  0  0  0  0
  182.9270  179.1230  142.9460 C   0  0  0  0  0  2  0  0  0  0  0  0
  184.8720  178.6190  141.6810 C   0  0  0  0  0  2  0  0  0  0  0  0
  182.6270  178.7970  141.5000 C   0  0  2  0  0  3  0  0  0  0  0  0
  180.1360  178.6570  141.7980 C   0  0  0  0  0  1  0  0  0  0  0  0
  181.3900  177.9030  141.3790 C   0  0  1  0  0  3  0  0  0  0  0  0
  179.7550  176.9100  139.4900 O   0  0  0  0  0  0  0  0  0  0  0  0
  181.5500  178.3650  138.7190 O   0  0  0  0  0  0  0  0  0  0  0  0
  181.1910  177.2870  139.7080 S   0  0  0  0  0  0  0  0  0  0  0  0
  182.4390  175.3160  138.2330 C   0  0  0  0  0  3  0  0  0  0  0  0
  182.1840  175.8510  139.4340 C   0  0  0  0  0  3  0  0  0  0  0  0
  181.9330  175.8860  136.9450 C   0  0  1  0  0  3  0  0  0  0  0  0
  182.9090  176.7110  136.3820 O   0  0  0  0  0  1  0  0  0  0  0  0
  182.1520  172.5270  136.2920 N   0  0  0  0  0  0  0  0  0  0  0  0
  182.6230  173.7790  135.8880 N   0  0  0  0  0  0  0  0  0  0  0  0
  181.5520  174.7620  135.9850 C   0  0  1  0  0  3  0  0  0  0  0  0
  180.4750  173.9890  136.5060 O   0  0  0  0  0  0  0  0  0  0  0  0
  180.9220  172.6790  136.6420 C   0  0  0  0  0  0  0  0  0  0  0  0
  180.0870  171.5740  137.1730 C   0  0  0  0  0  2  0  0  0  0  0  0
  180.0110  170.5540  136.2330 O   0  0  0  0  0  1  0  0  0  0  0  0
  183.9320  173.9880  135.2890 C   0  0  0  0  0  2  0  0  0  0  0  0
  185.0370  173.5420  136.2380 C   0  0  2  0  0  3  0  0  0  0  0  0
  185.4380  174.6020  137.0550 O   0  0  0  0  0  1  0  0  0  0  0  0
  186.2270  173.0060  135.4570 C   0  0  0  0  0  2  0  0  0  0  0  0
  187.4790  173.3810  136.0960 N   0  0  0  0  0  2  0  0  0  0  0  0
  187.8690  172.2700  136.9450 C   0  0  0  0  0  1  0  0  0  0  0  0
  188.2490  177.4220  144.5220 C   0  0  2  0  0  3  0  0  0  0  0  0
  189.1910  177.8290  145.6540 C   0  0  0  0  0  2  0  0  0  0  0  0
  189.6230  176.6080  146.4470 C   0  0  0  0  0  2  0  0  0  0  0  0
  191.5560  175.4970  147.6270 C   0  0  0  0  0  1  0  0  0  0  0  0
  191.1020  176.7160  146.8220 C   0  0  0  0  0  3  0  0  0  0  0  0
  191.9310  176.8290  145.5620 C   0  0  0  0  0  1  0  0  0  0  0  0
  188.4470  178.2440  143.3990 O   0  0  0  0  0  0  0  0  0  0  0  0
  188.9280  177.3980  142.3850 C   0  0  2  0  0  3  0  0  0  0  0  0
  191.1990  177.6960  142.4910 C   0  0  0  0  0  1  0  0  0  0  0  0
  190.1550  176.7890  142.7370 O   0  0  0  0  0  0  0  0  0  0  0  0
  189.0310  178.1290  141.0430 C   0  0  0  0  0  2  0  0  0  0  0  0
  190.7320  174.9060  137.8380 O   0  0  0  0  0  0  0  0  0  0  0  0
  188.1530  177.9880  138.7100 C   0  0  1  0  0  3  0  0  0  0  0  0
  188.9760  176.2410  137.1950 O   0  0  0  0  0  0  0  0  0  0  0  0
  188.7700  177.2010  139.8660 C   0  0  1  0  0  3  0  0  0  0  0  0
  190.0830  176.5610  139.4290 C   0  0  0  0  0  2  0  0  0  0  0  0
  187.8450  177.0410  137.5500 C   0  0  2  0  0  3  0  0  0  0  0  0
  189.9320  175.8350  138.1290 C   0  0  0  0  0  0  0  0  0  0  0  0
  186.9690  178.5990  139.1330 O   0  0  0  0  0  1  0  0  0  0  0  0
  187.3720  177.8200  136.3350 C   0  0  0  0  0  2  0  0  0  0  0  0
  187.3640  176.9160  135.1130 C   0  0  0  0  0  1  0  0  0  0  0  0
  1  7  1  0  0  0  0
  2  6  2  0  0  0  0
  2  7  1  0  0  0  0
  3 35  1  6  0  0  0
  3  2  1  0  0  0  0
  4  5  1  0  0  0  0
  4  3  1  0  0  0  0
  5  1  1  1  0  0  0
  8 12  1  0  0  0  0
  8 11  1  0  0  0  0
  9 11  1  6  0  0  0
  9 10  1  0  0  0  0
  9  5  1  0  0  0  0
 12 14  1  1  0  0  0
 12 10  1  0  0  0  0
 14 13  1  6  0  0  0
 15 17  2  0  0  0  0
 16 17  2  0  0  0  0
 17 14  1  0  0  0  0
 18 19  2  0  0  0  0
 19 17  1  0  0  0  0
 20 21  1  6  0  0  0
 20 18  1  0  0  0  0
 22 26  2  0  0  0  0
 23 24  1  0  0  0  0
 23 22  1  0  0  0  0
 24 25  1  0  0  0  0
 24 20  1  1  0  0  0
 25 26  1  0  0  0  0
 26 27  1  0  0  0  0
 28 27  1  0  0  0  0
 29 23  1  0  0  0  0
 29 30  1  0  0  0  0
 30 31  1  6  0  0  0
 32 33  1  0  0  0  0
 32 30  1  0  0  0  0
 33 34  1  0  0  0  0
 35 36  1  1  0  0  0
 36 37  1  0  0  0  0
 37 39  1  0  0  0  0
 39 38  1  0  0  0  0
 40 39  1  0  0  0  0
 41 35  1  0  0  0  0
 42 45  1  6  0  0  0
 42 44  1  0  0  0  0
 42 41  1  0  0  0  0
 43 44  1  0  0  0  0
 46 52  2  0  0  0  0
 47 53  1  1  0  0  0
 47 49  1  0  0  0  0
 48 51  1  0  0  0  0
 48 52  1  0  0  0  0
 49 45  1  1  0  0  0
 50 49  1  0  0  0  0
 51 54  1  6  0  0  0
 51 47  1  0  0  0  0
 52 50  1  0  0  0  0
 55 54  1  0  0  0  0
M  END
>  <MODEL>
2

>  <REMARK>
 VINA RESULT:      -5.9      3.326     10.635
  Name = 
  21 active torsions:
  status: ('A' for Active; 'I' for Inactive)
    1  A    between atoms: C_2  and  C_9
    2  A    between atoms: N_7  and  C_38
    3  A    between atoms: C_9  and  C_43
    4  A    between atoms: C_10  and  C_44
    5  A    between atoms: C_11  and  C_25
    6  A    between atoms: C_12  and  C_23
    7  A    between atoms: C_12  and  C_25
    8  A    between atoms: N_13  and  C_21
    9  A    between atoms: C_16  and  S_34
   10  A    between atoms: C_16  and  C_52
   11  A    between atoms: C_21  and  C_28
   12  A    between atoms: C_23  and  C_42
   13  A    between atoms: O_24  and  C_25
   14  A    between atoms: O_24  and  C_37
   15  A    between atoms: C_26  and  C_30
   16  A    between atoms: C_28  and  C_38
   17  A    between atoms: C_29  and  C_55
   18  A    between atoms: C_32  and  C_46
   19  A    between atoms: S_34  and  C_54
   20  A    between atoms: C_37  and  O_39
   21  A    between atoms: C_37  and  C_46
                            x       y       z     vdW  Elec       q    Type
                         _______ _______ _______ _____ _____    ______ ____

>  <TORSDO>
F 21

$$$$
=
 OpenBabel11062412153D

 55 58  0  0  1  0  0  0  0  0999 V2000
  186.1180  178.2800  138.6800 C   0  0  0  0  0  2  0  0  0  0  0  0
  185.0060  177.4010  136.4210 C   0  0  0  0  0  0  0  0  0  0  0  0
  184.0080  176.7010  137.3250 C   0  0  1  0  0  3  0  0  0  0  0  0
  183.9100  177.2120  138.6480 O   0  0  0  0  0  0  0  0  0  0  0  0
  184.5860  178.4530  138.7940 C   0  0  1  0  0  3  0  0  0  0  0  0
  184.6690  177.9520  135.3850 O   0  0  0  0  0  0  0  0  0  0  0  0
  186.6700  177.5940  137.0570 S   0  0  0  0  0  0  0  0  0  0  0  0
  183.1480  178.2090  142.0680 O   0  0  0  0  0  0  0  0  0  0  0  0
  184.1740  179.1160  140.1090 C   0  0  2  0  0  3  0  0  0  0  0  0
  185.2070  178.9490  141.1720 C   0  0  0  0  0  2  0  0  0  0  0  0
  182.9170  178.5190  140.7130 C   0  0  0  0  0  2  0  0  0  0  0  0
  184.3640  178.8260  142.4210 C   0  0  2  0  0  3  0  0  0  0  0  0
  186.5590  177.8420  143.1490 C   0  0  0  0  0  1  0  0  0  0  0  0
  185.0870  178.0140  143.4990 C   0  0  1  0  0  3  0  0  0  0  0  0
  185.8690  179.9660  145.1750 O   0  0  0  0  0  0  0  0  0  0  0  0
  183.5330  179.2890  145.3080 O   0  0  0  0  0  0  0  0  0  0  0  0
  184.9390  178.7890  145.1090 S   0  0  0  0  0  0  0  0  0  0  0  0
  186.6340  177.3530  146.7460 C   0  0  0  0  0  3  0  0  0  0  0  0
  185.3790  177.6670  146.4010 C   0  0  0  0  0  3  0  0  0  0  0  0
  187.8460  177.9370  146.0910 C   0  0  1  0  0  3  0  0  0  0  0  0
  188.4170  178.8950  146.9310 O   0  0  0  0  0  1  0  0  0  0  0  0
  191.1610  177.1560  145.6960 N   0  0  0  0  0  0  0  0  0  0  0  0
  189.9700  177.3660  144.9970 N   0  0  0  0  0  0  0  0  0  0  0  0
  188.8500  176.8350  145.7640 C   0  0  1  0  0  3  0  0  0  0  0  0
  189.4880  176.3580  146.9450 O   0  0  0  0  0  0  0  0  0  0  0  0
  190.8540  176.5800  146.8060 C   0  0  0  0  0  0  0  0  0  0  0  0
  191.8560  176.2320  147.8430 C   0  0  0  0  0  2  0  0  0  0  0  0
  192.2780  177.3870  148.4900 O   0  0  0  0  0  1  0  0  0  0  0  0
  189.9180  177.8680  143.6320 C   0  0  0  0  0  2  0  0  0  0  0  0
  190.0590  176.7270  142.6320 C   0  0  2  0  0  3  0  0  0  0  0  0
  190.8320  175.6970  143.1710 O   0  0  0  0  0  1  0  0  0  0  0  0
  190.6820  177.2270  141.3380 C   0  0  0  0  0  2  0  0  0  0  0  0
  189.8540  176.8780  140.1950 N   0  0  0  0  0  2  0  0  0  0  0  0
  189.6160  178.1050  139.4560 C   0  0  0  0  0  1  0  0  0  0  0  0
  182.6290  176.4110  136.7270 C   0  0  2  0  0  3  0  0  0  0  0  0
  181.5640  177.2690  137.4060 C   0  0  0  0  0  2  0  0  0  0  0  0
  181.5670  178.6740  136.8270 C   0  0  0  0  0  2  0  0  0  0  0  0
  180.0010  179.1210  138.7530 C   0  0  0  0  0  1  0  0  0  0  0  0
  180.3290  179.4410  137.2930 C   0  0  0  0  0  3  0  0  0  0  0  0
  180.5730  180.9260  137.1430 C   0  0  0  0  0  1  0  0  0  0  0  0
  182.3040  175.0480  136.8350 O   0  0  0  0  0  0  0  0  0  0  0  0
  181.4810  174.7610  135.7320 C   0  0  2  0  0  3  0  0  0  0  0  0
  180.2200  173.3150  136.9880 C   0  0  0  0  0  1  0  0  0  0  0  0
  180.1650  174.4220  136.1240 O   0  0  0  0  0  0  0  0  0  0  0  0
  182.0950  173.6800  134.8370 C   0  0  0  0  0  2  0  0  0  0  0  0
  186.9140  174.2450  134.7210 O   0  0  0  0  0  0  0  0  0  0  0  0
  183.6630  171.7520  135.0770 C   0  0  1  0  0  3  0  0  0  0  0  0
  186.0850  172.1430  135.1390 O   0  0  0  0  0  0  0  0  0  0  0  0
  183.4690  173.2470  135.3260 C   0  0  1  0  0  3  0  0  0  0  0  0
  184.5400  174.0490  134.5950 C   0  0  0  0  0  2  0  0  0  0  0  0
  185.0250  171.3130  135.6180 C   0  0  2  0  0  3  0  0  0  0  0  0
  185.9080  173.4990  134.8510 C   0  0  0  0  0  0  0  0  0  0  0  0
  182.6560  171.0300  135.7230 O   0  0  0  0  0  1  0  0  0  0  0  0
  185.3050  169.8670  135.2480 C   0  0  0  0  0  2  0  0  0  0  0  0
  186.7450  169.7220  134.7880 C   0  0  0  0  0  1  0  0  0  0  0  0
  2  7  1  0  0  0  0
  2  3  1  0  0  0  0
  3 35  1  6  0  0  0
  3  4  1  0  0  0  0
  4  5  1  0  0  0  0
  5  1  1  1  0  0  0
  5  9  1  0  0  0  0
  6  2  2  0  0  0  0
  7  1  1  0  0  0  0
  8 12  1  0  0  0  0
  9 11  1  1  0  0  0
  9 10  1  0  0  0  0
 10 12  1  0  0  0  0
 11  8  1  0  0  0  0
 12 14  1  1  0  0  0
 14 13  1  6  0  0  0
 14 17  1  0  0  0  0
 17 15  2  0  0  0  0
 17 16  2  0  0  0  0
 17 19  1  0  0  0  0
 19 18  2  0  0  0  0
 20 18  1  0  0  0  0
 20 21  1  1  0  0  0
 22 26  2  0  0  0  0
 23 22  1  0  0  0  0
 23 24  1  0  0  0  0
 24 20  1  1  0  0  0
 24 25  1  0  0  0  0
 26 25  1  0  0  0  0
 26 27  1  0  0  0  0
 27 28  1  0  0  0  0
 29 23  1  0  0  0  0
 30 31  1  1  0  0  0
 30 29  1  0  0  0  0
 32 30  1  0  0  0  0
 33 32  1  0  0  0  0
 34 33  1  0  0  0  0
 35 41  1  0  0  0  0
 35 36  1  1  0  0  0
 37 39  1  0  0  0  0
 37 36  1  0  0  0  0
 39 38  1  0  0  0  0
 40 39  1  0  0  0  0
 42 45  1  1  0  0  0
 42 44  1  0  0  0  0
 42 41  1  0  0  0  0
 44 43  1  0  0  0  0
 46 52  2  0  0  0  0
 47 49  1  0  0  0  0
 47 51  1  0  0  0  0
 47 53  1  1  0  0  0
 48 51  1  0  0  0  0
 49 45  1  6  0  0  0
 50 52  1  0  0  0  0
 50 49  1  0  0  0  0
 51 54  1  6  0  0  0
 52 48  1  0  0  0  0
 55 54  1  0  0  0  0
M  END
>  <MODEL>
3

>  <REMARK>
 VINA RESULT:      -5.5      2.522      6.056
  Name = 
  21 active torsions:
  status: ('A' for Active; 'I' for Inactive)
    1  A    between atoms: C_2  and  C_9
    2  A    between atoms: N_7  and  C_38
    3  A    between atoms: C_9  and  C_43
    4  A    between atoms: C_10  and  C_44
    5  A    between atoms: C_11  and  C_25
    6  A    between atoms: C_12  and  C_23
    7  A    between atoms: C_12  and  C_25
    8  A    between atoms: N_13  and  C_21
    9  A    between atoms: C_16  and  S_34
   10  A    between atoms: C_16  and  C_52
   11  A    between atoms: C_21  and  C_28
   12  A    between atoms: C_23  and  C_42
   13  A    between atoms: O_24  and  C_25
   14  A    between atoms: O_24  and  C_37
   15  A    between atoms: C_26  and  C_30
   16  A    between atoms: C_28  and  C_38
   17  A    between atoms: C_29  and  C_55
   18  A    between atoms: C_32  and  C_46
   19  A    between atoms: S_34  and  C_54
   20  A    between atoms: C_37  and  O_39
   21  A    between atoms: C_37  and  C_46
                            x       y       z     vdW  Elec       q    Type
                         _______ _______ _______ _____ _____    ______ ____

>  <TORSDO>
F 21

$$$$
=
 OpenBabel11062412153D

 55 58  0  0  1  0  0  0  0  0999 V2000
  187.0920  175.7310  137.4040 C   0  0  0  0  0  2  0  0  0  0  0  0
  185.0770  175.0490  135.7950 C   0  0  0  0  0  0  0  0  0  0  0  0
  184.1860  175.7240  136.8210 C   0  0  1  0  0  3  0  0  0  0  0  0
  184.8330  176.6440  137.6900 O   0  0  0  0  0  0  0  0  0  0  0  0
  186.1530  176.9490  137.2600 C   0  0  1  0  0  3  0  0  0  0  0  0
  184.8890  175.1670  134.5940 O   0  0  0  0  0  0  0  0  0  0  0  0
  186.5650  174.2650  136.4130 S   0  0  0  0  0  0  0  0  0  0  0  0
  186.6310  178.7190  140.3400 O   0  0  0  0  0  0  0  0  0  0  0  0
  186.6730  178.1750  138.0130 C   0  0  2  0  0  3  0  0  0  0  0  0
  188.0260  177.9440  138.5950 C   0  0  0  0  0  2  0  0  0  0  0  0
  185.8140  178.5560  139.2040 C   0  0  0  0  0  2  0  0  0  0  0  0
  187.9620  178.7400  139.8800 C   0  0  2  0  0  3  0  0  0  0  0  0
  188.1940  177.1260  141.7920 C   0  0  0  0  0  1  0  0  0  0  0  0
  188.9080  178.1630  140.9360 C   0  0  1  0  0  3  0  0  0  0  0  0
  190.2170  175.9320  140.2040 O   0  0  0  0  0  0  0  0  0  0  0  0
  190.4670  177.8680  138.7460 O   0  0  0  0  0  0  0  0  0  0  0  0
  190.3570  177.4270  140.1810 S   0  0  0  0  0  0  0  0  0  0  0  0
  192.0080  177.6660  142.3800 C   0  0  0  0  0  3  0  0  0  0  0  0
  191.8260  177.8540  141.0670 C   0  0  0  0  0  3  0  0  0  0  0  0
  190.9900  177.0370  143.2780 C   0  0  1  0  0  3  0  0  0  0  0  0
  191.2510  175.6710  143.4000 O   0  0  0  0  0  1  0  0  0  0  0  0
  189.9950  176.8250  146.5530 N   0  0  0  0  0  0  0  0  0  0  0  0
  189.7480  177.4890  145.3490 N   0  0  0  0  0  0  0  0  0  0  0  0
  191.0030  177.7160  144.6460 C   0  0  1  0  0  3  0  0  0  0  0  0
  191.9540  177.1020  145.5120 O   0  0  0  0  0  0  0  0  0  0  0  0
  191.2640  176.6150  146.6180 C   0  0  0  0  0  0  0  0  0  0  0  0
  191.9110  175.8910  147.7390 C   0  0  0  0  0  2  0  0  0  0  0  0
  192.6770  176.7780  148.4860 O   0  0  0  0  0  1  0  0  0  0  0  0
  188.4450  178.0230  144.9810 C   0  0  0  0  0  2  0  0  0  0  0  0
  187.3280  177.1880  145.5920 C   0  0  2  0  0  3  0  0  0  0  0  0
  186.4620  176.7270  144.5980 O   0  0  0  0  0  1  0  0  0  0  0  0
  186.5560  178.0000  146.6200 C   0  0  0  0  0  2  0  0  0  0  0  0
  185.9480  179.1700  146.0080 N   0  0  0  0  0  2  0  0  0  0  0  0
  184.5160  178.9340  145.9760 C   0  0  0  0  0  1  0  0  0  0  0  0
  182.8490  176.2680  136.3140 C   0  0  2  0  0  3  0  0  0  0  0  0
  182.9960  177.7280  135.8900 C   0  0  0  0  0  2  0  0  0  0  0  0
  181.9620  178.0790  134.8330 C   0  0  0  0  0  2  0  0  0  0  0  0
  181.1290  180.4550  134.6890 C   0  0  0  0  0  1  0  0  0  0  0  0
  180.9690  179.1030  135.3850 C   0  0  0  0  0  3  0  0  0  0  0  0
  179.5590  178.5930  135.1820 C   0  0  0  0  0  1  0  0  0  0  0  0
  181.8440  176.1390  137.2890 O   0  0  0  0  0  0  0  0  0  0  0  0
  181.0380  175.0670  136.8680 C   0  0  2  0  0  3  0  0  0  0  0  0
  180.7550  173.7980  134.9790 C   0  0  0  0  0  1  0  0  0  0  0  0
  180.7770  175.1110  135.4790 O   0  0  0  0  0  0  0  0  0  0  0  0
  179.7400  174.9870  137.6790 C   0  0  0  0  0  2  0  0  0  0  0  0
  179.2220  173.7160  142.3340 O   0  0  0  0  0  0  0  0  0  0  0  0
  179.3680  176.6740  139.4810 C   0  0  1  0  0  3  0  0  0  0  0  0
  179.2480  175.9560  141.8250 O   0  0  0  0  0  0  0  0  0  0  0  0
  179.9650  175.3070  139.1490 C   0  0  1  0  0  3  0  0  0  0  0  0
  179.3180  174.2240  140.0050 C   0  0  0  0  0  2  0  0  0  0  0  0
  179.6430  177.0130  140.9460 C   0  0  2  0  0  3  0  0  0  0  0  0
  179.2930  174.6110  141.4500 C   0  0  0  0  0  0  0  0  0  0  0  0
  179.9430  177.6520  138.6650 O   0  0  0  0  0  1  0  0  0  0  0  0
  178.9310  178.2950  141.3400 C   0  0  0  0  0  2  0  0  0  0  0  0
  179.3300  178.6940  142.7510 C   0  0  0  0  0  1  0  0  0  0  0  0
  2  7  1  0  0  0  0
  2  3  1  0  0  0  0
  3 35  1  6  0  0  0
  3  4  1  0  0  0  0
  5  1  1  1  0  0  0
  5  4  1  0  0  0  0
  5  9  1  0  0  0  0
  6  2  2  0  0  0  0
  7  1  1  0  0  0  0
  9 10  1  1  0  0  0
  9 11  1  0  0  0  0
 10 12  1  0  0  0  0
 11  8  1  0  0  0  0
 12  8  1  0  0  0  0
 12 14  1  1  0  0  0
 14 13  1  6  0  0  0
 16 17  2  0  0  0  0
 17 15  2  0  0  0  0
 17 14  1  0  0  0  0
 17 19  1  0  0  0  0
 18 20  1  0  0  0  0
 19 18  2  0  0  0  0
 20 21  1  1  0  0  0
 22 26  2  0  0  0  0
 23 22  1  0  0  0  0
 24 20  1  6  0  0  0
 24 23  1  0  0  0  0
 24 25  1  0  0  0  0
 25 26  1  0  0  0  0
 26 27  1  0  0  0  0
 27 28  1  0  0  0  0
 29 23  1  0  0  0  0
 29 30  1  0  0  0  0
 30 31  1  6  0  0  0
 30 32  1  0  0  0  0
 33 32  1  0  0  0  0
 34 33  1  0  0  0  0
 35 36  1  1  0  0  0
 35 41  1  0  0  0  0
 37 39  1  0  0  0  0
 37 36  1  0  0  0  0
 38 39  1  0  0  0  0
 40 39  1  0  0  0  0
 42 41  1  0  0  0  0
 42 45  1  1  0  0  0
 43 44  1  0  0  0  0
 44 42  1  0  0  0  0
 47 53  1  6  0  0  0
 47 51  1  0  0  0  0
 49 45  1  6  0  0  0
 49 47  1  0  0  0  0
 49 50  1  0  0  0  0
 50 52  1  0  0  0  0
 51 54  1  1  0  0  0
 51 48  1  0  0  0  0
 52 48  1  0  0  0  0
 52 46  2  0  0  0  0
 54 55  1  0  0  0  0
M  END
>  <MODEL>
4

>  <REMARK>
 VINA RESULT:      -5.4      1.585      2.178
  Name = 
  21 active torsions:
  status: ('A' for Active; 'I' for Inactive)
    1  A    between atoms: C_2  and  C_9
    2  A    between atoms: N_7  and  C_38
    3  A    between atoms: C_9  and  C_43
    4  A    between atoms: C_10  and  C_44
    5  A    between atoms: C_11  and  C_25
    6  A    between atoms: C_12  and  C_23
    7  A    between atoms: C_12  and  C_25
    8  A    between atoms: N_13  and  C_21
    9  A    between atoms: C_16  and  S_34
   10  A    between atoms: C_16  and  C_52
   11  A    between atoms: C_21  and  C_28
   12  A    between atoms: C_23  and  C_42
   13  A    between atoms: O_24  and  C_25
   14  A    between atoms: O_24  and  C_37
   15  A    between atoms: C_26  and  C_30
   16  A    between atoms: C_28  and  C_38
   17  A    between atoms: C_29  and  C_55
   18  A    between atoms: C_32  and  C_46
   19  A    between atoms: S_34  and  C_54
   20  A    between atoms: C_37  and  O_39
   21  A    between atoms: C_37  and  C_46
                            x       y       z     vdW  Elec       q    Type
                         _______ _______ _______ _____ _____    ______ ____

>  <TORSDO>
F 21

$$$$
=
 OpenBabel11062412153D

 55 58  0  0  1  0  0  0  0  0999 V2000
  185.3200  178.5360  145.6610 C   0  0  0  0  0  2  0  0  0  0  0  0
  187.8450  177.6910  145.8210 C   0  0  0  0  0  0  0  0  0  0  0  0
  187.5850  177.0350  144.4780 C   0  0  1  0  0  3  0  0  0  0  0  0
  186.4870  177.5540  143.7390 O   0  0  0  0  0  0  0  0  0  0  0  0
  185.9980  178.7680  144.2910 C   0  0  1  0  0  3  0  0  0  0  0  0
  188.9000  178.2510  146.0770 O   0  0  0  0  0  0  0  0  0  0  0  0
  186.4480  177.8210  146.9360 S   0  0  0  0  0  0  0  0  0  0  0  0
  184.1240  178.6740  141.2370 O   0  0  0  0  0  0  0  0  0  0  0  0
  185.0630  179.4530  143.2920 C   0  0  2  0  0  3  0  0  0  0  0  0
  183.6350  179.0860  143.5130 C   0  0  0  0  0  2  0  0  0  0  0  0
  185.3320  179.0570  141.8520 C   0  0  0  0  0  2  0  0  0  0  0  0
  183.0870  179.0690  142.1040 C   0  0  2  0  0  3  0  0  0  0  0  0
  180.6630  178.7070  142.6640 C   0  0  0  0  0  1  0  0  0  0  0  0
  181.8930  178.1170  141.9870 C   0  0  1  0  0  3  0  0  0  0  0  0
  180.0950  177.2820  140.1700 O   0  0  0  0  0  0  0  0  0  0  0  0
  181.6650  178.9950  139.4390 O   0  0  0  0  0  0  0  0  0  0  0  0
  181.5180  177.7500  140.2730 S   0  0  0  0  0  0  0  0  0  0  0  0
  182.4810  175.9450  138.4210 C   0  0  0  0  0  3  0  0  0  0  0  0
  182.5640  176.4690  139.6500 C   0  0  0  0  0  3  0  0  0  0  0  0
  181.4980  176.3990  137.3890 C   0  0  1  0  0  3  0  0  0  0  0  0
  182.0000  177.5160  136.7200 O   0  0  0  0  0  1  0  0  0  0  0  0
  182.1540  173.1390  136.5500 N   0  0  0  0  0  0  0  0  0  0  0  0
  182.3950  174.4630  136.1720 N   0  0  0  0  0  0  0  0  0  0  0  0
  181.2030  175.2660  136.4090 C   0  0  1  0  0  3  0  0  0  0  0  0
  180.3040  174.3190  136.9780 O   0  0  0  0  0  0  0  0  0  0  0  0
  180.9520  173.0880  137.0100 C   0  0  0  0  0  0  0  0  0  0  0  0
  180.3430  171.8500  137.5520 C   0  0  0  0  0  2  0  0  0  0  0  0
  178.9590  171.9300  137.4540 O   0  0  0  0  0  1  0  0  0  0  0  0
  183.5980  174.8920  135.4760 C   0  0  0  0  0  2  0  0  0  0  0  0
  184.8080  174.0950  135.9490 C   0  0  2  0  0  3  0  0  0  0  0  0
  184.8950  174.1190  137.3430 O   0  0  0  0  0  1  0  0  0  0  0  0
  186.0840  174.6490  135.3360 C   0  0  0  0  0  2  0  0  0  0  0  0
  187.0590  174.9680  136.3670 N   0  0  0  0  0  2  0  0  0  0  0  0
  187.8870  176.0410  135.8480 C   0  0  0  0  0  1  0  0  0  0  0  0
  188.8050  176.7960  143.5850 C   0  0  2  0  0  3  0  0  0  0  0  0
  189.7200  178.0190  143.5970 C   0  0  0  0  0  2  0  0  0  0  0  0
  191.1520  177.6060  143.8910 C   0  0  0  0  0  2  0  0  0  0  0  0
  191.9680  175.2240  144.0430 C   0  0  0  0  0  1  0  0  0  0  0  0
  191.1720  176.3310  144.7360 C   0  0  0  0  0  3  0  0  0  0  0  0
  191.7910  176.6320  146.0840 C   0  0  0  0  0  1  0  0  0  0  0  0
  188.4200  176.4840  142.2700 O   0  0  0  0  0  0  0  0  0  0  0  0
  189.2080  177.2990  141.4370 C   0  0  2  0  0  3  0  0  0  0  0  0
  188.1920  178.8150  140.0490 C   0  0  0  0  0  1  0  0  0  0  0  0
  188.6980  178.6150  141.3440 O   0  0  0  0  0  0  0  0  0  0  0  0
  189.3970  176.6720  140.0520 C   0  0  0  0  0  2  0  0  0  0  0  0
  194.0990  177.8640  140.2110 O   0  0  0  0  0  0  0  0  0  0  0  0
  191.0240  175.8890  138.3270 C   0  0  1  0  0  3  0  0  0  0  0  0
  193.4060  176.4290  138.5560 O   0  0  0  0  0  0  0  0  0  0  0  0
  190.8470  176.2910  139.7910 C   0  0  1  0  0  3  0  0  0  0  0  0
  191.7470  177.4750  140.1270 C   0  0  0  0  0  2  0  0  0  0  0  0
  192.4700  175.4570  138.0840 C   0  0  2  0  0  3  0  0  0  0  0  0
  193.1500  177.2460  139.6600 C   0  0  0  0  0  0  0  0  0  0  0  0
  190.1680  174.8270  138.0220 O   0  0  0  0  0  1  0  0  0  0  0  0
  192.7080  175.1980  136.6070 C   0  0  0  0  0  2  0  0  0  0  0  0
  193.6800  176.2260  136.0520 C   0  0  0  0  0  1  0  0  0  0  0  0
  1  7  1  0  0  0  0
  2  6  2  0  0  0  0
  2  7  1  0  0  0  0
  3 35  1  6  0  0  0
  3  2  1  0  0  0  0
  4  5  1  0  0  0  0
  4  3  1  0  0  0  0
  5  1  1  1  0  0  0
  8 11  1  0  0  0  0
  8 12  1  0  0  0  0
  9 11  1  6  0  0  0
  9 10  1  0  0  0  0
  9  5  1  0  0  0  0
 12 14  1  1  0  0  0
 12 10  1  0  0  0  0
 14 13  1  6  0  0  0
 15 17  2  0  0  0  0
 16 17  2  0  0  0  0
 17 14  1  0  0  0  0
 18 19  2  0  0  0  0
 19 17  1  0  0  0  0
 20 21  1  6  0  0  0
 20 18  1  0  0  0  0
 22 26  2  0  0  0  0
 23 24  1  0  0  0  0
 23 22  1  0  0  0  0
 24 25  1  0  0  0  0
 24 20  1  1  0  0  0
 25 26  1  0  0  0  0
 26 27  1  0  0  0  0
 28 27  1  0  0  0  0
 29 30  1  0  0  0  0
 29 23  1  0  0  0  0
 30 31  1  1  0  0  0
 32 30  1  0  0  0  0
 32 33  1  0  0  0  0
 34 33  1  0  0  0  0
 35 36  1  6  0  0  0
 36 37  1  0  0  0  0
 37 39  1  0  0  0  0
 38 39  1  0  0  0  0
 39 40  1  0  0  0  0
 41 35  1  0  0  0  0
 42 45  1  6  0  0  0
 42 41  1  0  0  0  0
 43 44  1  0  0  0  0
 44 42  1  0  0  0  0
 47 53  1  1  0  0  0
 47 49  1  0  0  0  0
 48 52  1  0  0  0  0
 49 45  1  6  0  0  0
 49 50  1  0  0  0  0
 51 54  1  6  0  0  0
 51 47  1  0  0  0  0
 51 48  1  0  0  0  0
 52 50  1  0  0  0  0
 52 46  2  0  0  0  0
 55 54  1  0  0  0  0
M  END
>  <MODEL>
5

>  <REMARK>
 VINA RESULT:      -5.4      3.342     10.821
  Name = 
  21 active torsions:
  status: ('A' for Active; 'I' for Inactive)
    1  A    between atoms: C_2  and  C_9
    2  A    between atoms: N_7  and  C_38
    3  A    between atoms: C_9  and  C_43
    4  A    between atoms: C_10  and  C_44
    5  A    between atoms: C_11  and  C_25
    6  A    between atoms: C_12  and  C_23
    7  A    between atoms: C_12  and  C_25
    8  A    between atoms: N_13  and  C_21
    9  A    between atoms: C_16  and  S_34
   10  A    between atoms: C_16  and  C_52
   11  A    between atoms: C_21  and  C_28
   12  A    between atoms: C_23  and  C_42
   13  A    between atoms: O_24  and  C_25
   14  A    between atoms: O_24  and  C_37
   15  A    between atoms: C_26  and  C_30
   16  A    between atoms: C_28  and  C_38
   17  A    between atoms: C_29  and  C_55
   18  A    between atoms: C_32  and  C_46
   19  A    between atoms: S_34  and  C_54
   20  A    between atoms: C_37  and  O_39
   21  A    between atoms: C_37  and  C_46
                            x       y       z     vdW  Elec       q    Type
                         _______ _______ _______ _____ _____    ______ ____

>  <TORSDO>
F 21

$$$$
=
 OpenBabel11062412153D

 55 58  0  0  1  0  0  0  0  0999 V2000
  183.1460  178.8870  142.8060 C   0  0  0  0  0  2  0  0  0  0  0  0
  181.0090  178.8840  141.2100 C   0  0  0  0  0  0  0  0  0  0  0  0
  181.9380  179.4700  140.1630 C   0  0  1  0  0  3  0  0  0  0  0  0
  183.3270  179.2690  140.3890 O   0  0  0  0  0  0  0  0  0  0  0  0
  183.5700  178.3310  141.4280 C   0  0  1  0  0  3  0  0  0  0  0  0
  180.1710  178.0390  140.9360 O   0  0  0  0  0  0  0  0  0  0  0  0
  181.3520  179.3090  142.9170 S   0  0  0  0  0  0  0  0  0  0  0  0
  187.0370  179.1160  141.8870 O   0  0  0  0  0  0  0  0  0  0  0  0
  185.0380  177.9000  141.4040 C   0  0  2  0  0  3  0  0  0  0  0  0
  185.5330  177.5120  142.7560 C   0  0  0  0  0  2  0  0  0  0  0  0
  185.9800  179.0040  140.9630 C   0  0  0  0  0  2  0  0  0  0  0  0
  186.9710  177.9790  142.7160 C   0  0  2  0  0  3  0  0  0  0  0  0
  186.7430  177.4900  145.1710 C   0  0  0  0  0  1  0  0  0  0  0  0
  187.4860  178.3050  144.1210 C   0  0  1  0  0  3  0  0  0  0  0  0
  189.9870  179.0100  143.4320 O   0  0  0  0  0  0  0  0  0  0  0  0
  189.6830  178.1480  145.6890 O   0  0  0  0  0  0  0  0  0  0  0  0
  189.2470  177.9980  144.2560 S   0  0  0  0  0  0  0  0  0  0  0  0
  190.0080  176.1110  142.3910 C   0  0  0  0  0  3  0  0  0  0  0  0
  189.6630  176.3890  143.6550 C   0  0  0  0  0  3  0  0  0  0  0  0
  190.1150  177.1430  141.3140 C   0  0  1  0  0  3  0  0  0  0  0  0
  191.3780  177.7370  141.3550 O   0  0  0  0  0  1  0  0  0  0  0  0
  190.7840  177.2880  137.9540 N   0  0  0  0  0  0  0  0  0  0  0  0
  189.7920  177.5250  138.9080 N   0  0  0  0  0  0  0  0  0  0  0  0
  189.8590  176.5080  139.9490 C   0  0  1  0  0  3  0  0  0  0  0  0
  190.9720  175.7200  139.5360 O   0  0  0  0  0  0  0  0  0  0  0  0
  191.4440  176.2520  138.3400 C   0  0  0  0  0  0  0  0  0  0  0  0
  192.6120  175.7130  137.6020 C   0  0  0  0  0  2  0  0  0  0  0  0
  193.7400  176.4690  137.8980 O   0  0  0  0  0  1  0  0  0  0  0  0
  188.7510  178.5300  138.7520 C   0  0  0  0  0  2  0  0  0  0  0  0
  188.2580  178.5750  137.3110 C   0  0  2  0  0  3  0  0  0  0  0  0
  187.0900  179.3350  137.2170 O   0  0  0  0  0  1  0  0  0  0  0  0
  188.0090  177.1690  136.7890 C   0  0  0  0  0  2  0  0  0  0  0  0
  186.5860  176.9220  136.6200 N   0  0  0  0  0  2  0  0  0  0  0  0
  186.3610  175.5210  136.9270 C   0  0  0  0  0  1  0  0  0  0  0  0
  181.5620  179.2240  138.7000 C   0  0  2  0  0  3  0  0  0  0  0  0
  180.5150  180.2380  138.2430 C   0  0  0  0  0  2  0  0  0  0  0  0
  180.8470  180.7510  136.8530 C   0  0  0  0  0  2  0  0  0  0  0  0
  181.1030  183.1620  137.5490 C   0  0  0  0  0  1  0  0  0  0  0  0
  180.3220  182.1770  136.6760 C   0  0  0  0  0  3  0  0  0  0  0  0
  180.4450  182.5800  135.2230 C   0  0  0  0  0  1  0  0  0  0  0  0
  181.0920  177.9130  138.5090 O   0  0  0  0  0  0  0  0  0  0  0  0
  182.2070  177.1630  138.0960 C   0  0  2  0  0  3  0  0  0  0  0  0
  183.0950  177.6210  136.0320 C   0  0  0  0  0  1  0  0  0  0  0  0
  183.1490  177.9520  137.3960 O   0  0  0  0  0  0  0  0  0  0  0  0
  181.7890  175.9350  137.2810 C   0  0  0  0  0  2  0  0  0  0  0  0
  179.4120  174.3030  141.1830 O   0  0  0  0  0  0  0  0  0  0  0  0
  180.3610  173.8890  137.2040 C   0  0  1  0  0  3  0  0  0  0  0  0
  179.0880  173.2090  139.1890 O   0  0  0  0  0  0  0  0  0  0  0  0
  180.5640  175.2510  137.8670 C   0  0  1  0  0  3  0  0  0  0  0  0
  180.7500  175.0850  139.3710 C   0  0  0  0  0  2  0  0  0  0  0  0
  179.0980  173.2290  137.7590 C   0  0  2  0  0  3  0  0  0  0  0  0
  179.6940  174.2040  139.9600 C   0  0  0  0  0  0  0  0  0  0  0  0
  180.2270  174.0510  135.8220 O   0  0  0  0  0  1  0  0  0  0  0  0
  178.9580  171.8140  137.2290 C   0  0  0  0  0  2  0  0  0  0  0  0
  179.8930  171.6100  136.0490 C   0  0  0  0  0  1  0  0  0  0  0  0
  1  7  1  0  0  0  0
  2  7  1  0  0  0  0
  3 35  1  6  0  0  0
  3  4  1  0  0  0  0
  3  2  1  0  0  0  0
  4  5  1  0  0  0  0
  5  1  1  1  0  0  0
  6  2  2  0  0  0  0
  8 12  1  0  0  0  0
  9 11  1  1  0  0  0
  9  5  1  0  0  0  0
  9 10  1  0  0  0  0
 11  8  1  0  0  0  0
 12 10  1  0  0  0  0
 12 14  1  1  0  0  0
 14 17  1  0  0  0  0
 14 13  1  1  0  0  0
 15 17  2  0  0  0  0
 17 16  2  0  0  0  0
 18 19  2  0  0  0  0
 19 17  1  0  0  0  0
 20 21  1  6  0  0  0
 20 18  1  0  0  0  0
 22 26  2  0  0  0  0
 22 23  1  0  0  0  0
 23 24  1  0  0  0  0
 24 20  1  1  0  0  0
 25 24  1  0  0  0  0
 26 25  1  0  0  0  0
 27 28  1  0  0  0  0
 27 26  1  0  0  0  0
 29 23  1  0  0  0  0
 30 31  1  1  0  0  0
 30 29  1  0  0  0  0
 32 30  1  0  0  0  0
 33 32  1  0  0  0  0
 33 34  1  0  0  0  0
 35 36  1  1  0  0  0
 37 36  1  0  0  0  0
 39 37  1  0  0  0  0
 39 38  1  0  0  0  0
 40 39  1  0  0  0  0
 41 35  1  0  0  0  0
 42 45  1  6  0  0  0
 42 41  1  0  0  0  0
 43 44  1  0  0  0  0
 44 42  1  0  0  0  0
 47 53  1  6  0  0  0
 47 51  1  0  0  0  0
 47 49  1  0  0  0  0
 48 52  1  0  0  0  0
 49 45  1  6  0  0  0
 49 50  1  0  0  0  0
 50 52  1  0  0  0  0
 51 54  1  6  0  0  0
 51 48  1  0  0  0  0
 52 46  2  0  0  0  0
 55 54  1  0  0  0  0
M  END
>  <MODEL>
6

>  <REMARK>
 VINA RESULT:      -5.1      2.838      6.093
  Name = 
  21 active torsions:
  status: ('A' for Active; 'I' for Inactive)
    1  A    between atoms: C_2  and  C_9
    2  A    between atoms: N_7  and  C_38
    3  A    between atoms: C_9  and  C_43
    4  A    between atoms: C_10  and  C_44
    5  A    between atoms: C_11  and  C_25
    6  A    between atoms: C_12  and  C_23
    7  A    between atoms: C_12  and  C_25
    8  A    between atoms: N_13  and  C_21
    9  A    between atoms: C_16  and  S_34
   10  A    between atoms: C_16  and  C_52
   11  A    between atoms: C_21  and  C_28
   12  A    between atoms: C_23  and  C_42
   13  A    between atoms: O_24  and  C_25
   14  A    between atoms: O_24  and  C_37
   15  A    between atoms: C_26  and  C_30
   16  A    between atoms: C_28  and  C_38
   17  A    between atoms: C_29  and  C_55
   18  A    between atoms: C_32  and  C_46
   19  A    between atoms: S_34  and  C_54
   20  A    between atoms: C_37  and  O_39
   21  A    between atoms: C_37  and  C_46
                            x       y       z     vdW  Elec       q    Type
                         _______ _______ _______ _____ _____    ______ ____

>  <TORSDO>
F 21

$$$$
=
 OpenBabel11062412153D

 55 58  0  0  1  0  0  0  0  0999 V2000
  184.9950  176.4430  135.2280 C   0  0  0  0  0  2  0  0  0  0  0  0
  182.5480  177.1820  135.9900 C   0  0  0  0  0  0  0  0  0  0  0  0
  182.3610  175.7290  136.3840 C   0  0  1  0  0  3  0  0  0  0  0  0
  183.5560  174.9830  136.5760 O   0  0  0  0  0  0  0  0  0  0  0  0
  184.7070  175.8150  136.6110 C   0  0  1  0  0  3  0  0  0  0  0  0
  182.1270  178.1010  136.6760 O   0  0  0  0  0  0  0  0  0  0  0  0
  183.6240  177.5050  134.5940 S   0  0  0  0  0  0  0  0  0  0  0  0
  187.6480  173.8570  136.0130 O   0  0  0  0  0  0  0  0  0  0  0  0
  185.9010  175.0260  137.1500 C   0  0  2  0  0  3  0  0  0  0  0  0
  187.1460  175.8460  137.1880 C   0  0  0  0  0  2  0  0  0  0  0  0
  186.2670  173.8310  136.2890 C   0  0  0  0  0  2  0  0  0  0  0  0
  188.2130  174.8230  136.8680 C   0  0  2  0  0  3  0  0  0  0  0  0
  189.0020  176.6180  135.2960 C   0  0  0  0  0  1  0  0  0  0  0  0
  189.4300  175.4800  136.2120 C   0  0  1  0  0  3  0  0  0  0  0  0
  190.7590  175.0600  138.5110 O   0  0  0  0  0  0  0  0  0  0  0  0
  191.9200  176.3530  136.8050 O   0  0  0  0  0  0  0  0  0  0  0  0
  190.5800  176.0970  137.4410 S   0  0  0  0  0  0  0  0  0  0  0  0
  190.2240  177.9410  139.4630 C   0  0  0  0  0  3  0  0  0  0  0  0
  189.9720  177.5720  138.2000 C   0  0  0  0  0  3  0  0  0  0  0  0
  191.0860  177.1570  140.4010 C   0  0  1  0  0  3  0  0  0  0  0  0
  192.4300  177.3860  140.1060 O   0  0  0  0  0  1  0  0  0  0  0  0
  190.0130  176.0340  143.4580 N   0  0  0  0  0  0  0  0  0  0  0  0
  189.6310  176.7890  142.3470 N   0  0  0  0  0  0  0  0  0  0  0  0
  190.7750  177.5400  141.8460 C   0  0  1  0  0  3  0  0  0  0  0  0
  191.8200  177.1230  142.7210 O   0  0  0  0  0  0  0  0  0  0  0  0
  191.2700  176.2430  143.6470 C   0  0  0  0  0  0  0  0  0  0  0  0
  192.0510  175.5790  144.7180 C   0  0  0  0  0  2  0  0  0  0  0  0
  192.4250  174.3070  144.3010 O   0  0  0  0  0  1  0  0  0  0  0  0
  188.2510  176.9240  141.9040 C   0  0  0  0  0  2  0  0  0  0  0  0
  187.6050  178.1570  142.5250 C   0  0  2  0  0  3  0  0  0  0  0  0
  186.7190  177.7870  143.5390 O   0  0  0  0  0  1  0  0  0  0  0  0
  186.8750  178.9670  141.4640 C   0  0  0  0  0  2  0  0  0  0  0  0
  185.4380  178.7620  141.5530 N   0  0  0  0  0  2  0  0  0  0  0  0
  184.9080  178.9040  140.2090 C   0  0  0  0  0  1  0  0  0  0  0  0
  181.3340  175.4450  137.4830 C   0  0  2  0  0  3  0  0  0  0  0  0
  180.0270  174.9420  136.8720 C   0  0  0  0  0  2  0  0  0  0  0  0
  180.2990  173.8060  135.9020 C   0  0  0  0  0  2  0  0  0  0  0  0
  179.3650  171.4730  135.6850 C   0  0  0  0  0  1  0  0  0  0  0  0
  180.1000  172.4580  136.5960 C   0  0  0  0  0  3  0  0  0  0  0  0
  181.4480  171.8860  136.9780 C   0  0  0  0  0  1  0  0  0  0  0  0
  181.1010  176.5860  138.2690 O   0  0  0  0  0  0  0  0  0  0  0  0
  180.3940  176.1360  139.3990 C   0  0  2  0  0  3  0  0  0  0  0  0
  179.6250  174.3470  140.6100 C   0  0  0  0  0  1  0  0  0  0  0  0
  180.2710  174.7270  139.4220 O   0  0  0  0  0  0  0  0  0  0  0  0
  179.0280  176.8190  139.5170 C   0  0  0  0  0  2  0  0  0  0  0  0
  180.2510  181.5120  139.3340 O   0  0  0  0  0  0  0  0  0  0  0  0
  179.9350  178.0320  141.5020 C   0  0  1  0  0  3  0  0  0  0  0  0
  180.4030  180.4370  141.3590 O   0  0  0  0  0  0  0  0  0  0  0  0
  179.1240  178.1680  140.2140 C   0  0  1  0  0  3  0  0  0  0  0  0
  179.7830  179.1740  139.2770 C   0  0  0  0  0  2  0  0  0  0  0  0
  179.9830  179.3800  142.2240 C   0  0  2  0  0  3  0  0  0  0  0  0
  180.1260  180.4440  139.9890 C   0  0  0  0  0  0  0  0  0  0  0  0
  179.3410  177.0820  142.3370 O   0  0  0  0  0  1  0  0  0  0  0  0
  180.9070  179.3080  143.4270 C   0  0  0  0  0  2  0  0  0  0  0  0
  182.3260  179.0140  142.9690 C   0  0  0  0  0  1  0  0  0  0  0  0
  2  3  1  0  0  0  0
  2  6  2  0  0  0  0
  3  4  1  0  0  0  0
  3 35  1  1  0  0  0
  4  5  1  0  0  0  0
  5  1  1  6  0  0  0
  5  9  1  0  0  0  0
  7  1  1  0  0  0  0
  7  2  1  0  0  0  0
  8 11  1  0  0  0  0
  8 12  1  0  0  0  0
  9 11  1  6  0  0  0
  9 10  1  0  0  0  0
 12 14  1  6  0  0  0
 12 10  1  0  0  0  0
 14 13  1  1  0  0  0
 14 17  1  0  0  0  0
 16 17  2  0  0  0  0
 17 19  1  0  0  0  0
 17 15  2  0  0  0  0
 18 20  1  0  0  0  0
 19 18  2  0  0  0  0
 20 21  1  6  0  0  0
 22 26  2  0  0  0  0
 23 22  1  0  0  0  0
 24 20  1  6  0  0  0
 24 23  1  0  0  0  0
 24 25  1  0  0  0  0
 25 26  1  0  0  0  0
 26 27  1  0  0  0  0
 28 27  1  0  0  0  0
 29 23  1  0  0  0  0
 29 30  1  0  0  0  0
 30 31  1  1  0  0  0
 32 33  1  0  0  0  0
 32 30  1  0  0  0  0
 34 33  1  0  0  0  0
 35 36  1  6  0  0  0
 35 41  1  0  0  0  0
 37 39  1  0  0  0  0
 37 36  1  0  0  0  0
 38 39  1  0  0  0  0
 39 40  1  0  0  0  0
 41 42  1  0  0  0  0
 42 44  1  0  0  0  0
 42 45  1  6  0  0  0
 44 43  1  0  0  0  0
 46 52  2  0  0  0  0
 47 51  1  0  0  0  0
 47 53  1  1  0  0  0
 48 51  1  0  0  0  0
 49 45  1  6  0  0  0
 49 47  1  0  0  0  0
 50 52  1  0  0  0  0
 50 49  1  0  0  0  0
 51 54  1  1  0  0  0
 52 48  1  0  0  0  0
 55 54  1  0  0  0  0
M  END
>  <MODEL>
7

>  <REMARK>
 VINA RESULT:      -5.1      2.178      3.404
  Name = 
  21 active torsions:
  status: ('A' for Active; 'I' for Inactive)
    1  A    between atoms: C_2  and  C_9
    2  A    between atoms: N_7  and  C_38
    3  A    between atoms: C_9  and  C_43
    4  A    between atoms: C_10  and  C_44
    5  A    between atoms: C_11  and  C_25
    6  A    between atoms: C_12  and  C_23
    7  A    between atoms: C_12  and  C_25
    8  A    between atoms: N_13  and  C_21
    9  A    between atoms: C_16  and  S_34
   10  A    between atoms: C_16  and  C_52
   11  A    between atoms: C_21  and  C_28
   12  A    between atoms: C_23  and  C_42
   13  A    between atoms: O_24  and  C_25
   14  A    between atoms: O_24  and  C_37
   15  A    between atoms: C_26  and  C_30
   16  A    between atoms: C_28  and  C_38
   17  A    between atoms: C_29  and  C_55
   18  A    between atoms: C_32  and  C_46
   19  A    between atoms: S_34  and  C_54
   20  A    between atoms: C_37  and  O_39
   21  A    between atoms: C_37  and  C_46
                            x       y       z     vdW  Elec       q    Type
                         _______ _______ _______ _____ _____    ______ ____

>  <TORSDO>
F 21

$$$$
=
 OpenBabel11062412153D

 55 58  0  0  1  0  0  0  0  0999 V2000
  186.1470  177.8310  147.4370 C   0  0  0  0  0  2  0  0  0  0  0  0
  188.8090  177.9790  147.4040 C   0  0  0  0  0  0  0  0  0  0  0  0
  188.7340  176.9600  146.2820 C   0  0  1  0  0  3  0  0  0  0  0  0
  187.4810  176.8660  145.6170 O   0  0  0  0  0  0  0  0  0  0  0  0
  186.6090  177.9330  145.9650 C   0  0  1  0  0  3  0  0  0  0  0  0
  189.5950  178.9140  147.3800 O   0  0  0  0  0  0  0  0  0  0  0  0
  187.5310  177.8930  148.6570 S   0  0  0  0  0  0  0  0  0  0  0  0
  184.5280  179.7830  143.7080 O   0  0  0  0  0  0  0  0  0  0  0  0
  185.4320  177.9800  144.9900 C   0  0  2  0  0  3  0  0  0  0  0  0
  185.8700  177.8410  143.5710 C   0  0  0  0  0  2  0  0  0  0  0  0
  184.6790  179.2960  145.0210 C   0  0  0  0  0  2  0  0  0  0  0  0
  184.8870  178.7300  142.8440 C   0  0  2  0  0  3  0  0  0  0  0  0
  186.8450  178.6420  141.2710 C   0  0  0  0  0  1  0  0  0  0  0  0
  185.4890  179.2770  141.5470 C   0  0  1  0  0  3  0  0  0  0  0  0
  184.3260  180.2470  139.3250 O   0  0  0  0  0  0  0  0  0  0  0  0
  184.9460  177.8920  139.2880 O   0  0  0  0  0  0  0  0  0  0  0  0
  184.3980  178.9960  140.1520 S   0  0  0  0  0  0  0  0  0  0  0  0
  182.0380  177.5680  140.2360 C   0  0  0  0  0  3  0  0  0  0  0  0
  182.7620  178.5980  140.6910 C   0  0  0  0  0  3  0  0  0  0  0  0
  182.5330  176.5890  139.2190 C   0  0  1  0  0  3  0  0  0  0  0  0
  182.2940  175.2880  139.6640 O   0  0  0  0  0  1  0  0  0  0  0  0
  181.4490  175.1690  136.2920 N   0  0  0  0  0  0  0  0  0  0  0  0
  182.4340  175.9970  136.8370 N   0  0  0  0  0  0  0  0  0  0  0  0
  181.8520  176.8360  137.8750 C   0  0  1  0  0  3  0  0  0  0  0  0
  180.4970  176.3940  137.9010 O   0  0  0  0  0  0  0  0  0  0  0  0
  180.3530  175.4170  136.9210 C   0  0  0  0  0  0  0  0  0  0  0  0
  179.0830  174.7000  136.6520 C   0  0  0  0  0  2  0  0  0  0  0  0
  179.3520  173.3660  136.3720 O   0  0  0  0  0  1  0  0  0  0  0  0
  183.7790  176.1090  136.2930 C   0  0  0  0  0  2  0  0  0  0  0  0
  184.7380  175.1820  137.0300 C   0  0  2  0  0  3  0  0  0  0  0  0
  186.0140  175.7440  137.0890 O   0  0  0  0  0  1  0  0  0  0  0  0
  184.7970  173.8240  136.3480 C   0  0  0  0  0  2  0  0  0  0  0  0
  185.7500  172.9500  137.0140 N   0  0  0  0  0  2  0  0  0  0  0  0
  186.4590  172.2280  135.9720 C   0  0  0  0  0  1  0  0  0  0  0  0
  189.9020  176.9430  145.2930 C   0  0  2  0  0  3  0  0  0  0  0  0
  191.2310  177.0370  146.0390 C   0  0  0  0  0  2  0  0  0  0  0  0
  191.4340  175.8140  146.9160 C   0  0  0  0  0  2  0  0  0  0  0  0
  192.2250  177.3250  148.7740 C   0  0  0  0  0  1  0  0  0  0  0  0
  192.5350  176.0780  147.9450 C   0  0  0  0  0  3  0  0  0  0  0  0
  192.6630  174.8800  148.8600 C   0  0  0  0  0  1  0  0  0  0  0  0
  189.7900  177.9840  144.3560 O   0  0  0  0  0  0  0  0  0  0  0  0
  190.7410  177.7050  143.3580 C   0  0  2  0  0  3  0  0  0  0  0  0
  191.5600  179.7570  143.9740 C   0  0  0  0  0  1  0  0  0  0  0  0
  191.9150  178.4790  143.5120 O   0  0  0  0  0  0  0  0  0  0  0  0
  190.1480  177.8610  141.9550 C   0  0  0  0  0  2  0  0  0  0  0  0
  194.3870  176.8230  139.8330 O   0  0  0  0  0  0  0  0  0  0  0  0
  190.3120  177.2830  139.5320 C   0  0  1  0  0  3  0  0  0  0  0  0
  192.4770  176.6420  138.5700 O   0  0  0  0  0  0  0  0  0  0  0  0
  190.9240  177.0660  140.9160 C   0  0  1  0  0  3  0  0  0  0  0  0
  192.3820  177.5110  140.9250 C   0  0  0  0  0  2  0  0  0  0  0  0
  191.0630  176.4400  138.5000 C   0  0  2  0  0  3  0  0  0  0  0  0
  193.1360  176.9450  139.7640 C   0  0  0  0  0  0  0  0  0  0  0  0
  188.9670  176.9040  139.5450 O   0  0  0  0  0  1  0  0  0  0  0  0
  190.5730  176.7520  137.0970 C   0  0  0  0  0  2  0  0  0  0  0  0
  190.9980  175.6470  136.1450 C   0  0  0  0  0  1  0  0  0  0  0  0
  1  7  1  0  0  0  0
  2  7  1  0  0  0  0
  3 35  1  6  0  0  0
  3  2  1  0  0  0  0
  4  5  1  0  0  0  0
  4  3  1  0  0  0  0
  5  1  1  1  0  0  0
  6  2  2  0  0  0  0
  8 11  1  0  0  0  0
  9 10  1  6  0  0  0
  9 11  1  0  0  0  0
  9  5  1  0  0  0  0
 12 14  1  6  0  0  0
 12 10  1  0  0  0  0
 12  8  1  0  0  0  0
 14 13  1  6  0  0  0
 15 17  2  0  0  0  0
 16 17  2  0  0  0  0
 17 19  1  0  0  0  0
 17 14  1  0  0  0  0
 18 19  2  0  0  0  0
 20 21  1  1  0  0  0
 20 18  1  0  0  0  0
 22 23  1  0  0  0  0
 22 26  2  0  0  0  0
 23 24  1  0  0  0  0
 24 25  1  0  0  0  0
 24 20  1  1  0  0  0
 26 25  1  0  0  0  0
 27 26  1  0  0  0  0
 28 27  1  0  0  0  0
 29 23  1  0  0  0  0
 29 30  1  0  0  0  0
 30 31  1  6  0  0  0
 32 33  1  0  0  0  0
 32 30  1  0  0  0  0
 34 33  1  0  0  0  0
 35 36  1  1  0  0  0
 36 37  1  0  0  0  0
 37 39  1  0  0  0  0
 39 38  1  0  0  0  0
 39 40  1  0  0  0  0
 41 35  1  0  0  0  0
 42 45  1  6  0  0  0
 42 44  1  0  0  0  0
 42 41  1  0  0  0  0
 44 43  1  0  0  0  0
 47 53  1  1  0  0  0
 47 49  1  0  0  0  0
 48 52  1  0  0  0  0
 49 50  1  0  0  0  0
 49 45  1  1  0  0  0
 51 54  1  6  0  0  0
 51 48  1  0  0  0  0
 51 47  1  0  0  0  0
 52 46  2  0  0  0  0
 52 50  1  0  0  0  0
 55 54  1  0  0  0  0
M  END
>  <MODEL>
8

>  <REMARK>
 VINA RESULT:      -5.0      3.273     11.238
  Name = 
  21 active torsions:
  status: ('A' for Active; 'I' for Inactive)
    1  A    between atoms: C_2  and  C_9
    2  A    between atoms: N_7  and  C_38
    3  A    between atoms: C_9  and  C_43
    4  A    between atoms: C_10  and  C_44
    5  A    between atoms: C_11  and  C_25
    6  A    between atoms: C_12  and  C_23
    7  A    between atoms: C_12  and  C_25
    8  A    between atoms: N_13  and  C_21
    9  A    between atoms: C_16  and  S_34
   10  A    between atoms: C_16  and  C_52
   11  A    between atoms: C_21  and  C_28
   12  A    between atoms: C_23  and  C_42
   13  A    between atoms: O_24  and  C_25
   14  A    between atoms: O_24  and  C_37
   15  A    between atoms: C_26  and  C_30
   16  A    between atoms: C_28  and  C_38
   17  A    between atoms: C_29  and  C_55
   18  A    between atoms: C_32  and  C_46
   19  A    between atoms: S_34  and  C_54
   20  A    between atoms: C_37  and  O_39
   21  A    between atoms: C_37  and  C_46
                            x       y       z     vdW  Elec       q    Type
                         _______ _______ _______ _____ _____    ______ ____

>  <TORSDO>
F 21

$$$$
=
 OpenBabel11062412153D

 55 58  0  0  1  0  0  0  0  0999 V2000
  186.0700  178.1330  146.9800 C   0  0  0  0  0  2  0  0  0  0  0  0
  188.6940  178.2030  146.5100 C   0  0  0  0  0  0  0  0  0  0  0  0
  188.4310  177.0670  145.5390 C   0  0  1  0  0  3  0  0  0  0  0  0
  187.0870  176.9340  145.0960 O   0  0  0  0  0  0  0  0  0  0  0  0
  186.2920  178.0560  145.4520 C   0  0  1  0  0  3  0  0  0  0  0  0
  189.4750  179.1080  146.2550 O   0  0  0  0  0  0  0  0  0  0  0  0
  187.6330  178.2930  147.9500 S   0  0  0  0  0  0  0  0  0  0  0  0
  183.7990  179.7510  143.5130 O   0  0  0  0  0  0  0  0  0  0  0  0
  184.9740  178.0250  144.6760 C   0  0  2  0  0  3  0  0  0  0  0  0
  185.1880  177.8620  143.2090 C   0  0  0  0  0  2  0  0  0  0  0  0
  184.1770  179.3100  144.7960 C   0  0  0  0  0  2  0  0  0  0  0  0
  184.0630  178.6880  142.6280 C   0  0  2  0  0  3  0  0  0  0  0  0
  185.7900  178.7020  140.8020 C   0  0  0  0  0  1  0  0  0  0  0  0
  184.4270  179.2190  141.2390 C   0  0  1  0  0  3  0  0  0  0  0  0
  181.8260  179.0350  140.5810 O   0  0  0  0  0  0  0  0  0  0  0  0
  183.3670  179.5930  138.7790 O   0  0  0  0  0  0  0  0  0  0  0  0
  183.1920  178.7620  140.0220 S   0  0  0  0  0  0  0  0  0  0  0  0
  182.5410  176.4260  138.7040 C   0  0  0  0  0  3  0  0  0  0  0  0
  183.2910  177.0420  139.6270 C   0  0  0  0  0  3  0  0  0  0  0  0
  181.5280  177.1260  137.8550 C   0  0  1  0  0  3  0  0  0  0  0  0
  182.0010  177.2280  136.5460 O   0  0  0  0  0  1  0  0  0  0  0  0
  179.9550  174.2000  138.7080 N   0  0  0  0  0  0  0  0  0  0  0  0
  180.3970  174.9570  137.6200 N   0  0  0  0  0  0  0  0  0  0  0  0
  180.1990  176.3740  137.8940 C   0  0  1  0  0  3  0  0  0  0  0  0
  179.6600  176.3580  139.2130 O   0  0  0  0  0  0  0  0  0  0  0  0
  179.5410  175.0280  139.6040 C   0  0  0  0  0  0  0  0  0  0  0  0
  179.0310  174.6010  140.9290 C   0  0  0  0  0  2  0  0  0  0  0  0
  179.7050  173.4580  141.3410 O   0  0  0  0  0  1  0  0  0  0  0  0
  180.8090  174.3750  136.3520 C   0  0  0  0  0  2  0  0  0  0  0  0
  181.4470  173.0080  136.5690 C   0  0  2  0  0  3  0  0  0  0  0  0
  180.6630  172.2320  137.4250 O   0  0  0  0  0  1  0  0  0  0  0  0
  182.8490  173.1590  137.1380 C   0  0  0  0  0  2  0  0  0  0  0  0
  183.8390  173.2120  136.0730 N   0  0  0  0  0  2  0  0  0  0  0  0
  184.9970  173.9070  136.6070 C   0  0  0  0  0  1  0  0  0  0  0  0
  189.4250  176.9080  144.3860 C   0  0  2  0  0  3  0  0  0  0  0  0
  190.8410  177.2340  144.8570 C   0  0  0  0  0  2  0  0  0  0  0  0
  191.4800  176.0140  145.4990 C   0  0  0  0  0  2  0  0  0  0  0  0
  190.3860  175.5140  147.7160 C   0  0  0  0  0  1  0  0  0  0  0  0
  191.5620  176.1960  147.0150 C   0  0  0  0  0  3  0  0  0  0  0  0
  192.8620  175.6100  147.5210 C   0  0  0  0  0  1  0  0  0  0  0  0
  189.0720  177.7180  143.2940 O   0  0  0  0  0  0  0  0  0  0  0  0
  189.8470  177.2620  142.2130 C   0  0  2  0  0  3  0  0  0  0  0  0
  192.0780  177.5050  141.7400 C   0  0  0  0  0  1  0  0  0  0  0  0
  190.8550  178.1870  141.8530 O   0  0  0  0  0  0  0  0  0  0  0  0
  188.9730  176.8920  141.0110 C   0  0  0  0  0  2  0  0  0  0  0  0
  188.2490  179.7440  137.1520 O   0  0  0  0  0  0  0  0  0  0  0  0
  189.9530  176.3720  138.7740 C   0  0  1  0  0  3  0  0  0  0  0  0
  189.6470  177.9370  136.9090 O   0  0  0  0  0  0  0  0  0  0  0  0
  189.5010  177.4880  139.7150 C   0  0  1  0  0  3  0  0  0  0  0  0
  188.4050  178.3210  139.0590 C   0  0  0  0  0  2  0  0  0  0  0  0
  190.5320  176.9790  137.4950 C   0  0  2  0  0  3  0  0  0  0  0  0
  188.7820  178.7280  137.6700 C   0  0  0  0  0  0  0  0  0  0  0  0
  190.9320  175.5940  139.3990 O   0  0  0  0  0  1  0  0  0  0  0  0
  190.8480  175.8920  136.4840 C   0  0  0  0  0  2  0  0  0  0  0  0
  192.3120  175.9690  136.0840 C   0  0  0  0  0  1  0  0  0  0  0  0
  1  7  1  0  0  0  0
  2  7  1  0  0  0  0
  3 35  1  6  0  0  0
  3  2  1  0  0  0  0
  4  5  1  0  0  0  0
  4  3  1  0  0  0  0
  5  1  1  1  0  0  0
  6  2  2  0  0  0  0
  8 11  1  0  0  0  0
  9 10  1  6  0  0  0
  9 11  1  0  0  0  0
  9  5  1  0  0  0  0
 12 14  1  6  0  0  0
 12 10  1  0  0  0  0
 12  8  1  0  0  0  0
 14 13  1  6  0  0  0
 16 17  2  0  0  0  0
 17 15  2  0  0  0  0
 17 14  1  0  0  0  0
 18 19  2  0  0  0  0
 19 17  1  0  0  0  0
 20 21  1  6  0  0  0
 20 18  1  0  0  0  0
 22 26  2  0  0  0  0
 23 24  1  0  0  0  0
 23 22  1  0  0  0  0
 24 20  1  1  0  0  0
 24 25  1  0  0  0  0
 25 26  1  0  0  0  0
 26 27  1  0  0  0  0
 27 28  1  0  0  0  0
 29 30  1  0  0  0  0
 29 23  1  0  0  0  0
 30 32  1  0  0  0  0
 30 31  1  1  0  0  0
 33 34  1  0  0  0  0
 33 32  1  0  0  0  0
 35 36  1  1  0  0  0
 36 37  1  0  0  0  0
 37 39  1  0  0  0  0
 39 40  1  0  0  0  0
 39 38  1  0  0  0  0
 41 35  1  0  0  0  0
 42 45  1  6  0  0  0
 42 41  1  0  0  0  0
 43 44  1  0  0  0  0
 44 42  1  0  0  0  0
 46 52  2  0  0  0  0
 47 53  1  1  0  0  0
 47 49  1  0  0  0  0
 48 51  1  0  0  0  0
 48 52  1  0  0  0  0
 49 45  1  1  0  0  0
 50 49  1  0  0  0  0
 51 54  1  6  0  0  0
 51 47  1  0  0  0  0
 52 50  1  0  0  0  0
 55 54  1  0  0  0  0
M  END
>  <MODEL>
9

>  <REMARK>
 VINA RESULT:      -4.9      3.484     10.766
  Name = 
  21 active torsions:
  status: ('A' for Active; 'I' for Inactive)
    1  A    between atoms: C_2  and  C_9
    2  A    between atoms: N_7  and  C_38
    3  A    between atoms: C_9  and  C_43
    4  A    between atoms: C_10  and  C_44
    5  A    between atoms: C_11  and  C_25
    6  A    between atoms: C_12  and  C_23
    7  A    between atoms: C_12  and  C_25
    8  A    between atoms: N_13  and  C_21
    9  A    between atoms: C_16  and  S_34
   10  A    between atoms: C_16  and  C_52
   11  A    between atoms: C_21  and  C_28
   12  A    between atoms: C_23  and  C_42
   13  A    between atoms: O_24  and  C_25
   14  A    between atoms: O_24  and  C_37
   15  A    between atoms: C_26  and  C_30
   16  A    between atoms: C_28  and  C_38
   17  A    between atoms: C_29  and  C_55
   18  A    between atoms: C_32  and  C_46
   19  A    between atoms: S_34  and  C_54
   20  A    between atoms: C_37  and  O_39
   21  A    between atoms: C_37  and  C_46
                            x       y       z     vdW  Elec       q    Type
                         _______ _______ _______ _____ _____    ______ ____

>  <TORSDO>
F 21

$$$$
