=
 OpenBabel11062414223D

 45 50  0  0  1  0  0  0  0  0999 V2000
  182.3040  179.9500  139.4820 C   0  0  0  0  0  2  0  0  0  0  0  0
  183.6180  177.5350  138.7890 C   0  0  0  0  0  0  0  0  0  0  0  0
  182.0680  177.4620  135.1200 C   0  0  0  0  0  2  0  0  0  0  0  0
  183.8120  176.9250  136.4470 C   0  0  2  0  0  3  0  0  0  0  0  0
  180.6210  180.4710  137.7550 O   0  0  0  0  0  1  0  0  0  0  0  0
  182.9950  178.0930  141.0930 C   0  0  1  0  0  3  0  0  0  0  0  0
  183.4700  177.4080  135.1680 O   0  0  0  0  0  0  0  0  0  0  0  0
  181.5820  178.6930  135.8800 C   0  0  0  0  0  2  0  0  0  0  0  0
  183.3400  177.8450  137.5510 C   0  0  0  0  0  0  0  0  0  0  0  0
  181.8270  178.9100  140.4960 C   0  0  0  0  0  2  0  0  0  0  0  0
  182.1960  178.7660  137.2570 C   0  0  0  0  0  0  0  0  0  0  0  0
  183.7980  177.3310  140.0630 C   0  0  0  0  0  3  0  0  0  0  0  0
  181.7150  179.6920  138.1230 C   0  0  0  0  0  0  0  0  0  0  0  0
  184.9820  179.5330  141.2860 O   0  0  0  0  0  0  0  0  0  0  0  0
  183.9040  178.9490  141.9960 C   0  0  2  0  0  3  0  0  0  0  0  0
  184.3410  178.1970  143.2730 C   0  0  1  0  0  3  0  0  0  0  0  0
  185.8510  178.3460  143.5450 C   0  0  2  0  0  3  0  0  0  0  0  0
  186.7030  178.1700  142.2750 C   0  0  0  0  0  2  0  0  0  0  0  0
  185.9270  178.5290  141.0120 C   0  0  0  0  0  2  0  0  0  0  0  0
  187.8310  177.2070  144.6700 C   0  0  0  0  0  2  0  0  0  0  0  0
  187.1970  177.8730  146.9010 C   0  0  1  0  0  3  0  0  0  0  0  0
  186.3240  177.4290  144.6820 C   0  0  1  0  0  3  0  0  0  0  0  0
  185.9570  177.9980  146.0420 C   0  0  0  0  0  2  0  0  0  0  0  0
  188.3650  177.8400  145.9410 C   0  0  1  0  0  3  0  0  0  0  0  0
  187.3020  178.9820  147.7410 O   0  0  0  0  0  1  0  0  0  0  0  0
  189.4970  177.0090  146.5180 C   0  0  0  0  0  2  0  0  0  0  0  0
  190.9840  177.1660  145.4860 S   0  0  0  0  0  0  0  0  0  0  0  0
  192.0540  176.8010  147.8590 O   0  0  0  0  0  1  0  0  0  0  0  0
  191.9610  176.1520  146.6280 C   0  0  0  0  0  2  0  0  0  0  0  0
  183.5280  178.7220  144.4470 C   0  0  0  0  0  2  0  0  0  0  0  0
  183.0840  180.0180  144.1820 O   0  0  0  0  0  1  0  0  0  0  0  0
  185.3220  176.6040  136.5370 C   0  0  2  0  0  3  0  0  0  0  0  0
  186.4510  174.3150  136.4520 C   0  0  0  0  0  2  0  0  0  0  0  0
  185.5930  175.2630  137.2650 C   0  0  2  0  0  3  0  0  0  0  0  0
  186.1050  172.9190  136.9290 C   0  0  1  0  0  3  0  0  0  0  0  0
  187.0350  172.5130  137.8860 O   0  0  0  0  0  1  0  0  0  0  0  0
  184.3240  174.4730  137.5280 C   0  0  0  0  0  2  0  0  0  0  0  0
  184.7350  173.0130  137.5720 C   0  0  0  0  0  2  0  0  0  0  0  0
  187.1580  177.2840  138.1390 C   0  0  0  0  0  2  0  0  0  0  0  0
  186.0760  177.7850  137.1910 C   0  0  1  0  0  3  0  0  0  0  0  0
  188.4850  177.4060  137.3940 C   0  0  2  0  0  3  0  0  0  0  0  0
  188.2000  177.9960  136.0250 C   0  0  0  0  0  2  0  0  0  0  0  0
  186.8290  178.6210  136.1580 C   0  0  0  0  0  2  0  0  0  0  0  0
  190.1940  176.2160  138.3810 C   0  0  0  0  0  1  0  0  0  0  0  0
  189.2340  176.2060  137.3540 O   0  0  0  0  0  0  0  0  0  0  0  0
  1 10  1  0  0  0  0
  2 12  2  0  0  0  0
  3  7  1  0  0  0  0
  3  8  1  0  0  0  0
  4 32  1  6  0  0  0
  4  9  1  0  0  0  0
  5 13  1  0  0  0  0
  6 12  1  6  0  0  0
  6 15  1  0  0  0  0
  7  4  1  0  0  0  0
  8 11  1  0  0  0  0
  9  2  2  0  0  0  0
 10  6  1  0  0  0  0
 11  9  1  0  0  0  0
 11 13  2  0  0  0  0
 13  1  1  0  0  0  0
 15 14  1  6  0  0  0
 15 16  1  0  0  0  0
 16 17  1  0  0  0  0
 16 30  1  1  0  0  0
 17 18  1  6  0  0  0
 17 22  1  0  0  0  0
 19 14  1  0  0  0  0
 19 18  1  0  0  0  0
 20 24  1  0  0  0  0
 21 25  1  1  0  0  0
 22 20  1  1  0  0  0
 22 23  1  0  0  0  0
 23 21  1  0  0  0  0
 24 26  1  1  0  0  0
 24 21  1  0  0  0  0
 27 26  1  0  0  0  0
 27 29  1  0  0  0  0
 29 28  1  0  0  0  0
 31 30  1  0  0  0  0
 32 40  1  1  0  0  0
 33 35  1  0  0  0  0
 33 34  1  0  0  0  0
 34 32  1  6  0  0  0
 34 37  1  0  0  0  0
 35 38  1  0  0  0  0
 35 36  1  1  0  0  0
 37 38  1  0  0  0  0
 40 43  1  6  0  0  0
 40 39  1  0  0  0  0
 41 45  1  6  0  0  0
 41 39  1  0  0  0  0
 42 43  1  0  0  0  0
 42 41  1  0  0  0  0
 45 44  1  0  0  0  0
M  END
>  <MODEL>
1

>  <REMARK>
 VINA RESULT:      -8.4      0.000      0.000
  Name = 
  10 active torsions:
  status: ('A' for Active; 'I' for Inactive)
    1  A    between atoms: C_2  and  C_3
    2  A    between atoms: C_3  and  C_7
    3  A    between atoms: C_3  and  C_17
    4  A    between atoms: C_6  and  C_29
    5  A    between atoms: C_10  and  O_45
    6  A    between atoms: C_19  and  C_22
    7  A    between atoms: C_24  and  S_35
    8  A    between atoms: C_31  and  C_32
    9  A    between atoms: C_34  and  S_35
   10  A    between atoms: C_34  and  C_42
                            x       y       z     vdW  Elec       q    Type
                         _______ _______ _______ _____ _____    ______ ____

>  <TORSDO>
F 10

$$$$
=
 OpenBabel11062414223D

 45 50  0  0  1  0  0  0  0  0999 V2000
  185.0660  179.2440  143.8660 C   0  0  0  0  0  2  0  0  0  0  0  0
  183.8370  178.2880  141.4950 C   0  0  0  0  0  0  0  0  0  0  0  0
  180.1520  178.7020  142.9500 C   0  0  0  0  0  2  0  0  0  0  0  0
  181.4800  178.7300  141.1260 C   0  0  2  0  0  3  0  0  0  0  0  0
  183.3690  179.3740  145.6510 O   0  0  0  0  0  1  0  0  0  0  0  0
  186.0810  177.5950  142.2000 C   0  0  1  0  0  3  0  0  0  0  0  0
  180.3860  179.3740  141.7400 O   0  0  0  0  0  0  0  0  0  0  0  0
  181.1860  179.1430  143.9830 C   0  0  0  0  0  2  0  0  0  0  0  0
  182.7380  178.8160  141.9610 C   0  0  0  0  0  0  0  0  0  0  0  0
  185.6120  177.8310  143.6540 C   0  0  0  0  0  2  0  0  0  0  0  0
  182.5880  179.0400  143.4340 C   0  0  0  0  0  0  0  0  0  0  0  0
  184.9920  177.7790  141.1680 C   0  0  0  0  0  3  0  0  0  0  0  0
  183.6250  179.2090  144.2920 C   0  0  0  0  0  0  0  0  0  0  0  0
  187.1790  179.1650  140.6530 O   0  0  0  0  0  0  0  0  0  0  0  0
  187.3340  178.4210  141.8500 C   0  0  2  0  0  3  0  0  0  0  0  0
  188.6260  177.5750  141.8880 C   0  0  1  0  0  3  0  0  0  0  0  0
  189.5150  177.8180  140.6520 C   0  0  2  0  0  3  0  0  0  0  0  0
  188.7100  177.8490  139.3400 C   0  0  0  0  0  2  0  0  0  0  0  0
  187.2630  178.2760  139.5670 C   0  0  0  0  0  2  0  0  0  0  0  0
  190.7970  176.1450  139.2230 C   0  0  0  0  0  2  0  0  0  0  0  0
  192.9690  177.0280  139.7930 C   0  0  1  0  0  3  0  0  0  0  0  0
  190.6840  176.8250  140.5820 C   0  0  1  0  0  3  0  0  0  0  0  0
  192.0110  177.5120  140.8600 C   0  0  0  0  0  2  0  0  0  0  0  0
  192.1090  176.6110  138.6210 C   0  0  1  0  0  3  0  0  0  0  0  0
  193.8180  178.0680  139.4150 O   0  0  0  0  0  1  0  0  0  0  0  0
  192.7770  175.4820  137.8540 C   0  0  0  0  0  2  0  0  0  0  0  0
  193.3330  176.0690  136.2270 S   0  0  0  0  0  0  0  0  0  0  0  0
  195.9540  176.1480  136.0350 O   0  0  0  0  0  1  0  0  0  0  0  0
  194.9460  175.2640  136.4190 C   0  0  0  0  0  2  0  0  0  0  0  0
  189.3820  177.9030  143.1670 C   0  0  0  0  0  2  0  0  0  0  0  0
  189.0340  177.0030  144.1750 O   0  0  0  0  0  1  0  0  0  0  0  0
  181.6830  179.2350  139.6780 C   0  0  2  0  0  3  0  0  0  0  0  0
  179.8130  180.6580  138.6760 C   0  0  0  0  0  2  0  0  0  0  0  0
  181.1050  180.6580  139.4690 C   0  0  2  0  0  3  0  0  0  0  0  0
  179.7240  182.0180  138.0150 C   0  0  1  0  0  3  0  0  0  0  0  0
  178.9310  182.8600  138.7950 O   0  0  0  0  0  1  0  0  0  0  0  0
  182.0280  181.5530  138.6630 C   0  0  0  0  0  2  0  0  0  0  0  0
  181.1380  182.5660  137.9680 C   0  0  0  0  0  2  0  0  0  0  0  0
  182.0010  178.0640  137.4580 C   0  0  0  0  0  2  0  0  0  0  0  0
  181.0960  178.2160  138.6750 C   0  0  1  0  0  3  0  0  0  0  0  0
  182.7880  176.7730  137.6560 C   0  0  2  0  0  3  0  0  0  0  0  0
  182.3410  176.1470  138.9650 C   0  0  0  0  0  2  0  0  0  0  0  0
  181.0180  176.8120  139.2710 C   0  0  0  0  0  2  0  0  0  0  0  0
  184.7780  175.7070  137.1850 C   0  0  0  0  0  1  0  0  0  0  0  0
  184.1910  176.9320  137.5490 O   0  0  0  0  0  0  0  0  0  0  0  0
  1 13  1  0  0  0  0
  2  9  2  0  0  0  0
  3  8  1  0  0  0  0
  4 32  1  6  0  0  0
  4  7  1  0  0  0  0
  4  9  1  0  0  0  0
  6 12  1  6  0  0  0
  6 10  1  0  0  0  0
  7  3  1  0  0  0  0
  9 11  1  0  0  0  0
 10  1  1  0  0  0  0
 11  8  1  0  0  0  0
 11 13  2  0  0  0  0
 12  2  2  0  0  0  0
 13  5  1  0  0  0  0
 15 14  1  6  0  0  0
 15 16  1  0  0  0  0
 15  6  1  0  0  0  0
 16 30  1  1  0  0  0
 17 18  1  6  0  0  0
 17 16  1  0  0  0  0
 18 19  1  0  0  0  0
 19 14  1  0  0  0  0
 21 25  1  6  0  0  0
 21 23  1  0  0  0  0
 22 20  1  6  0  0  0
 22 17  1  0  0  0  0
 22 23  1  0  0  0  0
 24 26  1  1  0  0  0
 24 20  1  0  0  0  0
 24 21  1  0  0  0  0
 27 29  1  0  0  0  0
 27 26  1  0  0  0  0
 28 29  1  0  0  0  0
 30 31  1  0  0  0  0
 32 40  1  6  0  0  0
 33 34  1  0  0  0  0
 34 32  1  6  0  0  0
 35 33  1  0  0  0  0
 35 36  1  1  0  0  0
 37 34  1  0  0  0  0
 38 35  1  0  0  0  0
 38 37  1  0  0  0  0
 39 41  1  0  0  0  0
 40 39  1  6  0  0  0
 40 43  1  0  0  0  0
 41 45  1  1  0  0  0
 41 42  1  0  0  0  0
 42 43  1  0  0  0  0
 44 45  1  0  0  0  0
M  END
>  <MODEL>
2

>  <REMARK>
 VINA RESULT:      -8.4      2.928      7.228
  Name = 
  10 active torsions:
  status: ('A' for Active; 'I' for Inactive)
    1  A    between atoms: C_2  and  C_3
    2  A    between atoms: C_3  and  C_7
    3  A    between atoms: C_3  and  C_17
    4  A    between atoms: C_6  and  C_29
    5  A    between atoms: C_10  and  O_45
    6  A    between atoms: C_19  and  C_22
    7  A    between atoms: C_24  and  S_35
    8  A    between atoms: C_31  and  C_32
    9  A    between atoms: C_34  and  S_35
   10  A    between atoms: C_34  and  C_42
                            x       y       z     vdW  Elec       q    Type
                         _______ _______ _______ _____ _____    ______ ____

>  <TORSDO>
F 10

$$$$
=
 OpenBabel11062414223D

 45 50  0  0  1  0  0  0  0  0999 V2000
  192.8280  176.2420  139.3570 C   0  0  0  0  0  2  0  0  0  0  0  0
  190.2170  176.9100  138.4730 C   0  0  0  0  0  0  0  0  0  0  0  0
  191.1310  176.4190  134.6270 C   0  0  0  0  0  2  0  0  0  0  0  0
  189.5400  176.3030  136.2230 C   0  0  2  0  0  3  0  0  0  0  0  0
  194.3400  176.1750  137.4090 O   0  0  0  0  0  1  0  0  0  0  0  0
  191.1830  177.7900  140.5470 C   0  0  1  0  0  3  0  0  0  0  0  0
  190.0420  175.6560  135.0750 O   0  0  0  0  0  0  0  0  0  0  0  0
  192.3460  176.1320  135.5050 C   0  0  0  0  0  2  0  0  0  0  0  0
  190.5600  176.3640  137.3380 C   0  0  0  0  0  0  0  0  0  0  0  0
  192.5650  177.6580  139.8680 C   0  0  0  0  0  2  0  0  0  0  0  0
  192.0080  176.2650  136.9700 C   0  0  0  0  0  0  0  0  0  0  0  0
  190.0200  177.4530  139.6410 C   0  0  0  0  0  3  0  0  0  0  0  0
  193.0260  176.2320  137.8660 C   0  0  0  0  0  0  0  0  0  0  0  0
  190.3910  175.7930  141.7490 O   0  0  0  0  0  0  0  0  0  0  0  0
  191.1080  177.0090  141.8740 C   0  0  2  0  0  3  0  0  0  0  0  0
  190.6300  177.8900  143.0500 C   0  0  1  0  0  3  0  0  0  0  0  0
  189.5460  177.1920  143.8940 C   0  0  2  0  0  3  0  0  0  0  0  0
  188.4770  176.4970  143.0300 C   0  0  0  0  0  2  0  0  0  0  0  0
  189.0200  176.0940  141.6630 C   0  0  0  0  0  2  0  0  0  0  0  0
  187.3980  178.1800  144.8390 C   0  0  0  0  0  2  0  0  0  0  0  0
  188.0020  177.7920  147.1430 C   0  0  1  0  0  3  0  0  0  0  0  0
  188.9190  178.1420  144.9240 C   0  0  1  0  0  3  0  0  0  0  0  0
  189.2870  177.7410  146.3430 C   0  0  0  0  0  2  0  0  0  0  0  0
  186.8840  177.6010  146.1430 C   0  0  1  0  0  3  0  0  0  0  0  0
  187.9890  176.7570  148.0780 O   0  0  0  0  0  1  0  0  0  0  0  0
  185.6370  178.3380  146.6020 C   0  0  0  0  0  2  0  0  0  0  0  0
  185.1420  179.5700  145.3620 S   0  0  0  0  0  0  0  0  0  0  0  0
  183.1320  178.8660  143.8210 O   0  0  0  0  0  1  0  0  0  0  0  0
  183.5110  178.8060  145.1620 C   0  0  0  0  0  2  0  0  0  0  0  0
  191.8340  178.2470  143.9080 C   0  0  0  0  0  2  0  0  0  0  0  0
  191.8060  179.6020  144.2370 O   0  0  0  0  0  1  0  0  0  0  0  0
  188.1960  175.6830  136.6700 C   0  0  2  0  0  3  0  0  0  0  0  0
  186.5960  173.7580  136.1610 C   0  0  0  0  0  2  0  0  0  0  0  0
  188.0420  174.2160  136.1940 C   0  0  2  0  0  3  0  0  0  0  0  0
  186.6280  172.2520  136.3250 C   0  0  1  0  0  3  0  0  0  0  0  0
  186.5690  171.6490  135.0690 O   0  0  0  0  0  1  0  0  0  0  0  0
  188.7170  173.2240  137.1220 C   0  0  0  0  0  2  0  0  0  0  0  0
  187.9570  171.9190  136.9760 C   0  0  0  0  0  2  0  0  0  0  0  0
  186.1180  176.9430  137.3740 C   0  0  0  0  0  2  0  0  0  0  0  0
  187.0210  176.5740  136.2040 C   0  0  1  0  0  3  0  0  0  0  0  0
  186.4820  178.3700  137.7740 C   0  0  2  0  0  3  0  0  0  0  0  0
  187.5740  178.8560  136.8370 C   0  0  0  0  0  2  0  0  0  0  0  0
  187.5070  177.9140  135.6560 C   0  0  0  0  0  2  0  0  0  0  0  0
  185.6130  178.5530  139.9020 C   0  0  0  0  0  1  0  0  0  0  0  0
  186.7980  178.5200  139.1460 O   0  0  0  0  0  0  0  0  0  0  0  0
  1 10  1  0  0  0  0
  2 12  2  0  0  0  0
  3  7  1  0  0  0  0
  3  8  1  0  0  0  0
  4 32  1  1  0  0  0
  4  9  1  0  0  0  0
  5 13  1  0  0  0  0
  6 12  1  6  0  0  0
  6 15  1  0  0  0  0
  7  4  1  0  0  0  0
  8 11  1  0  0  0  0
  9  2  2  0  0  0  0
 10  6  1  0  0  0  0
 11  9  1  0  0  0  0
 11 13  2  0  0  0  0
 13  1  1  0  0  0  0
 15 14  1  6  0  0  0
 15 16  1  0  0  0  0
 16 17  1  0  0  0  0
 16 30  1  1  0  0  0
 17 18  1  6  0  0  0
 17 22  1  0  0  0  0
 19 14  1  0  0  0  0
 19 18  1  0  0  0  0
 20 24  1  0  0  0  0
 21 25  1  1  0  0  0
 22 20  1  1  0  0  0
 22 23  1  0  0  0  0
 23 21  1  0  0  0  0
 24 26  1  1  0  0  0
 24 21  1  0  0  0  0
 27 26  1  0  0  0  0
 28 29  1  0  0  0  0
 29 27  1  0  0  0  0
 30 31  1  0  0  0  0
 32 34  1  6  0  0  0
 33 35  1  0  0  0  0
 34 33  1  1  0  0  0
 34 37  1  0  0  0  0
 35 36  1  6  0  0  0
 35 38  1  0  0  0  0
 38 37  1  0  0  0  0
 39 41  1  0  0  0  0
 40 32  1  1  0  0  0
 40 39  1  0  0  0  0
 41 45  1  1  0  0  0
 42 41  1  0  0  0  0
 43 40  1  0  0  0  0
 43 42  1  0  0  0  0
 45 44  1  0  0  0  0
M  END
>  <MODEL>
3

>  <REMARK>
 VINA RESULT:      -8.4      2.887      6.475
  Name = 
  10 active torsions:
  status: ('A' for Active; 'I' for Inactive)
    1  A    between atoms: C_2  and  C_3
    2  A    between atoms: C_3  and  C_7
    3  A    between atoms: C_3  and  C_17
    4  A    between atoms: C_6  and  C_29
    5  A    between atoms: C_10  and  O_45
    6  A    between atoms: C_19  and  C_22
    7  A    between atoms: C_24  and  S_35
    8  A    between atoms: C_31  and  C_32
    9  A    between atoms: C_34  and  S_35
   10  A    between atoms: C_34  and  C_42
                            x       y       z     vdW  Elec       q    Type
                         _______ _______ _______ _____ _____    ______ ____

>  <TORSDO>
F 10

$$$$
=
 OpenBabel11062414223D

 45 50  0  0  1  0  0  0  0  0999 V2000
  188.2780  177.8070  140.5120 C   0  0  0  0  0  2  0  0  0  0  0  0
  185.5800  178.0780  139.6830 C   0  0  0  0  0  0  0  0  0  0  0  0
  186.5520  178.5740  135.8520 C   0  0  0  0  0  2  0  0  0  0  0  0
  185.0320  177.8100  137.3340 C   0  0  2  0  0  3  0  0  0  0  0  0
  189.7570  178.4520  138.6460 O   0  0  0  0  0  1  0  0  0  0  0  0
  186.3490  178.7040  141.9240 C   0  0  1  0  0  3  0  0  0  0  0  0
  185.6530  177.5260  136.1000 O   0  0  0  0  0  0  0  0  0  0  0  0
  187.8060  178.3770  136.7000 C   0  0  0  0  0  2  0  0  0  0  0  0
  186.0230  177.8560  138.4750 C   0  0  0  0  0  0  0  0  0  0  0  0
  187.7230  179.0050  141.2840 C   0  0  0  0  0  2  0  0  0  0  0  0
  187.4570  178.1380  138.1490 C   0  0  0  0  0  0  0  0  0  0  0  0
  185.2790  178.3210  140.9280 C   0  0  0  0  0  3  0  0  0  0  0  0
  188.4640  178.1400  139.0570 C   0  0  0  0  0  0  0  0  0  0  0  0
  185.3370  177.7210  143.9420 O   0  0  0  0  0  0  0  0  0  0  0  0
  186.4510  177.6740  143.0660 C   0  0  2  0  0  3  0  0  0  0  0  0
  187.8120  177.7350  143.7950 C   0  0  1  0  0  3  0  0  0  0  0  0
  187.6500  177.7230  145.3280 C   0  0  2  0  0  3  0  0  0  0  0  0
  186.5280  178.6580  145.8130 C   0  0  0  0  0  2  0  0  0  0  0  0
  185.4560  178.8670  144.7480 C   0  0  0  0  0  2  0  0  0  0  0  0
  189.5070  176.7830  146.7940 C   0  0  0  0  0  2  0  0  0  0  0  0
  191.2940  177.6480  145.4230 C   0  0  1  0  0  3  0  0  0  0  0  0
  188.9770  178.0010  146.0480 C   0  0  1  0  0  3  0  0  0  0  0  0
  190.0550  178.4430  145.0720 C   0  0  0  0  0  2  0  0  0  0  0  0
  190.8020  176.3920  146.1070 C   0  0  1  0  0  3  0  0  0  0  0  0
  191.9860  177.3160  144.2580 O   0  0  0  0  0  1  0  0  0  0  0  0
  191.8240  175.9130  147.1240 C   0  0  0  0  0  2  0  0  0  0  0  0
  191.9720  177.1110  148.4820 S   0  0  0  0  0  0  0  0  0  0  0  0
  194.2050  177.1150  149.8680 O   0  0  0  0  0  1  0  0  0  0  0  0
  193.3720  176.2150  149.2040 C   0  0  0  0  0  2  0  0  0  0  0  0
  188.6610  176.5600  143.3340 C   0  0  0  0  0  2  0  0  0  0  0  0
  187.8740  175.4130  143.2230 O   0  0  0  0  0  1  0  0  0  0  0  0
  183.8530  176.8440  137.6000 C   0  0  2  0  0  3  0  0  0  0  0  0
  182.8990  175.2290  135.8670 C   0  0  0  0  0  2  0  0  0  0  0  0
  184.0200  175.4970  136.8520 C   0  0  2  0  0  3  0  0  0  0  0  0
  182.8200  173.7230  135.7200 C   0  0  1  0  0  3  0  0  0  0  0  0
  183.5430  173.3290  134.5940 O   0  0  0  0  0  1  0  0  0  0  0  0
  183.9810  174.3010  137.7840 C   0  0  0  0  0  2  0  0  0  0  0  0
  183.4670  173.1350  136.9590 C   0  0  0  0  0  2  0  0  0  0  0  0
  181.3880  177.0160  138.1410 C   0  0  0  0  0  2  0  0  0  0  0  0
  182.5150  177.5380  137.2580 C   0  0  1  0  0  3  0  0  0  0  0  0
  181.1620  178.0630  139.2280 C   0  0  2  0  0  3  0  0  0  0  0  0
  182.1280  179.2090  138.9820 C   0  0  0  0  0  2  0  0  0  0  0  0
  182.5620  179.0380  137.5430 C   0  0  0  0  0  2  0  0  0  0  0  0
  181.6880  178.5370  141.4220 C   0  0  0  0  0  1  0  0  0  0  0  0
  181.2140  177.5460  140.5450 O   0  0  0  0  0  0  0  0  0  0  0  0
  1 10  1  0  0  0  0
  2 12  2  0  0  0  0
  3  7  1  0  0  0  0
  3  8  1  0  0  0  0
  4 32  1  1  0  0  0
  4  9  1  0  0  0  0
  5 13  1  0  0  0  0
  6 12  1  6  0  0  0
  6 15  1  0  0  0  0
  7  4  1  0  0  0  0
  8 11  1  0  0  0  0
  9  2  2  0  0  0  0
 10  6  1  0  0  0  0
 11  9  1  0  0  0  0
 11 13  2  0  0  0  0
 13  1  1  0  0  0  0
 14 19  1  0  0  0  0
 15 16  1  0  0  0  0
 15 14  1  1  0  0  0
 16 30  1  6  0  0  0
 16 17  1  0  0  0  0
 17 18  1  6  0  0  0
 17 22  1  0  0  0  0
 19 18  1  0  0  0  0
 21 25  1  6  0  0  0
 21 24  1  0  0  0  0
 22 23  1  6  0  0  0
 22 20  1  0  0  0  0
 23 21  1  0  0  0  0
 24 20  1  0  0  0  0
 24 26  1  1  0  0  0
 26 27  1  0  0  0  0
 27 29  1  0  0  0  0
 29 28  1  0  0  0  0
 31 30  1  0  0  0  0
 32 34  1  6  0  0  0
 34 33  1  6  0  0  0
 34 37  1  0  0  0  0
 35 36  1  6  0  0  0
 35 33  1  0  0  0  0
 35 38  1  0  0  0  0
 38 37  1  0  0  0  0
 39 41  1  0  0  0  0
 40 43  1  0  0  0  0
 40 32  1  1  0  0  0
 40 39  1  0  0  0  0
 41 45  1  1  0  0  0
 42 41  1  0  0  0  0
 43 42  1  0  0  0  0
 45 44  1  0  0  0  0
M  END
>  <MODEL>
4

>  <REMARK>
 VINA RESULT:      -7.6      2.055      4.741
  Name = 
  10 active torsions:
  status: ('A' for Active; 'I' for Inactive)
    1  A    between atoms: C_2  and  C_3
    2  A    between atoms: C_3  and  C_7
    3  A    between atoms: C_3  and  C_17
    4  A    between atoms: C_6  and  C_29
    5  A    between atoms: C_10  and  O_45
    6  A    between atoms: C_19  and  C_22
    7  A    between atoms: C_24  and  S_35
    8  A    between atoms: C_31  and  C_32
    9  A    between atoms: C_34  and  S_35
   10  A    between atoms: C_34  and  C_42
                            x       y       z     vdW  Elec       q    Type
                         _______ _______ _______ _____ _____    ______ ____

>  <TORSDO>
F 10

$$$$
=
 OpenBabel11062414223D

 45 50  0  0  1  0  0  0  0  0999 V2000
  186.4750  177.4270  142.9590 C   0  0  0  0  0  2  0  0  0  0  0  0
  187.5970  178.1240  140.4490 C   0  0  0  0  0  0  0  0  0  0  0  0
  191.3430  177.6460  141.7180 C   0  0  0  0  0  2  0  0  0  0  0  0
  189.9050  177.5370  139.9830 C   0  0  2  0  0  3  0  0  0  0  0  0
  188.2710  177.3570  144.6470 O   0  0  0  0  0  1  0  0  0  0  0  0
  185.4350  178.9840  141.2220 C   0  0  1  0  0  3  0  0  0  0  0  0
  191.0040  176.8910  140.5850 O   0  0  0  0  0  0  0  0  0  0  0  0
  190.3550  177.3430  142.8430 C   0  0  0  0  0  2  0  0  0  0  0  0
  188.6980  177.5820  140.8930 C   0  0  0  0  0  0  0  0  0  0  0  0
  185.9810  178.8430  142.6610 C   0  0  0  0  0  2  0  0  0  0  0  0
  188.9280  177.4710  142.3690 C   0  0  0  0  0  0  0  0  0  0  0  0
  186.4490  178.6630  140.1470 C   0  0  0  0  0  3  0  0  0  0  0  0
  187.9400  177.4240  143.2970 C   0  0  0  0  0  0  0  0  0  0  0  0
  184.1850  177.3270  139.8970 O   0  0  0  0  0  0  0  0  0  0  0  0
  184.1270  178.1960  141.0150 C   0  0  2  0  0  3  0  0  0  0  0  0
  182.8810  179.1110  141.0210 C   0  0  1  0  0  3  0  0  0  0  0  0
  181.9220  178.7920  139.8580 C   0  0  2  0  0  3  0  0  0  0  0  0
  182.6590  178.5840  138.5220 C   0  0  0  0  0  2  0  0  0  0  0  0
  184.0920  178.1040  138.7280 C   0  0  0  0  0  2  0  0  0  0  0  0
  181.2770  181.1370  139.1030 C   0  0  0  0  0  2  0  0  0  0  0  0
  179.2920  180.4240  137.9300 C   0  0  1  0  0  3  0  0  0  0  0  0
  180.8020  179.8340  139.7350 C   0  0  1  0  0  3  0  0  0  0  0  0
  179.6490  179.3120  138.8930 C   0  0  0  0  0  2  0  0  0  0  0  0
  180.5420  181.2620  137.7820 C   0  0  1  0  0  3  0  0  0  0  0  0
  178.9330  179.8800  136.6960 O   0  0  0  0  0  1  0  0  0  0  0  0
  180.1750  182.7100  137.5080 C   0  0  0  0  0  2  0  0  0  0  0  0
  180.4420  183.1080  135.7560 S   0  0  0  0  0  0  0  0  0  0  0  0
  180.9630  184.9700  137.5370 O   0  0  0  0  0  1  0  0  0  0  0  0
  181.0520  184.7660  136.1600 C   0  0  0  0  0  2  0  0  0  0  0  0
  182.1740  178.9560  142.3600 C   0  0  0  0  0  2  0  0  0  0  0  0
  182.7750  179.7740  143.3170 O   0  0  0  0  0  1  0  0  0  0  0  0
  189.5910  176.9260  138.5970 C   0  0  2  0  0  3  0  0  0  0  0  0
  191.6910  175.8990  137.5680 C   0  0  0  0  0  2  0  0  0  0  0  0
  190.4050  175.6350  138.3280 C   0  0  2  0  0  3  0  0  0  0  0  0
  192.0200  174.6120  136.8400 C   0  0  1  0  0  3  0  0  0  0  0  0
  192.9320  173.8730  137.5940 O   0  0  0  0  0  1  0  0  0  0  0  0
  189.6610  174.6440  137.4530 C   0  0  0  0  0  2  0  0  0  0  0  0
  190.7210  173.8360  136.7280 C   0  0  0  0  0  2  0  0  0  0  0  0
  189.5200  177.4030  136.1130 C   0  0  0  0  0  2  0  0  0  0  0  0
  189.8000  177.9870  137.4920 C   0  0  1  0  0  3  0  0  0  0  0  0
  188.1270  177.8770  135.7100 C   0  0  2  0  0  3  0  0  0  0  0  0
  187.5910  178.7560  136.8270 C   0  0  0  0  0  2  0  0  0  0  0  0
  188.8150  179.1470  137.6240 C   0  0  0  0  0  2  0  0  0  0  0  0
  186.4890  176.4330  136.4480 C   0  0  0  0  0  1  0  0  0  0  0  0
  187.2500  176.8320  135.3350 O   0  0  0  0  0  0  0  0  0  0  0  0
  1 13  1  0  0  0  0
  2  9  2  0  0  0  0
  3  8  1  0  0  0  0
  4 32  1  6  0  0  0
  4  7  1  0  0  0  0
  4  9  1  0  0  0  0
  6 12  1  6  0  0  0
  6 10  1  0  0  0  0
  7  3  1  0  0  0  0
  9 11  1  0  0  0  0
 10  1  1  0  0  0  0
 11  8  1  0  0  0  0
 11 13  2  0  0  0  0
 12  2  2  0  0  0  0
 13  5  1  0  0  0  0
 15 14  1  6  0  0  0
 15 16  1  0  0  0  0
 15  6  1  0  0  0  0
 16 30  1  1  0  0  0
 17 18  1  6  0  0  0
 17 16  1  0  0  0  0
 18 19  1  0  0  0  0
 19 14  1  0  0  0  0
 20 22  1  0  0  0  0
 21 25  1  6  0  0  0
 21 23  1  0  0  0  0
 22 23  1  6  0  0  0
 22 17  1  0  0  0  0
 24 26  1  1  0  0  0
 24 21  1  0  0  0  0
 24 20  1  0  0  0  0
 27 29  1  0  0  0  0
 27 26  1  0  0  0  0
 29 28  1  0  0  0  0
 30 31  1  0  0  0  0
 32 40  1  6  0  0  0
 33 34  1  0  0  0  0
 34 32  1  6  0  0  0
 35 33  1  0  0  0  0
 35 36  1  1  0  0  0
 37 34  1  0  0  0  0
 38 35  1  0  0  0  0
 38 37  1  0  0  0  0
 40 39  1  6  0  0  0
 40 43  1  0  0  0  0
 41 45  1  1  0  0  0
 41 39  1  0  0  0  0
 41 42  1  0  0  0  0
 42 43  1  0  0  0  0
 45 44  1  0  0  0  0
M  END
>  <MODEL>
5

>  <REMARK>
 VINA RESULT:      -7.3      3.394      8.059
  Name = 
  10 active torsions:
  status: ('A' for Active; 'I' for Inactive)
    1  A    between atoms: C_2  and  C_3
    2  A    between atoms: C_3  and  C_7
    3  A    between atoms: C_3  and  C_17
    4  A    between atoms: C_6  and  C_29
    5  A    between atoms: C_10  and  O_45
    6  A    between atoms: C_19  and  C_22
    7  A    between atoms: C_24  and  S_35
    8  A    between atoms: C_31  and  C_32
    9  A    between atoms: C_34  and  S_35
   10  A    between atoms: C_34  and  C_42
                            x       y       z     vdW  Elec       q    Type
                         _______ _______ _______ _____ _____    ______ ____

>  <TORSDO>
F 10

$$$$
=
 OpenBabel11062414223D

 45 50  0  0  1  0  0  0  0  0999 V2000
  184.3230  179.3820  143.1510 C   0  0  0  0  0  2  0  0  0  0  0  0
  182.5960  178.2240  141.2230 C   0  0  0  0  0  0  0  0  0  0  0  0
  179.4490  178.2590  143.6650 C   0  0  0  0  0  2  0  0  0  0  0  0
  180.1950  178.3840  141.5390 C   0  0  2  0  0  3  0  0  0  0  0  0
  183.1960  179.3720  145.3450 O   0  0  0  0  0  1  0  0  0  0  0  0
  185.0120  177.8110  141.2590 C   0  0  1  0  0  3  0  0  0  0  0  0
  179.2520  178.9180  142.4410 O   0  0  0  0  0  0  0  0  0  0  0  0
  180.6740  178.8450  144.3640 C   0  0  0  0  0  2  0  0  0  0  0  0
  181.6180  178.6370  141.9830 C   0  0  0  0  0  0  0  0  0  0  0  0
  184.9480  178.0360  142.7870 C   0  0  0  0  0  2  0  0  0  0  0  0
  181.8660  178.8860  143.4390 C   0  0  0  0  0  0  0  0  0  0  0  0
  183.6620  177.8400  140.5790 C   0  0  0  0  0  3  0  0  0  0  0  0
  183.0750  179.1970  143.9690 C   0  0  0  0  0  0  0  0  0  0  0  0
  185.4640  179.3830  139.4190 O   0  0  0  0  0  0  0  0  0  0  0  0
  186.0100  178.7640  140.5710 C   0  0  2  0  0  3  0  0  0  0  0  0
  187.3830  178.1000  140.3240 C   0  0  1  0  0  3  0  0  0  0  0  0
  187.9030  178.3570  138.8960 C   0  0  2  0  0  3  0  0  0  0  0  0
  186.8110  178.1780  137.8260 C   0  0  0  0  0  2  0  0  0  0  0  0
  185.4140  178.4290  138.3870 C   0  0  0  0  0  2  0  0  0  0  0  0
  188.8560  176.0320  138.4850 C   0  0  0  0  0  2  0  0  0  0  0  0
  190.0840  176.6720  136.5090 C   0  0  1  0  0  3  0  0  0  0  0  0
  189.1530  177.5240  138.5810 C   0  0  1  0  0  3  0  0  0  0  0  0
  189.7850  177.9490  137.2660 C   0  0  0  0  0  2  0  0  0  0  0  0
  189.1220  175.6370  137.0450 C   0  0  1  0  0  3  0  0  0  0  0  0
  189.8620  176.8700  135.1460 O   0  0  0  0  0  1  0  0  0  0  0  0
  189.7460  174.2530  136.9760 C   0  0  0  0  0  2  0  0  0  0  0  0
  188.4760  173.0080  136.6050 S   0  0  0  0  0  0  0  0  0  0  0  0
  186.4860  173.5510  134.9760 O   0  0  0  0  0  1  0  0  0  0  0  0
  187.7450  174.0470  135.3120 C   0  0  0  0  0  2  0  0  0  0  0  0
  188.3670  178.6250  141.3590 C   0  0  0  0  0  2  0  0  0  0  0  0
  188.9130  177.5650  142.0840 O   0  0  0  0  0  1  0  0  0  0  0  0
  179.9200  178.8670  140.0960 C   0  0  2  0  0  3  0  0  0  0  0  0
  178.9330  177.5410  138.1490 C   0  0  0  0  0  2  0  0  0  0  0  0
  180.1340  177.7410  139.0530 C   0  0  2  0  0  3  0  0  0  0  0  0
  178.9950  176.1030  137.6770 C   0  0  1  0  0  3  0  0  0  0  0  0
  179.6090  176.0530  136.4250 O   0  0  0  0  0  1  0  0  0  0  0  0
  180.3390  176.3800  139.6930 C   0  0  0  0  0  2  0  0  0  0  0  0
  179.8520  175.3570  138.6830 C   0  0  0  0  0  2  0  0  0  0  0  0
  181.4320  180.0040  138.4160 C   0  0  0  0  0  2  0  0  0  0  0  0
  180.7740  180.1180  139.7850 C   0  0  1  0  0  3  0  0  0  0  0  0
  180.6040  180.8560  137.4590 C   0  0  2  0  0  3  0  0  0  0  0  0
  179.4770  181.4910  138.2530 C   0  0  0  0  0  2  0  0  0  0  0  0
  179.9190  181.3810  139.6950 C   0  0  0  0  0  2  0  0  0  0  0  0
  181.2090  179.3500  135.8220 C   0  0  0  0  0  1  0  0  0  0  0  0
  180.1690  180.1640  136.3030 O   0  0  0  0  0  0  0  0  0  0  0  0
  1 13  1  0  0  0  0
  2  9  2  0  0  0  0
  3  8  1  0  0  0  0
  4 32  1  6  0  0  0
  4  9  1  0  0  0  0
  4  7  1  0  0  0  0
  6 12  1  6  0  0  0
  6 10  1  0  0  0  0
  7  3  1  0  0  0  0
  9 11  1  0  0  0  0
 10  1  1  0  0  0  0
 11 13  2  0  0  0  0
 11  8  1  0  0  0  0
 12  2  2  0  0  0  0
 13  5  1  0  0  0  0
 15 14  1  6  0  0  0
 15  6  1  0  0  0  0
 16 15  1  0  0  0  0
 16 30  1  1  0  0  0
 17 18  1  6  0  0  0
 17 16  1  0  0  0  0
 18 19  1  0  0  0  0
 19 14  1  0  0  0  0
 20 22  1  0  0  0  0
 21 25  1  6  0  0  0
 21 24  1  0  0  0  0
 21 23  1  0  0  0  0
 22 23  1  6  0  0  0
 22 17  1  0  0  0  0
 24 26  1  1  0  0  0
 24 20  1  0  0  0  0
 27 26  1  0  0  0  0
 28 29  1  0  0  0  0
 29 27  1  0  0  0  0
 30 31  1  0  0  0  0
 32 34  1  6  0  0  0
 34 33  1  6  0  0  0
 34 37  1  0  0  0  0
 35 36  1  6  0  0  0
 35 33  1  0  0  0  0
 35 38  1  0  0  0  0
 38 37  1  0  0  0  0
 39 40  1  0  0  0  0
 40 32  1  6  0  0  0
 41 45  1  6  0  0  0
 41 42  1  0  0  0  0
 41 39  1  0  0  0  0
 42 43  1  0  0  0  0
 43 40  1  0  0  0  0
 44 45  1  0  0  0  0
M  END
>  <MODEL>
6

>  <REMARK>
 VINA RESULT:      -7.1      3.236      7.597
  Name = 
  10 active torsions:
  status: ('A' for Active; 'I' for Inactive)
    1  A    between atoms: C_2  and  C_3
    2  A    between atoms: C_3  and  C_7
    3  A    between atoms: C_3  and  C_17
    4  A    between atoms: C_6  and  C_29
    5  A    between atoms: C_10  and  O_45
    6  A    between atoms: C_19  and  C_22
    7  A    between atoms: C_24  and  S_35
    8  A    between atoms: C_31  and  C_32
    9  A    between atoms: C_34  and  S_35
   10  A    between atoms: C_34  and  C_42
                            x       y       z     vdW  Elec       q    Type
                         _______ _______ _______ _____ _____    ______ ____

>  <TORSDO>
F 10

$$$$
=
 OpenBabel11062414223D

 45 50  0  0  1  0  0  0  0  0999 V2000
  187.5380  176.5120  137.5710 C   0  0  0  0  0  2  0  0  0  0  0  0
  188.0940  178.1560  139.8140 C   0  0  0  0  0  0  0  0  0  0  0  0
  184.4040  179.6530  139.9370 C   0  0  0  0  0  2  0  0  0  0  0  0
  186.2470  179.0660  141.0990 C   0  0  2  0  0  3  0  0  0  0  0  0
  185.3580  177.1650  136.6210 O   0  0  0  0  0  1  0  0  0  0  0  0
  189.8120  177.4930  138.1960 C   0  0  1  0  0  3  0  0  0  0  0  0
  184.8380  179.0560  141.1310 O   0  0  0  0  0  0  0  0  0  0  0  0
  184.5360  178.6510  138.7930 C   0  0  0  0  0  2  0  0  0  0  0  0
  186.7990  178.2590  139.9450 C   0  0  0  0  0  0  0  0  0  0  0  0
  188.6830  177.4290  137.1420 C   0  0  0  0  0  2  0  0  0  0  0  0
  185.9130  178.0350  138.7590 C   0  0  0  0  0  0  0  0  0  0  0  0
  189.3600  177.9970  139.5470 C   0  0  0  0  0  3  0  0  0  0  0  0
  186.2470  177.2740  137.6860 C   0  0  0  0  0  0  0  0  0  0  0  0
  191.3580  176.0850  139.4940 O   0  0  0  0  0  0  0  0  0  0  0  0
  190.5710  176.1570  138.3180 C   0  0  2  0  0  3  0  0  0  0  0  0
  191.3500  175.8030  137.0310 C   0  0  1  0  0  3  0  0  0  0  0  0
  192.7890  175.3410  137.3330 C   0  0  2  0  0  3  0  0  0  0  0  0
  193.4880  176.2270  138.3800 C   0  0  0  0  0  2  0  0  0  0  0  0
  192.4910  176.8990  139.3190 C   0  0  0  0  0  2  0  0  0  0  0  0
  195.0050  175.8340  136.1810 C   0  0  0  0  0  2  0  0  0  0  0  0
  195.2990  173.5870  135.3530 C   0  0  1  0  0  3  0  0  0  0  0  0
  193.6260  175.1990  136.0540 C   0  0  1  0  0  3  0  0  0  0  0  0
  193.8300  173.7380  135.6850 C   0  0  0  0  0  2  0  0  0  0  0  0
  196.0080  174.7000  136.0920 C   0  0  1  0  0  3  0  0  0  0  0  0
  195.7570  172.3480  135.8020 O   0  0  0  0  0  1  0  0  0  0  0  0
  197.2440  175.1360  135.3240 C   0  0  0  0  0  2  0  0  0  0  0  0
  198.7410  174.4710  136.1100 S   0  0  0  0  0  0  0  0  0  0  0  0
  198.3530  175.6280  138.4380 O   0  0  0  0  0  1  0  0  0  0  0  0
  197.9620  174.4820  137.7470 C   0  0  0  0  0  2  0  0  0  0  0  0
  190.5830  174.7210  136.2840 C   0  0  0  0  0  2  0  0  0  0  0  0
  189.8930  173.9110  137.1860 O   0  0  0  0  0  1  0  0  0  0  0  0
  186.8390  178.6450  142.4650 C   0  0  2  0  0  3  0  0  0  0  0  0
  188.2670  176.5700  142.8880 C   0  0  0  0  0  2  0  0  0  0  0  0
  188.2290  177.9750  142.3180 C   0  0  2  0  0  3  0  0  0  0  0  0
  189.7100  176.3090  143.2670 C   0  0  1  0  0  3  0  0  0  0  0  0
  190.3430  175.6190  142.2330 O   0  0  0  0  0  1  0  0  0  0  0  0
  189.3160  178.7080  143.0820 C   0  0  0  0  0  2  0  0  0  0  0  0
  190.3640  177.6680  143.4340 C   0  0  0  0  0  2  0  0  0  0  0  0
  186.4290  177.2430  144.5310 C   0  0  0  0  0  2  0  0  0  0  0  0
  185.8350  177.7440  143.2210 C   0  0  1  0  0  3  0  0  0  0  0  0
  185.8350  178.1070  145.6400 C   0  0  2  0  0  3  0  0  0  0  0  0
  184.8780  179.0960  145.0010 C   0  0  0  0  0  2  0  0  0  0  0  0
  184.5830  178.5130  143.6370 C   0  0  0  0  0  2  0  0  0  0  0  0
  187.5960  177.7130  147.0740 C   0  0  0  0  0  1  0  0  0  0  0  0
  186.8020  178.7090  146.4800 O   0  0  0  0  0  0  0  0  0  0  0  0
  1 13  1  0  0  0  0
  2  9  2  0  0  0  0
  3  7  1  0  0  0  0
  4  7  1  0  0  0  0
  4 32  1  1  0  0  0
  5 13  1  0  0  0  0
  6 10  1  6  0  0  0
  6 15  1  0  0  0  0
  6 12  1  0  0  0  0
  8  3  1  0  0  0  0
  9  4  1  0  0  0  0
 10  1  1  0  0  0  0
 11  8  1  0  0  0  0
 11  9  1  0  0  0  0
 12  2  2  0  0  0  0
 13 11  2  0  0  0  0
 15 14  1  1  0  0  0
 16 30  1  1  0  0  0
 16 17  1  0  0  0  0
 16 15  1  0  0  0  0
 17 18  1  1  0  0  0
 18 19  1  0  0  0  0
 19 14  1  0  0  0  0
 21 23  1  0  0  0  0
 21 25  1  1  0  0  0
 21 24  1  0  0  0  0
 22 23  1  1  0  0  0
 22 20  1  0  0  0  0
 22 17  1  0  0  0  0
 24 26  1  6  0  0  0
 24 20  1  0  0  0  0
 26 27  1  0  0  0  0
 27 29  1  0  0  0  0
 29 28  1  0  0  0  0
 30 31  1  0  0  0  0
 32 34  1  6  0  0  0
 33 35  1  0  0  0  0
 34 33  1  1  0  0  0
 34 37  1  0  0  0  0
 35 36  1  6  0  0  0
 35 38  1  0  0  0  0
 37 38  1  0  0  0  0
 39 41  1  0  0  0  0
 40 32  1  1  0  0  0
 40 43  1  0  0  0  0
 40 39  1  0  0  0  0
 41 45  1  6  0  0  0
 42 41  1  0  0  0  0
 43 42  1  0  0  0  0
 45 44  1  0  0  0  0
M  END
>  <MODEL>
7

>  <REMARK>
 VINA RESULT:      -7.0      4.003      9.046
  Name = 
  10 active torsions:
  status: ('A' for Active; 'I' for Inactive)
    1  A    between atoms: C_2  and  C_3
    2  A    between atoms: C_3  and  C_7
    3  A    between atoms: C_3  and  C_17
    4  A    between atoms: C_6  and  C_29
    5  A    between atoms: C_10  and  O_45
    6  A    between atoms: C_19  and  C_22
    7  A    between atoms: C_24  and  S_35
    8  A    between atoms: C_31  and  C_32
    9  A    between atoms: C_34  and  S_35
   10  A    between atoms: C_34  and  C_42
                            x       y       z     vdW  Elec       q    Type
                         _______ _______ _______ _____ _____    ______ ____

>  <TORSDO>
F 10

$$$$
=
 OpenBabel11062414223D

 45 50  0  0  1  0  0  0  0  0999 V2000
  184.2930  179.0070  141.0630 C   0  0  0  0  0  2  0  0  0  0  0  0
  182.9220  179.0600  138.5820 C   0  0  0  0  0  0  0  0  0  0  0  0
  179.3540  179.5410  140.2880 C   0  0  0  0  0  2  0  0  0  0  0  0
  180.6650  179.9500  138.4980 C   0  0  2  0  0  3  0  0  0  0  0  0
  182.6440  178.8150  142.8860 O   0  0  0  0  0  1  0  0  0  0  0  0
  185.0250  177.8450  138.9100 C   0  0  1  0  0  3  0  0  0  0  0  0
  179.6910  180.5220  139.3420 O   0  0  0  0  0  0  0  0  0  0  0  0
  180.4480  179.4650  141.3510 C   0  0  0  0  0  2  0  0  0  0  0  0
  181.9230  179.5720  139.2490 C   0  0  0  0  0  0  0  0  0  0  0  0
  184.6040  177.6710  140.3860 C   0  0  0  0  0  2  0  0  0  0  0  0
  181.8140  179.3320  140.7230 C   0  0  0  0  0  0  0  0  0  0  0  0
  183.9780  178.5130  138.0480 C   0  0  0  0  0  3  0  0  0  0  0  0
  182.8670  179.0570  141.5340 C   0  0  0  0  0  0  0  0  0  0  0  0
  186.6750  178.9280  137.4380 O   0  0  0  0  0  0  0  0  0  0  0  0
  186.3940  178.5380  138.7720 C   0  0  2  0  0  3  0  0  0  0  0  0
  187.5340  177.7290  139.4310 C   0  0  1  0  0  3  0  0  0  0  0  0
  188.7710  177.6220  138.5190 C   0  0  2  0  0  3  0  0  0  0  0  0
  188.4060  177.2980  137.0590 C   0  0  0  0  0  2  0  0  0  0  0  0
  187.0020  177.7770  136.7010 C   0  0  0  0  0  2  0  0  0  0  0  0
  190.2290  175.5850  138.0620 C   0  0  0  0  0  2  0  0  0  0  0  0
  192.2360  176.5760  138.9650 C   0  0  1  0  0  3  0  0  0  0  0  0
  189.8130  176.6420  139.0770 C   0  0  1  0  0  3  0  0  0  0  0  0
  191.0730  177.3680  139.5220 C   0  0  0  0  0  2  0  0  0  0  0  0
  191.6950  175.8350  137.7630 C   0  0  1  0  0  3  0  0  0  0  0  0
  193.2530  177.4460  138.5720 O   0  0  0  0  0  1  0  0  0  0  0  0
  192.4360  174.5210  137.5780 C   0  0  0  0  0  2  0  0  0  0  0  0
  193.9860  174.7950  136.6710 S   0  0  0  0  0  0  0  0  0  0  0  0
  195.4610  174.9840  138.8390 O   0  0  0  0  0  1  0  0  0  0  0  0
  194.9630  174.0060  137.9790 C   0  0  0  0  0  2  0  0  0  0  0  0
  187.8950  178.3900  140.7530 C   0  0  0  0  0  2  0  0  0  0  0  0
  187.8300  177.4580  141.7890 O   0  0  0  0  0  1  0  0  0  0  0  0
  180.9440  180.8560  137.2760 C   0  0  2  0  0  3  0  0  0  0  0  0
  180.0460  183.1010  136.4530 C   0  0  0  0  0  2  0  0  0  0  0  0
  180.7110  182.3550  137.5930 C   0  0  2  0  0  3  0  0  0  0  0  0
  180.4570  184.5510  136.6020 C   0  0  1  0  0  3  0  0  0  0  0  0
  179.4600  185.2480  137.2850 O   0  0  0  0  0  1  0  0  0  0  0  0
  182.0050  183.1140  137.8200 C   0  0  0  0  0  2  0  0  0  0  0  0
  181.7270  184.5550  137.4330 C   0  0  0  0  0  2  0  0  0  0  0  0
  181.0080  180.0370  134.8830 C   0  0  0  0  0  2  0  0  0  0  0  0
  180.1090  180.3810  136.0640 C   0  0  1  0  0  3  0  0  0  0  0  0
  181.1300  178.5160  134.8530 C   0  0  2  0  0  3  0  0  0  0  0  0
  180.2930  177.9570  135.9900 C   0  0  0  0  0  2  0  0  0  0  0  0
  179.3580  179.0850  136.3640 C   0  0  0  0  0  2  0  0  0  0  0  0
  182.4970  176.7070  135.2690 C   0  0  0  0  0  1  0  0  0  0  0  0
  182.4650  178.0460  134.8420 O   0  0  0  0  0  0  0  0  0  0  0  0
  1 13  1  0  0  0  0
  2  9  2  0  0  0  0
  3  8  1  0  0  0  0
  4 32  1  6  0  0  0
  4  9  1  0  0  0  0
  4  7  1  0  0  0  0
  6 12  1  6  0  0  0
  6 10  1  0  0  0  0
  7  3  1  0  0  0  0
  9 11  1  0  0  0  0
 10  1  1  0  0  0  0
 11  8  1  0  0  0  0
 11 13  2  0  0  0  0
 12  2  2  0  0  0  0
 13  5  1  0  0  0  0
 15 14  1  6  0  0  0
 15  6  1  0  0  0  0
 15 16  1  0  0  0  0
 16 30  1  1  0  0  0
 17 18  1  6  0  0  0
 17 22  1  0  0  0  0
 17 16  1  0  0  0  0
 19 18  1  0  0  0  0
 19 14  1  0  0  0  0
 21 25  1  6  0  0  0
 21 23  1  0  0  0  0
 22 20  1  6  0  0  0
 22 23  1  0  0  0  0
 24 26  1  1  0  0  0
 24 20  1  0  0  0  0
 24 21  1  0  0  0  0
 27 26  1  0  0  0  0
 27 29  1  0  0  0  0
 29 28  1  0  0  0  0
 30 31  1  0  0  0  0
 32 40  1  6  0  0  0
 33 35  1  0  0  0  0
 33 34  1  0  0  0  0
 34 32  1  6  0  0  0
 34 37  1  0  0  0  0
 35 36  1  1  0  0  0
 35 38  1  0  0  0  0
 38 37  1  0  0  0  0
 40 39  1  6  0  0  0
 40 43  1  0  0  0  0
 41 45  1  1  0  0  0
 41 39  1  0  0  0  0
 41 42  1  0  0  0  0
 42 43  1  0  0  0  0
 45 44  1  0  0  0  0
M  END
>  <MODEL>
8

>  <REMARK>
 VINA RESULT:      -6.9      3.700      7.490
  Name = 
  10 active torsions:
  status: ('A' for Active; 'I' for Inactive)
    1  A    between atoms: C_2  and  C_3
    2  A    between atoms: C_3  and  C_7
    3  A    between atoms: C_3  and  C_17
    4  A    between atoms: C_6  and  C_29
    5  A    between atoms: C_10  and  O_45
    6  A    between atoms: C_19  and  C_22
    7  A    between atoms: C_24  and  S_35
    8  A    between atoms: C_31  and  C_32
    9  A    between atoms: C_34  and  S_35
   10  A    between atoms: C_34  and  C_42
                            x       y       z     vdW  Elec       q    Type
                         _______ _______ _______ _____ _____    ______ ____

>  <TORSDO>
F 10

$$$$
=
 OpenBabel11062414223D

 45 50  0  0  1  0  0  0  0  0999 V2000
  186.8270  175.3860  137.5870 C   0  0  0  0  0  2  0  0  0  0  0  0
  184.2450  176.1600  136.7090 C   0  0  0  0  0  0  0  0  0  0  0  0
  182.9580  172.4030  136.4020 C   0  0  0  0  0  2  0  0  0  0  0  0
  182.4280  174.5550  136.8220 C   0  0  2  0  0  3  0  0  0  0  0  0
  187.0850  172.9540  137.2710 O   0  0  0  0  0  1  0  0  0  0  0  0
  186.2480  177.5110  136.2960 C   0  0  1  0  0  3  0  0  0  0  0  0
  182.1750  173.2280  137.2240 O   0  0  0  0  0  0  0  0  0  0  0  0
  184.4060  172.4330  136.8850 C   0  0  0  0  0  2  0  0  0  0  0  0
  183.8770  174.9450  137.0110 C   0  0  0  0  0  0  0  0  0  0  0  0
  187.0470  176.1880  136.3050 C   0  0  0  0  0  2  0  0  0  0  0  0
  184.8980  173.8500  137.0550 C   0  0  0  0  0  0  0  0  0  0  0  0
  184.7530  177.3250  136.4180 C   0  0  0  0  0  3  0  0  0  0  0  0
  186.2200  174.0440  137.2890 C   0  0  0  0  0  0  0  0  0  0  0  0
  187.8900  179.2570  136.8590 O   0  0  0  0  0  0  0  0  0  0  0  0
  186.7770  178.5190  137.3350 C   0  0  2  0  0  3  0  0  0  0  0  0
  187.0110  177.8710  138.7180 C   0  0  1  0  0  3  0  0  0  0  0  0
  188.3730  178.2670  139.3200 C   0  0  2  0  0  3  0  0  0  0  0  0
  189.5170  178.2080  138.2920 C   0  0  0  0  0  2  0  0  0  0  0  0
  189.0150  178.4140  136.8660 C   0  0  0  0  0  2  0  0  0  0  0  0
  190.1570  177.0210  140.6410 C   0  0  0  0  0  2  0  0  0  0  0  0
  189.6170  178.0770  142.7430 C   0  0  1  0  0  3  0  0  0  0  0  0
  188.6990  177.4590  140.5840 C   0  0  1  0  0  3  0  0  0  0  0  0
  188.4130  178.2600  141.8440 C   0  0  0  0  0  2  0  0  0  0  0  0
  190.7720  177.7410  141.8260 C   0  0  1  0  0  3  0  0  0  0  0  0
  189.8800  179.2650  143.4250 O   0  0  0  0  0  1  0  0  0  0  0  0
  191.7670  176.8430  142.5420 C   0  0  0  0  0  2  0  0  0  0  0  0
  190.8910  175.6150  143.5540 S   0  0  0  0  0  0  0  0  0  0  0  0
  190.7710  176.9510  145.8150 O   0  0  0  0  0  1  0  0  0  0  0  0
  191.6860  176.2060  145.0720 C   0  0  0  0  0  2  0  0  0  0  0  0
  185.8740  178.2790  139.6420 C   0  0  0  0  0  2  0  0  0  0  0  0
  185.2830  179.4580  139.1860 O   0  0  0  0  0  1  0  0  0  0  0  0
  181.4470  175.5390  137.5010 C   0  0  2  0  0  3  0  0  0  0  0  0
  179.6730  174.3600  138.9110 C   0  0  0  0  0  2  0  0  0  0  0  0
  181.0190  175.0590  138.9110 C   0  0  2  0  0  3  0  0  0  0  0  0
  179.1080  174.5340  140.3060 C   0  0  1  0  0  3  0  0  0  0  0  0
  179.3970  173.4000  141.0660 O   0  0  0  0  0  1  0  0  0  0  0  0
  180.8340  176.2050  139.8890 C   0  0  0  0  0  2  0  0  0  0  0  0
  179.8150  175.7330  140.9090 C   0  0  0  0  0  2  0  0  0  0  0  0
  179.7710  177.2450  136.6720 C   0  0  0  0  0  2  0  0  0  0  0  0
  180.2320  175.7950  136.5790 C   0  0  1  0  0  3  0  0  0  0  0  0
  180.3170  177.9580  135.4380 C   0  0  2  0  0  3  0  0  0  0  0  0
  181.0740  176.9390  134.6050 C   0  0  0  0  0  2  0  0  0  0  0  0
  180.5840  175.5990  135.1060 C   0  0  0  0  0  2  0  0  0  0  0  0
  180.3600  179.9130  136.6570 C   0  0  0  0  0  1  0  0  0  0  0  0
  181.0630  179.1240  135.7310 O   0  0  0  0  0  0  0  0  0  0  0  0
  2  9  2  0  0  0  0
  3  8  1  0  0  0  0
  3  7  1  0  0  0  0
  4  9  1  0  0  0  0
  4  7  1  0  0  0  0
  4 32  1  1  0  0  0
  5 13  1  0  0  0  0
  6 10  1  1  0  0  0
  6 12  1  0  0  0  0
  6 15  1  0  0  0  0
  8 11  1  0  0  0  0
  9 11  1  0  0  0  0
 10  1  1  0  0  0  0
 11 13  2  0  0  0  0
 12  2  2  0  0  0  0
 13  1  1  0  0  0  0
 14 19  1  0  0  0  0
 15 14  1  6  0  0  0
 15 16  1  0  0  0  0
 16 17  1  0  0  0  0
 16 30  1  1  0  0  0
 17 18  1  6  0  0  0
 17 22  1  0  0  0  0
 19 18  1  0  0  0  0
 20 24  1  0  0  0  0
 21 25  1  6  0  0  0
 22 20  1  6  0  0  0
 22 23  1  0  0  0  0
 23 21  1  0  0  0  0
 24 26  1  1  0  0  0
 24 21  1  0  0  0  0
 26 27  1  0  0  0  0
 27 29  1  0  0  0  0
 29 28  1  0  0  0  0
 31 30  1  0  0  0  0
 32 40  1  6  0  0  0
 33 35  1  0  0  0  0
 34 32  1  6  0  0  0
 34 33  1  0  0  0  0
 34 37  1  0  0  0  0
 35 38  1  0  0  0  0
 35 36  1  1  0  0  0
 37 38  1  0  0  0  0
 40 43  1  6  0  0  0
 40 39  1  0  0  0  0
 41 45  1  1  0  0  0
 41 39  1  0  0  0  0
 42 43  1  0  0  0  0
 42 41  1  0  0  0  0
 45 44  1  0  0  0  0
M  END
>  <MODEL>
9

>  <REMARK>
 VINA RESULT:      -6.9      2.818      5.953
  Name = 
  10 active torsions:
  status: ('A' for Active; 'I' for Inactive)
    1  A    between atoms: C_2  and  C_3
    2  A    between atoms: C_3  and  C_7
    3  A    between atoms: C_3  and  C_17
    4  A    between atoms: C_6  and  C_29
    5  A    between atoms: C_10  and  O_45
    6  A    between atoms: C_19  and  C_22
    7  A    between atoms: C_24  and  S_35
    8  A    between atoms: C_31  and  C_32
    9  A    between atoms: C_34  and  S_35
   10  A    between atoms: C_34  and  C_42
                            x       y       z     vdW  Elec       q    Type
                         _______ _______ _______ _____ _____    ______ ____

>  <TORSDO>
F 10

$$$$
