=
 OpenBabel11062417103D

 36 38  0  0  1  0  0  0  0  0999 V2000
  188.5620  176.2040  143.1410 C   0  0  0  0  0  2  0  0  0  0  0  0
  187.4640  176.3350  143.9950 O   0  0  0  0  0  0  0  0  0  0  0  0
  184.7300  179.2470  143.4760 C   0  0  2  0  0  3  0  0  0  0  0  0
  185.1440  179.0730  140.9150 C   0  0  0  0  0  2  0  0  0  0  0  0
  185.4560  179.2760  144.6930 O   0  0  0  0  0  0  0  0  0  0  0  0
  181.3590  179.4500  142.9360 O   0  0  0  0  0  0  0  0  0  0  0  0
  186.6520  178.0160  142.5310 C   0  0  0  0  0  3  0  0  0  0  0  0
  182.4430  178.9350  142.5540 C   0  0  0  0  0  0  0  0  0  0  0  0
  182.8960  178.5160  144.8410 F   0  0  0  0  0  0  0  0  0  0  0  0
  183.9060  178.2600  140.5670 C   0  0  0  0  0  2  0  0  0  0  0  0
  182.7070  178.8500  141.1480 N   0  0  0  0  0  2  0  0  0  0  0  0
  187.1100  177.6860  143.9290 C   0  0  1  0  0  3  0  0  0  0  0  0
  185.9930  177.9950  144.9470 C   0  0  1  0  0  3  0  0  0  0  0  0
  183.4310  178.4360  143.5670 C   0  0  2  0  0  3  0  0  0  0  0  0
  185.5810  178.7890  142.3140 C   0  0  0  0  0  0  0  0  0  0  0  0
  185.8060  178.9440  147.2720 C   0  0  0  0  0  1  0  0  0  0  0  0
  187.9440  178.2110  146.4200 N   0  0  0  0  0  1  0  0  0  0  0  0
  186.5180  177.9330  146.3880 C   0  0  2  0  0  3  0  0  0  0  0  0
  189.8390  176.7130  143.8240 C   0  0  0  0  0  2  0  0  0  0  0  0
  191.1730  178.6930  143.9620 C   0  0  0  0  0  1  0  0  0  0  0  0
  190.5880  177.7130  143.0470 N   0  0  0  0  0  0  0  0  0  0  0  0
  191.6430  177.0580  142.2720 C   0  0  0  0  0  2  0  0  0  0  0  0
  191.6310  177.5290  140.8310 C   0  0  0  0  0  2  0  0  0  0  0  0
  190.1910  177.6810  140.3680 C   0  0  0  0  0  2  0  0  0  0  0  0
  189.1890  178.0230  138.0880 C   0  0  0  0  0  0  0  0  0  0  0  0
  188.9900  179.2440  138.3400 O   0  0  0  0  0  0  0  0  0  0  0  0
  190.1260  175.5510  136.2400 C   0  0  0  0  0  2  0  0  0  0  0  0
  190.7610  176.0440  138.6080 C   0  0  0  0  0  2  0  0  0  0  0  0
  190.0460  177.2670  138.9780 N   0  0  0  0  0  0  0  0  0  0  0  0
  191.2180  176.1010  137.1570 C   0  0  0  0  0  2  0  0  0  0  0  0
  188.7200  175.9250  136.7110 C   0  0  0  0  0  2  0  0  0  0  0  0
  188.5050  177.4370  136.8620 C   0  0  2  0  0  0  0  0  0  0  0  0
  188.9780  178.0980  135.7240 O   0  0  0  0  0  1  0  0  0  0  0  0
  186.9990  177.6940  137.0090 C   0  0  0  0  0  2  0  0  0  0  0  0
  184.9040  176.5700  137.3140 O   0  0  0  0  0  1  0  0  0  0  0  0
  186.1330  176.4880  136.6600 C   0  0  0  0  0  2  0  0  0  0  0  0
  1 19  1  0  0  0  0
  1  2  1  0  0  0  0
  3 15  1  6  0  0  0
  3 14  1  0  0  0  0
  3  5  1  0  0  0  0
  4 15  1  0  0  0  0
  5 13  1  0  0  0  0
  7 12  1  0  0  0  0
  8  6  2  0  0  0  0
  8 14  1  0  0  0  0
 10  4  1  0  0  0  0
 10 11  1  0  0  0  0
 11  8  1  0  0  0  0
 12  2  1  6  0  0  0
 12 13  1  0  0  0  0
 13 18  1  1  0  0  0
 14  9  1  1  0  0  0
 15  7  2  0  0  0  0
 18 17  1  0  0  0  0
 18 16  1  1  0  0  0
 21 19  1  0  0  0  0
 21 20  1  0  0  0  0
 22 21  1  0  0  0  0
 23 22  1  0  0  0  0
 24 23  1  0  0  0  0
 25 26  2  0  0  0  0
 25 29  1  0  0  0  0
 27 31  1  0  0  0  0
 27 30  1  0  0  0  0
 28 29  1  0  0  0  0
 29 24  1  0  0  0  0
 30 28  1  0  0  0  0
 31 32  1  0  0  0  0
 32 33  1  6  0  0  0
 32 34  1  0  0  0  0
 32 25  1  0  0  0  0
 36 34  1  0  0  0  0
 36 35  1  0  0  0  0
M  END
>  <MODEL>
1

>  <REMARK>
 VINA RESULT:      -7.5      0.000      0.000
  Name = 
  11 active torsions:
  status: ('A' for Active; 'I' for Inactive)
    1  A    between atoms: N_10  and  C_22
    2  A    between atoms: C_14  and  O_18
    3  A    between atoms: C_14  and  C_19
    4  A    between atoms: C_17  and  C_32
    5  A    between atoms: O_18  and  C_30
    6  A    between atoms: C_19  and  N_26
    7  A    between atoms: C_22  and  C_31
    8  A    between atoms: C_25  and  C_32
    9  A    between atoms: N_26  and  C_29
   10  A    between atoms: C_27  and  C_34
   11  A    between atoms: C_29  and  C_31
                            x       y       z     vdW  Elec       q    Type
                         _______ _______ _______ _____ _____    ______ ____

>  <TORSDO>
F 11

$$$$
=
 OpenBabel11062417103D

 36 38  0  0  1  0  0  0  0  0999 V2000
  184.2020  178.9380  143.1630 C   0  0  0  0  0  2  0  0  0  0  0  0
  185.5610  179.1440  143.4120 O   0  0  0  0  0  0  0  0  0  0  0  0
  188.4210  176.9760  145.2400 C   0  0  2  0  0  3  0  0  0  0  0  0
  188.9070  175.8340  142.9550 C   0  0  0  0  0  2  0  0  0  0  0  0
  187.3230  177.3720  146.0430 O   0  0  0  0  0  0  0  0  0  0  0  0
  191.7780  177.2540  145.8370 O   0  0  0  0  0  0  0  0  0  0  0  0
  186.8950  177.1840  143.3090 C   0  0  0  0  0  3  0  0  0  0  0  0
  190.8720  177.2890  144.9620 C   0  0  0  0  0  0  0  0  0  0  0  0
  189.6420  178.6290  146.4810 F   0  0  0  0  0  0  0  0  0  0  0  0
  190.1560  176.6270  142.5970 C   0  0  0  0  0  2  0  0  0  0  0  0
  191.1050  176.6460  143.7040 N   0  0  0  0  0  2  0  0  0  0  0  0
  185.9700  178.0290  144.1500 C   0  0  1  0  0  3  0  0  0  0  0  0
  186.6800  178.4770  145.4440 C   0  0  1  0  0  3  0  0  0  0  0  0
  189.5760  177.9870  145.2560 C   0  0  2  0  0  3  0  0  0  0  0  0
  188.0050  176.6440  143.8250 C   0  0  0  0  0  0  0  0  0  0  0  0
  186.3470  179.3360  147.7870 C   0  0  0  0  0  1  0  0  0  0  0  0
  184.5450  178.2210  146.6270 N   0  0  0  0  0  1  0  0  0  0  0  0
  185.6890  179.0980  146.4380 C   0  0  2  0  0  3  0  0  0  0  0  0
  183.9660  178.6410  141.6750 C   0  0  0  0  0  2  0  0  0  0  0  0
  181.6860  178.9340  142.3340 C   0  0  0  0  0  1  0  0  0  0  0  0
  182.5680  178.3420  141.3280 N   0  0  0  0  0  0  0  0  0  0  0  0
  182.2530  178.8820  140.0050 C   0  0  0  0  0  2  0  0  0  0  0  0
  182.2680  177.7900  138.9540 C   0  0  0  0  0  2  0  0  0  0  0  0
  183.0450  178.2730  137.7420 C   0  0  0  0  0  2  0  0  0  0  0  0
  185.5160  177.8100  137.7030 C   0  0  0  0  0  0  0  0  0  0  0  0
  185.7100  178.6800  138.5970 O   0  0  0  0  0  0  0  0  0  0  0  0
  185.9370  174.9350  136.3030 C   0  0  0  0  0  2  0  0  0  0  0  0
  183.7890  176.0980  136.8380 C   0  0  0  0  0  2  0  0  0  0  0  0
  184.1570  177.3790  137.4460 N   0  0  0  0  0  0  0  0  0  0  0  0
  184.7520  174.9990  137.2660 C   0  0  0  0  0  2  0  0  0  0  0  0
  186.3760  176.3170  135.8190 C   0  0  0  0  0  2  0  0  0  0  0  0
  186.7330  177.2830  136.9580 C   0  0  2  0  0  0  0  0  0  0  0  0
  187.5780  176.6440  137.8720 O   0  0  0  0  0  1  0  0  0  0  0  0
  187.4610  178.4900  136.3530 C   0  0  0  0  0  2  0  0  0  0  0  0
  188.9620  179.7280  137.7540 O   0  0  0  0  0  1  0  0  0  0  0  0
  188.8900  178.6620  136.8580 C   0  0  0  0  0  2  0  0  0  0  0  0
  1  2  1  0  0  0  0
  3 15  1  6  0  0  0
  3 14  1  0  0  0  0
  3  5  1  0  0  0  0
  4 15  1  0  0  0  0
  7 15  2  0  0  0  0
  7 12  1  0  0  0  0
  8 14  1  0  0  0  0
  8  6  2  0  0  0  0
 10  4  1  0  0  0  0
 10 11  1  0  0  0  0
 11  8  1  0  0  0  0
 12  2  1  6  0  0  0
 12 13  1  0  0  0  0
 13  5  1  0  0  0  0
 13 18  1  1  0  0  0
 14  9  1  1  0  0  0
 18 17  1  0  0  0  0
 18 16  1  1  0  0  0
 19  1  1  0  0  0  0
 21 19  1  0  0  0  0
 21 20  1  0  0  0  0
 22 21  1  0  0  0  0
 23 22  1  0  0  0  0
 24 23  1  0  0  0  0
 25 26  2  0  0  0  0
 27 30  1  0  0  0  0
 28 30  1  0  0  0  0
 28 29  1  0  0  0  0
 29 25  1  0  0  0  0
 29 24  1  0  0  0  0
 31 27  1  0  0  0  0
 31 32  1  0  0  0  0
 32 25  1  0  0  0  0
 32 33  1  1  0  0  0
 34 36  1  0  0  0  0
 34 32  1  0  0  0  0
 36 35  1  0  0  0  0
M  END
>  <MODEL>
2

>  <REMARK>
 VINA RESULT:      -7.3      2.386      5.844
  Name = 
  11 active torsions:
  status: ('A' for Active; 'I' for Inactive)
    1  A    between atoms: N_10  and  C_22
    2  A    between atoms: C_14  and  O_18
    3  A    between atoms: C_14  and  C_19
    4  A    between atoms: C_17  and  C_32
    5  A    between atoms: O_18  and  C_30
    6  A    between atoms: C_19  and  N_26
    7  A    between atoms: C_22  and  C_31
    8  A    between atoms: C_25  and  C_32
    9  A    between atoms: N_26  and  C_29
   10  A    between atoms: C_27  and  C_34
   11  A    between atoms: C_29  and  C_31
                            x       y       z     vdW  Elec       q    Type
                         _______ _______ _______ _____ _____    ______ ____

>  <TORSDO>
F 11

$$$$
=
 OpenBabel11062417103D

 36 38  0  0  1  0  0  0  0  0999 V2000
  184.4690  178.9540  142.7590 C   0  0  0  0  0  2  0  0  0  0  0  0
  185.7360  179.2290  143.2800 O   0  0  0  0  0  0  0  0  0  0  0  0
  188.4580  176.9650  145.2010 C   0  0  2  0  0  3  0  0  0  0  0  0
  189.0640  175.8900  142.9130 C   0  0  0  0  0  2  0  0  0  0  0  0
  187.3190  177.3500  145.9510 O   0  0  0  0  0  0  0  0  0  0  0  0
  191.7760  177.1790  146.0010 O   0  0  0  0  0  0  0  0  0  0  0  0
  187.0500  177.2550  143.1920 C   0  0  0  0  0  3  0  0  0  0  0  0
  190.9240  177.2540  145.0770 C   0  0  0  0  0  0  0  0  0  0  0  0
  189.6220  178.5610  146.5640 F   0  0  0  0  0  0  0  0  0  0  0  0
  190.3410  176.6760  142.6540 C   0  0  0  0  0  2  0  0  0  0  0  0
  191.2230  176.6470  143.8140 N   0  0  0  0  0  2  0  0  0  0  0  0
  186.0880  178.0850  144.0040 C   0  0  1  0  0  3  0  0  0  0  0  0
  186.7250  178.4820  145.3510 C   0  0  1  0  0  3  0  0  0  0  0  0
  189.6210  177.9590  145.3170 C   0  0  2  0  0  3  0  0  0  0  0  0
  188.1220  176.6840  143.7540 C   0  0  0  0  0  0  0  0  0  0  0  0
  186.2380  179.1940  147.7170 C   0  0  0  0  0  1  0  0  0  0  0  0
  184.4890  178.2580  146.3380 N   0  0  0  0  0  1  0  0  0  0  0  0
  185.6850  179.0840  146.3050 C   0  0  2  0  0  3  0  0  0  0  0  0
  184.5010  178.9780  141.2250 C   0  0  0  0  0  2  0  0  0  0  0  0
  182.1730  178.5320  140.9040 C   0  0  0  0  0  1  0  0  0  0  0  0
  183.5270  178.0820  140.5820 N   0  0  0  0  0  0  0  0  0  0  0  0
  183.7250  178.0840  139.1320 C   0  0  0  0  0  2  0  0  0  0  0  0
  185.1020  178.6060  138.7720 C   0  0  0  0  0  2  0  0  0  0  0  0
  185.6580  177.7910  137.6160 C   0  0  0  0  0  2  0  0  0  0  0  0
  187.8710  177.1770  136.5940 C   0  0  0  0  0  0  0  0  0  0  0  0
  187.4090  177.3720  135.4360 O   0  0  0  0  0  0  0  0  0  0  0  0
  190.1020  177.4070  138.9130 C   0  0  0  0  0  2  0  0  0  0  0  0
  187.6640  177.9470  139.0480 C   0  0  0  0  0  2  0  0  0  0  0  0
  187.1040  177.6470  137.7290 N   0  0  0  0  0  0  0  0  0  0  0  0
  189.0640  178.5300  138.9230 C   0  0  0  0  0  2  0  0  0  0  0  0
  189.6190  176.1680  138.1590 C   0  0  0  0  0  2  0  0  0  0  0  0
  189.2050  176.4540  136.7090 C   0  0  2  0  0  0  0  0  0  0  0  0
  190.1890  177.2230  136.0790 O   0  0  0  0  0  1  0  0  0  0  0  0
  189.0650  175.1120  135.9770 C   0  0  0  0  0  2  0  0  0  0  0  0
  187.1950  173.7890  136.6820 O   0  0  0  0  0  1  0  0  0  0  0  0
  188.5640  173.9770  136.8640 C   0  0  0  0  0  2  0  0  0  0  0  0
  1  2  1  0  0  0  0
  3 15  1  6  0  0  0
  3 14  1  0  0  0  0
  3  5  1  0  0  0  0
  4 15  1  0  0  0  0
  7 15  2  0  0  0  0
  7 12  1  0  0  0  0
  8 14  1  0  0  0  0
  8  6  2  0  0  0  0
 10  4  1  0  0  0  0
 10 11  1  0  0  0  0
 11  8  1  0  0  0  0
 12  2  1  6  0  0  0
 12 13  1  0  0  0  0
 13  5  1  0  0  0  0
 13 18  1  1  0  0  0
 14  9  1  1  0  0  0
 18 17  1  0  0  0  0
 18 16  1  1  0  0  0
 19  1  1  0  0  0  0
 21 20  1  0  0  0  0
 21 19  1  0  0  0  0
 22 21  1  0  0  0  0
 23 22  1  0  0  0  0
 24 29  1  0  0  0  0
 24 23  1  0  0  0  0
 25 32  1  0  0  0  0
 25 29  1  0  0  0  0
 26 25  2  0  0  0  0
 27 30  1  0  0  0  0
 29 28  1  0  0  0  0
 30 28  1  0  0  0  0
 31 27  1  0  0  0  0
 32 33  1  6  0  0  0
 32 31  1  0  0  0  0
 34 32  1  0  0  0  0
 34 36  1  0  0  0  0
 35 36  1  0  0  0  0
M  END
>  <MODEL>
3

>  <REMARK>
 VINA RESULT:      -7.2      2.160      5.277
  Name = 
  11 active torsions:
  status: ('A' for Active; 'I' for Inactive)
    1  A    between atoms: N_10  and  C_22
    2  A    between atoms: C_14  and  O_18
    3  A    between atoms: C_14  and  C_19
    4  A    between atoms: C_17  and  C_32
    5  A    between atoms: O_18  and  C_30
    6  A    between atoms: C_19  and  N_26
    7  A    between atoms: C_22  and  C_31
    8  A    between atoms: C_25  and  C_32
    9  A    between atoms: N_26  and  C_29
   10  A    between atoms: C_27  and  C_34
   11  A    between atoms: C_29  and  C_31
                            x       y       z     vdW  Elec       q    Type
                         _______ _______ _______ _____ _____    ______ ____

>  <TORSDO>
F 11

$$$$
=
 OpenBabel11062417103D

 36 38  0  0  1  0  0  0  0  0999 V2000
  185.7370  178.8910  141.5860 C   0  0  0  0  0  2  0  0  0  0  0  0
  186.0700  179.3000  142.8800 O   0  0  0  0  0  0  0  0  0  0  0  0
  188.5000  176.9220  145.0400 C   0  0  2  0  0  3  0  0  0  0  0  0
  189.4270  175.9700  142.8060 C   0  0  0  0  0  2  0  0  0  0  0  0
  187.2650  177.2710  145.6410 O   0  0  0  0  0  0  0  0  0  0  0  0
  191.6710  177.0760  146.3130 O   0  0  0  0  0  0  0  0  0  0  0  0
  187.3900  177.3280  142.8710 C   0  0  0  0  0  3  0  0  0  0  0  0
  190.9570  177.2050  145.2820 C   0  0  0  0  0  0  0  0  0  0  0  0
  189.4540  178.4360  146.6390 F   0  0  0  0  0  0  0  0  0  0  0  0
  190.7250  176.7640  142.7730 C   0  0  0  0  0  2  0  0  0  0  0  0
  191.4340  176.6670  144.0440 N   0  0  0  0  0  2  0  0  0  0  0  0
  186.3200  178.1170  143.5830 C   0  0  1  0  0  3  0  0  0  0  0  0
  186.7580  178.4370  145.0260 C   0  0  1  0  0  3  0  0  0  0  0  0
  189.6320  177.9030  145.3740 C   0  0  2  0  0  3  0  0  0  0  0  0
  188.3730  176.7220  143.5480 C   0  0  0  0  0  0  0  0  0  0  0  0
  185.7850  178.6980  147.3340 C   0  0  0  0  0  1  0  0  0  0  0  0
  184.3370  178.3970  145.4240 N   0  0  0  0  0  1  0  0  0  0  0  0
  185.5920  178.9910  145.8550 C   0  0  2  0  0  3  0  0  0  0  0  0
  184.2930  178.3720  141.5410 C   0  0  0  0  0  2  0  0  0  0  0  0
  182.3770  178.4340  140.1120 C   0  0  0  0  0  1  0  0  0  0  0  0
  183.7940  178.0790  140.1890 N   0  0  0  0  0  0  0  0  0  0  0  0
  184.5560  178.8400  139.1970 C   0  0  0  0  0  2  0  0  0  0  0  0
  185.2370  177.9140  138.2080 C   0  0  0  0  0  2  0  0  0  0  0  0
  186.7350  178.1630  138.2420 C   0  0  0  0  0  2  0  0  0  0  0  0
  188.7890  176.7150  138.2160 C   0  0  0  0  0  0  0  0  0  0  0  0
  189.0880  177.0880  139.3840 O   0  0  0  0  0  0  0  0  0  0  0  0
  188.4050  174.5360  135.8690 C   0  0  0  0  0  2  0  0  0  0  0  0
  186.7910  176.2820  136.6420 C   0  0  0  0  0  2  0  0  0  0  0  0
  187.4650  177.0170  137.7140 N   0  0  0  0  0  0  0  0  0  0  0  0
  187.1450  174.8030  136.6930 C   0  0  0  0  0  2  0  0  0  0  0  0
  189.4290  175.6650  135.9780 C   0  0  0  0  0  2  0  0  0  0  0  0
  189.8540  175.9740  137.4210 C   0  0  2  0  0  0  0  0  0  0  0  0
  190.1650  174.7830  138.0860 O   0  0  0  0  0  1  0  0  0  0  0  0
  191.0990  176.8680  137.3730 C   0  0  0  0  0  2  0  0  0  0  0  0
  193.4800  176.6030  137.4710 O   0  0  0  0  0  1  0  0  0  0  0  0
  192.2920  176.3020  138.1360 C   0  0  0  0  0  2  0  0  0  0  0  0
  1  2  1  0  0  0  0
  3 15  1  6  0  0  0
  3 14  1  0  0  0  0
  3  5  1  0  0  0  0
  4 15  1  0  0  0  0
  7 15  2  0  0  0  0
  7 12  1  0  0  0  0
  8 14  1  0  0  0  0
  8  6  2  0  0  0  0
 10  4  1  0  0  0  0
 10 11  1  0  0  0  0
 11  8  1  0  0  0  0
 12  2  1  6  0  0  0
 12 13  1  0  0  0  0
 13  5  1  0  0  0  0
 13 18  1  1  0  0  0
 14  9  1  1  0  0  0
 17 18  1  0  0  0  0
 18 16  1  1  0  0  0
 19  1  1  0  0  0  0
 20 21  1  0  0  0  0
 21 19  1  0  0  0  0
 22 21  1  0  0  0  0
 23 24  1  0  0  0  0
 23 22  1  0  0  0  0
 25 26  2  0  0  0  0
 27 31  1  0  0  0  0
 27 30  1  0  0  0  0
 28 30  1  0  0  0  0
 28 29  1  0  0  0  0
 29 25  1  0  0  0  0
 29 24  1  0  0  0  0
 31 32  1  0  0  0  0
 32 33  1  1  0  0  0
 32 25  1  0  0  0  0
 34 32  1  0  0  0  0
 34 36  1  0  0  0  0
 35 36  1  0  0  0  0
M  END
>  <MODEL>
4

>  <REMARK>
 VINA RESULT:      -7.2      2.355      5.496
  Name = 
  11 active torsions:
  status: ('A' for Active; 'I' for Inactive)
    1  A    between atoms: N_10  and  C_22
    2  A    between atoms: C_14  and  O_18
    3  A    between atoms: C_14  and  C_19
    4  A    between atoms: C_17  and  C_32
    5  A    between atoms: O_18  and  C_30
    6  A    between atoms: C_19  and  N_26
    7  A    between atoms: C_22  and  C_31
    8  A    between atoms: C_25  and  C_32
    9  A    between atoms: N_26  and  C_29
   10  A    between atoms: C_27  and  C_34
   11  A    between atoms: C_29  and  C_31
                            x       y       z     vdW  Elec       q    Type
                         _______ _______ _______ _____ _____    ______ ____

>  <TORSDO>
F 11

$$$$
=
 OpenBabel11062417103D

 36 38  0  0  1  0  0  0  0  0999 V2000
  187.7490  178.2610  139.7050 C   0  0  0  0  0  2  0  0  0  0  0  0
  187.8430  178.7530  141.0100 O   0  0  0  0  0  0  0  0  0  0  0  0
  188.4780  176.6940  144.4130 C   0  0  2  0  0  3  0  0  0  0  0  0
  190.5550  175.6150  143.2810 C   0  0  0  0  0  2  0  0  0  0  0  0
  187.1310  177.0240  144.1200 O   0  0  0  0  0  0  0  0  0  0  0  0
  190.2530  177.1230  147.3050 O   0  0  0  0  0  0  0  0  0  0  0  0
  188.8930  176.8610  141.9840 C   0  0  0  0  0  3  0  0  0  0  0  0
  190.3010  177.1290  146.0460 C   0  0  0  0  0  0  0  0  0  0  0  0
  188.2920  178.3830  146.1080 F   0  0  0  0  0  0  0  0  0  0  0  0
  191.6170  176.4720  143.9530 C   0  0  0  0  0  2  0  0  0  0  0  0
  191.4220  176.5180  145.3970 N   0  0  0  0  0  2  0  0  0  0  0  0
  187.6140  177.6460  141.8340 C   0  0  1  0  0  3  0  0  0  0  0  0
  187.1020  178.1070  143.2140 C   0  0  1  0  0  3  0  0  0  0  0  0
  189.1890  177.7580  145.2590 C   0  0  2  0  0  3  0  0  0  0  0  0
  189.2700  176.3660  143.1690 C   0  0  0  0  0  0  0  0  0  0  0  0
  184.9700  178.5840  144.4670 C   0  0  0  0  0  1  0  0  0  0  0  0
  184.8990  177.9130  142.1480 N   0  0  0  0  0  1  0  0  0  0  0  0
  185.6740  178.6630  143.1230 C   0  0  2  0  0  3  0  0  0  0  0  0
  189.0640  178.4890  138.9480 C   0  0  0  0  0  2  0  0  0  0  0  0
  189.4410  177.6430  136.7430 C   0  0  0  0  0  1  0  0  0  0  0  0
  189.5270  177.3300  138.1700 N   0  0  0  0  0  0  0  0  0  0  0  0
  190.9090  177.0040  138.5290 C   0  0  0  0  0  2  0  0  0  0  0  0
  191.6380  176.3690  137.3620 C   0  0  0  0  0  2  0  0  0  0  0  0
  193.1330  176.3880  137.6380 C   0  0  0  0  0  2  0  0  0  0  0  0
  194.9220  174.6820  138.0900 C   0  0  0  0  0  0  0  0  0  0  0  0
  195.1450  175.1900  139.2240 O   0  0  0  0  0  0  0  0  0  0  0  0
  194.4620  172.2340  136.0410 C   0  0  0  0  0  2  0  0  0  0  0  0
  193.0680  174.2880  136.3390 C   0  0  0  0  0  2  0  0  0  0  0  0
  193.7260  175.0830  137.3790 N   0  0  0  0  0  0  0  0  0  0  0  0
  193.1760  172.8010  136.6440 C   0  0  0  0  0  2  0  0  0  0  0  0
  195.6330  173.2130  136.1270 C   0  0  0  0  0  2  0  0  0  0  0  0
  195.9380  173.6830  137.5550 C   0  0  2  0  0  0  0  0  0  0  0  0
  195.9820  172.5810  138.4160 O   0  0  0  0  0  1  0  0  0  0  0  0
  197.3060  174.3770  137.5500 C   0  0  0  0  0  2  0  0  0  0  0  0
  197.3420  176.3510  136.1900 O   0  0  0  0  0  1  0  0  0  0  0  0
  197.6750  174.9970  136.2060 C   0  0  0  0  0  2  0  0  0  0  0  0
  1  2  1  0  0  0  0
  3 15  1  6  0  0  0
  3 14  1  0  0  0  0
  4 10  1  0  0  0  0
  5  3  1  0  0  0  0
  7 15  2  0  0  0  0
  8  6  2  0  0  0  0
 10 11  1  0  0  0  0
 11  8  1  0  0  0  0
 12  2  1  6  0  0  0
 12  7  1  0  0  0  0
 12 13  1  0  0  0  0
 13 18  1  6  0  0  0
 13  5  1  0  0  0  0
 14  8  1  0  0  0  0
 14  9  1  1  0  0  0
 15  4  1  0  0  0  0
 17 18  1  0  0  0  0
 18 16  1  1  0  0  0
 19  1  1  0  0  0  0
 20 21  1  0  0  0  0
 21 22  1  0  0  0  0
 21 19  1  0  0  0  0
 23 24  1  0  0  0  0
 23 22  1  0  0  0  0
 25 26  2  0  0  0  0
 27 31  1  0  0  0  0
 27 30  1  0  0  0  0
 28 30  1  0  0  0  0
 28 29  1  0  0  0  0
 29 24  1  0  0  0  0
 29 25  1  0  0  0  0
 31 32  1  0  0  0  0
 32 25  1  0  0  0  0
 32 33  1  1  0  0  0
 34 32  1  0  0  0  0
 35 36  1  0  0  0  0
 36 34  1  0  0  0  0
M  END
>  <MODEL>
5

>  <REMARK>
 VINA RESULT:      -7.1      3.916      6.599
  Name = 
  11 active torsions:
  status: ('A' for Active; 'I' for Inactive)
    1  A    between atoms: N_10  and  C_22
    2  A    between atoms: C_14  and  O_18
    3  A    between atoms: C_14  and  C_19
    4  A    between atoms: C_17  and  C_32
    5  A    between atoms: O_18  and  C_30
    6  A    between atoms: C_19  and  N_26
    7  A    between atoms: C_22  and  C_31
    8  A    between atoms: C_25  and  C_32
    9  A    between atoms: N_26  and  C_29
   10  A    between atoms: C_27  and  C_34
   11  A    between atoms: C_29  and  C_31
                            x       y       z     vdW  Elec       q    Type
                         _______ _______ _______ _____ _____    ______ ____

>  <TORSDO>
F 11

$$$$
=
 OpenBabel11062417103D

 36 38  0  0  1  0  0  0  0  0999 V2000
  188.3540  178.5630  140.0210 C   0  0  0  0  0  2  0  0  0  0  0  0
  187.7190  178.9860  141.1910 O   0  0  0  0  0  0  0  0  0  0  0  0
  188.4780  176.7480  144.4530 C   0  0  2  0  0  3  0  0  0  0  0  0
  190.5710  175.8110  143.2280 C   0  0  0  0  0  2  0  0  0  0  0  0
  187.1170  177.0490  144.2000 O   0  0  0  0  0  0  0  0  0  0  0  0
  190.2860  177.0620  147.3400 O   0  0  0  0  0  0  0  0  0  0  0  0
  188.8470  177.0760  142.0330 C   0  0  0  0  0  3  0  0  0  0  0  0
  190.3130  177.1460  146.0830 C   0  0  0  0  0  0  0  0  0  0  0  0
  188.2640  178.3240  146.2510 F   0  0  0  0  0  0  0  0  0  0  0  0
  191.6150  176.6610  143.9350 C   0  0  0  0  0  2  0  0  0  0  0  0
  191.4420  176.6130  145.3820 N   0  0  0  0  0  2  0  0  0  0  0  0
  187.5410  177.8250  141.9500 C   0  0  1  0  0  3  0  0  0  0  0  0
  187.0360  178.1830  143.3630 C   0  0  1  0  0  3  0  0  0  0  0  0
  189.1680  177.7830  145.3530 C   0  0  2  0  0  3  0  0  0  0  0  0
  189.2600  176.5240  143.1800 C   0  0  0  0  0  0  0  0  0  0  0  0
  184.9590  178.6500  144.7090 C   0  0  0  0  0  1  0  0  0  0  0  0
  184.7880  177.8840  142.4240 N   0  0  0  0  0  1  0  0  0  0  0  0
  185.5900  178.6950  143.3260 C   0  0  2  0  0  3  0  0  0  0  0  0
  187.3190  178.2220  138.9400 C   0  0  0  0  0  2  0  0  0  0  0  0
  189.0610  178.2940  137.3030 C   0  0  0  0  0  1  0  0  0  0  0  0
  187.6780  178.6770  137.5890 N   0  0  0  0  0  0  0  0  0  0  0  0
  186.7780  178.0780  136.6020 C   0  0  0  0  0  2  0  0  0  0  0  0
  185.7140  177.2360  137.2770 C   0  0  0  0  0  2  0  0  0  0  0  0
  184.3790  177.4740  136.5910 C   0  0  0  0  0  2  0  0  0  0  0  0
  182.0550  178.2470  137.1540 C   0  0  0  0  0  0  0  0  0  0  0  0
  181.6960  178.0990  135.9540 O   0  0  0  0  0  0  0  0  0  0  0  0
  181.6980  177.9850  140.3500 C   0  0  0  0  0  2  0  0  0  0  0  0
  183.6630  177.3270  138.9500 C   0  0  0  0  0  2  0  0  0  0  0  0
  183.3190  177.6770  137.5700 N   0  0  0  0  0  0  0  0  0  0  0  0
  182.4410  176.8170  139.7010 C   0  0  0  0  0  2  0  0  0  0  0  0
  181.7060  179.2420  139.4800 C   0  0  0  0  0  2  0  0  0  0  0  0
  181.1250  179.0230  138.0760 C   0  0  2  0  0  0  0  0  0  0  0  0
  179.9100  178.3370  138.1710 O   0  0  0  0  0  1  0  0  0  0  0  0
  180.8840  180.3970  137.4370 C   0  0  0  0  0  2  0  0  0  0  0  0
  180.3180  182.4960  138.4470 O   0  0  0  0  0  1  0  0  0  0  0  0
  181.3460  181.5660  138.3000 C   0  0  0  0  0  2  0  0  0  0  0  0
  1  2  1  0  0  0  0
  3 15  1  6  0  0  0
  3 14  1  0  0  0  0
  4 10  1  0  0  0  0
  5  3  1  0  0  0  0
  7 15  2  0  0  0  0
  8  6  2  0  0  0  0
 10 11  1  0  0  0  0
 11  8  1  0  0  0  0
 12  2  1  6  0  0  0
 12  7  1  0  0  0  0
 12 13  1  0  0  0  0
 13 18  1  6  0  0  0
 13  5  1  0  0  0  0
 14  8  1  0  0  0  0
 14  9  1  1  0  0  0
 15  4  1  0  0  0  0
 17 18  1  0  0  0  0
 18 16  1  1  0  0  0
 19  1  1  0  0  0  0
 20 21  1  0  0  0  0
 21 19  1  0  0  0  0
 22 23  1  0  0  0  0
 22 21  1  0  0  0  0
 24 23  1  0  0  0  0
 24 29  1  0  0  0  0
 25 29  1  0  0  0  0
 25 32  1  0  0  0  0
 26 25  2  0  0  0  0
 28 30  1  0  0  0  0
 29 28  1  0  0  0  0
 30 27  1  0  0  0  0
 31 27  1  0  0  0  0
 32 33  1  1  0  0  0
 32 31  1  0  0  0  0
 34 32  1  0  0  0  0
 34 36  1  0  0  0  0
 36 35  1  0  0  0  0
M  END
>  <MODEL>
6

>  <REMARK>
 VINA RESULT:      -6.8      2.907      6.741
  Name = 
  11 active torsions:
  status: ('A' for Active; 'I' for Inactive)
    1  A    between atoms: N_10  and  C_22
    2  A    between atoms: C_14  and  O_18
    3  A    between atoms: C_14  and  C_19
    4  A    between atoms: C_17  and  C_32
    5  A    between atoms: O_18  and  C_30
    6  A    between atoms: C_19  and  N_26
    7  A    between atoms: C_22  and  C_31
    8  A    between atoms: C_25  and  C_32
    9  A    between atoms: N_26  and  C_29
   10  A    between atoms: C_27  and  C_34
   11  A    between atoms: C_29  and  C_31
                            x       y       z     vdW  Elec       q    Type
                         _______ _______ _______ _____ _____    ______ ____

>  <TORSDO>
F 11

$$$$
=
 OpenBabel11062417103D

 36 38  0  0  1  0  0  0  0  0999 V2000
  187.7460  177.8280  138.5960 C   0  0  0  0  0  2  0  0  0  0  0  0
  186.6790  178.6180  139.0330 O   0  0  0  0  0  0  0  0  0  0  0  0
  183.9100  176.4790  137.0370 C   0  0  2  0  0  3  0  0  0  0  0  0
  185.8120  175.5970  135.5000 C   0  0  0  0  0  2  0  0  0  0  0  0
  183.4650  177.6880  137.6280 O   0  0  0  0  0  0  0  0  0  0  0  0
  182.5680  173.3380  137.2120 O   0  0  0  0  0  0  0  0  0  0  0  0
  186.1610  177.4950  137.0080 C   0  0  0  0  0  3  0  0  0  0  0  0
  183.6310  174.0120  137.1520 C   0  0  0  0  0  0  0  0  0  0  0  0
  182.6730  175.4200  138.8000 F   0  0  0  0  0  0  0  0  0  0  0  0
  185.9720  174.2280  136.1440 C   0  0  0  0  0  2  0  0  0  0  0  0
  184.6840  173.5610  136.2930 N   0  0  0  0  0  2  0  0  0  0  0  0
  185.7050  178.5000  138.0360 C   0  0  1  0  0  3  0  0  0  0  0  0
  184.3610  178.0650  138.6530 C   0  0  1  0  0  3  0  0  0  0  0  0
  183.7670  175.2660  137.9660 C   0  0  2  0  0  3  0  0  0  0  0  0
  185.3170  176.5910  136.4980 C   0  0  0  0  0  0  0  0  0  0  0  0
  182.2220  179.1380  139.4380 C   0  0  0  0  0  1  0  0  0  0  0  0
  184.1770  180.4880  138.9990 N   0  0  0  0  0  1  0  0  0  0  0  0
  183.7400  179.1920  139.4900 C   0  0  2  0  0  3  0  0  0  0  0  0
  189.0340  178.2040  139.3410 C   0  0  0  0  0  2  0  0  0  0  0  0
  190.6850  177.1220  140.6910 C   0  0  0  0  0  1  0  0  0  0  0  0
  189.2630  177.4470  140.5810 N   0  0  0  0  0  0  0  0  0  0  0  0
  188.8380  178.2390  141.7370 C   0  0  0  0  0  2  0  0  0  0  0  0
  187.5810  177.6620  142.3580 C   0  0  0  0  0  2  0  0  0  0  0  0
  187.9670  176.5840  143.3570 C   0  0  0  0  0  2  0  0  0  0  0  0
  189.2270  177.2180  145.4380 C   0  0  0  0  0  0  0  0  0  0  0  0
  190.2950  177.3370  144.7750 O   0  0  0  0  0  0  0  0  0  0  0  0
  187.0560  178.1300  147.6420 C   0  0  0  0  0  2  0  0  0  0  0  0
  186.6630  177.4510  145.2680 C   0  0  0  0  0  2  0  0  0  0  0  0
  187.9770  177.1140  144.7150 N   0  0  0  0  0  0  0  0  0  0  0  0
  186.7650  178.6290  146.2270 C   0  0  0  0  0  2  0  0  0  0  0  0
  188.0010  176.9280  147.6580 C   0  0  0  0  0  2  0  0  0  0  0  0
  189.3400  177.1890  146.9550 C   0  0  2  0  0  0  0  0  0  0  0  0
  189.8720  178.4070  147.3900 O   0  0  0  0  0  1  0  0  0  0  0  0
  190.3040  176.0540  147.3230 C   0  0  0  0  0  2  0  0  0  0  0  0
  192.6740  175.7520  147.1190 O   0  0  0  0  0  1  0  0  0  0  0  0
  191.6940  176.5350  147.7270 C   0  0  0  0  0  2  0  0  0  0  0  0
  1  2  1  0  0  0  0
  1 19  1  0  0  0  0
  3 15  1  1  0  0  0
  3  5  1  0  0  0  0
  3 14  1  0  0  0  0
  4 10  1  0  0  0  0
  4 15  1  0  0  0  0
  5 13  1  0  0  0  0
  7 12  1  0  0  0  0
  8  6  2  0  0  0  0
  8 14  1  0  0  0  0
 10 11  1  0  0  0  0
 11  8  1  0  0  0  0
 12 13  1  0  0  0  0
 12  2  1  1  0  0  0
 13 18  1  6  0  0  0
 14  9  1  6  0  0  0
 15  7  2  0  0  0  0
 17 18  1  0  0  0  0
 18 16  1  6  0  0  0
 19 21  1  0  0  0  0
 21 20  1  0  0  0  0
 21 22  1  0  0  0  0
 22 23  1  0  0  0  0
 23 24  1  0  0  0  0
 24 29  1  0  0  0  0
 25 32  1  0  0  0  0
 26 25  2  0  0  0  0
 27 31  1  0  0  0  0
 28 30  1  0  0  0  0
 29 28  1  0  0  0  0
 29 25  1  0  0  0  0
 30 27  1  0  0  0  0
 32 34  1  0  0  0  0
 32 33  1  1  0  0  0
 32 31  1  0  0  0  0
 34 36  1  0  0  0  0
 35 36  1  0  0  0  0
M  END
>  <MODEL>
7

>  <REMARK>
 VINA RESULT:      -6.7      2.975      7.822
  Name = 
  11 active torsions:
  status: ('A' for Active; 'I' for Inactive)
    1  A    between atoms: N_10  and  C_22
    2  A    between atoms: C_14  and  O_18
    3  A    between atoms: C_14  and  C_19
    4  A    between atoms: C_17  and  C_32
    5  A    between atoms: O_18  and  C_30
    6  A    between atoms: C_19  and  N_26
    7  A    between atoms: C_22  and  C_31
    8  A    between atoms: C_25  and  C_32
    9  A    between atoms: N_26  and  C_29
   10  A    between atoms: C_27  and  C_34
   11  A    between atoms: C_29  and  C_31
                            x       y       z     vdW  Elec       q    Type
                         _______ _______ _______ _____ _____    ______ ____

>  <TORSDO>
F 11

$$$$
=
 OpenBabel11062417103D

 36 38  0  0  1  0  0  0  0  0999 V2000
  188.9900  178.6100  139.9190 C   0  0  0  0  0  2  0  0  0  0  0  0
  187.8880  179.0000  140.6830 O   0  0  0  0  0  0  0  0  0  0  0  0
  188.0710  176.8420  144.0790 C   0  0  2  0  0  3  0  0  0  0  0  0
  190.2730  175.7810  143.1950 C   0  0  0  0  0  2  0  0  0  0  0  0
  186.7740  177.1890  143.6240 O   0  0  0  0  0  0  0  0  0  0  0  0
  189.4570  177.1780  147.1880 O   0  0  0  0  0  0  0  0  0  0  0  0
  188.7970  177.0750  141.7300 C   0  0  0  0  0  3  0  0  0  0  0  0
  189.6680  177.2180  145.9470 C   0  0  0  0  0  0  0  0  0  0  0  0
  187.6710  178.4840  145.7840 F   0  0  0  0  0  0  0  0  0  0  0  0
  191.2420  176.6110  144.0230 C   0  0  0  0  0  2  0  0  0  0  0  0
  190.8620  176.6180  145.4310 N   0  0  0  0  0  2  0  0  0  0  0  0
  187.5510  177.8730  141.4390 C   0  0  1  0  0  3  0  0  0  0  0  0
  186.8650  178.2970  142.7530 C   0  0  1  0  0  3  0  0  0  0  0  0
  188.6690  177.8780  145.0410 C   0  0  2  0  0  3  0  0  0  0  0  0
  189.0160  176.5440  142.9390 C   0  0  0  0  0  0  0  0  0  0  0  0
  184.7880  179.2670  143.7960 C   0  0  0  0  0  1  0  0  0  0  0  0
  184.6320  177.8790  141.8250 N   0  0  0  0  0  1  0  0  0  0  0  0
  185.4640  178.8660  142.4940 C   0  0  2  0  0  3  0  0  0  0  0  0
  188.5560  178.2560  138.4900 C   0  0  0  0  0  2  0  0  0  0  0  0
  190.4430  176.7870  138.5240 C   0  0  0  0  0  1  0  0  0  0  0  0
  189.6070  177.6320  137.6710 N   0  0  0  0  0  0  0  0  0  0  0  0
  189.0030  176.8280  136.6070 C   0  0  0  0  0  2  0  0  0  0  0  0
  188.2860  175.6210  137.1780 C   0  0  0  0  0  2  0  0  0  0  0  0
  187.3120  175.0840  136.1430 C   0  0  0  0  0  2  0  0  0  0  0  0
  185.3920  176.6600  136.5280 C   0  0  0  0  0  0  0  0  0  0  0  0
  185.8890  177.4910  135.7190 O   0  0  0  0  0  0  0  0  0  0  0  0
  182.9850  174.9490  137.8270 C   0  0  0  0  0  2  0  0  0  0  0  0
  185.2130  174.1360  137.0350 C   0  0  0  0  0  2  0  0  0  0  0  0
  185.9330  175.3170  136.5560 N   0  0  0  0  0  0  0  0  0  0  0  0
  183.7310  174.2330  136.7010 C   0  0  0  0  0  2  0  0  0  0  0  0
  183.8000  176.0870  138.4410 C   0  0  0  0  0  2  0  0  0  0  0  0
  184.2550  177.1380  137.4200 C   0  0  2  0  0  0  0  0  0  0  0  0
  183.1750  177.5100  136.6120 O   0  0  0  0  0  1  0  0  0  0  0  0
  184.7600  178.3670  138.1890 C   0  0  0  0  0  2  0  0  0  0  0  0
  184.1550  180.5030  139.0930 O   0  0  0  0  0  1  0  0  0  0  0  0
  183.6440  179.2610  138.7190 C   0  0  0  0  0  2  0  0  0  0  0  0
  1  2  1  0  0  0  0
  3 15  1  6  0  0  0
  3 14  1  0  0  0  0
  4 10  1  0  0  0  0
  5  3  1  0  0  0  0
  7 15  2  0  0  0  0
  8  6  2  0  0  0  0
 10 11  1  0  0  0  0
 11  8  1  0  0  0  0
 12  2  1  1  0  0  0
 12  7  1  0  0  0  0
 12 13  1  0  0  0  0
 13 18  1  6  0  0  0
 13  5  1  0  0  0  0
 14  9  1  1  0  0  0
 14  8  1  0  0  0  0
 15  4  1  0  0  0  0
 17 18  1  0  0  0  0
 18 16  1  1  0  0  0
 19  1  1  0  0  0  0
 21 19  1  0  0  0  0
 21 20  1  0  0  0  0
 22 23  1  0  0  0  0
 22 21  1  0  0  0  0
 24 29  1  0  0  0  0
 24 23  1  0  0  0  0
 25 29  1  0  0  0  0
 25 32  1  0  0  0  0
 26 25  2  0  0  0  0
 27 31  1  0  0  0  0
 29 28  1  0  0  0  0
 30 28  1  0  0  0  0
 30 27  1  0  0  0  0
 32 33  1  6  0  0  0
 32 34  1  0  0  0  0
 32 31  1  0  0  0  0
 34 36  1  0  0  0  0
 36 35  1  0  0  0  0
M  END
>  <MODEL>
8

>  <REMARK>
 VINA RESULT:      -6.7      2.346      5.536
  Name = 
  11 active torsions:
  status: ('A' for Active; 'I' for Inactive)
    1  A    between atoms: N_10  and  C_22
    2  A    between atoms: C_14  and  O_18
    3  A    between atoms: C_14  and  C_19
    4  A    between atoms: C_17  and  C_32
    5  A    between atoms: O_18  and  C_30
    6  A    between atoms: C_19  and  N_26
    7  A    between atoms: C_22  and  C_31
    8  A    between atoms: C_25  and  C_32
    9  A    between atoms: N_26  and  C_29
   10  A    between atoms: C_27  and  C_34
   11  A    between atoms: C_29  and  C_31
                            x       y       z     vdW  Elec       q    Type
                         _______ _______ _______ _____ _____    ______ ____

>  <TORSDO>
F 11

$$$$
=
 OpenBabel11062417103D

 36 38  0  0  1  0  0  0  0  0999 V2000
  186.3410  178.6390  140.8130 C   0  0  0  0  0  2  0  0  0  0  0  0
  187.0690  178.9900  141.9530 O   0  0  0  0  0  0  0  0  0  0  0  0
  188.5760  176.7540  144.9450 C   0  0  2  0  0  3  0  0  0  0  0  0
  190.1890  175.6690  143.2180 C   0  0  0  0  0  2  0  0  0  0  0  0
  187.2170  177.1360  145.0690 O   0  0  0  0  0  0  0  0  0  0  0  0
  191.1290  176.9930  147.2080 O   0  0  0  0  0  0  0  0  0  0  0  0
  188.2760  177.0240  142.5080 C   0  0  0  0  0  3  0  0  0  0  0  0
  190.8110  177.0570  145.9910 C   0  0  0  0  0  0  0  0  0  0  0  0
  188.9590  178.3650  146.6820 F   0  0  0  0  0  0  0  0  0  0  0  0
  191.4360  176.4620  143.5830 C   0  0  0  0  0  2  0  0  0  0  0  0
  191.6690  176.4450  145.0220 N   0  0  0  0  0  2  0  0  0  0  0  0
  187.0430  177.8520  142.7660 C   0  0  1  0  0  3  0  0  0  0  0  0
  186.9720  178.2610  144.2510 C   0  0  1  0  0  3  0  0  0  0  0  0
  189.5460  177.7560  145.5860 C   0  0  2  0  0  3  0  0  0  0  0  0
  188.9600  176.4630  143.5120 C   0  0  0  0  0  0  0  0  0  0  0  0
  185.2700  178.6470  146.0680 C   0  0  0  0  0  1  0  0  0  0  0  0
  184.5600  178.2510  143.7930 N   0  0  0  0  0  1  0  0  0  0  0  0
  185.6030  178.8620  144.6000 C   0  0  2  0  0  3  0  0  0  0  0  0
  187.2870  178.2950  139.6540 C   0  0  0  0  0  2  0  0  0  0  0  0
  186.9500  177.1620  137.5750 C   0  0  0  0  0  1  0  0  0  0  0  0
  186.6760  178.3910  138.3200 N   0  0  0  0  0  0  0  0  0  0  0  0
  185.2310  178.5910  138.4440 C   0  0  0  0  0  2  0  0  0  0  0  0
  184.4670  177.5250  137.6830 C   0  0  0  0  0  2  0  0  0  0  0  0
  183.3980  176.9350  138.5880 C   0  0  0  0  0  2  0  0  0  0  0  0
  181.9130  178.3310  140.0580 C   0  0  0  0  0  0  0  0  0  0  0  0
  182.8030  178.3680  140.9520 O   0  0  0  0  0  0  0  0  0  0  0  0
  179.6220  179.6090  138.1800 C   0  0  0  0  0  2  0  0  0  0  0  0
  181.5640  178.1850  137.5050 C   0  0  0  0  0  2  0  0  0  0  0  0
  182.2800  177.8570  138.7400 N   0  0  0  0  0  0  0  0  0  0  0  0
  181.0180  179.6050  137.5570 C   0  0  0  0  0  2  0  0  0  0  0  0
  179.4840  178.5970  139.3170 C   0  0  0  0  0  2  0  0  0  0  0  0
  180.5120  178.7880  140.4400 C   0  0  2  0  0  0  0  0  0  0  0  0
  180.5640  180.1370  140.8080 O   0  0  0  0  0  1  0  0  0  0  0  0
  180.0680  177.9500  141.6460 C   0  0  0  0  0  2  0  0  0  0  0  0
  179.6690  177.8900  144.0090 O   0  0  0  0  0  1  0  0  0  0  0  0
  180.1390  178.6970  142.9730 C   0  0  0  0  0  2  0  0  0  0  0  0
  1  2  1  0  0  0  0
  3 15  1  6  0  0  0
  3  5  1  0  0  0  0
  3 14  1  0  0  0  0
  4 15  1  0  0  0  0
  4 10  1  0  0  0  0
  7 12  1  0  0  0  0
  7 15  2  0  0  0  0
  8  6  2  0  0  0  0
 10 11  1  0  0  0  0
 11  8  1  0  0  0  0
 12  2  1  6  0  0  0
 12 13  1  0  0  0  0
 13 18  1  1  0  0  0
 13  5  1  0  0  0  0
 14  8  1  0  0  0  0
 14  9  1  1  0  0  0
 17 18  1  0  0  0  0
 18 16  1  1  0  0  0
 19  1  1  0  0  0  0
 20 21  1  0  0  0  0
 21 22  1  0  0  0  0
 21 19  1  0  0  0  0
 23 22  1  0  0  0  0
 23 24  1  0  0  0  0
 24 29  1  0  0  0  0
 25 32  1  0  0  0  0
 25 26  2  0  0  0  0
 27 31  1  0  0  0  0
 28 30  1  0  0  0  0
 28 29  1  0  0  0  0
 29 25  1  0  0  0  0
 30 27  1  0  0  0  0
 31 32  1  0  0  0  0
 32 33  1  1  0  0  0
 32 34  1  0  0  0  0
 34 36  1  0  0  0  0
 36 35  1  0  0  0  0
M  END
>  <MODEL>
9

>  <REMARK>
 VINA RESULT:      -6.7      2.903      7.277
  Name = 
  11 active torsions:
  status: ('A' for Active; 'I' for Inactive)
    1  A    between atoms: N_10  and  C_22
    2  A    between atoms: C_14  and  O_18
    3  A    between atoms: C_14  and  C_19
    4  A    between atoms: C_17  and  C_32
    5  A    between atoms: O_18  and  C_30
    6  A    between atoms: C_19  and  N_26
    7  A    between atoms: C_22  and  C_31
    8  A    between atoms: C_25  and  C_32
    9  A    between atoms: N_26  and  C_29
   10  A    between atoms: C_27  and  C_34
   11  A    between atoms: C_29  and  C_31
                            x       y       z     vdW  Elec       q    Type
                         _______ _______ _______ _____ _____    ______ ____

>  <TORSDO>
F 11

$$$$
