=
 OpenBabel11062417173D

 26 31  0  0  1  0  0  0  0  0999 V2000
  186.0530  177.6550  144.5320 C   0  0  2  0  0  3  0  0  0  0  0  0
  185.9960  178.9740  141.3620 C   0  0  0  0  0  3  0  0  0  0  0  0
  189.5220  176.6500  146.9990 C   0  0  0  0  0  2  0  0  0  0  0  0
  188.8690  177.8220  142.6750 C   0  0  0  0  0  0  0  0  0  0  0  0
  185.6330  178.2510  145.6140 N   0  0  0  0  0  2  0  0  0  0  0  0
  184.5570  178.9920  143.2020 C   0  0  0  0  0  0  0  0  0  0  0  0
  188.5100  177.6070  144.8920 C   0  0  0  0  0  0  0  0  0  0  0  0
  188.6720  177.7570  146.3720 C   0  0  0  0  0  2  0  0  0  0  0  0
  191.5920  177.6890  145.9350 C   0  0  0  0  0  2  0  0  0  0  0  0
  184.1200  179.5890  144.2750 N   0  0  0  0  0  0  0  0  0  0  0  0
  184.3160  178.9270  145.5850 C   0  0  0  0  0  2  0  0  0  0  0  0
  187.3430  177.4090  144.2570 N   0  0  0  0  0  0  0  0  0  0  0  0
  189.4930  177.8170  143.9270 C   0  0  0  0  0  0  0  0  0  0  0  0
  191.2030  178.0980  144.2420 S   0  0  0  0  0  0  0  0  0  0  0  0
  192.0230  177.2230  143.3330 O   0  0  0  0  0  0  0  0  0  0  0  0
  185.4100  177.8530  143.3290 C   0  0  1  0  0  3  0  0  0  0  0  0
  184.8730  179.6840  142.0010 N   0  0  0  0  0  0  0  0  0  0  0  0
  186.3190  177.8380  142.3020 C   0  0  2  0  0  3  0  0  0  0  0  0
  190.8730  176.4000  146.3160 C   0  0  0  0  0  2  0  0  0  0  0  0
  191.5320  179.5430  143.9850 O   0  0  0  0  0  0  0  0  0  0  0  0
  187.5300  177.5490  142.9450 C   0  0  0  0  0  0  0  0  0  0  0  0
  190.0510  176.6460  140.8380 C   0  0  0  0  0  2  0  0  0  0  0  0
  189.5740  177.9870  141.3570 C   0  0  1  0  0  3  0  0  0  0  0  0
  189.6940  176.5300  139.4860 O   0  0  0  0  0  0  0  0  0  0  0  0
  188.5680  177.3510  139.3200 C   0  0  0  0  0  2  0  0  0  0  0  0
  188.6910  178.5220  140.2690 C   0  0  0  0  0  2  0  0  0  0  0  0
  1  5  1  1  0  0  0
  2 17  2  0  0  0  0
  4 21  2  0  0  0  0
  4 13  1  0  0  0  0
  6 10  2  0  0  0  0
  7  8  1  0  0  0  0
  8  3  1  0  0  0  0
  9 19  1  0  0  0  0
 10 11  1  0  0  0  0
 11  5  1  0  0  0  0
 12  1  1  0  0  0  0
 12  7  1  0  0  0  0
 13 14  1  0  0  0  0
 13  7  2  0  0  0  0
 14  9  1  0  0  0  0
 15 14  2  0  0  0  0
 16  6  1  1  0  0  0
 16  1  1  0  0  0  0
 17  6  1  0  0  0  0
 18  2  1  1  0  0  0
 18 21  1  0  0  0  0
 18 16  1  0  0  0  0
 19  3  1  0  0  0  0
 20 14  2  0  0  0  0
 21 12  1  0  0  0  0
 22 23  1  0  0  0  0
 23  4  1  1  0  0  0
 24 22  1  0  0  0  0
 25 24  1  0  0  0  0
 25 26  1  0  0  0  0
 26 23  1  0  0  0  0
M  END
>  <MODEL>
1

>  <REMARK>
 VINA RESULT:      -8.9      0.000      0.000
  Name = 
  1 active torsions:
  status: ('A' for Active; 'I' for Inactive)
    1  A    between atoms: C_4  and  C_14
                            x       y       z     vdW  Elec       q    Type
                         _______ _______ _______ _____ _____    ______ ____

>  <TORSDO>
F 1

$$$$
=
 OpenBabel11062417173D

 26 31  0  0  1  0  0  0  0  0999 V2000
  188.5720  176.9040  142.3710 C   0  0  2  0  0  3  0  0  0  0  0  0
  190.5530  176.9810  145.1750 C   0  0  0  0  0  3  0  0  0  0  0  0
  184.4070  178.1730  141.9470 C   0  0  0  0  0  2  0  0  0  0  0  0
  187.2420  177.5160  145.4150 C   0  0  0  0  0  0  0  0  0  0  0  0
  188.7500  177.6140  141.2910 N   0  0  0  0  0  2  0  0  0  0  0  0
  190.9220  177.0510  142.8700 C   0  0  0  0  0  0  0  0  0  0  0  0
  186.5120  177.9210  143.3190 C   0  0  0  0  0  0  0  0  0  0  0  0
  185.8630  178.5980  142.1540 C   0  0  0  0  0  2  0  0  0  0  0  0
  183.7610  179.5120  144.0160 C   0  0  0  0  0  2  0  0  0  0  0  0
  191.1180  177.7520  141.7880 N   0  0  0  0  0  0  0  0  0  0  0  0
  190.1090  177.6850  140.7070 C   0  0  0  0  0  2  0  0  0  0  0  0
  187.5690  177.0960  143.2430 N   0  0  0  0  0  0  0  0  0  0  0  0
  186.2520  178.1610  144.6660 C   0  0  0  0  0  0  0  0  0  0  0  0
  184.9480  179.1610  145.3010 S   0  0  0  0  0  0  0  0  0  0  0  0
  184.2540  178.4200  146.4120 O   0  0  0  0  0  0  0  0  0  0  0  0
  189.6520  176.4350  143.0870 C   0  0  1  0  0  3  0  0  0  0  0  0
  191.5080  177.3750  144.1240 N   0  0  0  0  0  0  0  0  0  0  0  0
  189.3610  176.4320  144.4280 C   0  0  2  0  0  3  0  0  0  0  0  0
  183.5210  178.2490  143.1970 C   0  0  0  0  0  2  0  0  0  0  0  0
  185.5140  180.4500  145.8300 O   0  0  0  0  0  0  0  0  0  0  0  0
  188.0270  176.8570  144.4710 C   0  0  0  0  0  0  0  0  0  0  0  0
  188.2850  176.4290  147.3860 C   0  0  0  0  0  2  0  0  0  0  0  0
  187.3160  177.4950  146.9170 C   0  0  1  0  0  3  0  0  0  0  0  0
  189.1320  176.9830  148.3590 O   0  0  0  0  0  0  0  0  0  0  0  0
  189.1760  178.3580  148.0830 C   0  0  0  0  0  2  0  0  0  0  0  0
  187.8390  178.7700  147.5080 C   0  0  0  0  0  2  0  0  0  0  0  0
  1  5  1  1  0  0  0
  1 16  1  0  0  0  0
  1 12  1  0  0  0  0
  3  8  1  0  0  0  0
  3 19  1  0  0  0  0
  6 17  1  0  0  0  0
  7 13  2  0  0  0  0
  8  7  1  0  0  0  0
  9 14  1  0  0  0  0
 10  6  2  0  0  0  0
 11  5  1  0  0  0  0
 11 10  1  0  0  0  0
 12  7  1  0  0  0  0
 12 21  1  0  0  0  0
 13 14  1  0  0  0  0
 13  4  1  0  0  0  0
 14 20  2  0  0  0  0
 14 15  2  0  0  0  0
 16  6  1  1  0  0  0
 16 18  1  0  0  0  0
 17  2  2  0  0  0  0
 18 21  1  0  0  0  0
 18  2  1  1  0  0  0
 19  9  1  0  0  0  0
 21  4  2  0  0  0  0
 22 24  1  0  0  0  0
 23  4  1  6  0  0  0
 23 22  1  0  0  0  0
 23 26  1  0  0  0  0
 25 24  1  0  0  0  0
 26 25  1  0  0  0  0
M  END
>  <MODEL>
2

>  <REMARK>
 VINA RESULT:      -8.4      3.141      6.280
  Name = 
  1 active torsions:
  status: ('A' for Active; 'I' for Inactive)
    1  A    between atoms: C_4  and  C_14
                            x       y       z     vdW  Elec       q    Type
                         _______ _______ _______ _____ _____    ______ ____

>  <TORSDO>
F 1

$$$$
=
 OpenBabel11062417173D

 26 31  0  0  1  0  0  0  0  0999 V2000
  186.4540  178.8900  140.9270 C   0  0  2  0  0  3  0  0  0  0  0  0
  187.7270  177.2120  143.6390 C   0  0  0  0  0  3  0  0  0  0  0  0
  187.8350  178.8020  136.7770 C   0  0  0  0  0  2  0  0  0  0  0  0
  189.4330  177.3090  140.7420 C   0  0  0  0  0  0  0  0  0  0  0  0
  185.2800  178.6950  140.3920 N   0  0  0  0  0  2  0  0  0  0  0  0
  185.6400  178.0700  143.0380 C   0  0  0  0  0  0  0  0  0  0  0  0
  187.9720  178.0060  139.1700 C   0  0  0  0  0  0  0  0  0  0  0  0
  187.1530  178.0440  137.9180 C   0  0  0  0  0  2  0  0  0  0  0  0
  189.4690  176.8630  136.5160 C   0  0  0  0  0  2  0  0  0  0  0  0
  184.4590  177.8800  142.5200 N   0  0  0  0  0  0  0  0  0  0  0  0
  184.1000  178.6100  141.2830 C   0  0  0  0  0  2  0  0  0  0  0  0
  187.6140  178.5490  140.3450 N   0  0  0  0  0  0  0  0  0  0  0  0
  189.1340  177.2660  139.3760 C   0  0  0  0  0  0  0  0  0  0  0  0
  190.0220  176.3770  138.1410 S   0  0  0  0  0  0  0  0  0  0  0  0
  191.4890  176.6910  138.2660 O   0  0  0  0  0  0  0  0  0  0  0  0
  186.6300  178.7750  142.2890 C   0  0  1  0  0  3  0  0  0  0  0  0
  186.2780  177.1250  143.8880 N   0  0  0  0  0  0  0  0  0  0  0  0
  187.8720  178.2580  142.5600 C   0  0  2  0  0  3  0  0  0  0  0  0
  189.2790  178.3760  136.4830 C   0  0  0  0  0  2  0  0  0  0  0  0
  189.8030  174.9010  138.3270 O   0  0  0  0  0  0  0  0  0  0  0  0
  188.4560  178.1360  141.2920 C   0  0  0  0  0  0  0  0  0  0  0  0
  191.5720  177.7190  141.9300 C   0  0  0  0  0  2  0  0  0  0  0  0
  190.6280  176.6650  141.3880 C   0  0  1  0  0  3  0  0  0  0  0  0
  191.9400  177.3690  143.2380 O   0  0  0  0  0  0  0  0  0  0  0  0
  190.8850  176.5880  143.7320 C   0  0  0  0  0  2  0  0  0  0  0  0
  190.2830  175.8190  142.5770 C   0  0  0  0  0  2  0  0  0  0  0  0
  1  5  1  6  0  0  0
  1 16  1  0  0  0  0
  2 17  2  0  0  0  0
  3  8  1  0  0  0  0
  4 21  2  0  0  0  0
  5 11  1  0  0  0  0
  6 17  1  0  0  0  0
  7 13  2  0  0  0  0
  7 12  1  0  0  0  0
  8  7  1  0  0  0  0
  9 14  1  0  0  0  0
 10  6  2  0  0  0  0
 11 10  1  0  0  0  0
 12  1  1  0  0  0  0
 12 21  1  0  0  0  0
 13  4  1  0  0  0  0
 14 15  2  0  0  0  0
 14 20  2  0  0  0  0
 14 13  1  0  0  0  0
 16 18  1  0  0  0  0
 16  6  1  6  0  0  0
 18  2  1  6  0  0  0
 19  9  1  0  0  0  0
 19  3  1  0  0  0  0
 21 18  1  0  0  0  0
 22 24  1  0  0  0  0
 23  4  1  1  0  0  0
 23 22  1  0  0  0  0
 23 26  1  0  0  0  0
 24 25  1  0  0  0  0
 26 25  1  0  0  0  0
M  END
>  <MODEL>
3

>  <REMARK>
 VINA RESULT:      -7.8      2.212      5.381
  Name = 
  1 active torsions:
  status: ('A' for Active; 'I' for Inactive)
    1  A    between atoms: C_4  and  C_14
                            x       y       z     vdW  Elec       q    Type
                         _______ _______ _______ _____ _____    ______ ____

>  <TORSDO>
F 1

$$$$
=
 OpenBabel11062417173D

 26 31  0  0  1  0  0  0  0  0999 V2000
  188.0730  177.0970  146.0100 C   0  0  2  0  0  3  0  0  0  0  0  0
  185.3470  179.1700  146.2650 C   0  0  0  0  0  3  0  0  0  0  0  0
  190.4660  176.1710  142.4680 C   0  0  0  0  0  2  0  0  0  0  0  0
  186.5430  178.2930  143.2470 C   0  0  0  0  0  0  0  0  0  0  0  0
  189.2350  177.2930  146.5700 N   0  0  0  0  0  2  0  0  0  0  0  0
  187.0140  178.4200  147.7190 C   0  0  0  0  0  0  0  0  0  0  0  0
  188.5990  177.4340  143.6060 C   0  0  0  0  0  0  0  0  0  0  0  0
  190.0760  177.2170  143.5140 C   0  0  0  0  0  2  0  0  0  0  0  0
  189.8640  177.8360  140.6340 C   0  0  0  0  0  2  0  0  0  0  0  0
  188.1670  178.6160  148.2960 N   0  0  0  0  0  0  0  0  0  0  0  0
  189.2770  177.6830  147.9980 C   0  0  0  0  0  2  0  0  0  0  0  0
  187.8460  177.1890  144.6910 N   0  0  0  0  0  0  0  0  0  0  0  0
  187.7980  178.0790  142.6660 C   0  0  0  0  0  0  0  0  0  0  0  0
  188.3050  178.5940  141.0590 S   0  0  0  0  0  0  0  0  0  0  0  0
  187.2700  178.1660  140.0540 O   0  0  0  0  0  0  0  0  0  0  0  0
  186.9140  177.4770  146.6520 C   0  0  1  0  0  3  0  0  0  0  0  0
  186.0560  179.4530  147.5250 N   0  0  0  0  0  0  0  0  0  0  0  0
  185.9900  177.9110  145.7340 C   0  0  2  0  0  3  0  0  0  0  0  0
  189.8490  176.3780  141.0780 C   0  0  0  0  0  2  0  0  0  0  0  0
  188.4490  180.0910  141.0320 O   0  0  0  0  0  0  0  0  0  0  0  0
  186.6310  177.7040  144.5060 C   0  0  0  0  0  0  0  0  0  0  0  0
  184.4210  177.8780  142.0320 C   0  0  0  0  0  2  0  0  0  0  0  0
  185.3690  178.9340  142.5610 C   0  0  1  0  0  3  0  0  0  0  0  0
  183.1100  178.2220  142.3950 O   0  0  0  0  0  0  0  0  0  0  0  0
  183.2310  179.0020  143.5560 C   0  0  0  0  0  2  0  0  0  0  0  0
  184.5280  179.7750  143.4740 C   0  0  0  0  0  2  0  0  0  0  0  0
  1  5  1  1  0  0  0
  1 16  1  0  0  0  0
  2 17  2  0  0  0  0
  3  8  1  0  0  0  0
  4 21  2  0  0  0  0
  5 11  1  0  0  0  0
  6 10  2  0  0  0  0
  7 12  1  0  0  0  0
  8  7  1  0  0  0  0
  9 14  1  0  0  0  0
  9 19  1  0  0  0  0
 11 10  1  0  0  0  0
 12  1  1  0  0  0  0
 13  4  1  0  0  0  0
 13  7  2  0  0  0  0
 14 13  1  0  0  0  0
 15 14  2  0  0  0  0
 16  6  1  1  0  0  0
 17  6  1  0  0  0  0
 18  2  1  1  0  0  0
 18 16  1  0  0  0  0
 19  3  1  0  0  0  0
 20 14  2  0  0  0  0
 21 12  1  0  0  0  0
 21 18  1  0  0  0  0
 22 24  1  0  0  0  0
 22 23  1  0  0  0  0
 23  4  1  1  0  0  0
 23 26  1  0  0  0  0
 24 25  1  0  0  0  0
 26 25  1  0  0  0  0
M  END
>  <MODEL>
4

>  <REMARK>
 VINA RESULT:      -7.5      2.448      4.650
  Name = 
  1 active torsions:
  status: ('A' for Active; 'I' for Inactive)
    1  A    between atoms: C_4  and  C_14
                            x       y       z     vdW  Elec       q    Type
                         _______ _______ _______ _____ _____    ______ ____

>  <TORSDO>
F 1

$$$$
=
 OpenBabel11062417173D

 26 31  0  0  1  0  0  0  0  0999 V2000
  186.2440  177.8500  144.3390 C   0  0  2  0  0  3  0  0  0  0  0  0
  187.3500  178.3210  141.1230 C   0  0  0  0  0  3  0  0  0  0  0  0
  188.5720  176.8140  147.8940 C   0  0  0  0  0  2  0  0  0  0  0  0
  189.3810  176.9770  143.4420 C   0  0  0  0  0  0  0  0  0  0  0  0
  185.7350  178.7690  145.1130 N   0  0  0  0  0  2  0  0  0  0  0  0
  185.5480  179.0860  142.3950 C   0  0  0  0  0  0  0  0  0  0  0  0
  188.4240  177.3980  145.4420 C   0  0  0  0  0  0  0  0  0  0  0  0
  188.2360  177.8770  146.8460 C   0  0  0  0  0  2  0  0  0  0  0  0
  191.0440  177.1150  147.3500 C   0  0  0  0  0  2  0  0  0  0  0  0
  185.0250  180.0070  143.1550 N   0  0  0  0  0  0  0  0  0  0  0  0
  184.6970  179.6680  144.5590 C   0  0  0  0  0  2  0  0  0  0  0  0
  187.4480  177.2890  144.5250 N   0  0  0  0  0  0  0  0  0  0  0  0
  189.6390  177.1590  144.8050 C   0  0  0  0  0  0  0  0  0  0  0  0
  191.2240  177.1590  145.5750 S   0  0  0  0  0  0  0  0  0  0  0  0
  191.9860  175.9370  145.1360 O   0  0  0  0  0  0  0  0  0  0  0  0
  186.0050  177.8670  142.9820 C   0  0  1  0  0  3  0  0  0  0  0  0
  186.3320  179.3790  141.2450 N   0  0  0  0  0  0  0  0  0  0  0  0
  187.1100  177.4130  142.3050 C   0  0  2  0  0  3  0  0  0  0  0  0
  189.9360  176.1340  147.7170 C   0  0  0  0  0  2  0  0  0  0  0  0
  191.9780  178.3970  145.1760 O   0  0  0  0  0  0  0  0  0  0  0  0
  187.9940  177.0570  143.3310 C   0  0  0  0  0  0  0  0  0  0  0  0
  189.7740  176.0060  141.1940 C   0  0  0  0  0  2  0  0  0  0  0  0
  190.4160  176.6630  142.3980 C   0  0  1  0  0  3  0  0  0  0  0  0
  190.2490  176.6280  140.0300 O   0  0  0  0  0  0  0  0  0  0  0  0
  190.6100  177.9280  140.4160 C   0  0  0  0  0  2  0  0  0  0  0  0
  191.0990  177.8790  141.8470 C   0  0  0  0  0  2  0  0  0  0  0  0
  1 12  1  0  0  0  0
  1  5  1  6  0  0  0
  2 17  2  0  0  0  0
  4 13  1  0  0  0  0
  6 10  2  0  0  0  0
  7  8  1  0  0  0  0
  8  3  1  0  0  0  0
  9 19  1  0  0  0  0
 10 11  1  0  0  0  0
 11  5  1  0  0  0  0
 12  7  1  0  0  0  0
 13  7  2  0  0  0  0
 13 14  1  0  0  0  0
 14  9  1  0  0  0  0
 15 14  2  0  0  0  0
 16  6  1  6  0  0  0
 16  1  1  0  0  0  0
 17  6  1  0  0  0  0
 18  2  1  6  0  0  0
 18 16  1  0  0  0  0
 18 21  1  0  0  0  0
 19  3  1  0  0  0  0
 20 14  2  0  0  0  0
 21  4  2  0  0  0  0
 21 12  1  0  0  0  0
 22 23  1  0  0  0  0
 23  4  1  1  0  0  0
 24 25  1  0  0  0  0
 24 22  1  0  0  0  0
 25 26  1  0  0  0  0
 26 23  1  0  0  0  0
M  END
>  <MODEL>
5

>  <REMARK>
 VINA RESULT:      -7.5      1.257      1.440
  Name = 
  1 active torsions:
  status: ('A' for Active; 'I' for Inactive)
    1  A    between atoms: C_4  and  C_14
                            x       y       z     vdW  Elec       q    Type
                         _______ _______ _______ _____ _____    ______ ____

>  <TORSDO>
F 1

$$$$
=
 OpenBabel11062417173D

 26 31  0  0  1  0  0  0  0  0999 V2000
  189.7700  177.3880  139.6820 C   0  0  2  0  0  3  0  0  0  0  0  0
  186.5590  177.7920  138.5340 C   0  0  0  0  0  3  0  0  0  0  0  0
  191.1850  177.2530  143.8190 C   0  0  0  0  0  2  0  0  0  0  0  0
  187.2880  178.3160  141.7750 C   0  0  0  0  0  0  0  0  0  0  0  0
  190.5000  176.3150  139.5460 N   0  0  0  0  0  2  0  0  0  0  0  0
  188.5070  176.7910  137.7230 C   0  0  0  0  0  0  0  0  0  0  0  0
  189.3180  177.3960  142.1250 C   0  0  0  0  0  0  0  0  0  0  0  0
  190.4050  176.5490  142.7060 C   0  0  0  0  0  2  0  0  0  0  0  0
  189.1650  176.9920  145.3500 C   0  0  0  0  0  2  0  0  0  0  0  0
  189.2340  175.7200  137.5680 N   0  0  0  0  0  0  0  0  0  0  0  0
  190.5630  175.6650  138.2170 C   0  0  0  0  0  2  0  0  0  0  0  0
  189.2600  177.8110  140.8490 N   0  0  0  0  0  0  0  0  0  0  0  0
  188.1190  177.7430  142.7430 C   0  0  0  0  0  0  0  0  0  0  0  0
  187.7050  177.4430  144.4290 S   0  0  0  0  0  0  0  0  0  0  0  0
  187.1260  178.6980  145.0260 O   0  0  0  0  0  0  0  0  0  0  0  0
  188.8930  177.7690  138.6900 C   0  0  1  0  0  3  0  0  0  0  0  0
  187.0910  176.7970  137.5870 N   0  0  0  0  0  0  0  0  0  0  0  0
  187.7750  178.3380  139.2450 C   0  0  2  0  0  3  0  0  0  0  0  0
  190.3240  177.8840  144.9200 C   0  0  0  0  0  2  0  0  0  0  0  0
  186.6950  176.3320  144.5100 O   0  0  0  0  0  0  0  0  0  0  0  0
  188.0600  178.3430  140.6160 C   0  0  0  0  0  0  0  0  0  0  0  0
  185.3570  179.5130  140.7790 C   0  0  0  0  0  2  0  0  0  0  0  0
  185.9090  178.8600  142.0290 C   0  0  1  0  0  3  0  0  0  0  0  0
  184.0450  179.0620  140.5730 O   0  0  0  0  0  0  0  0  0  0  0  0
  183.9780  177.8000  141.1830 C   0  0  0  0  0  2  0  0  0  0  0  0
  184.9040  177.8040  142.3800 C   0  0  0  0  0  2  0  0  0  0  0  0
  1  5  1  1  0  0  0
  1 12  1  0  0  0  0
  3 19  1  0  0  0  0
  4 13  1  0  0  0  0
  7  8  1  0  0  0  0
  7 13  2  0  0  0  0
  8  3  1  0  0  0  0
 10  6  2  0  0  0  0
 10 11  1  0  0  0  0
 11  5  1  0  0  0  0
 12  7  1  0  0  0  0
 13 14  1  0  0  0  0
 14 20  2  0  0  0  0
 14 15  2  0  0  0  0
 14  9  1  0  0  0  0
 16  6  1  1  0  0  0
 16 18  1  0  0  0  0
 16  1  1  0  0  0  0
 17  6  1  0  0  0  0
 17  2  2  0  0  0  0
 18  2  1  1  0  0  0
 18 21  1  0  0  0  0
 19  9  1  0  0  0  0
 21 12  1  0  0  0  0
 21  4  2  0  0  0  0
 22 23  1  0  0  0  0
 23  4  1  6  0  0  0
 23 26  1  0  0  0  0
 24 22  1  0  0  0  0
 24 25  1  0  0  0  0
 25 26  1  0  0  0  0
M  END
>  <MODEL>
6

>  <REMARK>
 VINA RESULT:      -7.0      3.265      5.239
  Name = 
  1 active torsions:
  status: ('A' for Active; 'I' for Inactive)
    1  A    between atoms: C_4  and  C_14
                            x       y       z     vdW  Elec       q    Type
                         _______ _______ _______ _____ _____    ______ ____

>  <TORSDO>
F 1

$$$$
=
 OpenBabel11062417173D

 26 31  0  0  1  0  0  0  0  0999 V2000
  188.5910  178.0490  142.2220 C   0  0  2  0  0  3  0  0  0  0  0  0
  189.1820  177.0790  138.9810 C   0  0  0  0  0  3  0  0  0  0  0  0
  184.7950  179.1890  144.0720 C   0  0  0  0  0  2  0  0  0  0  0  0
  186.2200  178.4180  139.8450 C   0  0  0  0  0  0  0  0  0  0  0  0
  188.7180  177.2940  143.2790 N   0  0  0  0  0  2  0  0  0  0  0  0
  190.1970  176.6940  141.0490 C   0  0  0  0  0  0  0  0  0  0  0  0
  186.1280  178.3500  142.0980 C   0  0  0  0  0  0  0  0  0  0  0  0
  185.6490  178.0620  143.4860 C   0  0  0  0  0  2  0  0  0  0  0  0
  182.9040  178.5240  142.4990 C   0  0  0  0  0  2  0  0  0  0  0  0
  190.3420  175.9370  142.1010 N   0  0  0  0  0  0  0  0  0  0  0  0
  189.9420  176.4730  143.4210 C   0  0  0  0  0  2  0  0  0  0  0  0
  187.4150  178.4740  141.7350 N   0  0  0  0  0  0  0  0  0  0  0  0
  185.3530  178.3630  140.9410 C   0  0  0  0  0  0  0  0  0  0  0  0
  183.5960  178.2550  140.8770 S   0  0  0  0  0  0  0  0  0  0  0  0
  183.0700  179.3140  139.9450 O   0  0  0  0  0  0  0  0  0  0  0  0
  189.4490  177.9060  141.1530 C   0  0  1  0  0  3  0  0  0  0  0  0
  190.0750  176.1770  139.7300 N   0  0  0  0  0  0  0  0  0  0  0  0
  188.7790  178.1390  139.9790 C   0  0  2  0  0  3  0  0  0  0  0  0
  183.6460  179.6700  143.1770 C   0  0  0  0  0  2  0  0  0  0  0  0
  183.1920  176.8960  140.3760 O   0  0  0  0  0  0  0  0  0  0  0  0
  187.4940  178.4990  140.4050 C   0  0  0  0  0  0  0  0  0  0  0  0
  186.9430  178.9360  137.5290 C   0  0  0  0  0  2  0  0  0  0  0  0
  185.7940  178.4800  138.4050 C   0  0  1  0  0  3  0  0  0  0  0  0
  187.0310  178.0850  136.4170 O   0  0  0  0  0  0  0  0  0  0  0  0
  186.4820  176.8620  136.8310 C   0  0  0  0  0  2  0  0  0  0  0  0
  185.3930  177.1500  137.8410 C   0  0  0  0  0  2  0  0  0  0  0  0
  1  5  1  6  0  0  0
  2 17  2  0  0  0  0
  4 21  2  0  0  0  0
  4 13  1  0  0  0  0
  5 11  1  0  0  0  0
  6 10  2  0  0  0  0
  7  8  1  0  0  0  0
  8  3  1  0  0  0  0
  9 19  1  0  0  0  0
 10 11  1  0  0  0  0
 12  7  1  0  0  0  0
 12  1  1  0  0  0  0
 13  7  2  0  0  0  0
 14 13  1  0  0  0  0
 14  9  1  0  0  0  0
 15 14  2  0  0  0  0
 16  6  1  6  0  0  0
 16  1  1  0  0  0  0
 17  6  1  0  0  0  0
 18  2  1  6  0  0  0
 18 21  1  0  0  0  0
 18 16  1  0  0  0  0
 19  3  1  0  0  0  0
 20 14  2  0  0  0  0
 21 12  1  0  0  0  0
 22 23  1  0  0  0  0
 23  4  1  1  0  0  0
 24 25  1  0  0  0  0
 24 22  1  0  0  0  0
 25 26  1  0  0  0  0
 26 23  1  0  0  0  0
M  END
>  <MODEL>
7

>  <REMARK>
 VINA RESULT:      -6.9      3.661      5.896
  Name = 
  1 active torsions:
  status: ('A' for Active; 'I' for Inactive)
    1  A    between atoms: C_4  and  C_14
                            x       y       z     vdW  Elec       q    Type
                         _______ _______ _______ _____ _____    ______ ____

>  <TORSDO>
F 1

$$$$
=
 OpenBabel11062417173D

 26 31  0  0  1  0  0  0  0  0999 V2000
  183.9310  179.3360  144.2370 C   0  0  2  0  0  3  0  0  0  0  0  0
  186.2700  178.3530  141.9240 C   0  0  0  0  0  3  0  0  0  0  0  0
  179.5760  179.4290  143.8350 C   0  0  0  0  0  2  0  0  0  0  0  0
  183.0640  178.8110  141.0150 C   0  0  0  0  0  0  0  0  0  0  0  0
  183.6720  178.7330  145.3650 N   0  0  0  0  0  2  0  0  0  0  0  0
  186.1630  178.4380  144.2550 C   0  0  0  0  0  0  0  0  0  0  0  0
  181.8690  178.8830  142.9280 C   0  0  0  0  0  0  0  0  0  0  0  0
  180.8340  178.5670  143.9610 C   0  0  0  0  0  2  0  0  0  0  0  0
  178.9350  178.1200  141.7440 C   0  0  0  0  0  2  0  0  0  0  0  0
  185.9230  177.8370  145.3870 N   0  0  0  0  0  0  0  0  0  0  0  0
  184.8050  178.3250  146.2260 C   0  0  0  0  0  2  0  0  0  0  0  0
  183.0990  179.3570  143.1840 N   0  0  0  0  0  0  0  0  0  0  0  0
  181.8000  178.5810  141.5700 C   0  0  0  0  0  0  0  0  0  0  0  0
  180.3890  177.9520  140.7240 S   0  0  0  0  0  0  0  0  0  0  0  0
  180.1830  178.7360  139.4560 O   0  0  0  0  0  0  0  0  0  0  0  0
  185.2170  179.3770  143.7440 C   0  0  1  0  0  3  0  0  0  0  0  0
  186.8390  177.8130  143.1710 N   0  0  0  0  0  0  0  0  0  0  0  0
  185.1960  179.3150  142.3730 C   0  0  2  0  0  3  0  0  0  0  0  0
  178.9600  179.4810  142.4310 C   0  0  0  0  0  2  0  0  0  0  0  0
  180.6060  176.5010  140.3910 O   0  0  0  0  0  0  0  0  0  0  0  0
  183.8280  179.3060  142.0700 C   0  0  0  0  0  0  0  0  0  0  0  0
  184.2810  179.7890  139.0870 C   0  0  0  0  0  2  0  0  0  0  0  0
  183.4180  178.6380  139.5640 C   0  0  1  0  0  3  0  0  0  0  0  0
  185.3730  179.2720  138.3740 O   0  0  0  0  0  0  0  0  0  0  0  0
  185.5780  177.9800  138.8800 C   0  0  0  0  0  2  0  0  0  0  0  0
  184.2370  177.4130  139.2890 C   0  0  0  0  0  2  0  0  0  0  0  0
  1  5  1  6  0  0  0
  2 17  2  0  0  0  0
  3  8  1  0  0  0  0
  4 13  1  0  0  0  0
  4 21  2  0  0  0  0
  5 11  1  0  0  0  0
  6 10  2  0  0  0  0
  7 12  1  0  0  0  0
  7  8  1  0  0  0  0
  9 19  1  0  0  0  0
 10 11  1  0  0  0  0
 12  1  1  0  0  0  0
 13  7  2  0  0  0  0
 14 13  1  0  0  0  0
 14  9  1  0  0  0  0
 15 14  2  0  0  0  0
 16  1  1  0  0  0  0
 16  6  1  1  0  0  0
 17  6  1  0  0  0  0
 18  2  1  1  0  0  0
 18 16  1  0  0  0  0
 19  3  1  0  0  0  0
 20 14  2  0  0  0  0
 21 18  1  0  0  0  0
 21 12  1  0  0  0  0
 22 23  1  0  0  0  0
 23  4  1  1  0  0  0
 24 25  1  0  0  0  0
 24 22  1  0  0  0  0
 25 26  1  0  0  0  0
 26 23  1  0  0  0  0
M  END
>  <MODEL>
8

>  <REMARK>
 VINA RESULT:      -6.8      4.459      7.170
  Name = 
  1 active torsions:
  status: ('A' for Active; 'I' for Inactive)
    1  A    between atoms: C_4  and  C_14
                            x       y       z     vdW  Elec       q    Type
                         _______ _______ _______ _____ _____    ______ ____

>  <TORSDO>
F 1

$$$$
=
 OpenBabel11062417173D

 26 31  0  0  1  0  0  0  0  0999 V2000
  185.5950  178.8260  141.2080 C   0  0  2  0  0  3  0  0  0  0  0  0
  188.6750  177.4810  140.5030 C   0  0  0  0  0  3  0  0  0  0  0  0
  181.9980  178.8410  138.7200 C   0  0  0  0  0  2  0  0  0  0  0  0
  186.3520  177.7740  138.0890 C   0  0  0  0  0  0  0  0  0  0  0  0
  184.7790  178.4160  142.1390 N   0  0  0  0  0  2  0  0  0  0  0  0
  187.4640  177.9490  142.4440 C   0  0  0  0  0  0  0  0  0  0  0  0
  184.3920  178.1580  139.1390 C   0  0  0  0  0  0  0  0  0  0  0  0
  182.9670  178.0150  139.5690 C   0  0  0  0  0  2  0  0  0  0  0  0
  182.3440  177.2030  136.7980 C   0  0  0  0  0  2  0  0  0  0  0  0
  186.6620  177.5430  143.3880 N   0  0  0  0  0  0  0  0  0  0  0  0
  185.3200  178.1590  143.4930 C   0  0  0  0  0  2  0  0  0  0  0  0
  185.3790  178.6710  139.8920 N   0  0  0  0  0  0  0  0  0  0  0  0
  184.9640  177.6360  137.9820 C   0  0  0  0  0  0  0  0  0  0  0  0
  184.0920  176.8720  136.6550 S   0  0  0  0  0  0  0  0  0  0  0  0
  184.5850  177.4370  135.3500 O   0  0  0  0  0  0  0  0  0  0  0  0
  186.9590  178.7880  141.4060 C   0  0  1  0  0  3  0  0  0  0  0  0
  188.5280  177.1560  141.9330 N   0  0  0  0  0  0  0  0  0  0  0  0
  187.5970  178.5010  140.2260 C   0  0  2  0  0  3  0  0  0  0  0  0
  182.1410  178.6580  137.2030 C   0  0  0  0  0  2  0  0  0  0  0  0
  184.3270  175.3870  136.6860 O   0  0  0  0  0  0  0  0  0  0  0  0
  186.5490  178.4390  139.2980 C   0  0  0  0  0  0  0  0  0  0  0  0
  188.5110  178.3350  137.0040 C   0  0  0  0  0  2  0  0  0  0  0  0
  187.3480  177.3660  137.0390 C   0  0  1  0  0  3  0  0  0  0  0  0
  189.7090  177.6050  136.9840 O   0  0  0  0  0  0  0  0  0  0  0  0
  189.4160  176.3790  137.6000 C   0  0  0  0  0  2  0  0  0  0  0  0
  187.9760  176.0290  137.2970 C   0  0  0  0  0  2  0  0  0  0  0  0
  1 16  1  0  0  0  0
  1  5  1  1  0  0  0
  2 17  2  0  0  0  0
  3  8  1  0  0  0  0
  4 21  2  0  0  0  0
  5 11  1  0  0  0  0
  6 10  2  0  0  0  0
  7  8  1  0  0  0  0
  7 12  1  0  0  0  0
  9 19  1  0  0  0  0
 10 11  1  0  0  0  0
 12  1  1  0  0  0  0
 13  4  1  0  0  0  0
 13  7  2  0  0  0  0
 14 20  2  0  0  0  0
 14  9  1  0  0  0  0
 14 13  1  0  0  0  0
 15 14  2  0  0  0  0
 16  6  1  1  0  0  0
 17  6  1  0  0  0  0
 18  2  1  1  0  0  0
 18 16  1  0  0  0  0
 19  3  1  0  0  0  0
 21 12  1  0  0  0  0
 21 18  1  0  0  0  0
 22 23  1  0  0  0  0
 23 26  1  0  0  0  0
 23  4  1  1  0  0  0
 24 22  1  0  0  0  0
 24 25  1  0  0  0  0
 26 25  1  0  0  0  0
M  END
>  <MODEL>
9

>  <REMARK>
 VINA RESULT:      -6.7      3.834      6.891
  Name = 
  1 active torsions:
  status: ('A' for Active; 'I' for Inactive)
    1  A    between atoms: C_4  and  C_14
                            x       y       z     vdW  Elec       q    Type
                         _______ _______ _______ _____ _____    ______ ____

>  <TORSDO>
F 1

$$$$
