=
 OpenBabel11062412233D

 43 49  0  0  1  0  0  0  0  0999 V2000
  188.2190  176.8540  144.5140 C   0  0  0  0  0  2  0  0  0  0  0  0
  186.9020  177.6920  142.5760 C   0  0  1  0  0  3  0  0  0  0  0  0
  182.2550  178.8900  143.7970 C   0  0  0  0  0  0  0  0  0  0  0  0
  180.1340  177.2610  143.4160 S   0  0  0  0  0  0  0  0  0  0  0  0
  187.1840  177.2720  145.5480 C   0  0  1  0  0  3  0  0  0  0  0  0
  187.8910  177.6500  146.8350 C   0  0  0  0  0  1  0  0  0  0  0  0
  185.5530  179.7970  143.0350 C   0  0  0  0  0  2  0  0  0  0  0  0
  179.3230  177.9070  141.9710 C   0  0  0  0  0  0  0  0  0  0  0  0
  179.5260  179.2190  141.7040 C   0  0  0  0  0  0  0  0  0  0  0  0
  184.5430  178.6650  143.0360 C   0  0  2  0  0  3  0  0  0  0  0  0
  179.4650  179.4030  140.3700 N   0  0  0  0  0  0  0  0  0  0  0  0
  183.5220  178.9330  144.1020 C   0  0  0  0  0  0  0  0  0  0  0  0
  179.1970  178.2140  139.8420 N   0  0  0  0  0  0  0  0  0  0  0  0
  180.4040  179.9490  142.6440 C   0  0  0  0  0  2  0  0  0  0  0  0
  183.9240  179.2830  145.4950 C   0  0  0  0  0  2  0  0  0  0  0  0
  184.9880  178.3060  145.9450 C   0  0  0  0  0  2  0  0  0  0  0  0
  180.9900  178.8510  143.4860 C   0  0  0  0  0  0  0  0  0  0  0  0
  179.1300  177.2940  140.7920 N   0  0  0  0  0  0  0  0  0  0  0  0
  187.5140  176.4580  143.2250 C   0  0  0  0  0  2  0  0  0  0  0  0
  185.9680  178.4270  143.5590 C   0  0  1  0  0  0  0  0  0  0  0  0
  186.2580  178.4170  145.0940 C   0  0  2  0  0  3  0  0  0  0  0  0
  188.0510  178.4990  140.6330 O   0  0  0  0  0  1  0  0  0  0  0  0
  188.0050  178.5980  142.0250 C   0  0  0  0  0  2  0  0  0  0  0  0
  179.1170  175.8620  140.5440 C   0  0  0  0  0  2  0  0  0  0  0  0
  180.4210  175.4180  140.2420 O   0  0  0  0  0  0  0  0  0  0  0  0
  181.2840  175.4340  137.9230 C   0  0  2  0  0  3  0  0  0  0  0  0
  183.1280  177.2770  138.2900 C   0  0  1  0  0  3  0  0  0  0  0  0
  182.7520  175.8250  138.0270 C   0  0  1  0  0  0  0  0  0  0  0  0
  180.4980  176.2720  136.5120 S   0  0  0  0  0  1  0  0  0  0  0  0
  181.0060  176.1990  139.2060 C   0  0  2  0  0  3  0  0  0  0  0  0
  182.4970  176.4670  139.3950 C   0  0  2  0  0  3  0  0  0  0  0  0
  184.0220  174.3210  135.9640 O   0  0  0  0  0  0  0  0  0  0  0  0
  183.7270  174.7630  138.2400 N   0  0  0  0  0  2  0  0  0  0  0  0
  184.2970  174.0250  137.1590 C   0  0  0  0  0  0  0  0  0  0  0  0
  185.1770  172.8600  137.4470 C   0  0  0  0  0  2  0  0  0  0  0  0
  187.8210  172.2080  137.4470 O   0  0  0  0  0  1  0  0  0  0  0  0
  186.8470  173.1700  136.8020 P   0  0  0  0  0  0  0  0  0  0  0  0
  186.8500  172.9390  135.1280 O   0  0  0  0  0  0  0  0  0  0  0  0
  187.3010  174.7610  137.1500 O   0  0  0  0  0  1  0  0  0  0  0  0
  184.5240  177.3980  138.5290 O   0  0  0  0  0  0  0  0  0  0  0  0
  184.6340  179.6530  139.4030 O   0  0  0  0  0  1  0  0  0  0  0  0
  185.1470  178.6420  138.5940 C   0  0  0  0  0  0  0  0  0  0  0  0
  186.1850  178.8540  137.9150 O   0  0  0  0  0  0  0  0  0  0  0  0
  1  5  1  0  0  0  0
  2 23  1  1  0  0  0
  2 19  1  0  0  0  0
  2 20  1  0  0  0  0
  3 12  2  0  0  0  0
  4 17  1  0  0  0  0
  5  6  1  1  0  0  0
  8  4  1  0  0  0  0
  9  8  2  0  0  0  0
  9 14  1  0  0  0  0
 10  7  1  6  0  0  0
 10 20  1  0  0  0  0
 10 12  1  0  0  0  0
 11  9  1  0  0  0  0
 12 15  1  0  0  0  0
 13 11  2  0  0  0  0
 13 18  1  0  0  0  0
 14 17  1  0  0  0  0
 15 16  1  0  0  0  0
 17  3  2  0  0  0  0
 18  8  1  0  0  0  0
 19  1  1  0  0  0  0
 20  7  1  6  0  0  0
 20 21  1  0  0  0  0
 21  5  1  0  0  0  0
 21 16  1  1  0  0  0
 22 23  1  0  0  0  0
 24 18  1  0  0  0  0
 25 24  1  0  0  0  0
 26 29  1  6  0  0  0
 26 28  1  0  0  0  0
 26 30  1  0  0  0  0
 27 40  1  1  0  0  0
 27 31  1  0  0  0  0
 28 33  1  6  0  0  0
 28 27  1  0  0  0  0
 28 31  1  0  0  0  0
 30 31  1  0  0  0  0
 30 25  1  1  0  0  0
 32 34  2  0  0  0  0
 34 35  1  0  0  0  0
 34 33  1  0  0  0  0
 37 39  1  0  0  0  0
 37 35  1  0  0  0  0
 37 36  1  0  0  0  0
 38 37  2  0  0  0  0
 40 42  1  0  0  0  0
 42 41  1  0  0  0  0
 43 42  2  0  0  0  0
M  END
>  <MODEL>
1

>  <REMARK>
 VINA RESULT:      -7.9      0.000      0.000
  Name = 
  9 active torsions:
  status: ('A' for Active; 'I' for Inactive)
    1  A    between atoms: C_4  and  C_28
    2  A    between atoms: C_8  and  O_42
    3  A    between atoms: P_15  and  C_34
    4  A    between atoms: C_18  and  O_42
    5  A    between atoms: N_21  and  C_23
    6  A    between atoms: C_29  and  N_33
    7  A    between atoms: C_29  and  O_38
    8  A    between atoms: C_32  and  C_34
    9  A    between atoms: C_35  and  O_38
                            x       y       z     vdW  Elec       q    Type
                         _______ _______ _______ _____ _____    ______ ____

>  <TORSDO>
F 9

$$$$
=
 OpenBabel11062412233D

 43 49  0  0  1  0  0  0  0  0999 V2000
  181.4280  178.9280  141.4090 C   0  0  0  0  0  2  0  0  0  0  0  0
  183.0850  179.0160  139.5540 C   0  0  1  0  0  3  0  0  0  0  0  0
  183.5530  174.6830  137.2030 C   0  0  0  0  0  0  0  0  0  0  0  0
  185.5220  172.9040  137.7090 S   0  0  0  0  0  0  0  0  0  0  0  0
  180.8740  177.5700  141.0060 C   0  0  1  0  0  3  0  0  0  0  0  0
  179.4020  177.5070  141.3650 C   0  0  0  0  0  1  0  0  0  0  0  0
  182.3070  177.9540  137.3800 C   0  0  0  0  0  2  0  0  0  0  0  0
  186.6740  173.1140  136.3700 C   0  0  0  0  0  0  0  0  0  0  0  0
  186.1710  173.6150  135.2180 C   0  0  0  0  0  0  0  0  0  0  0  0
  183.2720  176.9560  137.9910 C   0  0  2  0  0  3  0  0  0  0  0  0
  187.1370  174.3180  134.5940 N   0  0  0  0  0  0  0  0  0  0  0  0
  182.7580  175.5700  137.7340 C   0  0  0  0  0  0  0  0  0  0  0  0
  188.2230  174.2130  135.3530 N   0  0  0  0  0  0  0  0  0  0  0  0
  184.7270  173.9340  135.2180 C   0  0  0  0  0  2  0  0  0  0  0  0
  181.3480  175.1940  138.0390 C   0  0  0  0  0  2  0  0  0  0  0  0
  181.0120  175.6880  139.4290 C   0  0  0  0  0  2  0  0  0  0  0  0
  184.3490  173.8010  136.6660 C   0  0  0  0  0  0  0  0  0  0  0  0
  187.9550  173.5080  136.4420 N   0  0  0  0  0  0  0  0  0  0  0  0
  182.9100  178.9910  141.0670 C   0  0  0  0  0  2  0  0  0  0  0  0
  182.3770  177.8140  138.8960 C   0  0  1  0  0  0  0  0  0  0  0  0
  181.0740  177.2170  139.5200 C   0  0  2  0  0  3  0  0  0  0  0  0
  183.7070  181.1910  138.7600 O   0  0  0  0  0  1  0  0  0  0  0  0
  182.6110  180.3570  138.9920 C   0  0  0  0  0  2  0  0  0  0  0  0
  188.8310  173.4270  137.5980 C   0  0  0  0  0  2  0  0  0  0  0  0
  190.1680  173.6330  137.2010 O   0  0  0  0  0  0  0  0  0  0  0  0
  191.6020  175.3990  138.1740 C   0  0  2  0  0  3  0  0  0  0  0  0
  189.8580  177.3620  137.9690 C   0  0  1  0  0  3  0  0  0  0  0  0
  190.6510  176.3910  138.8330 C   0  0  1  0  0  0  0  0  0  0  0  0
  192.9340  176.2760  137.3000 S   0  0  0  0  0  1  0  0  0  0  0  0
  190.5000  175.0170  137.2000 C   0  0  2  0  0  3  0  0  0  0  0  0
  189.5020  175.8960  137.9480 C   0  0  2  0  0  3  0  0  0  0  0  0
  191.7400  177.6970  141.1220 O   0  0  0  0  0  0  0  0  0  0  0  0
  190.2530  176.1400  140.2120 N   0  0  0  0  0  2  0  0  0  0  0  0
  190.8680  176.8070  141.3150 C   0  0  0  0  0  0  0  0  0  0  0  0
  190.5180  176.4050  142.7050 C   0  0  0  0  0  2  0  0  0  0  0  0
  189.7170  178.2900  144.5000 O   0  0  0  0  0  1  0  0  0  0  0  0
  189.1900  177.4690  143.3420 P   0  0  0  0  0  0  0  0  0  0  0  0
  188.6630  178.5000  142.1110 O   0  0  0  0  0  0  0  0  0  0  0  0
  187.8980  176.5100  143.8630 O   0  0  0  0  0  1  0  0  0  0  0  0
  188.9080  178.0700  138.7540 O   0  0  0  0  0  0  0  0  0  0  0  0
  187.4270  178.4860  136.8840 O   0  0  0  0  0  0  0  0  0  0  0  0
  187.6470  178.3920  138.2560 C   0  0  0  0  0  0  0  0  0  0  0  0
  186.6970  178.5980  139.0550 O   0  0  0  0  0  1  0  0  0  0  0  0
  2 23  1  6  0  0  0
  2 19  1  0  0  0  0
  3 12  2  0  0  0  0
  5  6  1  6  0  0  0
  5  1  1  0  0  0  0
  8 18  1  0  0  0  0
  8  4  1  0  0  0  0
  9 14  1  0  0  0  0
  9  8  2  0  0  0  0
 10  7  1  6  0  0  0
 10 20  1  0  0  0  0
 11  9  1  0  0  0  0
 11 13  2  0  0  0  0
 12 10  1  0  0  0  0
 12 15  1  0  0  0  0
 13 18  1  0  0  0  0
 14 17  1  0  0  0  0
 15 16  1  0  0  0  0
 17  3  2  0  0  0  0
 17  4  1  0  0  0  0
 18 24  1  0  0  0  0
 19  1  1  0  0  0  0
 20  7  1  6  0  0  0
 20 21  1  0  0  0  0
 20  2  1  0  0  0  0
 21 16  1  1  0  0  0
 21  5  1  0  0  0  0
 22 23  1  0  0  0  0
 25 24  1  0  0  0  0
 26 29  1  6  0  0  0
 26 28  1  0  0  0  0
 27 40  1  1  0  0  0
 27 28  1  0  0  0  0
 28 33  1  1  0  0  0
 30 25  1  1  0  0  0
 30 31  1  0  0  0  0
 30 26  1  0  0  0  0
 31 27  1  0  0  0  0
 31 28  1  0  0  0  0
 32 34  2  0  0  0  0
 33 34  1  0  0  0  0
 34 35  1  0  0  0  0
 35 37  1  0  0  0  0
 37 39  1  0  0  0  0
 37 36  1  0  0  0  0
 38 37  2  0  0  0  0
 41 42  2  0  0  0  0
 42 40  1  0  0  0  0
 42 43  1  0  0  0  0
M  END
>  <MODEL>
2

>  <REMARK>
 VINA RESULT:      -6.1      4.598      8.320
  Name = 
  9 active torsions:
  status: ('A' for Active; 'I' for Inactive)
    1  A    between atoms: C_4  and  C_28
    2  A    between atoms: C_8  and  O_42
    3  A    between atoms: P_15  and  C_34
    4  A    between atoms: C_18  and  O_42
    5  A    between atoms: N_21  and  C_23
    6  A    between atoms: C_29  and  N_33
    7  A    between atoms: C_29  and  O_38
    8  A    between atoms: C_32  and  C_34
    9  A    between atoms: C_35  and  O_38
                            x       y       z     vdW  Elec       q    Type
                         _______ _______ _______ _____ _____    ______ ____

>  <TORSDO>
F 9

$$$$
=
 OpenBabel11062412233D

 43 49  0  0  1  0  0  0  0  0999 V2000
  187.9710  176.8590  144.6000 C   0  0  0  0  0  2  0  0  0  0  0  0
  187.5960  177.5770  142.2480 C   0  0  1  0  0  3  0  0  0  0  0  0
  182.8380  178.5480  141.2810 C   0  0  0  0  0  0  0  0  0  0  0  0
  181.1580  176.7960  140.0930 S   0  0  0  0  0  0  0  0  0  0  0  0
  186.5750  177.2440  145.0640 C   0  0  1  0  0  3  0  0  0  0  0  0
  186.6370  177.6910  146.5120 C   0  0  0  0  0  1  0  0  0  0  0  0
  186.1010  179.6150  141.9820 C   0  0  0  0  0  2  0  0  0  0  0  0
  181.0320  177.3630  138.4120 C   0  0  0  0  0  0  0  0  0  0  0  0
  181.2790  178.6770  138.2000 C   0  0  0  0  0  0  0  0  0  0  0  0
  185.2360  178.4300  141.5970 C   0  0  2  0  0  3  0  0  0  0  0  0
  181.7970  178.8260  136.9650 N   0  0  0  0  0  0  0  0  0  0  0  0
  183.8430  178.6670  142.1020 C   0  0  0  0  0  0  0  0  0  0  0  0
  181.8310  177.6110  136.4260 N   0  0  0  0  0  0  0  0  0  0  0  0
  181.6320  179.4760  139.3930 C   0  0  0  0  0  2  0  0  0  0  0  0
  183.5860  179.0720  143.5140 C   0  0  0  0  0  2  0  0  0  0  0  0
  184.3860  178.1650  144.4240 C   0  0  0  0  0  2  0  0  0  0  0  0
  181.8360  178.4330  140.4550 C   0  0  0  0  0  0  0  0  0  0  0  0
  181.3940  176.7120  137.2950 N   0  0  0  0  0  0  0  0  0  0  0  0
  187.9130  176.3940  143.1530 C   0  0  0  0  0  2  0  0  0  0  0  0
  186.3000  178.2830  142.6940 C   0  0  1  0  0  0  0  0  0  0  0  0
  185.8950  178.3250  144.2030 C   0  0  2  0  0  3  0  0  0  0  0  0
  189.8940  177.8760  141.6300 O   0  0  0  0  0  1  0  0  0  0  0  0
  188.7930  178.5290  142.1880 C   0  0  0  0  0  2  0  0  0  0  0  0
  181.5460  175.2760  137.1310 C   0  0  0  0  0  2  0  0  0  0  0  0
  181.8050  174.9750  135.7780 O   0  0  0  0  0  0  0  0  0  0  0  0
  183.5180  173.6440  136.9680 C   0  0  2  0  0  3  0  0  0  0  0  0
  185.3770  173.7960  135.1080 C   0  0  1  0  0  3  0  0  0  0  0  0
  184.8640  174.1750  136.4910 C   0  0  1  0  0  0  0  0  0  0  0  0
  183.5520  171.8280  137.0800 S   0  0  0  0  0  1  0  0  0  0  0  0
  182.9000  174.0750  135.6490 C   0  0  2  0  0  3  0  0  0  0  0  0
  184.2070  174.7410  135.2280 C   0  0  2  0  0  3  0  0  0  0  0  0
  184.5770  176.9120  135.7420 O   0  0  0  0  0  0  0  0  0  0  0  0
  185.4410  175.3070  137.2050 N   0  0  0  0  0  2  0  0  0  0  0  0
  185.2860  176.6520  136.7520 C   0  0  0  0  0  0  0  0  0  0  0  0
  186.0160  177.7490  137.4430 C   0  0  0  0  0  2  0  0  0  0  0  0
  187.7100  177.7580  135.3100 O   0  0  0  0  0  0  0  0  0  0  0  0
  187.7210  177.8470  136.8210 P   0  0  0  0  0  0  0  0  0  0  0  0
  188.4050  179.3170  137.2960 O   0  0  0  0  0  1  0  0  0  0  0  0
  188.6300  176.5720  137.4610 O   0  0  0  0  0  1  0  0  0  0  0  0
  186.5500  174.5320  134.7910 O   0  0  0  0  0  0  0  0  0  0  0  0
  187.9790  172.6980  135.4680 O   0  0  0  0  0  1  0  0  0  0  0  0
  187.8210  173.9880  134.9680 C   0  0  0  0  0  0  0  0  0  0  0  0
  188.8360  174.6700  134.6710 O   0  0  0  0  0  0  0  0  0  0  0  0
  1  5  1  0  0  0  0
  2 23  1  1  0  0  0
  2 20  1  0  0  0  0
  2 19  1  0  0  0  0
  3 12  2  0  0  0  0
  4 17  1  0  0  0  0
  5  6  1  1  0  0  0
  8  4  1  0  0  0  0
  9  8  2  0  0  0  0
  9 14  1  0  0  0  0
 10  7  1  6  0  0  0
 10 12  1  0  0  0  0
 10 20  1  0  0  0  0
 11  9  1  0  0  0  0
 12 15  1  0  0  0  0
 13 11  2  0  0  0  0
 13 18  1  0  0  0  0
 14 17  1  0  0  0  0
 15 16  1  0  0  0  0
 17  3  2  0  0  0  0
 18  8  1  0  0  0  0
 19  1  1  0  0  0  0
 20  7  1  6  0  0  0
 20 21  1  0  0  0  0
 21 16  1  6  0  0  0
 21  5  1  0  0  0  0
 22 23  1  0  0  0  0
 24 18  1  0  0  0  0
 25 24  1  0  0  0  0
 26 29  1  6  0  0  0
 27 40  1  1  0  0  0
 27 31  1  0  0  0  0
 27 28  1  0  0  0  0
 28 26  1  0  0  0  0
 28 33  1  1  0  0  0
 30 25  1  1  0  0  0
 30 26  1  0  0  0  0
 31 30  1  0  0  0  0
 31 28  1  0  0  0  0
 32 34  2  0  0  0  0
 34 33  1  0  0  0  0
 34 35  1  0  0  0  0
 36 37  2  0  0  0  0
 37 38  1  0  0  0  0
 37 35  1  0  0  0  0
 37 39  1  0  0  0  0
 40 42  1  0  0  0  0
 42 41  1  0  0  0  0
 43 42  2  0  0  0  0
M  END
>  <MODEL>
3

>  <REMARK>
 VINA RESULT:      -5.7      2.435      3.873
  Name = 
  9 active torsions:
  status: ('A' for Active; 'I' for Inactive)
    1  A    between atoms: C_4  and  C_28
    2  A    between atoms: C_8  and  O_42
    3  A    between atoms: P_15  and  C_34
    4  A    between atoms: C_18  and  O_42
    5  A    between atoms: N_21  and  C_23
    6  A    between atoms: C_29  and  N_33
    7  A    between atoms: C_29  and  O_38
    8  A    between atoms: C_32  and  C_34
    9  A    between atoms: C_35  and  O_38
                            x       y       z     vdW  Elec       q    Type
                         _______ _______ _______ _____ _____    ______ ____

>  <TORSDO>
F 9

$$$$
=
 OpenBabel11062412233D

 43 49  0  0  1  0  0  0  0  0999 V2000
  179.8600  175.0440  139.1120 C   0  0  0  0  0  2  0  0  0  0  0  0
  181.3340  177.0390  139.3100 C   0  0  1  0  0  3  0  0  0  0  0  0
  185.4910  176.6150  136.6540 C   0  0  0  0  0  0  0  0  0  0  0  0
  187.8650  175.8450  137.6900 S   0  0  0  0  0  0  0  0  0  0  0  0
  180.6390  174.4370  137.9560 C   0  0  1  0  0  3  0  0  0  0  0  0
  179.6850  173.6720  137.0600 C   0  0  0  0  0  1  0  0  0  0  0  0
  182.2620  177.9000  137.1060 C   0  0  0  0  0  2  0  0  0  0  0  0
  188.7930  177.3530  137.8580 C   0  0  0  0  0  0  0  0  0  0  0  0
  188.4430  178.3690  137.0340 C   0  0  0  0  0  0  0  0  0  0  0  0
  183.4150  177.1720  137.7710 C   0  0  2  0  0  3  0  0  0  0  0  0
  188.6910  179.5370  137.6590 N   0  0  0  0  0  0  0  0  0  0  0  0
  184.2000  176.4480  136.7150 C   0  0  0  0  0  0  0  0  0  0  0  0
  189.2160  179.2240  138.8390 N   0  0  0  0  0  0  0  0  0  0  0  0
  187.3270  178.1000  136.1030 C   0  0  0  0  0  2  0  0  0  0  0  0
  183.5300  175.5710  135.7120 C   0  0  0  0  0  2  0  0  0  0  0  0
  182.5640  174.6630  136.4420 C   0  0  0  0  0  2  0  0  0  0  0  0
  186.7810  176.7880  136.5930 C   0  0  0  0  0  0  0  0  0  0  0  0
  189.2630  177.9080  138.9860 N   0  0  0  0  0  0  0  0  0  0  0  0
  180.8150  175.7990  140.0250 C   0  0  0  0  0  2  0  0  0  0  0  0
  181.9770  176.6690  137.9580 C   0  0  1  0  0  0  0  0  0  0  0  0
  181.4460  175.4550  137.1280 C   0  0  2  0  0  3  0  0  0  0  0  0
  180.5120  179.2100  139.9130 O   0  0  0  0  0  1  0  0  0  0  0  0
  180.2130  178.0700  139.1640 C   0  0  0  0  0  2  0  0  0  0  0  0
  189.5290  177.2360  140.2460 C   0  0  0  0  0  2  0  0  0  0  0  0
  189.6300  178.1860  141.2830 O   0  0  0  0  0  0  0  0  0  0  0  0
  189.3900  176.3800  142.9570 C   0  0  2  0  0  3  0  0  0  0  0  0
  190.3230  177.7360  145.0120 C   0  0  1  0  0  3  0  0  0  0  0  0
  189.1550  177.0770  144.2910 C   0  0  1  0  0  0  0  0  0  0  0  0
  190.5270  174.9740  143.1610 S   0  0  0  0  0  1  0  0  0  0  0  0
  190.1510  177.6020  142.4710 C   0  0  2  0  0  3  0  0  0  0  0  0
  189.7910  178.3600  143.7460 C   0  0  2  0  0  3  0  0  0  0  0  0
  186.9510  177.1590  142.4840 O   0  0  0  0  0  0  0  0  0  0  0  0
  187.7840  177.4120  144.6530 N   0  0  0  0  0  2  0  0  0  0  0  0
  186.7340  177.4680  143.6870 C   0  0  0  0  0  0  0  0  0  0  0  0
  185.3870  177.9530  144.0930 C   0  0  0  0  0  2  0  0  0  0  0  0
  183.4340  179.6360  143.2150 O   0  0  0  0  0  1  0  0  0  0  0  0
  184.5890  178.8040  142.7000 P   0  0  0  0  0  0  0  0  0  0  0  0
  185.7160  179.8110  141.9420 O   0  0  0  0  0  1  0  0  0  0  0  0
  184.0200  177.6620  141.5900 O   0  0  0  0  0  0  0  0  0  0  0  0
  189.8650  178.4760  146.1350 O   0  0  0  0  0  0  0  0  0  0  0  0
  188.9680  178.5010  148.3840 O   0  0  0  0  0  1  0  0  0  0  0  0
  189.7220  177.8840  147.3880 C   0  0  0  0  0  0  0  0  0  0  0  0
  190.2780  176.7800  147.6220 O   0  0  0  0  0  0  0  0  0  0  0  0
  1 19  1  0  0  0  0
  2 23  1  6  0  0  0
  2 19  1  0  0  0  0
  3 12  2  0  0  0  0
  4  8  1  0  0  0  0
  5  6  1  6  0  0  0
  5  1  1  0  0  0  0
  8 18  1  0  0  0  0
  9 11  1  0  0  0  0
  9  8  2  0  0  0  0
 10  7  1  6  0  0  0
 10 20  1  0  0  0  0
 11 13  2  0  0  0  0
 12 10  1  0  0  0  0
 13 18  1  0  0  0  0
 14 17  1  0  0  0  0
 14  9  1  0  0  0  0
 15 16  1  0  0  0  0
 15 12  1  0  0  0  0
 17  3  2  0  0  0  0
 17  4  1  0  0  0  0
 18 24  1  0  0  0  0
 20  7  1  6  0  0  0
 20  2  1  0  0  0  0
 21 16  1  1  0  0  0
 21  5  1  0  0  0  0
 21 20  1  0  0  0  0
 23 22  1  0  0  0  0
 24 25  1  0  0  0  0
 26 29  1  1  0  0  0
 26 28  1  0  0  0  0
 27 40  1  1  0  0  0
 28 33  1  1  0  0  0
 28 27  1  0  0  0  0
 30 25  1  6  0  0  0
 30 26  1  0  0  0  0
 30 31  1  0  0  0  0
 31 28  1  0  0  0  0
 31 27  1  0  0  0  0
 32 34  2  0  0  0  0
 34 35  1  0  0  0  0
 34 33  1  0  0  0  0
 37 36  1  0  0  0  0
 37 35  1  0  0  0  0
 38 37  1  0  0  0  0
 39 37  2  0  0  0  0
 40 42  1  0  0  0  0
 42 43  2  0  0  0  0
 42 41  1  0  0  0  0
M  END
>  <MODEL>
4

>  <REMARK>
 VINA RESULT:      -5.7      4.641      9.320
  Name = 
  9 active torsions:
  status: ('A' for Active; 'I' for Inactive)
    1  A    between atoms: C_4  and  C_28
    2  A    between atoms: C_8  and  O_42
    3  A    between atoms: P_15  and  C_34
    4  A    between atoms: C_18  and  O_42
    5  A    between atoms: N_21  and  C_23
    6  A    between atoms: C_29  and  N_33
    7  A    between atoms: C_29  and  O_38
    8  A    between atoms: C_32  and  C_34
    9  A    between atoms: C_35  and  O_38
                            x       y       z     vdW  Elec       q    Type
                         _______ _______ _______ _____ _____    ______ ____

>  <TORSDO>
F 9

$$$$
=
 OpenBabel11062412233D

 43 49  0  0  1  0  0  0  0  0999 V2000
  187.3540  177.3180  145.2610 C   0  0  0  0  0  2  0  0  0  0  0  0
  187.5680  177.7300  142.8170 C   0  0  1  0  0  3  0  0  0  0  0  0
  183.1820  178.1750  140.5630 C   0  0  0  0  0  0  0  0  0  0  0  0
  181.9660  176.1630  139.2310 S   0  0  0  0  0  0  0  0  0  0  0  0
  185.8670  177.6320  145.3040 C   0  0  1  0  0  3  0  0  0  0  0  0
  185.5250  178.2440  146.6480 C   0  0  0  0  0  1  0  0  0  0  0  0
  186.0870  179.5900  141.9170 C   0  0  0  0  0  2  0  0  0  0  0  0
  182.2520  176.5230  137.5120 C   0  0  0  0  0  0  0  0  0  0  0  0
  182.4760  177.8200  137.1990 C   0  0  0  0  0  0  0  0  0  0  0  0
  185.4170  178.2990  141.4860 C   0  0  2  0  0  3  0  0  0  0  0  0
  183.2890  177.8720  136.1260 N   0  0  0  0  0  0  0  0  0  0  0  0
  183.9300  178.4720  141.5880 C   0  0  0  0  0  0  0  0  0  0  0  0
  183.5270  176.6120  135.7780 N   0  0  0  0  0  0  0  0  0  0  0  0
  182.4620  178.7770  138.3270 C   0  0  0  0  0  2  0  0  0  0  0  0
  183.2920  179.0110  142.8230 C   0  0  0  0  0  2  0  0  0  0  0  0
  183.8740  178.2850  144.0160 C   0  0  0  0  0  2  0  0  0  0  0  0
  182.4370  177.8820  139.5340 C   0  0  0  0  0  0  0  0  0  0  0  0
  182.9280  175.7830  136.6190 N   0  0  0  0  0  0  0  0  0  0  0  0
  187.7000  176.6890  143.9200 C   0  0  0  0  0  2  0  0  0  0  0  0
  186.1640  178.3690  142.8250 C   0  0  1  0  0  0  0  0  0  0  0  0
  185.3780  178.5470  144.1640 C   0  0  2  0  0  3  0  0  0  0  0  0
  189.8760  178.1450  143.3160 O   0  0  0  0  0  1  0  0  0  0  0  0
  188.6860  178.7670  142.9360 C   0  0  0  0  0  2  0  0  0  0  0  0
  183.1930  174.3560  136.6890 C   0  0  0  0  0  2  0  0  0  0  0  0
  183.9610  173.9580  135.5740 O   0  0  0  0  0  0  0  0  0  0  0  0
  185.8530  173.7100  137.1490 C   0  0  2  0  0  3  0  0  0  0  0  0
  187.4790  172.4720  135.4880 C   0  0  1  0  0  3  0  0  0  0  0  0
  187.1120  173.7130  136.2900 C   0  0  1  0  0  0  0  0  0  0  0  0
  185.9760  172.4550  138.4600 S   0  0  0  0  0  1  0  0  0  0  0  0
  185.0710  173.1600  135.9690 C   0  0  2  0  0  3  0  0  0  0  0  0
  186.2920  173.3010  135.0640 C   0  0  2  0  0  3  0  0  0  0  0  0
  189.2510  174.9240  137.7370 O   0  0  0  0  0  0  0  0  0  0  0  0
  187.7180  175.0000  135.9740 N   0  0  0  0  0  2  0  0  0  0  0  0
  188.7640  175.5640  136.7650 C   0  0  0  0  0  0  0  0  0  0  0  0
  189.2440  176.9430  136.4750 C   0  0  0  0  0  2  0  0  0  0  0  0
  187.8900  177.6450  138.7320 O   0  0  0  0  0  1  0  0  0  0  0  0
  188.2020  178.1550  137.3410 P   0  0  0  0  0  0  0  0  0  0  0  0
  189.0310  179.6240  137.4510 O   0  0  0  0  0  1  0  0  0  0  0  0
  186.7650  178.3840  136.4800 O   0  0  0  0  0  0  0  0  0  0  0  0
  188.5760  172.7410  134.6250 O   0  0  0  0  0  0  0  0  0  0  0  0
  190.7960  173.0860  135.5280 O   0  0  0  0  0  1  0  0  0  0  0  0
  189.8560  172.2680  134.9070 C   0  0  0  0  0  0  0  0  0  0  0  0
  190.1650  171.0870  134.5970 O   0  0  0  0  0  0  0  0  0  0  0  0
  1  5  1  0  0  0  0
  2 20  1  0  0  0  0
  2 23  1  1  0  0  0
  2 19  1  0  0  0  0
  3 12  2  0  0  0  0
  4 17  1  0  0  0  0
  5  6  1  1  0  0  0
  8  4  1  0  0  0  0
  9  8  2  0  0  0  0
  9 14  1  0  0  0  0
 10 12  1  0  0  0  0
 10  7  1  6  0  0  0
 10 20  1  0  0  0  0
 11  9  1  0  0  0  0
 12 15  1  0  0  0  0
 13 11  2  0  0  0  0
 13 18  1  0  0  0  0
 14 17  1  0  0  0  0
 15 16  1  0  0  0  0
 17  3  2  0  0  0  0
 18 24  1  0  0  0  0
 18  8  1  0  0  0  0
 19  1  1  0  0  0  0
 20  7  1  6  0  0  0
 20 21  1  0  0  0  0
 21 16  1  6  0  0  0
 21  5  1  0  0  0  0
 23 22  1  0  0  0  0
 25 24  1  0  0  0  0
 26 29  1  1  0  0  0
 27 40  1  6  0  0  0
 27 28  1  0  0  0  0
 28 33  1  6  0  0  0
 28 26  1  0  0  0  0
 30 25  1  6  0  0  0
 30 26  1  0  0  0  0
 31 27  1  0  0  0  0
 31 30  1  0  0  0  0
 31 28  1  0  0  0  0
 33 34  1  0  0  0  0
 34 32  2  0  0  0  0
 35 34  1  0  0  0  0
 35 37  1  0  0  0  0
 37 38  1  0  0  0  0
 37 36  1  0  0  0  0
 39 37  2  0  0  0  0
 40 42  1  0  0  0  0
 42 41  1  0  0  0  0
 43 42  2  0  0  0  0
M  END
>  <MODEL>
5

>  <REMARK>
 VINA RESULT:      -5.4      2.844      5.152
  Name = 
  9 active torsions:
  status: ('A' for Active; 'I' for Inactive)
    1  A    between atoms: C_4  and  C_28
    2  A    between atoms: C_8  and  O_42
    3  A    between atoms: P_15  and  C_34
    4  A    between atoms: C_18  and  O_42
    5  A    between atoms: N_21  and  C_23
    6  A    between atoms: C_29  and  N_33
    7  A    between atoms: C_29  and  O_38
    8  A    between atoms: C_32  and  C_34
    9  A    between atoms: C_35  and  O_38
                            x       y       z     vdW  Elec       q    Type
                         _______ _______ _______ _____ _____    ______ ____

>  <TORSDO>
F 9

$$$$
=
 OpenBabel11062412233D

 43 49  0  0  1  0  0  0  0  0999 V2000
  187.5460  177.0970  145.1160 C   0  0  0  0  0  2  0  0  0  0  0  0
  187.0460  177.5830  142.7270 C   0  0  1  0  0  3  0  0  0  0  0  0
  182.3160  178.8430  141.9830 C   0  0  0  0  0  0  0  0  0  0  0  0
  180.4190  177.1210  141.1230 S   0  0  0  0  0  0  0  0  0  0  0  0
  186.2240  177.6480  145.6270 C   0  0  1  0  0  3  0  0  0  0  0  0
  186.4320  178.2430  147.0060 C   0  0  0  0  0  1  0  0  0  0  0  0
  185.6960  179.6990  142.3310 C   0  0  0  0  0  2  0  0  0  0  0  0
  180.2070  177.5090  139.4000 C   0  0  0  0  0  0  0  0  0  0  0  0
  180.5370  178.7660  139.0220 C   0  0  0  0  0  0  0  0  0  0  0  0
  184.7150  178.5570  142.1460 C   0  0  2  0  0  3  0  0  0  0  0  0
  180.9670  178.7350  137.7450 N   0  0  0  0  0  0  0  0  0  0  0  0
  183.3880  178.9650  142.7140 C   0  0  0  0  0  0  0  0  0  0  0  0
  180.8660  177.4700  137.3490 N   0  0  0  0  0  0  0  0  0  0  0  0
  181.0420  179.6580  140.0880 C   0  0  0  0  0  2  0  0  0  0  0  0
  183.2730  179.5420  144.0840 C   0  0  0  0  0  2  0  0  0  0  0  0
  184.0690  178.6760  145.0360 C   0  0  0  0  0  2  0  0  0  0  0  0
  181.2470  178.7230  141.2470 C   0  0  0  0  0  0  0  0  0  0  0  0
  180.4310  176.7110  138.3440 N   0  0  0  0  0  0  0  0  0  0  0  0
  187.3410  176.4830  143.7390 C   0  0  0  0  0  2  0  0  0  0  0  0
  185.8460  178.4410  143.1770 C   0  0  1  0  0  0  0  0  0  0  0  0
  185.5640  178.6820  144.6960 C   0  0  2  0  0  3  0  0  0  0  0  0
  189.2540  177.6540  141.7950 O   0  0  0  0  0  1  0  0  0  0  0  0
  188.3040  178.4170  142.4760 C   0  0  0  0  0  2  0  0  0  0  0  0
  180.4590  175.2590  138.3360 C   0  0  0  0  0  2  0  0  0  0  0  0
  181.4890  174.8050  137.4870 O   0  0  0  0  0  0  0  0  0  0  0  0
  182.8070  175.7280  135.6070 C   0  0  2  0  0  3  0  0  0  0  0  0
  184.5890  176.9980  137.0720 C   0  0  1  0  0  3  0  0  0  0  0  0
  184.2340  175.8610  136.1250 C   0  0  1  0  0  0  0  0  0  0  0  0
  182.3500  177.1830  134.6140 S   0  0  0  0  0  1  0  0  0  0  0  0
  182.2950  175.8850  137.0290 C   0  0  2  0  0  3  0  0  0  0  0  0
  183.7230  175.8670  137.5690 C   0  0  2  0  0  3  0  0  0  0  0  0
  186.6380  175.7840  134.5940 O   0  0  0  0  0  0  0  0  0  0  0  0
  185.1140  174.7060  135.9990 N   0  0  0  0  0  2  0  0  0  0  0  0
  186.2860  174.7270  135.1840 C   0  0  0  0  0  0  0  0  0  0  0  0
  187.0650  173.4750  134.9840 C   0  0  0  0  0  2  0  0  0  0  0  0
  188.4740  171.5980  136.3650 O   0  0  0  0  0  0  0  0  0  0  0  0
  187.7540  172.9140  136.5690 P   0  0  0  0  0  0  0  0  0  0  0  0
  188.8440  174.0710  137.1440 O   0  0  0  0  0  1  0  0  0  0  0  0
  186.5040  172.7130  137.6900 O   0  0  0  0  0  1  0  0  0  0  0  0
  185.9090  176.8380  137.5730 O   0  0  0  0  0  0  0  0  0  0  0  0
  187.3050  178.7290  136.9880 O   0  0  0  0  0  0  0  0  0  0  0  0
  186.6830  177.9340  137.9490 C   0  0  0  0  0  0  0  0  0  0  0  0
  186.8200  178.2110  139.1690 O   0  0  0  0  0  1  0  0  0  0  0  0
  1  5  1  0  0  0  0
  2 23  1  1  0  0  0
  2 20  1  0  0  0  0
  2 19  1  0  0  0  0
  3 12  2  0  0  0  0
  4 17  1  0  0  0  0
  5  6  1  1  0  0  0
  8  4  1  0  0  0  0
  9  8  2  0  0  0  0
  9 14  1  0  0  0  0
 10  7  1  6  0  0  0
 10 12  1  0  0  0  0
 10 20  1  0  0  0  0
 11  9  1  0  0  0  0
 12 15  1  0  0  0  0
 13 11  2  0  0  0  0
 13 18  1  0  0  0  0
 14 17  1  0  0  0  0
 15 16  1  0  0  0  0
 17  3  2  0  0  0  0
 18  8  1  0  0  0  0
 19  1  1  0  0  0  0
 20  7  1  6  0  0  0
 20 21  1  0  0  0  0
 21 16  1  6  0  0  0
 21  5  1  0  0  0  0
 22 23  1  0  0  0  0
 24 18  1  0  0  0  0
 25 24  1  0  0  0  0
 26 29  1  6  0  0  0
 26 28  1  0  0  0  0
 26 30  1  0  0  0  0
 27 31  1  0  0  0  0
 27 40  1  1  0  0  0
 28 33  1  6  0  0  0
 28 27  1  0  0  0  0
 28 31  1  0  0  0  0
 30 25  1  1  0  0  0
 30 31  1  0  0  0  0
 32 34  2  0  0  0  0
 34 33  1  0  0  0  0
 35 34  1  0  0  0  0
 35 37  1  0  0  0  0
 36 37  2  0  0  0  0
 37 38  1  0  0  0  0
 37 39  1  0  0  0  0
 40 42  1  0  0  0  0
 41 42  2  0  0  0  0
 42 43  1  0  0  0  0
M  END
>  <MODEL>
6

>  <REMARK>
 VINA RESULT:      -5.4      1.874      2.211
  Name = 
  9 active torsions:
  status: ('A' for Active; 'I' for Inactive)
    1  A    between atoms: C_4  and  C_28
    2  A    between atoms: C_8  and  O_42
    3  A    between atoms: P_15  and  C_34
    4  A    between atoms: C_18  and  O_42
    5  A    between atoms: N_21  and  C_23
    6  A    between atoms: C_29  and  N_33
    7  A    between atoms: C_29  and  O_38
    8  A    between atoms: C_32  and  C_34
    9  A    between atoms: C_35  and  O_38
                            x       y       z     vdW  Elec       q    Type
                         _______ _______ _______ _____ _____    ______ ____

>  <TORSDO>
F 9

$$$$
=
 OpenBabel11062412233D

 43 49  0  0  1  0  0  0  0  0999 V2000
  187.1240  175.6750  135.2610 C   0  0  0  0  0  2  0  0  0  0  0  0
  187.3270  177.5330  136.9030 C   0  0  1  0  0  3  0  0  0  0  0  0
  190.5040  176.5110  140.5620 C   0  0  0  0  0  0  0  0  0  0  0  0
  189.7530  175.6080  142.9950 S   0  0  0  0  0  0  0  0  0  0  0  0
  188.3180  174.9070  135.8050 C   0  0  1  0  0  3  0  0  0  0  0  0
  188.9930  174.1650  134.6670 C   0  0  0  0  0  1  0  0  0  0  0  0
  189.7120  178.1240  137.5530 C   0  0  0  0  0  2  0  0  0  0  0  0
  189.8620  177.0310  144.0570 C   0  0  0  0  0  0  0  0  0  0  0  0
  190.7180  178.0060  143.6690 C   0  0  0  0  0  0  0  0  0  0  0  0
  189.1560  177.3470  138.7310 C   0  0  2  0  0  3  0  0  0  0  0  0
  190.2470  179.1920  144.1020 N   0  0  0  0  0  0  0  0  0  0  0  0
  190.2410  176.4710  139.2860 C   0  0  0  0  0  0  0  0  0  0  0  0
  189.1300  178.9270  144.7730 N   0  0  0  0  0  0  0  0  0  0  0  0
  191.4490  177.7700  142.4060 C   0  0  0  0  0  2  0  0  0  0  0  0
  191.0510  175.5830  138.4030 C   0  0  0  0  0  2  0  0  0  0  0  0
  190.1090  174.8300  137.4890 C   0  0  0  0  0  2  0  0  0  0  0  0
  190.7660  176.5580  141.8380 C   0  0  0  0  0  0  0  0  0  0  0  0
  188.8700  177.6290  144.7360 N   0  0  0  0  0  0  0  0  0  0  0  0
  186.4320  176.4080  136.4010 C   0  0  0  0  0  2  0  0  0  0  0  0
  188.7170  176.9970  137.3020 C   0  0  1  0  0  0  0  0  0  0  0  0
  189.3450  175.7760  136.5550 C   0  0  2  0  0  3  0  0  0  0  0  0
  187.1790  179.8860  136.4670 O   0  0  0  0  0  1  0  0  0  0  0  0
  187.4040  178.6490  135.8600 C   0  0  0  0  0  2  0  0  0  0  0  0
  187.6050  177.0370  145.1350 C   0  0  0  0  0  2  0  0  0  0  0  0
  186.8110  176.7940  143.9950 O   0  0  0  0  0  0  0  0  0  0  0  0
  184.9440  178.3030  143.3960 C   0  0  2  0  0  3  0  0  0  0  0  0
  185.9840  179.2070  141.1510 C   0  0  1  0  0  3  0  0  0  0  0  0
  184.9360  178.3720  141.8740 C   0  0  1  0  0  0  0  0  0  0  0  0
  184.6500  179.9500  144.1110 S   0  0  0  0  0  1  0  0  0  0  0  0
  186.4340  178.0090  143.3570 C   0  0  2  0  0  3  0  0  0  0  0  0
  186.4020  177.9280  141.8330 C   0  0  2  0  0  3  0  0  0  0  0  0
  182.2000  178.6110  141.1070 O   0  0  0  0  0  0  0  0  0  0  0  0
  184.1740  177.3610  141.1510 N   0  0  0  0  0  2  0  0  0  0  0  0
  182.7940  177.5340  140.8300 C   0  0  0  0  0  0  0  0  0  0  0  0
  182.0350  176.4090  140.2170 C   0  0  0  0  0  2  0  0  0  0  0  0
  179.5040  175.6550  139.5540 O   0  0  0  0  0  1  0  0  0  0  0  0
  180.2630  176.8090  140.1720 P   0  0  0  0  0  0  0  0  0  0  0  0
  179.7100  177.0690  141.7480 O   0  0  0  0  0  1  0  0  0  0  0  0
  180.0220  178.2090  139.2550 O   0  0  0  0  0  0  0  0  0  0  0  0
  185.9130  178.9950  139.7480 O   0  0  0  0  0  0  0  0  0  0  0  0
  184.1800  180.5870  139.1790 O   0  0  0  0  0  1  0  0  0  0  0  0
  184.7790  179.3400  139.0160 C   0  0  0  0  0  0  0  0  0  0  0  0
  184.2930  178.5170  138.1970 O   0  0  0  0  0  0  0  0  0  0  0  0
  1  5  1  0  0  0  0
  1 19  1  0  0  0  0
  2 23  1  6  0  0  0
  2 20  1  0  0  0  0
  3 17  2  0  0  0  0
  4  8  1  0  0  0  0
  5  6  1  6  0  0  0
  5 21  1  0  0  0  0
  8 18  1  0  0  0  0
  9  8  2  0  0  0  0
  9 11  1  0  0  0  0
 10  7  1  6  0  0  0
 10 12  1  0  0  0  0
 11 13  2  0  0  0  0
 12  3  2  0  0  0  0
 14  9  1  0  0  0  0
 15 12  1  0  0  0  0
 16 15  1  0  0  0  0
 17 14  1  0  0  0  0
 17  4  1  0  0  0  0
 18 13  1  0  0  0  0
 18 24  1  0  0  0  0
 19  2  1  0  0  0  0
 20  7  1  6  0  0  0
 20 10  1  0  0  0  0
 21 20  1  0  0  0  0
 21 16  1  1  0  0  0
 23 22  1  0  0  0  0
 25 24  1  0  0  0  0
 26 29  1  1  0  0  0
 27 40  1  6  0  0  0
 27 31  1  0  0  0  0
 27 28  1  0  0  0  0
 28 33  1  6  0  0  0
 28 26  1  0  0  0  0
 30 26  1  0  0  0  0
 30 25  1  1  0  0  0
 31 28  1  0  0  0  0
 31 30  1  0  0  0  0
 34 32  2  0  0  0  0
 34 33  1  0  0  0  0
 35 34  1  0  0  0  0
 36 37  1  0  0  0  0
 37 35  1  0  0  0  0
 37 38  1  0  0  0  0
 39 37  2  0  0  0  0
 42 41  1  0  0  0  0
 42 40  1  0  0  0  0
 43 42  2  0  0  0  0
M  END
>  <MODEL>
7

>  <REMARK>
 VINA RESULT:      -5.3      4.380      8.239
  Name = 
  9 active torsions:
  status: ('A' for Active; 'I' for Inactive)
    1  A    between atoms: C_4  and  C_28
    2  A    between atoms: C_8  and  O_42
    3  A    between atoms: P_15  and  C_34
    4  A    between atoms: C_18  and  O_42
    5  A    between atoms: N_21  and  C_23
    6  A    between atoms: C_29  and  N_33
    7  A    between atoms: C_29  and  O_38
    8  A    between atoms: C_32  and  C_34
    9  A    between atoms: C_35  and  O_38
                            x       y       z     vdW  Elec       q    Type
                         _______ _______ _______ _____ _____    ______ ____

>  <TORSDO>
F 9

$$$$
