=
 OpenBabel11062417173D

 26 28  0  0  1  0  0  0  0  0999 V2000
  186.9240  177.9360  142.1890 N   0  0  0  0  0  2  0  0  0  0  0  0
  185.8800  179.8540  141.3540 O   0  0  0  0  0  0  0  0  0  0  0  0
  185.7670  178.7140  141.8800 C   0  0  0  0  0  0  0  0  0  0  0  0
  188.8220  177.2790  138.3090 C   0  0  0  0  0  3  0  0  0  0  0  0
  189.9230  176.4400  138.5530 C   0  0  0  0  0  3  0  0  0  0  0  0
  190.4100  176.2960  139.8190 N   0  0  0  0  0  0  0  0  0  0  0  0
  188.2260  177.9650  139.3760 C   0  0  0  0  0  3  0  0  0  0  0  0
  190.2470  176.9020  142.2710 C   0  0  1  0  0  3  0  0  0  0  0  0
  189.2420  177.8290  142.9760 C   0  0  0  0  0  2  0  0  0  0  0  0
  188.2780  178.3920  141.9150 C   0  0  1  0  0  3  0  0  0  0  0  0
  189.8350  176.9700  140.8500 C   0  0  0  0  0  0  0  0  0  0  0  0
  188.7560  177.7880  140.6540 C   0  0  0  0  0  0  0  0  0  0  0  0
  191.9090  178.1830  143.4630 N   0  0  0  0  0  2  0  0  0  0  0  0
  191.6280  177.4460  142.4530 C   0  0  0  0  0  3  0  0  0  0  0  0
  184.4120  178.1480  142.1370 C   0  0  0  0  0  2  0  0  0  0  0  0
  183.9360  178.4860  143.5460 C   0  0  2  0  0  3  0  0  0  0  0  0
  182.5030  178.9860  143.5070 C   0  0  0  0  0  1  0  0  0  0  0  0
  184.8480  179.4920  144.2510 C   0  0  0  0  0  2  0  0  0  0  0  0
  185.2630  179.0300  145.6440 C   0  0  0  0  0  2  0  0  0  0  0  0
  186.0340  177.7220  145.5670 C   0  0  0  0  0  2  0  0  0  0  0  0
  187.1430  178.2600  147.7500 C   0  0  0  0  0  3  0  0  0  0  0  0
  188.4580  177.2480  145.9840 C   0  0  0  0  0  3  0  0  0  0  0  0
  187.2380  177.7500  146.4490 C   0  0  0  0  0  0  0  0  0  0  0  0
  189.4880  177.7750  148.1110 C   0  0  0  0  0  3  0  0  0  0  0  0
  189.5830  177.2630  146.8130 C   0  0  0  0  0  3  0  0  0  0  0  0
  188.2690  178.2740  148.5790 C   0  0  0  0  0  3  0  0  0  0  0  0
  2  3  2  0  0  0  0
  3 15  1  0  0  0  0
  3  1  1  0  0  0  0
  4  5  2  0  0  0  0
  4  7  1  0  0  0  0
  5  6  1  0  0  0  0
  6 11  2  0  0  0  0
  7 12  2  0  0  0  0
  8 14  1  6  0  0  0
  8  9  1  0  0  0  0
 10  1  1  1  0  0  0
 10  9  1  0  0  0  0
 11  8  1  0  0  0  0
 12 11  1  0  0  0  0
 12 10  1  0  0  0  0
 14 13  2  0  0  0  0
 15 16  1  0  0  0  0
 16 17  1  6  0  0  0
 16 18  1  0  0  0  0
 18 19  1  0  0  0  0
 20 19  1  0  0  0  0
 20 23  1  0  0  0  0
 21 26  1  0  0  0  0
 22 23  1  0  0  0  0
 22 25  2  0  0  0  0
 23 21  2  0  0  0  0
 24 26  2  0  0  0  0
 25 24  1  0  0  0  0
M  END
>  <MODEL>
1

>  <REMARK>
 VINA RESULT:      -8.8      0.000      0.000
  Name = 
  8 active torsions:
  status: ('A' for Active; 'I' for Inactive)
    1  A    between atoms: C_1  and  C_12
    2  A    between atoms: C_1  and  C_22
    3  A    between atoms: C_7  and  C_18
    4  A    between atoms: N_8  and  C_21
    5  A    between atoms: C_9  and  C_12
    6  A    between atoms: C_9  and  C_17
    7  A    between atoms: C_15  and  C_23
    8  A    between atoms: C_18  and  C_22
                            x       y       z     vdW  Elec       q    Type
                         _______ _______ _______ _____ _____    ______ ____

>  <TORSDO>
F 8

$$$$
=
 OpenBabel11062417173D

 26 28  0  0  1  0  0  0  0  0999 V2000
  187.0970  177.9990  142.1370 N   0  0  0  0  0  2  0  0  0  0  0  0
  188.8060  178.5460  140.6390 O   0  0  0  0  0  0  0  0  0  0  0  0
  188.3990  177.8150  141.5810 C   0  0  0  0  0  0  0  0  0  0  0  0
  183.6670  179.2670  144.5280 C   0  0  0  0  0  3  0  0  0  0  0  0
  182.5260  178.9210  143.7840 C   0  0  0  0  0  3  0  0  0  0  0  0
  182.6310  178.6490  142.4510 N   0  0  0  0  0  0  0  0  0  0  0  0
  184.9140  179.3280  143.8930 C   0  0  0  0  0  3  0  0  0  0  0  0
  184.1080  178.4390  140.4070 C   0  0  1  0  0  3  0  0  0  0  0  0
  185.6270  178.6410  140.2830 C   0  0  0  0  0  2  0  0  0  0  0  0
  186.1780  179.0260  141.6690 C   0  0  1  0  0  3  0  0  0  0  0  0
  183.8420  178.7180  141.8360 C   0  0  0  0  0  0  0  0  0  0  0  0
  184.9750  179.0410  142.5290 C   0  0  0  0  0  0  0  0  0  0  0  0
  184.0550  180.3990  139.0000 N   0  0  0  0  0  2  0  0  0  0  0  0
  183.4080  179.4270  139.5300 C   0  0  0  0  0  3  0  0  0  0  0  0
  189.3020  176.7790  142.1590 C   0  0  0  0  0  2  0  0  0  0  0  0
  190.6290  177.3900  142.5960 C   0  0  2  0  0  3  0  0  0  0  0  0
  191.6100  177.3950  141.4370 C   0  0  0  0  0  1  0  0  0  0  0  0
  191.2270  176.6900  143.8180 C   0  0  0  0  0  2  0  0  0  0  0  0
  191.3510  177.6170  145.0230 C   0  0  0  0  0  2  0  0  0  0  0  0
  190.8720  176.9190  146.2860 C   0  0  0  0  0  2  0  0  0  0  0  0
  188.4660  177.3520  145.7310 C   0  0  0  0  0  3  0  0  0  0  0  0
  189.2530  177.8100  147.9770 C   0  0  0  0  0  3  0  0  0  0  0  0
  189.5040  177.3760  146.6700 C   0  0  0  0  0  0  0  0  0  0  0  0
  186.9340  178.2040  147.4020 C   0  0  0  0  0  3  0  0  0  0  0  0
  187.9690  178.2250  148.3420 C   0  0  0  0  0  3  0  0  0  0  0  0
  187.1820  177.7670  146.0970 C   0  0  0  0  0  3  0  0  0  0  0  0
  2  3  2  0  0  0  0
  3  1  1  0  0  0  0
  3 15  1  0  0  0  0
  5  4  2  0  0  0  0
  6  5  1  0  0  0  0
  7  4  1  0  0  0  0
  8 14  1  6  0  0  0
  8 11  1  0  0  0  0
  9  8  1  0  0  0  0
  9 10  1  0  0  0  0
 10  1  1  1  0  0  0
 10 12  1  0  0  0  0
 11  6  2  0  0  0  0
 11 12  1  0  0  0  0
 12  7  2  0  0  0  0
 13 14  2  0  0  0  0
 15 16  1  0  0  0  0
 16 17  1  6  0  0  0
 16 18  1  0  0  0  0
 18 19  1  0  0  0  0
 19 20  1  0  0  0  0
 20 23  1  0  0  0  0
 21 26  2  0  0  0  0
 21 23  1  0  0  0  0
 22 25  1  0  0  0  0
 23 22  2  0  0  0  0
 24 25  2  0  0  0  0
 26 24  1  0  0  0  0
M  END
>  <MODEL>
2

>  <REMARK>
 VINA RESULT:      -8.7      1.946      5.852
  Name = 
  8 active torsions:
  status: ('A' for Active; 'I' for Inactive)
    1  A    between atoms: C_1  and  C_12
    2  A    between atoms: C_1  and  C_22
    3  A    between atoms: C_7  and  C_18
    4  A    between atoms: N_8  and  C_21
    5  A    between atoms: C_9  and  C_12
    6  A    between atoms: C_9  and  C_17
    7  A    between atoms: C_15  and  C_23
    8  A    between atoms: C_18  and  C_22
                            x       y       z     vdW  Elec       q    Type
                         _______ _______ _______ _____ _____    ______ ____

>  <TORSDO>
F 8

$$$$
=
 OpenBabel11062417173D

 26 28  0  0  1  0  0  0  0  0999 V2000
  189.7400  177.5530  143.6800 N   0  0  0  0  0  2  0  0  0  0  0  0
  187.8520  176.5320  142.7530 O   0  0  0  0  0  0  0  0  0  0  0  0
  188.6880  177.4730  142.7170 C   0  0  0  0  0  0  0  0  0  0  0  0
  187.5570  177.8910  147.4500 C   0  0  0  0  0  3  0  0  0  0  0  0
  188.5310  178.0800  148.4460 C   0  0  0  0  0  3  0  0  0  0  0  0
  189.8370  177.7750  148.1970 N   0  0  0  0  0  0  0  0  0  0  0  0
  187.9380  177.3900  146.1980 C   0  0  0  0  0  3  0  0  0  0  0  0
  191.5760  176.9200  146.5690 C   0  0  1  0  0  3  0  0  0  0  0  0
  191.3970  176.4560  145.1140 C   0  0  0  0  0  2  0  0  0  0  0  0
  189.9060  176.5780  144.7480 C   0  0  1  0  0  3  0  0  0  0  0  0
  190.2020  177.2820  146.9830 C   0  0  0  0  0  0  0  0  0  0  0  0
  189.2850  177.0930  145.9870 C   0  0  0  0  0  0  0  0  0  0  0  0
  192.9570  175.9920  148.3170 N   0  0  0  0  0  2  0  0  0  0  0  0
  192.0990  175.7830  147.3870 C   0  0  0  0  0  3  0  0  0  0  0  0
  188.5520  178.5470  141.6910 C   0  0  0  0  0  2  0  0  0  0  0  0
  188.1880  177.9610  140.3300 C   0  0  2  0  0  3  0  0  0  0  0  0
  189.2180  178.3700  139.2920 C   0  0  0  0  0  1  0  0  0  0  0  0
  186.7760  178.3440  139.8820 C   0  0  0  0  0  2  0  0  0  0  0  0
  186.0230  179.1440  140.9400 C   0  0  0  0  0  2  0  0  0  0  0  0
  184.6470  178.5470  141.1830 C   0  0  0  0  0  2  0  0  0  0  0  0
  182.8890  178.7530  142.9590 C   0  0  0  0  0  3  0  0  0  0  0  0
  185.2220  178.7160  143.6160 C   0  0  0  0  0  3  0  0  0  0  0  0
  184.2440  178.6810  142.6150 C   0  0  0  0  0  0  0  0  0  0  0  0
  183.4920  178.9030  145.3000 C   0  0  0  0  0  3  0  0  0  0  0  0
  184.8450  178.8280  144.9570 C   0  0  0  0  0  3  0  0  0  0  0  0
  182.5140  178.8650  144.3020 C   0  0  0  0  0  3  0  0  0  0  0  0
  3  2  2  0  0  0  0
  3  1  1  0  0  0  0
  4  5  1  0  0  0  0
  6  5  2  0  0  0  0
  7  4  2  0  0  0  0
  8 11  1  0  0  0  0
  8 14  1  1  0  0  0
  9  8  1  0  0  0  0
 10  1  1  6  0  0  0
 10  9  1  0  0  0  0
 10 12  1  0  0  0  0
 11  6  1  0  0  0  0
 12  7  1  0  0  0  0
 12 11  2  0  0  0  0
 14 13  2  0  0  0  0
 15  3  1  0  0  0  0
 16 17  1  6  0  0  0
 16 15  1  0  0  0  0
 18 16  1  0  0  0  0
 18 19  1  0  0  0  0
 19 20  1  0  0  0  0
 20 23  1  0  0  0  0
 21 26  1  0  0  0  0
 22 25  2  0  0  0  0
 23 21  2  0  0  0  0
 23 22  1  0  0  0  0
 25 24  1  0  0  0  0
 26 24  2  0  0  0  0
M  END
>  <MODEL>
3

>  <REMARK>
 VINA RESULT:      -8.7      2.131      5.891
  Name = 
  8 active torsions:
  status: ('A' for Active; 'I' for Inactive)
    1  A    between atoms: C_1  and  C_12
    2  A    between atoms: C_1  and  C_22
    3  A    between atoms: C_7  and  C_18
    4  A    between atoms: N_8  and  C_21
    5  A    between atoms: C_9  and  C_12
    6  A    between atoms: C_9  and  C_17
    7  A    between atoms: C_15  and  C_23
    8  A    between atoms: C_18  and  C_22
                            x       y       z     vdW  Elec       q    Type
                         _______ _______ _______ _____ _____    ______ ____

>  <TORSDO>
F 8

$$$$
=
 OpenBabel11062417173D

 26 28  0  0  1  0  0  0  0  0999 V2000
  190.0990  177.7220  141.3270 N   0  0  0  0  0  2  0  0  0  0  0  0
  190.5100  175.7210  142.4620 O   0  0  0  0  0  0  0  0  0  0  0  0
  190.7610  176.9480  142.3280 C   0  0  0  0  0  0  0  0  0  0  0  0
  191.3000  175.8530  137.5650 C   0  0  0  0  0  3  0  0  0  0  0  0
  190.7370  176.6390  136.5440 C   0  0  0  0  0  3  0  0  0  0  0  0
  189.7190  177.5030  136.8250 N   0  0  0  0  0  0  0  0  0  0  0  0
  190.8110  175.9660  138.8730 C   0  0  0  0  0  3  0  0  0  0  0  0
  188.1570  178.5040  138.5460 C   0  0  1  0  0  3  0  0  0  0  0  0
  188.0640  178.2180  140.0540 C   0  0  0  0  0  2  0  0  0  0  0  0
  189.1210  177.1560  140.4100 C   0  0  1  0  0  3  0  0  0  0  0  0
  189.2420  177.6040  138.0940 C   0  0  0  0  0  0  0  0  0  0  0  0
  189.7710  176.8640  139.1150 C   0  0  0  0  0  0  0  0  0  0  0  0
  185.7620  178.6720  138.2970 N   0  0  0  0  0  2  0  0  0  0  0  0
  186.8590  178.1430  137.8970 C   0  0  0  0  0  3  0  0  0  0  0  0
  191.7950  177.5920  143.1880 C   0  0  0  0  0  2  0  0  0  0  0  0
  191.2640  177.8300  144.5980 C   0  0  2  0  0  3  0  0  0  0  0  0
  191.4300  176.5760  145.4380 C   0  0  0  0  0  1  0  0  0  0  0  0
  189.8110  178.3070  144.6080 C   0  0  0  0  0  2  0  0  0  0  0  0
  188.8710  177.3120  145.2810 C   0  0  0  0  0  2  0  0  0  0  0  0
  187.7630  176.8940  144.3280 C   0  0  0  0  0  2  0  0  0  0  0  0
  185.7050  178.1010  143.5560 C   0  0  0  0  0  3  0  0  0  0  0  0
  186.0940  177.8480  145.9350 C   0  0  0  0  0  3  0  0  0  0  0  0
  186.4980  177.6360  144.6120 C   0  0  0  0  0  0  0  0  0  0  0  0
  184.1140  178.9980  145.1460 C   0  0  0  0  0  3  0  0  0  0  0  0
  184.9030  178.5300  146.2020 C   0  0  0  0  0  3  0  0  0  0  0  0
  184.5140  178.7830  143.8240 C   0  0  0  0  0  3  0  0  0  0  0  0
  1  3  1  0  0  0  0
  3  2  2  0  0  0  0
  3 15  1  0  0  0  0
  4  7  1  0  0  0  0
  5  6  1  0  0  0  0
  5  4  2  0  0  0  0
  6 11  2  0  0  0  0
  7 12  2  0  0  0  0
  8 14  1  6  0  0  0
  8  9  1  0  0  0  0
  9 10  1  0  0  0  0
 10  1  1  1  0  0  0
 11  8  1  0  0  0  0
 11 12  1  0  0  0  0
 12 10  1  0  0  0  0
 14 13  2  0  0  0  0
 15 16  1  0  0  0  0
 16 18  1  0  0  0  0
 16 17  1  1  0  0  0
 18 19  1  0  0  0  0
 20 23  1  0  0  0  0
 20 19  1  0  0  0  0
 21 26  2  0  0  0  0
 21 23  1  0  0  0  0
 22 25  1  0  0  0  0
 23 22  2  0  0  0  0
 24 25  2  0  0  0  0
 26 24  1  0  0  0  0
M  END
>  <MODEL>
4

>  <REMARK>
 VINA RESULT:      -8.3      2.116      4.994
  Name = 
  8 active torsions:
  status: ('A' for Active; 'I' for Inactive)
    1  A    between atoms: C_1  and  C_12
    2  A    between atoms: C_1  and  C_22
    3  A    between atoms: C_7  and  C_18
    4  A    between atoms: N_8  and  C_21
    5  A    between atoms: C_9  and  C_12
    6  A    between atoms: C_9  and  C_17
    7  A    between atoms: C_15  and  C_23
    8  A    between atoms: C_18  and  C_22
                            x       y       z     vdW  Elec       q    Type
                         _______ _______ _______ _____ _____    ______ ____

>  <TORSDO>
F 8

$$$$
=
 OpenBabel11062417173D

 26 28  0  0  1  0  0  0  0  0999 V2000
  189.1210  177.4580  142.1080 N   0  0  0  0  0  2  0  0  0  0  0  0
  190.7650  178.6740  143.2410 O   0  0  0  0  0  0  0  0  0  0  0  0
  190.0250  177.6550  143.1950 C   0  0  0  0  0  0  0  0  0  0  0  0
  185.2280  179.0140  140.8780 C   0  0  0  0  0  3  0  0  0  0  0  0
  185.0260  178.5610  139.5630 C   0  0  0  0  0  3  0  0  0  0  0  0
  186.0800  178.1100  138.8230 N   0  0  0  0  0  0  0  0  0  0  0  0
  186.5170  178.9980  141.4260 C   0  0  0  0  0  3  0  0  0  0  0  0
  188.5620  177.6340  138.6770 C   0  0  1  0  0  3  0  0  0  0  0  0
  189.6510  177.8290  139.7450 C   0  0  0  0  0  2  0  0  0  0  0  0
  188.9890  178.4040  141.0110 C   0  0  1  0  0  3  0  0  0  0  0  0
  187.3320  178.1040  139.3540 C   0  0  0  0  0  0  0  0  0  0  0  0
  187.5650  178.5280  140.6330 C   0  0  0  0  0  0  0  0  0  0  0  0
  189.0470  179.7520  137.6260 N   0  0  0  0  0  2  0  0  0  0  0  0
  188.8780  178.4880  137.4910 C   0  0  0  0  0  3  0  0  0  0  0  0
  190.0550  176.6670  144.3120 C   0  0  0  0  0  2  0  0  0  0  0  0
  190.9730  177.1380  145.4360 C   0  0  2  0  0  3  0  0  0  0  0  0
  191.8910  176.0100  145.8680 C   0  0  0  0  0  1  0  0  0  0  0  0
  190.2000  177.7040  146.6290 C   0  0  0  0  0  2  0  0  0  0  0  0
  189.1220  176.7510  147.1340 C   0  0  0  0  0  2  0  0  0  0  0  0
  187.9610  177.5270  147.7360 C   0  0  0  0  0  2  0  0  0  0  0  0
  185.9600  178.8290  146.9690 C   0  0  0  0  0  3  0  0  0  0  0  0
  186.9830  177.2450  145.4460 C   0  0  0  0  0  3  0  0  0  0  0  0
  186.9430  177.8690  146.6980 C   0  0  0  0  0  0  0  0  0  0  0  0
  185.0550  178.5300  144.7430 C   0  0  0  0  0  3  0  0  0  0  0  0
  186.0390  177.5740  144.4700 C   0  0  0  0  0  3  0  0  0  0  0  0
  185.0160  179.1580  145.9910 C   0  0  0  0  0  3  0  0  0  0  0  0
  1  3  1  0  0  0  0
  3  2  2  0  0  0  0
  3 15  1  0  0  0  0
  4  7  1  0  0  0  0
  5  4  2  0  0  0  0
  6 11  2  0  0  0  0
  6  5  1  0  0  0  0
  8 14  1  6  0  0  0
  8 11  1  0  0  0  0
  8  9  1  0  0  0  0
  9 10  1  0  0  0  0
 10  1  1  1  0  0  0
 11 12  1  0  0  0  0
 12 10  1  0  0  0  0
 12  7  2  0  0  0  0
 14 13  2  0  0  0  0
 15 16  1  0  0  0  0
 16 17  1  1  0  0  0
 16 18  1  0  0  0  0
 18 19  1  0  0  0  0
 19 20  1  0  0  0  0
 22 23  2  0  0  0  0
 23 21  1  0  0  0  0
 23 20  1  0  0  0  0
 24 26  1  0  0  0  0
 25 24  2  0  0  0  0
 25 22  1  0  0  0  0
 26 21  2  0  0  0  0
M  END
>  <MODEL>
5

>  <REMARK>
 VINA RESULT:      -8.2      2.008      4.777
  Name = 
  8 active torsions:
  status: ('A' for Active; 'I' for Inactive)
    1  A    between atoms: C_1  and  C_12
    2  A    between atoms: C_1  and  C_22
    3  A    between atoms: C_7  and  C_18
    4  A    between atoms: N_8  and  C_21
    5  A    between atoms: C_9  and  C_12
    6  A    between atoms: C_9  and  C_17
    7  A    between atoms: C_15  and  C_23
    8  A    between atoms: C_18  and  C_22
                            x       y       z     vdW  Elec       q    Type
                         _______ _______ _______ _____ _____    ______ ____

>  <TORSDO>
F 8

$$$$
=
 OpenBabel11062417173D

 26 28  0  0  1  0  0  0  0  0999 V2000
  186.9370  178.3520  142.2190 N   0  0  0  0  0  2  0  0  0  0  0  0
  184.8400  178.2400  141.1910 O   0  0  0  0  0  0  0  0  0  0  0  0
  185.5510  178.6840  142.1320 C   0  0  0  0  0  0  0  0  0  0  0  0
  190.6370  176.2460  143.2010 C   0  0  0  0  0  3  0  0  0  0  0  0
  191.6190  176.7630  142.3380 C   0  0  0  0  0  3  0  0  0  0  0  0
  191.2550  177.4500  141.2170 N   0  0  0  0  0  0  0  0  0  0  0  0
  189.2820  176.4420  142.9030 C   0  0  0  0  0  3  0  0  0  0  0  0
  189.3990  178.3640  139.7580 C   0  0  1  0  0  3  0  0  0  0  0  0
  187.8760  178.2760  139.9570 C   0  0  0  0  0  2  0  0  0  0  0  0
  187.6030  177.4910  141.2540 C   0  0  1  0  0  3  0  0  0  0  0  0
  189.9390  177.6320  140.9270 C   0  0  0  0  0  0  0  0  0  0  0  0
  188.9560  177.1520  141.7470 C   0  0  0  0  0  0  0  0  0  0  0  0
  188.8580  177.2520  137.6850 N   0  0  0  0  0  2  0  0  0  0  0  0
  189.7680  177.6780  138.4820 C   0  0  0  0  0  3  0  0  0  0  0  0
  184.9300  179.5250  143.1970 C   0  0  0  0  0  2  0  0  0  0  0  0
  183.9190  178.7220  144.0090 C   0  0  2  0  0  3  0  0  0  0  0  0
  182.5110  179.0000  143.5130 C   0  0  0  0  0  1  0  0  0  0  0  0
  184.0320  178.9810  145.5120 C   0  0  0  0  0  2  0  0  0  0  0  0
  185.4790  179.0640  145.9860 C   0  0  0  0  0  2  0  0  0  0  0  0
  186.1370  177.6940  145.9370 C   0  0  0  0  0  2  0  0  0  0  0  0
  188.5750  177.1340  146.1120 C   0  0  0  0  0  3  0  0  0  0  0  0
  187.4910  178.2500  147.9700 C   0  0  0  0  0  3  0  0  0  0  0  0
  187.4260  177.6860  146.6910 C   0  0  0  0  0  0  0  0  0  0  0  0
  189.8460  177.6990  148.0940 C   0  0  0  0  0  3  0  0  0  0  0  0
  188.7000  178.2550  148.6720 C   0  0  0  0  0  3  0  0  0  0  0  0
  189.7840  177.1390  146.8150 C   0  0  0  0  0  3  0  0  0  0  0  0
  2  3  2  0  0  0  0
  3  1  1  0  0  0  0
  3 15  1  0  0  0  0
  5  4  2  0  0  0  0
  6  5  1  0  0  0  0
  7  4  1  0  0  0  0
  8 14  1  6  0  0  0
  8  9  1  0  0  0  0
  8 11  1  0  0  0  0
  9 10  1  0  0  0  0
 10 12  1  0  0  0  0
 10  1  1  1  0  0  0
 11  6  2  0  0  0  0
 11 12  1  0  0  0  0
 12  7  2  0  0  0  0
 13 14  2  0  0  0  0
 15 16  1  0  0  0  0
 16 17  1  6  0  0  0
 16 18  1  0  0  0  0
 18 19  1  0  0  0  0
 20 19  1  0  0  0  0
 20 23  1  0  0  0  0
 21 23  2  0  0  0  0
 21 26  1  0  0  0  0
 22 25  2  0  0  0  0
 23 22  1  0  0  0  0
 24 25  1  0  0  0  0
 26 24  2  0  0  0  0
M  END
>  <MODEL>
6

>  <REMARK>
 VINA RESULT:      -8.1      1.078      2.681
  Name = 
  8 active torsions:
  status: ('A' for Active; 'I' for Inactive)
    1  A    between atoms: C_1  and  C_12
    2  A    between atoms: C_1  and  C_22
    3  A    between atoms: C_7  and  C_18
    4  A    between atoms: N_8  and  C_21
    5  A    between atoms: C_9  and  C_12
    6  A    between atoms: C_9  and  C_17
    7  A    between atoms: C_15  and  C_23
    8  A    between atoms: C_18  and  C_22
                            x       y       z     vdW  Elec       q    Type
                         _______ _______ _______ _____ _____    ______ ____

>  <TORSDO>
F 8

$$$$
=
 OpenBabel11062417173D

 26 28  0  0  1  0  0  0  0  0999 V2000
  189.7530  176.8930  141.4930 N   0  0  0  0  0  2  0  0  0  0  0  0
  191.8020  177.3890  142.5030 O   0  0  0  0  0  0  0  0  0  0  0  0
  190.6400  176.9150  142.6120 C   0  0  0  0  0  0  0  0  0  0  0  0
  186.7370  178.1770  138.6040 C   0  0  0  0  0  3  0  0  0  0  0  0
  186.8640  177.3140  137.5020 C   0  0  0  0  0  3  0  0  0  0  0  0
  187.9960  176.5710  137.3370 N   0  0  0  0  0  0  0  0  0  0  0  0
  187.7810  178.2670  139.5350 C   0  0  0  0  0  3  0  0  0  0  0  0
  190.2870  175.9170  138.1940 C   0  0  1  0  0  3  0  0  0  0  0  0
  191.0230  176.3970  139.4560 C   0  0  0  0  0  2  0  0  0  0  0  0
  190.1220  177.4120  140.1840 C   0  0  1  0  0  3  0  0  0  0  0  0
  189.0110  176.6680  138.2370 C   0  0  0  0  0  0  0  0  0  0  0  0
  188.9200  177.4880  139.3270 C   0  0  0  0  0  0  0  0  0  0  0  0
  192.3640  176.3650  137.0490 N   0  0  0  0  0  2  0  0  0  0  0  0
  191.0850  176.2920  136.9860 C   0  0  0  0  0  3  0  0  0  0  0  0
  190.1630  176.4180  143.9340 C   0  0  0  0  0  2  0  0  0  0  0  0
  190.5900  177.3560  145.0590 C   0  0  2  0  0  3  0  0  0  0  0  0
  191.6040  176.6700  145.9560 C   0  0  0  0  0  1  0  0  0  0  0  0
  189.4040  177.8790  145.8720 C   0  0  0  0  0  2  0  0  0  0  0  0
  188.0610  177.4350  145.3020 C   0  0  0  0  0  2  0  0  0  0  0  0
  186.9200  178.1740  145.9830 C   0  0  0  0  0  2  0  0  0  0  0  0
  184.5130  178.7280  145.5570 C   0  0  0  0  0  3  0  0  0  0  0  0
  185.9430  178.1890  143.6760 C   0  0  0  0  0  3  0  0  0  0  0  0
  185.7670  178.3610  145.0540 C   0  0  0  0  0  0  0  0  0  0  0  0
  183.6140  178.7410  143.3080 C   0  0  0  0  0  3  0  0  0  0  0  0
  184.8670  178.3770  142.8040 C   0  0  0  0  0  3  0  0  0  0  0  0
  183.4370  178.9160  144.6840 C   0  0  0  0  0  3  0  0  0  0  0  0
  1  3  1  0  0  0  0
  2  3  2  0  0  0  0
  3 15  1  0  0  0  0
  4  7  1  0  0  0  0
  5  4  2  0  0  0  0
  6  5  1  0  0  0  0
  6 11  2  0  0  0  0
  8 14  1  6  0  0  0
  8 11  1  0  0  0  0
  8  9  1  0  0  0  0
  9 10  1  0  0  0  0
 10  1  1  1  0  0  0
 11 12  1  0  0  0  0
 12  7  2  0  0  0  0
 12 10  1  0  0  0  0
 14 13  2  0  0  0  0
 15 16  1  0  0  0  0
 16 18  1  0  0  0  0
 16 17  1  1  0  0  0
 19 18  1  0  0  0  0
 19 20  1  0  0  0  0
 22 23  2  0  0  0  0
 23 21  1  0  0  0  0
 23 20  1  0  0  0  0
 24 26  1  0  0  0  0
 25 24  2  0  0  0  0
 25 22  1  0  0  0  0
 26 21  2  0  0  0  0
M  END
>  <MODEL>
7

>  <REMARK>
 VINA RESULT:      -8.0      2.036      4.889
  Name = 
  8 active torsions:
  status: ('A' for Active; 'I' for Inactive)
    1  A    between atoms: C_1  and  C_12
    2  A    between atoms: C_1  and  C_22
    3  A    between atoms: C_7  and  C_18
    4  A    between atoms: N_8  and  C_21
    5  A    between atoms: C_9  and  C_12
    6  A    between atoms: C_9  and  C_17
    7  A    between atoms: C_15  and  C_23
    8  A    between atoms: C_18  and  C_22
                            x       y       z     vdW  Elec       q    Type
                         _______ _______ _______ _____ _____    ______ ____

>  <TORSDO>
F 8

$$$$
=
 OpenBabel11062417173D

 26 28  0  0  1  0  0  0  0  0999 V2000
  187.4480  177.8040  145.7530 N   0  0  0  0  0  2  0  0  0  0  0  0
  186.3790  179.1610  147.3280 O   0  0  0  0  0  0  0  0  0  0  0  0
  186.2810  178.3460  146.3720 C   0  0  0  0  0  0  0  0  0  0  0  0
  190.7730  177.8840  142.9200 C   0  0  0  0  0  3  0  0  0  0  0  0
  191.6720  176.8910  143.3490 C   0  0  0  0  0  3  0  0  0  0  0  0
  191.5940  176.3950  144.6170 N   0  0  0  0  0  0  0  0  0  0  0  0
  189.7950  178.3580  143.8040 C   0  0  0  0  0  3  0  0  0  0  0  0
  190.4370  176.4100  146.8680 C   0  0  1  0  0  3  0  0  0  0  0  0
  189.2360  177.2490  147.3350 C   0  0  0  0  0  2  0  0  0  0  0  0
  188.7970  178.1560  146.1700 C   0  0  1  0  0  3  0  0  0  0  0  0
  190.6480  176.8630  145.4740 C   0  0  0  0  0  0  0  0  0  0  0  0
  189.7500  177.8210  145.0900 C   0  0  0  0  0  0  0  0  0  0  0  0
  192.4690  175.8220  148.0300 N   0  0  0  0  0  2  0  0  0  0  0  0
  191.6230  176.7340  147.7190 C   0  0  0  0  0  3  0  0  0  0  0  0
  184.9350  177.9800  145.8450 C   0  0  0  0  0  2  0  0  0  0  0  0
  184.3120  179.1420  145.0790 C   0  0  2  0  0  3  0  0  0  0  0  0
  182.8700  178.8230  144.7260 C   0  0  0  0  0  1  0  0  0  0  0  0
  185.1110  179.5210  143.8300 C   0  0  0  0  0  2  0  0  0  0  0  0
  185.1540  178.3970  142.8000 C   0  0  0  0  0  2  0  0  0  0  0  0
  184.8930  178.9410  141.4040 C   0  0  0  0  0  2  0  0  0  0  0  0
  185.7880  178.4690  139.1110 C   0  0  0  0  0  3  0  0  0  0  0  0
  187.3260  178.5160  140.9840 C   0  0  0  0  0  3  0  0  0  0  0  0
  186.0240  178.6290  140.4820 C   0  0  0  0  0  0  0  0  0  0  0  0
  188.1500  178.0740  138.7500 C   0  0  0  0  0  3  0  0  0  0  0  0
  188.3870  178.2370  140.1190 C   0  0  0  0  0  3  0  0  0  0  0  0
  186.8510  178.1900  138.2460 C   0  0  0  0  0  3  0  0  0  0  0  0
  1  3  1  0  0  0  0
  3  2  2  0  0  0  0
  4  5  2  0  0  0  0
  4  7  1  0  0  0  0
  5  6  1  0  0  0  0
  6 11  2  0  0  0  0
  7 12  2  0  0  0  0
  8  9  1  0  0  0  0
  8 14  1  1  0  0  0
 10  1  1  6  0  0  0
 10  9  1  0  0  0  0
 11  8  1  0  0  0  0
 12 11  1  0  0  0  0
 12 10  1  0  0  0  0
 14 13  2  0  0  0  0
 15  3  1  0  0  0  0
 16 17  1  6  0  0  0
 16 15  1  0  0  0  0
 18 16  1  0  0  0  0
 19 18  1  0  0  0  0
 20 19  1  0  0  0  0
 21 23  1  0  0  0  0
 23 22  2  0  0  0  0
 23 20  1  0  0  0  0
 24 25  2  0  0  0  0
 25 22  1  0  0  0  0
 26 24  1  0  0  0  0
 26 21  2  0  0  0  0
M  END
>  <MODEL>
8

>  <REMARK>
 VINA RESULT:      -8.0      2.149      5.408
  Name = 
  8 active torsions:
  status: ('A' for Active; 'I' for Inactive)
    1  A    between atoms: C_1  and  C_12
    2  A    between atoms: C_1  and  C_22
    3  A    between atoms: C_7  and  C_18
    4  A    between atoms: N_8  and  C_21
    5  A    between atoms: C_9  and  C_12
    6  A    between atoms: C_9  and  C_17
    7  A    between atoms: C_15  and  C_23
    8  A    between atoms: C_18  and  C_22
                            x       y       z     vdW  Elec       q    Type
                         _______ _______ _______ _____ _____    ______ ____

>  <TORSDO>
F 8

$$$$
=
 OpenBabel11062417173D

 26 28  0  0  1  0  0  0  0  0999 V2000
  190.2970  177.5050  140.6760 N   0  0  0  0  0  2  0  0  0  0  0  0
  189.6990  176.0300  142.3890 O   0  0  0  0  0  0  0  0  0  0  0  0
  190.4580  176.9500  141.9820 C   0  0  0  0  0  0  0  0  0  0  0  0
  191.3250  175.2960  137.0500 C   0  0  0  0  0  3  0  0  0  0  0  0
  190.9230  176.1080  135.9740 C   0  0  0  0  0  3  0  0  0  0  0  0
  190.0410  177.1280  136.1760 N   0  0  0  0  0  0  0  0  0  0  0  0
  190.8160  175.5440  138.3310 C   0  0  0  0  0  3  0  0  0  0  0  0
  188.5910  178.4350  137.7880 C   0  0  1  0  0  3  0  0  0  0  0  0
  188.4060  178.2400  139.3020 C   0  0  0  0  0  2  0  0  0  0  0  0
  189.2760  177.0490  139.7460 C   0  0  1  0  0  3  0  0  0  0  0  0
  189.5420  177.3610  137.4190 C   0  0  0  0  0  0  0  0  0  0  0  0
  189.9170  176.5990  138.4910 C   0  0  0  0  0  0  0  0  0  0  0  0
  186.1850  178.2430  137.7770 N   0  0  0  0  0  2  0  0  0  0  0  0
  187.2760  178.2420  137.1030 C   0  0  0  0  0  3  0  0  0  0  0  0
  191.5690  177.4330  142.8520 C   0  0  0  0  0  2  0  0  0  0  0  0
  191.0280  178.1890  144.0620 C   0  0  2  0  0  3  0  0  0  0  0  0
  191.5190  179.6250  144.0420 C   0  0  0  0  0  1  0  0  0  0  0  0
  191.3780  177.5090  145.3870 C   0  0  0  0  0  2  0  0  0  0  0  0
  190.2730  176.5790  145.8780 C   0  0  0  0  0  2  0  0  0  0  0  0
  189.4750  177.2380  146.9920 C   0  0  0  0  0  2  0  0  0  0  0  0
  187.2290  178.2770  147.3940 C   0  0  0  0  0  3  0  0  0  0  0  0
  187.7160  177.3450  145.2110 C   0  0  0  0  0  3  0  0  0  0  0  0
  188.1100  177.6220  146.5250 C   0  0  0  0  0  0  0  0  0  0  0  0
  185.5630  178.3670  145.6390 C   0  0  0  0  0  3  0  0  0  0  0  0
  186.4430  177.7150  144.7690 C   0  0  0  0  0  3  0  0  0  0  0  0
  185.9560  178.6480  146.9510 C   0  0  0  0  0  3  0  0  0  0  0  0
  1  3  1  0  0  0  0
  3  2  2  0  0  0  0
  3 15  1  0  0  0  0
  4  7  1  0  0  0  0
  5  6  1  0  0  0  0
  5  4  2  0  0  0  0
  6 11  2  0  0  0  0
  7 12  2  0  0  0  0
  8 14  1  6  0  0  0
  8  9  1  0  0  0  0
  9 10  1  0  0  0  0
 10  1  1  1  0  0  0
 11  8  1  0  0  0  0
 11 12  1  0  0  0  0
 12 10  1  0  0  0  0
 14 13  2  0  0  0  0
 15 16  1  0  0  0  0
 16 17  1  1  0  0  0
 16 18  1  0  0  0  0
 18 19  1  0  0  0  0
 19 20  1  0  0  0  0
 22 23  1  0  0  0  0
 23 20  1  0  0  0  0
 23 21  2  0  0  0  0
 24 26  2  0  0  0  0
 25 22  2  0  0  0  0
 25 24  1  0  0  0  0
 26 21  1  0  0  0  0
M  END
>  <MODEL>
9

>  <REMARK>
 VINA RESULT:      -7.8      2.192      4.886
  Name = 
  8 active torsions:
  status: ('A' for Active; 'I' for Inactive)
    1  A    between atoms: C_1  and  C_12
    2  A    between atoms: C_1  and  C_22
    3  A    between atoms: C_7  and  C_18
    4  A    between atoms: N_8  and  C_21
    5  A    between atoms: C_9  and  C_12
    6  A    between atoms: C_9  and  C_17
    7  A    between atoms: C_15  and  C_23
    8  A    between atoms: C_18  and  C_22
                            x       y       z     vdW  Elec       q    Type
                         _______ _______ _______ _____ _____    ______ ____

>  <TORSDO>
F 8

$$$$
