=
 OpenBabel11062415143D

 52 57  0  0  1  0  0  0  0  0999 V2000
  182.5030  178.9070  142.7450 C   0  0  0  0  0  0  0  0  0  0  0  0
  181.4030  179.3210  141.9160 C   0  0  0  0  0  0  0  0  0  0  0  0
  183.5710  178.2690  141.9190 C   0  0  1  0  0  3  0  0  0  0  0  0
  182.5510  179.0490  143.9950 O   0  0  0  0  0  0  0  0  0  0  0  0
  182.8950  178.1640  140.5380 C   0  0  2  0  0  3  0  0  0  0  0  0
  180.3090  180.1220  142.3560 N   0  0  0  0  0  1  0  0  0  0  0  0
  181.6160  178.9580  140.6650 C   0  0  0  0  0  0  0  0  0  0  0  0
  182.5710  176.7110  140.2420 C   0  0  0  0  0  1  0  0  0  0  0  0
  181.1450  180.7800  139.0910 C   0  0  0  0  0  2  0  0  0  0  0  0
  180.7280  179.3890  139.5320 C   0  0  1  0  0  3  0  0  0  0  0  0
  181.4910  179.5800  138.2290 C   0  0  1  0  0  3  0  0  0  0  0  0
  180.5900  179.4220  136.9780 C   0  0  0  0  0  0  0  0  0  0  0  0
  180.4720  180.7860  136.3170 C   0  0  0  0  0  1  0  0  0  0  0  0
  179.1540  178.9760  137.2900 C   0  0  0  0  0  1  0  0  0  0  0  0
  181.3960  178.7770  134.8010 O   0  0  0  0  0  0  0  0  0  0  0  0
  181.2390  178.4480  136.0100 C   0  0  0  0  0  0  0  0  0  0  0  0
  181.6840  177.1020  136.4280 C   0  0  0  0  0  0  0  0  0  0  0  0
  180.8980  176.3670  137.0850 O   0  0  0  0  0  0  0  0  0  0  0  0
  182.9870  176.6250  136.0830 N   0  0  0  0  0  2  0  0  0  0  0  0
  182.4720  174.0550  135.7270 O   0  0  0  0  0  0  0  0  0  0  0  0
  183.4820  174.9870  136.3390 S   0  0  0  0  0  0  0  0  0  0  0  0
  183.6040  174.7070  137.8110 O   0  0  0  0  0  0  0  0  0  0  0  0
  185.0620  174.7300  135.5680 C   0  0  0  0  0  2  0  0  0  0  0  0
  187.2110  175.0500  136.7480 C   0  0  2  0  0  3  0  0  0  0  0  0
  186.0230  175.6790  136.1070 N   0  0  0  0  0  0  0  0  0  0  0  0
  187.2660  175.4720  135.3510 C   0  0  0  0  0  2  0  0  0  0  0  0
  187.1880  173.2170  136.8450 S   0  0  0  0  0  0  0  0  0  0  0  0
  188.9980  173.1300  136.8510 C   0  0  0  0  0  1  0  0  0  0  0  0
  185.0720  179.8500  142.9790 O   0  0  0  0  0  1  0  0  0  0  0  0
  184.7960  179.1780  141.7890 C   0  0  1  0  0  3  0  0  0  0  0  0
  186.0200  178.3860  141.3110 C   0  0  1  0  0  3  0  0  0  0  0  0
  186.5720  178.9760  140.0960 N   0  0  0  0  0  0  0  0  0  0  0  0
  186.2060  178.1240  138.9920 C   0  0  2  0  0  3  0  0  0  0  0  0
  187.0610  178.3610  137.9190 O   0  0  0  0  0  1  0  0  0  0  0  0
  185.5020  179.2520  139.2620 O   0  0  0  0  0  0  0  0  0  0  0  0
  187.0730  178.1880  142.4230 C   0  0  2  0  0  3  0  0  0  0  0  0
  188.3970  177.5450  141.9620 C   0  0  1  0  0  3  0  0  0  0  0  0
  189.0540  178.3500  141.0270 O   0  0  0  0  0  1  0  0  0  0  0  0
  191.6200  176.4140  143.1590 C   0  0  0  0  0  2  0  0  0  0  0  0
  190.1840  176.0220  142.8620 C   0  0  0  0  0  2  0  0  0  0  0  0
  191.5720  177.7490  143.8730 C   0  0  1  0  0  3  0  0  0  0  0  0
  189.3260  177.2380  143.1410 C   0  0  1  0  0  3  0  0  0  0  0  0
  190.2690  178.3860  143.4520 C   0  0  0  0  0  2  0  0  0  0  0  0
  191.5630  177.5380  145.2540 O   0  0  0  0  0  1  0  0  0  0  0  0
  186.4470  177.3710  143.5430 C   0  0  0  0  0  2  0  0  0  0  0  0
  187.8610  177.5050  147.0810 C   0  0  0  0  0  0  0  0  0  0  0  0
  185.4840  178.2720  145.6640 C   0  0  0  0  0  2  0  0  0  0  0  0
  185.7810  178.7800  147.0470 C   0  0  0  0  0  3  0  0  0  0  0  0
  187.6480  177.0040  145.6810 C   0  0  0  0  0  2  0  0  0  0  0  0
  186.8730  178.3980  147.7100 C   0  0  0  0  0  3  0  0  0  0  0  0
  188.8750  177.1370  147.7290 O   0  0  0  0  0  0  0  0  0  0  0  0
  186.7750  177.9780  144.8920 C   0  0  1  0  0  3  0  0  0  0  0  0
  1  4  2  0  0  0  0
  2  6  1  0  0  0  0
  2  1  1  0  0  0  0
  3 30  1  6  0  0  0
  3  1  1  0  0  0  0
  5  8  1  1  0  0  0
  5  7  1  0  0  0  0
  5  3  1  0  0  0  0
  7  2  2  0  0  0  0
  9 10  1  0  0  0  0
 10  7  1  1  0  0  0
 11 12  1  6  0  0  0
 11  9  1  0  0  0  0
 11 10  1  0  0  0  0
 12 14  1  0  0  0  0
 13 12  1  0  0  0  0
 15 16  2  0  0  0  0
 16 17  1  0  0  0  0
 16 12  1  0  0  0  0
 17 18  2  0  0  0  0
 19 21  1  0  0  0  0
 19 17  1  0  0  0  0
 20 21  2  0  0  0  0
 21 22  2  0  0  0  0
 23 25  1  0  0  0  0
 23 21  1  0  0  0  0
 24 27  1  6  0  0  0
 25 24  1  0  0  0  0
 26 25  1  0  0  0  0
 26 24  1  0  0  0  0
 27 28  1  0  0  0  0
 30 29  1  1  0  0  0
 31 30  1  1  0  0  0
 31 36  1  0  0  0  0
 32 31  1  0  0  0  0
 33 34  1  6  0  0  0
 33 35  1  0  0  0  0
 33 32  1  0  0  0  0
 35 32  1  0  0  0  0
 36 45  1  1  0  0  0
 37 38  1  6  0  0  0
 37 36  1  0  0  0  0
 39 41  1  0  0  0  0
 40 42  1  0  0  0  0
 40 39  1  0  0  0  0
 41 44  1  1  0  0  0
 42 37  1  6  0  0  0
 42 43  1  0  0  0  0
 43 41  1  0  0  0  0
 46 50  1  0  0  0  0
 46 51  2  0  0  0  0
 47 48  1  0  0  0  0
 48 50  2  0  0  0  0
 49 46  1  0  0  0  0
 52 45  1  6  0  0  0
 52 47  1  0  0  0  0
 52 49  1  0  0  0  0
M  END
>  <MODEL>
1

>  <REMARK>
 VINA RESULT:      -8.0      0.000      0.000
  Name = 
  16 active torsions:
  status: ('A' for Active; 'I' for Inactive)
    1  A    between atoms: N_1  and  C_11
    2  A    between atoms: C_3  and  C_20
    3  A    between atoms: C_9  and  C_29
    4  A    between atoms: C_9  and  C_52
    5  A    between atoms: C_11  and  C_42
    6  A    between atoms: C_11  and  C_52
    7  A    between atoms: C_12  and  C_45
    8  A    between atoms: C_16  and  C_42
    9  A    between atoms: C_20  and  C_23
   10  A    between atoms: C_21  and  S_46
   11  A    between atoms: C_23  and  C_34
   12  A    between atoms: S_28  and  C_43
   13  A    between atoms: S_28  and  N_47
   14  A    between atoms: N_35  and  C_43
   15  A    between atoms: C_37  and  C_48
   16  A    between atoms: C_37  and  C_52
                            x       y       z     vdW  Elec       q    Type
                         _______ _______ _______ _____ _____    ______ ____

>  <TORSDO>
F 16

$$$$
=
 OpenBabel11062415143D

 52 57  0  0  1  0  0  0  0  0999 V2000
  191.4220  177.1700  139.8190 C   0  0  0  0  0  0  0  0  0  0  0  0
  191.2250  176.5790  138.5220 C   0  0  0  0  0  0  0  0  0  0  0  0
  190.1100  177.4460  140.4740 C   0  0  1  0  0  3  0  0  0  0  0  0
  192.5450  177.4310  140.3230 O   0  0  0  0  0  0  0  0  0  0  0  0
  189.1100  177.1460  139.3400 C   0  0  2  0  0  3  0  0  0  0  0  0
  192.2610  176.0270  137.7130 N   0  0  0  0  0  1  0  0  0  0  0  0
  189.9360  176.5120  138.2460 C   0  0  0  0  0  0  0  0  0  0  0  0
  188.5050  178.4450  138.8410 C   0  0  0  0  0  1  0  0  0  0  0  0
  189.6980  174.3130  137.1820 C   0  0  0  0  0  2  0  0  0  0  0  0
  189.4010  175.7950  137.0380 C   0  0  1  0  0  3  0  0  0  0  0  0
  188.2820  174.8220  137.3810 C   0  0  1  0  0  3  0  0  0  0  0  0
  187.3390  174.5470  136.1820 C   0  0  0  0  0  0  0  0  0  0  0  0
  188.1590  173.8730  135.0930 C   0  0  0  0  0  1  0  0  0  0  0  0
  186.7450  175.8120  135.5460 C   0  0  0  0  0  1  0  0  0  0  0  0
  186.4960  172.6060  137.3350 O   0  0  0  0  0  0  0  0  0  0  0  0
  186.2240  173.6130  136.6230 C   0  0  0  0  0  0  0  0  0  0  0  0
  184.8160  173.8280  136.2300 C   0  0  0  0  0  0  0  0  0  0  0  0
  184.3820  173.3000  135.1700 O   0  0  0  0  0  0  0  0  0  0  0  0
  183.9440  174.6150  137.0450 N   0  0  0  0  0  2  0  0  0  0  0  0
  181.6230  173.3510  136.9240 O   0  0  0  0  0  0  0  0  0  0  0  0
  182.2390  174.7150  136.7650 S   0  0  0  0  0  0  0  0  0  0  0  0
  181.9710  175.2350  135.3810 O   0  0  0  0  0  0  0  0  0  0  0  0
  181.5200  175.8260  137.9500 C   0  0  0  0  0  2  0  0  0  0  0  0
  183.0270  177.1330  139.4130 C   0  0  2  0  0  3  0  0  0  0  0  0
  182.3340  175.8390  139.1560 N   0  0  0  0  0  0  0  0  0  0  0  0
  181.7360  176.8530  140.0380 C   0  0  0  0  0  2  0  0  0  0  0  0
  182.8270  178.4160  138.1160 S   0  0  0  0  0  0  0  0  0  0  0  0
  183.6890  179.6550  139.1170 C   0  0  0  0  0  1  0  0  0  0  0  0
  190.9450  175.6590  141.8820 O   0  0  0  0  0  1  0  0  0  0  0  0
  189.8420  176.4720  141.6240 C   0  0  1  0  0  3  0  0  0  0  0  0
  189.4070  177.2210  142.8900 C   0  0  1  0  0  3  0  0  0  0  0  0
  189.8790  178.6020  142.8590 N   0  0  0  0  0  0  0  0  0  0  0  0
  190.7610  178.7870  143.9850 C   0  0  2  0  0  3  0  0  0  0  0  0
  190.8660  180.1460  144.2730 O   0  0  0  0  0  1  0  0  0  0  0  0
  191.2580  178.5510  142.7450 O   0  0  0  0  0  0  0  0  0  0  0  0
  187.8910  177.1040  143.1620 C   0  0  2  0  0  3  0  0  0  0  0  0
  187.1080  178.4300  143.0850 C   0  0  1  0  0  3  0  0  0  0  0  0
  187.0950  178.9370  141.7820 O   0  0  0  0  0  1  0  0  0  0  0  0
  184.0300  179.9860  144.1820 C   0  0  0  0  0  2  0  0  0  0  0  0
  185.3460  179.3650  144.6150 C   0  0  0  0  0  2  0  0  0  0  0  0
  183.4560  179.0900  143.1020 C   0  0  1  0  0  3  0  0  0  0  0  0
  185.6770  178.2810  143.6100 C   0  0  1  0  0  3  0  0  0  0  0  0
  184.6410  178.3690  142.5040 C   0  0  0  0  0  2  0  0  0  0  0  0
  182.5880  178.1610  143.6820 O   0  0  0  0  0  1  0  0  0  0  0  0
  187.6930  176.4470  144.5200 C   0  0  0  0  0  2  0  0  0  0  0  0
  190.1110  177.2710  147.3490 C   0  0  0  0  0  0  0  0  0  0  0  0
  187.3170  177.5320  146.7370 C   0  0  0  0  0  2  0  0  0  0  0  0
  187.9500  178.2710  147.8830 C   0  0  0  0  0  3  0  0  0  0  0  0
  189.5500  176.5460  146.1600 C   0  0  0  0  0  2  0  0  0  0  0  0
  189.2430  178.1240  148.1780 C   0  0  0  0  0  3  0  0  0  0  0  0
  191.3230  177.1250  147.6550 O   0  0  0  0  0  0  0  0  0  0  0  0
  188.3280  177.2820  145.6130 C   0  0  1  0  0  3  0  0  0  0  0  0
  1  4  2  0  0  0  0
  1  3  1  0  0  0  0
  2  1  1  0  0  0  0
  3 30  1  1  0  0  0
  5  8  1  6  0  0  0
  5  3  1  0  0  0  0
  6  2  1  0  0  0  0
  7  2  2  0  0  0  0
  7  5  1  0  0  0  0
  9 11  1  0  0  0  0
 10  9  1  0  0  0  0
 10 11  1  0  0  0  0
 10  7  1  1  0  0  0
 11 12  1  6  0  0  0
 12 16  1  0  0  0  0
 13 12  1  0  0  0  0
 14 12  1  0  0  0  0
 16 15  2  0  0  0  0
 17 16  1  0  0  0  0
 17 19  1  0  0  0  0
 18 17  2  0  0  0  0
 21 20  2  0  0  0  0
 21 19  1  0  0  0  0
 21 23  1  0  0  0  0
 22 21  2  0  0  0  0
 23 25  1  0  0  0  0
 24 27  1  6  0  0  0
 24 26  1  0  0  0  0
 25 24  1  0  0  0  0
 25 26  1  0  0  0  0
 27 28  1  0  0  0  0
 30 29  1  1  0  0  0
 31 30  1  6  0  0  0
 31 36  1  0  0  0  0
 32 31  1  0  0  0  0
 32 33  1  0  0  0  0
 33 34  1  6  0  0  0
 35 32  1  0  0  0  0
 35 33  1  0  0  0  0
 36 45  1  1  0  0  0
 37 38  1  6  0  0  0
 37 36  1  0  0  0  0
 39 40  1  0  0  0  0
 41 44  1  1  0  0  0
 41 39  1  0  0  0  0
 42 37  1  6  0  0  0
 42 40  1  0  0  0  0
 43 41  1  0  0  0  0
 43 42  1  0  0  0  0
 46 51  2  0  0  0  0
 46 50  1  0  0  0  0
 47 48  1  0  0  0  0
 48 50  2  0  0  0  0
 49 46  1  0  0  0  0
 52 45  1  6  0  0  0
 52 49  1  0  0  0  0
 52 47  1  0  0  0  0
M  END
>  <MODEL>
2

>  <REMARK>
 VINA RESULT:      -7.4      2.435      6.656
  Name = 
  16 active torsions:
  status: ('A' for Active; 'I' for Inactive)
    1  A    between atoms: N_1  and  C_11
    2  A    between atoms: C_3  and  C_20
    3  A    between atoms: C_9  and  C_29
    4  A    between atoms: C_9  and  C_52
    5  A    between atoms: C_11  and  C_42
    6  A    between atoms: C_11  and  C_52
    7  A    between atoms: C_12  and  C_45
    8  A    between atoms: C_16  and  C_42
    9  A    between atoms: C_20  and  C_23
   10  A    between atoms: C_21  and  S_46
   11  A    between atoms: C_23  and  C_34
   12  A    between atoms: S_28  and  C_43
   13  A    between atoms: S_28  and  N_47
   14  A    between atoms: N_35  and  C_43
   15  A    between atoms: C_37  and  C_48
   16  A    between atoms: C_37  and  C_52
                            x       y       z     vdW  Elec       q    Type
                         _______ _______ _______ _____ _____    ______ ____

>  <TORSDO>
F 16

$$$$
=
 OpenBabel11062415143D

 52 57  0  0  1  0  0  0  0  0999 V2000
  191.5990  177.2130  139.9150 C   0  0  0  0  0  0  0  0  0  0  0  0
  191.5990  176.5240  138.6520 C   0  0  0  0  0  0  0  0  0  0  0  0
  190.2190  177.6580  140.2690 C   0  0  1  0  0  3  0  0  0  0  0  0
  192.6240  177.4230  140.6150 O   0  0  0  0  0  0  0  0  0  0  0  0
  189.4340  177.3400  138.9820 C   0  0  2  0  0  3  0  0  0  0  0  0
  192.7110  175.8140  138.1120 N   0  0  0  0  0  1  0  0  0  0  0  0
  190.3880  176.5410  138.1270 C   0  0  0  0  0  0  0  0  0  0  0  0
  189.0720  178.6350  138.2760 C   0  0  0  0  0  1  0  0  0  0  0  0
  190.0270  174.2850  137.2320 C   0  0  0  0  0  2  0  0  0  0  0  0
  190.0290  175.7640  136.8910 C   0  0  1  0  0  3  0  0  0  0  0  0
  188.7110  175.0150  137.0330 C   0  0  1  0  0  3  0  0  0  0  0  0
  188.0340  174.7320  135.6680 C   0  0  0  0  0  0  0  0  0  0  0  0
  189.1080  174.8030  134.5940 C   0  0  0  0  0  1  0  0  0  0  0  0
  186.9660  175.7620  135.2700 C   0  0  0  0  0  1  0  0  0  0  0  0
  188.0070  172.3980  135.0670 O   0  0  0  0  0  0  0  0  0  0  0  0
  187.4310  173.3370  135.6850 C   0  0  0  0  0  0  0  0  0  0  0  0
  186.1680  173.0340  136.3910 C   0  0  0  0  0  0  0  0  0  0  0  0
  186.1650  172.9580  137.6490 O   0  0  0  0  0  0  0  0  0  0  0  0
  184.9540  172.8430  135.6610 N   0  0  0  0  0  2  0  0  0  0  0  0
  183.3370  171.4260  137.2010 O   0  0  0  0  0  0  0  0  0  0  0  0
  183.4090  172.7160  136.4310 S   0  0  0  0  0  0  0  0  0  0  0  0
  182.3130  172.7540  135.4020 O   0  0  0  0  0  0  0  0  0  0  0  0
  183.2030  174.0810  137.5480 C   0  0  0  0  0  2  0  0  0  0  0  0
  182.3170  176.3900  137.5610 C   0  0  2  0  0  3  0  0  0  0  0  0
  182.9690  175.2980  136.7850 N   0  0  0  0  0  0  0  0  0  0  0  0
  183.7720  176.3440  137.4340 C   0  0  0  0  0  2  0  0  0  0  0  0
  181.8270  175.9670  139.2780 S   0  0  0  0  0  0  0  0  0  0  0  0
  180.1120  175.6620  138.7820 C   0  0  0  0  0  1  0  0  0  0  0  0
  190.4840  175.7740  141.7700 O   0  0  0  0  0  1  0  0  0  0  0  0
  189.6350  176.8200  141.4100 C   0  0  1  0  0  3  0  0  0  0  0  0
  189.3030  177.6980  142.6230 C   0  0  1  0  0  3  0  0  0  0  0  0
  190.2540  178.7990  142.7380 N   0  0  0  0  0  0  0  0  0  0  0  0
  190.6520  178.8900  144.1210 C   0  0  2  0  0  3  0  0  0  0  0  0
  191.1670  180.1590  144.3730 O   0  0  0  0  0  1  0  0  0  0  0  0
  191.4370  178.2590  143.2130 O   0  0  0  0  0  0  0  0  0  0  0  0
  187.8300  178.1630  142.6380 C   0  0  2  0  0  3  0  0  0  0  0  0
  186.9570  177.5330  143.7430 C   0  0  1  0  0  3  0  0  0  0  0  0
  187.2830  176.1890  143.9440 O   0  0  0  0  0  1  0  0  0  0  0  0
  185.5710  178.3160  146.9930 C   0  0  0  0  0  2  0  0  0  0  0  0
  185.6940  178.7500  145.5440 C   0  0  0  0  0  2  0  0  0  0  0  0
  186.9510  177.8760  147.4390 C   0  0  1  0  0  3  0  0  0  0  0  0
  187.0590  178.3050  145.0620 C   0  0  1  0  0  3  0  0  0  0  0  0
  187.6750  177.4760  146.1740 C   0  0  0  0  0  2  0  0  0  0  0  0
  187.6120  178.9520  148.0340 O   0  0  0  0  0  1  0  0  0  0  0  0
  187.2250  177.9000  141.2680 C   0  0  0  0  0  2  0  0  0  0  0  0
  183.5300  178.7570  141.6410 C   0  0  0  0  0  0  0  0  0  0  0  0
  185.5540  178.7240  139.6050 C   0  0  0  0  0  2  0  0  0  0  0  0
  184.2420  179.4290  139.4060 C   0  0  0  0  0  3  0  0  0  0  0  0
  184.8400  178.0790  141.9210 C   0  0  0  0  0  2  0  0  0  0  0  0
  183.2950  179.4170  140.3450 C   0  0  0  0  0  3  0  0  0  0  0  0
  182.6180  178.7360  142.5080 O   0  0  0  0  0  0  0  0  0  0  0  0
  185.9550  178.7050  141.0840 C   0  0  1  0  0  3  0  0  0  0  0  0
  1  3  1  0  0  0  0
  1  4  2  0  0  0  0
  2  1  1  0  0  0  0
  3 30  1  1  0  0  0
  5  8  1  6  0  0  0
  5  3  1  0  0  0  0
  6  2  1  0  0  0  0
  7  2  2  0  0  0  0
  7  5  1  0  0  0  0
 10 11  1  0  0  0  0
 10  9  1  0  0  0  0
 10  7  1  1  0  0  0
 11 12  1  6  0  0  0
 11  9  1  0  0  0  0
 12 16  1  0  0  0  0
 13 12  1  0  0  0  0
 14 12  1  0  0  0  0
 15 16  2  0  0  0  0
 16 17  1  0  0  0  0
 17 18  2  0  0  0  0
 19 17  1  0  0  0  0
 19 21  1  0  0  0  0
 21 20  2  0  0  0  0
 21 23  1  0  0  0  0
 22 21  2  0  0  0  0
 24 27  1  1  0  0  0
 25 26  1  0  0  0  0
 25 23  1  0  0  0  0
 25 24  1  0  0  0  0
 26 24  1  0  0  0  0
 28 27  1  0  0  0  0
 30 29  1  1  0  0  0
 31 30  1  6  0  0  0
 31 36  1  0  0  0  0
 31 32  1  0  0  0  0
 32 35  1  0  0  0  0
 32 33  1  0  0  0  0
 33 34  1  6  0  0  0
 35 33  1  0  0  0  0
 36 45  1  6  0  0  0
 36 37  1  0  0  0  0
 37 38  1  1  0  0  0
 39 41  1  0  0  0  0
 40 39  1  0  0  0  0
 41 44  1  6  0  0  0
 42 37  1  6  0  0  0
 42 40  1  0  0  0  0
 42 43  1  0  0  0  0
 43 41  1  0  0  0  0
 46 49  1  0  0  0  0
 46 51  2  0  0  0  0
 47 52  1  0  0  0  0
 48 47  1  0  0  0  0
 48 50  2  0  0  0  0
 50 46  1  0  0  0  0
 52 45  1  6  0  0  0
 52 49  1  0  0  0  0
M  END
>  <MODEL>
3

>  <REMARK>
 VINA RESULT:      -7.4      2.745      7.053
  Name = 
  16 active torsions:
  status: ('A' for Active; 'I' for Inactive)
    1  A    between atoms: N_1  and  C_11
    2  A    between atoms: C_3  and  C_20
    3  A    between atoms: C_9  and  C_29
    4  A    between atoms: C_9  and  C_52
    5  A    between atoms: C_11  and  C_42
    6  A    between atoms: C_11  and  C_52
    7  A    between atoms: C_12  and  C_45
    8  A    between atoms: C_16  and  C_42
    9  A    between atoms: C_20  and  C_23
   10  A    between atoms: C_21  and  S_46
   11  A    between atoms: C_23  and  C_34
   12  A    between atoms: S_28  and  C_43
   13  A    between atoms: S_28  and  N_47
   14  A    between atoms: N_35  and  C_43
   15  A    between atoms: C_37  and  C_48
   16  A    between atoms: C_37  and  C_52
                            x       y       z     vdW  Elec       q    Type
                         _______ _______ _______ _____ _____    ______ ____

>  <TORSDO>
F 16

$$$$
=
 OpenBabel11062415143D

 52 57  0  0  1  0  0  0  0  0999 V2000
  183.9980  179.4350  143.6130 C   0  0  0  0  0  0  0  0  0  0  0  0
  185.1040  178.9690  144.4070 C   0  0  0  0  0  0  0  0  0  0  0  0
  184.1460  178.9880  142.1960 C   0  0  1  0  0  3  0  0  0  0  0  0
  183.0480  180.1340  144.0500 O   0  0  0  0  0  0  0  0  0  0  0  0
  185.5630  178.3820  142.1920 C   0  0  2  0  0  3  0  0  0  0  0  0
  185.1820  179.0620  145.8270 N   0  0  0  0  0  1  0  0  0  0  0  0
  185.9760  178.3360  143.6440 C   0  0  0  0  0  0  0  0  0  0  0  0
  186.5000  179.2930  141.4190 C   0  0  0  0  0  1  0  0  0  0  0  0
  187.4730  176.4250  143.2880 C   0  0  0  0  0  2  0  0  0  0  0  0
  187.1560  177.5930  144.2040 C   0  0  1  0  0  3  0  0  0  0  0  0
  188.3710  177.6490  143.2890 C   0  0  1  0  0  3  0  0  0  0  0  0
  189.7050  177.4500  144.0530 C   0  0  0  0  0  0  0  0  0  0  0  0
  189.4000  176.6730  145.3240 C   0  0  0  0  0  1  0  0  0  0  0  0
  190.3720  178.7580  144.5030 C   0  0  0  0  0  1  0  0  0  0  0  0
  191.2020  175.6040  143.6560 O   0  0  0  0  0  0  0  0  0  0  0  0
  190.6630  176.6460  143.1900 C   0  0  0  0  0  0  0  0  0  0  0  0
  191.0120  177.0530  141.8120 C   0  0  0  0  0  0  0  0  0  0  0  0
  191.8350  177.9910  141.6340 O   0  0  0  0  0  0  0  0  0  0  0  0
  190.4360  176.3840  140.6880 N   0  0  0  0  0  2  0  0  0  0  0  0
  192.4650  176.8280  139.0500 O   0  0  0  0  0  0  0  0  0  0  0  0
  190.9710  176.6540  139.0640 S   0  0  0  0  0  0  0  0  0  0  0  0
  190.3110  177.8810  138.4990 O   0  0  0  0  0  0  0  0  0  0  0  0
  190.5320  175.2500  138.0670 C   0  0  0  0  0  2  0  0  0  0  0  0
  190.8870  174.3100  135.8070 C   0  0  2  0  0  3  0  0  0  0  0  0
  191.3790  175.2140  136.8850 N   0  0  0  0  0  0  0  0  0  0  0  0
  190.5570  175.7340  135.7820 C   0  0  0  0  0  2  0  0  0  0  0  0
  189.3880  173.3310  136.2110 S   0  0  0  0  0  0  0  0  0  0  0  0
  188.4230  174.1550  134.9180 C   0  0  0  0  0  1  0  0  0  0  0  0
  181.9600  178.0100  142.5720 O   0  0  0  0  0  1  0  0  0  0  0  0
  183.1470  177.8800  141.8510 C   0  0  1  0  0  3  0  0  0  0  0  0
  182.8700  177.8390  140.3440 C   0  0  1  0  0  3  0  0  0  0  0  0
  181.7260  176.9800  140.0530 N   0  0  0  0  0  0  0  0  0  0  0  0
  182.1790  175.9340  139.1690 C   0  0  2  0  0  3  0  0  0  0  0  0
  181.0860  175.3820  138.5050 O   0  0  0  0  0  1  0  0  0  0  0  0
  182.0550  175.7110  140.5010 O   0  0  0  0  0  0  0  0  0  0  0  0
  182.7440  179.2470  139.7210 C   0  0  2  0  0  3  0  0  0  0  0  0
  181.3800  179.5570  139.0720 C   0  0  1  0  0  3  0  0  0  0  0  0
  180.4320  179.9220  140.0330 O   0  0  0  0  0  1  0  0  0  0  0  0
  179.8870  181.3330  136.2950 C   0  0  0  0  0  2  0  0  0  0  0  0
  180.8200  180.2090  136.7110 C   0  0  0  0  0  2  0  0  0  0  0  0
  180.2170  182.5240  137.1710 C   0  0  1  0  0  3  0  0  0  0  0  0
  181.4900  180.6420  137.9980 C   0  0  1  0  0  3  0  0  0  0  0  0
  180.8390  181.9470  138.4210 C   0  0  0  0  0  2  0  0  0  0  0  0
  181.1490  183.3360  136.5200 O   0  0  0  0  0  1  0  0  0  0  0  0
  183.8670  179.4320  138.7120 C   0  0  0  0  0  2  0  0  0  0  0  0
  186.2870  176.8330  137.3250 C   0  0  0  0  0  0  0  0  0  0  0  0
  183.6570  177.8530  136.7890 C   0  0  0  0  0  2  0  0  0  0  0  0
  184.1550  176.5790  136.1650 C   0  0  0  0  0  3  0  0  0  0  0  0
  185.8290  178.0830  138.0200 C   0  0  0  0  0  2  0  0  0  0  0  0
  185.3880  176.1260  136.3980 C   0  0  0  0  0  3  0  0  0  0  0  0
  187.4540  176.4040  137.5160 O   0  0  0  0  0  0  0  0  0  0  0  0
  184.3080  178.0930  138.1550 C   0  0  1  0  0  3  0  0  0  0  0  0
  1  4  2  0  0  0  0
  1  2  1  0  0  0  0
  2  6  1  0  0  0  0
  3 30  1  1  0  0  0
  3  1  1  0  0  0  0
  5  8  1  6  0  0  0
  5  3  1  0  0  0  0
  5  7  1  0  0  0  0
  7  2  2  0  0  0  0
  9 11  1  0  0  0  0
  9 10  1  0  0  0  0
 10  7  1  6  0  0  0
 11 12  1  1  0  0  0
 11 10  1  0  0  0  0
 12 14  1  0  0  0  0
 12 13  1  0  0  0  0
 16 15  2  0  0  0  0
 16 12  1  0  0  0  0
 17 16  1  0  0  0  0
 18 17  2  0  0  0  0
 19 17  1  0  0  0  0
 20 21  2  0  0  0  0
 21 19  1  0  0  0  0
 22 21  2  0  0  0  0
 23 21  1  0  0  0  0
 24 27  1  1  0  0  0
 24 25  1  0  0  0  0
 25 23  1  0  0  0  0
 26 24  1  0  0  0  0
 26 25  1  0  0  0  0
 28 27  1  0  0  0  0
 30 29  1  1  0  0  0
 31 36  1  1  0  0  0
 31 30  1  0  0  0  0
 32 31  1  0  0  0  0
 32 35  1  0  0  0  0
 33 34  1  6  0  0  0
 33 32  1  0  0  0  0
 33 35  1  0  0  0  0
 36 45  1  6  0  0  0
 37 36  1  0  0  0  0
 37 38  1  1  0  0  0
 39 40  1  0  0  0  0
 39 41  1  0  0  0  0
 40 42  1  0  0  0  0
 41 44  1  6  0  0  0
 41 43  1  0  0  0  0
 42 43  1  0  0  0  0
 42 37  1  1  0  0  0
 46 51  2  0  0  0  0
 46 49  1  0  0  0  0
 47 52  1  0  0  0  0
 48 50  2  0  0  0  0
 48 47  1  0  0  0  0
 49 52  1  0  0  0  0
 50 46  1  0  0  0  0
 52 45  1  6  0  0  0
M  END
>  <MODEL>
4

>  <REMARK>
 VINA RESULT:      -7.3      2.552      8.603
  Name = 
  16 active torsions:
  status: ('A' for Active; 'I' for Inactive)
    1  A    between atoms: N_1  and  C_11
    2  A    between atoms: C_3  and  C_20
    3  A    between atoms: C_9  and  C_29
    4  A    between atoms: C_9  and  C_52
    5  A    between atoms: C_11  and  C_42
    6  A    between atoms: C_11  and  C_52
    7  A    between atoms: C_12  and  C_45
    8  A    between atoms: C_16  and  C_42
    9  A    between atoms: C_20  and  C_23
   10  A    between atoms: C_21  and  S_46
   11  A    between atoms: C_23  and  C_34
   12  A    between atoms: S_28  and  C_43
   13  A    between atoms: S_28  and  N_47
   14  A    between atoms: N_35  and  C_43
   15  A    between atoms: C_37  and  C_48
   16  A    between atoms: C_37  and  C_52
                            x       y       z     vdW  Elec       q    Type
                         _______ _______ _______ _____ _____    ______ ____

>  <TORSDO>
F 16

$$$$
=
 OpenBabel11062415143D

 52 57  0  0  1  0  0  0  0  0999 V2000
  191.3770  177.3470  139.9680 C   0  0  0  0  0  0  0  0  0  0  0  0
  191.3220  176.7290  138.6700 C   0  0  0  0  0  0  0  0  0  0  0  0
  190.0270  177.8390  140.3720 C   0  0  1  0  0  3  0  0  0  0  0  0
  192.4220  177.4680  140.6590 O   0  0  0  0  0  0  0  0  0  0  0  0
  189.2060  177.6310  139.0850 C   0  0  2  0  0  3  0  0  0  0  0  0
  192.3880  175.9960  138.0710 N   0  0  0  0  0  1  0  0  0  0  0  0
  190.1040  176.8340  138.1700 C   0  0  0  0  0  0  0  0  0  0  0  0
  188.8970  178.9790  138.4580 C   0  0  0  0  0  1  0  0  0  0  0  0
  189.4280  174.6810  137.2070 C   0  0  0  0  0  2  0  0  0  0  0  0
  189.6870  176.1450  136.9010 C   0  0  1  0  0  3  0  0  0  0  0  0
  188.2600  175.6190  136.9630 C   0  0  1  0  0  3  0  0  0  0  0  0
  187.6150  175.4700  135.5610 C   0  0  0  0  0  0  0  0  0  0  0  0
  188.5330  174.6000  134.7180 C   0  0  0  0  0  1  0  0  0  0  0  0
  187.4630  176.7930  134.7960 C   0  0  0  0  0  1  0  0  0  0  0  0
  186.2070  173.5430  135.8890 O   0  0  0  0  0  0  0  0  0  0  0  0
  186.2630  174.7890  135.6990 C   0  0  0  0  0  0  0  0  0  0  0  0
  184.9920  175.5370  135.5980 C   0  0  0  0  0  0  0  0  0  0  0  0
  184.2500  175.3610  134.5940 O   0  0  0  0  0  0  0  0  0  0  0  0
  184.5940  176.4410  136.6310 N   0  0  0  0  0  2  0  0  0  0  0  0
  182.6930  177.7490  135.3390 O   0  0  0  0  0  0  0  0  0  0  0  0
  183.0240  177.1670  136.6860 S   0  0  0  0  0  0  0  0  0  0  0  0
  182.9900  178.2490  137.7280 O   0  0  0  0  0  0  0  0  0  0  0  0
  181.8240  175.9250  137.1020 C   0  0  0  0  0  2  0  0  0  0  0  0
  180.7890  174.1240  135.7590 C   0  0  2  0  0  3  0  0  0  0  0  0
  181.0530  175.5820  135.9170 N   0  0  0  0  0  0  0  0  0  0  0  0
  179.8010  174.9850  136.4060 C   0  0  0  0  0  2  0  0  0  0  0  0
  181.5760  173.0310  137.0070 S   0  0  0  0  0  0  0  0  0  0  0  0
  182.8010  172.4390  135.8100 C   0  0  0  0  0  1  0  0  0  0  0  0
  190.0590  175.7320  141.5710 O   0  0  0  0  0  1  0  0  0  0  0  0
  189.4210  176.9690  141.4770 C   0  0  1  0  0  3  0  0  0  0  0  0
  189.4410  177.6990  142.8250 C   0  0  1  0  0  3  0  0  0  0  0  0
  190.4650  178.7380  142.8340 N   0  0  0  0  0  0  0  0  0  0  0  0
  190.8680  178.9430  144.2030 C   0  0  2  0  0  3  0  0  0  0  0  0
  191.4710  180.1920  144.3270 O   0  0  0  0  0  1  0  0  0  0  0  0
  191.6080  178.1690  143.3700 O   0  0  0  0  0  0  0  0  0  0  0  0
  188.0470  178.2170  143.2450 C   0  0  2  0  0  3  0  0  0  0  0  0
  187.4090  177.4820  144.4410 C   0  0  1  0  0  3  0  0  0  0  0  0
  187.6650  176.1080  144.3890 O   0  0  0  0  0  1  0  0  0  0  0  0
  187.0830  177.6090  148.0430 C   0  0  0  0  0  2  0  0  0  0  0  0
  186.7100  178.2640  146.7250 C   0  0  0  0  0  2  0  0  0  0  0  0
  188.5580  177.2710  147.9630 C   0  0  1  0  0  3  0  0  0  0  0  0
  187.8760  178.0570  145.7810 C   0  0  1  0  0  3  0  0  0  0  0  0
  188.8660  177.1500  146.4890 C   0  0  0  0  0  2  0  0  0  0  0  0
  189.3040  178.3180  148.5110 O   0  0  0  0  0  1  0  0  0  0  0  0
  187.1270  178.1640  142.0350 C   0  0  0  0  0  2  0  0  0  0  0  0
  183.3390  178.3360  141.6390 C   0  0  0  0  0  0  0  0  0  0  0  0
  185.3830  179.3090  143.4070 C   0  0  0  0  0  2  0  0  0  0  0  0
  183.9260  179.3620  143.7740 C   0  0  0  0  0  3  0  0  0  0  0  0
  184.7800  178.2070  141.2360 C   0  0  0  0  0  2  0  0  0  0  0  0
  182.9800  178.9330  142.9370 C   0  0  0  0  0  3  0  0  0  0  0  0
  182.4340  177.9570  140.8520 O   0  0  0  0  0  0  0  0  0  0  0  0
  185.6760  178.1320  142.4710 C   0  0  1  0  0  3  0  0  0  0  0  0
  1  3  1  0  0  0  0
  1  4  2  0  0  0  0
  2  1  1  0  0  0  0
  3 30  1  1  0  0  0
  5  8  1  6  0  0  0
  5  3  1  0  0  0  0
  6  2  1  0  0  0  0
  7  2  2  0  0  0  0
  7  5  1  0  0  0  0
 10 11  1  0  0  0  0
 10  9  1  0  0  0  0
 10  7  1  1  0  0  0
 11 12  1  6  0  0  0
 11  9  1  0  0  0  0
 12 16  1  0  0  0  0
 13 12  1  0  0  0  0
 14 12  1  0  0  0  0
 16 15  2  0  0  0  0
 17 16  1  0  0  0  0
 17 19  1  0  0  0  0
 18 17  2  0  0  0  0
 19 21  1  0  0  0  0
 20 21  2  0  0  0  0
 21 23  1  0  0  0  0
 21 22  2  0  0  0  0
 24 25  1  0  0  0  0
 24 26  1  0  0  0  0
 24 27  1  1  0  0  0
 25 26  1  0  0  0  0
 25 23  1  0  0  0  0
 28 27  1  0  0  0  0
 30 29  1  1  0  0  0
 31 30  1  6  0  0  0
 31 32  1  0  0  0  0
 31 36  1  0  0  0  0
 32 35  1  0  0  0  0
 32 33  1  0  0  0  0
 33 34  1  6  0  0  0
 35 33  1  0  0  0  0
 36 45  1  6  0  0  0
 36 37  1  0  0  0  0
 37 38  1  1  0  0  0
 40 39  1  0  0  0  0
 41 39  1  0  0  0  0
 41 44  1  6  0  0  0
 42 37  1  6  0  0  0
 42 43  1  0  0  0  0
 42 40  1  0  0  0  0
 43 41  1  0  0  0  0
 46 50  1  0  0  0  0
 47 48  1  0  0  0  0
 49 46  1  0  0  0  0
 49 52  1  0  0  0  0
 50 48  2  0  0  0  0
 51 46  2  0  0  0  0
 52 45  1  6  0  0  0
 52 47  1  0  0  0  0
M  END
>  <MODEL>
5

>  <REMARK>
 VINA RESULT:      -7.2      2.732      6.637
  Name = 
  16 active torsions:
  status: ('A' for Active; 'I' for Inactive)
    1  A    between atoms: N_1  and  C_11
    2  A    between atoms: C_3  and  C_20
    3  A    between atoms: C_9  and  C_29
    4  A    between atoms: C_9  and  C_52
    5  A    between atoms: C_11  and  C_42
    6  A    between atoms: C_11  and  C_52
    7  A    between atoms: C_12  and  C_45
    8  A    between atoms: C_16  and  C_42
    9  A    between atoms: C_20  and  C_23
   10  A    between atoms: C_21  and  S_46
   11  A    between atoms: C_23  and  C_34
   12  A    between atoms: S_28  and  C_43
   13  A    between atoms: S_28  and  N_47
   14  A    between atoms: N_35  and  C_43
   15  A    between atoms: C_37  and  C_48
   16  A    between atoms: C_37  and  C_52
                            x       y       z     vdW  Elec       q    Type
                         _______ _______ _______ _____ _____    ______ ____

>  <TORSDO>
F 16

$$$$
=
 OpenBabel11062415143D

 52 57  0  0  1  0  0  0  0  0999 V2000
  191.1240  177.4370  140.0690 C   0  0  0  0  0  0  0  0  0  0  0  0
  191.4630  176.6620  138.9060 C   0  0  0  0  0  0  0  0  0  0  0  0
  189.7120  177.9130  139.9900 C   0  0  1  0  0  3  0  0  0  0  0  0
  191.9150  177.6900  141.0150 O   0  0  0  0  0  0  0  0  0  0  0  0
  189.3130  177.5100  138.5570 C   0  0  2  0  0  3  0  0  0  0  0  0
  192.6640  175.9110  138.7490 N   0  0  0  0  0  1  0  0  0  0  0  0
  190.4490  176.6480  138.0600 C   0  0  0  0  0  0  0  0  0  0  0  0
  189.1950  178.7550  137.6950 C   0  0  0  0  0  1  0  0  0  0  0  0
  190.7350  174.3570  137.2290 C   0  0  0  0  0  2  0  0  0  0  0  0
  190.4330  175.7900  136.8260 C   0  0  1  0  0  3  0  0  0  0  0  0
  189.3190  174.7530  136.8490 C   0  0  1  0  0  3  0  0  0  0  0  0
  188.8970  174.2960  135.4290 C   0  0  0  0  0  0  0  0  0  0  0  0
  190.1640  174.0030  134.6410 C   0  0  0  0  0  1  0  0  0  0  0  0
  188.1340  175.3610  134.6280 C   0  0  0  0  0  1  0  0  0  0  0  0
  188.6410  171.9060  135.5940 O   0  0  0  0  0  0  0  0  0  0  0  0
  188.0660  173.0280  135.5350 C   0  0  0  0  0  0  0  0  0  0  0  0
  186.5880  173.0550  135.5520 C   0  0  0  0  0  0  0  0  0  0  0  0
  185.9480  172.4830  134.6290 O   0  0  0  0  0  0  0  0  0  0  0  0
  185.8840  173.7110  136.6090 N   0  0  0  0  0  2  0  0  0  0  0  0
  183.8120  172.1700  137.1830 O   0  0  0  0  0  0  0  0  0  0  0  0
  184.1700  173.5830  136.8120 S   0  0  0  0  0  0  0  0  0  0  0  0
  183.4680  173.9670  135.5390 O   0  0  0  0  0  0  0  0  0  0  0  0
  183.6550  174.6810  138.1100 C   0  0  0  0  0  2  0  0  0  0  0  0
  181.7940  176.2370  138.5930 C   0  0  2  0  0  3  0  0  0  0  0  0
  182.2330  174.9540  137.9750 N   0  0  0  0  0  0  0  0  0  0  0  0
  182.1290  176.1810  137.1720 C   0  0  0  0  0  2  0  0  0  0  0  0
  183.0900  177.1680  139.5020 S   0  0  0  0  0  0  0  0  0  0  0  0
  182.8560  178.6330  138.4640 C   0  0  0  0  0  1  0  0  0  0  0  0
  189.5240  176.2120  141.7070 O   0  0  0  0  0  1  0  0  0  0  0  0
  188.8100  177.1580  140.9710 C   0  0  1  0  0  3  0  0  0  0  0  0
  188.0730  178.1310  141.9000 C   0  0  1  0  0  3  0  0  0  0  0  0
  186.6360  178.0950  141.6480 N   0  0  0  0  0  0  0  0  0  0  0  0
  186.1920  179.4530  141.4590 C   0  0  2  0  0  3  0  0  0  0  0  0
  184.8180  179.5270  141.6760 O   0  0  0  0  0  1  0  0  0  0  0  0
  186.4360  178.6480  140.3950 O   0  0  0  0  0  0  0  0  0  0  0  0
  188.4340  177.9260  143.3880 C   0  0  2  0  0  3  0  0  0  0  0  0
  189.9410  177.7760  143.6810 C   0  0  1  0  0  3  0  0  0  0  0  0
  190.5240  179.0090  143.9890 O   0  0  0  0  0  1  0  0  0  0  0  0
  192.2710  175.6300  145.4310 C   0  0  0  0  0  2  0  0  0  0  0  0
  191.1940  175.7060  144.3630 C   0  0  0  0  0  2  0  0  0  0  0  0
  191.7720  176.4320  146.6160 C   0  0  1  0  0  3  0  0  0  0  0  0
  190.2090  176.7680  144.8030 C   0  0  1  0  0  3  0  0  0  0  0  0
  190.7840  177.4220  146.0460 C   0  0  0  0  0  2  0  0  0  0  0  0
  191.1160  175.5810  147.5100 O   0  0  0  0  0  1  0  0  0  0  0  0
  187.6680  176.7200  143.9100 C   0  0  0  0  0  2  0  0  0  0  0  0
  184.8650  178.6280  145.6520 C   0  0  0  0  0  0  0  0  0  0  0  0
  187.5650  177.7930  146.1620 C   0  0  0  0  0  2  0  0  0  0  0  0
  186.6700  178.2970  147.2600 C   0  0  0  0  0  3  0  0  0  0  0  0
  185.6920  178.0870  144.5210 C   0  0  0  0  0  2  0  0  0  0  0  0
  185.4260  178.7080  147.0110 C   0  0  0  0  0  3  0  0  0  0  0  0
  183.6970  179.0420  145.4300 O   0  0  0  0  0  0  0  0  0  0  0  0
  186.7530  177.1230  145.0490 C   0  0  1  0  0  3  0  0  0  0  0  0
  1  4  2  0  0  0  0
  2  1  1  0  0  0  0
  3  1  1  0  0  0  0
  3 30  1  1  0  0  0
  5  8  1  6  0  0  0
  5  3  1  0  0  0  0
  6  2  1  0  0  0  0
  7  5  1  0  0  0  0
  7  2  2  0  0  0  0
 10 11  1  0  0  0  0
 10  9  1  0  0  0  0
 10  7  1  1  0  0  0
 11 12  1  6  0  0  0
 11  9  1  0  0  0  0
 12 16  1  0  0  0  0
 13 12  1  0  0  0  0
 14 12  1  0  0  0  0
 16 17  1  0  0  0  0
 16 15  2  0  0  0  0
 17 19  1  0  0  0  0
 18 17  2  0  0  0  0
 19 21  1  0  0  0  0
 21 20  2  0  0  0  0
 21 23  1  0  0  0  0
 22 21  2  0  0  0  0
 24 27  1  1  0  0  0
 25 23  1  0  0  0  0
 25 24  1  0  0  0  0
 26 25  1  0  0  0  0
 26 24  1  0  0  0  0
 28 27  1  0  0  0  0
 30 29  1  1  0  0  0
 31 30  1  6  0  0  0
 31 36  1  0  0  0  0
 32 31  1  0  0  0  0
 33 32  1  0  0  0  0
 33 34  1  1  0  0  0
 35 33  1  0  0  0  0
 35 32  1  0  0  0  0
 36 37  1  0  0  0  0
 36 45  1  6  0  0  0
 37 38  1  1  0  0  0
 39 41  1  0  0  0  0
 40 42  1  0  0  0  0
 40 39  1  0  0  0  0
 41 44  1  1  0  0  0
 42 37  1  6  0  0  0
 42 43  1  0  0  0  0
 43 41  1  0  0  0  0
 46 50  1  0  0  0  0
 47 48  1  0  0  0  0
 49 52  1  0  0  0  0
 49 46  1  0  0  0  0
 50 48  2  0  0  0  0
 51 46  2  0  0  0  0
 52 45  1  6  0  0  0
 52 47  1  0  0  0  0
M  END
>  <MODEL>
6

>  <REMARK>
 VINA RESULT:      -7.1      2.542      6.372
  Name = 
  16 active torsions:
  status: ('A' for Active; 'I' for Inactive)
    1  A    between atoms: N_1  and  C_11
    2  A    between atoms: C_3  and  C_20
    3  A    between atoms: C_9  and  C_29
    4  A    between atoms: C_9  and  C_52
    5  A    between atoms: C_11  and  C_42
    6  A    between atoms: C_11  and  C_52
    7  A    between atoms: C_12  and  C_45
    8  A    between atoms: C_16  and  C_42
    9  A    between atoms: C_20  and  C_23
   10  A    between atoms: C_21  and  S_46
   11  A    between atoms: C_23  and  C_34
   12  A    between atoms: S_28  and  C_43
   13  A    between atoms: S_28  and  N_47
   14  A    between atoms: N_35  and  C_43
   15  A    between atoms: C_37  and  C_48
   16  A    between atoms: C_37  and  C_52
                            x       y       z     vdW  Elec       q    Type
                         _______ _______ _______ _____ _____    ______ ____

>  <TORSDO>
F 16

$$$$
=
 OpenBabel11062415143D

 52 57  0  0  1  0  0  0  0  0999 V2000
  191.7760  177.3500  140.1000 C   0  0  0  0  0  0  0  0  0  0  0  0
  191.8760  176.7060  138.8170 C   0  0  0  0  0  0  0  0  0  0  0  0
  190.3620  177.7280  140.3880 C   0  0  1  0  0  3  0  0  0  0  0  0
  192.7500  177.5750  140.8640 O   0  0  0  0  0  0  0  0  0  0  0  0
  189.6640  177.4250  139.0470 C   0  0  2  0  0  3  0  0  0  0  0  0
  193.0450  176.0600  138.3190 N   0  0  0  0  0  1  0  0  0  0  0  0
  190.6970  176.6940  138.2230 C   0  0  0  0  0  0  0  0  0  0  0  0
  189.2900  178.7290  138.3650 C   0  0  0  0  0  1  0  0  0  0  0  0
  190.5430  174.4590  137.2220 C   0  0  0  0  0  2  0  0  0  0  0  0
  190.4400  175.9470  136.9440 C   0  0  1  0  0  3  0  0  0  0  0  0
  189.1820  175.0940  137.0070 C   0  0  1  0  0  3  0  0  0  0  0  0
  188.5730  174.8210  135.6070 C   0  0  0  0  0  0  0  0  0  0  0  0
  189.5780  173.9960  134.8190 C   0  0  0  0  0  1  0  0  0  0  0  0
  188.3160  176.0850  134.7760 C   0  0  0  0  0  1  0  0  0  0  0  0
  187.2410  172.8250  135.3860 O   0  0  0  0  0  0  0  0  0  0  0  0
  187.2860  174.0290  135.7640 C   0  0  0  0  0  0  0  0  0  0  0  0
  186.0590  174.6260  136.3330 C   0  0  0  0  0  0  0  0  0  0  0  0
  186.1220  175.7540  136.8920 O   0  0  0  0  0  0  0  0  0  0  0  0
  184.8060  173.9440  136.2410 N   0  0  0  0  0  2  0  0  0  0  0  0
  183.1630  175.9970  135.9560 O   0  0  0  0  0  0  0  0  0  0  0  0
  183.3040  174.6830  136.6770 S   0  0  0  0  0  0  0  0  0  0  0  0
  183.2500  174.9110  138.1620 O   0  0  0  0  0  0  0  0  0  0  0  0
  181.9700  173.6090  136.2070 C   0  0  0  0  0  2  0  0  0  0  0  0
  180.6960  171.6410  136.9970 C   0  0  2  0  0  3  0  0  0  0  0  0
  181.9350  172.4630  137.1030 N   0  0  0  0  0  0  0  0  0  0  0  0
  181.8900  171.2740  136.2380 C   0  0  0  0  0  2  0  0  0  0  0  0
  179.4070  172.2840  135.8590 S   0  0  0  0  0  0  0  0  0  0  0  0
  178.9540  170.6130  135.3260 C   0  0  0  0  0  1  0  0  0  0  0  0
  190.4970  175.6670  141.6560 O   0  0  0  0  0  1  0  0  0  0  0  0
  189.7490  176.8280  141.4650 C   0  0  1  0  0  3  0  0  0  0  0  0
  189.5750  177.5900  142.7840 C   0  0  1  0  0  3  0  0  0  0  0  0
  190.5600  178.6610  142.8950 N   0  0  0  0  0  0  0  0  0  0  0  0
  190.7750  178.9130  144.2980 C   0  0  2  0  0  3  0  0  0  0  0  0
  191.3210  180.1840  144.4630 O   0  0  0  0  0  1  0  0  0  0  0  0
  191.6390  178.1420  143.5910 O   0  0  0  0  0  0  0  0  0  0  0  0
  188.1250  178.0730  143.0080 C   0  0  2  0  0  3  0  0  0  0  0  0
  187.1210  176.9700  143.4000 C   0  0  1  0  0  3  0  0  0  0  0  0
  187.6890  175.6980  143.2750 O   0  0  0  0  0  1  0  0  0  0  0  0
  187.3860  178.5890  146.6250 C   0  0  0  0  0  2  0  0  0  0  0  0
  187.6990  177.3420  145.8170 C   0  0  0  0  0  2  0  0  0  0  0  0
  185.9600  178.9800  146.2950 C   0  0  1  0  0  3  0  0  0  0  0  0
  186.5750  177.1690  144.8170 C   0  0  1  0  0  3  0  0  0  0  0  0
  185.6860  178.3940  144.9300 C   0  0  0  0  0  2  0  0  0  0  0  0
  185.0930  178.4090  147.2300 O   0  0  0  0  0  1  0  0  0  0  0  0
  187.6570  178.7980  141.7550 C   0  0  0  0  0  2  0  0  0  0  0  0
  184.5980  178.3070  139.5360 C   0  0  0  0  0  0  0  0  0  0  0  0
  185.2380  179.2600  142.1670 C   0  0  0  0  0  2  0  0  0  0  0  0
  183.8250  178.9480  141.7600 C   0  0  0  0  0  3  0  0  0  0  0  0
  186.0340  178.5520  139.8970 C   0  0  0  0  0  2  0  0  0  0  0  0
  183.5320  178.5320  140.5270 C   0  0  0  0  0  3  0  0  0  0  0  0
  184.3010  177.9360  138.3710 O   0  0  0  0  0  0  0  0  0  0  0  0
  186.2410  178.3910  141.4020 C   0  0  1  0  0  3  0  0  0  0  0  0
  1  3  1  0  0  0  0
  1  4  2  0  0  0  0
  2  1  1  0  0  0  0
  3 30  1  1  0  0  0
  5  8  1  6  0  0  0
  5  3  1  0  0  0  0
  6  2  1  0  0  0  0
  7  2  2  0  0  0  0
  7  5  1  0  0  0  0
 10 11  1  0  0  0  0
 10  9  1  0  0  0  0
 10  7  1  1  0  0  0
 11 12  1  6  0  0  0
 11  9  1  0  0  0  0
 12 16  1  0  0  0  0
 13 12  1  0  0  0  0
 14 12  1  0  0  0  0
 15 16  2  0  0  0  0
 16 17  1  0  0  0  0
 17 18  2  0  0  0  0
 19 17  1  0  0  0  0
 19 21  1  0  0  0  0
 20 21  2  0  0  0  0
 21 22  2  0  0  0  0
 23 21  1  0  0  0  0
 23 25  1  0  0  0  0
 24 27  1  6  0  0  0
 24 25  1  0  0  0  0
 26 24  1  0  0  0  0
 26 25  1  0  0  0  0
 28 27  1  0  0  0  0
 30 29  1  1  0  0  0
 31 30  1  6  0  0  0
 31 32  1  0  0  0  0
 31 36  1  0  0  0  0
 32 35  1  0  0  0  0
 32 33  1  0  0  0  0
 33 34  1  6  0  0  0
 35 33  1  0  0  0  0
 36 45  1  6  0  0  0
 36 37  1  0  0  0  0
 37 38  1  1  0  0  0
 40 39  1  0  0  0  0
 41 39  1  0  0  0  0
 41 44  1  1  0  0  0
 42 37  1  6  0  0  0
 42 43  1  0  0  0  0
 42 40  1  0  0  0  0
 43 41  1  0  0  0  0
 46 49  1  0  0  0  0
 46 50  1  0  0  0  0
 48 47  1  0  0  0  0
 49 52  1  0  0  0  0
 50 48  2  0  0  0  0
 51 46  2  0  0  0  0
 52 45  1  6  0  0  0
 52 47  1  0  0  0  0
M  END
>  <MODEL>
7

>  <REMARK>
 VINA RESULT:      -6.9      2.993      7.269
  Name = 
  16 active torsions:
  status: ('A' for Active; 'I' for Inactive)
    1  A    between atoms: N_1  and  C_11
    2  A    between atoms: C_3  and  C_20
    3  A    between atoms: C_9  and  C_29
    4  A    between atoms: C_9  and  C_52
    5  A    between atoms: C_11  and  C_42
    6  A    between atoms: C_11  and  C_52
    7  A    between atoms: C_12  and  C_45
    8  A    between atoms: C_16  and  C_42
    9  A    between atoms: C_20  and  C_23
   10  A    between atoms: C_21  and  S_46
   11  A    between atoms: C_23  and  C_34
   12  A    between atoms: S_28  and  C_43
   13  A    between atoms: S_28  and  N_47
   14  A    between atoms: N_35  and  C_43
   15  A    between atoms: C_37  and  C_48
   16  A    between atoms: C_37  and  C_52
                            x       y       z     vdW  Elec       q    Type
                         _______ _______ _______ _____ _____    ______ ____

>  <TORSDO>
F 16

$$$$
=
 OpenBabel11062415143D

 52 57  0  0  1  0  0  0  0  0999 V2000
  190.6080  176.6730  138.6930 C   0  0  0  0  0  0  0  0  0  0  0  0
  190.1570  175.8150  137.6300 C   0  0  0  0  0  0  0  0  0  0  0  0
  189.4640  177.4410  139.2680 C   0  0  1  0  0  3  0  0  0  0  0  0
  191.8040  176.7730  139.0730 O   0  0  0  0  0  0  0  0  0  0  0  0
  188.3200  177.0980  138.2940 C   0  0  2  0  0  3  0  0  0  0  0  0
  190.9540  174.8190  136.9940 N   0  0  0  0  0  1  0  0  0  0  0  0
  188.8670  176.0000  137.4150 C   0  0  0  0  0  0  0  0  0  0  0  0
  187.9910  178.3170  137.4510 C   0  0  0  0  0  1  0  0  0  0  0  0
  188.0290  173.7240  137.0410 C   0  0  0  0  0  2  0  0  0  0  0  0
  188.0690  175.1340  136.4810 C   0  0  1  0  0  3  0  0  0  0  0  0
  186.7940  174.6030  137.1210 C   0  0  1  0  0  3  0  0  0  0  0  0
  185.7020  174.2520  136.0780 C   0  0  0  0  0  0  0  0  0  0  0  0
  186.3170  173.2950  135.0680 C   0  0  0  0  0  1  0  0  0  0  0  0
  185.1940  175.4540  135.2700 C   0  0  0  0  0  1  0  0  0  0  0  0
  184.7380  172.4940  137.4150 O   0  0  0  0  0  0  0  0  0  0  0  0
  184.5400  173.5660  136.7780 C   0  0  0  0  0  0  0  0  0  0  0  0
  183.1640  174.1010  136.7250 C   0  0  0  0  0  0  0  0  0  0  0  0
  182.3980  173.7460  135.7890 O   0  0  0  0  0  0  0  0  0  0  0  0
  182.6930  175.0020  137.7310 N   0  0  0  0  0  2  0  0  0  0  0  0
  180.1810  174.2700  138.1140 O   0  0  0  0  0  0  0  0  0  0  0  0
  181.0350  175.4810  137.8560 S   0  0  0  0  0  0  0  0  0  0  0  0
  180.5920  176.1520  136.5860 O   0  0  0  0  0  0  0  0  0  0  0  0
  180.8600  176.6230  139.2050 C   0  0  0  0  0  2  0  0  0  0  0  0
  181.8370  178.6900  140.1480 C   0  0  2  0  0  3  0  0  0  0  0  0
  181.9850  177.5460  139.2050 N   0  0  0  0  0  0  0  0  0  0  0  0
  182.5580  177.4870  140.5580 C   0  0  0  0  0  2  0  0  0  0  0  0
  180.2340  178.7900  141.0360 S   0  0  0  0  0  0  0  0  0  0  0  0
  181.0490  179.2460  142.5880 C   0  0  0  0  0  1  0  0  0  0  0  0
  190.1780  176.3570  141.3150 O   0  0  0  0  0  1  0  0  0  0  0  0
  189.0860  176.9230  140.6580 C   0  0  1  0  0  3  0  0  0  0  0  0
  188.4540  178.0350  141.5060 C   0  0  1  0  0  3  0  0  0  0  0  0
  187.0010  178.0200  141.3730 N   0  0  0  0  0  0  0  0  0  0  0  0
  186.5340  179.3750  141.5360 C   0  0  2  0  0  3  0  0  0  0  0  0
  185.1840  179.3630  141.8780 O   0  0  0  0  0  1  0  0  0  0  0  0
  186.6880  178.8380  140.3000 O   0  0  0  0  0  0  0  0  0  0  0  0
  188.9300  178.0090  142.9750 C   0  0  2  0  0  3  0  0  0  0  0  0
  190.3760  177.5160  143.1860 C   0  0  1  0  0  3  0  0  0  0  0  0
  191.2770  178.5850  143.2270 O   0  0  0  0  0  1  0  0  0  0  0  0
  192.3850  175.3190  145.2430 C   0  0  0  0  0  2  0  0  0  0  0  0
  191.3080  175.4020  144.1770 C   0  0  0  0  0  2  0  0  0  0  0  0
  192.0470  176.3600  146.2910 C   0  0  1  0  0  3  0  0  0  0  0  0
  190.5110  176.6610  144.4490 C   0  0  1  0  0  3  0  0  0  0  0  0
  191.2120  177.3960  145.5760 C   0  0  0  0  0  2  0  0  0  0  0  0
  191.2890  175.7690  147.3050 O   0  0  0  0  0  1  0  0  0  0  0  0
  187.9570  177.1660  143.7850 C   0  0  0  0  0  2  0  0  0  0  0  0
  187.0400  178.2110  147.3340 C   0  0  0  0  0  0  0  0  0  0  0  0
  185.7800  177.8850  144.7740 C   0  0  0  0  0  2  0  0  0  0  0  0
  185.1080  178.6200  145.9000 C   0  0  0  0  0  3  0  0  0  0  0  0
  187.7850  177.5110  146.2340 C   0  0  0  0  0  2  0  0  0  0  0  0
  185.6880  178.7440  147.0950 C   0  0  0  0  0  3  0  0  0  0  0  0
  187.5620  178.3170  148.4740 O   0  0  0  0  0  0  0  0  0  0  0  0
  187.3050  178.0010  144.8690 C   0  0  1  0  0  3  0  0  0  0  0  0
  1  4  2  0  0  0  0
  1  3  1  0  0  0  0
  2  1  1  0  0  0  0
  3 30  1  1  0  0  0
  5  8  1  6  0  0  0
  5  3  1  0  0  0  0
  6  2  1  0  0  0  0
  7  2  2  0  0  0  0
  7  5  1  0  0  0  0
  9 11  1  0  0  0  0
 10  9  1  0  0  0  0
 10 11  1  0  0  0  0
 10  7  1  1  0  0  0
 11 12  1  6  0  0  0
 12 16  1  0  0  0  0
 13 12  1  0  0  0  0
 14 12  1  0  0  0  0
 16 15  2  0  0  0  0
 17 16  1  0  0  0  0
 17 19  1  0  0  0  0
 18 17  2  0  0  0  0
 19 21  1  0  0  0  0
 21 20  2  0  0  0  0
 21 23  1  0  0  0  0
 22 21  2  0  0  0  0
 23 25  1  0  0  0  0
 24 26  1  0  0  0  0
 24 27  1  1  0  0  0
 25 24  1  0  0  0  0
 25 26  1  0  0  0  0
 27 28  1  0  0  0  0
 30 29  1  1  0  0  0
 31 30  1  6  0  0  0
 31 36  1  0  0  0  0
 32 31  1  0  0  0  0
 32 33  1  0  0  0  0
 33 34  1  1  0  0  0
 35 32  1  0  0  0  0
 35 33  1  0  0  0  0
 36 37  1  0  0  0  0
 36 45  1  1  0  0  0
 37 38  1  1  0  0  0
 39 41  1  0  0  0  0
 40 42  1  0  0  0  0
 40 39  1  0  0  0  0
 41 44  1  1  0  0  0
 42 37  1  6  0  0  0
 42 43  1  0  0  0  0
 43 41  1  0  0  0  0
 46 51  2  0  0  0  0
 47 52  1  0  0  0  0
 47 48  1  0  0  0  0
 48 50  2  0  0  0  0
 49 46  1  0  0  0  0
 50 46  1  0  0  0  0
 52 45  1  6  0  0  0
 52 49  1  0  0  0  0
M  END
>  <MODEL>
8

>  <REMARK>
 VINA RESULT:      -6.9      2.261      5.933
  Name = 
  16 active torsions:
  status: ('A' for Active; 'I' for Inactive)
    1  A    between atoms: N_1  and  C_11
    2  A    between atoms: C_3  and  C_20
    3  A    between atoms: C_9  and  C_29
    4  A    between atoms: C_9  and  C_52
    5  A    between atoms: C_11  and  C_42
    6  A    between atoms: C_11  and  C_52
    7  A    between atoms: C_12  and  C_45
    8  A    between atoms: C_16  and  C_42
    9  A    between atoms: C_20  and  C_23
   10  A    between atoms: C_21  and  S_46
   11  A    between atoms: C_23  and  C_34
   12  A    between atoms: S_28  and  C_43
   13  A    between atoms: S_28  and  N_47
   14  A    between atoms: N_35  and  C_43
   15  A    between atoms: C_37  and  C_48
   16  A    between atoms: C_37  and  C_52
                            x       y       z     vdW  Elec       q    Type
                         _______ _______ _______ _____ _____    ______ ____

>  <TORSDO>
F 16

$$$$
=
 OpenBabel11062415143D

 52 57  0  0  1  0  0  0  0  0999 V2000
  185.1700  178.7580  139.8020 C   0  0  0  0  0  0  0  0  0  0  0  0
  185.6110  178.9910  141.1510 C   0  0  0  0  0  0  0  0  0  0  0  0
  183.6820  178.6470  139.7480 C   0  0  1  0  0  3  0  0  0  0  0  0
  185.9340  178.6480  138.8080 O   0  0  0  0  0  0  0  0  0  0  0  0
  183.3030  178.6330  141.2420 C   0  0  2  0  0  3  0  0  0  0  0  0
  186.9460  179.3260  141.5240 N   0  0  0  0  0  1  0  0  0  0  0  0
  184.5800  178.9710  141.9750 C   0  0  0  0  0  0  0  0  0  0  0  0
  182.8380  177.2420  141.6340 C   0  0  0  0  0  1  0  0  0  0  0  0
  183.4930  178.7830  144.1670 C   0  0  0  0  0  2  0  0  0  0  0  0
  184.6930  179.3450  143.4260 C   0  0  1  0  0  3  0  0  0  0  0  0
  184.8540  178.1320  144.3320 C   0  0  1  0  0  3  0  0  0  0  0  0
  185.5580  178.4740  145.6700 C   0  0  0  0  0  0  0  0  0  0  0  0
  184.5550  178.2520  146.7910 C   0  0  0  0  0  1  0  0  0  0  0  0
  186.0090  179.9370  145.7870 C   0  0  0  0  0  1  0  0  0  0  0  0
  186.6620  176.5880  146.6850 O   0  0  0  0  0  0  0  0  0  0  0  0
  186.7450  177.5450  145.8660 C   0  0  0  0  0  0  0  0  0  0  0  0
  188.0190  177.7330  145.1400 C   0  0  0  0  0  0  0  0  0  0  0  0
  188.9900  178.2810  145.7280 O   0  0  0  0  0  0  0  0  0  0  0  0
  188.1600  177.2870  143.7900 N   0  0  0  0  0  2  0  0  0  0  0  0
  190.5230  176.1370  143.4920 O   0  0  0  0  0  0  0  0  0  0  0  0
  189.6810  177.2660  142.9650 S   0  0  0  0  0  0  0  0  0  0  0  0
  190.3990  178.5720  143.1700 O   0  0  0  0  0  0  0  0  0  0  0  0
  189.3980  177.0280  141.2280 C   0  0  0  0  0  2  0  0  0  0  0  0
  190.5860  176.4220  139.1450 C   0  0  2  0  0  3  0  0  0  0  0  0
  190.5550  176.3770  140.6340 N   0  0  0  0  0  0  0  0  0  0  0  0
  191.2960  177.4320  139.9270 C   0  0  0  0  0  2  0  0  0  0  0  0
  189.1190  177.1760  138.3400 S   0  0  0  0  0  0  0  0  0  0  0  0
  189.9080  177.1240  136.7100 C   0  0  0  0  0  1  0  0  0  0  0  0
  184.0150  180.8090  138.7040 O   0  0  0  0  0  1  0  0  0  0  0  0
  183.0510  179.8830  139.1010 C   0  0  1  0  0  3  0  0  0  0  0  0
  182.1530  179.4880  137.9230 C   0  0  1  0  0  3  0  0  0  0  0  0
  182.2710  178.0610  137.6400 N   0  0  0  0  0  0  0  0  0  0  0  0
  182.2720  177.8980  136.2070 C   0  0  2  0  0  3  0  0  0  0  0  0
  181.9190  176.5890  135.8890 O   0  0  0  0  0  1  0  0  0  0  0  0
  183.4340  177.8930  136.9080 O   0  0  0  0  0  0  0  0  0  0  0  0
  180.6910  179.9530  138.1040 C   0  0  2  0  0  3  0  0  0  0  0  0
  179.7500  178.9150  138.7470 C   0  0  1  0  0  3  0  0  0  0  0  0
  180.3930  177.6860  138.9230 O   0  0  0  0  0  1  0  0  0  0  0  0
  179.6190  178.6470  142.3540 C   0  0  0  0  0  2  0  0  0  0  0  0
  178.9610  178.2590  141.0420 C   0  0  0  0  0  2  0  0  0  0  0  0
  179.9700  180.1170  142.2510 C   0  0  1  0  0  3  0  0  0  0  0  0
  179.1790  179.4080  140.0800 C   0  0  1  0  0  3  0  0  0  0  0  0
  180.0950  180.4010  140.7730 C   0  0  0  0  0  2  0  0  0  0  0  0
  178.9310  180.8820  142.7870 O   0  0  0  0  0  1  0  0  0  0  0  0
  180.1520  180.3940  136.7520 C   0  0  0  0  0  2  0  0  0  0  0  0
  181.5450  183.9180  137.1680 C   0  0  0  0  0  0  0  0  0  0  0  0
  179.8610  182.4500  135.3640 C   0  0  0  0  0  2  0  0  0  0  0  0
  180.4210  183.7980  135.0050 C   0  0  0  0  0  3  0  0  0  0  0  0
  181.0590  182.5540  137.5650 C   0  0  0  0  0  2  0  0  0  0  0  0
  181.1800  184.4860  135.8580 C   0  0  0  0  0  3  0  0  0  0  0  0
  182.2440  184.5900  137.9690 O   0  0  0  0  0  0  0  0  0  0  0  0
  180.7890  181.7010  136.3260 C   0  0  1  0  0  3  0  0  0  0  0  0
  1  2  1  0  0  0  0
  2  6  1  0  0  0  0
  2  7  2  0  0  0  0
  3 30  1  6  0  0  0
  3  1  1  0  0  0  0
  3  5  1  0  0  0  0
  4  1  2  0  0  0  0
  5  8  1  1  0  0  0
  5  7  1  0  0  0  0
  9 11  1  0  0  0  0
 10  7  1  6  0  0  0
 10  9  1  0  0  0  0
 10 11  1  0  0  0  0
 11 12  1  1  0  0  0
 12 14  1  0  0  0  0
 12 16  1  0  0  0  0
 12 13  1  0  0  0  0
 16 15  2  0  0  0  0
 17 18  2  0  0  0  0
 17 16  1  0  0  0  0
 19 17  1  0  0  0  0
 21 22  2  0  0  0  0
 21 20  2  0  0  0  0
 21 19  1  0  0  0  0
 23 21  1  0  0  0  0
 24 27  1  1  0  0  0
 24 26  1  0  0  0  0
 24 25  1  0  0  0  0
 25 23  1  0  0  0  0
 26 25  1  0  0  0  0
 28 27  1  0  0  0  0
 30 29  1  6  0  0  0
 31 36  1  1  0  0  0
 31 30  1  0  0  0  0
 32 31  1  0  0  0  0
 33 34  1  1  0  0  0
 33 35  1  0  0  0  0
 33 32  1  0  0  0  0
 35 32  1  0  0  0  0
 36 45  1  6  0  0  0
 36 37  1  0  0  0  0
 37 38  1  1  0  0  0
 40 39  1  0  0  0  0
 41 39  1  0  0  0  0
 41 44  1  6  0  0  0
 42 37  1  6  0  0  0
 42 43  1  0  0  0  0
 42 40  1  0  0  0  0
 43 41  1  0  0  0  0
 46 49  1  0  0  0  0
 46 51  2  0  0  0  0
 47 52  1  0  0  0  0
 48 47  1  0  0  0  0
 48 50  2  0  0  0  0
 50 46  1  0  0  0  0
 52 45  1  1  0  0  0
 52 49  1  0  0  0  0
M  END
>  <MODEL>
9

>  <REMARK>
 VINA RESULT:      -6.8      2.669      9.065
  Name = 
  16 active torsions:
  status: ('A' for Active; 'I' for Inactive)
    1  A    between atoms: N_1  and  C_11
    2  A    between atoms: C_3  and  C_20
    3  A    between atoms: C_9  and  C_29
    4  A    between atoms: C_9  and  C_52
    5  A    between atoms: C_11  and  C_42
    6  A    between atoms: C_11  and  C_52
    7  A    between atoms: C_12  and  C_45
    8  A    between atoms: C_16  and  C_42
    9  A    between atoms: C_20  and  C_23
   10  A    between atoms: C_21  and  S_46
   11  A    between atoms: C_23  and  C_34
   12  A    between atoms: S_28  and  C_43
   13  A    between atoms: S_28  and  N_47
   14  A    between atoms: N_35  and  C_43
   15  A    between atoms: C_37  and  C_48
   16  A    between atoms: C_37  and  C_52
                            x       y       z     vdW  Elec       q    Type
                         _______ _______ _______ _____ _____    ______ ____

>  <TORSDO>
F 16

$$$$
