=
 OpenBabel11062412443D

 32 35  0  0  1  0  0  0  0  0999 V2000
  188.9920  177.3020  140.1070 C   0  0  1  0  0  3  0  0  0  0  0  0
  191.4910  177.6100  139.5990 C   0  0  1  0  0  3  0  0  0  0  0  0
  186.1820  177.4260  142.9980 C   0  0  0  0  0  2  0  0  0  0  0  0
  187.7270  178.8410  141.7420 C   0  0  1  0  0  3  0  0  0  0  0  0
  187.9210  178.3780  140.2950 C   0  0  0  0  0  2  0  0  0  0  0  0
  188.6080  177.1260  143.3400 C   0  0  0  0  0  3  0  0  0  0  0  0
  190.1400  175.6960  138.5660 C   0  0  2  0  0  3  0  0  0  0  0  0
  190.7230  176.9490  141.9370 C   0  0  2  0  0  3  0  0  0  0  0  0
  190.4790  175.5760  141.8130 O   0  0  0  0  0  1  0  0  0  0  0  0
  190.0460  177.5410  143.1760 C   0  0  2  0  0  3  0  0  0  0  0  0
  185.4040  178.4290  142.2760 N   0  0  0  0  0  2  0  0  0  0  0  0
  186.3480  179.4640  141.8450 C   0  0  0  0  0  2  0  0  0  0  0  0
  192.7380  177.9190  140.1470 O   0  0  0  0  0  1  0  0  0  0  0  0
  187.5970  177.6990  142.6760 C   0  0  0  0  0  0  0  0  0  0  0  0
  189.0040  176.7290  138.6790 C   0  0  2  0  0  3  0  0  0  0  0  0
  191.5370  176.2460  138.9020 C   0  0  0  0  0  2  0  0  0  0  0  0
  190.3760  177.7160  140.6540 C   0  0  2  0  0  3  0  0  0  0  0  0
  190.1070  174.9050  137.2910 C   0  0  0  0  0  0  0  0  0  0  0  0
  189.4750  173.7530  137.0940 C   0  0  0  0  0  2  0  0  0  0  0  0
  190.8670  175.1860  136.0860 C   0  0  0  0  0  0  0  0  0  0  0  0
  190.6830  174.1330  135.1550 N   0  0  0  0  0  0  0  0  0  0  0  0
  191.8500  176.0200  136.0160 N   0  0  0  0  0  1  0  0  0  0  0  0
  189.4130  172.1210  135.1360 N   0  0  0  0  0  1  0  0  0  0  0  0
  189.8560  173.3300  135.7400 C   0  0  0  0  0  0  0  0  0  0  0  0
  190.9820  177.0950  144.6690 P   0  0  0  0  0  0  0  0  0  0  0  0
  189.9150  176.9290  145.9720 O   0  0  0  0  0  1  0  0  0  0  0  0
  191.7960  175.6340  144.4220 O   0  0  0  0  0  0  0  0  0  0  0  0
  191.9830  178.1830  144.9810 O   0  0  0  0  0  1  0  0  0  0  0  0
  189.1000  177.8330  137.6160 C   0  0  0  0  0  2  0  0  0  0  0  0
  188.0180  177.7480  136.7000 O   0  0  0  0  0  0  0  0  0  0  0  0
  186.9240  176.9320  136.9650 C   0  0  0  0  0  3  0  0  0  0  0  0
  185.7470  177.4720  137.2350 C   0  0  0  0  0  2  0  0  0  0  0  0
  1  5  1  6  0  0  0
  1 17  1  0  0  0  0
  2 13  1  1  0  0  0
  2 17  1  0  0  0  0
  4  5  1  6  0  0  0
  4 12  1  0  0  0  0
  4 14  1  0  0  0  0
  7 18  1  6  0  0  0
  7 15  1  0  0  0  0
  7 16  1  0  0  0  0
  8  9  1  6  0  0  0
  8 10  1  0  0  0  0
 10  6  1  0  0  0  0
 10 25  1  1  0  0  0
 11  3  1  0  0  0  0
 12 11  1  0  0  0  0
 14  3  1  0  0  0  0
 14  6  2  0  0  0  0
 15 29  1  6  0  0  0
 15  1  1  0  0  0  0
 16  2  1  0  0  0  0
 17  8  1  0  0  0  0
 19 18  1  0  0  0  0
 20 18  2  0  0  0  0
 21 24  2  0  0  0  0
 21 20  1  0  0  0  0
 22 20  1  0  0  0  0
 23 24  1  0  0  0  0
 24 19  1  0  0  0  0
 25 28  1  0  0  0  0
 25 26  1  0  0  0  0
 27 25  2  0  0  0  0
 30 31  1  0  0  0  0
 30 29  1  0  0  0  0
 31 32  2  0  0  0  0
M  END
>  <MODEL>
1

>  <REMARK>
 VINA RESULT:      -6.0      0.000      0.000
  Name = 
  5 active torsions:
  status: ('A' for Active; 'I' for Inactive)
    1  A    between atoms: P_1  and  C_17
    2  A    between atoms: C_4  and  C_13
    3  A    between atoms: C_5  and  O_28
    4  A    between atoms: C_14  and  C_26
    5  A    between atoms: C_14  and  O_28
                            x       y       z     vdW  Elec       q    Type
                         _______ _______ _______ _____ _____    ______ ____

>  <TORSDO>
F 5

$$$$
=
 OpenBabel11062412443D

 32 35  0  0  1  0  0  0  0  0999 V2000
  186.9120  176.4780  136.8670 C   0  0  1  0  0  3  0  0  0  0  0  0
  187.6770  178.8960  136.4570 C   0  0  1  0  0  3  0  0  0  0  0  0
  183.7610  174.1330  137.7840 C   0  0  0  0  0  2  0  0  0  0  0  0
  184.6340  175.6030  136.0400 C   0  0  1  0  0  3  0  0  0  0  0  0
  186.1600  175.5450  135.9160 C   0  0  0  0  0  2  0  0  0  0  0  0
  183.9660  176.5460  138.2600 C   0  0  0  0  0  3  0  0  0  0  0  0
  189.1110  177.2440  137.7890 C   0  0  2  0  0  3  0  0  0  0  0  0
  185.6640  178.4140  137.9440 C   0  0  2  0  0  3  0  0  0  0  0  0
  186.2510  178.0320  139.1570 O   0  0  0  0  0  1  0  0  0  0  0  0
  184.2000  177.9770  137.8550 C   0  0  2  0  0  3  0  0  0  0  0  0
  183.9140  173.3520  136.5590 N   0  0  0  0  0  2  0  0  0  0  0  0
  184.0770  174.3140  135.4650 C   0  0  0  0  0  2  0  0  0  0  0  0
  187.2690  180.2300  136.4180 O   0  0  0  0  0  1  0  0  0  0  0  0
  184.1890  175.5060  137.4480 C   0  0  0  0  0  0  0  0  0  0  0  0
  188.4310  176.2340  136.8470 C   0  0  2  0  0  3  0  0  0  0  0  0
  188.8310  178.7190  137.4490 C   0  0  0  0  0  2  0  0  0  0  0  0
  186.4890  177.9570  136.7340 C   0  0  2  0  0  3  0  0  0  0  0  0
  190.5650  176.9580  138.0280 C   0  0  0  0  0  0  0  0  0  0  0  0
  191.4980  176.7860  137.0980 C   0  0  0  0  0  3  0  0  0  0  0  0
  191.1860  176.6850  139.3120 C   0  0  0  0  0  0  0  0  0  0  0  0
  192.5400  176.3150  139.1130 N   0  0  0  0  0  0  0  0  0  0  0  0
  190.5410  176.4240  140.4000 N   0  0  0  0  0  2  0  0  0  0  0  0
  193.9520  176.1040  137.2080 N   0  0  0  0  0  1  0  0  0  0  0  0
  192.7110  176.4060  137.8340 C   0  0  0  0  0  0  0  0  0  0  0  0
  183.1610  179.0730  138.8670 P   0  0  0  0  0  0  0  0  0  0  0  0
  183.9590  180.5470  139.0980 O   0  0  0  0  0  1  0  0  0  0  0  0
  181.6870  179.3510  138.0870 O   0  0  0  0  0  0  0  0  0  0  0  0
  182.9060  178.4300  140.2110 O   0  0  0  0  0  1  0  0  0  0  0  0
  189.0030  176.2750  135.4220 C   0  0  0  0  0  2  0  0  0  0  0  0
  189.4590  174.9910  135.0230 O   0  0  0  0  0  0  0  0  0  0  0  0
  189.4980  173.9360  135.9290 C   0  0  0  0  0  3  0  0  0  0  0  0
  190.6530  173.3690  136.2330 C   0  0  0  0  0  2  0  0  0  0  0  0
  1  5  1  6  0  0  0
  2 13  1  1  0  0  0
  2 17  1  0  0  0  0
  2 16  1  0  0  0  0
  4 12  1  6  0  0  0
  4 14  1  0  0  0  0
  5  4  1  0  0  0  0
  7 18  1  6  0  0  0
  8  9  1  1  0  0  0
 10  8  1  0  0  0  0
 10  6  1  0  0  0  0
 10 25  1  1  0  0  0
 11  3  1  0  0  0  0
 12 11  1  0  0  0  0
 14  3  1  0  0  0  0
 14  6  2  0  0  0  0
 15 29  1  6  0  0  0
 15  1  1  0  0  0  0
 15  7  1  0  0  0  0
 16  7  1  0  0  0  0
 17  1  1  0  0  0  0
 17  8  1  0  0  0  0
 18 20  1  0  0  0  0
 19 24  1  0  0  0  0
 19 18  2  0  0  0  0
 20 22  2  0  0  0  0
 21 20  1  0  0  0  0
 23 24  1  0  0  0  0
 24 21  2  0  0  0  0
 25 26  1  0  0  0  0
 25 28  1  0  0  0  0
 27 25  2  0  0  0  0
 30 29  1  0  0  0  0
 30 31  1  0  0  0  0
 31 32  2  0  0  0  0
M  END
>  <MODEL>
2

>  <REMARK>
 VINA RESULT:      -5.5      4.442      6.389
  Name = 
  5 active torsions:
  status: ('A' for Active; 'I' for Inactive)
    1  A    between atoms: P_1  and  C_17
    2  A    between atoms: C_4  and  C_13
    3  A    between atoms: C_5  and  O_28
    4  A    between atoms: C_14  and  C_26
    5  A    between atoms: C_14  and  O_28
                            x       y       z     vdW  Elec       q    Type
                         _______ _______ _______ _____ _____    ______ ____

>  <TORSDO>
F 5

$$$$
=
 OpenBabel11062412443D

 32 35  0  0  1  0  0  0  0  0999 V2000
  187.6410  177.1550  138.1540 C   0  0  1  0  0  3  0  0  0  0  0  0
  187.9250  177.5170  135.6270 C   0  0  1  0  0  3  0  0  0  0  0  0
  189.5930  176.7610  141.6620 C   0  0  0  0  0  2  0  0  0  0  0  0
  189.1150  178.3670  139.8870 C   0  0  1  0  0  3  0  0  0  0  0  0
  187.7200  178.1900  139.2780 C   0  0  0  0  0  2  0  0  0  0  0  0
  190.5410  176.3630  139.4180 C   0  0  0  0  0  3  0  0  0  0  0  0
  186.2100  175.8590  136.5590 C   0  0  2  0  0  3  0  0  0  0  0  0
  189.7830  176.4280  136.9900 C   0  0  2  0  0  3  0  0  0  0  0  0
  189.3370  175.1080  137.1350 O   0  0  0  0  0  1  0  0  0  0  0  0
  190.8700  176.7790  138.0100 C   0  0  2  0  0  3  0  0  0  0  0  0
  188.8850  177.8960  142.2480 N   0  0  0  0  0  2  0  0  0  0  0  0
  188.9420  178.9800  141.2630 C   0  0  0  0  0  2  0  0  0  0  0  0
  188.8500  177.6950  134.5970 O   0  0  0  0  0  1  0  0  0  0  0  0
  189.7400  177.0690  140.2260 C   0  0  0  0  0  0  0  0  0  0  0  0
  186.1930  176.8690  137.7220 C   0  0  2  0  0  3  0  0  0  0  0  0
  187.0240  176.3130  135.3340 C   0  0  0  0  0  2  0  0  0  0  0  0
  188.6240  177.4340  136.9960 C   0  0  2  0  0  3  0  0  0  0  0  0
  184.8510  175.3300  136.2040 C   0  0  0  0  0  0  0  0  0  0  0  0
  184.3690  174.1300  136.5040 C   0  0  0  0  0  2  0  0  0  0  0  0
  183.8710  175.9840  135.3540 C   0  0  0  0  0  0  0  0  0  0  0  0
  182.7780  175.1080  135.1330 N   0  0  0  0  0  0  0  0  0  0  0  0
  184.1160  177.0030  134.5990 N   0  0  0  0  0  1  0  0  0  0  0  0
  182.2190  172.9140  135.8690 N   0  0  0  0  0  1  0  0  0  0  0  0
  183.0680  174.0550  135.8270 C   0  0  0  0  0  0  0  0  0  0  0  0
  192.4530  176.0390  137.5100 P   0  0  0  0  0  0  0  0  0  0  0  0
  192.4580  174.3970  137.9190 O   0  0  0  0  0  1  0  0  0  0  0  0
  192.6630  176.2010  135.8410 O   0  0  0  0  0  0  0  0  0  0  0  0
  193.5860  176.7340  138.2300 O   0  0  0  0  0  1  0  0  0  0  0  0
  185.4300  178.1560  137.3780 C   0  0  0  0  0  2  0  0  0  0  0  0
  184.4580  178.4490  138.3710 O   0  0  0  0  0  0  0  0  0  0  0  0
  183.5160  177.4970  138.7470 C   0  0  0  0  0  3  0  0  0  0  0  0
  183.2590  177.2920  140.0280 C   0  0  0  0  0  2  0  0  0  0  0  0
  1  5  1  1  0  0  0
  2 13  1  6  0  0  0
  2 17  1  0  0  0  0
  3 11  1  0  0  0  0
  4  5  1  1  0  0  0
  4 14  1  0  0  0  0
  4 12  1  0  0  0  0
  6 14  2  0  0  0  0
  7 18  1  6  0  0  0
  7 15  1  0  0  0  0
  8 17  1  0  0  0  0
  8  9  1  1  0  0  0
  8 10  1  0  0  0  0
 10 25  1  6  0  0  0
 10  6  1  0  0  0  0
 12 11  1  0  0  0  0
 14  3  1  0  0  0  0
 15 29  1  6  0  0  0
 15  1  1  0  0  0  0
 16  2  1  0  0  0  0
 16  7  1  0  0  0  0
 17  1  1  0  0  0  0
 18 19  1  0  0  0  0
 20 18  2  0  0  0  0
 21 20  1  0  0  0  0
 21 24  2  0  0  0  0
 22 20  1  0  0  0  0
 24 23  1  0  0  0  0
 24 19  1  0  0  0  0
 25 26  1  0  0  0  0
 25 28  1  0  0  0  0
 27 25  2  0  0  0  0
 29 30  1  0  0  0  0
 30 31  1  0  0  0  0
 31 32  2  0  0  0  0
M  END
>  <MODEL>
3

>  <REMARK>
 VINA RESULT:      -5.1      3.924      5.458
  Name = 
  5 active torsions:
  status: ('A' for Active; 'I' for Inactive)
    1  A    between atoms: P_1  and  C_17
    2  A    between atoms: C_4  and  C_13
    3  A    between atoms: C_5  and  O_28
    4  A    between atoms: C_14  and  C_26
    5  A    between atoms: C_14  and  O_28
                            x       y       z     vdW  Elec       q    Type
                         _______ _______ _______ _____ _____    ______ ____

>  <TORSDO>
F 5

$$$$
=
 OpenBabel11062412443D

 32 35  0  0  1  0  0  0  0  0999 V2000
  186.9860  177.8480  139.0150 C   0  0  1  0  0  3  0  0  0  0  0  0
  187.1060  178.6270  136.5700 C   0  0  1  0  0  3  0  0  0  0  0  0
  189.1380  176.4990  142.1480 C   0  0  0  0  0  2  0  0  0  0  0  0
  188.7990  178.4650  140.7400 C   0  0  1  0  0  3  0  0  0  0  0  0
  187.3470  178.6290  140.2800 C   0  0  0  0  0  2  0  0  0  0  0  0
  189.7980  176.3820  139.7730 C   0  0  0  0  0  3  0  0  0  0  0  0
  185.2120  177.1190  137.4040 C   0  0  2  0  0  3  0  0  0  0  0  0
  188.8530  177.0210  137.4980 C   0  0  2  0  0  3  0  0  0  0  0  0
  188.1930  175.7850  137.4700 O   0  0  0  0  0  1  0  0  0  0  0  0
  190.0700  176.9970  138.4260 C   0  0  2  0  0  3  0  0  0  0  0  0
  188.6980  177.6020  142.9970 N   0  0  0  0  0  2  0  0  0  0  0  0
  188.8600  178.8290  142.2110 C   0  0  0  0  0  2  0  0  0  0  0  0
  187.9530  178.8450  135.4820 O   0  0  0  0  0  1  0  0  0  0  0  0
  189.2100  177.0430  140.7770 C   0  0  0  0  0  0  0  0  0  0  0  0
  185.4770  177.8820  138.7150 C   0  0  2  0  0  3  0  0  0  0  0  0
  185.9830  177.6590  136.1860 C   0  0  0  0  0  2  0  0  0  0  0  0
  187.8970  178.1790  137.8120 C   0  0  2  0  0  3  0  0  0  0  0  0
  183.7550  176.8890  137.1280 C   0  0  0  0  0  0  0  0  0  0  0  0
  182.9870  177.5970  136.3070 C   0  0  0  0  0  3  0  0  0  0  0  0
  182.8910  175.9390  137.8080 C   0  0  0  0  0  0  0  0  0  0  0  0
  181.5540  176.1220  137.3740 N   0  0  0  0  0  0  0  0  0  0  0  0
  183.1960  175.3200  138.8990 N   0  0  0  0  0  2  0  0  0  0  0  0
  180.4870  177.5600  135.8060 N   0  0  0  0  0  1  0  0  0  0  0  0
  181.6310  177.0620  136.4890 C   0  0  0  0  0  0  0  0  0  0  0  0
  191.4460  176.1210  137.6240 P   0  0  0  0  0  0  0  0  0  0  0  0
  191.3370  174.4680  137.9700 O   0  0  0  0  0  1  0  0  0  0  0  0
  191.3760  176.3480  135.9500 O   0  0  0  0  0  0  0  0  0  0  0  0
  192.7600  176.6520  138.1500 O   0  0  0  0  0  1  0  0  0  0  0  0
  184.9280  179.3160  138.6870 C   0  0  0  0  0  2  0  0  0  0  0  0
  184.0320  179.5360  139.7660 O   0  0  0  0  0  0  0  0  0  0  0  0
  183.6300  178.4840  140.5820 C   0  0  0  0  0  3  0  0  0  0  0  0
  182.5430  178.6020  141.3250 C   0  0  0  0  0  2  0  0  0  0  0  0
  1  5  1  1  0  0  0
  2 13  1  6  0  0  0
  2 17  1  0  0  0  0
  3 11  1  0  0  0  0
  4  5  1  1  0  0  0
  4 14  1  0  0  0  0
  4 12  1  0  0  0  0
  6 14  2  0  0  0  0
  7 18  1  6  0  0  0
  7 15  1  0  0  0  0
  8  9  1  1  0  0  0
  8 17  1  0  0  0  0
  8 10  1  0  0  0  0
 10 25  1  6  0  0  0
 10  6  1  0  0  0  0
 12 11  1  0  0  0  0
 14  3  1  0  0  0  0
 15 29  1  6  0  0  0
 15  1  1  0  0  0  0
 16  2  1  0  0  0  0
 16  7  1  0  0  0  0
 17  1  1  0  0  0  0
 18 20  1  0  0  0  0
 19 24  1  0  0  0  0
 19 18  2  0  0  0  0
 20 22  2  0  0  0  0
 21 20  1  0  0  0  0
 23 24  1  0  0  0  0
 24 21  2  0  0  0  0
 25 26  1  0  0  0  0
 25 28  1  0  0  0  0
 27 25  2  0  0  0  0
 29 30  1  0  0  0  0
 30 31  1  0  0  0  0
 31 32  2  0  0  0  0
M  END
>  <MODEL>
4

>  <REMARK>
 VINA RESULT:      -4.9      4.069      6.087
  Name = 
  5 active torsions:
  status: ('A' for Active; 'I' for Inactive)
    1  A    between atoms: P_1  and  C_17
    2  A    between atoms: C_4  and  C_13
    3  A    between atoms: C_5  and  O_28
    4  A    between atoms: C_14  and  C_26
    5  A    between atoms: C_14  and  O_28
                            x       y       z     vdW  Elec       q    Type
                         _______ _______ _______ _____ _____    ______ ____

>  <TORSDO>
F 5

$$$$
=
 OpenBabel11062412443D

 32 35  0  0  1  0  0  0  0  0999 V2000
  182.5080  177.2160  138.3150 C   0  0  1  0  0  3  0  0  0  0  0  0
  183.5360  179.5690  138.3960 C   0  0  1  0  0  3  0  0  0  0  0  0
  179.6840  174.8020  139.8860 C   0  0  0  0  0  2  0  0  0  0  0  0
  179.9720  176.8200  138.5410 C   0  0  1  0  0  3  0  0  0  0  0  0
  181.2100  176.7690  137.6410 C   0  0  0  0  0  2  0  0  0  0  0  0
  180.6380  176.8130  140.9540 C   0  0  0  0  0  3  0  0  0  0  0  0
  184.9950  177.4760  138.1700 C   0  0  2  0  0  3  0  0  0  0  0  0
  182.3820  178.5940  140.4480 C   0  0  2  0  0  3  0  0  0  0  0  0
  183.3540  177.7390  140.9820 O   0  0  0  0  0  1  0  0  0  0  0  0
  180.9840  178.2770  140.9860 C   0  0  2  0  0  3  0  0  0  0  0  0
  179.0720  174.5750  138.5790 N   0  0  0  0  0  2  0  0  0  0  0  0
  178.9320  175.8900  137.9460 C   0  0  0  0  0  2  0  0  0  0  0  0
  183.4780  180.8190  139.0150 O   0  0  0  0  0  1  0  0  0  0  0  0
  180.2150  176.1800  139.8530 C   0  0  0  0  0  0  0  0  0  0  0  0
  183.7450  176.9520  137.4390 C   0  0  2  0  0  3  0  0  0  0  0  0
  184.9410  178.9710  138.5310 C   0  0  0  0  0  2  0  0  0  0  0  0
  182.4270  178.6360  138.9160 C   0  0  2  0  0  3  0  0  0  0  0  0
  186.2850  177.0710  137.5180 C   0  0  0  0  0  0  0  0  0  0  0  0
  187.2000  177.8870  137.0070 C   0  0  0  0  0  3  0  0  0  0  0  0
  186.7030  175.7150  137.2090 C   0  0  0  0  0  0  0  0  0  0  0  0
  187.9070  175.7500  136.4620 N   0  0  0  0  0  0  0  0  0  0  0  0
  185.9270  174.6820  137.2410 N   0  0  0  0  0  2  0  0  0  0  0  0
  189.3450  177.4820  135.6890 N   0  0  0  0  0  1  0  0  0  0  0  0
  188.1960  177.0080  136.3800 C   0  0  0  0  0  0  0  0  0  0  0  0
  180.8120  178.9070  142.6820 P   0  0  0  0  0  0  0  0  0  0  0  0
  182.3340  178.9590  143.4190 O   0  0  0  0  0  1  0  0  0  0  0  0
  180.1500  180.4620  142.6540 O   0  0  0  0  0  0  0  0  0  0  0  0
  179.9080  177.9890  143.4730 O   0  0  0  0  0  1  0  0  0  0  0  0
  183.5910  177.5440  136.0300 C   0  0  0  0  0  2  0  0  0  0  0  0
  183.9540  176.5930  135.0400 O   0  0  0  0  0  0  0  0  0  0  0  0
  183.4590  175.2940  135.0850 C   0  0  0  0  0  3  0  0  0  0  0  0
  182.2340  175.0390  134.6580 C   0  0  0  0  0  2  0  0  0  0  0  0
  1  5  1  6  0  0  0
  1 17  1  0  0  0  0
  2 16  1  0  0  0  0
  2 17  1  0  0  0  0
  2 13  1  1  0  0  0
  4  5  1  6  0  0  0
  4 14  1  0  0  0  0
  6 10  1  0  0  0  0
  7 18  1  6  0  0  0
  7 16  1  0  0  0  0
  8  9  1  6  0  0  0
  8 10  1  0  0  0  0
 10 25  1  1  0  0  0
 11  3  1  0  0  0  0
 12  4  1  0  0  0  0
 12 11  1  0  0  0  0
 14  3  1  0  0  0  0
 14  6  2  0  0  0  0
 15 29  1  6  0  0  0
 15  7  1  0  0  0  0
 15  1  1  0  0  0  0
 17  8  1  0  0  0  0
 19 18  2  0  0  0  0
 20 22  2  0  0  0  0
 20 18  1  0  0  0  0
 21 20  1  0  0  0  0
 23 24  1  0  0  0  0
 24 21  2  0  0  0  0
 24 19  1  0  0  0  0
 25 26  1  0  0  0  0
 25 28  1  0  0  0  0
 27 25  2  0  0  0  0
 30 31  1  0  0  0  0
 30 29  1  0  0  0  0
 32 31  2  0  0  0  0
M  END
>  <MODEL>
5

>  <REMARK>
 VINA RESULT:      -4.8      5.531      7.542
  Name = 
  5 active torsions:
  status: ('A' for Active; 'I' for Inactive)
    1  A    between atoms: P_1  and  C_17
    2  A    between atoms: C_4  and  C_13
    3  A    between atoms: C_5  and  O_28
    4  A    between atoms: C_14  and  C_26
    5  A    between atoms: C_14  and  O_28
                            x       y       z     vdW  Elec       q    Type
                         _______ _______ _______ _____ _____    ______ ____

>  <TORSDO>
F 5

$$$$
=
 OpenBabel11062412443D

 32 35  0  0  1  0  0  0  0  0999 V2000
  186.9380  175.2190  136.3930 C   0  0  1  0  0  3  0  0  0  0  0  0
  187.4790  177.4790  135.2980 C   0  0  1  0  0  3  0  0  0  0  0  0
  183.9870  172.6200  137.2930 C   0  0  0  0  0  2  0  0  0  0  0  0
  185.1890  173.6030  135.4080 C   0  0  1  0  0  3  0  0  0  0  0  0
  186.6650  173.8750  135.7150 C   0  0  0  0  0  2  0  0  0  0  0  0
  183.7140  175.0310  136.8400 C   0  0  0  0  0  3  0  0  0  0  0  0
  188.5940  176.7480  137.4840 C   0  0  2  0  0  3  0  0  0  0  0  0
  185.1680  177.0430  136.2800 C   0  0  2  0  0  3  0  0  0  0  0  0
  185.3680  177.2310  137.6540 O   0  0  0  0  0  1  0  0  0  0  0  0
  183.8830  176.2630  135.9910 C   0  0  2  0  0  3  0  0  0  0  0  0
  184.6330  171.5430  136.5470 N   0  0  0  0  0  2  0  0  0  0  0  0
  185.0210  172.1040  135.2500 C   0  0  0  0  0  2  0  0  0  0  0  0
  186.9390  178.5890  134.6450 O   0  0  0  0  0  1  0  0  0  0  0  0
  184.3220  173.8680  136.5780 C   0  0  0  0  0  0  0  0  0  0  0  0
  188.3970  175.3540  136.8630 C   0  0  2  0  0  3  0  0  0  0  0  0
  188.2550  177.9180  136.5440 C   0  0  0  0  0  2  0  0  0  0  0  0
  186.3960  176.4270  135.5970 C   0  0  2  0  0  3  0  0  0  0  0  0
  189.9120  176.9130  138.1820 C   0  0  0  0  0  0  0  0  0  0  0  0
  191.1130  176.6710  137.6680 C   0  0  0  0  0  3  0  0  0  0  0  0
  190.1070  177.2370  139.5850 C   0  0  0  0  0  0  0  0  0  0  0  0
  191.4860  177.1570  139.9020 N   0  0  0  0  0  0  0  0  0  0  0  0
  189.1780  177.2050  140.4820 N   0  0  0  0  0  2  0  0  0  0  0  0
  193.4600  176.6700  138.6630 N   0  0  0  0  0  1  0  0  0  0  0  0
  192.0550  176.8570  138.7790 C   0  0  0  0  0  0  0  0  0  0  0  0
  182.4380  177.3470  136.1970 P   0  0  0  0  0  0  0  0  0  0  0  0
  181.0630  176.4030  136.4810 O   0  0  0  0  0  1  0  0  0  0  0  0
  182.6830  178.3890  137.5050 O   0  0  0  0  0  1  0  0  0  0  0  0
  182.2320  178.1590  134.9380 O   0  0  0  0  0  0  0  0  0  0  0  0
  189.3940  175.0620  135.7320 C   0  0  0  0  0  2  0  0  0  0  0  0
  190.0300  173.8080  135.9290 O   0  0  0  0  0  0  0  0  0  0  0  0
  190.2370  172.9400  134.8620 C   0  0  0  0  0  3  0  0  0  0  0  0
  189.6350  171.7630  134.8420 C   0  0  0  0  0  2  0  0  0  0  0  0
  1  5  1  6  0  0  0
  1 15  1  0  0  0  0
  2 13  1  1  0  0  0
  2 17  1  0  0  0  0
  2 16  1  0  0  0  0
  4 12  1  1  0  0  0
  4  5  1  0  0  0  0
  4 14  1  0  0  0  0
  7 18  1  6  0  0  0
  8  9  1  1  0  0  0
 10 25  1  1  0  0  0
 10  8  1  0  0  0  0
 10  6  1  0  0  0  0
 11  3  1  0  0  0  0
 12 11  1  0  0  0  0
 14  6  2  0  0  0  0
 14  3  1  0  0  0  0
 15 29  1  6  0  0  0
 15  7  1  0  0  0  0
 16  7  1  0  0  0  0
 17  8  1  0  0  0  0
 17  1  1  0  0  0  0
 18 20  1  0  0  0  0
 19 18  2  0  0  0  0
 19 24  1  0  0  0  0
 20 21  1  0  0  0  0
 20 22  2  0  0  0  0
 23 24  1  0  0  0  0
 24 21  2  0  0  0  0
 25 26  1  0  0  0  0
 25 27  1  0  0  0  0
 28 25  2  0  0  0  0
 29 30  1  0  0  0  0
 31 30  1  0  0  0  0
 32 31  2  0  0  0  0
M  END
>  <MODEL>
6

>  <REMARK>
 VINA RESULT:      -4.7      4.756      7.540
  Name = 
  5 active torsions:
  status: ('A' for Active; 'I' for Inactive)
    1  A    between atoms: P_1  and  C_17
    2  A    between atoms: C_4  and  C_13
    3  A    between atoms: C_5  and  O_28
    4  A    between atoms: C_14  and  C_26
    5  A    between atoms: C_14  and  O_28
                            x       y       z     vdW  Elec       q    Type
                         _______ _______ _______ _____ _____    ______ ____

>  <TORSDO>
F 5

$$$$
=
 OpenBabel11062412443D

 32 35  0  0  1  0  0  0  0  0999 V2000
  184.8650  178.3620  141.7260 C   0  0  1  0  0  3  0  0  0  0  0  0
  184.7130  180.0660  143.6430 C   0  0  1  0  0  3  0  0  0  0  0  0
  182.7920  176.4820  138.8210 C   0  0  0  0  0  2  0  0  0  0  0  0
  183.6010  178.6830  139.5030 C   0  0  1  0  0  3  0  0  0  0  0  0
  184.9530  178.6280  140.2220 C   0  0  0  0  0  2  0  0  0  0  0  0
  181.8410  177.5180  140.8490 C   0  0  0  0  0  3  0  0  0  0  0  0
  186.0690  177.9060  143.8740 C   0  0  2  0  0  3  0  0  0  0  0  0
  182.6540  178.7470  142.9230 C   0  0  2  0  0  3  0  0  0  0  0  0
  182.8450  177.5030  143.5370 O   0  0  0  0  0  1  0  0  0  0  0  0
  181.6270  178.6740  141.7900 C   0  0  2  0  0  3  0  0  0  0  0  0
  183.6840  176.9870  137.7810 N   0  0  0  0  0  2  0  0  0  0  0  0
  183.8530  178.4220  138.0310 C   0  0  0  0  0  2  0  0  0  0  0  0
  183.8610  180.9210  144.3440 O   0  0  0  0  0  1  0  0  0  0  0  0
  182.7390  177.5330  139.8570 C   0  0  0  0  0  0  0  0  0  0  0  0
  186.2450  178.1130  142.3590 C   0  0  2  0  0  3  0  0  0  0  0  0
  185.3820  179.0760  144.6010 C   0  0  0  0  0  2  0  0  0  0  0  0
  183.9780  179.3800  142.4770 C   0  0  2  0  0  3  0  0  0  0  0  0
  187.3140  177.4300  144.5640 C   0  0  0  0  0  0  0  0  0  0  0  0
  187.8280  177.9180  145.6870 C   0  0  0  0  0  2  0  0  0  0  0  0
  188.2530  176.4440  144.0580 C   0  0  0  0  0  0  0  0  0  0  0  0
  189.3760  176.3740  144.9200 N   0  0  0  0  0  0  0  0  0  0  0  0
  188.2730  176.0040  142.8440 N   0  0  0  0  0  1  0  0  0  0  0  0
  189.9930  177.4500  146.9520 N   0  0  0  0  0  1  0  0  0  0  0  0
  189.1020  177.2090  145.8690 C   0  0  0  0  0  0  0  0  0  0  0  0
  179.9470  178.5960  142.4780 P   0  0  0  0  0  0  0  0  0  0  0  0
  180.0240  178.7110  144.1640 O   0  0  0  0  0  1  0  0  0  0  0  0
  179.0180  179.8710  141.8720 O   0  0  0  0  0  0  0  0  0  0  0  0
  179.3050  177.2810  142.0980 O   0  0  0  0  0  1  0  0  0  0  0  0
  187.2420  179.2340  142.0260 C   0  0  0  0  0  2  0  0  0  0  0  0
  188.4060  178.7080  141.4070 O   0  0  0  0  0  0  0  0  0  0  0  0
  188.3690  178.2530  140.0930 C   0  0  0  0  0  3  0  0  0  0  0  0
  189.3870  177.5670  139.6020 C   0  0  0  0  0  2  0  0  0  0  0  0
  1  5  1  6  0  0  0
  1 15  1  0  0  0  0
  1 17  1  0  0  0  0
  2 13  1  1  0  0  0
  2 16  1  0  0  0  0
  3 14  1  0  0  0  0
  4 12  1  6  0  0  0
  4 14  1  0  0  0  0
  4  5  1  0  0  0  0
  6 10  1  0  0  0  0
  7 18  1  1  0  0  0
  7 16  1  0  0  0  0
  8  9  1  6  0  0  0
 10 25  1  1  0  0  0
 10  8  1  0  0  0  0
 11 12  1  0  0  0  0
 11  3  1  0  0  0  0
 14  6  2  0  0  0  0
 15 29  1  1  0  0  0
 15  7  1  0  0  0  0
 17  8  1  0  0  0  0
 17  2  1  0  0  0  0
 18 19  1  0  0  0  0
 19 24  1  0  0  0  0
 20 18  2  0  0  0  0
 20 21  1  0  0  0  0
 21 24  2  0  0  0  0
 22 20  1  0  0  0  0
 24 23  1  0  0  0  0
 25 26  1  0  0  0  0
 27 25  2  0  0  0  0
 28 25  1  0  0  0  0
 30 29  1  0  0  0  0
 31 30  1  0  0  0  0
 32 31  2  0  0  0  0
M  END
>  <MODEL>
7

>  <REMARK>
 VINA RESULT:      -4.6      5.123      8.187
  Name = 
  5 active torsions:
  status: ('A' for Active; 'I' for Inactive)
    1  A    between atoms: P_1  and  C_17
    2  A    between atoms: C_4  and  C_13
    3  A    between atoms: C_5  and  O_28
    4  A    between atoms: C_14  and  C_26
    5  A    between atoms: C_14  and  O_28
                            x       y       z     vdW  Elec       q    Type
                         _______ _______ _______ _____ _____    ______ ____

>  <TORSDO>
F 5

$$$$
=
 OpenBabel11062412443D

 32 35  0  0  1  0  0  0  0  0999 V2000
  183.7750  177.2970  137.6780 C   0  0  1  0  0  3  0  0  0  0  0  0
  181.3440  176.7920  137.0170 C   0  0  1  0  0  3  0  0  0  0  0  0
  187.6160  176.1590  137.2120 C   0  0  0  0  0  2  0  0  0  0  0  0
  185.7200  177.1030  135.9980 C   0  0  1  0  0  3  0  0  0  0  0  0
  184.8500  178.0200  136.8640 C   0  0  0  0  0  2  0  0  0  0  0  0
  185.6260  174.7470  136.8400 C   0  0  0  0  0  3  0  0  0  0  0  0
  181.9750  177.4370  139.4140 C   0  0  2  0  0  3  0  0  0  0  0  0
  183.0940  174.9400  137.0080 C   0  0  2  0  0  3  0  0  0  0  0  0
  183.1970  174.5960  138.3620 O   0  0  0  0  0  1  0  0  0  0  0  0
  184.2970  174.4470  136.2000 C   0  0  2  0  0  3  0  0  0  0  0  0
  188.0030  177.4730  136.7060 N   0  0  0  0  0  2  0  0  0  0  0  0
  187.0080  177.8430  135.6950 C   0  0  0  0  0  2  0  0  0  0  0  0
  180.5150  175.9470  136.2770 O   0  0  0  0  0  1  0  0  0  0  0  0
  186.2280  175.9400  136.7600 C   0  0  0  0  0  0  0  0  0  0  0  0
  183.0710  178.2300  138.6790 C   0  0  2  0  0  3  0  0  0  0  0  0
  180.9230  176.7980  138.4900 C   0  0  0  0  0  2  0  0  0  0  0  0
  182.8280  176.4380  136.8120 C   0  0  2  0  0  3  0  0  0  0  0  0
  181.3740  178.1760  140.5730 C   0  0  0  0  0  0  0  0  0  0  0  0
  180.1350  178.6480  140.6500 C   0  0  0  0  0  3  0  0  0  0  0  0
  182.0770  178.6260  141.7620 C   0  0  0  0  0  0  0  0  0  0  0  0
  181.2070  179.4160  142.5550 N   0  0  0  0  0  0  0  0  0  0  0  0
  183.3620  178.6560  141.8890 N   0  0  0  0  0  2  0  0  0  0  0  0
  178.9310  180.0880  142.3760 N   0  0  0  0  0  1  0  0  0  0  0  0
  180.0840  179.3950  141.9140 C   0  0  0  0  0  0  0  0  0  0  0  0
  184.1550  172.6590  135.9030 P   0  0  0  0  0  0  0  0  0  0  0  0
  184.2040  171.8380  137.3820 O   0  0  0  0  0  1  0  0  0  0  0  0
  182.6950  172.3190  135.1210 O   0  0  0  0  0  1  0  0  0  0  0  0
  185.3080  172.1970  135.0400 O   0  0  0  0  0  0  0  0  0  0  0  0
  182.5310  179.4980  138.0020 C   0  0  0  0  0  2  0  0  0  0  0  0
  182.8730  180.6560  138.7500 O   0  0  0  0  0  0  0  0  0  0  0  0
  182.0650  181.7880  138.7190 C   0  0  0  0  0  3  0  0  0  0  0  0
  180.8080  181.6910  138.3220 C   0  0  0  0  0  2  0  0  0  0  0  0
  1  5  1  6  0  0  0
  1 15  1  0  0  0  0
  2 13  1  6  0  0  0
  2 16  1  0  0  0  0
  4 12  1  1  0  0  0
  4 14  1  0  0  0  0
  4  5  1  0  0  0  0
  7 18  1  1  0  0  0
  8  9  1  1  0  0  0
 10 25  1  1  0  0  0
 10  6  1  0  0  0  0
 10  8  1  0  0  0  0
 11  3  1  0  0  0  0
 12 11  1  0  0  0  0
 14  6  2  0  0  0  0
 14  3  1  0  0  0  0
 15 29  1  6  0  0  0
 15  7  1  0  0  0  0
 16  7  1  0  0  0  0
 17  8  1  0  0  0  0
 17  2  1  0  0  0  0
 17  1  1  0  0  0  0
 18 19  2  0  0  0  0
 18 20  1  0  0  0  0
 19 24  1  0  0  0  0
 20 22  2  0  0  0  0
 20 21  1  0  0  0  0
 24 23  1  0  0  0  0
 24 21  2  0  0  0  0
 25 26  1  0  0  0  0
 27 25  1  0  0  0  0
 28 25  2  0  0  0  0
 29 30  1  0  0  0  0
 31 30  1  0  0  0  0
 32 31  2  0  0  0  0
M  END
>  <MODEL>
8

>  <REMARK>
 VINA RESULT:      -4.5      5.975      9.623
  Name = 
  5 active torsions:
  status: ('A' for Active; 'I' for Inactive)
    1  A    between atoms: P_1  and  C_17
    2  A    between atoms: C_4  and  C_13
    3  A    between atoms: C_5  and  O_28
    4  A    between atoms: C_14  and  C_26
    5  A    between atoms: C_14  and  O_28
                            x       y       z     vdW  Elec       q    Type
                         _______ _______ _______ _____ _____    ______ ____

>  <TORSDO>
F 5

$$$$
=
 OpenBabel11062412443D

 32 35  0  0  1  0  0  0  0  0999 V2000
  188.5570  177.9010  141.4260 C   0  0  1  0  0  3  0  0  0  0  0  0
  191.0440  178.3990  141.8300 C   0  0  1  0  0  3  0  0  0  0  0  0
  184.9510  177.5030  143.1890 C   0  0  0  0  0  2  0  0  0  0  0  0
  186.6870  179.1460  142.6890 C   0  0  1  0  0  3  0  0  0  0  0  0
  187.3900  178.8870  141.3530 C   0  0  0  0  0  2  0  0  0  0  0  0
  187.1450  177.2840  144.2990 C   0  0  0  0  0  3  0  0  0  0  0  0
  190.2900  176.5700  140.2020 C   0  0  2  0  0  3  0  0  0  0  0  0
  189.6120  177.3990  143.6850 C   0  0  2  0  0  3  0  0  0  0  0  0
  189.5480  176.0430  143.3400 O   0  0  0  0  0  1  0  0  0  0  0  0
  188.5120  177.7880  144.6770 C   0  0  2  0  0  3  0  0  0  0  0  0
  184.3660  178.5510  142.3570 N   0  0  0  0  0  2  0  0  0  0  0  0
  185.3010  179.6800  142.3850 C   0  0  0  0  0  2  0  0  0  0  0  0
  192.0060  178.6950  142.7970 O   0  0  0  0  0  1  0  0  0  0  0  0
  186.3620  177.8870  143.3960 C   0  0  0  0  0  0  0  0  0  0  0  0
  189.0910  177.5210  140.0340 C   0  0  2  0  0  3  0  0  0  0  0  0
  191.4420  177.1420  141.0490 C   0  0  0  0  0  2  0  0  0  0  0  0
  189.6380  178.3090  142.4500 C   0  0  2  0  0  3  0  0  0  0  0  0
  190.7520  175.9530  138.9150 C   0  0  0  0  0  0  0  0  0  0  0  0
  190.1210  175.0120  138.2210 C   0  0  0  0  0  3  0  0  0  0  0  0
  192.0340  176.1740  138.2680 C   0  0  0  0  0  0  0  0  0  0  0  0
  192.1590  175.3020  137.1570 N   0  0  0  0  0  0  0  0  0  0  0  0
  193.0460  176.7540  138.8220 N   0  0  0  0  0  2  0  0  0  0  0  0
  190.7550  173.6630  136.1520 N   0  0  0  0  0  1  0  0  0  0  0  0
  191.0360  174.6600  137.1270 C   0  0  0  0  0  0  0  0  0  0  0  0
  188.9400  177.1980  146.3420 P   0  0  0  0  0  0  0  0  0  0  0  0
  190.4180  176.3770  146.2840 O   0  0  0  0  0  0  0  0  0  0  0  0
  189.0680  178.5090  147.4010 O   0  0  0  0  0  1  0  0  0  0  0  0
  187.8660  176.2550  146.8350 O   0  0  0  0  0  1  0  0  0  0  0  0
  189.4310  178.7590  139.1900 C   0  0  0  0  0  2  0  0  0  0  0  0
  188.4280  178.9950  138.2130 O   0  0  0  0  0  0  0  0  0  0  0  0
  188.1100  178.0240  137.2700 C   0  0  0  0  0  3  0  0  0  0  0  0
  188.8780  177.8590  136.2060 C   0  0  0  0  0  2  0  0  0  0  0  0
  1  5  1  6  0  0  0
  1 17  1  0  0  0  0
  2 17  1  0  0  0  0
  2 13  1  1  0  0  0
  3 14  1  0  0  0  0
  4  5  1  6  0  0  0
  4 14  1  0  0  0  0
  6 10  1  0  0  0  0
  7 18  1  6  0  0  0
  7 16  1  0  0  0  0
  8  9  1  6  0  0  0
  8 10  1  0  0  0  0
 10 25  1  1  0  0  0
 11 12  1  0  0  0  0
 11  3  1  0  0  0  0
 12  4  1  0  0  0  0
 14  6  2  0  0  0  0
 15 29  1  1  0  0  0
 15  7  1  0  0  0  0
 15  1  1  0  0  0  0
 16  2  1  0  0  0  0
 17  8  1  0  0  0  0
 19 18  2  0  0  0  0
 20 22  2  0  0  0  0
 20 18  1  0  0  0  0
 21 20  1  0  0  0  0
 23 24  1  0  0  0  0
 24 21  2  0  0  0  0
 24 19  1  0  0  0  0
 25 28  1  0  0  0  0
 25 27  1  0  0  0  0
 26 25  2  0  0  0  0
 30 29  1  0  0  0  0
 31 30  1  0  0  0  0
 32 31  2  0  0  0  0
M  END
>  <MODEL>
9

>  <REMARK>
 VINA RESULT:      -4.3      1.580      2.352
  Name = 
  5 active torsions:
  status: ('A' for Active; 'I' for Inactive)
    1  A    between atoms: P_1  and  C_17
    2  A    between atoms: C_4  and  C_13
    3  A    between atoms: C_5  and  O_28
    4  A    between atoms: C_14  and  C_26
    5  A    between atoms: C_14  and  O_28
                            x       y       z     vdW  Elec       q    Type
                         _______ _______ _______ _____ _____    ______ ____

>  <TORSDO>
F 5

$$$$
