=
 OpenBabel11062415123D

 52 57  0  0  1  0  0  0  0  0999 V2000
  188.8310  179.4150  138.4210 O   0  0  0  0  0  1  0  0  0  0  0  0
  191.0660  176.0020  139.8870 N   0  0  0  0  0  2  0  0  0  0  0  0
  188.3760  178.2490  139.0530 C   0  0  1  0  0  0  0  0  0  0  0  0
  188.2470  177.0850  138.0410 C   0  0  2  0  0  3  0  0  0  0  0  0
  189.4210  177.7900  140.0760 C   0  0  0  0  0  2  0  0  0  0  0  0
  189.4430  176.2760  138.1900 N   0  0  0  0  0  2  0  0  0  0  0  0
  190.0900  176.6740  139.3780 C   0  0  0  0  0  0  0  0  0  0  0  0
  188.0700  177.5160  136.5870 C   0  0  0  0  0  2  0  0  0  0  0  0
  186.5940  177.5940  136.2380 C   0  0  0  0  0  2  0  0  0  0  0  0
  185.8150  176.4640  136.8850 C   0  0  0  0  0  2  0  0  0  0  0  0
  184.3910  176.8780  137.2690 C   0  0  2  0  0  3  0  0  0  0  0  0
  184.4160  177.9190  138.1990 O   0  0  0  0  0  1  0  0  0  0  0  0
  183.6810  175.7860  137.7940 O   0  0  0  0  0  0  0  0  0  0  0  0
  182.3370  175.8460  137.3530 C   0  0  2  0  0  3  0  0  0  0  0  0
  180.9120  177.6960  138.5400 C   0  0  1  0  0  0  0  0  0  0  0  0
  180.0630  177.8660  140.9860 C   0  0  0  0  0  3  0  0  0  0  0  0
  179.4580  180.1070  141.7010 C   0  0  0  0  0  3  0  0  0  0  0  0
  181.3990  175.5700  139.6770 O   0  0  0  0  0  1  0  0  0  0  0  0
  181.3330  176.2380  138.4510 C   0  0  2  0  0  0  0  0  0  0  0  0
  181.1120  178.7670  137.5230 C   0  0  0  0  0  0  0  0  0  0  0  0
  179.7940  180.6190  140.4400 C   0  0  0  0  0  3  0  0  0  0  0  0
  179.9370  176.6370  138.0210 C   0  0  0  0  0  2  0  0  0  0  0  0
  180.3760  178.3860  139.7310 C   0  0  0  0  0  0  0  0  0  0  0  0
  180.6910  180.1030  138.0710 C   0  0  2  0  0  3  0  0  0  0  0  0
  180.2510  179.7380  139.4610 C   0  0  0  0  0  0  0  0  0  0  0  0
  179.6010  180.5810  137.3420 O   0  0  0  0  0  1  0  0  0  0  0  0
  181.5730  178.5960  136.4070 O   0  0  0  0  0  0  0  0  0  0  0  0
  179.5900  178.7310  141.9800 C   0  0  0  0  0  0  0  0  0  0  0  0
  179.2640  178.2030  143.2320 O   0  0  0  0  0  0  0  0  0  0  0  0
  179.3100  178.9690  144.4220 C   0  0  0  0  0  1  0  0  0  0  0  0
  182.8350  174.4340  135.3760 C   0  0  0  0  0  2  0  0  0  0  0  0
  181.9220  174.6040  136.5700 C   0  0  0  0  0  3  0  0  0  0  0  0
  181.4480  175.0100  135.1940 C   0  0  0  0  0  2  0  0  0  0  0  0
  187.0770  178.4770  139.6910 N   0  0  0  0  0  2  0  0  0  0  0  0
  187.2110  178.5050  141.1400 C   0  0  0  0  0  2  0  0  0  0  0  0
  186.0850  179.3330  141.7310 C   0  0  0  0  0  2  0  0  0  0  0  0
  184.0470  178.1590  141.9360 C   0  0  0  0  0  1  0  0  0  0  0  0
  185.2810  178.5060  142.6230 N   0  0  0  0  0  0  0  0  0  0  0  0
  184.9830  179.2210  143.8740 C   0  0  0  0  0  2  0  0  0  0  0  0
  184.8770  178.6980  146.2350 N   0  0  0  0  0  2  0  0  0  0  0  0
  185.5060  178.5460  145.1160 C   0  0  0  0  0  0  0  0  0  0  0  0
  186.6490  176.6130  144.3600 O   0  0  0  0  0  0  0  0  0  0  0  0
  187.8840  178.0230  145.7520 N   0  0  0  0  0  2  0  0  0  0  0  0
  186.6900  177.6700  145.0470 C   0  0  0  0  0  0  0  0  0  0  0  0
  189.9270  177.3910  144.5150 C   0  0  1  0  0  3  0  0  0  0  0  0
  191.7510  176.2240  145.9240 C   0  0  0  0  0  3  0  0  0  0  0  0
  190.2440  178.8630  144.2850 C   0  0  0  0  0  1  0  0  0  0  0  0
  191.2050  176.6020  144.6120 C   0  0  0  0  0  0  0  0  0  0  0  0
  191.8100  176.2710  143.5610 O   0  0  0  0  0  0  0  0  0  0  0  0
  189.8880  177.4170  147.0400 C   0  0  0  0  0  2  0  0  0  0  0  0
  191.1280  176.5720  147.0540 C   0  0  0  0  0  3  0  0  0  0  0  0
  189.0680  177.1700  145.7710 C   0  0  1  0  0  3  0  0  0  0  0  0
  3  1  1  6  0  0  0
  3 34  1  0  0  0  0
  3  5  1  0  0  0  0
  4  8  1  6  0  0  0
  4  6  1  0  0  0  0
  4  3  1  0  0  0  0
  6  7  1  0  0  0  0
  7  2  2  0  0  0  0
  7  5  1  0  0  0  0
  9  8  1  0  0  0  0
  9 10  1  0  0  0  0
 10 11  1  0  0  0  0
 11 13  1  0  0  0  0
 11 12  1  1  0  0  0
 14 13  1  1  0  0  0
 14 19  1  0  0  0  0
 15 22  1  6  0  0  0
 15 23  1  0  0  0  0
 16 28  1  0  0  0  0
 17 28  2  0  0  0  0
 19 15  1  0  0  0  0
 19 18  1  1  0  0  0
 20 24  1  0  0  0  0
 20 15  1  0  0  0  0
 21 17  1  0  0  0  0
 22 19  1  0  0  0  0
 23 16  2  0  0  0  0
 24 26  1  6  0  0  0
 24 25  1  0  0  0  0
 25 23  1  0  0  0  0
 25 21  2  0  0  0  0
 27 20  2  0  0  0  0
 28 29  1  0  0  0  0
 29 30  1  0  0  0  0
 31 32  1  0  0  0  0
 32 14  1  0  0  0  0
 33 31  1  0  0  0  0
 33 32  1  0  0  0  0
 34 35  1  0  0  0  0
 35 36  1  0  0  0  0
 36 38  1  0  0  0  0
 37 38  1  0  0  0  0
 38 39  1  0  0  0  0
 39 41  1  0  0  0  0
 41 40  2  0  0  0  0
 42 44  2  0  0  0  0
 44 41  1  0  0  0  0
 44 43  1  0  0  0  0
 45 47  1  1  0  0  0
 45 48  1  0  0  0  0
 45 52  1  0  0  0  0
 46 51  2  0  0  0  0
 48 46  1  0  0  0  0
 49 48  2  0  0  0  0
 50 51  1  0  0  0  0
 52 43  1  6  0  0  0
 52 50  1  0  0  0  0
M  END
>  <MODEL>
1

>  <REMARK>
 VINA RESULT:      -7.8      0.000      0.000
  Name = 
  17 active torsions:
  status: ('A' for Active; 'I' for Inactive)
    1  A    between atoms: C_1  and  C_5
    2  A    between atoms: C_1  and  N_26
    3  A    between atoms: C_3  and  C_24
    4  A    between atoms: C_3  and  O_51
    5  A    between atoms: C_5  and  C_31
    6  A    between atoms: C_13  and  C_17
    7  A    between atoms: C_13  and  C_18
    8  A    between atoms: C_13  and  O_51
    9  A    between atoms: C_15  and  N_22
   10  A    between atoms: C_15  and  C_27
   11  A    between atoms: C_16  and  N_22
   12  A    between atoms: C_23  and  C_35
   13  A    between atoms: C_24  and  C_28
   14  A    between atoms: N_25  and  C_50
   15  A    between atoms: N_26  and  C_27
   16  A    between atoms: C_28  and  C_35
   17  A    between atoms: O_34  and  C_52
                            x       y       z     vdW  Elec       q    Type
                         _______ _______ _______ _____ _____    ______ ____

>  <TORSDO>
F 17

$$$$
=
 OpenBabel11062415123D

 52 57  0  0  1  0  0  0  0  0999 V2000
  184.6100  177.4640  142.7160 O   0  0  0  0  0  1  0  0  0  0  0  0
  185.0960  178.8910  146.7810 N   0  0  0  0  0  2  0  0  0  0  0  0
  184.7380  178.7750  143.1980 C   0  0  1  0  0  0  0  0  0  0  0  0
  183.3810  179.3110  143.7130 C   0  0  2  0  0  3  0  0  0  0  0  0
  185.6690  178.7740  144.4160 C   0  0  0  0  0  2  0  0  0  0  0  0
  183.3990  179.1560  145.1560 N   0  0  0  0  0  2  0  0  0  0  0  0
  184.7250  178.8760  145.5470 C   0  0  0  0  0  0  0  0  0  0  0  0
  182.1540  178.6280  143.1170 C   0  0  0  0  0  2  0  0  0  0  0  0
  181.8720  179.1740  141.7280 C   0  0  0  0  0  2  0  0  0  0  0  0
  180.8590  178.3140  140.9940 C   0  0  0  0  0  2  0  0  0  0  0  0
  181.4660  177.6000  139.7820 C   0  0  2  0  0  3  0  0  0  0  0  0
  182.4850  176.7330  140.1810 O   0  0  0  0  0  1  0  0  0  0  0  0
  181.9670  178.5310  138.8570 O   0  0  0  0  0  0  0  0  0  0  0  0
  181.7890  178.0290  137.5440 C   0  0  2  0  0  3  0  0  0  0  0  0
  182.8960  175.7290  136.9600 C   0  0  1  0  0  0  0  0  0  0  0  0
  185.3930  175.0250  136.8900 C   0  0  0  0  0  3  0  0  0  0  0  0
  185.7790  172.6310  137.0260 C   0  0  0  0  0  3  0  0  0  0  0  0
  184.2770  177.7420  137.2580 O   0  0  0  0  0  1  0  0  0  0  0  0
  182.9960  177.2450  137.0020 C   0  0  2  0  0  0  0  0  0  0  0  0
  181.6720  174.8900  137.1010 C   0  0  0  0  0  0  0  0  0  0  0  0
  184.4000  172.3940  137.1010 C   0  0  0  0  0  3  0  0  0  0  0  0
  182.8420  176.5460  135.6680 C   0  0  0  0  0  2  0  0  0  0  0  0
  184.0230  174.7730  136.9470 C   0  0  0  0  0  0  0  0  0  0  0  0
  182.0330  173.4320  137.1590 C   0  0  2  0  0  3  0  0  0  0  0  0
  183.5320  173.4840  137.0570 C   0  0  0  0  0  0  0  0  0  0  0  0
  181.5060  172.7780  136.0450 O   0  0  0  0  0  1  0  0  0  0  0  0
  180.5330  175.3210  137.1810 O   0  0  0  0  0  0  0  0  0  0  0  0
  186.2830  173.9440  136.9200 C   0  0  0  0  0  0  0  0  0  0  0  0
  187.6540  174.2000  136.8480 O   0  0  0  0  0  0  0  0  0  0  0  0
  188.4450  173.8300  135.7330 C   0  0  0  0  0  1  0  0  0  0  0  0
  179.8680  179.4890  136.9700 C   0  0  0  0  0  2  0  0  0  0  0  0
  181.2740  179.0910  136.5780 C   0  0  0  0  0  3  0  0  0  0  0  0
  180.0920  178.5450  135.8100 C   0  0  0  0  0  2  0  0  0  0  0  0
  185.2410  179.6670  142.1490 N   0  0  0  0  0  2  0  0  0  0  0  0
  185.7830  178.9020  141.0360 C   0  0  0  0  0  2  0  0  0  0  0  0
  187.2690  178.6850  141.2540 C   0  0  0  0  0  2  0  0  0  0  0  0
  186.9090  178.4540  138.9320 C   0  0  0  0  0  1  0  0  0  0  0  0
  187.9200  178.4160  139.9770 N   0  0  0  0  0  0  0  0  0  0  0  0
  188.5850  177.1030  139.9940 C   0  0  0  0  0  2  0  0  0  0  0  0
  190.9610  177.5630  140.0410 N   0  0  0  0  0  2  0  0  0  0  0  0
  189.9320  177.0980  140.6700 C   0  0  0  0  0  0  0  0  0  0  0  0
  190.5390  175.4760  142.2870 O   0  0  0  0  0  0  0  0  0  0  0  0
  189.6700  177.4650  143.1460 N   0  0  0  0  0  2  0  0  0  0  0  0
  190.0670  176.6230  142.0590 C   0  0  0  0  0  0  0  0  0  0  0  0
  191.1550  177.1340  145.0930 C   0  0  1  0  0  3  0  0  0  0  0  0
  189.9580  176.9830  147.3780 C   0  0  0  0  0  3  0  0  0  0  0  0
  191.7650  178.5100  144.8620 C   0  0  0  0  0  1  0  0  0  0  0  0
  191.1690  176.8080  146.5620 C   0  0  0  0  0  0  0  0  0  0  0  0
  192.2290  176.3880  147.0930 O   0  0  0  0  0  0  0  0  0  0  0  0
  188.7500  177.8470  145.3940 C   0  0  0  0  0  2  0  0  0  0  0  0
  188.8230  177.4360  146.8350 C   0  0  0  0  0  3  0  0  0  0  0  0
  189.7250  177.0320  144.5390 C   0  0  1  0  0  3  0  0  0  0  0  0
  3  1  1  6  0  0  0
  3  4  1  0  0  0  0
  3  5  1  0  0  0  0
  4  8  1  6  0  0  0
  4  6  1  0  0  0  0
  5  7  1  0  0  0  0
  6  7  1  0  0  0  0
  7  2  2  0  0  0  0
  9  8  1  0  0  0  0
 10  9  1  0  0  0  0
 11 12  1  1  0  0  0
 11 10  1  0  0  0  0
 13 11  1  0  0  0  0
 14 13  1  1  0  0  0
 15 22  1  6  0  0  0
 15 19  1  0  0  0  0
 15 20  1  0  0  0  0
 16 28  2  0  0  0  0
 16 23  1  0  0  0  0
 17 21  2  0  0  0  0
 19 18  1  1  0  0  0
 19 14  1  0  0  0  0
 20 24  1  0  0  0  0
 20 27  2  0  0  0  0
 22 19  1  0  0  0  0
 23 15  1  0  0  0  0
 23 25  2  0  0  0  0
 24 26  1  6  0  0  0
 25 21  1  0  0  0  0
 25 24  1  0  0  0  0
 28 17  1  0  0  0  0
 29 28  1  0  0  0  0
 30 29  1  0  0  0  0
 32 31  1  0  0  0  0
 32 14  1  0  0  0  0
 33 32  1  0  0  0  0
 33 31  1  0  0  0  0
 34  3  1  0  0  0  0
 35 36  1  0  0  0  0
 35 34  1  0  0  0  0
 37 38  1  0  0  0  0
 38 39  1  0  0  0  0
 38 36  1  0  0  0  0
 39 41  1  0  0  0  0
 40 41  2  0  0  0  0
 41 44  1  0  0  0  0
 44 42  2  0  0  0  0
 44 43  1  0  0  0  0
 45 47  1  1  0  0  0
 45 48  1  0  0  0  0
 48 49  2  0  0  0  0
 48 46  1  0  0  0  0
 50 51  1  0  0  0  0
 51 46  2  0  0  0  0
 52 43  1  6  0  0  0
 52 45  1  0  0  0  0
 52 50  1  0  0  0  0
M  END
>  <MODEL>
2

>  <REMARK>
 VINA RESULT:      -7.3      1.984      6.139
  Name = 
  17 active torsions:
  status: ('A' for Active; 'I' for Inactive)
    1  A    between atoms: C_1  and  C_5
    2  A    between atoms: C_1  and  N_26
    3  A    between atoms: C_3  and  C_24
    4  A    between atoms: C_3  and  O_51
    5  A    between atoms: C_5  and  C_31
    6  A    between atoms: C_13  and  C_17
    7  A    between atoms: C_13  and  C_18
    8  A    between atoms: C_13  and  O_51
    9  A    between atoms: C_15  and  N_22
   10  A    between atoms: C_15  and  C_27
   11  A    between atoms: C_16  and  N_22
   12  A    between atoms: C_23  and  C_35
   13  A    between atoms: C_24  and  C_28
   14  A    between atoms: N_25  and  C_50
   15  A    between atoms: N_26  and  C_27
   16  A    between atoms: C_28  and  C_35
   17  A    between atoms: O_34  and  C_52
                            x       y       z     vdW  Elec       q    Type
                         _______ _______ _______ _____ _____    ______ ____

>  <TORSDO>
F 17

$$$$
=
 OpenBabel11062415123D

 52 57  0  0  1  0  0  0  0  0999 V2000
  188.0870  175.9100  143.4790 O   0  0  0  0  0  1  0  0  0  0  0  0
  189.8940  177.1270  147.2270 N   0  0  0  0  0  2  0  0  0  0  0  0
  188.6420  177.1440  143.8490 C   0  0  1  0  0  0  0  0  0  0  0  0
  187.6250  177.9910  144.6510 C   0  0  2  0  0  3  0  0  0  0  0  0
  189.8180  176.9010  144.8030 C   0  0  0  0  0  2  0  0  0  0  0  0
  187.9610  177.8190  146.0530 N   0  0  0  0  0  2  0  0  0  0  0  0
  189.2360  177.2180  146.1230 C   0  0  0  0  0  0  0  0  0  0  0  0
  186.1610  177.6360  144.4060 C   0  0  0  0  0  2  0  0  0  0  0  0
  185.6350  178.3870  143.1940 C   0  0  0  0  0  2  0  0  0  0  0  0
  184.6320  179.4520  143.6000 C   0  0  0  0  0  2  0  0  0  0  0  0
  183.1880  179.0430  143.2940 C   0  0  2  0  0  3  0  0  0  0  0  0
  182.5280  178.6590  144.4620 O   0  0  0  0  0  1  0  0  0  0  0  0
  183.1560  177.9930  142.3610 O   0  0  0  0  0  0  0  0  0  0  0  0
  182.4180  178.4010  141.2230 C   0  0  2  0  0  3  0  0  0  0  0  0
  183.4530  177.4100  139.0300 C   0  0  1  0  0  0  0  0  0  0  0  0
  185.6080  178.0540  137.7370 C   0  0  0  0  0  3  0  0  0  0  0  0
  186.4480  176.3380  136.2380 C   0  0  0  0  0  3  0  0  0  0  0  0
  184.3740  179.4580  140.0330 O   0  0  0  0  0  1  0  0  0  0  0  0
  183.2740  178.6000  139.9590 C   0  0  2  0  0  0  0  0  0  0  0  0
  182.6740  176.1390  139.0130 C   0  0  0  0  0  0  0  0  0  0  0  0
  185.3940  175.4860  136.5950 C   0  0  0  0  0  3  0  0  0  0  0  0
  182.5670  178.5880  138.6210 C   0  0  0  0  0  2  0  0  0  0  0  0
  184.5550  177.2030  138.0680 C   0  0  0  0  0  0  0  0  0  0  0  0
  183.2770  175.1610  138.0420 C   0  0  2  0  0  3  0  0  0  0  0  0
  184.4500  175.9390  137.5140 C   0  0  0  0  0  0  0  0  0  0  0  0
  182.3710  174.9150  137.0100 O   0  0  0  0  0  1  0  0  0  0  0  0
  181.6970  175.9070  139.7050 O   0  0  0  0  0  0  0  0  0  0  0  0
  186.5610  177.6240  136.8050 C   0  0  0  0  0  0  0  0  0  0  0  0
  187.6070  178.4850  136.4660 O   0  0  0  0  0  0  0  0  0  0  0  0
  188.7080  178.0790  135.6730 C   0  0  0  0  0  1  0  0  0  0  0  0
  180.0790  179.0690  141.7020 C   0  0  0  0  0  2  0  0  0  0  0  0
  181.4910  179.5760  141.5160 C   0  0  0  0  0  3  0  0  0  0  0  0
  180.4850  179.7180  140.3980 C   0  0  0  0  0  2  0  0  0  0  0  0
  189.0690  177.8980  142.6670 N   0  0  0  0  0  2  0  0  0  0  0  0
  188.8680  177.1160  141.4560 C   0  0  0  0  0  2  0  0  0  0  0  0
  189.6490  177.7470  140.3180 C   0  0  0  0  0  2  0  0  0  0  0  0
  191.9650  177.3750  140.5840 C   0  0  0  0  0  1  0  0  0  0  0  0
  190.7590  176.8790  139.9410 N   0  0  0  0  0  0  0  0  0  0  0  0
  190.9330  176.8560  138.4800 C   0  0  0  0  0  2  0  0  0  0  0  0
  191.0400  174.5140  137.8780 N   0  0  0  0  0  2  0  0  0  0  0  0
  191.6630  175.6430  137.9610 C   0  0  0  0  0  0  0  0  0  0  0  0
  193.6310  176.8780  137.4950 O   0  0  0  0  0  0  0  0  0  0  0  0
  193.7590  174.5900  137.0490 N   0  0  0  0  0  2  0  0  0  0  0  0
  193.0570  175.7550  137.4950 C   0  0  0  0  0  0  0  0  0  0  0  0
  196.1530  174.6040  137.6580 C   0  0  1  0  0  3  0  0  0  0  0  0
  197.7780  173.9720  135.7520 C   0  0  0  0  0  3  0  0  0  0  0  0
  195.9180  173.4410  138.6120 C   0  0  0  0  0  1  0  0  0  0  0  0
  197.5450  174.5300  137.0930 C   0  0  0  0  0  0  0  0  0  0  0  0
  198.5150  174.9420  137.7790 O   0  0  0  0  0  0  0  0  0  0  0  0
  195.3560  173.4990  135.5310 C   0  0  0  0  0  2  0  0  0  0  0  0
  196.7630  173.5210  135.0090 C   0  0  0  0  0  3  0  0  0  0  0  0
  195.1180  174.6430  136.5210 C   0  0  1  0  0  3  0  0  0  0  0  0
  3  1  1  6  0  0  0
  3  4  1  0  0  0  0
  3  5  1  0  0  0  0
  4  8  1  1  0  0  0
  4  6  1  0  0  0  0
  5  7  1  0  0  0  0
  6  7  1  0  0  0  0
  7  2  2  0  0  0  0
  9 10  1  0  0  0  0
  9  8  1  0  0  0  0
 11 10  1  0  0  0  0
 11 12  1  1  0  0  0
 13 11  1  0  0  0  0
 14 32  1  0  0  0  0
 14 13  1  1  0  0  0
 15 22  1  6  0  0  0
 15 19  1  0  0  0  0
 16 23  1  0  0  0  0
 17 21  2  0  0  0  0
 17 28  1  0  0  0  0
 19 18  1  1  0  0  0
 19 14  1  0  0  0  0
 20 15  1  0  0  0  0
 20 27  2  0  0  0  0
 21 25  1  0  0  0  0
 22 19  1  0  0  0  0
 23 15  1  0  0  0  0
 24 26  1  6  0  0  0
 24 20  1  0  0  0  0
 25 24  1  0  0  0  0
 25 23  2  0  0  0  0
 28 16  2  0  0  0  0
 29 28  1  0  0  0  0
 30 29  1  0  0  0  0
 32 31  1  0  0  0  0
 33 32  1  0  0  0  0
 33 31  1  0  0  0  0
 34  3  1  0  0  0  0
 35 34  1  0  0  0  0
 36 35  1  0  0  0  0
 38 36  1  0  0  0  0
 38 37  1  0  0  0  0
 39 38  1  0  0  0  0
 40 41  2  0  0  0  0
 41 39  1  0  0  0  0
 42 44  2  0  0  0  0
 43 44  1  0  0  0  0
 44 41  1  0  0  0  0
 45 47  1  1  0  0  0
 46 48  1  0  0  0  0
 48 45  1  0  0  0  0
 48 49  2  0  0  0  0
 50 52  1  0  0  0  0
 51 50  1  0  0  0  0
 51 46  2  0  0  0  0
 52 43  1  1  0  0  0
 52 45  1  0  0  0  0
M  END
>  <MODEL>
3

>  <REMARK>
 VINA RESULT:      -7.3      3.588      7.974
  Name = 
  17 active torsions:
  status: ('A' for Active; 'I' for Inactive)
    1  A    between atoms: C_1  and  C_5
    2  A    between atoms: C_1  and  N_26
    3  A    between atoms: C_3  and  C_24
    4  A    between atoms: C_3  and  O_51
    5  A    between atoms: C_5  and  C_31
    6  A    between atoms: C_13  and  C_17
    7  A    between atoms: C_13  and  C_18
    8  A    between atoms: C_13  and  O_51
    9  A    between atoms: C_15  and  N_22
   10  A    between atoms: C_15  and  C_27
   11  A    between atoms: C_16  and  N_22
   12  A    between atoms: C_23  and  C_35
   13  A    between atoms: C_24  and  C_28
   14  A    between atoms: N_25  and  C_50
   15  A    between atoms: N_26  and  C_27
   16  A    between atoms: C_28  and  C_35
   17  A    between atoms: O_34  and  C_52
                            x       y       z     vdW  Elec       q    Type
                         _______ _______ _______ _____ _____    ______ ____

>  <TORSDO>
F 17

$$$$
=
 OpenBabel11062415123D

 52 57  0  0  1  0  0  0  0  0999 V2000
  188.3590  179.2890  137.1350 O   0  0  0  0  0  1  0  0  0  0  0  0
  190.0210  175.2980  136.8180 N   0  0  0  0  0  2  0  0  0  0  0  0
  188.4910  178.2920  138.1130 C   0  0  1  0  0  0  0  0  0  0  0  0
  187.3350  177.2670  138.0170 C   0  0  2  0  0  3  0  0  0  0  0  0
  189.7720  177.4930  137.8460 C   0  0  0  0  0  2  0  0  0  0  0  0
  187.8560  176.1260  137.2870 N   0  0  0  0  0  2  0  0  0  0  0  0
  189.2590  176.2560  137.2230 C   0  0  0  0  0  0  0  0  0  0  0  0
  186.0650  177.7920  137.3520 C   0  0  0  0  0  2  0  0  0  0  0  0
  184.9270  177.8370  138.3560 C   0  0  0  0  0  2  0  0  0  0  0  0
  184.7140  179.2440  138.8840 C   0  0  0  0  0  2  0  0  0  0  0  0
  184.4140  179.2680  140.3860 C   0  0  2  0  0  3  0  0  0  0  0  0
  185.5850  179.4720  141.1180 O   0  0  0  0  0  1  0  0  0  0  0  0
  183.8030  178.0680  140.7890 O   0  0  0  0  0  0  0  0  0  0  0  0
  182.4780  178.3370  141.2120 C   0  0  2  0  0  3  0  0  0  0  0  0
  181.3490  177.7380  138.9270 C   0  0  1  0  0  0  0  0  0  0  0  0
  180.4630  179.2670  137.0270 C   0  0  0  0  0  3  0  0  0  0  0  0
  180.2220  178.1760  134.8700 C   0  0  0  0  0  3  0  0  0  0  0  0
  181.4340  180.0690  139.7070 O   0  0  0  0  0  1  0  0  0  0  0  0
  181.5210  178.7230  140.0720 C   0  0  2  0  0  0  0  0  0  0  0  0
  181.7590  176.3050  138.8850 C   0  0  0  0  0  0  0  0  0  0  0  0
  180.6800  176.9660  135.4110 C   0  0  0  0  0  3  0  0  0  0  0  0
  180.2270  177.9470  139.9450 C   0  0  0  0  0  2  0  0  0  0  0  0
  180.8990  178.0530  137.5550 C   0  0  0  0  0  0  0  0  0  0  0  0
  181.5520  175.7340  137.5100 C   0  0  2  0  0  3  0  0  0  0  0  0
  181.0130  176.9230  136.7640 C   0  0  0  0  0  0  0  0  0  0  0  0
  180.5830  174.7330  137.5640 O   0  0  0  0  0  1  0  0  0  0  0  0
  182.2210  175.6810  139.8260 O   0  0  0  0  0  0  0  0  0  0  0  0
  180.1110  179.3300  135.6730 C   0  0  0  0  0  0  0  0  0  0  0  0
  179.6610  180.5450  135.1510 O   0  0  0  0  0  0  0  0  0  0  0  0
  180.4600  181.7150  135.1350 C   0  0  0  0  0  1  0  0  0  0  0  0
  183.0240  178.6290  143.6140 C   0  0  0  0  0  2  0  0  0  0  0  0
  182.4270  179.2990  142.3960 C   0  0  0  0  0  3  0  0  0  0  0  0
  181.5220  178.7330  143.4670 C   0  0  0  0  0  2  0  0  0  0  0  0
  188.5040  178.8780  139.4550 N   0  0  0  0  0  2  0  0  0  0  0  0
  188.6230  177.8430  140.4700 C   0  0  0  0  0  2  0  0  0  0  0  0
  189.8220  178.1400  141.3510 C   0  0  0  0  0  2  0  0  0  0  0  0
  189.6410  175.9320  142.1680 C   0  0  0  0  0  1  0  0  0  0  0  0
  190.5610  176.9100  141.6090 N   0  0  0  0  0  0  0  0  0  0  0  0
  191.6730  177.1520  142.5410 C   0  0  0  0  0  2  0  0  0  0  0  0
  192.0290  175.2560  144.0030 N   0  0  0  0  0  2  0  0  0  0  0  0
  191.5400  176.4450  143.8650 C   0  0  0  0  0  0  0  0  0  0  0  0
  191.6320  177.6100  145.9260 O   0  0  0  0  0  0  0  0  0  0  0  0
  189.4860  177.2330  145.0870 N   0  0  0  0  0  2  0  0  0  0  0  0
  190.9110  177.1230  145.0130 C   0  0  0  0  0  0  0  0  0  0  0  0
  187.3510  178.2030  145.8650 C   0  0  1  0  0  3  0  0  0  0  0  0
  187.0620  178.3140  148.4300 C   0  0  0  0  0  3  0  0  0  0  0  0
  186.5960  177.0270  145.2600 C   0  0  0  0  0  1  0  0  0  0  0  0
  186.6230  178.7070  147.0820 C   0  0  0  0  0  0  0  0  0  0  0  0
  185.6290  179.4630  146.9410 O   0  0  0  0  0  0  0  0  0  0  0  0
  188.8440  176.9070  147.4380 C   0  0  0  0  0  2  0  0  0  0  0  0
  188.1110  177.5050  148.6030 C   0  0  0  0  0  3  0  0  0  0  0  0
  188.8010  177.8400  146.2240 C   0  0  1  0  0  3  0  0  0  0  0  0
  2  7  2  0  0  0  0
  3  1  1  6  0  0  0
  3 34  1  0  0  0  0
  4  8  1  6  0  0  0
  4  3  1  0  0  0  0
  5  3  1  0  0  0  0
  6  4  1  0  0  0  0
  7  6  1  0  0  0  0
  7  5  1  0  0  0  0
  8  9  1  0  0  0  0
  9 10  1  0  0  0  0
 10 11  1  0  0  0  0
 11 13  1  0  0  0  0
 11 12  1  1  0  0  0
 14 13  1  6  0  0  0
 14 32  1  0  0  0  0
 15 22  1  1  0  0  0
 15 19  1  0  0  0  0
 16 23  1  0  0  0  0
 17 21  2  0  0  0  0
 17 28  1  0  0  0  0
 19 18  1  6  0  0  0
 19 14  1  0  0  0  0
 20 15  1  0  0  0  0
 20 27  2  0  0  0  0
 21 25  1  0  0  0  0
 22 19  1  0  0  0  0
 23 15  1  0  0  0  0
 24 26  1  1  0  0  0
 24 20  1  0  0  0  0
 25 24  1  0  0  0  0
 25 23  2  0  0  0  0
 28 16  2  0  0  0  0
 29 28  1  0  0  0  0
 30 29  1  0  0  0  0
 32 33  1  0  0  0  0
 32 31  1  0  0  0  0
 33 31  1  0  0  0  0
 34 35  1  0  0  0  0
 35 36  1  0  0  0  0
 36 38  1  0  0  0  0
 38 37  1  0  0  0  0
 38 39  1  0  0  0  0
 39 41  1  0  0  0  0
 41 40  2  0  0  0  0
 41 44  1  0  0  0  0
 44 43  1  0  0  0  0
 44 42  2  0  0  0  0
 45 47  1  1  0  0  0
 45 52  1  0  0  0  0
 45 48  1  0  0  0  0
 46 51  2  0  0  0  0
 48 46  1  0  0  0  0
 49 48  2  0  0  0  0
 50 51  1  0  0  0  0
 52 43  1  6  0  0  0
 52 50  1  0  0  0  0
M  END
>  <MODEL>
4

>  <REMARK>
 VINA RESULT:      -7.1      2.111      4.923
  Name = 
  17 active torsions:
  status: ('A' for Active; 'I' for Inactive)
    1  A    between atoms: C_1  and  C_5
    2  A    between atoms: C_1  and  N_26
    3  A    between atoms: C_3  and  C_24
    4  A    between atoms: C_3  and  O_51
    5  A    between atoms: C_5  and  C_31
    6  A    between atoms: C_13  and  C_17
    7  A    between atoms: C_13  and  C_18
    8  A    between atoms: C_13  and  O_51
    9  A    between atoms: C_15  and  N_22
   10  A    between atoms: C_15  and  C_27
   11  A    between atoms: C_16  and  N_22
   12  A    between atoms: C_23  and  C_35
   13  A    between atoms: C_24  and  C_28
   14  A    between atoms: N_25  and  C_50
   15  A    between atoms: N_26  and  C_27
   16  A    between atoms: C_28  and  C_35
   17  A    between atoms: O_34  and  C_52
                            x       y       z     vdW  Elec       q    Type
                         _______ _______ _______ _____ _____    ______ ____

>  <TORSDO>
F 17

$$$$
=
 OpenBabel11062415123D

 52 57  0  0  1  0  0  0  0  0999 V2000
  187.1900  179.1700  136.9910 O   0  0  0  0  0  1  0  0  0  0  0  0
  190.2650  176.7750  135.0930 N   0  0  0  0  0  2  0  0  0  0  0  0
  188.0910  178.2550  137.5550 C   0  0  1  0  0  0  0  0  0  0  0  0
  187.5780  176.8040  137.3970 C   0  0  2  0  0  3  0  0  0  0  0  0
  189.4140  178.3100  136.7830 C   0  0  0  0  0  2  0  0  0  0  0  0
  188.2740  176.2440  136.2530 N   0  0  0  0  0  2  0  0  0  0  0  0
  189.3430  177.1060  135.9310 C   0  0  0  0  0  0  0  0  0  0  0  0
  186.0680  176.6730  137.2200 C   0  0  0  0  0  2  0  0  0  0  0  0
  185.6630  177.1010  135.8200 C   0  0  0  0  0  2  0  0  0  0  0  0
  185.4330  175.9000  134.9220 C   0  0  0  0  0  2  0  0  0  0  0  0
  184.8100  174.7180  135.6730 C   0  0  2  0  0  3  0  0  0  0  0  0
  185.6900  173.6350  135.7010 O   0  0  0  0  0  1  0  0  0  0  0  0
  183.6000  174.3330  135.0740 O   0  0  0  0  0  0  0  0  0  0  0  0
  182.7130  173.8620  136.0730 C   0  0  2  0  0  3  0  0  0  0  0  0
  182.1920  176.1820  137.1690 C   0  0  1  0  0  0  0  0  0  0  0  0
  183.1860  177.3150  139.2820 C   0  0  0  0  0  3  0  0  0  0  0  0
  182.8870  179.7230  139.3830 C   0  0  0  0  0  3  0  0  0  0  0  0
  183.6270  174.5500  138.3190 O   0  0  0  0  0  1  0  0  0  0  0  0
  182.6590  174.7450  137.3310 C   0  0  2  0  0  0  0  0  0  0  0  0
  181.4960  176.7900  135.9990 C   0  0  0  0  0  0  0  0  0  0  0  0
  182.2100  179.7080  138.1550 C   0  0  0  0  0  3  0  0  0  0  0  0
  181.2950  175.1480  137.8510 C   0  0  0  0  0  2  0  0  0  0  0  0
  182.4950  177.3130  138.0710 C   0  0  0  0  0  0  0  0  0  0  0  0
  181.3550  178.2760  136.1800 C   0  0  2  0  0  3  0  0  0  0  0  0
  182.0210  178.4870  137.5110 C   0  0  0  0  0  0  0  0  0  0  0  0
  180.0030  178.6070  136.2720 O   0  0  0  0  0  1  0  0  0  0  0  0
  181.1100  176.1770  135.0180 O   0  0  0  0  0  0  0  0  0  0  0  0
  183.3770  178.5290  139.9520 C   0  0  0  0  0  0  0  0  0  0  0  0
  184.0570  178.5240  141.1720 O   0  0  0  0  0  0  0  0  0  0  0  0
  185.3270  179.1270  141.3440 C   0  0  0  0  0  1  0  0  0  0  0  0
  181.9560  171.5590  135.5470 C   0  0  0  0  0  2  0  0  0  0  0  0
  182.9130  172.3810  136.3810 C   0  0  0  0  0  3  0  0  0  0  0  0
  181.6560  171.8200  137.0050 C   0  0  0  0  0  2  0  0  0  0  0  0
  188.2980  178.5400  138.9780 N   0  0  0  0  0  2  0  0  0  0  0  0
  189.0930  177.4940  139.6040 C   0  0  0  0  0  2  0  0  0  0  0  0
  188.9760  177.6110  141.1120 C   0  0  0  0  0  2  0  0  0  0  0  0
  191.2960  177.4920  140.6960 C   0  0  0  0  0  1  0  0  0  0  0  0
  190.2770  177.3780  141.7270 N   0  0  0  0  0  0  0  0  0  0  0  0
  190.3310  176.0460  142.3510 C   0  0  0  0  0  2  0  0  0  0  0  0
  192.0740  175.2690  143.8390 N   0  0  0  0  0  2  0  0  0  0  0  0
  191.0290  176.0140  143.6860 C   0  0  0  0  0  0  0  0  0  0  0  0
  191.3980  177.5050  145.4900 O   0  0  0  0  0  0  0  0  0  0  0  0
  189.1620  176.9790  145.0720 N   0  0  0  0  0  2  0  0  0  0  0  0
  190.5620  176.8680  144.7930 C   0  0  0  0  0  0  0  0  0  0  0  0
  187.1740  178.1530  145.9490 C   0  0  1  0  0  3  0  0  0  0  0  0
  187.1950  178.6040  148.4930 C   0  0  0  0  0  3  0  0  0  0  0  0
  186.3070  176.9530  145.5930 C   0  0  0  0  0  1  0  0  0  0  0  0
  186.6160  178.8460  147.1630 C   0  0  0  0  0  0  0  0  0  0  0  0
  185.6420  179.6310  147.0350 O   0  0  0  0  0  0  0  0  0  0  0  0
  188.7900  176.9880  147.5020 C   0  0  0  0  0  2  0  0  0  0  0  0
  188.2250  177.7670  148.6530 C   0  0  0  0  0  3  0  0  0  0  0  0
  188.6410  177.7610  146.1880 C   0  0  1  0  0  3  0  0  0  0  0  0
  2  7  2  0  0  0  0
  3  1  1  6  0  0  0
  3 34  1  0  0  0  0
  4  8  1  6  0  0  0
  4  3  1  0  0  0  0
  5  3  1  0  0  0  0
  6  4  1  0  0  0  0
  7  6  1  0  0  0  0
  7  5  1  0  0  0  0
  9  8  1  0  0  0  0
 10 11  1  0  0  0  0
 10  9  1  0  0  0  0
 11 12  1  6  0  0  0
 13 11  1  0  0  0  0
 14 13  1  6  0  0  0
 14 32  1  0  0  0  0
 14 19  1  0  0  0  0
 15 19  1  0  0  0  0
 15 22  1  1  0  0  0
 15 23  1  0  0  0  0
 16 28  1  0  0  0  0
 17 28  2  0  0  0  0
 19 22  1  0  0  0  0
 19 18  1  1  0  0  0
 20 24  1  0  0  0  0
 20 15  1  0  0  0  0
 21 17  1  0  0  0  0
 23 16  2  0  0  0  0
 24 26  1  1  0  0  0
 24 25  1  0  0  0  0
 25 23  1  0  0  0  0
 25 21  2  0  0  0  0
 27 20  2  0  0  0  0
 28 29  1  0  0  0  0
 29 30  1  0  0  0  0
 31 32  1  0  0  0  0
 31 33  1  0  0  0  0
 32 33  1  0  0  0  0
 34 35  1  0  0  0  0
 35 36  1  0  0  0  0
 36 38  1  0  0  0  0
 37 38  1  0  0  0  0
 38 39  1  0  0  0  0
 39 41  1  0  0  0  0
 41 40  2  0  0  0  0
 41 44  1  0  0  0  0
 44 43  1  0  0  0  0
 44 42  2  0  0  0  0
 45 47  1  1  0  0  0
 45 52  1  0  0  0  0
 45 48  1  0  0  0  0
 46 51  2  0  0  0  0
 48 46  1  0  0  0  0
 49 48  2  0  0  0  0
 50 51  1  0  0  0  0
 52 43  1  6  0  0  0
 52 50  1  0  0  0  0
M  END
>  <MODEL>
5

>  <REMARK>
 VINA RESULT:      -6.9      2.463      3.965
  Name = 
  17 active torsions:
  status: ('A' for Active; 'I' for Inactive)
    1  A    between atoms: C_1  and  C_5
    2  A    between atoms: C_1  and  N_26
    3  A    between atoms: C_3  and  C_24
    4  A    between atoms: C_3  and  O_51
    5  A    between atoms: C_5  and  C_31
    6  A    between atoms: C_13  and  C_17
    7  A    between atoms: C_13  and  C_18
    8  A    between atoms: C_13  and  O_51
    9  A    between atoms: C_15  and  N_22
   10  A    between atoms: C_15  and  C_27
   11  A    between atoms: C_16  and  N_22
   12  A    between atoms: C_23  and  C_35
   13  A    between atoms: C_24  and  C_28
   14  A    between atoms: N_25  and  C_50
   15  A    between atoms: N_26  and  C_27
   16  A    between atoms: C_28  and  C_35
   17  A    between atoms: O_34  and  C_52
                            x       y       z     vdW  Elec       q    Type
                         _______ _______ _______ _____ _____    ______ ____

>  <TORSDO>
F 17

$$$$
=
 OpenBabel11062415123D

 52 57  0  0  1  0  0  0  0  0999 V2000
  189.6060  178.7410  142.5360 O   0  0  0  0  0  1  0  0  0  0  0  0
  192.8970  177.5390  139.9830 N   0  0  0  0  0  2  0  0  0  0  0  0
  190.0360  177.4570  142.1720 C   0  0  1  0  0  0  0  0  0  0  0  0
  189.4820  177.0600  140.7830 C   0  0  2  0  0  3  0  0  0  0  0  0
  191.5620  177.4630  142.0200 C   0  0  0  0  0  2  0  0  0  0  0  0
  190.5490  177.3030  139.8290 N   0  0  0  0  0  2  0  0  0  0  0  0
  191.7420  177.5040  140.5550 C   0  0  0  0  0  0  0  0  0  0  0  0
  188.2130  177.7960  140.3640 C   0  0  0  0  0  2  0  0  0  0  0  0
  188.3260  178.2630  138.9230 C   0  0  0  0  0  2  0  0  0  0  0  0
  187.5340  177.3650  137.9910 C   0  0  0  0  0  2  0  0  0  0  0  0
  186.0610  177.7750  137.8930 C   0  0  2  0  0  3  0  0  0  0  0  0
  185.8470  178.9940  138.5360 O   0  0  0  0  0  1  0  0  0  0  0  0
  185.2340  176.7880  138.4530 O   0  0  0  0  0  0  0  0  0  0  0  0
  183.9550  176.8500  137.8460 C   0  0  2  0  0  3  0  0  0  0  0  0
  181.8920  178.3590  138.4170 C   0  0  1  0  0  0  0  0  0  0  0  0
  180.9050  179.0780  140.7070 C   0  0  0  0  0  3  0  0  0  0  0  0
  179.4870  181.0480  140.6310 C   0  0  0  0  0  3  0  0  0  0  0  0
  183.0560  177.1100  140.1870 O   0  0  0  0  0  1  0  0  0  0  0  0
  182.8190  177.2220  138.8150 C   0  0  2  0  0  0  0  0  0  0  0  0
  181.7430  178.9890  137.0740 C   0  0  0  0  0  0  0  0  0  0  0  0
  179.6830  181.1580  139.2470 C   0  0  0  0  0  3  0  0  0  0  0  0
  181.4000  176.9110  138.3890 C   0  0  0  0  0  2  0  0  0  0  0  0
  181.0760  179.1890  139.3280 C   0  0  0  0  0  0  0  0  0  0  0  0
  180.8350  180.1850  137.1480 C   0  0  2  0  0  3  0  0  0  0  0  0
  180.4830  180.2120  138.6090 C   0  0  0  0  0  0  0  0  0  0  0  0
  179.6890  179.9450  136.3900 O   0  0  0  0  0  1  0  0  0  0  0  0
  182.2960  178.6070  136.0560 O   0  0  0  0  0  0  0  0  0  0  0  0
  180.0950  180.0100  141.3670 C   0  0  0  0  0  0  0  0  0  0  0  0
  179.9160  179.8870  142.7470 O   0  0  0  0  0  0  0  0  0  0  0  0
  179.8980  178.6350  143.4090 C   0  0  0  0  0  1  0  0  0  0  0  0
  184.2620  174.3970  137.6470 C   0  0  0  0  0  2  0  0  0  0  0  0
  183.6490  175.6190  136.9990 C   0  0  0  0  0  3  0  0  0  0  0  0
  184.9380  175.0440  136.4600 C   0  0  0  0  0  2  0  0  0  0  0  0
  189.6080  176.4650  143.1620 N   0  0  0  0  0  2  0  0  0  0  0  0
  189.3700  177.0930  144.4530 C   0  0  0  0  0  2  0  0  0  0  0  0
  190.4740  176.6960  145.4150 C   0  0  0  0  0  2  0  0  0  0  0  0
  191.2950  176.8850  147.6200 C   0  0  0  0  0  1  0  0  0  0  0  0
  190.2020  177.2540  146.7340 N   0  0  0  0  0  0  0  0  0  0  0  0
  188.9260  176.7480  147.2640 C   0  0  0  0  0  2  0  0  0  0  0  0
  188.3000  178.0490  149.2070 N   0  0  0  0  0  2  0  0  0  0  0  0
  188.0860  177.7890  147.9590 C   0  0  0  0  0  0  0  0  0  0  0  0
  186.5050  179.5410  147.7450 O   0  0  0  0  0  0  0  0  0  0  0  0
  186.7240  178.1600  145.8750 N   0  0  0  0  0  2  0  0  0  0  0  0
  187.0680  178.5480  147.2100 C   0  0  0  0  0  0  0  0  0  0  0  0
  185.8990  178.6290  143.5940 C   0  0  1  0  0  3  0  0  0  0  0  0
  183.4310  179.3770  143.4480 C   0  0  0  0  0  3  0  0  0  0  0  0
  186.0690  177.1610  143.2300 C   0  0  0  0  0  1  0  0  0  0  0  0
  184.7520  179.2190  142.8200 C   0  0  0  0  0  0  0  0  0  0  0  0
  184.9250  179.5720  141.6260 O   0  0  0  0  0  0  0  0  0  0  0  0
  184.2980  178.3430  145.5260 C   0  0  0  0  0  2  0  0  0  0  0  0
  183.2220  179.0020  144.7140 C   0  0  0  0  0  3  0  0  0  0  0  0
  185.6850  178.8340  145.1030 C   0  0  1  0  0  3  0  0  0  0  0  0
  2  7  2  0  0  0  0
  3  1  1  1  0  0  0
  3 34  1  0  0  0  0
  4  8  1  6  0  0  0
  4  3  1  0  0  0  0
  5  3  1  0  0  0  0
  6  7  1  0  0  0  0
  6  4  1  0  0  0  0
  7  5  1  0  0  0  0
  9  8  1  0  0  0  0
 10  9  1  0  0  0  0
 11 10  1  0  0  0  0
 11 13  1  0  0  0  0
 11 12  1  1  0  0  0
 14 13  1  1  0  0  0
 14 19  1  0  0  0  0
 15 22  1  6  0  0  0
 15 19  1  0  0  0  0
 15 23  1  0  0  0  0
 16 28  1  0  0  0  0
 17 28  2  0  0  0  0
 19 18  1  1  0  0  0
 20 24  1  0  0  0  0
 20 15  1  0  0  0  0
 21 17  1  0  0  0  0
 22 19  1  0  0  0  0
 23 16  2  0  0  0  0
 24 26  1  6  0  0  0
 24 25  1  0  0  0  0
 25 21  2  0  0  0  0
 25 23  1  0  0  0  0
 27 20  2  0  0  0  0
 28 29  1  0  0  0  0
 29 30  1  0  0  0  0
 32 31  1  0  0  0  0
 32 14  1  0  0  0  0
 33 32  1  0  0  0  0
 33 31  1  0  0  0  0
 34 35  1  0  0  0  0
 35 36  1  0  0  0  0
 36 38  1  0  0  0  0
 38 39  1  0  0  0  0
 38 37  1  0  0  0  0
 39 41  1  0  0  0  0
 41 40  2  0  0  0  0
 43 44  1  0  0  0  0
 44 42  2  0  0  0  0
 44 41  1  0  0  0  0
 45 47  1  1  0  0  0
 45 52  1  0  0  0  0
 46 51  2  0  0  0  0
 48 46  1  0  0  0  0
 48 45  1  0  0  0  0
 49 48  2  0  0  0  0
 51 50  1  0  0  0  0
 52 50  1  0  0  0  0
 52 43  1  1  0  0  0
M  END
>  <MODEL>
6

>  <REMARK>
 VINA RESULT:      -6.8      1.858      4.003
  Name = 
  17 active torsions:
  status: ('A' for Active; 'I' for Inactive)
    1  A    between atoms: C_1  and  C_5
    2  A    between atoms: C_1  and  N_26
    3  A    between atoms: C_3  and  C_24
    4  A    between atoms: C_3  and  O_51
    5  A    between atoms: C_5  and  C_31
    6  A    between atoms: C_13  and  C_17
    7  A    between atoms: C_13  and  C_18
    8  A    between atoms: C_13  and  O_51
    9  A    between atoms: C_15  and  N_22
   10  A    between atoms: C_15  and  C_27
   11  A    between atoms: C_16  and  N_22
   12  A    between atoms: C_23  and  C_35
   13  A    between atoms: C_24  and  C_28
   14  A    between atoms: N_25  and  C_50
   15  A    between atoms: N_26  and  C_27
   16  A    between atoms: C_28  and  C_35
   17  A    between atoms: O_34  and  C_52
                            x       y       z     vdW  Elec       q    Type
                         _______ _______ _______ _____ _____    ______ ____

>  <TORSDO>
F 17

$$$$
=
 OpenBabel11062415123D

 52 57  0  0  1  0  0  0  0  0999 V2000
  190.0850  178.7700  142.5520 O   0  0  0  0  0  1  0  0  0  0  0  0
  193.2040  177.4910  139.8250 N   0  0  0  0  0  2  0  0  0  0  0  0
  190.5580  177.4790  142.2710 C   0  0  1  0  0  0  0  0  0  0  0  0
  189.9080  176.9210  140.9820 C   0  0  2  0  0  3  0  0  0  0  0  0
  192.0610  177.5470  141.9760 C   0  0  0  0  0  2  0  0  0  0  0  0
  190.8690  177.1230  139.9140 N   0  0  0  0  0  2  0  0  0  0  0  0
  192.1080  177.4540  140.5030 C   0  0  0  0  0  0  0  0  0  0  0  0
  188.5640  177.5470  140.6180 C   0  0  0  0  0  2  0  0  0  0  0  0
  188.6400  178.1900  139.2440 C   0  0  0  0  0  2  0  0  0  0  0  0
  187.9010  177.3620  138.2080 C   0  0  0  0  0  2  0  0  0  0  0  0
  186.4930  177.8970  137.9260 C   0  0  2  0  0  3  0  0  0  0  0  0
  186.0140  178.6210  139.0200 O   0  0  0  0  0  1  0  0  0  0  0  0
  185.6120  176.8440  137.6300 O   0  0  0  0  0  0  0  0  0  0  0  0
  184.4840  177.3570  136.9440 C   0  0  2  0  0  3  0  0  0  0  0  0
  182.3420  177.5880  138.4340 C   0  0  1  0  0  0  0  0  0  0  0  0
  180.8150  175.7760  139.4920 C   0  0  0  0  0  3  0  0  0  0  0  0
  179.4590  176.5470  141.3540 C   0  0  0  0  0  3  0  0  0  0  0  0
  183.0290  175.3930  137.5630 O   0  0  0  0  0  1  0  0  0  0  0  0
  183.1410  176.7790  137.4260 C   0  0  2  0  0  0  0  0  0  0  0  0
  182.5330  179.0170  138.8150 C   0  0  0  0  0  0  0  0  0  0  0  0
  179.9940  177.8380  141.2310 C   0  0  0  0  0  3  0  0  0  0  0  0
  181.8740  177.4780  136.9820 C   0  0  0  0  0  2  0  0  0  0  0  0
  181.3240  177.0680  139.3710 C   0  0  0  0  0  0  0  0  0  0  0  0
  181.6340  179.3830  139.9640 C   0  0  2  0  0  3  0  0  0  0  0  0
  180.9280  178.0810  140.2270 C   0  0  0  0  0  0  0  0  0  0  0  0
  180.7130  180.3420  139.5450 O   0  0  0  0  0  1  0  0  0  0  0  0
  183.3220  179.7830  138.2890 O   0  0  0  0  0  0  0  0  0  0  0  0
  179.8660  175.5120  140.4870 C   0  0  0  0  0  0  0  0  0  0  0  0
  179.3480  174.2190  140.5960 O   0  0  0  0  0  0  0  0  0  0  0  0
  179.5980  173.3850  141.7130 C   0  0  0  0  0  1  0  0  0  0  0  0
  185.3000  176.0080  135.0300 C   0  0  0  0  0  2  0  0  0  0  0  0
  184.6510  177.3150  135.4290 C   0  0  0  0  0  3  0  0  0  0  0  0
  186.1220  177.2760  135.0840 C   0  0  0  0  0  2  0  0  0  0  0  0
  190.2780  176.5700  143.3840 N   0  0  0  0  0  2  0  0  0  0  0  0
  190.4150  177.2560  144.6600 C   0  0  0  0  0  2  0  0  0  0  0  0
  191.3940  176.4970  145.5350 C   0  0  0  0  0  2  0  0  0  0  0  0
  192.0420  176.0040  147.7510 C   0  0  0  0  0  1  0  0  0  0  0  0
  191.1610  176.8250  146.9360 N   0  0  0  0  0  0  0  0  0  0  0  0
  189.7560  176.5840  147.3040 C   0  0  0  0  0  2  0  0  0  0  0  0
  189.6050  178.2430  149.0600 N   0  0  0  0  0  2  0  0  0  0  0  0
  189.0840  177.7480  147.9860 C   0  0  0  0  0  0  0  0  0  0  0  0
  187.1400  179.0970  148.1100 O   0  0  0  0  0  0  0  0  0  0  0  0
  187.5410  178.1140  146.0310 N   0  0  0  0  0  2  0  0  0  0  0  0
  187.8750  178.3570  147.4010 C   0  0  0  0  0  0  0  0  0  0  0  0
  186.2790  178.2900  143.9140 C   0  0  1  0  0  3  0  0  0  0  0  0
  183.7750  178.8710  144.1700 C   0  0  0  0  0  3  0  0  0  0  0  0
  186.4940  176.8030  143.6620 C   0  0  0  0  0  1  0  0  0  0  0  0
  184.9670  178.7260  143.3210 C   0  0  0  0  0  0  0  0  0  0  0  0
  184.8920  178.9600  142.0880 O   0  0  0  0  0  0  0  0  0  0  0  0
  185.0850  178.1150  146.1330 C   0  0  0  0  0  2  0  0  0  0  0  0
  183.8300  178.6200  145.4820 C   0  0  0  0  0  3  0  0  0  0  0  0
  186.3290  178.6390  145.4110 C   0  0  1  0  0  3  0  0  0  0  0  0
  2  7  2  0  0  0  0
  3  1  1  1  0  0  0
  3 34  1  0  0  0  0
  4  8  1  6  0  0  0
  4  3  1  0  0  0  0
  5  3  1  0  0  0  0
  6  7  1  0  0  0  0
  6  4  1  0  0  0  0
  7  5  1  0  0  0  0
  9  8  1  0  0  0  0
 10  9  1  0  0  0  0
 11 10  1  0  0  0  0
 11 12  1  1  0  0  0
 13 11  1  0  0  0  0
 14 19  1  0  0  0  0
 14 13  1  1  0  0  0
 15 22  1  6  0  0  0
 15 20  1  0  0  0  0
 15 23  1  0  0  0  0
 16 28  1  0  0  0  0
 19 18  1  1  0  0  0
 19 15  1  0  0  0  0
 20 24  1  0  0  0  0
 21 17  1  0  0  0  0
 22 19  1  0  0  0  0
 23 16  2  0  0  0  0
 23 25  1  0  0  0  0
 24 26  1  6  0  0  0
 24 25  1  0  0  0  0
 25 21  2  0  0  0  0
 27 20  2  0  0  0  0
 28 29  1  0  0  0  0
 28 17  2  0  0  0  0
 29 30  1  0  0  0  0
 31 33  1  0  0  0  0
 31 32  1  0  0  0  0
 32 14  1  0  0  0  0
 33 32  1  0  0  0  0
 34 35  1  0  0  0  0
 35 36  1  0  0  0  0
 36 38  1  0  0  0  0
 38 39  1  0  0  0  0
 38 37  1  0  0  0  0
 39 41  1  0  0  0  0
 41 40  2  0  0  0  0
 43 44  1  0  0  0  0
 44 41  1  0  0  0  0
 44 42  2  0  0  0  0
 45 47  1  1  0  0  0
 45 52  1  0  0  0  0
 46 51  2  0  0  0  0
 48 45  1  0  0  0  0
 48 46  1  0  0  0  0
 49 48  2  0  0  0  0
 51 50  1  0  0  0  0
 52 43  1  1  0  0  0
 52 50  1  0  0  0  0
M  END
>  <MODEL>
7

>  <REMARK>
 VINA RESULT:      -6.7      2.091      4.435
  Name = 
  17 active torsions:
  status: ('A' for Active; 'I' for Inactive)
    1  A    between atoms: C_1  and  C_5
    2  A    between atoms: C_1  and  N_26
    3  A    between atoms: C_3  and  C_24
    4  A    between atoms: C_3  and  O_51
    5  A    between atoms: C_5  and  C_31
    6  A    between atoms: C_13  and  C_17
    7  A    between atoms: C_13  and  C_18
    8  A    between atoms: C_13  and  O_51
    9  A    between atoms: C_15  and  N_22
   10  A    between atoms: C_15  and  C_27
   11  A    between atoms: C_16  and  N_22
   12  A    between atoms: C_23  and  C_35
   13  A    between atoms: C_24  and  C_28
   14  A    between atoms: N_25  and  C_50
   15  A    between atoms: N_26  and  C_27
   16  A    between atoms: C_28  and  C_35
   17  A    between atoms: O_34  and  C_52
                            x       y       z     vdW  Elec       q    Type
                         _______ _______ _______ _____ _____    ______ ____

>  <TORSDO>
F 17

$$$$
=
 OpenBabel11062415123D

 52 57  0  0  1  0  0  0  0  0999 V2000
  187.7330  175.1470  137.2760 O   0  0  0  0  0  1  0  0  0  0  0  0
  187.6270  179.4610  136.8580 N   0  0  0  0  0  2  0  0  0  0  0  0
  188.1910  175.9590  136.2280 C   0  0  1  0  0  0  0  0  0  0  0  0
  187.0300  176.3490  135.2810 C   0  0  2  0  0  3  0  0  0  0  0  0
  188.7120  177.2800  136.8060 C   0  0  0  0  0  2  0  0  0  0  0  0
  186.6170  177.6860  135.6660 N   0  0  0  0  0  2  0  0  0  0  0  0
  187.6080  178.2180  136.5180 C   0  0  0  0  0  0  0  0  0  0  0  0
  185.8390  175.3950  135.3010 C   0  0  0  0  0  2  0  0  0  0  0  0
  184.5410  176.1780  135.3970 C   0  0  0  0  0  2  0  0  0  0  0  0
  183.4410  175.3450  136.0290 C   0  0  0  0  0  2  0  0  0  0  0  0
  182.9540  175.9300  137.3590 C   0  0  2  0  0  3  0  0  0  0  0  0
  182.8360  174.9280  138.3230 O   0  0  0  0  0  1  0  0  0  0  0  0
  181.7190  176.5790  137.1920 O   0  0  0  0  0  0  0  0  0  0  0  0
  181.8980  177.9750  137.3520 C   0  0  2  0  0  3  0  0  0  0  0  0
  182.4920  178.6350  139.8150 C   0  0  1  0  0  0  0  0  0  0  0  0
  181.0310  178.6530  141.9600 C   0  0  0  0  0  3  0  0  0  0  0  0
  182.2790  178.6250  144.0430 C   0  0  0  0  0  3  0  0  0  0  0  0
  180.1620  178.1880  139.1680 O   0  0  0  0  0  1  0  0  0  0  0  0
  181.4460  178.5130  138.7200 C   0  0  2  0  0  0  0  0  0  0  0  0
  183.9750  178.5800  139.6720 C   0  0  0  0  0  0  0  0  0  0  0  0
  183.4910  178.6110  143.3370 C   0  0  0  0  0  3  0  0  0  0  0  0
  181.9330  179.8850  139.1340 C   0  0  0  0  0  2  0  0  0  0  0  0
  182.2440  178.6570  141.2720 C   0  0  0  0  0  0  0  0  0  0  0  0
  184.6390  178.5820  141.0210 C   0  0  2  0  0  3  0  0  0  0  0  0
  183.4530  178.6290  141.9440 C   0  0  0  0  0  0  0  0  0  0  0  0
  185.3940  179.7460  141.1650 O   0  0  0  0  0  1  0  0  0  0  0  0
  184.5740  178.5180  138.6110 O   0  0  0  0  0  0  0  0  0  0  0  0
  181.0460  178.6470  143.3600 C   0  0  0  0  0  0  0  0  0  0  0  0
  179.8290  178.6580  144.0450 O   0  0  0  0  0  0  0  0  0  0  0  0
  178.9990  179.8040  144.1160 C   0  0  0  0  0  1  0  0  0  0  0  0
  180.0260  178.1780  135.7380 C   0  0  0  0  0  2  0  0  0  0  0  0
  181.3460  178.7740  136.1750 C   0  0  0  0  0  3  0  0  0  0  0  0
  181.2840  177.8910  134.9500 C   0  0  0  0  0  2  0  0  0  0  0  0
  189.2310  175.2730  135.4560 N   0  0  0  0  0  2  0  0  0  0  0  0
  190.2250  174.6820  136.3400 C   0  0  0  0  0  2  0  0  0  0  0  0
  191.5560  175.3810  136.1350 C   0  0  0  0  0  2  0  0  0  0  0  0
  193.2740  174.9760  137.7020 C   0  0  0  0  0  1  0  0  0  0  0  0
  192.1010  175.7900  137.4240 N   0  0  0  0  0  0  0  0  0  0  0  0
  191.1020  175.6230  138.4920 C   0  0  0  0  0  2  0  0  0  0  0  0
  192.1370  177.5230  139.5760 N   0  0  0  0  0  2  0  0  0  0  0  0
  191.1590  176.6790  139.5660 C   0  0  0  0  0  0  0  0  0  0  0  0
  188.9920  177.3490  140.2500 O   0  0  0  0  0  0  0  0  0  0  0  0
  190.2590  176.2560  141.8780 N   0  0  0  0  0  2  0  0  0  0  0  0
  190.0780  176.7890  140.5620 C   0  0  0  0  0  0  0  0  0  0  0  0
  189.8780  176.8830  144.2370 C   0  0  1  0  0  3  0  0  0  0  0  0
  187.4280  177.4290  144.8490 C   0  0  0  0  0  3  0  0  0  0  0  0
  190.7060  178.1450  144.0360 C   0  0  0  0  0  1  0  0  0  0  0  0
  188.8070  177.1320  145.2640 C   0  0  0  0  0  0  0  0  0  0  0  0
  189.1000  177.0930  146.4870 O   0  0  0  0  0  0  0  0  0  0  0  0
  188.1220  177.3150  142.4730 C   0  0  0  0  0  2  0  0  0  0  0  0
  187.0960  177.4840  143.5550 C   0  0  0  0  0  3  0  0  0  0  0  0
  189.2510  176.3840  142.9250 C   0  0  1  0  0  3  0  0  0  0  0  0
  3  5  1  0  0  0  0
  3  1  1  1  0  0  0
  4  8  1  1  0  0  0
  4  6  1  0  0  0  0
  4  3  1  0  0  0  0
  6  7  1  0  0  0  0
  7  5  1  0  0  0  0
  7  2  2  0  0  0  0
  8  9  1  0  0  0  0
  9 10  1  0  0  0  0
 10 11  1  0  0  0  0
 11 12  1  1  0  0  0
 13 11  1  0  0  0  0
 14 13  1  6  0  0  0
 14 19  1  0  0  0  0
 15 22  1  6  0  0  0
 15 23  1  0  0  0  0
 16 28  1  0  0  0  0
 19 22  1  0  0  0  0
 19 18  1  1  0  0  0
 19 15  1  0  0  0  0
 20 15  1  0  0  0  0
 20 24  1  0  0  0  0
 21 17  1  0  0  0  0
 23 25  1  0  0  0  0
 23 16  2  0  0  0  0
 24 26  1  6  0  0  0
 24 25  1  0  0  0  0
 25 21  2  0  0  0  0
 27 20  2  0  0  0  0
 28 17  2  0  0  0  0
 28 29  1  0  0  0  0
 29 30  1  0  0  0  0
 31 32  1  0  0  0  0
 32 14  1  0  0  0  0
 33 31  1  0  0  0  0
 33 32  1  0  0  0  0
 34  3  1  0  0  0  0
 34 35  1  0  0  0  0
 36 35  1  0  0  0  0
 36 38  1  0  0  0  0
 38 37  1  0  0  0  0
 38 39  1  0  0  0  0
 39 41  1  0  0  0  0
 41 40  2  0  0  0  0
 41 44  1  0  0  0  0
 42 44  2  0  0  0  0
 44 43  1  0  0  0  0
 45 47  1  6  0  0  0
 45 48  1  0  0  0  0
 46 48  1  0  0  0  0
 48 49  2  0  0  0  0
 50 52  1  0  0  0  0
 50 51  1  0  0  0  0
 51 46  2  0  0  0  0
 52 43  1  6  0  0  0
 52 45  1  0  0  0  0
M  END
>  <MODEL>
8

>  <REMARK>
 VINA RESULT:      -6.7      2.369      4.826
  Name = 
  17 active torsions:
  status: ('A' for Active; 'I' for Inactive)
    1  A    between atoms: C_1  and  C_5
    2  A    between atoms: C_1  and  N_26
    3  A    between atoms: C_3  and  C_24
    4  A    between atoms: C_3  and  O_51
    5  A    between atoms: C_5  and  C_31
    6  A    between atoms: C_13  and  C_17
    7  A    between atoms: C_13  and  C_18
    8  A    between atoms: C_13  and  O_51
    9  A    between atoms: C_15  and  N_22
   10  A    between atoms: C_15  and  C_27
   11  A    between atoms: C_16  and  N_22
   12  A    between atoms: C_23  and  C_35
   13  A    between atoms: C_24  and  C_28
   14  A    between atoms: N_25  and  C_50
   15  A    between atoms: N_26  and  C_27
   16  A    between atoms: C_28  and  C_35
   17  A    between atoms: O_34  and  C_52
                            x       y       z     vdW  Elec       q    Type
                         _______ _______ _______ _____ _____    ______ ____

>  <TORSDO>
F 17

$$$$
=
 OpenBabel11062415123D

 52 57  0  0  1  0  0  0  0  0999 V2000
  186.0030  179.3090  142.6420 O   0  0  0  0  0  1  0  0  0  0  0  0
  185.6910  179.3640  146.9660 N   0  0  0  0  0  2  0  0  0  0  0  0
  185.2730  178.4740  143.5000 C   0  0  1  0  0  0  0  0  0  0  0  0
  186.1740  177.3610  144.0880 C   0  0  2  0  0  3  0  0  0  0  0  0
  184.7880  179.2890  144.7040 C   0  0  0  0  0  2  0  0  0  0  0  0
  186.5560  177.8000  145.4170 N   0  0  0  0  0  2  0  0  0  0  0  0
  185.7310  178.8900  145.7680 C   0  0  0  0  0  0  0  0  0  0  0  0
  187.4110  177.0310  143.2570 C   0  0  0  0  0  2  0  0  0  0  0  0
  188.6670  177.2040  144.0940 C   0  0  0  0  0  2  0  0  0  0  0  0
  189.8220  176.4020  143.5230 C   0  0  0  0  0  2  0  0  0  0  0  0
  190.4190  177.0470  142.2680 C   0  0  2  0  0  3  0  0  0  0  0  0
  189.9630  178.3580  142.1240 O   0  0  0  0  0  1  0  0  0  0  0  0
  190.0920  176.3000  141.1240 O   0  0  0  0  0  0  0  0  0  0  0  0
  190.8630  176.7600  140.0280 C   0  0  2  0  0  3  0  0  0  0  0  0
  189.0960  176.7980  138.0960 C   0  0  1  0  0  0  0  0  0  0  0  0
  188.3970  174.9560  136.4080 C   0  0  0  0  0  3  0  0  0  0  0  0
  186.2290  175.2970  135.3670 C   0  0  0  0  0  3  0  0  0  0  0  0
  190.6350  174.8960  138.3460 O   0  0  0  0  0  1  0  0  0  0  0  0
  190.3890  176.2350  138.6620 C   0  0  2  0  0  0  0  0  0  0  0  0
  188.3560  178.0130  138.5430 C   0  0  0  0  0  0  0  0  0  0  0  0
  186.0530  176.4890  136.0840 C   0  0  0  0  0  3  0  0  0  0  0  0
  190.4430  177.1850  137.4850 C   0  0  0  0  0  2  0  0  0  0  0  0
  188.2160  176.1530  137.1000 C   0  0  0  0  0  0  0  0  0  0  0  0
  187.0410  178.1270  137.8230 C   0  0  2  0  0  3  0  0  0  0  0  0
  187.0640  176.9040  136.9490 C   0  0  0  0  0  0  0  0  0  0  0  0
  187.0440  179.2740  137.0290 O   0  0  0  0  0  1  0  0  0  0  0  0
  188.7460  178.7980  139.3920 O   0  0  0  0  0  0  0  0  0  0  0  0
  187.3990  174.5260  135.5240 C   0  0  0  0  0  0  0  0  0  0  0  0
  187.5910  173.3340  134.8220 O   0  0  0  0  0  0  0  0  0  0  0  0
  187.7060  172.0770  135.4640 C   0  0  0  0  0  1  0  0  0  0  0  0
  193.0710  177.8860  139.9420 C   0  0  0  0  0  2  0  0  0  0  0  0
  192.3620  176.5870  140.2550 C   0  0  0  0  0  3  0  0  0  0  0  0
  193.0940  176.7520  138.9430 C   0  0  0  0  0  2  0  0  0  0  0  0
  184.1480  177.8580  142.7910 N   0  0  0  0  0  2  0  0  0  0  0  0
  183.7680  178.6540  141.6330 C   0  0  0  0  0  2  0  0  0  0  0  0
  182.2550  178.7170  141.5430 C   0  0  0  0  0  2  0  0  0  0  0  0
  180.3860  178.3490  140.1500 C   0  0  0  0  0  1  0  0  0  0  0  0
  181.8340  178.4860  140.1670 N   0  0  0  0  0  0  0  0  0  0  0  0
  182.4650  177.2740  139.6220 C   0  0  0  0  0  2  0  0  0  0  0  0
  183.3960  178.3870  137.6850 N   0  0  0  0  0  2  0  0  0  0  0  0
  182.7850  177.3480  138.1510 C   0  0  0  0  0  0  0  0  0  0  0  0
  181.7390  176.4110  136.2430 O   0  0  0  0  0  0  0  0  0  0  0  0
  182.9680  174.9120  137.5440 N   0  0  0  0  0  2  0  0  0  0  0  0
  182.4600  176.2200  137.2590 C   0  0  0  0  0  0  0  0  0  0  0  0
  183.8990  172.9510  136.3650 C   0  0  1  0  0  3  0  0  0  0  0  0
  182.2020  171.0750  135.8380 C   0  0  0  0  0  3  0  0  0  0  0  0
  184.7490  172.6200  137.5840 C   0  0  0  0  0  1  0  0  0  0  0  0
  183.5260  171.6850  135.6420 C   0  0  0  0  0  0  0  0  0  0  0  0
  184.3590  171.1430  134.8710 O   0  0  0  0  0  0  0  0  0  0  0  0
  181.6280  172.8520  137.4660 C   0  0  0  0  0  2  0  0  0  0  0  0
  181.3040  171.6290  136.6590 C   0  0  0  0  0  3  0  0  0  0  0  0
  182.6350  173.7440  136.7340 C   0  0  1  0  0  3  0  0  0  0  0  0
  3  1  1  6  0  0  0
  3  4  1  0  0  0  0
  3  5  1  0  0  0  0
  4  8  1  6  0  0  0
  4  6  1  0  0  0  0
  5  7  1  0  0  0  0
  6  7  1  0  0  0  0
  7  2  2  0  0  0  0
  8  9  1  0  0  0  0
 10  9  1  0  0  0  0
 11 12  1  6  0  0  0
 11 10  1  0  0  0  0
 13 11  1  0  0  0  0
 14 32  1  0  0  0  0
 14 13  1  1  0  0  0
 15 22  1  6  0  0  0
 15 20  1  0  0  0  0
 15 19  1  0  0  0  0
 16 23  1  0  0  0  0
 17 28  1  0  0  0  0
 17 21  2  0  0  0  0
 19 18  1  6  0  0  0
 19 14  1  0  0  0  0
 20 27  2  0  0  0  0
 21 25  1  0  0  0  0
 22 19  1  0  0  0  0
 23 15  1  0  0  0  0
 24 26  1  6  0  0  0
 24 20  1  0  0  0  0
 25 23  2  0  0  0  0
 25 24  1  0  0  0  0
 28 16  2  0  0  0  0
 29 30  1  0  0  0  0
 29 28  1  0  0  0  0
 31 32  1  0  0  0  0
 33 31  1  0  0  0  0
 33 32  1  0  0  0  0
 34  3  1  0  0  0  0
 35 34  1  0  0  0  0
 36 35  1  0  0  0  0
 37 38  1  0  0  0  0
 38 36  1  0  0  0  0
 39 38  1  0  0  0  0
 40 41  2  0  0  0  0
 41 39  1  0  0  0  0
 42 44  2  0  0  0  0
 44 43  1  0  0  0  0
 44 41  1  0  0  0  0
 45 52  1  0  0  0  0
 45 47  1  1  0  0  0
 46 51  2  0  0  0  0
 48 46  1  0  0  0  0
 48 45  1  0  0  0  0
 49 48  2  0  0  0  0
 51 50  1  0  0  0  0
 52 50  1  0  0  0  0
 52 43  1  1  0  0  0
M  END
>  <MODEL>
9

>  <REMARK>
 VINA RESULT:      -6.4      2.734      9.289
  Name = 
  17 active torsions:
  status: ('A' for Active; 'I' for Inactive)
    1  A    between atoms: C_1  and  C_5
    2  A    between atoms: C_1  and  N_26
    3  A    between atoms: C_3  and  C_24
    4  A    between atoms: C_3  and  O_51
    5  A    between atoms: C_5  and  C_31
    6  A    between atoms: C_13  and  C_17
    7  A    between atoms: C_13  and  C_18
    8  A    between atoms: C_13  and  O_51
    9  A    between atoms: C_15  and  N_22
   10  A    between atoms: C_15  and  C_27
   11  A    between atoms: C_16  and  N_22
   12  A    between atoms: C_23  and  C_35
   13  A    between atoms: C_24  and  C_28
   14  A    between atoms: N_25  and  C_50
   15  A    between atoms: N_26  and  C_27
   16  A    between atoms: C_28  and  C_35
   17  A    between atoms: O_34  and  C_52
                            x       y       z     vdW  Elec       q    Type
                         _______ _______ _______ _____ _____    ______ ____

>  <TORSDO>
F 17

$$$$
