=
 OpenBabel11062415023D

 31 35  0  0  1  0  0  0  0  0999 V2000
  187.0790  177.8890  145.9520 C   0  0  0  0  0  0  0  0  0  0  0  0
  189.4500  177.2510  145.6700 C   0  0  0  0  0  0  0  0  0  0  0  0
  188.2540  177.5360  146.5260 C   0  0  2  0  0  3  0  0  0  0  0  0
  190.9630  178.2310  143.1130 C   0  0  0  0  0  1  0  0  0  0  0  0
  185.9480  179.0230  141.5100 C   0  0  0  0  0  2  0  0  0  0  0  0
  190.5390  176.8180  143.4850 C   0  0  1  0  0  0  0  0  0  0  0  0
  183.0320  178.8390  141.4280 C   0  0  0  0  0  3  0  0  0  0  0  0
  183.2730  178.6410  144.0170 C   0  0  0  0  0  2  0  0  0  0  0  0
  185.8670  178.1310  146.7790 C   0  0  0  0  0  3  0  0  0  0  0  0
  189.3140  176.8870  144.3760 C   0  0  0  0  0  0  0  0  0  0  0  0
  186.9920  178.0120  144.4380 C   0  0  0  0  0  0  0  0  0  0  0  0
  190.2400  176.1430  142.2960 O   0  0  0  0  0  1  0  0  0  0  0  0
  191.8400  176.5120  145.7140 C   0  0  0  0  0  2  0  0  0  0  0  0
  183.6670  178.8770  140.2390 C   0  0  0  0  0  0  0  0  0  0  0  0
  185.1310  178.2710  142.5420 C   0  0  2  0  0  3  0  0  0  0  0  0
  190.8290  177.5640  146.1790 C   0  0  0  0  0  2  0  0  0  0  0  0
  191.7120  176.1210  144.2280 C   0  0  1  0  0  3  0  0  0  0  0  0
  187.6830  176.5010  143.7080 S   0  0  0  0  0  0  0  0  0  0  0  0
  183.8380  179.0280  142.6640 C   0  0  1  0  0  3  0  0  0  0  0  0
  184.6780  178.3740  146.2220 C   0  0  0  0  0  3  0  0  0  0  0  0
  184.5470  178.4070  144.7620 C   0  0  0  0  0  0  0  0  0  0  0  0
  185.1960  178.9780  140.1550 C   0  0  0  0  0  2  0  0  0  0  0  0
  185.5870  178.2530  143.9510 C   0  0  0  0  0  0  0  0  0  0  0  0
  182.8950  178.7370  138.9870 C   0  0  0  0  0  0  0  0  0  0  0  0
  183.3180  177.9790  138.0730 O   0  0  0  0  0  0  0  0  0  0  0  0
  181.6030  179.4600  138.7810 C   0  0  0  0  0  2  0  0  0  0  0  0
  181.8710  180.9130  138.4370 C   0  0  0  0  0  1  0  0  0  0  0  0
  188.7590  178.3880  148.7480 N   0  0  0  0  0  2  0  0  0  0  0  0
  188.3360  177.4220  148.0010 C   0  0  0  0  0  3  0  0  0  0  0  0
  192.5030  173.9370  144.6840 O   0  0  0  0  0  0  0  0  0  0  0  0
  191.6490  174.6250  144.1490 C   0  0  0  0  0  3  0  0  0  0  0  0
  1  3  1  0  0  0  0
  1  9  1  0  0  0  0
  2 16  1  0  0  0  0
  2  3  1  0  0  0  0
  3 29  1  6  0  0  0
  6  4  1  6  0  0  0
  6 17  1  0  0  0  0
  6 10  1  0  0  0  0
  8 21  1  0  0  0  0
 10  2  2  0  0  0  0
 11  1  2  0  0  0  0
 12  6  1  0  0  0  0
 13 16  1  0  0  0  0
 14  7  2  0  0  0  0
 15  5  1  6  0  0  0
 15 19  1  0  0  0  0
 15 23  1  0  0  0  0
 17 31  1  1  0  0  0
 17 13  1  0  0  0  0
 18 10  1  0  0  0  0
 18 11  1  0  0  0  0
 19  7  1  6  0  0  0
 19  8  1  0  0  0  0
 20  9  2  0  0  0  0
 21 20  1  0  0  0  0
 22 14  1  0  0  0  0
 22  5  1  0  0  0  0
 23 11  1  0  0  0  0
 23 21  2  0  0  0  0
 24 14  1  0  0  0  0
 25 24  2  0  0  0  0
 26 24  1  0  0  0  0
 27 26  1  0  0  0  0
 29 28  2  0  0  0  0
 31 30  2  0  0  0  0
M  END
>  <MODEL>
1

>  <REMARK>
 VINA RESULT:     -10.5      0.000      0.000
  Name = 
  4 active torsions:
  status: ('A' for Active; 'I' for Inactive)
    1  A    between atoms: C_1  and  C_2
    2  A    between atoms: C_1  and  C_20
    3  A    between atoms: C_6  and  C_27
    4  A    between atoms: C_23  and  C_24
                            x       y       z     vdW  Elec       q    Type
                         _______ _______ _______ _____ _____    ______ ____

>  <TORSDO>
F 4

$$$$
=
 OpenBabel11062415023D

 31 35  0  0  1  0  0  0  0  0999 V2000
  187.0730  177.9060  145.9540 C   0  0  0  0  0  0  0  0  0  0  0  0
  189.4430  177.2720  145.6560 C   0  0  0  0  0  0  0  0  0  0  0  0
  188.2540  177.5600  146.5200 C   0  0  2  0  0  3  0  0  0  0  0  0
  190.9330  178.2390  143.0810 C   0  0  0  0  0  1  0  0  0  0  0  0
  185.9020  179.0060  141.5130 C   0  0  0  0  0  2  0  0  0  0  0  0
  190.5150  176.8280  143.4650 C   0  0  1  0  0  0  0  0  0  0  0  0
  182.9860  178.8130  141.4570 C   0  0  0  0  0  3  0  0  0  0  0  0
  183.2490  178.6340  144.0450 C   0  0  0  0  0  2  0  0  0  0  0  0
  185.8670  178.1500  146.7890 C   0  0  0  0  0  3  0  0  0  0  0  0
  189.2980  176.8990  144.3660 C   0  0  0  0  0  0  0  0  0  0  0  0
  186.9730  178.0180  144.4400 C   0  0  0  0  0  0  0  0  0  0  0  0
  190.2090  176.1440  142.2840 O   0  0  0  0  0  1  0  0  0  0  0  0
  191.8360  176.5410  145.6860 C   0  0  0  0  0  2  0  0  0  0  0  0
  183.6110  178.8440  140.2630 C   0  0  0  0  0  0  0  0  0  0  0  0
  185.0960  178.2580  142.5570 C   0  0  2  0  0  3  0  0  0  0  0  0
  190.8260  177.5930  146.1520 C   0  0  0  0  0  2  0  0  0  0  0  0
  191.6970  176.1400  144.2030 C   0  0  1  0  0  3  0  0  0  0  0  0
  187.6630  176.5040  143.7140 S   0  0  0  0  0  0  0  0  0  0  0  0
  183.8020  179.0120  142.6850 C   0  0  1  0  0  3  0  0  0  0  0  0
  184.6730  178.3850  146.2400 C   0  0  0  0  0  3  0  0  0  0  0  0
  184.5300  178.4080  144.7810 C   0  0  0  0  0  0  0  0  0  0  0  0
  185.1390  178.9500  140.1650 C   0  0  0  0  0  2  0  0  0  0  0  0
  185.5640  178.2510  143.9630 C   0  0  0  0  0  0  0  0  0  0  0  0
  182.8300  178.6940  139.0180 C   0  0  0  0  0  0  0  0  0  0  0  0
  181.9530  179.5490  138.7230 O   0  0  0  0  0  0  0  0  0  0  0  0
  183.0690  177.5570  138.0780 C   0  0  0  0  0  2  0  0  0  0  0  0
  182.9150  176.2380  138.8110 C   0  0  0  0  0  1  0  0  0  0  0  0
  188.7590  178.4340  148.7330 N   0  0  0  0  0  2  0  0  0  0  0  0
  188.3490  177.4570  147.9960 C   0  0  0  0  0  3  0  0  0  0  0  0
  192.4880  173.9610  144.6830 O   0  0  0  0  0  0  0  0  0  0  0  0
  191.6370  174.6430  144.1360 C   0  0  0  0  0  3  0  0  0  0  0  0
  1  3  1  0  0  0  0
  1  9  1  0  0  0  0
  2 16  1  0  0  0  0
  2  3  1  0  0  0  0
  3 29  1  6  0  0  0
  6  4  1  6  0  0  0
  6 17  1  0  0  0  0
  6 10  1  0  0  0  0
  8 21  1  0  0  0  0
 10  2  2  0  0  0  0
 11  1  2  0  0  0  0
 12  6  1  0  0  0  0
 13 16  1  0  0  0  0
 14  7  2  0  0  0  0
 15  5  1  6  0  0  0
 15 19  1  0  0  0  0
 15 23  1  0  0  0  0
 17 31  1  1  0  0  0
 17 13  1  0  0  0  0
 18 10  1  0  0  0  0
 18 11  1  0  0  0  0
 19  7  1  6  0  0  0
 19  8  1  0  0  0  0
 20  9  2  0  0  0  0
 21 20  1  0  0  0  0
 22 14  1  0  0  0  0
 22  5  1  0  0  0  0
 23 11  1  0  0  0  0
 23 21  2  0  0  0  0
 24 14  1  0  0  0  0
 25 24  2  0  0  0  0
 26 27  1  0  0  0  0
 26 24  1  0  0  0  0
 29 28  2  0  0  0  0
 31 30  2  0  0  0  0
M  END
>  <MODEL>
2

>  <REMARK>
 VINA RESULT:     -10.5      0.656      1.049
  Name = 
  4 active torsions:
  status: ('A' for Active; 'I' for Inactive)
    1  A    between atoms: C_1  and  C_2
    2  A    between atoms: C_1  and  C_20
    3  A    between atoms: C_6  and  C_27
    4  A    between atoms: C_23  and  C_24
                            x       y       z     vdW  Elec       q    Type
                         _______ _______ _______ _____ _____    ______ ____

>  <TORSDO>
F 4

$$$$
=
 OpenBabel11062415023D

 31 35  0  0  1  0  0  0  0  0999 V2000
  183.3070  178.6340  143.9390 C   0  0  0  0  0  0  0  0  0  0  0  0
  182.4140  178.7340  141.6360 C   0  0  0  0  0  0  0  0  0  0  0  0
  182.2600  178.8890  143.1180 C   0  0  2  0  0  3  0  0  0  0  0  0
  183.7130  176.9090  139.4520 C   0  0  0  0  0  1  0  0  0  0  0  0
  187.5440  176.7040  143.1450 C   0  0  0  0  0  2  0  0  0  0  0  0
  183.7730  178.4230  139.5860 C   0  0  1  0  0  0  0  0  0  0  0  0
  189.1190  177.4030  145.5060 C   0  0  0  0  0  3  0  0  0  0  0  0
  186.8110  178.1640  146.4500 C   0  0  0  0  0  2  0  0  0  0  0  0
  183.1920  178.8260  145.4090 C   0  0  0  0  0  3  0  0  0  0  0  0
  183.6290  178.7970  141.0480 C   0  0  0  0  0  0  0  0  0  0  0  0
  184.6300  178.1720  143.3430 C   0  0  0  0  0  0  0  0  0  0  0  0
  185.0160  178.8380  139.0960 O   0  0  0  0  0  1  0  0  0  0  0  0
  181.2430  179.0040  139.4420 C   0  0  0  0  0  2  0  0  0  0  0  0
  189.8060  176.9650  144.4310 C   0  0  0  0  0  0  0  0  0  0  0  0
  187.1650  177.8200  144.1000 C   0  0  2  0  0  3  0  0  0  0  0  0
  181.2420  178.2990  140.8010 C   0  0  0  0  0  2  0  0  0  0  0  0
  182.6210  179.0460  138.7500 C   0  0  1  0  0  3  0  0  0  0  0  0
  185.0730  179.3100  142.0000 S   0  0  0  0  0  0  0  0  0  0  0  0
  187.6330  177.3670  145.4540 C   0  0  1  0  0  3  0  0  0  0  0  0
  184.2450  178.6830  146.2170 C   0  0  0  0  0  3  0  0  0  0  0  0
  185.5530  178.3270  145.6590 C   0  0  0  0  0  0  0  0  0  0  0  0
  189.0880  176.5640  143.1350 C   0  0  0  0  0  2  0  0  0  0  0  0
  185.7330  178.0880  144.3650 C   0  0  0  0  0  0  0  0  0  0  0  0
  191.2830  176.9430  144.4590 C   0  0  0  0  0  0  0  0  0  0  0  0
  191.9320  177.9170  143.9920 O   0  0  0  0  0  0  0  0  0  0  0  0
  192.0360  175.7970  145.0530 C   0  0  0  0  0  2  0  0  0  0  0  0
  192.0750  175.9310  146.5640 C   0  0  0  0  0  1  0  0  0  0  0  0
  180.0400  178.5040  144.0340 N   0  0  0  0  0  2  0  0  0  0  0  0
  180.9730  179.3330  143.7020 C   0  0  0  0  0  3  0  0  0  0  0  0
  182.1240  181.3580  138.6680 O   0  0  0  0  0  0  0  0  0  0  0  0
  182.8910  180.4650  138.3480 C   0  0  0  0  0  3  0  0  0  0  0  0
  1  9  1  0  0  0  0
  2  3  1  0  0  0  0
  3 29  1  6  0  0  0
  3  1  1  0  0  0  0
  6  4  1  6  0  0  0
  6 10  1  0  0  0  0
  9 20  2  0  0  0  0
 10  2  2  0  0  0  0
 10 18  1  0  0  0  0
 11  1  2  0  0  0  0
 11 23  1  0  0  0  0
 12  6  1  0  0  0  0
 13 16  1  0  0  0  0
 14 24  1  0  0  0  0
 14  7  2  0  0  0  0
 15  5  1  6  0  0  0
 15 23  1  0  0  0  0
 15 19  1  0  0  0  0
 16  2  1  0  0  0  0
 17 31  1  1  0  0  0
 17 13  1  0  0  0  0
 17  6  1  0  0  0  0
 18 11  1  0  0  0  0
 19  7  1  6  0  0  0
 19  8  1  0  0  0  0
 21 20  1  0  0  0  0
 21  8  1  0  0  0  0
 22  5  1  0  0  0  0
 22 14  1  0  0  0  0
 23 21  2  0  0  0  0
 24 26  1  0  0  0  0
 25 24  2  0  0  0  0
 26 27  1  0  0  0  0
 29 28  2  0  0  0  0
 31 30  2  0  0  0  0
M  END
>  <MODEL>
3

>  <REMARK>
 VINA RESULT:      -9.5      2.437      8.209
  Name = 
  4 active torsions:
  status: ('A' for Active; 'I' for Inactive)
    1  A    between atoms: C_1  and  C_2
    2  A    between atoms: C_1  and  C_20
    3  A    between atoms: C_6  and  C_27
    4  A    between atoms: C_23  and  C_24
                            x       y       z     vdW  Elec       q    Type
                         _______ _______ _______ _____ _____    ______ ____

>  <TORSDO>
F 4

$$$$
=
 OpenBabel11062415023D

 31 35  0  0  1  0  0  0  0  0999 V2000
  185.4400  178.4950  141.3300 C   0  0  0  0  0  0  0  0  0  0  0  0
  186.2700  178.2280  139.0170 C   0  0  0  0  0  0  0  0  0  0  0  0
  185.2150  178.6300  140.0010 C   0  0  2  0  0  3  0  0  0  0  0  0
  188.4340  176.0390  138.4530 C   0  0  0  0  0  1  0  0  0  0  0  0
  188.9010  176.3770  143.7460 C   0  0  0  0  0  2  0  0  0  0  0  0
  188.5810  177.5530  138.4220 C   0  0  1  0  0  0  0  0  0  0  0  0
  188.6450  177.4270  146.4620 C   0  0  0  0  0  3  0  0  0  0  0  0
  186.3930  178.3800  145.5580 C   0  0  0  0  0  2  0  0  0  0  0  0
  184.4260  178.9310  142.3260 C   0  0  0  0  0  3  0  0  0  0  0  0
  187.5730  178.1680  139.3720 C   0  0  0  0  0  0  0  0  0  0  0  0
  186.7630  177.9140  141.8100 C   0  0  0  0  0  0  0  0  0  0  0  0
  189.8840  177.8570  138.8290 O   0  0  0  0  0  1  0  0  0  0  0  0
  186.8430  178.1510  136.5830 C   0  0  0  0  0  2  0  0  0  0  0  0
  189.8030  176.8040  146.1640 C   0  0  0  0  0  0  0  0  0  0  0  0
  188.1370  177.6430  144.0820 C   0  0  2  0  0  3  0  0  0  0  0  0
  185.8750  177.6840  137.6730 C   0  0  0  0  0  2  0  0  0  0  0  0
  188.3330  178.0510  136.9710 C   0  0  1  0  0  3  0  0  0  0  0  0
  188.1070  178.8030  140.9740 S   0  0  0  0  0  0  0  0  0  0  0  0
  187.5570  177.4130  145.4490 C   0  0  1  0  0  3  0  0  0  0  0  0
  184.6780  178.9040  143.6370 C   0  0  0  0  0  3  0  0  0  0  0  0
  185.9780  178.4340  144.1240 C   0  0  0  0  0  0  0  0  0  0  0  0
  190.0510  176.2060  144.7720 C   0  0  0  0  0  2  0  0  0  0  0  0
  186.9210  177.9790  143.3060 C   0  0  0  0  0  0  0  0  0  0  0  0
  190.8930  176.7570  147.1590 C   0  0  0  0  0  0  0  0  0  0  0  0
  190.8380  177.4910  148.1820 O   0  0  0  0  0  0  0  0  0  0  0  0
  192.0610  175.8380  146.9980 C   0  0  0  0  0  2  0  0  0  0  0  0
  192.8020  175.7060  148.3140 C   0  0  0  0  0  1  0  0  0  0  0  0
  183.8120  180.3980  139.0930 N   0  0  0  0  0  2  0  0  0  0  0  0
  183.9240  179.1910  139.5380 C   0  0  0  0  0  3  0  0  0  0  0  0
  189.0560  180.2250  137.5630 O   0  0  0  0  0  0  0  0  0  0  0  0
  188.9720  179.3780  136.6900 C   0  0  0  0  0  3  0  0  0  0  0  0
  1 11  2  0  0  0  0
  1  9  1  0  0  0  0
  2 10  2  0  0  0  0
  2  3  1  0  0  0  0
  3 29  1  1  0  0  0
  3  1  1  0  0  0  0
  5 22  1  0  0  0  0
  6  4  1  1  0  0  0
  6 12  1  0  0  0  0
  6 10  1  0  0  0  0
  9 20  2  0  0  0  0
 10 18  1  0  0  0  0
 11 23  1  0  0  0  0
 13 17  1  0  0  0  0
 13 16  1  0  0  0  0
 14  7  2  0  0  0  0
 14 24  1  0  0  0  0
 15  5  1  6  0  0  0
 15 19  1  0  0  0  0
 16  2  1  0  0  0  0
 17 31  1  1  0  0  0
 17  6  1  0  0  0  0
 18 11  1  0  0  0  0
 19  8  1  1  0  0  0
 19  7  1  0  0  0  0
 20 21  1  0  0  0  0
 21  8  1  0  0  0  0
 22 14  1  0  0  0  0
 23 15  1  0  0  0  0
 23 21  2  0  0  0  0
 24 25  2  0  0  0  0
 26 24  1  0  0  0  0
 26 27  1  0  0  0  0
 28 29  2  0  0  0  0
 31 30  2  0  0  0  0
M  END
>  <MODEL>
4

>  <REMARK>
 VINA RESULT:      -8.5      3.410      7.949
  Name = 
  4 active torsions:
  status: ('A' for Active; 'I' for Inactive)
    1  A    between atoms: C_1  and  C_2
    2  A    between atoms: C_1  and  C_20
    3  A    between atoms: C_6  and  C_27
    4  A    between atoms: C_23  and  C_24
                            x       y       z     vdW  Elec       q    Type
                         _______ _______ _______ _____ _____    ______ ____

>  <TORSDO>
F 4

$$$$
=
 OpenBabel11062415023D

 31 35  0  0  1  0  0  0  0  0999 V2000
  186.9080  177.9770  144.7320 C   0  0  0  0  0  0  0  0  0  0  0  0
  189.1050  177.4430  145.7300 C   0  0  0  0  0  0  0  0  0  0  0  0
  187.6430  177.7450  145.8460 C   0  0  2  0  0  3  0  0  0  0  0  0
  191.6900  178.2510  144.1640 C   0  0  0  0  0  1  0  0  0  0  0  0
  188.1360  178.6140  140.2160 C   0  0  0  0  0  2  0  0  0  0  0  0
  191.1350  176.8600  144.4310 C   0  0  1  0  0  0  0  0  0  0  0  0
  185.6450  178.2670  138.7260 C   0  0  0  0  0  3  0  0  0  0  0  0
  184.5680  178.3330  141.0990 C   0  0  0  0  0  2  0  0  0  0  0  0
  185.4460  178.2330  144.8190 C   0  0  0  0  0  3  0  0  0  0  0  0
  189.6300  176.9490  144.5860 C   0  0  0  0  0  0  0  0  0  0  0  0
  187.5850  177.9490  143.3690 C   0  0  0  0  0  0  0  0  0  0  0  0
  191.4660  176.0590  143.3330 O   0  0  0  0  0  1  0  0  0  0  0  0
  191.1570  176.8420  147.0300 C   0  0  0  0  0  2  0  0  0  0  0  0
  186.7870  178.2240  138.0100 C   0  0  0  0  0  0  0  0  0  0  0  0
  186.9120  177.9220  140.7860 C   0  0  2  0  0  3  0  0  0  0  0  0
  190.0500  177.8780  146.8150 C   0  0  0  0  0  2  0  0  0  0  0  0
  191.7840  176.3030  145.7280 C   0  0  1  0  0  3  0  0  0  0  0  0
  188.5460  176.4130  143.2480 S   0  0  0  0  0  0  0  0  0  0  0  0
  185.7310  178.6170  140.1690 C   0  0  1  0  0  3  0  0  0  0  0  0
  184.6920  178.3560  143.7250 C   0  0  0  0  0  3  0  0  0  0  0  0
  185.3030  178.2410  142.3970 C   0  0  0  0  0  0  0  0  0  0  0  0
  188.1560  178.3990  138.6810 C   0  0  0  0  0  2  0  0  0  0  0  0
  186.6080  178.0650  142.2290 C   0  0  0  0  0  0  0  0  0  0  0  0
  186.7390  177.9230  136.5650 C   0  0  0  0  0  0  0  0  0  0  0  0
  187.2730  178.7150  135.7430 O   0  0  0  0  0  0  0  0  0  0  0  0
  186.0900  176.6800  136.0460 C   0  0  0  0  0  2  0  0  0  0  0  0
  187.1430  175.6270  135.7590 C   0  0  0  0  0  1  0  0  0  0  0  0
  186.8730  178.8640  147.8640 N   0  0  0  0  0  2  0  0  0  0  0  0
  186.9810  177.7790  147.1720 C   0  0  0  0  0  3  0  0  0  0  0  0
  192.7390  174.1550  145.4510 O   0  0  0  0  0  0  0  0  0  0  0  0
  191.7650  174.8050  145.7950 C   0  0  0  0  0  3  0  0  0  0  0  0
  1  9  1  0  0  0  0
  1  3  1  0  0  0  0
  2  3  1  0  0  0  0
  2 16  1  0  0  0  0
  3 29  1  6  0  0  0
  6  4  1  6  0  0  0
  6 10  1  0  0  0  0
  6 17  1  0  0  0  0
  8 21  1  0  0  0  0
 10  2  2  0  0  0  0
 11  1  2  0  0  0  0
 12  6  1  0  0  0  0
 14 22  1  0  0  0  0
 14  7  2  0  0  0  0
 15  5  1  1  0  0  0
 15 23  1  0  0  0  0
 16 13  1  0  0  0  0
 17 31  1  1  0  0  0
 17 13  1  0  0  0  0
 18 11  1  0  0  0  0
 18 10  1  0  0  0  0
 19  7  1  6  0  0  0
 19 15  1  0  0  0  0
 19  8  1  0  0  0  0
 20  9  2  0  0  0  0
 21 20  1  0  0  0  0
 22  5  1  0  0  0  0
 23 21  2  0  0  0  0
 23 11  1  0  0  0  0
 24 14  1  0  0  0  0
 25 24  2  0  0  0  0
 26 24  1  0  0  0  0
 27 26  1  0  0  0  0
 29 28  2  0  0  0  0
 30 31  2  0  0  0  0
M  END
>  <MODEL>
5

>  <REMARK>
 VINA RESULT:      -8.2      2.217      2.912
  Name = 
  4 active torsions:
  status: ('A' for Active; 'I' for Inactive)
    1  A    between atoms: C_1  and  C_2
    2  A    between atoms: C_1  and  C_20
    3  A    between atoms: C_6  and  C_27
    4  A    between atoms: C_23  and  C_24
                            x       y       z     vdW  Elec       q    Type
                         _______ _______ _______ _____ _____    ______ ____

>  <TORSDO>
F 4

$$$$
=
 OpenBabel11062415023D

 31 35  0  0  1  0  0  0  0  0999 V2000
  189.2710  177.5920  144.0630 C   0  0  0  0  0  0  0  0  0  0  0  0
  190.4780  177.4300  141.9130 C   0  0  0  0  0  0  0  0  0  0  0  0
  190.4310  177.3470  143.4080 C   0  0  2  0  0  3  0  0  0  0  0  0
  189.4300  179.1000  139.4840 C   0  0  0  0  0  1  0  0  0  0  0  0
  185.1190  179.3020  142.6020 C   0  0  0  0  0  2  0  0  0  0  0  0
  189.4070  177.5920  139.6830 C   0  0  1  0  0  0  0  0  0  0  0  0
  183.2570  178.6410  144.7570 C   0  0  0  0  0  3  0  0  0  0  0  0
  185.4380  178.0220  146.0440 C   0  0  0  0  0  2  0  0  0  0  0  0
  189.1880  177.4700  145.5430 C   0  0  0  0  0  3  0  0  0  0  0  0
  189.3600  177.2880  141.1680 C   0  0  0  0  0  0  0  0  0  0  0  0
  188.0290  177.9710  143.2700 C   0  0  0  0  0  0  0  0  0  0  0  0
  188.2600  177.1020  139.0490 O   0  0  0  0  0  1  0  0  0  0  0  0
  191.9520  177.1140  139.9150 C   0  0  0  0  0  2  0  0  0  0  0  0
  182.7110  179.0010  143.5780 C   0  0  0  0  0  0  0  0  0  0  0  0
  185.4010  178.2470  143.6540 C   0  0  2  0  0  3  0  0  0  0  0  0
  191.7390  177.8770  141.2260 C   0  0  0  0  0  2  0  0  0  0  0  0
  190.6860  176.9830  139.0440 C   0  0  1  0  0  3  0  0  0  0  0  0
  187.8180  176.7570  141.9370 S   0  0  0  0  0  0  0  0  0  0  0  0
  184.7340  178.7380  144.9080 C   0  0  1  0  0  3  0  0  0  0  0  0
  188.0290  177.6030  146.1910 C   0  0  0  0  0  3  0  0  0  0  0  0
  186.7990  177.8780  145.4430 C   0  0  0  0  0  0  0  0  0  0  0  0
  183.5870  179.3760  142.3750 C   0  0  0  0  0  2  0  0  0  0  0  0
  186.7920  178.0520  144.1260 C   0  0  0  0  0  0  0  0  0  0  0  0
  181.2450  178.9610  143.4020 C   0  0  0  0  0  0  0  0  0  0  0  0
  180.5090  178.6050  144.3610 O   0  0  0  0  0  0  0  0  0  0  0  0
  180.6020  179.3570  142.1130 C   0  0  0  0  0  2  0  0  0  0  0  0
  179.6070  180.4780  142.3520 C   0  0  0  0  0  1  0  0  0  0  0  0
  192.0530  175.7650  144.2940 N   0  0  0  0  0  2  0  0  0  0  0  0
  191.6400  176.9840  144.1840 C   0  0  0  0  0  3  0  0  0  0  0  0
  191.4900  174.8720  138.3370 O   0  0  0  0  0  0  0  0  0  0  0  0
  190.5260  175.5370  138.6790 C   0  0  0  0  0  3  0  0  0  0  0  0
  1  9  1  0  0  0  0
  2  3  1  0  0  0  0
  3  1  1  0  0  0  0
  3 29  1  6  0  0  0
  6  4  1  6  0  0  0
  6 10  1  0  0  0  0
  9 20  2  0  0  0  0
 10  2  2  0  0  0  0
 10 18  1  0  0  0  0
 11  1  2  0  0  0  0
 11 23  1  0  0  0  0
 12  6  1  0  0  0  0
 13 16  1  0  0  0  0
 14  7  2  0  0  0  0
 15  5  1  6  0  0  0
 15 23  1  0  0  0  0
 15 19  1  0  0  0  0
 16  2  1  0  0  0  0
 17 31  1  1  0  0  0
 17  6  1  0  0  0  0
 17 13  1  0  0  0  0
 18 11  1  0  0  0  0
 19  7  1  6  0  0  0
 19  8  1  0  0  0  0
 21  8  1  0  0  0  0
 21 20  1  0  0  0  0
 22  5  1  0  0  0  0
 22 14  1  0  0  0  0
 23 21  2  0  0  0  0
 24 14  1  0  0  0  0
 24 25  2  0  0  0  0
 26 27  1  0  0  0  0
 26 24  1  0  0  0  0
 29 28  2  0  0  0  0
 30 31  2  0  0  0  0
M  END
>  <MODEL>
6

>  <REMARK>
 VINA RESULT:      -7.9      2.882      4.065
  Name = 
  4 active torsions:
  status: ('A' for Active; 'I' for Inactive)
    1  A    between atoms: C_1  and  C_2
    2  A    between atoms: C_1  and  C_20
    3  A    between atoms: C_6  and  C_27
    4  A    between atoms: C_23  and  C_24
                            x       y       z     vdW  Elec       q    Type
                         _______ _______ _______ _____ _____    ______ ____

>  <TORSDO>
F 4

$$$$
=
 OpenBabel11062415023D

 31 35  0  0  1  0  0  0  0  0999 V2000
  189.1370  177.2320  137.8690 C   0  0  0  0  0  0  0  0  0  0  0  0
  190.9760  176.3140  136.4980 C   0  0  0  0  0  0  0  0  0  0  0  0
  189.6400  176.9760  136.6380 C   0  0  2  0  0  3  0  0  0  0  0  0
  192.7770  174.0710  137.7270 C   0  0  0  0  0  1  0  0  0  0  0  0
  190.5360  175.9260  142.1860 C   0  0  0  0  0  2  0  0  0  0  0  0
  193.1410  175.5130  137.4030 C   0  0  1  0  0  0  0  0  0  0  0  0
  189.0930  177.7140  143.9940 C   0  0  0  0  0  3  0  0  0  0  0  0
  187.7800  178.3500  141.8330 C   0  0  0  0  0  2  0  0  0  0  0  0
  187.8340  177.9300  138.0330 C   0  0  0  0  0  3  0  0  0  0  0  0
  191.8930  176.3690  137.4890 C   0  0  0  0  0  0  0  0  0  0  0  0
  189.9300  176.8240  139.1020 C   0  0  0  0  0  0  0  0  0  0  0  0
  194.0850  175.9300  138.3470 O   0  0  0  0  0  1  0  0  0  0  0  0
  192.6880  175.5420  134.8440 C   0  0  0  0  0  2  0  0  0  0  0  0
  190.1360  177.0400  144.5190 C   0  0  0  0  0  0  0  0  0  0  0  0
  189.9020  177.2300  141.7400 C   0  0  2  0  0  3  0  0  0  0  0  0
  191.2440  175.4020  135.3320 C   0  0  0  0  0  2  0  0  0  0  0  0
  193.7400  175.5680  135.9710 C   0  0  1  0  0  3  0  0  0  0  0  0
  191.6260  177.4430  138.9130 S   0  0  0  0  0  0  0  0  0  0  0  0
  188.6810  177.4010  142.5990 C   0  0  1  0  0  3  0  0  0  0  0  0
  187.3770  178.2840  139.2360 C   0  0  0  0  0  3  0  0  0  0  0  0
  188.1650  177.9850  140.4360 C   0  0  0  0  0  0  0  0  0  0  0  0
  190.9650  176.0670  143.6690 C   0  0  0  0  0  2  0  0  0  0  0  0
  189.3140  177.3200  140.3840 C   0  0  0  0  0  0  0  0  0  0  0  0
  190.5480  177.2900  145.9150 C   0  0  0  0  0  0  0  0  0  0  0  0
  191.7330  177.0490  146.2700 O   0  0  0  0  0  0  0  0  0  0  0  0
  189.5970  177.8500  146.9220 C   0  0  0  0  0  2  0  0  0  0  0  0
  188.7850  176.7310  147.5460 C   0  0  0  0  0  1  0  0  0  0  0  0
  188.0170  176.5760  134.8700 N   0  0  0  0  0  2  0  0  0  0  0  0
  188.8620  177.3700  135.4390 C   0  0  0  0  0  3  0  0  0  0  0  0
  195.8300  176.6330  135.6520 O   0  0  0  0  0  0  0  0  0  0  0  0
  194.6210  176.7620  135.7510 C   0  0  0  0  0  3  0  0  0  0  0  0
  1  9  2  0  0  0  0
  1 11  1  0  0  0  0
  2  3  1  0  0  0  0
  2 10  2  0  0  0  0
  3 29  1  6  0  0  0
  3  1  1  0  0  0  0
  5 22  1  0  0  0  0
  6 10  1  0  0  0  0
  6  4  1  1  0  0  0
  6 12  1  0  0  0  0
  7 14  2  0  0  0  0
  9 20  1  0  0  0  0
 10 18  1  0  0  0  0
 11 23  2  0  0  0  0
 13 16  1  0  0  0  0
 13 17  1  0  0  0  0
 14 24  1  0  0  0  0
 15  5  1  6  0  0  0
 15 19  1  0  0  0  0
 16  2  1  0  0  0  0
 17 31  1  1  0  0  0
 17  6  1  0  0  0  0
 18 11  1  0  0  0  0
 19  8  1  6  0  0  0
 19  7  1  0  0  0  0
 20 21  2  0  0  0  0
 21  8  1  0  0  0  0
 22 14  1  0  0  0  0
 23 21  1  0  0  0  0
 23 15  1  0  0  0  0
 24 25  2  0  0  0  0
 24 26  1  0  0  0  0
 26 27  1  0  0  0  0
 28 29  2  0  0  0  0
 30 31  2  0  0  0  0
M  END
>  <MODEL>
7

>  <REMARK>
 VINA RESULT:      -7.7      5.628      8.729
  Name = 
  4 active torsions:
  status: ('A' for Active; 'I' for Inactive)
    1  A    between atoms: C_1  and  C_2
    2  A    between atoms: C_1  and  C_20
    3  A    between atoms: C_6  and  C_27
    4  A    between atoms: C_23  and  C_24
                            x       y       z     vdW  Elec       q    Type
                         _______ _______ _______ _____ _____    ______ ____

>  <TORSDO>
F 4

$$$$
