=
 OpenBabel11062415593D

 41 44  0  0  1  0  0  0  0  0999 V2000
  184.2020  179.3920  144.6080 C   0  0  0  0  0  2  0  0  0  0  0  0
  182.7990  178.8670  144.3830 C   0  0  0  0  0  2  0  0  0  0  0  0
  182.4140  178.9880  142.9160 C   0  0  0  0  0  2  0  0  0  0  0  0
  180.0360  178.8200  143.6800 C   0  0  0  0  0  1  0  0  0  0  0  0
  181.0510  178.3590  142.6470 C   0  0  1  0  0  3  0  0  0  0  0  0
  180.5670  178.5790  141.1980 C   0  0  2  0  0  3  0  0  0  0  0  0
  179.9530  180.0550  139.1970 C   0  0  0  0  0  2  0  0  0  0  0  0
  181.4680  180.1310  139.2050 C   0  0  1  0  0  3  0  0  0  0  0  0
  180.6810  179.9800  140.5280 C   0  0  2  0  0  3  0  0  0  0  0  0
  182.1300  178.8450  138.6830 C   0  0  1  0  0  3  0  0  0  0  0  0
  182.1770  177.2850  135.3040 F   0  0  0  0  0  0  0  0  0  0  0  0
  181.7650  178.5350  137.2440 C   0  0  0  0  0  0  0  0  0  0  0  0
  184.4190  177.7820  138.0990 C   0  0  0  0  0  2  0  0  0  0  0  0
  183.6690  178.9520  138.7850 C   0  0  2  0  0  3  0  0  0  0  0  0
  180.8410  179.2700  136.5650 F   0  0  0  0  0  0  0  0  0  0  0  0
  182.4230  177.5520  136.6130 C   0  0  0  0  0  0  0  0  0  0  0  0
  183.5040  176.8080  137.3430 C   0  0  0  0  0  2  0  0  0  0  0  0
  184.1430  179.0990  140.2250 C   0  0  0  0  0  2  0  0  0  0  0  0
  185.4890  179.4680  140.2530 O   0  0  0  0  0  1  0  0  0  0  0  0
  179.3710  177.9080  140.9260 O   0  0  0  0  0  0  0  0  0  0  0  0
  179.7390  176.5710  140.7510 C   0  0  0  0  0  1  0  0  0  0  0  0
  184.6950  178.9590  145.9750 C   0  0  0  0  0  2  0  0  0  0  0  0
  185.5060  177.6740  145.8640 C   0  0  0  0  0  2  0  0  0  0  0  0
  186.9160  177.9690  145.6450 N   0  0  0  0  0  2  0  0  0  0  0  0
  189.2560  176.9320  143.1270 C   0  0  0  0  0  0  0  0  0  0  0  0
  191.2250  175.5940  138.6360 O   0  0  0  0  0  1  0  0  0  0  0  0
  187.3840  177.1160  144.5600 C   0  0  2  0  0  3  0  0  0  0  0  0
  190.5460  176.7050  141.1110 C   0  0  0  0  0  3  0  0  0  0  0  0
  188.2060  177.3970  142.3800 C   0  0  0  0  0  0  0  0  0  0  0  0
  189.8270  178.2250  145.4370 S   0  0  0  0  0  1  0  0  0  0  0  0
  188.9190  176.8910  144.5740 C   0  0  2  0  0  3  0  0  0  0  0  0
  189.5230  177.3490  138.9400 N   0  0  0  0  0  0  0  0  0  0  0  0
  190.4530  176.5660  142.5030 C   0  0  0  0  0  0  0  0  0  0  0  0
  189.4440  177.1840  140.3710 C   0  0  0  0  0  0  0  0  0  0  0  0
  187.0130  177.7040  143.1940 C   0  0  0  0  0  2  0  0  0  0  0  0
  190.6120  176.9490  136.9040 O   0  0  0  0  0  0  0  0  0  0  0  0
  188.5840  178.2560  138.2910 C   0  0  0  0  0  1  0  0  0  0  0  0
  190.4720  176.6410  138.1180 C   0  0  0  0  0  0  0  0  0  0  0  0
  188.2950  177.5280  141.0310 N   0  0  0  0  0  0  0  0  0  0  0  0
  191.6230  176.0700  143.2820 C   0  0  0  0  0  2  0  0  0  0  0  0
  191.4190  174.7490  143.6390 F   0  0  0  0  0  0  0  0  0  0  0  0
  1 22  1  0  0  0  0
  2  1  1  0  0  0  0
  3  2  1  0  0  0  0
  5  3  1  0  0  0  0
  5  4  1  1  0  0  0
  6 20  1  1  0  0  0
  6  5  1  0  0  0  0
  7  9  1  0  0  0  0
  8  7  1  6  0  0  0
  8  9  1  0  0  0  0
  9  6  1  6  0  0  0
 10 12  1  6  0  0  0
 10 14  1  0  0  0  0
 10  8  1  0  0  0  0
 11 16  1  0  0  0  0
 13 14  1  0  0  0  0
 14 18  1  1  0  0  0
 15 12  1  0  0  0  0
 16 12  2  0  0  0  0
 16 17  1  0  0  0  0
 17 13  1  0  0  0  0
 18 19  1  0  0  0  0
 21 20  1  0  0  0  0
 23 22  1  0  0  0  0
 24 23  1  0  0  0  0
 25 31  1  0  0  0  0
 27 31  1  0  0  0  0
 27 24  1  1  0  0  0
 28 33  2  0  0  0  0
 29 25  2  0  0  0  0
 29 35  1  0  0  0  0
 31 30  1  1  0  0  0
 32 34  1  0  0  0  0
 33 25  1  0  0  0  0
 33 40  1  0  0  0  0
 34 39  2  0  0  0  0
 34 28  1  0  0  0  0
 35 27  1  0  0  0  0
 36 38  2  0  0  0  0
 37 32  1  0  0  0  0
 38 26  1  0  0  0  0
 38 32  1  0  0  0  0
 39 29  1  0  0  0  0
 40 41  1  0  0  0  0
M  END
>  <MODEL>
1

>  <REMARK>
 VINA RESULT:      -7.5      0.000      0.000
  Name = 
  13 active torsions:
  status: ('A' for Active; 'I' for Inactive)
    1  A    between atoms: C_3  and  C_26
    2  A    between atoms: C_4  and  C_25
    3  A    between atoms: C_5  and  N_33
    4  A    between atoms: C_5  and  C_41
    5  A    between atoms: C_6  and  C_17
    6  A    between atoms: C_10  and  N_33
    7  A    between atoms: O_16  and  C_22
    8  A    between atoms: C_21  and  C_38
    9  A    between atoms: C_21  and  C_40
   10  A    between atoms: C_22  and  C_32
   11  A    between atoms: C_22  and  C_36
   12  A    between atoms: C_32  and  C_40
   13  A    between atoms: C_38  and  C_41
                            x       y       z     vdW  Elec       q    Type
                         _______ _______ _______ _____ _____    ______ ____

>  <TORSDO>
F 13

$$$$
=
 OpenBabel11062415593D

 41 44  0  0  1  0  0  0  0  0999 V2000
  190.1930  175.9540  138.0060 C   0  0  0  0  0  2  0  0  0  0  0  0
  189.4440  177.2490  137.7650 C   0  0  0  0  0  2  0  0  0  0  0  0
  187.9780  177.0940  138.1400 C   0  0  0  0  0  2  0  0  0  0  0  0
  187.9580  179.0380  136.5630 C   0  0  0  0  0  1  0  0  0  0  0  0
  187.1020  178.0790  137.3740 C   0  0  1  0  0  3  0  0  0  0  0  0
  186.0200  177.3800  136.5220 C   0  0  2  0  0  3  0  0  0  0  0  0
  184.0390  175.7840  136.2350 C   0  0  0  0  0  2  0  0  0  0  0  0
  183.8230  176.3220  137.6370 C   0  0  1  0  0  3  0  0  0  0  0  0
  185.2520  176.1430  137.0740 C   0  0  2  0  0  3  0  0  0  0  0  0
  183.2950  177.7650  137.6450 C   0  0  1  0  0  3  0  0  0  0  0  0
  180.0170  179.2040  136.6260 F   0  0  0  0  0  0  0  0  0  0  0  0
  181.9250  177.8970  137.0080 C   0  0  0  0  0  0  0  0  0  0  0  0
  182.5070  179.6760  139.2070 C   0  0  0  0  0  2  0  0  0  0  0  0
  183.2140  178.3020  139.0930 C   0  0  2  0  0  3  0  0  0  0  0  0
  181.3200  176.8460  136.3880 F   0  0  0  0  0  0  0  0  0  0  0  0
  181.2740  179.0620  137.1220 C   0  0  0  0  0  0  0  0  0  0  0  0
  181.9110  180.1860  137.8870 C   0  0  0  0  0  2  0  0  0  0  0  0
  184.5810  178.3640  139.7620 C   0  0  0  0  0  2  0  0  0  0  0  0
  184.8890  179.6810  140.1060 O   0  0  0  0  0  1  0  0  0  0  0  0
  186.3840  177.2770  135.1760 O   0  0  0  0  0  0  0  0  0  0  0  0
  186.9970  176.0270  135.0610 C   0  0  0  0  0  1  0  0  0  0  0  0
  191.4950  176.2460  138.7270 C   0  0  0  0  0  2  0  0  0  0  0  0
  191.2950  177.3500  139.7570 C   0  0  0  0  0  2  0  0  0  0  0  0
  191.4650  176.8340  141.1090 N   0  0  0  0  0  2  0  0  0  0  0  0
  189.3750  177.5150  143.9480 C   0  0  0  0  0  0  0  0  0  0  0  0
  185.5460  179.2430  146.8090 O   0  0  0  0  0  1  0  0  0  0  0  0
  190.7200  177.7020  142.0130 C   0  0  2  0  0  3  0  0  0  0  0  0
  187.5150  177.8020  145.4450 C   0  0  0  0  0  3  0  0  0  0  0  0
  188.5490  177.8120  142.8960 C   0  0  0  0  0  0  0  0  0  0  0  0
  191.0870  175.4370  143.6560 S   0  0  0  0  0  1  0  0  0  0  0  0
  190.7600  177.2300  143.4900 C   0  0  2  0  0  3  0  0  0  0  0  0
  185.2900  178.3920  144.5110 N   0  0  0  0  0  0  0  0  0  0  0  0
  188.8740  177.5120  145.2540 C   0  0  0  0  0  0  0  0  0  0  0  0
  186.6930  178.1060  144.3390 C   0  0  0  0  0  0  0  0  0  0  0  0
  189.2480  177.8030  141.5960 C   0  0  0  0  0  2  0  0  0  0  0  0
  183.4770  178.9160  145.9000 O   0  0  0  0  0  0  0  0  0  0  0  0
  184.4020  178.2370  143.3650 C   0  0  0  0  0  1  0  0  0  0  0  0
  184.7270  178.8470  145.7570 C   0  0  0  0  0  0  0  0  0  0  0  0
  187.2340  178.0970  143.0820 N   0  0  0  0  0  0  0  0  0  0  0  0
  189.7360  177.1800  146.4240 C   0  0  0  0  0  2  0  0  0  0  0  0
  188.9430  176.8130  147.4970 F   0  0  0  0  0  0  0  0  0  0  0  0
  1 22  1  0  0  0  0
  2  1  1  0  0  0  0
  2  3  1  0  0  0  0
  5  4  1  6  0  0  0
  5  3  1  0  0  0  0
  6 20  1  6  0  0  0
  6  5  1  0  0  0  0
  7  9  1  0  0  0  0
  8  7  1  6  0  0  0
  8 10  1  0  0  0  0
  9  6  1  6  0  0  0
  9  8  1  0  0  0  0
 10 12  1  1  0  0  0
 10 14  1  0  0  0  0
 11 16  1  0  0  0  0
 12 16  2  0  0  0  0
 14 13  1  0  0  0  0
 14 18  1  6  0  0  0
 15 12  1  0  0  0  0
 16 17  1  0  0  0  0
 17 13  1  0  0  0  0
 18 19  1  0  0  0  0
 21 20  1  0  0  0  0
 22 23  1  0  0  0  0
 23 24  1  0  0  0  0
 25 33  1  0  0  0  0
 27 24  1  6  0  0  0
 27 31  1  0  0  0  0
 29 39  1  0  0  0  0
 29 25  2  0  0  0  0
 31 30  1  6  0  0  0
 31 25  1  0  0  0  0
 32 38  1  0  0  0  0
 33 28  2  0  0  0  0
 33 40  1  0  0  0  0
 34 32  1  0  0  0  0
 34 28  1  0  0  0  0
 35 27  1  0  0  0  0
 35 29  1  0  0  0  0
 37 32  1  0  0  0  0
 38 36  2  0  0  0  0
 38 26  1  0  0  0  0
 39 34  2  0  0  0  0
 40 41  1  0  0  0  0
M  END
>  <MODEL>
2

>  <REMARK>
 VINA RESULT:      -7.1      2.501      6.271
  Name = 
  13 active torsions:
  status: ('A' for Active; 'I' for Inactive)
    1  A    between atoms: C_3  and  C_26
    2  A    between atoms: C_4  and  C_25
    3  A    between atoms: C_5  and  N_33
    4  A    between atoms: C_5  and  C_41
    5  A    between atoms: C_6  and  C_17
    6  A    between atoms: C_10  and  N_33
    7  A    between atoms: O_16  and  C_22
    8  A    between atoms: C_21  and  C_38
    9  A    between atoms: C_21  and  C_40
   10  A    between atoms: C_22  and  C_32
   11  A    between atoms: C_22  and  C_36
   12  A    between atoms: C_32  and  C_40
   13  A    between atoms: C_38  and  C_41
                            x       y       z     vdW  Elec       q    Type
                         _______ _______ _______ _____ _____    ______ ____

>  <TORSDO>
F 13

$$$$
=
 OpenBabel11062415593D

 41 44  0  0  1  0  0  0  0  0999 V2000
  191.3000  175.9180  138.5410 C   0  0  0  0  0  2  0  0  0  0  0  0
  190.9850  176.8380  137.3790 C   0  0  0  0  0  2  0  0  0  0  0  0
  189.5710  176.5940  136.8760 C   0  0  0  0  0  2  0  0  0  0  0  0
  189.1540  178.8030  137.9770 C   0  0  0  0  0  1  0  0  0  0  0  0
  188.5580  177.4490  137.6300 C   0  0  1  0  0  3  0  0  0  0  0  0
  187.2060  177.5640  136.8940 C   0  0  2  0  0  3  0  0  0  0  0  0
  185.7520  177.5670  134.7870 C   0  0  0  0  0  2  0  0  0  0  0  0
  186.0510  176.0920  134.9740 C   0  0  1  0  0  3  0  0  0  0  0  0
  187.0830  177.1630  135.3950 C   0  0  2  0  0  3  0  0  0  0  0  0
  185.2480  175.4640  136.1250 C   0  0  1  0  0  3  0  0  0  0  0  0
  181.6220  174.7040  136.4830 F   0  0  0  0  0  0  0  0  0  0  0  0
  183.7520  175.4700  135.8740 C   0  0  0  0  0  0  0  0  0  0  0  0
  184.8070  173.2360  137.3700 C   0  0  0  0  0  2  0  0  0  0  0  0
  185.6980  174.0040  136.3630 C   0  0  2  0  0  3  0  0  0  0  0  0
  183.2100  176.0930  134.7910 F   0  0  0  0  0  0  0  0  0  0  0  0
  182.9590  174.7830  136.7080 C   0  0  0  0  0  0  0  0  0  0  0  0
  183.5770  174.0230  137.8470 C   0  0  0  0  0  2  0  0  0  0  0  0
  187.1590  173.9140  136.7860 C   0  0  0  0  0  2  0  0  0  0  0  0
  187.9160  173.3150  135.7780 O   0  0  0  0  0  1  0  0  0  0  0  0
  186.5080  178.7260  137.2380 O   0  0  0  0  0  0  0  0  0  0  0  0
  185.6420  178.3360  138.2640 C   0  0  0  0  0  1  0  0  0  0  0  0
  192.3740  176.5430  139.4100 C   0  0  0  0  0  2  0  0  0  0  0  0
  191.7520  177.5150  140.4050 C   0  0  0  0  0  2  0  0  0  0  0  0
  192.0930  177.1440  141.7730 N   0  0  0  0  0  2  0  0  0  0  0  0
  189.7760  177.5970  144.4780 C   0  0  0  0  0  0  0  0  0  0  0  0
  185.6970  179.0590  147.1350 O   0  0  0  0  0  1  0  0  0  0  0  0
  191.2600  177.9360  142.6680 C   0  0  2  0  0  3  0  0  0  0  0  0
  187.8000  177.7490  145.8400 C   0  0  0  0  0  3  0  0  0  0  0  0
  189.0260  177.9450  143.3840 C   0  0  0  0  0  0  0  0  0  0  0  0
  191.5560  175.5780  144.1890 S   0  0  0  0  0  1  0  0  0  0  0  0
  191.1990  177.3710  144.1110 C   0  0  2  0  0  3  0  0  0  0  0  0
  185.6390  178.3540  144.7750 N   0  0  0  0  0  0  0  0  0  0  0  0
  189.1770  177.5000  145.7370 C   0  0  0  0  0  0  0  0  0  0  0  0
  187.0570  178.1080  144.6950 C   0  0  0  0  0  0  0  0  0  0  0  0
  189.8220  178.0340  142.1450 C   0  0  0  0  0  2  0  0  0  0  0  0
  183.7120  178.7510  146.0490 O   0  0  0  0  0  0  0  0  0  0  0  0
  184.8460  178.2550  143.5550 C   0  0  0  0  0  1  0  0  0  0  0  0
  184.9710  178.7160  145.9990 C   0  0  0  0  0  0  0  0  0  0  0  0
  187.6930  178.1910  143.4850 N   0  0  0  0  0  0  0  0  0  0  0  0
  189.9550  177.1100  146.9470 C   0  0  0  0  0  2  0  0  0  0  0  0
  189.2850  177.5240  148.0850 F   0  0  0  0  0  0  0  0  0  0  0  0
  1 22  1  0  0  0  0
  2  1  1  0  0  0  0
  3  2  1  0  0  0  0
  3  5  1  0  0  0  0
  5  4  1  6  0  0  0
  6 20  1  6  0  0  0
  6  5  1  0  0  0  0
  7  9  1  0  0  0  0
  8  7  1  6  0  0  0
  8  9  1  0  0  0  0
  8 10  1  0  0  0  0
  9  6  1  1  0  0  0
 10 12  1  6  0  0  0
 10 14  1  0  0  0  0
 11 16  1  0  0  0  0
 12 16  2  0  0  0  0
 13 17  1  0  0  0  0
 14 18  1  1  0  0  0
 14 13  1  0  0  0  0
 15 12  1  0  0  0  0
 16 17  1  0  0  0  0
 19 18  1  0  0  0  0
 20 21  1  0  0  0  0
 22 23  1  0  0  0  0
 23 24  1  0  0  0  0
 25 33  1  0  0  0  0
 27 24  1  6  0  0  0
 27 31  1  0  0  0  0
 29 39  1  0  0  0  0
 29 25  2  0  0  0  0
 31 30  1  6  0  0  0
 31 25  1  0  0  0  0
 32 38  1  0  0  0  0
 33 28  2  0  0  0  0
 33 40  1  0  0  0  0
 34 32  1  0  0  0  0
 34 28  1  0  0  0  0
 35 27  1  0  0  0  0
 35 29  1  0  0  0  0
 37 32  1  0  0  0  0
 38 36  2  0  0  0  0
 38 26  1  0  0  0  0
 39 34  2  0  0  0  0
 40 41  1  0  0  0  0
M  END
>  <MODEL>
3

>  <REMARK>
 VINA RESULT:      -6.9      3.346      6.913
  Name = 
  13 active torsions:
  status: ('A' for Active; 'I' for Inactive)
    1  A    between atoms: C_3  and  C_26
    2  A    between atoms: C_4  and  C_25
    3  A    between atoms: C_5  and  N_33
    4  A    between atoms: C_5  and  C_41
    5  A    between atoms: C_6  and  C_17
    6  A    between atoms: C_10  and  N_33
    7  A    between atoms: O_16  and  C_22
    8  A    between atoms: C_21  and  C_38
    9  A    between atoms: C_21  and  C_40
   10  A    between atoms: C_22  and  C_32
   11  A    between atoms: C_22  and  C_36
   12  A    between atoms: C_32  and  C_40
   13  A    between atoms: C_38  and  C_41
                            x       y       z     vdW  Elec       q    Type
                         _______ _______ _______ _____ _____    ______ ____

>  <TORSDO>
F 13

$$$$
=
 OpenBabel11062415593D

 41 44  0  0  1  0  0  0  0  0999 V2000
  190.7530  176.0060  138.9270 C   0  0  0  0  0  2  0  0  0  0  0  0
  190.8050  175.4310  137.5270 C   0  0  0  0  0  2  0  0  0  0  0  0
  189.4740  174.7920  137.1630 C   0  0  0  0  0  2  0  0  0  0  0  0
  189.8410  174.6120  134.6940 C   0  0  0  0  0  1  0  0  0  0  0  0
  188.9980  175.2460  135.7870 C   0  0  1  0  0  3  0  0  0  0  0  0
  187.4840  175.0260  135.5750 C   0  0  2  0  0  3  0  0  0  0  0  0
  187.3600  177.4030  134.6300 C   0  0  0  0  0  2  0  0  0  0  0  0
  186.1670  177.3620  135.5660 C   0  0  1  0  0  3  0  0  0  0  0  0
  186.6270  176.0870  134.8230 C   0  0  2  0  0  3  0  0  0  0  0  0
  186.5700  177.4430  137.0470 C   0  0  1  0  0  3  0  0  0  0  0  0
  189.3380  179.2460  138.7610 F   0  0  0  0  0  0  0  0  0  0  0  0
  187.8640  178.2030  137.2670 C   0  0  0  0  0  0  0  0  0  0  0  0
  185.8630  178.4240  139.3380 C   0  0  0  0  0  2  0  0  0  0  0  0
  185.4560  178.1250  137.8730 C   0  0  2  0  0  3  0  0  0  0  0  0
  188.6250  178.6380  136.2240 F   0  0  0  0  0  0  0  0  0  0  0  0
  188.2230  178.5080  138.5210 C   0  0  0  0  0  0  0  0  0  0  0  0
  187.3300  178.1030  139.6590 C   0  0  0  0  0  2  0  0  0  0  0  0
  184.1530  177.3350  137.8470 C   0  0  0  0  0  2  0  0  0  0  0  0
  183.0680  178.2030  137.7140 O   0  0  0  0  0  1  0  0  0  0  0  0
  186.8610  174.4750  136.6990 O   0  0  0  0  0  0  0  0  0  0  0  0
  185.8070  173.7120  136.1900 C   0  0  0  0  0  1  0  0  0  0  0  0
  192.1160  176.5520  139.3060 C   0  0  0  0  0  2  0  0  0  0  0  0
  191.9780  177.6280  140.3750 C   0  0  0  0  0  2  0  0  0  0  0  0
  192.0740  177.0470  141.7090 N   0  0  0  0  0  2  0  0  0  0  0  0
  189.7350  177.5220  144.3910 C   0  0  0  0  0  0  0  0  0  0  0  0
  185.6550  179.0410  147.0140 O   0  0  0  0  0  1  0  0  0  0  0  0
  191.2460  177.8480  142.6020 C   0  0  2  0  0  3  0  0  0  0  0  0
  187.7470  177.7010  145.7320 C   0  0  0  0  0  3  0  0  0  0  0  0
  189.0040  177.8950  143.2930 C   0  0  0  0  0  0  0  0  0  0  0  0
  191.4780  175.4700  144.1040 S   0  0  0  0  0  1  0  0  0  0  0  0
  191.1570  177.2710  144.0390 C   0  0  2  0  0  3  0  0  0  0  0  0
  185.6110  178.3590  144.6470 N   0  0  0  0  0  0  0  0  0  0  0  0
  189.1190  177.4250  145.6430 C   0  0  0  0  0  0  0  0  0  0  0  0
  187.0250  178.0850  144.5810 C   0  0  0  0  0  0  0  0  0  0  0  0
  189.8170  177.9790  142.0630 C   0  0  0  0  0  2  0  0  0  0  0  0
  183.6770  178.7820  145.9030 O   0  0  0  0  0  0  0  0  0  0  0  0
  184.8300  178.2870  143.4180 C   0  0  0  0  0  1  0  0  0  0  0  0
  184.9360  178.7230  145.8670 C   0  0  0  0  0  0  0  0  0  0  0  0
  187.6760  178.1660  143.3800 N   0  0  0  0  0  0  0  0  0  0  0  0
  189.8750  177.0090  146.8580 C   0  0  0  0  0  2  0  0  0  0  0  0
  189.0860  176.1790  147.6350 F   0  0  0  0  0  0  0  0  0  0  0  0
  1 22  1  0  0  0  0
  2  1  1  0  0  0  0
  3  2  1  0  0  0  0
  5  4  1  6  0  0  0
  5  3  1  0  0  0  0
  6  5  1  0  0  0  0
  6 20  1  1  0  0  0
  7  9  1  0  0  0  0
  8  7  1  6  0  0  0
  8 10  1  0  0  0  0
  9  8  1  0  0  0  0
  9  6  1  1  0  0  0
 10 12  1  6  0  0  0
 10 14  1  0  0  0  0
 12 16  2  0  0  0  0
 13 17  1  0  0  0  0
 14 18  1  1  0  0  0
 14 13  1  0  0  0  0
 15 12  1  0  0  0  0
 16 11  1  0  0  0  0
 16 17  1  0  0  0  0
 19 18  1  0  0  0  0
 21 20  1  0  0  0  0
 22 23  1  0  0  0  0
 23 24  1  0  0  0  0
 25 33  1  0  0  0  0
 27 24  1  6  0  0  0
 27 31  1  0  0  0  0
 29 39  1  0  0  0  0
 29 25  2  0  0  0  0
 31 30  1  6  0  0  0
 31 25  1  0  0  0  0
 32 38  1  0  0  0  0
 33 28  2  0  0  0  0
 33 40  1  0  0  0  0
 34 32  1  0  0  0  0
 34 28  1  0  0  0  0
 35 27  1  0  0  0  0
 35 29  1  0  0  0  0
 37 32  1  0  0  0  0
 38 36  2  0  0  0  0
 38 26  1  0  0  0  0
 39 34  2  0  0  0  0
 40 41  1  0  0  0  0
M  END
>  <MODEL>
4

>  <REMARK>
 VINA RESULT:      -6.8      3.388      7.278
  Name = 
  13 active torsions:
  status: ('A' for Active; 'I' for Inactive)
    1  A    between atoms: C_3  and  C_26
    2  A    between atoms: C_4  and  C_25
    3  A    between atoms: C_5  and  N_33
    4  A    between atoms: C_5  and  C_41
    5  A    between atoms: C_6  and  C_17
    6  A    between atoms: C_10  and  N_33
    7  A    between atoms: O_16  and  C_22
    8  A    between atoms: C_21  and  C_38
    9  A    between atoms: C_21  and  C_40
   10  A    between atoms: C_22  and  C_32
   11  A    between atoms: C_22  and  C_36
   12  A    between atoms: C_32  and  C_40
   13  A    between atoms: C_38  and  C_41
                            x       y       z     vdW  Elec       q    Type
                         _______ _______ _______ _____ _____    ______ ____

>  <TORSDO>
F 13

$$$$
=
 OpenBabel11062415593D

 41 44  0  0  1  0  0  0  0  0999 V2000
  186.4340  178.9020  147.3890 C   0  0  0  0  0  2  0  0  0  0  0  0
  187.5880  177.9260  147.4990 C   0  0  0  0  0  2  0  0  0  0  0  0
  188.2320  177.7090  146.1390 C   0  0  0  0  0  2  0  0  0  0  0  0
  190.3260  177.1190  147.3780 C   0  0  0  0  0  1  0  0  0  0  0  0
  189.7450  177.8930  146.2060 C   0  0  1  0  0  3  0  0  0  0  0  0
  190.4470  177.5670  144.8700 C   0  0  2  0  0  3  0  0  0  0  0  0
  191.5530  175.8980  143.2740 C   0  0  0  0  0  2  0  0  0  0  0  0
  190.0970  175.8330  142.8550 C   0  0  1  0  0  3  0  0  0  0  0  0
  190.4800  176.1080  144.3280 C   0  0  2  0  0  3  0  0  0  0  0  0
  189.6550  177.0650  142.0490 C   0  0  1  0  0  3  0  0  0  0  0  0
  190.1220  177.9770  138.4710 F   0  0  0  0  0  0  0  0  0  0  0  0
  190.1890  177.0660  140.6300 C   0  0  0  0  0  0  0  0  0  0  0  0
  187.5840  178.2460  141.0340 C   0  0  0  0  0  2  0  0  0  0  0  0
  188.1120  177.1470  141.9910 C   0  0  2  0  0  3  0  0  0  0  0  0
  191.0710  176.1230  140.1960 F   0  0  0  0  0  0  0  0  0  0  0  0
  189.7230  177.9820  139.7690 C   0  0  0  0  0  0  0  0  0  0  0  0
  188.6830  178.9600  140.2330 C   0  0  0  0  0  2  0  0  0  0  0  0
  187.4920  177.3180  143.3710 C   0  0  0  0  0  2  0  0  0  0  0  0
  186.8880  176.1270  143.7780 O   0  0  0  0  0  1  0  0  0  0  0  0
  191.6480  178.2660  144.7130 O   0  0  0  0  0  0  0  0  0  0  0  0
  191.2740  179.5220  144.2280 C   0  0  0  0  0  1  0  0  0  0  0  0
  185.2780  178.2440  146.6600 C   0  0  0  0  0  2  0  0  0  0  0  0
  184.9590  179.0030  145.3780 C   0  0  0  0  0  2  0  0  0  0  0  0
  183.5580  178.8340  145.0120 N   0  0  0  0  0  2  0  0  0  0  0  0
  181.9960  178.9500  141.7810 C   0  0  0  0  0  0  0  0  0  0  0  0
  181.3380  178.8890  136.7410 O   0  0  0  0  0  1  0  0  0  0  0  0
  183.3930  179.3290  143.6510 C   0  0  2  0  0  3  0  0  0  0  0  0
  181.3210  178.5230  139.5130 C   0  0  0  0  0  3  0  0  0  0  0  0
  183.2270  178.4180  141.4950 C   0  0  0  0  0  0  0  0  0  0  0  0
  180.8320  178.2400  144.1210 S   0  0  0  0  0  1  0  0  0  0  0  0
  181.9110  179.3940  143.1970 C   0  0  2  0  0  3  0  0  0  0  0  0
  182.9310  177.4510  137.9530 N   0  0  0  0  0  0  0  0  0  0  0  0
  181.0150  179.0220  140.7880 C   0  0  0  0  0  0  0  0  0  0  0  0
  182.5990  177.9840  139.2510 C   0  0  0  0  0  0  0  0  0  0  0  0
  184.1490  178.4520  142.6470 C   0  0  0  0  0  2  0  0  0  0  0  0
  182.4490  177.2040  135.6730 O   0  0  0  0  0  0  0  0  0  0  0  0
  184.0380  176.5080  137.8490 C   0  0  0  0  0  1  0  0  0  0  0  0
  182.2340  177.8250  136.7480 C   0  0  0  0  0  0  0  0  0  0  0  0
  183.5240  177.9390  140.2600 N   0  0  0  0  0  0  0  0  0  0  0  0
  179.6600  179.5800  141.0620 C   0  0  0  0  0  2  0  0  0  0  0  0
  179.7700  180.9070  141.4360 F   0  0  0  0  0  0  0  0  0  0  0  0
  1  2  1  0  0  0  0
  3  5  1  0  0  0  0
  3  2  1  0  0  0  0
  5  4  1  1  0  0  0
  6 20  1  1  0  0  0
  6  5  1  0  0  0  0
  7  9  1  0  0  0  0
  8  7  1  6  0  0  0
  8  9  1  0  0  0  0
  9  6  1  6  0  0  0
 10 12  1  6  0  0  0
 10  8  1  0  0  0  0
 11 16  1  0  0  0  0
 13 14  1  0  0  0  0
 14 10  1  0  0  0  0
 14 18  1  1  0  0  0
 15 12  1  0  0  0  0
 16 17  1  0  0  0  0
 16 12  2  0  0  0  0
 17 13  1  0  0  0  0
 18 19  1  0  0  0  0
 21 20  1  0  0  0  0
 22  1  1  0  0  0  0
 23 22  1  0  0  0  0
 24 23  1  0  0  0  0
 25 31  1  0  0  0  0
 26 38  1  0  0  0  0
 27 24  1  1  0  0  0
 28 33  1  0  0  0  0
 29 25  1  0  0  0  0
 29 35  1  0  0  0  0
 31 27  1  0  0  0  0
 31 30  1  1  0  0  0
 32 34  1  0  0  0  0
 33 40  1  0  0  0  0
 33 25  2  0  0  0  0
 34 28  2  0  0  0  0
 34 39  1  0  0  0  0
 35 27  1  0  0  0  0
 36 38  2  0  0  0  0
 37 32  1  0  0  0  0
 38 32  1  0  0  0  0
 39 29  2  0  0  0  0
 40 41  1  0  0  0  0
M  END
>  <MODEL>
5

>  <REMARK>
 VINA RESULT:      -6.7      3.356      8.394
  Name = 
  13 active torsions:
  status: ('A' for Active; 'I' for Inactive)
    1  A    between atoms: C_3  and  C_26
    2  A    between atoms: C_4  and  C_25
    3  A    between atoms: C_5  and  N_33
    4  A    between atoms: C_5  and  C_41
    5  A    between atoms: C_6  and  C_17
    6  A    between atoms: C_10  and  N_33
    7  A    between atoms: O_16  and  C_22
    8  A    between atoms: C_21  and  C_38
    9  A    between atoms: C_21  and  C_40
   10  A    between atoms: C_22  and  C_32
   11  A    between atoms: C_22  and  C_36
   12  A    between atoms: C_32  and  C_40
   13  A    between atoms: C_38  and  C_41
                            x       y       z     vdW  Elec       q    Type
                         _______ _______ _______ _____ _____    ______ ____

>  <TORSDO>
F 13

$$$$
=
 OpenBabel11062415593D

 41 44  0  0  1  0  0  0  0  0999 V2000
  180.2720  178.4800  142.0320 C   0  0  0  0  0  2  0  0  0  0  0  0
  181.1490  178.7930  140.8370 C   0  0  0  0  0  2  0  0  0  0  0  0
  180.5520  178.2020  139.5700 C   0  0  0  0  0  2  0  0  0  0  0  0
  182.6090  176.8020  139.8480 C   0  0  0  0  0  1  0  0  0  0  0  0
  181.5380  177.2670  138.8760 C   0  0  1  0  0  3  0  0  0  0  0  0
  180.8420  176.0950  138.1510 C   0  0  2  0  0  3  0  0  0  0  0  0
  180.3990  174.6780  136.0640 C   0  0  0  0  0  2  0  0  0  0  0  0
  181.8060  175.1900  135.8180 C   0  0  1  0  0  3  0  0  0  0  0  0
  180.7820  176.0480  136.5960 C   0  0  2  0  0  3  0  0  0  0  0  0
  182.8580  174.4760  136.6830 C   0  0  1  0  0  3  0  0  0  0  0  0
  183.9010  170.9080  136.8660 F   0  0  0  0  0  0  0  0  0  0  0  0
  182.8450  172.9700  136.5070 C   0  0  0  0  0  0  0  0  0  0  0  0
  185.4090  174.1910  137.0310 C   0  0  0  0  0  2  0  0  0  0  0  0
  184.2750  174.9960  136.3480 C   0  0  2  0  0  3  0  0  0  0  0  0
  181.8990  172.3450  135.7520 F   0  0  0  0  0  0  0  0  0  0  0  0
  183.8340  172.2510  137.0560 C   0  0  0  0  0  0  0  0  0  0  0  0
  184.9230  172.9590  137.8090 C   0  0  0  0  0  2  0  0  0  0  0  0
  184.4320  176.4790  136.6550 C   0  0  0  0  0  2  0  0  0  0  0  0
  185.7490  176.8810  136.4270 O   0  0  0  0  0  1  0  0  0  0  0  0
  179.6590  175.7010  138.7840 O   0  0  0  0  0  0  0  0  0  0  0  0
  180.0010  174.5550  139.5080 C   0  0  0  0  0  1  0  0  0  0  0  0
  180.6910  179.3380  143.2110 C   0  0  0  0  0  2  0  0  0  0  0  0
  181.7900  178.6450  144.0070 C   0  0  0  0  0  2  0  0  0  0  0  0
  183.0640  179.3310  143.8350 N   0  0  0  0  0  2  0  0  0  0  0  0
  186.3730  177.9770  143.5020 C   0  0  0  0  0  0  0  0  0  0  0  0
  190.6200  176.0820  141.4510 O   0  0  0  0  0  1  0  0  0  0  0  0
  184.0400  178.3480  143.3840 C   0  0  2  0  0  3  0  0  0  0  0  0
  188.6230  177.4940  142.8060 C   0  0  0  0  0  3  0  0  0  0  0  0
  186.0760  178.3520  142.2170 C   0  0  0  0  0  0  0  0  0  0  0  0
  185.4570  179.5440  145.5120 S   0  0  0  0  0  1  0  0  0  0  0  0
  185.1930  178.1170  144.3960 C   0  0  2  0  0  3  0  0  0  0  0  0
  189.2640  177.8700  140.4350 N   0  0  0  0  0  0  0  0  0  0  0  0
  187.6580  177.5290  143.8230 C   0  0  0  0  0  0  0  0  0  0  0  0
  188.2840  177.8840  141.4930 C   0  0  0  0  0  0  0  0  0  0  0  0
  184.6690  178.7640  142.0490 C   0  0  0  0  0  2  0  0  0  0  0  0
  191.3580  177.2150  139.6120 O   0  0  0  0  0  0  0  0  0  0  0  0
  189.0280  178.6950  139.2560 C   0  0  0  0  0  1  0  0  0  0  0  0
  190.4550  177.0610  140.4780 C   0  0  0  0  0  0  0  0  0  0  0  0
  187.0100  178.3130  141.2320 N   0  0  0  0  0  0  0  0  0  0  0  0
  188.0240  177.1270  145.2110 C   0  0  0  0  0  2  0  0  0  0  0  0
  188.9130  178.0450  145.7420 F   0  0  0  0  0  0  0  0  0  0  0  0
  1 22  1  0  0  0  0
  2  1  1  0  0  0  0
  3  2  1  0  0  0  0
  5  3  1  0  0  0  0
  5  4  1  1  0  0  0
  6 20  1  1  0  0  0
  6  5  1  0  0  0  0
  7  9  1  0  0  0  0
  8  7  1  1  0  0  0
  8  9  1  0  0  0  0
  8 10  1  0  0  0  0
  9  6  1  1  0  0  0
 10 12  1  6  0  0  0
 11 16  1  0  0  0  0
 12 16  2  0  0  0  0
 13 17  1  0  0  0  0
 14 18  1  1  0  0  0
 14 10  1  0  0  0  0
 14 13  1  0  0  0  0
 15 12  1  0  0  0  0
 16 17  1  0  0  0  0
 19 18  1  0  0  0  0
 20 21  1  0  0  0  0
 22 23  1  0  0  0  0
 24 23  1  0  0  0  0
 25 33  1  0  0  0  0
 25 31  1  0  0  0  0
 27 24  1  1  0  0  0
 27 31  1  0  0  0  0
 28 33  2  0  0  0  0
 29 25  2  0  0  0  0
 31 30  1  1  0  0  0
 32 38  1  0  0  0  0
 32 34  1  0  0  0  0
 33 40  1  0  0  0  0
 34 28  1  0  0  0  0
 35 29  1  0  0  0  0
 35 27  1  0  0  0  0
 36 38  2  0  0  0  0
 37 32  1  0  0  0  0
 38 26  1  0  0  0  0
 39 34  2  0  0  0  0
 39 29  1  0  0  0  0
 40 41  1  0  0  0  0
M  END
>  <MODEL>
6

>  <REMARK>
 VINA RESULT:      -6.6      2.816      4.227
  Name = 
  13 active torsions:
  status: ('A' for Active; 'I' for Inactive)
    1  A    between atoms: C_3  and  C_26
    2  A    between atoms: C_4  and  C_25
    3  A    between atoms: C_5  and  N_33
    4  A    between atoms: C_5  and  C_41
    5  A    between atoms: C_6  and  C_17
    6  A    between atoms: C_10  and  N_33
    7  A    between atoms: O_16  and  C_22
    8  A    between atoms: C_21  and  C_38
    9  A    between atoms: C_21  and  C_40
   10  A    between atoms: C_22  and  C_32
   11  A    between atoms: C_22  and  C_36
   12  A    between atoms: C_32  and  C_40
   13  A    between atoms: C_38  and  C_41
                            x       y       z     vdW  Elec       q    Type
                         _______ _______ _______ _____ _____    ______ ____

>  <TORSDO>
F 13

$$$$
=
 OpenBabel11062415593D

 41 44  0  0  1  0  0  0  0  0999 V2000
  181.4410  178.6340  143.8980 C   0  0  0  0  0  2  0  0  0  0  0  0
  182.8620  179.1430  143.7710 C   0  0  0  0  0  2  0  0  0  0  0  0
  183.7240  178.6000  144.9000 C   0  0  0  0  0  2  0  0  0  0  0  0
  185.4730  179.4290  143.3120 C   0  0  0  0  0  1  0  0  0  0  0  0
  185.1880  178.5030  144.4830 C   0  0  1  0  0  3  0  0  0  0  0  0
  186.1620  178.7160  145.6610 C   0  0  2  0  0  3  0  0  0  0  0  0
  187.8960  177.8690  147.3450 C   0  0  0  0  0  2  0  0  0  0  0  0
  188.1340  176.9660  146.1500 C   0  0  1  0  0  3  0  0  0  0  0  0
  186.7170  177.5010  146.4610 C   0  0  2  0  0  3  0  0  0  0  0  0
  188.8700  177.6790  145.0030 C   0  0  1  0  0  3  0  0  0  0  0  0
  192.3610  178.9330  144.7070 F   0  0  0  0  0  0  0  0  0  0  0  0
  190.2670  178.1260  145.3850 C   0  0  0  0  0  0  0  0  0  0  0  0
  189.8700  177.3180  142.6410 C   0  0  0  0  0  2  0  0  0  0  0  0
  188.9730  176.7520  143.7700 C   0  0  2  0  0  3  0  0  0  0  0  0
  190.7340  178.0070  146.6590 F   0  0  0  0  0  0  0  0  0  0  0  0
  191.0790  178.5860  144.4230 C   0  0  0  0  0  0  0  0  0  0  0  0
  190.5850  178.6280  143.0060 C   0  0  0  0  0  2  0  0  0  0  0  0
  187.6050  176.3820  143.2110 C   0  0  0  0  0  2  0  0  0  0  0  0
  187.3200  177.1580  142.0860 O   0  0  0  0  0  1  0  0  0  0  0  0
  185.8110  179.8140  146.4530 O   0  0  0  0  0  0  0  0  0  0  0  0
  185.6920  179.3020  147.7480 C   0  0  0  0  0  1  0  0  0  0  0  0
  180.7690  178.6540  142.5390 C   0  0  0  0  0  2  0  0  0  0  0  0
  181.7990  178.8900  141.4420 C   0  0  0  0  0  2  0  0  0  0  0  0
  181.1580  178.9480  140.1340 N   0  0  0  0  0  2  0  0  0  0  0  0
  183.7870  177.8640  137.9430 C   0  0  0  0  0  0  0  0  0  0  0  0
  188.3090  177.5070  135.6490 O   0  0  0  0  0  0  0  0  0  0  0  0
  182.2020  179.1490  139.1370 C   0  0  2  0  0  3  0  0  0  0  0  0
  185.8910  177.1660  137.0100 C   0  0  0  0  0  3  0  0  0  0  0  0
  184.4680  178.5960  138.8800 C   0  0  0  0  0  0  0  0  0  0  0  0
  181.6710  176.4000  138.7840 S   0  0  0  0  0  1  0  0  0  0  0  0
  182.3170  177.9800  138.1240 C   0  0  2  0  0  3  0  0  0  0  0  0
  188.0010  177.9660  138.0500 N   0  0  0  0  0  0  0  0  0  0  0  0
  184.4890  177.1360  136.9770 C   0  0  0  0  0  0  0  0  0  0  0  0
  186.5610  177.9330  137.9880 C   0  0  0  0  0  0  0  0  0  0  0  0
  183.5730  179.3270  139.7990 C   0  0  0  0  0  2  0  0  0  0  0  0
  190.0890  177.5300  137.0790 O   0  0  0  0  0  1  0  0  0  0  0  0
  188.6350  178.3580  139.3030 C   0  0  0  0  0  1  0  0  0  0  0  0
  188.8440  177.6530  136.9240 C   0  0  0  0  0  0  0  0  0  0  0  0
  185.8260  178.6280  138.9090 N   0  0  0  0  0  0  0  0  0  0  0  0
  183.7870  176.3150  135.9490 C   0  0  0  0  0  2  0  0  0  0  0  0
  183.4130  177.1190  134.8870 F   0  0  0  0  0  0  0  0  0  0  0  0
  2  1  1  0  0  0  0
  2  3  1  0  0  0  0
  5  4  1  6  0  0  0
  5  3  1  0  0  0  0
  5  6  1  0  0  0  0
  6 20  1  1  0  0  0
  8  9  1  0  0  0  0
  8  7  1  1  0  0  0
  9  6  1  6  0  0  0
  9  7  1  0  0  0  0
 10 12  1  1  0  0  0
 10  8  1  0  0  0  0
 12 15  1  0  0  0  0
 13 17  1  0  0  0  0
 13 14  1  0  0  0  0
 14 18  1  6  0  0  0
 14 10  1  0  0  0  0
 16 11  1  0  0  0  0
 16 12  2  0  0  0  0
 17 16  1  0  0  0  0
 19 18  1  0  0  0  0
 20 21  1  0  0  0  0
 22  1  1  0  0  0  0
 23 22  1  0  0  0  0
 24 23  1  0  0  0  0
 25 31  1  0  0  0  0
 25 29  1  0  0  0  0
 26 38  2  0  0  0  0
 27 35  1  0  0  0  0
 27 24  1  1  0  0  0
 28 34  2  0  0  0  0
 29 39  2  0  0  0  0
 29 35  1  0  0  0  0
 31 30  1  1  0  0  0
 31 27  1  0  0  0  0
 32 37  1  0  0  0  0
 33 28  1  0  0  0  0
 33 25  2  0  0  0  0
 34 32  1  0  0  0  0
 34 39  1  0  0  0  0
 38 36  1  0  0  0  0
 38 32  1  0  0  0  0
 40 33  1  0  0  0  0
 41 40  1  0  0  0  0
M  END
>  <MODEL>
7

>  <REMARK>
 VINA RESULT:      -6.5      2.950      7.832
  Name = 
  13 active torsions:
  status: ('A' for Active; 'I' for Inactive)
    1  A    between atoms: C_3  and  C_26
    2  A    between atoms: C_4  and  C_25
    3  A    between atoms: C_5  and  N_33
    4  A    between atoms: C_5  and  C_41
    5  A    between atoms: C_6  and  C_17
    6  A    between atoms: C_10  and  N_33
    7  A    between atoms: O_16  and  C_22
    8  A    between atoms: C_21  and  C_38
    9  A    between atoms: C_21  and  C_40
   10  A    between atoms: C_22  and  C_32
   11  A    between atoms: C_22  and  C_36
   12  A    between atoms: C_32  and  C_40
   13  A    between atoms: C_38  and  C_41
                            x       y       z     vdW  Elec       q    Type
                         _______ _______ _______ _____ _____    ______ ____

>  <TORSDO>
F 13

$$$$
=
 OpenBabel11062415593D

 41 44  0  0  1  0  0  0  0  0999 V2000
  191.3780  176.6740  138.5610 C   0  0  0  0  0  2  0  0  0  0  0  0
  190.1750  177.5100  138.9500 C   0  0  0  0  0  2  0  0  0  0  0  0
  188.9410  177.0550  138.1870 C   0  0  0  0  0  2  0  0  0  0  0  0
  188.8520  179.3220  137.1300 C   0  0  0  0  0  1  0  0  0  0  0  0
  188.0470  178.2350  137.8230 C   0  0  1  0  0  3  0  0  0  0  0  0
  186.7980  177.8150  137.0180 C   0  0  2  0  0  3  0  0  0  0  0  0
  185.7260  176.9770  134.8490 C   0  0  0  0  0  2  0  0  0  0  0  0
  187.1750  176.5610  134.6780 C   0  0  1  0  0  3  0  0  0  0  0  0
  186.8120  177.8440  135.4610 C   0  0  2  0  0  3  0  0  0  0  0  0
  187.5510  175.3460  135.5420 C   0  0  1  0  0  3  0  0  0  0  0  0
  185.7440  172.1750  136.2680 F   0  0  0  0  0  0  0  0  0  0  0  0
  186.4320  174.3290  135.6500 C   0  0  0  0  0  0  0  0  0  0  0  0
  189.1290  173.2950  135.6600 C   0  0  0  0  0  2  0  0  0  0  0  0
  188.8000  174.6410  134.9650 C   0  0  2  0  0  3  0  0  0  0  0  0
  185.1950  174.5660  135.1300 F   0  0  0  0  0  0  0  0  0  0  0  0
  186.6970  173.1420  136.2120 C   0  0  0  0  0  0  0  0  0  0  0  0
  188.0880  172.8560  136.7000 C   0  0  0  0  0  2  0  0  0  0  0  0
  190.0270  175.5430  134.9730 C   0  0  0  0  0  2  0  0  0  0  0  0
  191.0850  174.9120  135.6300 O   0  0  0  0  0  1  0  0  0  0  0  0
  185.6110  178.2800  137.5920 O   0  0  0  0  0  0  0  0  0  0  0  0
  184.9090  177.1270  137.9540 C   0  0  0  0  0  1  0  0  0  0  0  0
  192.2270  176.4000  139.7870 C   0  0  0  0  0  2  0  0  0  0  0  0
  192.1230  177.5570  140.7730 C   0  0  0  0  0  2  0  0  0  0  0  0
  192.2290  177.0770  142.1460 N   0  0  0  0  0  2  0  0  0  0  0  0
  189.8130  177.6440  144.7410 C   0  0  0  0  0  0  0  0  0  0  0  0
  185.6360  179.2070  147.1790 O   0  0  0  0  0  1  0  0  0  0  0  0
  191.3610  177.9060  142.9730 C   0  0  2  0  0  3  0  0  0  0  0  0
  187.7890  177.8490  146.0230 C   0  0  0  0  0  3  0  0  0  0  0  0
  189.1020  177.9380  143.6070 C   0  0  0  0  0  0  0  0  0  0  0  0
  191.6090  175.6210  144.6110 S   0  0  0  0  0  1  0  0  0  0  0  0
  191.2490  177.4070  144.4370 C   0  0  2  0  0  3  0  0  0  0  0  0
  185.6660  178.3940  144.8540 N   0  0  0  0  0  0  0  0  0  0  0  0
  189.1690  177.6020  145.9820 C   0  0  0  0  0  0  0  0  0  0  0  0
  187.0870  178.1520  144.8370 C   0  0  0  0  0  0  0  0  0  0  0  0
  189.9430  177.9740  142.3950 C   0  0  0  0  0  2  0  0  0  0  0  0
  183.6940  178.8400  146.0380 O   0  0  0  0  0  0  0  0  0  0  0  0
  184.9180  178.2370  143.6120 C   0  0  0  0  0  1  0  0  0  0  0  0
  184.9530  178.8090  146.0350 C   0  0  0  0  0  0  0  0  0  0  0  0
  187.7660  178.1820  143.6480 N   0  0  0  0  0  0  0  0  0  0  0  0
  189.9040  177.2710  147.2360 C   0  0  0  0  0  2  0  0  0  0  0  0
  189.5250  176.0170  147.6810 F   0  0  0  0  0  0  0  0  0  0  0  0
  1  2  1  0  0  0  0
  1 22  1  0  0  0  0
  3  2  1  0  0  0  0
  5  4  1  6  0  0  0
  5  3  1  0  0  0  0
  6 20  1  1  0  0  0
  6  5  1  0  0  0  0
  7  9  1  0  0  0  0
  8  7  1  1  0  0  0
  8  9  1  0  0  0  0
  8 10  1  0  0  0  0
  9  6  1  1  0  0  0
 10 12  1  6  0  0  0
 12 16  2  0  0  0  0
 13 17  1  0  0  0  0
 14 18  1  1  0  0  0
 14 10  1  0  0  0  0
 14 13  1  0  0  0  0
 15 12  1  0  0  0  0
 16 11  1  0  0  0  0
 16 17  1  0  0  0  0
 18 19  1  0  0  0  0
 20 21  1  0  0  0  0
 22 23  1  0  0  0  0
 23 24  1  0  0  0  0
 25 33  1  0  0  0  0
 27 24  1  6  0  0  0
 27 31  1  0  0  0  0
 29 39  1  0  0  0  0
 29 25  2  0  0  0  0
 31 30  1  6  0  0  0
 31 25  1  0  0  0  0
 32 38  1  0  0  0  0
 33 28  2  0  0  0  0
 33 40  1  0  0  0  0
 34 32  1  0  0  0  0
 34 28  1  0  0  0  0
 35 27  1  0  0  0  0
 35 29  1  0  0  0  0
 37 32  1  0  0  0  0
 38 36  2  0  0  0  0
 38 26  1  0  0  0  0
 39 34  2  0  0  0  0
 40 41  1  0  0  0  0
M  END
>  <MODEL>
8

>  <REMARK>
 VINA RESULT:      -6.4      3.373      7.186
  Name = 
  13 active torsions:
  status: ('A' for Active; 'I' for Inactive)
    1  A    between atoms: C_3  and  C_26
    2  A    between atoms: C_4  and  C_25
    3  A    between atoms: C_5  and  N_33
    4  A    between atoms: C_5  and  C_41
    5  A    between atoms: C_6  and  C_17
    6  A    between atoms: C_10  and  N_33
    7  A    between atoms: O_16  and  C_22
    8  A    between atoms: C_21  and  C_38
    9  A    between atoms: C_21  and  C_40
   10  A    between atoms: C_22  and  C_32
   11  A    between atoms: C_22  and  C_36
   12  A    between atoms: C_32  and  C_40
   13  A    between atoms: C_38  and  C_41
                            x       y       z     vdW  Elec       q    Type
                         _______ _______ _______ _____ _____    ______ ____

>  <TORSDO>
F 13

$$$$
=
 OpenBabel11062415593D

 41 44  0  0  1  0  0  0  0  0999 V2000
  191.1980  177.1540  144.7890 C   0  0  0  0  0  2  0  0  0  0  0  0
  190.1470  178.2400  144.6760 C   0  0  0  0  0  2  0  0  0  0  0  0
  188.8350  177.7760  145.2880 C   0  0  0  0  0  2  0  0  0  0  0  0
  187.9290  176.3990  143.4040 C   0  0  0  0  0  1  0  0  0  0  0  0
  187.7400  177.6590  144.2320 C   0  0  1  0  0  3  0  0  0  0  0  0
  186.3200  177.7740  144.8270 C   0  0  2  0  0  3  0  0  0  0  0  0
  184.2100  179.0810  145.4590 C   0  0  0  0  0  2  0  0  0  0  0  0
  184.5890  179.6980  144.1260 C   0  0  1  0  0  3  0  0  0  0  0  0
  185.6800  179.1690  145.0850 C   0  0  2  0  0  3  0  0  0  0  0  0
  184.2630  178.7840  142.9330 C   0  0  1  0  0  3  0  0  0  0  0  0
  181.0350  177.9090  141.2990 F   0  0  0  0  0  0  0  0  0  0  0  0
  182.7730  178.6260  142.7000 C   0  0  0  0  0  0  0  0  0  0  0  0
  184.4610  178.5860  140.3580 C   0  0  0  0  0  2  0  0  0  0  0  0
  184.9040  179.3370  141.6390 C   0  0  2  0  0  3  0  0  0  0  0  0
  181.8540  179.1480  143.5600 F   0  0  0  0  0  0  0  0  0  0  0  0
  182.3600  178.0130  141.5820 C   0  0  0  0  0  0  0  0  0  0  0  0
  183.3800  177.5220  140.5960 C   0  0  0  0  0  2  0  0  0  0  0  0
  186.4240  179.3760  141.7200 C   0  0  0  0  0  2  0  0  0  0  0  0
  186.9810  178.9790  140.5030 O   0  0  0  0  0  1  0  0  0  0  0  0
  186.0860  176.8370  145.8380 O   0  0  0  0  0  0  0  0  0  0  0  0
  186.4070  177.5000  147.0260 C   0  0  0  0  0  1  0  0  0  0  0  0
  191.6800  176.7660  143.4050 C   0  0  0  0  0  2  0  0  0  0  0  0
  191.3600  177.8680  142.4030 C   0  0  0  0  0  2  0  0  0  0  0  0
  191.8770  177.5320  141.0820 N   0  0  0  0  0  2  0  0  0  0  0  0
  190.2490  176.0070  138.2690 C   0  0  0  0  0  0  0  0  0  0  0  0
  186.6250  174.3810  135.0980 O   0  0  0  0  0  1  0  0  0  0  0  0
  190.9230  176.6320  140.4480 C   0  0  2  0  0  3  0  0  0  0  0  0
  188.8220  175.5250  136.3950 C   0  0  0  0  0  3  0  0  0  0  0  0
  189.2490  176.7740  138.8080 C   0  0  0  0  0  0  0  0  0  0  0  0
  192.7700  176.9930  138.3450 S   0  0  0  0  0  1  0  0  0  0  0  0
  191.4560  175.9960  139.1380 C   0  0  2  0  0  3  0  0  0  0  0  0
  186.5460  176.5190  136.3190 N   0  0  0  0  0  0  0  0  0  0  0  0
  190.0520  175.3560  137.0470 C   0  0  0  0  0  0  0  0  0  0  0  0
  187.8120  176.3190  136.9800 C   0  0  0  0  0  0  0  0  0  0  0  0
  189.6140  177.3590  140.1140 C   0  0  0  0  0  2  0  0  0  0  0  0
  185.0040  175.9270  134.6570 O   0  0  0  0  0  0  0  0  0  0  0  0
  185.7410  177.6750  136.6930 C   0  0  0  0  0  1  0  0  0  0  0  0
  186.0280  175.6160  135.3230 C   0  0  0  0  0  0  0  0  0  0  0  0
  188.0570  176.9340  138.1780 N   0  0  0  0  0  0  0  0  0  0  0  0
  191.1190  174.5250  136.4200 C   0  0  0  0  0  2  0  0  0  0  0  0
  191.1870  173.2980  137.0550 F   0  0  0  0  0  0  0  0  0  0  0  0
  2  1  1  0  0  0  0
  2  3  1  0  0  0  0
  5  4  1  1  0  0  0
  5  6  1  0  0  0  0
  5  3  1  0  0  0  0
  6 20  1  1  0  0  0
  8  9  1  0  0  0  0
  8  7  1  1  0  0  0
  9  6  1  6  0  0  0
  9  7  1  0  0  0  0
 10 12  1  6  0  0  0
 10  8  1  0  0  0  0
 11 16  1  0  0  0  0
 12 15  1  0  0  0  0
 13 17  1  0  0  0  0
 13 14  1  0  0  0  0
 14 18  1  1  0  0  0
 14 10  1  0  0  0  0
 16 12  2  0  0  0  0
 17 16  1  0  0  0  0
 19 18  1  0  0  0  0
 20 21  1  0  0  0  0
 22  1  1  0  0  0  0
 23 22  1  0  0  0  0
 24 23  1  0  0  0  0
 25 29  1  0  0  0  0
 25 31  1  0  0  0  0
 26 38  1  0  0  0  0
 27 24  1  6  0  0  0
 28 34  2  0  0  0  0
 28 33  1  0  0  0  0
 29 35  1  0  0  0  0
 31 30  1  6  0  0  0
 31 27  1  0  0  0  0
 32 37  1  0  0  0  0
 32 34  1  0  0  0  0
 33 25  2  0  0  0  0
 34 39  1  0  0  0  0
 35 27  1  0  0  0  0
 36 38  2  0  0  0  0
 38 32  1  0  0  0  0
 39 29  2  0  0  0  0
 40 33  1  0  0  0  0
 40 41  1  0  0  0  0
M  END
>  <MODEL>
9

>  <REMARK>
 VINA RESULT:      -6.4      3.392      5.961
  Name = 
  13 active torsions:
  status: ('A' for Active; 'I' for Inactive)
    1  A    between atoms: C_3  and  C_26
    2  A    between atoms: C_4  and  C_25
    3  A    between atoms: C_5  and  N_33
    4  A    between atoms: C_5  and  C_41
    5  A    between atoms: C_6  and  C_17
    6  A    between atoms: C_10  and  N_33
    7  A    between atoms: O_16  and  C_22
    8  A    between atoms: C_21  and  C_38
    9  A    between atoms: C_21  and  C_40
   10  A    between atoms: C_22  and  C_32
   11  A    between atoms: C_22  and  C_36
   12  A    between atoms: C_32  and  C_40
   13  A    between atoms: C_38  and  C_41
                            x       y       z     vdW  Elec       q    Type
                         _______ _______ _______ _____ _____    ______ ____

>  <TORSDO>
F 13

$$$$
