=
 OpenBabel11062414153D

 60 65  0  0  1  0  0  0  0  0999 V2000
  183.7720  175.5630  136.1450 C   0  0  2  0  0  3  0  0  0  0  0  0
  186.4810  175.2110  138.0360 C   0  0  2  0  0  3  0  0  0  0  0  0
  181.5690  181.6700  139.3510 O   0  0  0  0  0  0  0  0  0  0  0  0
  179.2740  179.9490  137.6410 O   0  0  0  0  0  0  0  0  0  0  0  0
  183.3750  178.5240  141.1290 C   0  0  0  0  0  2  0  0  0  0  0  0
  180.9970  181.5250  136.9830 C   0  0  0  0  0  2  0  0  0  0  0  0
  185.0910  175.7040  138.4480 C   0  0  2  0  0  3  0  0  0  0  0  0
  183.9610  175.0790  137.6000 C   0  0  1  0  0  3  0  0  0  0  0  0
  182.8540  176.7810  135.9660 C   0  0  1  0  0  3  0  0  0  0  0  0
  181.1380  175.1340  135.2920 C   0  0  0  0  0  3  0  0  0  0  0  0
  182.1600  174.0520  135.4880 C   0  0  2  0  0  3  0  0  0  0  0  0
  187.0470  176.2690  137.1040 C   0  0  1  0  0  3  0  0  0  0  0  0
  183.3740  177.5930  134.9730 F   0  0  0  0  0  0  0  0  0  0  0  0
  186.4500  173.9610  137.4110 O   0  0  0  0  0  1  0  0  0  0  0  0
  184.8900  177.9470  139.3330 C   0  0  0  0  0  0  0  0  0  0  0  0
  181.4420  176.3960  135.5840 C   0  0  0  0  0  0  0  0  0  0  0  0
  180.0930  179.7580  135.4390 C   0  0  1  0  0  3  0  0  0  0  0  0
  185.9810  178.3550  136.2780 C   0  0  0  0  0  1  0  0  0  0  0  0
  179.7150  178.6240  137.4310 C   0  0  0  0  0  2  0  0  0  0  0  0
  180.5970  178.5960  136.2120 C   0  0  1  0  0  3  0  0  0  0  0  0
  179.7520  180.7200  136.5620 C   0  0  1  0  0  3  0  0  0  0  0  0
  180.8890  182.3100  138.2950 C   0  0  1  0  0  3  0  0  0  0  0  0
  183.4690  174.5200  135.2350 O   0  0  0  0  0  0  0  0  0  0  0  0
  185.1940  177.1880  138.3140 C   0  0  0  0  0  0  0  0  0  0  0  0
  184.6320  178.7230  140.3490 C   0  0  0  0  0  0  0  0  0  0  0  0
  182.6080  179.8280  141.2810 C   0  0  0  0  0  2  0  0  0  0  0  0
  180.4470  177.3720  135.5110 O   0  0  0  0  0  0  0  0  0  0  0  0
  180.4660  178.7990  141.0700 O   0  0  0  0  0  0  0  0  0  0  0  0
  181.0690  180.2500  134.5940 F   0  0  0  0  0  0  0  0  0  0  0  0
  181.2400  179.7190  140.6900 C   0  0  0  0  0  0  0  0  0  0  0  0
  186.3860  177.5740  137.5100 C   0  0  1  0  0  3  0  0  0  0  0  0
  180.7960  180.6440  139.7470 O   0  0  0  0  0  0  0  0  0  0  0  0
  188.9080  176.5290  136.0570 O   0  0  0  0  0  1  0  0  0  0  0  0
  188.4290  176.3640  137.2750 O   0  0  0  0  0  0  0  0  0  0  0  0
  181.8420  172.8640  134.5950 C   0  0  0  0  0  2  0  0  0  0  0  0
  181.3730  171.6740  135.4190 C   0  0  0  0  0  3  0  0  0  0  0  0
  181.5210  170.3890  134.6220 C   0  0  0  0  0  1  0  0  0  0  0  0
  182.2080  171.5800  136.6770 C   0  0  0  0  0  1  0  0  0  0  0  0
  182.7670  174.7760  138.3230 O   0  0  0  0  0  0  0  0  0  0  0  0
  180.4970  175.3350  139.1670 C   0  0  0  0  0  1  0  0  0  0  0  0
  181.9010  175.7200  138.8820 C   0  0  0  0  0  0  0  0  0  0  0  0
  182.2820  176.8890  139.1420 O   0  0  0  0  0  0  0  0  0  0  0  0
  185.7250  179.5800  140.8950 C   0  0  0  0  0  2  0  0  0  0  0  0
  187.0110  178.7780  141.0270 C   0  0  0  0  0  2  0  0  0  0  0  0
  187.2840  178.3370  142.4360 C   0  0  0  0  0  0  0  0  0  0  0  0
  186.5370  178.7230  143.3240 O   0  0  0  0  0  0  0  0  0  0  0  0
  188.4610  177.4600  142.7750 C   0  0  1  0  0  3  0  0  0  0  0  0
  190.8240  177.3540  142.9690 O   0  0  0  0  0  0  0  0  0  0  0  0
  189.7830  178.2140  142.6910 C   0  0  0  0  0  3  0  0  0  0  0  0
  190.5630  177.6720  141.6910 O   0  0  0  0  0  0  0  0  0  0  0  0
  188.2900  176.7110  144.1040 C   0  0  0  0  0  2  0  0  0  0  0  0
  188.8300  177.4640  145.3140 C   0  0  0  0  0  2  0  0  0  0  0  0
  187.8290  177.4330  146.4510 C   0  0  0  0  0  1  0  0  0  0  0  0
  179.5650  182.6420  138.6380 O   0  0  0  0  0  0  0  0  0  0  0  0
  179.3710  183.9850  138.2740 C   0  0  1  0  0  0  0  0  0  0  0  0
  180.5990  186.0430  138.1380 F   0  0  0  0  0  0  0  0  0  0  0  0
  178.9330  184.9170  139.3840 C   0  0  0  0  0  2  0  0  0  0  0  0
  180.3840  184.9200  138.9140 C   0  0  1  0  0  3  0  0  0  0  0  0
  178.9430  184.3020  136.8700 C   0  0  0  0  0  3  0  0  0  0  0  0
  179.7670  184.6560  136.0500 O   0  0  0  0  0  0  0  0  0  0  0  0
  1 23  1  6  0  0  0
  1  8  1  0  0  0  0
  2 14  1  6  0  0  0
  2  7  1  0  0  0  0
  3 32  1  0  0  0  0
  5 26  1  0  0  0  0
  6 22  1  0  0  0  0
  7 24  1  6  0  0  0
  8 39  1  1  0  0  0
  8  7  1  0  0  0  0
  9 13  1  6  0  0  0
  9  1  1  0  0  0  0
 10 11  1  0  0  0  0
 10 16  2  0  0  0  0
 11 35  1  6  0  0  0
 12 34  1  1  0  0  0
 12 31  1  0  0  0  0
 12  2  1  0  0  0  0
 15 25  2  0  0  0  0
 16  9  1  0  0  0  0
 17 29  1  6  0  0  0
 17 20  1  0  0  0  0
 17 21  1  0  0  0  0
 19  4  1  0  0  0  0
 20 19  1  1  0  0  0
 21  6  1  1  0  0  0
 21  4  1  0  0  0  0
 22 54  1  1  0  0  0
 22  3  1  0  0  0  0
 23 11  1  0  0  0  0
 24 15  2  0  0  0  0
 25 43  1  0  0  0  0
 25  5  1  0  0  0  0
 27 16  1  0  0  0  0
 27 20  1  0  0  0  0
 30 28  2  0  0  0  0
 30 26  1  0  0  0  0
 31 18  1  6  0  0  0
 31 24  1  0  0  0  0
 32 30  1  0  0  0  0
 33 34  1  0  0  0  0
 35 36  1  0  0  0  0
 36 38  1  0  0  0  0
 37 36  1  0  0  0  0
 39 41  1  0  0  0  0
 41 42  2  0  0  0  0
 41 40  1  0  0  0  0
 43 44  1  0  0  0  0
 44 45  1  0  0  0  0
 45 47  1  0  0  0  0
 45 46  2  0  0  0  0
 47 51  1  1  0  0  0
 49 47  1  0  0  0  0
 49 48  1  0  0  0  0
 50 49  1  0  0  0  0
 50 48  1  0  0  0  0
 51 52  1  0  0  0  0
 52 53  1  0  0  0  0
 55 59  1  6  0  0  0
 55 54  1  0  0  0  0
 55 58  1  0  0  0  0
 55 57  1  0  0  0  0
 58 56  1  6  0  0  0
 58 57  1  0  0  0  0
 60 59  2  0  0  0  0
M  END
>  <MODEL>
1

>  <REMARK>
 VINA RESULT:      -2.0      0.000      0.000
  Name = 
  15 active torsions:
  status: ('A' for Active; 'I' for Inactive)
    1  A    between atoms: C_2  and  C_18
    2  A    between atoms: C_2  and  C_29
    3  A    between atoms: C_4  and  C_7
    4  A    between atoms: C_4  and  C_25
    5  A    between atoms: C_4  and  C_43
    6  A    between atoms: O_6  and  C_11
    7  A    between atoms: O_6  and  C_15
    8  A    between atoms: C_7  and  C_27
    9  A    between atoms: C_10  and  O_36
   10  A    between atoms: C_10  and  C_50
   11  A    between atoms: C_19  and  O_42
   12  A    between atoms: C_27  and  C_34
   13  A    between atoms: C_34  and  C_49
   14  A    between atoms: O_36  and  C_46
   15  A    between atoms: C_43  and  C_44
                            x       y       z     vdW  Elec       q    Type
                         _______ _______ _______ _____ _____    ______ ____

>  <TORSDO>
F 15

$$$$
=
 OpenBabel11062414153D

 60 65  0  0  1  0  0  0  0  0999 V2000
  189.6000  175.5130  137.6230 C   0  0  2  0  0  3  0  0  0  0  0  0
  187.9980  174.1480  135.0530 C   0  0  2  0  0  3  0  0  0  0  0  0
  183.6090  178.0160  140.8270 O   0  0  0  0  0  0  0  0  0  0  0  0
  186.5010  179.4330  141.7130 O   0  0  0  0  0  0  0  0  0  0  0  0
  184.3170  177.8070  136.8550 C   0  0  0  0  0  2  0  0  0  0  0  0
  185.3820  177.3860  142.3820 C   0  0  0  0  0  2  0  0  0  0  0  0
  187.6980  175.4680  135.7670 C   0  0  2  0  0  3  0  0  0  0  0  0
  188.9640  176.1280  136.3560 C   0  0  1  0  0  3  0  0  0  0  0  0
  189.0470  176.0280  138.9600 C   0  0  1  0  0  3  0  0  0  0  0  0
  191.0790  177.4350  139.0240 C   0  0  0  0  0  3  0  0  0  0  0  0
  191.4980  176.8170  137.7220 C   0  0  2  0  0  3  0  0  0  0  0  0
  187.7030  173.0450  136.0550 C   0  0  1  0  0  3  0  0  0  0  0  0
  188.9800  174.9750  139.8540 F   0  0  0  0  0  0  0  0  0  0  0  0
  189.3160  174.0650  134.5950 O   0  0  0  0  0  1  0  0  0  0  0  0
  185.5450  175.7220  136.8420 C   0  0  0  0  0  0  0  0  0  0  0  0
  189.9040  177.1200  139.5620 C   0  0  0  0  0  0  0  0  0  0  0  0
  187.8740  177.6920  142.5120 C   0  0  1  0  0  3  0  0  0  0  0  0
  186.9740  173.2410  138.4220 C   0  0  0  0  0  1  0  0  0  0  0  0
  187.4940  179.1570  140.7490 C   0  0  0  0  0  2  0  0  0  0  0  0
  188.0990  177.8120  141.0500 C   0  0  1  0  0  3  0  0  0  0  0  0
  186.5290  178.3800  142.6510 C   0  0  1  0  0  3  0  0  0  0  0  0
  183.9880  177.9920  142.1840 C   0  0  1  0  0  3  0  0  0  0  0  0
  191.0170  175.4950  137.5950 O   0  0  0  0  0  0  0  0  0  0  0  0
  186.6840  175.0850  136.7950 C   0  0  0  0  0  0  0  0  0  0  0  0
  184.3840  176.3150  136.8810 C   0  0  0  0  0  0  0  0  0  0  0  0
  183.4520  178.3390  137.9870 C   0  0  0  0  0  2  0  0  0  0  0  0
  189.4760  177.7910  140.7090 O   0  0  0  0  0  0  0  0  0  0  0  0
  184.8350  180.2420  138.3860 O   0  0  0  0  0  0  0  0  0  0  0  0
  187.8370  176.3670  142.9000 F   0  0  0  0  0  0  0  0  0  0  0  0
  184.2330  179.2490  138.8780 C   0  0  0  0  0  0  0  0  0  0  0  0
  186.6480  173.6100  136.9910 C   0  0  1  0  0  3  0  0  0  0  0  0
  184.2770  179.0320  140.2540 O   0  0  0  0  0  0  0  0  0  0  0  0
  186.0320  172.3080  134.9200 O   0  0  0  0  0  1  0  0  0  0  0  0
  187.2000  171.9230  135.3960 O   0  0  0  0  0  0  0  0  0  0  0  0
  193.0120  176.8440  137.5940 C   0  0  0  0  0  2  0  0  0  0  0  0
  193.5120  175.6500  136.7970 C   0  0  0  0  0  3  0  0  0  0  0  0
  194.2640  176.1170  135.5610 C   0  0  0  0  0  1  0  0  0  0  0  0
  194.4410  174.8270  137.6630 C   0  0  0  0  0  1  0  0  0  0  0  0
  188.9940  177.5540  136.2660 O   0  0  0  0  0  0  0  0  0  0  0  0
  187.1380  178.3600  134.8220 C   0  0  0  0  0  1  0  0  0  0  0  0
  187.8740  178.3750  136.1100 C   0  0  0  0  0  0  0  0  0  0  0  0
  187.4810  179.1320  137.0330 O   0  0  0  0  0  0  0  0  0  0  0  0
  183.1540  175.5060  136.6420 C   0  0  0  0  0  2  0  0  0  0  0  0
  183.4840  174.0210  136.6650 C   0  0  0  0  0  2  0  0  0  0  0  0
  182.2850  173.1590  136.9320 C   0  0  0  0  0  0  0  0  0  0  0  0
  182.4610  172.0370  137.3850 O   0  0  0  0  0  0  0  0  0  0  0  0
  180.8870  173.6350  136.6310 C   0  0  1  0  0  3  0  0  0  0  0  0
  179.2890  172.0470  135.8870 O   0  0  0  0  0  0  0  0  0  0  0  0
  180.2730  172.9050  135.4440 C   0  0  0  0  0  3  0  0  0  0  0  0
  178.9340  173.2240  135.3460 O   0  0  0  0  0  0  0  0  0  0  0  0
  179.9740  173.6320  137.8650 C   0  0  0  0  0  2  0  0  0  0  0  0
  179.7760  175.0060  138.4940 C   0  0  0  0  0  2  0  0  0  0  0  0
  180.4690  175.0810  139.8390 C   0  0  0  0  0  1  0  0  0  0  0  0
  183.8340  179.2480  142.8020 O   0  0  0  0  0  0  0  0  0  0  0  0
  182.8410  179.1030  143.7850 C   0  0  1  0  0  0  0  0  0  0  0  0
  181.0720  177.5990  144.3960 F   0  0  0  0  0  0  0  0  0  0  0  0
  181.5010  179.7350  143.4740 C   0  0  0  0  0  2  0  0  0  0  0  0
  181.6850  178.2280  143.3280 C   0  0  1  0  0  3  0  0  0  0  0  0
  183.2550  178.9880  145.2240 C   0  0  0  0  0  3  0  0  0  0  0  0
  184.4220  179.1280  145.5330 O   0  0  0  0  0  0  0  0  0  0  0  0
  1 23  1  1  0  0  0
  1  9  1  0  0  0  0
  2 14  1  1  0  0  0
  2  7  1  0  0  0  0
  2 12  1  0  0  0  0
  3 22  1  0  0  0  0
  4 21  1  0  0  0  0
  5 25  1  0  0  0  0
  5 26  1  0  0  0  0
  7  8  1  0  0  0  0
  7 24  1  1  0  0  0
  8 39  1  1  0  0  0
  8  1  1  0  0  0  0
  9 16  1  0  0  0  0
  9 13  1  1  0  0  0
 10 16  2  0  0  0  0
 11 35  1  1  0  0  0
 11 10  1  0  0  0  0
 12 34  1  6  0  0  0
 12 31  1  0  0  0  0
 15 25  2  0  0  0  0
 16 27  1  0  0  0  0
 17 21  1  0  0  0  0
 17 29  1  6  0  0  0
 19  4  1  0  0  0  0
 20 19  1  1  0  0  0
 20 17  1  0  0  0  0
 21  6  1  6  0  0  0
 22  6  1  0  0  0  0
 22 54  1  6  0  0  0
 23 11  1  0  0  0  0
 24 15  2  0  0  0  0
 24 31  1  0  0  0  0
 26 30  1  0  0  0  0
 27 20  1  0  0  0  0
 28 30  2  0  0  0  0
 30 32  1  0  0  0  0
 31 18  1  1  0  0  0
 32  3  1  0  0  0  0
 33 34  1  0  0  0  0
 36 35  1  0  0  0  0
 36 38  1  0  0  0  0
 37 36  1  0  0  0  0
 40 41  1  0  0  0  0
 41 39  1  0  0  0  0
 41 42  2  0  0  0  0
 43 44  1  0  0  0  0
 43 25  1  0  0  0  0
 44 45  1  0  0  0  0
 45 46  2  0  0  0  0
 47 45  1  0  0  0  0
 47 51  1  1  0  0  0
 49 48  1  0  0  0  0
 49 47  1  0  0  0  0
 50 49  1  0  0  0  0
 50 48  1  0  0  0  0
 51 52  1  0  0  0  0
 52 53  1  0  0  0  0
 54 55  1  0  0  0  0
 55 59  1  1  0  0  0
 57 55  1  0  0  0  0
 58 57  1  0  0  0  0
 58 55  1  0  0  0  0
 58 56  1  1  0  0  0
 59 60  2  0  0  0  0
M  END
>  <MODEL>
2

>  <REMARK>
 VINA RESULT:      -1.8      3.913      8.578
  Name = 
  15 active torsions:
  status: ('A' for Active; 'I' for Inactive)
    1  A    between atoms: C_2  and  C_18
    2  A    between atoms: C_2  and  C_29
    3  A    between atoms: C_4  and  C_7
    4  A    between atoms: C_4  and  C_25
    5  A    between atoms: C_4  and  C_43
    6  A    between atoms: O_6  and  C_11
    7  A    between atoms: O_6  and  C_15
    8  A    between atoms: C_7  and  C_27
    9  A    between atoms: C_10  and  O_36
   10  A    between atoms: C_10  and  C_50
   11  A    between atoms: C_19  and  O_42
   12  A    between atoms: C_27  and  C_34
   13  A    between atoms: C_34  and  C_49
   14  A    between atoms: O_36  and  C_46
   15  A    between atoms: C_43  and  C_44
                            x       y       z     vdW  Elec       q    Type
                         _______ _______ _______ _____ _____    ______ ____

>  <TORSDO>
F 15

$$$$
=
 OpenBabel11062414153D

 60 65  0  0  1  0  0  0  0  0999 V2000
  189.2170  174.8700  136.7360 C   0  0  2  0  0  3  0  0  0  0  0  0
  188.2590  172.3080  134.8520 C   0  0  2  0  0  3  0  0  0  0  0  0
  182.4990  177.2400  138.0230 O   0  0  0  0  0  0  0  0  0  0  0  0
  184.9840  179.4220  138.4830 O   0  0  0  0  0  0  0  0  0  0  0  0
  183.8650  175.5970  134.5950 C   0  0  0  0  0  2  0  0  0  0  0  0
  184.0650  177.6420  139.8510 C   0  0  0  0  0  2  0  0  0  0  0  0
  187.6670  173.7180  134.9100 C   0  0  2  0  0  3  0  0  0  0  0  0
  188.7180  174.7910  135.2760 C   0  0  1  0  0  3  0  0  0  0  0  0
  188.3890  175.7610  137.6730 C   0  0  1  0  0  3  0  0  0  0  0  0
  190.1700  177.4390  137.3190 C   0  0  0  0  0  3  0  0  0  0  0  0
  190.8760  176.4440  136.4450 C   0  0  2  0  0  3  0  0  0  0  0  0
  187.9590  171.6660  136.1950 C   0  0  1  0  0  3  0  0  0  0  0  0
  188.3230  175.1630  138.9190 F   0  0  0  0  0  0  0  0  0  0  0  0
  189.6320  172.3050  134.5940 O   0  0  0  0  0  1  0  0  0  0  0  0
  185.3550  173.9620  135.5760 C   0  0  0  0  0  0  0  0  0  0  0  0
  188.9780  177.1450  137.8320 C   0  0  0  0  0  0  0  0  0  0  0  0
  186.4360  178.4490  140.0650 C   0  0  1  0  0  3  0  0  0  0  0  0
  186.8350  172.6500  138.1800 C   0  0  0  0  0  1  0  0  0  0  0  0
  186.1500  178.9800  137.8210 C   0  0  0  0  0  2  0  0  0  0  0  0
  186.8770  178.0130  138.7160 C   0  0  1  0  0  3  0  0  0  0  0  0
  185.0040  178.8610  139.7770 C   0  0  1  0  0  3  0  0  0  0  0  0
  182.6510  177.8370  139.2910 C   0  0  1  0  0  3  0  0  0  0  0  0
  190.6090  175.1160  136.8470 O   0  0  0  0  0  0  0  0  0  0  0  0
  186.5630  173.5930  135.9070 C   0  0  0  0  0  0  0  0  0  0  0  0
  184.1320  174.2850  135.2560 C   0  0  0  0  0  0  0  0  0  0  0  0
  182.7630  176.3600  135.3110 C   0  0  0  0  0  2  0  0  0  0  0  0
  188.2810  178.1230  138.5430 O   0  0  0  0  0  0  0  0  0  0  0  0
  183.7870  178.4910  134.9910 O   0  0  0  0  0  0  0  0  0  0  0  0
  186.5190  177.4110  140.9720 F   0  0  0  0  0  0  0  0  0  0  0  0
  183.2550  177.6830  135.8010 C   0  0  0  0  0  0  0  0  0  0  0  0
  186.6980  172.3420  136.7040 C   0  0  1  0  0  3  0  0  0  0  0  0
  183.1040  178.0500  137.1370 O   0  0  0  0  0  0  0  0  0  0  0  0
  187.6340  170.1300  134.7260 O   0  0  0  0  0  1  0  0  0  0  0  0
  187.7300  170.2990  136.0300 O   0  0  0  0  0  0  0  0  0  0  0  0
  192.3720  176.7090  136.4550 C   0  0  0  0  0  2  0  0  0  0  0  0
  193.0630  175.8960  137.5390 C   0  0  0  0  0  3  0  0  0  0  0  0
  194.3500  175.2910  137.0060 C   0  0  0  0  0  1  0  0  0  0  0  0
  193.3840  176.7990  138.7100 C   0  0  0  0  0  1  0  0  0  0  0  0
  188.5650  176.0360  134.5940 O   0  0  0  0  0  0  0  0  0  0  0  0
  187.9660  178.4430  134.7550 C   0  0  0  0  0  1  0  0  0  0  0  0
  187.6100  177.0100  134.8960 C   0  0  0  0  0  0  0  0  0  0  0  0
  186.4580  176.7000  135.2910 O   0  0  0  0  0  0  0  0  0  0  0  0
  183.0810  173.2260  135.2710 C   0  0  0  0  0  2  0  0  0  0  0  0
  183.6190  171.9540  135.9080 C   0  0  0  0  0  2  0  0  0  0  0  0
  182.5980  170.8550  135.9750 C   0  0  0  0  0  0  0  0  0  0  0  0
  182.9790  169.6970  135.8820 O   0  0  0  0  0  0  0  0  0  0  0  0
  181.1280  171.1520  136.1260 C   0  0  1  0  0  3  0  0  0  0  0  0
  178.9350  170.2600  135.9600 O   0  0  0  0  0  0  0  0  0  0  0  0
  180.2570  169.9840  135.6810 C   0  0  0  0  0  3  0  0  0  0  0  0
  179.3810  170.4070  134.7020 O   0  0  0  0  0  0  0  0  0  0  0  0
  180.7610  171.6640  137.5260 C   0  0  0  0  0  2  0  0  0  0  0  0
  180.4550  173.1560  137.5800 C   0  0  0  0  0  2  0  0  0  0  0  0
  179.6800  173.5860  136.3510 C   0  0  0  0  0  1  0  0  0  0  0  0
  182.2270  179.1790  139.3020 O   0  0  0  0  0  0  0  0  0  0  0  0
  180.8430  179.1700  139.5400 C   0  0  1  0  0  0  0  0  0  0  0  0
  179.2420  180.0680  141.0880 F   0  0  0  0  0  0  0  0  0  0  0  0
  180.3310  178.0690  140.4440 C   0  0  0  0  0  2  0  0  0  0  0  0
  180.4920  179.4860  140.9850 C   0  0  1  0  0  3  0  0  0  0  0  0
  179.9210  179.7050  138.4820 C   0  0  0  0  0  3  0  0  0  0  0  0
  180.3370  179.8990  137.3570 O   0  0  0  0  0  0  0  0  0  0  0  0
  1 23  1  6  0  0  0
  1  9  1  0  0  0  0
  2 14  1  1  0  0  0
  2  7  1  0  0  0  0
  2 12  1  0  0  0  0
  3 22  1  0  0  0  0
  4 21  1  0  0  0  0
  5 25  1  0  0  0  0
  5 26  1  0  0  0  0
  7  8  1  0  0  0  0
  7 24  1  1  0  0  0
  8 39  1  1  0  0  0
  8  1  1  0  0  0  0
  9 16  1  0  0  0  0
  9 13  1  1  0  0  0
 10 16  2  0  0  0  0
 11 35  1  1  0  0  0
 11 23  1  0  0  0  0
 11 10  1  0  0  0  0
 12 34  1  6  0  0  0
 12 31  1  0  0  0  0
 15 24  2  0  0  0  0
 16 27  1  0  0  0  0
 17 29  1  1  0  0  0
 19  4  1  0  0  0  0
 20 19  1  6  0  0  0
 20 17  1  0  0  0  0
 21  6  1  6  0  0  0
 21 17  1  0  0  0  0
 22 54  1  6  0  0  0
 22  6  1  0  0  0  0
 24 31  1  0  0  0  0
 25 43  1  0  0  0  0
 25 15  2  0  0  0  0
 26 30  1  0  0  0  0
 27 20  1  0  0  0  0
 28 30  2  0  0  0  0
 30 32  1  0  0  0  0
 31 18  1  1  0  0  0
 32  3  1  0  0  0  0
 33 34  1  0  0  0  0
 35 36  1  0  0  0  0
 36 38  1  0  0  0  0
 37 36  1  0  0  0  0
 39 41  1  0  0  0  0
 40 41  1  0  0  0  0
 41 42  2  0  0  0  0
 43 44  1  0  0  0  0
 44 45  1  0  0  0  0
 45 47  1  0  0  0  0
 46 45  2  0  0  0  0
 47 51  1  1  0  0  0
 49 48  1  0  0  0  0
 49 47  1  0  0  0  0
 50 49  1  0  0  0  0
 50 48  1  0  0  0  0
 51 52  1  0  0  0  0
 53 52  1  0  0  0  0
 54 55  1  0  0  0  0
 55 59  1  6  0  0  0
 55 57  1  0  0  0  0
 55 58  1  0  0  0  0
 57 58  1  0  0  0  0
 58 56  1  6  0  0  0
 60 59  2  0  0  0  0
M  END
>  <MODEL>
3

>  <REMARK>
 VINA RESULT:      -1.8      3.409      8.366
  Name = 
  15 active torsions:
  status: ('A' for Active; 'I' for Inactive)
    1  A    between atoms: C_2  and  C_18
    2  A    between atoms: C_2  and  C_29
    3  A    between atoms: C_4  and  C_7
    4  A    between atoms: C_4  and  C_25
    5  A    between atoms: C_4  and  C_43
    6  A    between atoms: O_6  and  C_11
    7  A    between atoms: O_6  and  C_15
    8  A    between atoms: C_7  and  C_27
    9  A    between atoms: C_10  and  O_36
   10  A    between atoms: C_10  and  C_50
   11  A    between atoms: C_19  and  O_42
   12  A    between atoms: C_27  and  C_34
   13  A    between atoms: C_34  and  C_49
   14  A    between atoms: O_36  and  C_46
   15  A    between atoms: C_43  and  C_44
                            x       y       z     vdW  Elec       q    Type
                         _______ _______ _______ _____ _____    ______ ____

>  <TORSDO>
F 15

$$$$
=
 OpenBabel11062414153D

 60 65  0  0  1  0  0  0  0  0999 V2000
  190.3010  174.9210  137.3630 C   0  0  2  0  0  3  0  0  0  0  0  0
  188.4530  173.2700  135.1520 C   0  0  2  0  0  3  0  0  0  0  0  0
  184.6640  177.9880  140.7160 O   0  0  0  0  0  0  0  0  0  0  0  0
  187.6450  179.4320  141.1440 O   0  0  0  0  0  0  0  0  0  0  0  0
  185.0050  177.2340  136.7610 C   0  0  0  0  0  2  0  0  0  0  0  0
  186.5620  177.5230  142.1790 C   0  0  0  0  0  2  0  0  0  0  0  0
  188.2380  174.6810  135.7050 C   0  0  2  0  0  3  0  0  0  0  0  0
  189.5620  175.3790  136.0860 C   0  0  1  0  0  3  0  0  0  0  0  0
  189.8800  175.6240  138.6620 C   0  0  1  0  0  3  0  0  0  0  0  0
  191.9300  176.9720  138.3570 C   0  0  0  0  0  3  0  0  0  0  0  0
  192.2190  176.1750  137.1180 C   0  0  2  0  0  3  0  0  0  0  0  0
  188.2330  172.3190  136.3160 C   0  0  1  0  0  3  0  0  0  0  0  0
  189.8790  174.7010  139.6920 F   0  0  0  0  0  0  0  0  0  0  0  0
  189.7220  173.0920  134.5950 O   0  0  0  0  0  1  0  0  0  0  0  0
  186.1960  175.1330  136.9210 C   0  0  0  0  0  0  0  0  0  0  0  0
  190.8040  176.7630  139.0340 C   0  0  0  0  0  0  0  0  0  0  0  0
  189.0600  177.7770  142.0470 C   0  0  1  0  0  3  0  0  0  0  0  0
  187.7250  172.8480  138.6900 C   0  0  0  0  0  1  0  0  0  0  0  0
  188.5420  179.0040  140.1420 C   0  0  0  0  0  2  0  0  0  0  0  0
  189.1520  177.6950  140.5670 C   0  0  1  0  0  3  0  0  0  0  0  0
  187.7430  178.5130  142.2090 C   0  0  1  0  0  3  0  0  0  0  0  0
  185.1650  178.1350  142.0250 C   0  0  1  0  0  3  0  0  0  0  0  0
  191.7090  174.8610  137.2130 O   0  0  0  0  0  0  0  0  0  0  0  0
  187.3170  174.4660  136.8610 C   0  0  0  0  0  0  0  0  0  0  0  0
  185.0520  175.7580  136.9820 C   0  0  0  0  0  0  0  0  0  0  0  0
  184.2540  177.9350  137.8830 C   0  0  0  0  0  2  0  0  0  0  0  0
  190.4920  177.5920  140.1130 O   0  0  0  0  0  0  0  0  0  0  0  0
  185.6960  179.8360  137.8980 O   0  0  0  0  0  0  0  0  0  0  0  0
  189.0380  176.5160  142.6120 F   0  0  0  0  0  0  0  0  0  0  0  0
  185.1260  178.9340  138.5710 C   0  0  0  0  0  0  0  0  0  0  0  0
  187.2760  173.0310  137.2560 C   0  0  1  0  0  3  0  0  0  0  0  0
  185.2920  178.9010  139.9540 O   0  0  0  0  0  0  0  0  0  0  0  0
  186.3730  171.4110  135.7330 O   0  0  0  0  0  1  0  0  0  0  0  0
  187.6560  171.1330  135.8610 O   0  0  0  0  0  0  0  0  0  0  0  0
  193.7160  176.1440  136.8550 C   0  0  0  0  0  2  0  0  0  0  0  0
  194.1100  174.8830  136.1020 C   0  0  0  0  0  3  0  0  0  0  0  0
  195.4140  175.1010  135.3530 C   0  0  0  0  0  1  0  0  0  0  0  0
  194.2870  173.7500  137.0900 C   0  0  0  0  0  1  0  0  0  0  0  0
  189.6050  176.7790  135.8020 O   0  0  0  0  0  0  0  0  0  0  0  0
  187.6580  177.7430  134.5940 C   0  0  0  0  0  1  0  0  0  0  0  0
  188.5020  177.6370  135.8100 C   0  0  0  0  0  0  0  0  0  0  0  0
  188.2130  178.3260  136.8200 O   0  0  0  0  0  0  0  0  0  0  0  0
  183.7940  174.9570  136.9640 C   0  0  0  0  0  2  0  0  0  0  0  0
  182.9870  175.2070  138.2290 C   0  0  0  0  0  2  0  0  0  0  0  0
  181.5430  174.8240  138.0880 C   0  0  0  0  0  0  0  0  0  0  0  0
  181.2550  173.8900  137.3530 O   0  0  0  0  0  0  0  0  0  0  0  0
  180.4530  175.5750  138.8080 C   0  0  1  0  0  3  0  0  0  0  0  0
  179.1310  177.5450  138.7470 O   0  0  0  0  0  0  0  0  0  0  0  0
  179.8550  176.6830  137.9510 C   0  0  0  0  0  3  0  0  0  0  0  0
  180.3630  177.9030  138.3500 O   0  0  0  0  0  0  0  0  0  0  0  0
  179.3840  174.6510  139.4100 C   0  0  0  0  0  2  0  0  0  0  0  0
  179.2410  174.7720  140.9230 C   0  0  0  0  0  2  0  0  0  0  0  0
  179.5800  173.4590  141.5970 C   0  0  0  0  0  1  0  0  0  0  0  0
  185.0860  179.4660  142.4790 O   0  0  0  0  0  0  0  0  0  0  0  0
  184.3560  179.4470  143.6790 C   0  0  1  0  0  0  0  0  0  0  0  0
  183.1640  177.9010  145.0770 F   0  0  0  0  0  0  0  0  0  0  0  0
  182.8660  179.6870  143.5540 C   0  0  0  0  0  2  0  0  0  0  0  0
  183.3950  178.2720  143.7650 C   0  0  1  0  0  3  0  0  0  0  0  0
  185.0380  179.8650  144.9500 C   0  0  0  0  0  3  0  0  0  0  0  0
  185.8970  179.1570  145.4380 O   0  0  0  0  0  0  0  0  0  0  0  0
  1 23  1  6  0  0  0
  1  9  1  0  0  0  0
  2 14  1  1  0  0  0
  2  7  1  0  0  0  0
  2 12  1  0  0  0  0
  3 22  1  0  0  0  0
  4 21  1  0  0  0  0
  5 25  1  0  0  0  0
  5 26  1  0  0  0  0
  7  8  1  0  0  0  0
  7 24  1  1  0  0  0
  8 39  1  1  0  0  0
  8  1  1  0  0  0  0
  9 16  1  0  0  0  0
  9 13  1  1  0  0  0
 10 16  2  0  0  0  0
 11 35  1  1  0  0  0
 11 23  1  0  0  0  0
 11 10  1  0  0  0  0
 12 34  1  6  0  0  0
 12 31  1  0  0  0  0
 15 25  2  0  0  0  0
 16 27  1  0  0  0  0
 17 21  1  0  0  0  0
 17 29  1  1  0  0  0
 19  4  1  0  0  0  0
 20 19  1  6  0  0  0
 20 17  1  0  0  0  0
 21  6  1  6  0  0  0
 22  6  1  0  0  0  0
 22 54  1  6  0  0  0
 24 15  2  0  0  0  0
 24 31  1  0  0  0  0
 26 30  1  0  0  0  0
 27 20  1  0  0  0  0
 28 30  2  0  0  0  0
 30 32  1  0  0  0  0
 31 18  1  1  0  0  0
 32  3  1  0  0  0  0
 33 34  1  0  0  0  0
 36 35  1  0  0  0  0
 36 38  1  0  0  0  0
 37 36  1  0  0  0  0
 39 41  1  0  0  0  0
 40 41  1  0  0  0  0
 41 42  2  0  0  0  0
 43 25  1  0  0  0  0
 43 44  1  0  0  0  0
 45 44  1  0  0  0  0
 45 47  1  0  0  0  0
 46 45  2  0  0  0  0
 47 51  1  6  0  0  0
 49 50  1  0  0  0  0
 49 48  1  0  0  0  0
 49 47  1  0  0  0  0
 50 48  1  0  0  0  0
 51 52  1  0  0  0  0
 52 53  1  0  0  0  0
 54 55  1  0  0  0  0
 55 58  1  0  0  0  0
 55 59  1  1  0  0  0
 57 55  1  0  0  0  0
 57 58  1  0  0  0  0
 58 56  1  1  0  0  0
 59 60  2  0  0  0  0
M  END
>  <MODEL>
4

>  <REMARK>
 VINA RESULT:      -1.2      4.074      8.681
  Name = 
  15 active torsions:
  status: ('A' for Active; 'I' for Inactive)
    1  A    between atoms: C_2  and  C_18
    2  A    between atoms: C_2  and  C_29
    3  A    between atoms: C_4  and  C_7
    4  A    between atoms: C_4  and  C_25
    5  A    between atoms: C_4  and  C_43
    6  A    between atoms: O_6  and  C_11
    7  A    between atoms: O_6  and  C_15
    8  A    between atoms: C_7  and  C_27
    9  A    between atoms: C_10  and  O_36
   10  A    between atoms: C_10  and  C_50
   11  A    between atoms: C_19  and  O_42
   12  A    between atoms: C_27  and  C_34
   13  A    between atoms: C_34  and  C_49
   14  A    between atoms: O_36  and  C_46
   15  A    between atoms: C_43  and  C_44
                            x       y       z     vdW  Elec       q    Type
                         _______ _______ _______ _____ _____    ______ ____

>  <TORSDO>
F 15

$$$$
=
 OpenBabel11062414153D

 60 65  0  0  1  0  0  0  0  0999 V2000
  182.9940  178.1180  141.3350 C   0  0  2  0  0  3  0  0  0  0  0  0
  184.8030  179.7670  143.5800 C   0  0  2  0  0  3  0  0  0  0  0  0
  188.7010  175.6930  137.5970 O   0  0  0  0  0  0  0  0  0  0  0  0
  185.7580  175.7110  136.0180 O   0  0  0  0  0  0  0  0  0  0  0  0
  188.3500  179.2860  139.4100 C   0  0  0  0  0  2  0  0  0  0  0  0
  186.7880  174.1770  137.5910 C   0  0  0  0  0  2  0  0  0  0  0  0
  185.0540  179.6240  142.0760 C   0  0  2  0  0  3  0  0  0  0  0  0
  183.7470  179.4650  141.2670 C   0  0  1  0  0  3  0  0  0  0  0  0
  183.4300  177.0610  140.3090 C   0  0  1  0  0  3  0  0  0  0  0  0
  181.4170  177.7480  139.0490 C   0  0  0  0  0  3  0  0  0  0  0  0
  181.1100  178.7190  140.1510 C   0  0  2  0  0  3  0  0  0  0  0  0
  184.9950  178.3820  144.1750 C   0  0  1  0  0  3  0  0  0  0  0  0
  183.4040  175.8150  140.9100 F   0  0  0  0  0  0  0  0  0  0  0  0
  183.5310  180.2640  143.8740 O   0  0  0  0  0  1  0  0  0  0  0  0
  187.1040  178.5610  141.3540 C   0  0  0  0  0  0  0  0  0  0  0  0
  182.5350  177.0280  139.0900 C   0  0  0  0  0  0  0  0  0  0  0  0
  184.2980  174.3980  137.3230 C   0  0  1  0  0  3  0  0  0  0  0  0
  185.5110  176.2430  143.0210 C   0  0  0  0  0  1  0  0  0  0  0  0
  184.8520  176.5630  136.6860 C   0  0  0  0  0  2  0  0  0  0  0  0
  184.2070  175.7970  137.8100 C   0  0  1  0  0  3  0  0  0  0  0  0
  185.6330  174.4330  136.6030 C   0  0  1  0  0  3  0  0  0  0  0  0
  188.2010  174.4800  137.0800 C   0  0  1  0  0  3  0  0  0  0  0  0
  181.5850  178.2590  141.3990 O   0  0  0  0  0  0  0  0  0  0  0  0
  185.9660  178.4450  141.9840 C   0  0  0  0  0  0  0  0  0  0  0  0
  188.2640  178.6650  140.7660 C   0  0  0  0  0  0  0  0  0  0  0  0
  189.1160  178.3960  138.4440 C   0  0  0  0  0  2  0  0  0  0  0  0
  182.8660  176.2190  138.0020 O   0  0  0  0  0  0  0  0  0  0  0  0
  187.7250  178.9220  136.5790 O   0  0  0  0  0  0  0  0  0  0  0  0
  184.2850  173.5050  138.3780 F   0  0  0  0  0  0  0  0  0  0  0  0
  188.2690  178.0200  137.2730 C   0  0  0  0  0  0  0  0  0  0  0  0
  185.9680  177.6670  143.2540 C   0  0  1  0  0  3  0  0  0  0  0  0
  188.0990  176.6830  136.9160 O   0  0  0  0  0  0  0  0  0  0  0  0
  184.5240  178.8080  146.2300 O   0  0  0  0  0  1  0  0  0  0  0  0
  185.5410  178.4850  145.4550 O   0  0  0  0  0  0  0  0  0  0  0  0
  179.6140  178.9780  140.2170 C   0  0  0  0  0  2  0  0  0  0  0  0
  179.3240  180.4650  140.3580 C   0  0  0  0  0  3  0  0  0  0  0  0
  179.3830  180.8770  141.8200 C   0  0  0  0  0  1  0  0  0  0  0  0
  180.3550  181.2490  139.5770 C   0  0  0  0  0  1  0  0  0  0  0  0
  183.7420  180.1260  140.0010 O   0  0  0  0  0  0  0  0  0  0  0  0
  183.4490  179.6370  137.5810 C   0  0  0  0  0  1  0  0  0  0  0  0
  184.2710  179.6050  138.8160 C   0  0  0  0  0  0  0  0  0  0  0  0
  185.4220  179.1050  138.7750 O   0  0  0  0  0  0  0  0  0  0  0  0
  189.5000  178.4480  141.5710 C   0  0  0  0  0  2  0  0  0  0  0  0
  189.8010  176.9620  141.6910 C   0  0  0  0  0  2  0  0  0  0  0  0
  189.3520  176.3780  142.9990 C   0  0  0  0  0  0  0  0  0  0  0  0
  188.5210  175.4810  142.9830 O   0  0  0  0  0  0  0  0  0  0  0  0
  189.8830  176.8860  144.3140 C   0  0  1  0  0  3  0  0  0  0  0  0
  192.0100  176.3950  145.2440 O   0  0  0  0  0  0  0  0  0  0  0  0
  191.3840  177.1420  144.2690 C   0  0  0  0  0  3  0  0  0  0  0  0
  192.0450  175.9680  143.9710 O   0  0  0  0  0  0  0  0  0  0  0  0
  189.0930  178.0870  144.8550 C   0  0  0  0  0  2  0  0  0  0  0  0
  188.8390  178.0360  146.3570 C   0  0  0  0  0  2  0  0  0  0  0  0
  189.3920  176.7550  146.9480 C   0  0  0  0  0  1  0  0  0  0  0  0
  188.3140  174.4130  135.6790 O   0  0  0  0  0  0  0  0  0  0  0  0
  189.3070  173.4610  135.3930 C   0  0  1  0  0  0  0  0  0  0  0  0
  191.3360  172.5890  136.3340 F   0  0  0  0  0  0  0  0  0  0  0  0
  190.4950  173.9610  134.5990 C   0  0  0  0  0  2  0  0  0  0  0  0
  190.6190  173.7490  136.1040 C   0  0  1  0  0  3  0  0  0  0  0  0
  188.9120  172.0200  135.2470 C   0  0  0  0  0  3  0  0  0  0  0  0
  187.8100  171.7330  134.8210 O   0  0  0  0  0  0  0  0  0  0  0  0
  1 23  1  6  0  0  0
  2 14  1  6  0  0  0
  2 12  1  0  0  0  0
  4 21  1  0  0  0  0
  4 19  1  0  0  0  0
  5 25  1  0  0  0  0
  7 24  1  1  0  0  0
  7  2  1  0  0  0  0
  8 39  1  6  0  0  0
  8  1  1  0  0  0  0
  8  7  1  0  0  0  0
  9 13  1  1  0  0  0
  9  1  1  0  0  0  0
 10 16  2  0  0  0  0
 10 11  1  0  0  0  0
 11 35  1  1  0  0  0
 11 23  1  0  0  0  0
 12 34  1  1  0  0  0
 15 24  2  0  0  0  0
 16  9  1  0  0  0  0
 17 20  1  0  0  0  0
 17 29  1  1  0  0  0
 20 19  1  6  0  0  0
 20 27  1  0  0  0  0
 21 17  1  0  0  0  0
 21  6  1  1  0  0  0
 22 54  1  6  0  0  0
 22  6  1  0  0  0  0
 22  3  1  0  0  0  0
 24 31  1  0  0  0  0
 25 15  2  0  0  0  0
 25 43  1  0  0  0  0
 26  5  1  0  0  0  0
 27 16  1  0  0  0  0
 28 30  2  0  0  0  0
 30 26  1  0  0  0  0
 31 18  1  6  0  0  0
 31 12  1  0  0  0  0
 32 30  1  0  0  0  0
 32  3  1  0  0  0  0
 34 33  1  0  0  0  0
 35 36  1  0  0  0  0
 36 37  1  0  0  0  0
 38 36  1  0  0  0  0
 40 41  1  0  0  0  0
 41 39  1  0  0  0  0
 42 41  2  0  0  0  0
 43 44  1  0  0  0  0
 44 45  1  0  0  0  0
 45 47  1  0  0  0  0
 46 45  2  0  0  0  0
 47 51  1  6  0  0  0
 49 47  1  0  0  0  0
 49 48  1  0  0  0  0
 50 49  1  0  0  0  0
 50 48  1  0  0  0  0
 51 52  1  0  0  0  0
 52 53  1  0  0  0  0
 55 59  1  6  0  0  0
 55 54  1  0  0  0  0
 55 58  1  0  0  0  0
 57 55  1  0  0  0  0
 57 58  1  0  0  0  0
 58 56  1  6  0  0  0
 60 59  2  0  0  0  0
M  END
>  <MODEL>
5

>  <REMARK>
 VINA RESULT:      -1.1      3.328      8.206
  Name = 
  15 active torsions:
  status: ('A' for Active; 'I' for Inactive)
    1  A    between atoms: C_2  and  C_18
    2  A    between atoms: C_2  and  C_29
    3  A    between atoms: C_4  and  C_7
    4  A    between atoms: C_4  and  C_25
    5  A    between atoms: C_4  and  C_43
    6  A    between atoms: O_6  and  C_11
    7  A    between atoms: O_6  and  C_15
    8  A    between atoms: C_7  and  C_27
    9  A    between atoms: C_10  and  O_36
   10  A    between atoms: C_10  and  C_50
   11  A    between atoms: C_19  and  O_42
   12  A    between atoms: C_27  and  C_34
   13  A    between atoms: C_34  and  C_49
   14  A    between atoms: O_36  and  C_46
   15  A    between atoms: C_43  and  C_44
                            x       y       z     vdW  Elec       q    Type
                         _______ _______ _______ _____ _____    ______ ____

>  <TORSDO>
F 15

$$$$
=
 OpenBabel11062414153D

 60 65  0  0  1  0  0  0  0  0999 V2000
  183.6760  174.6670  136.0580 C   0  0  2  0  0  3  0  0  0  0  0  0
  186.5050  174.3280  137.7650 C   0  0  2  0  0  3  0  0  0  0  0  0
  181.7500  180.8620  139.2730 O   0  0  0  0  0  0  0  0  0  0  0  0
  179.3290  179.1270  137.7630 O   0  0  0  0  0  0  0  0  0  0  0  0
  183.6470  177.7360  140.9920 C   0  0  0  0  0  2  0  0  0  0  0  0
  181.0150  180.6720  136.9540 C   0  0  0  0  0  2  0  0  0  0  0  0
  185.1520  174.8430  138.2610 C   0  0  2  0  0  3  0  0  0  0  0  0
  183.9600  174.2120  137.5060 C   0  0  1  0  0  3  0  0  0  0  0  0
  182.7580  175.8900  135.9150 C   0  0  1  0  0  3  0  0  0  0  0  0
  180.9860  174.2450  135.3970 C   0  0  0  0  0  3  0  0  0  0  0  0
  182.0100  173.1580  135.5460 C   0  0  2  0  0  3  0  0  0  0  0  0
  187.0150  175.3600  136.7740 C   0  0  1  0  0  3  0  0  0  0  0  0
  183.2150  176.6760  134.8720 F   0  0  0  0  0  0  0  0  0  0  0  0
  186.4210  173.0660  137.1710 O   0  0  0  0  0  1  0  0  0  0  0  0
  185.0310  177.1060  139.1080 C   0  0  0  0  0  0  0  0  0  0  0  0
  181.3200  175.5110  135.6400 C   0  0  0  0  0  0  0  0  0  0  0  0
  179.9920  178.8820  135.5150 C   0  0  1  0  0  3  0  0  0  0  0  0
  185.9120  177.4390  135.9770 C   0  0  0  0  0  1  0  0  0  0  0  0
  179.7420  177.7940  137.5530 C   0  0  0  0  0  2  0  0  0  0  0  0
  180.5380  177.7310  136.2770 C   0  0  1  0  0  3  0  0  0  0  0  0
  179.7370  179.8710  136.6370 C   0  0  1  0  0  3  0  0  0  0  0  0
  181.0040  181.4860  138.2530 C   0  0  1  0  0  3  0  0  0  0  0  0
  183.3020  173.6080  135.1930 O   0  0  0  0  0  0  0  0  0  0  0  0
  185.2570  176.3230  138.0880 C   0  0  0  0  0  0  0  0  0  0  0  0
  184.8500  177.9060  140.1230 C   0  0  0  0  0  0  0  0  0  0  0  0
  182.9040  179.0510  141.1670 C   0  0  0  0  0  2  0  0  0  0  0  0
  180.3300  176.4940  135.6140 O   0  0  0  0  0  0  0  0  0  0  0  0
  180.7440  178.0380  141.1260 O   0  0  0  0  0  0  0  0  0  0  0  0
  180.9110  179.3470  134.5940 F   0  0  0  0  0  0  0  0  0  0  0  0
  181.4980  178.9430  140.6740 C   0  0  0  0  0  0  0  0  0  0  0  0
  186.3940  176.6800  137.1950 C   0  0  1  0  0  3  0  0  0  0  0  0
  180.9970  179.8520  139.7440 O   0  0  0  0  0  0  0  0  0  0  0  0
  188.6380  176.3890  137.7390 O   0  0  0  0  0  1  0  0  0  0  0  0
  188.4060  175.4450  136.8470 O   0  0  0  0  0  0  0  0  0  0  0  0
  181.6210  171.9550  134.7030 C   0  0  0  0  0  2  0  0  0  0  0  0
  181.3740  170.7350  135.5770 C   0  0  0  0  0  3  0  0  0  0  0  0
  180.6220  171.1310  136.8370 C   0  0  0  0  0  1  0  0  0  0  0  0
  180.5540  169.7260  134.8030 C   0  0  0  0  0  1  0  0  0  0  0  0
  182.8160  173.9360  138.3160 O   0  0  0  0  0  0  0  0  0  0  0  0
  180.5380  174.6270  139.0290 C   0  0  0  0  0  1  0  0  0  0  0  0
  181.9910  174.9000  138.9010 C   0  0  0  0  0  0  0  0  0  0  0  0
  182.4490  175.9950  139.3140 O   0  0  0  0  0  0  0  0  0  0  0  0
  185.9840  178.7630  140.5740 C   0  0  0  0  0  2  0  0  0  0  0  0
  186.5210  178.2730  141.9100 C   0  0  0  0  0  2  0  0  0  0  0  0
  185.8510  178.9240  143.0850 C   0  0  0  0  0  0  0  0  0  0  0  0
  185.6570  180.1310  143.0520 O   0  0  0  0  0  0  0  0  0  0  0  0
  185.4410  178.1310  144.2990 C   0  0  1  0  0  3  0  0  0  0  0  0
  186.4140  177.4820  146.3640 O   0  0  0  0  0  0  0  0  0  0  0  0
  186.6340  177.4980  145.0030 C   0  0  0  0  0  3  0  0  0  0  0  0
  186.2310  176.3540  145.6590 O   0  0  0  0  0  0  0  0  0  0  0  0
  184.5400  178.9240  145.2570 C   0  0  0  0  0  2  0  0  0  0  0  0
  183.0940  178.4440  145.2880 C   0  0  0  0  0  2  0  0  0  0  0  0
  182.3540  178.8990  144.0470 C   0  0  0  0  0  1  0  0  0  0  0  0
  179.7100  181.8380  138.6790 O   0  0  0  0  0  0  0  0  0  0  0  0
  179.5000  183.1730  138.2950 C   0  0  1  0  0  0  0  0  0  0  0  0
  180.7230  185.2240  138.0510 F   0  0  0  0  0  0  0  0  0  0  0  0
  179.1190  184.1310  139.4030 C   0  0  0  0  0  2  0  0  0  0  0  0
  180.5450  184.1190  138.8630 C   0  0  1  0  0  3  0  0  0  0  0  0
  179.0030  183.4590  136.9070 C   0  0  0  0  0  3  0  0  0  0  0  0
  179.4890  184.3700  136.2650 O   0  0  0  0  0  0  0  0  0  0  0  0
  1 23  1  6  0  0  0
  1  8  1  0  0  0  0
  2 14  1  6  0  0  0
  2  7  1  0  0  0  0
  3 32  1  0  0  0  0
  5 26  1  0  0  0  0
  6 22  1  0  0  0  0
  7 24  1  6  0  0  0
  8  7  1  0  0  0  0
  8 39  1  1  0  0  0
  9 13  1  6  0  0  0
  9  1  1  0  0  0  0
 10 11  1  0  0  0  0
 10 16  2  0  0  0  0
 11 35  1  6  0  0  0
 12 34  1  1  0  0  0
 12 31  1  0  0  0  0
 12  2  1  0  0  0  0
 15 25  2  0  0  0  0
 16  9  1  0  0  0  0
 17 29  1  6  0  0  0
 17 20  1  0  0  0  0
 17 21  1  0  0  0  0
 19  4  1  0  0  0  0
 20 19  1  1  0  0  0
 21  6  1  1  0  0  0
 21  4  1  0  0  0  0
 22 54  1  1  0  0  0
 22  3  1  0  0  0  0
 23 11  1  0  0  0  0
 24 15  2  0  0  0  0
 25 43  1  0  0  0  0
 25  5  1  0  0  0  0
 27 16  1  0  0  0  0
 27 20  1  0  0  0  0
 30 28  2  0  0  0  0
 30 26  1  0  0  0  0
 31 18  1  6  0  0  0
 31 24  1  0  0  0  0
 32 30  1  0  0  0  0
 34 33  1  0  0  0  0
 35 36  1  0  0  0  0
 36 37  1  0  0  0  0
 38 36  1  0  0  0  0
 39 41  1  0  0  0  0
 41 40  1  0  0  0  0
 41 42  2  0  0  0  0
 43 44  1  0  0  0  0
 44 45  1  0  0  0  0
 45 47  1  0  0  0  0
 46 45  2  0  0  0  0
 47 49  1  0  0  0  0
 47 51  1  1  0  0  0
 49 50  1  0  0  0  0
 49 48  1  0  0  0  0
 50 48  1  0  0  0  0
 51 52  1  0  0  0  0
 53 52  1  0  0  0  0
 55 59  1  6  0  0  0
 55 54  1  0  0  0  0
 55 58  1  0  0  0  0
 55 57  1  0  0  0  0
 58 56  1  6  0  0  0
 58 57  1  0  0  0  0
 60 59  2  0  0  0  0
M  END
>  <MODEL>
6

>  <REMARK>
 VINA RESULT:      -0.5      1.432      2.035
  Name = 
  15 active torsions:
  status: ('A' for Active; 'I' for Inactive)
    1  A    between atoms: C_2  and  C_18
    2  A    between atoms: C_2  and  C_29
    3  A    between atoms: C_4  and  C_7
    4  A    between atoms: C_4  and  C_25
    5  A    between atoms: C_4  and  C_43
    6  A    between atoms: O_6  and  C_11
    7  A    between atoms: O_6  and  C_15
    8  A    between atoms: C_7  and  C_27
    9  A    between atoms: C_10  and  O_36
   10  A    between atoms: C_10  and  C_50
   11  A    between atoms: C_19  and  O_42
   12  A    between atoms: C_27  and  C_34
   13  A    between atoms: C_34  and  C_49
   14  A    between atoms: O_36  and  C_46
   15  A    between atoms: C_43  and  C_44
                            x       y       z     vdW  Elec       q    Type
                         _______ _______ _______ _____ _____    ______ ____

>  <TORSDO>
F 15

$$$$
=
 OpenBabel11062414153D

 60 65  0  0  1  0  0  0  0  0999 V2000
  189.2550  174.9470  136.9660 C   0  0  2  0  0  3  0  0  0  0  0  0
  188.1810  172.4920  135.0020 C   0  0  2  0  0  3  0  0  0  0  0  0
  182.6310  177.3400  138.6450 O   0  0  0  0  0  0  0  0  0  0  0  0
  185.1660  179.4640  139.1050 O   0  0  0  0  0  0  0  0  0  0  0  0
  183.8300  175.8470  135.0870 C   0  0  0  0  0  2  0  0  0  0  0  0
  184.2760  177.6310  140.4230 C   0  0  0  0  0  2  0  0  0  0  0  0
  187.6140  173.9060  135.1530 C   0  0  2  0  0  3  0  0  0  0  0  0
  188.6940  174.9450  135.5260 C   0  0  1  0  0  3  0  0  0  0  0  0
  188.4790  175.8020  137.9780 C   0  0  1  0  0  3  0  0  0  0  0  0
  190.2690  177.4720  137.6310 C   0  0  0  0  0  3  0  0  0  0  0  0
  190.9230  176.5120  136.6820 C   0  0  2  0  0  3  0  0  0  0  0  0
  187.9270  171.7890  136.3250 C   0  0  1  0  0  3  0  0  0  0  0  0
  188.4550  175.1460  139.1960 F   0  0  0  0  0  0  0  0  0  0  0  0
  189.5430  172.4840  134.6870 O   0  0  0  0  0  1  0  0  0  0  0  0
  185.3340  174.1460  135.9260 C   0  0  0  0  0  0  0  0  0  0  0  0
  189.0940  177.1690  138.1790 C   0  0  0  0  0  0  0  0  0  0  0  0
  186.6670  178.3960  140.5760 C   0  0  1  0  0  3  0  0  0  0  0  0
  186.9000  172.6910  138.4000 C   0  0  0  0  0  1  0  0  0  0  0  0
  186.2960  179.0400  138.3740 C   0  0  0  0  0  2  0  0  0  0  0  0
  187.0450  178.0200  139.1910 C   0  0  1  0  0  3  0  0  0  0  0  0
  185.2300  178.8400  140.3680 C   0  0  1  0  0  3  0  0  0  0  0  0
  182.8440  177.8710  139.9320 C   0  0  1  0  0  3  0  0  0  0  0  0
  190.6530  175.1690  137.0300 O   0  0  0  0  0  0  0  0  0  0  0  0
  186.5490  173.7460  136.1880 C   0  0  0  0  0  0  0  0  0  0  0  0
  184.1040  174.5010  135.6730 C   0  0  0  0  0  0  0  0  0  0  0  0
  182.7700  176.5890  135.8850 C   0  0  0  0  0  2  0  0  0  0  0  0
  188.4420  178.1210  138.9640 O   0  0  0  0  0  0  0  0  0  0  0  0
  183.8120  178.7190  135.6250 O   0  0  0  0  0  0  0  0  0  0  0  0
  186.7710  177.3140  141.4280 F   0  0  0  0  0  0  0  0  0  0  0  0
  183.3020  177.8800  136.4160 C   0  0  0  0  0  0  0  0  0  0  0  0
  186.6990  172.4570  136.9180 C   0  0  1  0  0  3  0  0  0  0  0  0
  183.2120  178.1830  137.7740 O   0  0  0  0  0  0  0  0  0  0  0  0
  186.6350  170.4180  135.2880 O   0  0  0  0  0  1  0  0  0  0  0  0
  187.6710  170.4360  136.1040 O   0  0  0  0  0  0  0  0  0  0  0  0
  192.4230  176.7560  136.6420 C   0  0  0  0  0  2  0  0  0  0  0  0
  193.0350  176.1820  135.3740 C   0  0  0  0  0  3  0  0  0  0  0  0
  194.4910  176.6010  135.2540 C   0  0  0  0  0  1  0  0  0  0  0  0
  192.9530  174.6710  135.4230 C   0  0  0  0  0  1  0  0  0  0  0  0
  188.5330  176.2250  134.9110 O   0  0  0  0  0  0  0  0  0  0  0  0
  187.8650  178.6170  134.9990 C   0  0  0  0  0  1  0  0  0  0  0  0
  187.5920  177.1870  135.2880 C   0  0  0  0  0  0  0  0  0  0  0  0
  186.5250  176.8700  135.8700 O   0  0  0  0  0  0  0  0  0  0  0  0
  183.0390  173.4570  135.6810 C   0  0  0  0  0  2  0  0  0  0  0  0
  182.5840  173.1760  137.1050 C   0  0  0  0  0  2  0  0  0  0  0  0
  181.1430  173.5260  137.3390 C   0  0  0  0  0  0  0  0  0  0  0  0
  180.4460  172.7430  137.9680 O   0  0  0  0  0  0  0  0  0  0  0  0
  180.5420  174.7980  136.7980 C   0  0  1  0  0  3  0  0  0  0  0  0
  178.9310  175.6280  135.2660 O   0  0  0  0  0  0  0  0  0  0  0  0
  179.7800  174.5670  135.4990 C   0  0  0  0  0  3  0  0  0  0  0  0
  180.0920  175.5630  134.5960 O   0  0  0  0  0  0  0  0  0  0  0  0
  179.7140  175.5620  137.8420 C   0  0  0  0  0  2  0  0  0  0  0  0
  180.0930  175.2480  139.2840 C   0  0  0  0  0  2  0  0  0  0  0  0
  179.0260  174.3980  139.9430 C   0  0  0  0  0  1  0  0  0  0  0  0
  182.4410  179.2170  140.0260 O   0  0  0  0  0  0  0  0  0  0  0  0
  181.1430  179.2200  140.5640 C   0  0  1  0  0  0  0  0  0  0  0  0
  178.9310  178.4650  140.0180 F   0  0  0  0  0  0  0  0  0  0  0  0
  180.2750  180.4040  140.1940 C   0  0  0  0  0  2  0  0  0  0  0  0
  180.0670  179.0610  139.5020 C   0  0  1  0  0  3  0  0  0  0  0  0
  180.9030  178.5490  141.8850 C   0  0  0  0  0  3  0  0  0  0  0  0
  180.0660  178.9920  142.6470 O   0  0  0  0  0  0  0  0  0  0  0  0
  1 23  1  6  0  0  0
  1  9  1  0  0  0  0
  2 14  1  1  0  0  0
  2  7  1  0  0  0  0
  2 12  1  0  0  0  0
  3 22  1  0  0  0  0
  4 21  1  0  0  0  0
  5 25  1  0  0  0  0
  5 26  1  0  0  0  0
  7  8  1  0  0  0  0
  7 24  1  1  0  0  0
  8 39  1  1  0  0  0
  8  1  1  0  0  0  0
  9 16  1  0  0  0  0
  9 13  1  1  0  0  0
 10 16  2  0  0  0  0
 11 35  1  1  0  0  0
 11 23  1  0  0  0  0
 11 10  1  0  0  0  0
 12 34  1  6  0  0  0
 12 31  1  0  0  0  0
 15 24  2  0  0  0  0
 16 27  1  0  0  0  0
 17 29  1  1  0  0  0
 19  4  1  0  0  0  0
 20 19  1  6  0  0  0
 20 17  1  0  0  0  0
 21  6  1  6  0  0  0
 21 17  1  0  0  0  0
 22 54  1  6  0  0  0
 22  6  1  0  0  0  0
 24 31  1  0  0  0  0
 25 43  1  0  0  0  0
 25 15  2  0  0  0  0
 26 30  1  0  0  0  0
 27 20  1  0  0  0  0
 28 30  2  0  0  0  0
 30 32  1  0  0  0  0
 31 18  1  1  0  0  0
 32  3  1  0  0  0  0
 33 34  1  0  0  0  0
 36 38  1  0  0  0  0
 36 35  1  0  0  0  0
 37 36  1  0  0  0  0
 39 41  1  0  0  0  0
 40 41  1  0  0  0  0
 41 42  2  0  0  0  0
 43 44  1  0  0  0  0
 44 45  1  0  0  0  0
 45 46  2  0  0  0  0
 47 45  1  0  0  0  0
 47 51  1  1  0  0  0
 48 49  1  0  0  0  0
 49 47  1  0  0  0  0
 50 48  1  0  0  0  0
 50 49  1  0  0  0  0
 51 52  1  0  0  0  0
 52 53  1  0  0  0  0
 54 55  1  0  0  0  0
 55 59  1  1  0  0  0
 57 55  1  0  0  0  0
 58 56  1  1  0  0  0
 58 57  1  0  0  0  0
 58 55  1  0  0  0  0
 59 60  2  0  0  0  0
M  END
>  <MODEL>
7

>  <REMARK>
 VINA RESULT:       0.1      3.375      8.047
  Name = 
  15 active torsions:
  status: ('A' for Active; 'I' for Inactive)
    1  A    between atoms: C_2  and  C_18
    2  A    between atoms: C_2  and  C_29
    3  A    between atoms: C_4  and  C_7
    4  A    between atoms: C_4  and  C_25
    5  A    between atoms: C_4  and  C_43
    6  A    between atoms: O_6  and  C_11
    7  A    between atoms: O_6  and  C_15
    8  A    between atoms: C_7  and  C_27
    9  A    between atoms: C_10  and  O_36
   10  A    between atoms: C_10  and  C_50
   11  A    between atoms: C_19  and  O_42
   12  A    between atoms: C_27  and  C_34
   13  A    between atoms: C_34  and  C_49
   14  A    between atoms: O_36  and  C_46
   15  A    between atoms: C_43  and  C_44
                            x       y       z     vdW  Elec       q    Type
                         _______ _______ _______ _____ _____    ______ ____

>  <TORSDO>
F 15

$$$$
=
 OpenBabel11062414153D

 60 65  0  0  1  0  0  0  0  0999 V2000
  187.5610  175.0230  136.8290 C   0  0  2  0  0  3  0  0  0  0  0  0
  184.6010  173.9530  135.7680 C   0  0  2  0  0  3  0  0  0  0  0  0
  185.0580  177.6580  143.0910 O   0  0  0  0  0  0  0  0  0  0  0  0
  188.0040  178.8220  142.0330 O   0  0  0  0  0  0  0  0  0  0  0  0
  183.1610  177.6950  139.5240 C   0  0  0  0  0  2  0  0  0  0  0  0
  187.3420  176.8060  143.2100 C   0  0  0  0  0  2  0  0  0  0  0  0
  184.9280  175.2340  136.5400 C   0  0  2  0  0  3  0  0  0  0  0  0
  186.3450  175.7680  136.2360 C   0  0  1  0  0  3  0  0  0  0  0  0
  187.9950  175.4740  138.2320 C   0  0  1  0  0  3  0  0  0  0  0  0
  189.7620  176.7420  137.0570 C   0  0  0  0  0  3  0  0  0  0  0  0
  189.2350  176.1950  135.7620 C   0  0  2  0  0  3  0  0  0  0  0  0
  184.8790  172.8010  136.7190 C   0  0  1  0  0  3  0  0  0  0  0  0
  188.3900  174.3640  138.9580 F   0  0  0  0  0  0  0  0  0  0  0  0
  185.3480  173.8210  134.5940 O   0  0  0  0  0  1  0  0  0  0  0  0
  183.9200  175.5440  138.7180 C   0  0  0  0  0  0  0  0  0  0  0  0
  189.1390  176.4620  138.1990 C   0  0  0  0  0  0  0  0  0  0  0  0
  189.4070  176.9440  141.7830 C   0  0  1  0  0  3  0  0  0  0  0  0
  185.7750  172.8690  139.0350 C   0  0  0  0  0  1  0  0  0  0  0  0
  188.1670  178.5550  140.6560 C   0  0  0  0  0  2  0  0  0  0  0  0
  188.6990  177.1560  140.4950 C   0  0  1  0  0  3  0  0  0  0  0  0
  188.5010  177.7040  142.7340 C   0  0  1  0  0  3  0  0  0  0  0  0
  186.1840  177.5120  143.9260 C   0  0  1  0  0  3  0  0  0  0  0  0
  188.6550  174.9180  135.9340 O   0  0  0  0  0  0  0  0  0  0  0  0
  184.7260  174.8420  137.9670 C   0  0  0  0  0  0  0  0  0  0  0  0
  183.0890  176.2050  139.4750 C   0  0  0  0  0  0  0  0  0  0  0  0
  183.2260  178.1970  140.9580 C   0  0  0  0  0  2  0  0  0  0  0  0
  189.5690  177.0730  139.3780 O   0  0  0  0  0  0  0  0  0  0  0  0
  184.7360  179.9750  140.4560 O   0  0  0  0  0  0  0  0  0  0  0  0
  189.4900  175.5990  142.0860 F   0  0  0  0  0  0  0  0  0  0  0  0
  184.4700  178.9880  141.1960 C   0  0  0  0  0  0  0  0  0  0  0  0
  184.6770  173.3610  138.1160 C   0  0  1  0  0  3  0  0  0  0  0  0
  185.3280  178.6700  142.2480 O   0  0  0  0  0  0  0  0  0  0  0  0
  184.1680  171.4230  135.2280 O   0  0  0  0  0  1  0  0  0  0  0  0
  183.9750  171.7640  136.4880 O   0  0  0  0  0  0  0  0  0  0  0  0
  190.3480  176.1360  134.7280 C   0  0  0  0  0  2  0  0  0  0  0  0
  191.5330  175.3370  135.2480 C   0  0  0  0  0  3  0  0  0  0  0  0
  191.3970  173.8750  134.8560 C   0  0  0  0  0  1  0  0  0  0  0  0
  192.8080  175.8960  134.6550 C   0  0  0  0  0  1  0  0  0  0  0  0
  186.4480  177.1920  136.1730 O   0  0  0  0  0  0  0  0  0  0  0  0
  186.8520  178.7600  138.0580 C   0  0  0  0  0  1  0  0  0  0  0  0
  185.9280  178.0810  137.1170 C   0  0  0  0  0  0  0  0  0  0  0  0
  184.6950  178.3120  137.1930 O   0  0  0  0  0  0  0  0  0  0  0  0
  181.9010  175.4940  140.0300 C   0  0  0  0  0  2  0  0  0  0  0  0
  180.6190  176.0720  139.4520 C   0  0  0  0  0  2  0  0  0  0  0  0
  180.6320  176.1420  137.9520 C   0  0  0  0  0  0  0  0  0  0  0  0
  180.8250  175.1130  137.3210 O   0  0  0  0  0  0  0  0  0  0  0  0
  180.4410  177.4460  137.2210 C   0  0  1  0  0  3  0  0  0  0  0  0
  178.9400  178.7620  135.9360 O   0  0  0  0  0  0  0  0  0  0  0  0
  179.0730  177.5370  136.5550 C   0  0  0  0  0  3  0  0  0  0  0  0
  179.2310  177.6820  135.1920 O   0  0  0  0  0  0  0  0  0  0  0  0
  180.7590  178.6720  138.0880 C   0  0  0  0  0  2  0  0  0  0  0  0
  179.5280  179.3580  138.6680 C   0  0  0  0  0  2  0  0  0  0  0  0
  179.8520  179.9900  140.0070 C   0  0  0  0  0  1  0  0  0  0  0  0
  186.5600  178.7260  144.5300 O   0  0  0  0  0  0  0  0  0  0  0  0
  186.4310  178.5510  145.9180 C   0  0  1  0  0  0  0  0  0  0  0  0
  184.8250  177.7770  147.5270 F   0  0  0  0  0  0  0  0  0  0  0  0
  185.8680  179.7280  146.6860 C   0  0  0  0  0  2  0  0  0  0  0  0
  184.9810  178.5260  146.3750 C   0  0  1  0  0  3  0  0  0  0  0  0
  187.3840  177.6320  146.6270 C   0  0  0  0  0  3  0  0  0  0  0  0
  188.5810  177.7380  146.4400 O   0  0  0  0  0  0  0  0  0  0  0  0
  1 23  1  6  0  0  0
  1  9  1  0  0  0  0
  2 14  1  6  0  0  0
  2  7  1  0  0  0  0
  2 12  1  0  0  0  0
  3 22  1  0  0  0  0
  4 21  1  0  0  0  0
  5 26  1  0  0  0  0
  6 22  1  0  0  0  0
  7 24  1  1  0  0  0
  8 39  1  1  0  0  0
  8  7  1  0  0  0  0
  8  1  1  0  0  0  0
  9 13  1  1  0  0  0
 10 16  2  0  0  0  0
 11 35  1  6  0  0  0
 11 23  1  0  0  0  0
 11 10  1  0  0  0  0
 12 34  1  6  0  0  0
 12 31  1  0  0  0  0
 15 25  2  0  0  0  0
 16  9  1  0  0  0  0
 16 27  1  0  0  0  0
 17 29  1  1  0  0  0
 17 21  1  0  0  0  0
 19  4  1  0  0  0  0
 20 19  1  1  0  0  0
 20 17  1  0  0  0  0
 21  6  1  6  0  0  0
 22 54  1  6  0  0  0
 24 31  1  0  0  0  0
 24 15  2  0  0  0  0
 25  5  1  0  0  0  0
 25 43  1  0  0  0  0
 26 30  1  0  0  0  0
 27 20  1  0  0  0  0
 28 30  2  0  0  0  0
 30 32  1  0  0  0  0
 31 18  1  1  0  0  0
 32  3  1  0  0  0  0
 33 34  1  0  0  0  0
 35 36  1  0  0  0  0
 37 36  1  0  0  0  0
 38 36  1  0  0  0  0
 39 41  1  0  0  0  0
 41 42  2  0  0  0  0
 41 40  1  0  0  0  0
 44 43  1  0  0  0  0
 45 44  1  0  0  0  0
 46 45  2  0  0  0  0
 47 45  1  0  0  0  0
 47 51  1  1  0  0  0
 48 49  1  0  0  0  0
 49 47  1  0  0  0  0
 50 48  1  0  0  0  0
 50 49  1  0  0  0  0
 51 52  1  0  0  0  0
 52 53  1  0  0  0  0
 54 55  1  0  0  0  0
 55 58  1  0  0  0  0
 55 59  1  1  0  0  0
 55 57  1  0  0  0  0
 58 57  1  0  0  0  0
 58 56  1  1  0  0  0
 60 59  2  0  0  0  0
M  END
>  <MODEL>
8

>  <REMARK>
 VINA RESULT:       0.2      3.542      8.623
  Name = 
  15 active torsions:
  status: ('A' for Active; 'I' for Inactive)
    1  A    between atoms: C_2  and  C_18
    2  A    between atoms: C_2  and  C_29
    3  A    between atoms: C_4  and  C_7
    4  A    between atoms: C_4  and  C_25
    5  A    between atoms: C_4  and  C_43
    6  A    between atoms: O_6  and  C_11
    7  A    between atoms: O_6  and  C_15
    8  A    between atoms: C_7  and  C_27
    9  A    between atoms: C_10  and  O_36
   10  A    between atoms: C_10  and  C_50
   11  A    between atoms: C_19  and  O_42
   12  A    between atoms: C_27  and  C_34
   13  A    between atoms: C_34  and  C_49
   14  A    between atoms: O_36  and  C_46
   15  A    between atoms: C_43  and  C_44
                            x       y       z     vdW  Elec       q    Type
                         _______ _______ _______ _____ _____    ______ ____

>  <TORSDO>
F 15

$$$$
=
 OpenBabel11062414153D

 60 65  0  0  1  0  0  0  0  0999 V2000
  182.4080  176.2530  137.1370 C   0  0  2  0  0  3  0  0  0  0  0  0
  182.5950  179.0670  138.8920 C   0  0  2  0  0  3  0  0  0  0  0  0
  189.5380  174.9940  137.2220 O   0  0  0  0  0  0  0  0  0  0  0  0
  187.7580  173.4450  134.8590 O   0  0  0  0  0  0  0  0  0  0  0  0
  187.7230  178.5960  136.9750 C   0  0  0  0  0  2  0  0  0  0  0  0
  188.1690  172.9740  137.2030 C   0  0  0  0  0  2  0  0  0  0  0  0
  183.5540  178.5530  137.8150 C   0  0  2  0  0  3  0  0  0  0  0  0
  182.8460  177.6840  136.7520 C   0  0  1  0  0  3  0  0  0  0  0  0
  183.4630  175.1570  136.9270 C   0  0  1  0  0  3  0  0  0  0  0  0
  182.2110  174.6310  134.8610 C   0  0  0  0  0  3  0  0  0  0  0  0
  181.2450  175.7230  135.2180 C   0  0  2  0  0  3  0  0  0  0  0  0
  182.7250  178.1130  140.0660 C   0  0  1  0  0  3  0  0  0  0  0  0
  183.3790  174.2480  137.9660 F   0  0  0  0  0  0  0  0  0  0  0  0
  181.2710  179.1380  138.4510 O   0  0  0  0  0  1  0  0  0  0  0  0
  185.8530  178.1310  138.4390 C   0  0  0  0  0  0  0  0  0  0  0  0
  183.2830  174.4170  135.6200 C   0  0  0  0  0  0  0  0  0  0  0  0
  186.1160  172.1840  135.9850 C   0  0  1  0  0  3  0  0  0  0  0  0
  184.1040  176.0560  140.2640 C   0  0  0  0  0  1  0  0  0  0  0  0
  186.5070  174.0780  134.6970 C   0  0  0  0  0  2  0  0  0  0  0  0
  185.5530  173.5330  135.7260 C   0  0  1  0  0  3  0  0  0  0  0  0
  187.6020  172.4670  135.8630 C   0  0  1  0  0  3  0  0  0  0  0  0
  189.5730  173.5870  137.1600 C   0  0  1  0  0  3  0  0  0  0  0  0
  181.1410  175.8890  136.6170 O   0  0  0  0  0  0  0  0  0  0  0  0
  184.5950  177.8200  138.5960 C   0  0  0  0  0  0  0  0  0  0  0  0
  187.1130  178.4520  138.3300 C   0  0  0  0  0  0  0  0  0  0  0  0
  189.0030  177.7840  136.8580 C   0  0  0  0  0  2  0  0  0  0  0  0
  184.2320  173.4800  135.2110 O   0  0  0  0  0  0  0  0  0  0  0  0
  188.6040  177.1480  134.5940 O   0  0  0  0  0  0  0  0  0  0  0  0
  185.7610  171.7330  137.2420 F   0  0  0  0  0  0  0  0  0  0  0  0
  188.9020  176.7750  135.7610 C   0  0  0  0  0  0  0  0  0  0  0  0
  184.1300  177.5440  139.9840 C   0  0  1  0  0  3  0  0  0  0  0  0
  189.1670  175.4280  136.0050 O   0  0  0  0  0  0  0  0  0  0  0  0
  181.3050  179.2000  141.2620 O   0  0  0  0  0  1  0  0  0  0  0  0
  182.5650  178.8090  141.2650 O   0  0  0  0  0  0  0  0  0  0  0  0
  179.8810  175.4320  134.6160 C   0  0  0  0  0  2  0  0  0  0  0  0
  179.1730  174.3250  135.3820 C   0  0  0  0  0  3  0  0  0  0  0  0
  179.9580  173.0280  135.2810 C   0  0  0  0  0  1  0  0  0  0  0  0
  179.0540  174.7230  136.8370 C   0  0  0  0  0  1  0  0  0  0  0  0
  183.3280  177.8580  135.4180 O   0  0  0  0  0  0  0  0  0  0  0  0
  185.4310  178.9010  134.6020 C   0  0  0  0  0  1  0  0  0  0  0  0
  184.6570  177.7040  135.0140 C   0  0  0  0  0  0  0  0  0  0  0  0
  185.2080  176.5760  134.9840 O   0  0  0  0  0  0  0  0  0  0  0  0
  187.8310  178.9660  139.5330 C   0  0  0  0  0  2  0  0  0  0  0  0
  188.2330  177.8140  140.4420 C   0  0  0  0  0  2  0  0  0  0  0  0
  188.6940  178.2700  141.7960 C   0  0  0  0  0  0  0  0  0  0  0  0
  189.1580  179.3960  141.9060 O   0  0  0  0  0  0  0  0  0  0  0  0
  188.6190  177.3680  143.0000 C   0  0  1  0  0  3  0  0  0  0  0  0
  189.3730  177.1000  145.2340 O   0  0  0  0  0  0  0  0  0  0  0  0
  189.1340  178.0480  144.2620 C   0  0  0  0  0  3  0  0  0  0  0  0
  190.4090  177.6010  144.5420 O   0  0  0  0  0  0  0  0  0  0  0  0
  187.2330  176.7360  143.1920 C   0  0  0  0  0  2  0  0  0  0  0  0
  186.2420  177.6280  143.9300 C   0  0  0  0  0  2  0  0  0  0  0  0
  185.6510  178.6600  142.9910 C   0  0  0  0  0  1  0  0  0  0  0  0
  190.3520  173.1210  136.0840 O   0  0  0  0  0  0  0  0  0  0  0  0
  191.6950  173.3680  136.4120 C   0  0  1  0  0  0  0  0  0  0  0  0
  193.0180  174.1460  138.2580 F   0  0  0  0  0  0  0  0  0  0  0  0
  192.2020  174.7660  136.1250 C   0  0  0  0  0  2  0  0  0  0  0  0
  191.8480  174.3610  137.5530 C   0  0  1  0  0  3  0  0  0  0  0  0
  192.6770  172.2330  136.3590 C   0  0  0  0  0  3  0  0  0  0  0  0
  193.0870  171.8340  135.2870 O   0  0  0  0  0  0  0  0  0  0  0  0
  1 23  1  6  0  0  0
  2 14  1  6  0  0  0
  2 12  1  0  0  0  0
  4 21  1  0  0  0  0
  5 25  1  0  0  0  0
  7 24  1  1  0  0  0
  7  2  1  0  0  0  0
  8 39  1  6  0  0  0
  8  1  1  0  0  0  0
  8  7  1  0  0  0  0
  9  1  1  0  0  0  0
  9 13  1  1  0  0  0
 10 11  1  0  0  0  0
 10 16  2  0  0  0  0
 11 35  1  1  0  0  0
 11 23  1  0  0  0  0
 12 34  1  1  0  0  0
 15 24  2  0  0  0  0
 16  9  1  0  0  0  0
 17 29  1  1  0  0  0
 19  4  1  0  0  0  0
 20 19  1  6  0  0  0
 20 17  1  0  0  0  0
 21 17  1  0  0  0  0
 21  6  1  1  0  0  0
 22 54  1  6  0  0  0
 22  6  1  0  0  0  0
 22  3  1  0  0  0  0
 24 31  1  0  0  0  0
 25 15  2  0  0  0  0
 25 43  1  0  0  0  0
 26  5  1  0  0  0  0
 27 16  1  0  0  0  0
 27 20  1  0  0  0  0
 28 30  2  0  0  0  0
 30 32  1  0  0  0  0
 30 26  1  0  0  0  0
 31 12  1  0  0  0  0
 31 18  1  6  0  0  0
 32  3  1  0  0  0  0
 33 34  1  0  0  0  0
 35 36  1  0  0  0  0
 36 38  1  0  0  0  0
 37 36  1  0  0  0  0
 40 41  1  0  0  0  0
 41 39  1  0  0  0  0
 42 41  2  0  0  0  0
 43 44  1  0  0  0  0
 44 45  1  0  0  0  0
 45 46  2  0  0  0  0
 45 47  1  0  0  0  0
 47 51  1  1  0  0  0
 47 49  1  0  0  0  0
 49 50  1  0  0  0  0
 49 48  1  0  0  0  0
 50 48  1  0  0  0  0
 51 52  1  0  0  0  0
 53 52  1  0  0  0  0
 54 55  1  0  0  0  0
 55 59  1  6  0  0  0
 55 58  1  0  0  0  0
 57 55  1  0  0  0  0
 57 58  1  0  0  0  0
 58 56  1  1  0  0  0
 60 59  2  0  0  0  0
M  END
>  <MODEL>
9

>  <REMARK>
 VINA RESULT:       0.5      3.372      8.192
  Name = 
  15 active torsions:
  status: ('A' for Active; 'I' for Inactive)
    1  A    between atoms: C_2  and  C_18
    2  A    between atoms: C_2  and  C_29
    3  A    between atoms: C_4  and  C_7
    4  A    between atoms: C_4  and  C_25
    5  A    between atoms: C_4  and  C_43
    6  A    between atoms: O_6  and  C_11
    7  A    between atoms: O_6  and  C_15
    8  A    between atoms: C_7  and  C_27
    9  A    between atoms: C_10  and  O_36
   10  A    between atoms: C_10  and  C_50
   11  A    between atoms: C_19  and  O_42
   12  A    between atoms: C_27  and  C_34
   13  A    between atoms: C_34  and  C_49
   14  A    between atoms: O_36  and  C_46
   15  A    between atoms: C_43  and  C_44
                            x       y       z     vdW  Elec       q    Type
                         _______ _______ _______ _____ _____    ______ ____

>  <TORSDO>
F 15

$$$$
