=
 OpenBabel11062412283D

 37 39  0  0  1  0  0  0  0  0999 V2000
  182.3310  178.8950  142.8990 C   0  0  2  0  0  3  0  0  0  0  0  0
  180.3750  179.7360  142.0480 C   0  0  0  0  0  2  0  0  0  0  0  0
  184.4300  178.4140  140.0030 C   0  0  0  0  0  2  0  0  0  0  0  0
  181.8490  180.2680  140.2420 F   0  0  0  0  0  0  0  0  0  0  0  0
  183.5990  179.0030  142.0310 C   0  0  0  0  0  2  0  0  0  0  0  0
  182.6020  178.0030  138.2280 C   0  0  2  0  0  3  0  0  0  0  0  0
  181.5340  180.0560  142.7990 O   0  0  0  0  0  0  0  0  0  0  0  0
  180.9000  179.2730  137.1450 O   0  0  0  0  0  0  0  0  0  0  0  0
  181.2320  178.6680  138.1540 C   0  0  0  0  0  0  0  0  0  0  0  0
  180.9170  177.9480  140.5070 C   0  0  1  0  0  3  0  0  0  0  0  0
  183.5860  177.9990  141.0470 O   0  0  0  0  0  0  0  0  0  0  0  0
  183.6580  178.9610  138.7880 C   0  0  0  0  0  2  0  0  0  0  0  0
  180.3100  178.6730  139.3590 C   0  0  1  0  0  0  0  0  0  0  0  0
  180.7460  179.5060  140.5800 C   0  0  1  0  0  0  0  0  0  0  0  0
  182.9950  177.5380  136.9730 O   0  0  0  0  0  1  0  0  0  0  0  0
  178.9340  178.5410  139.1560 O   0  0  0  0  0  1  0  0  0  0  0  0
  179.0580  174.9960  141.5820 O   0  0  0  0  0  0  0  0  0  0  0  0
  179.8400  175.7360  140.9250 C   0  0  0  0  0  0  0  0  0  0  0  0
  179.1900  177.6160  142.2680 O   0  0  0  0  0  1  0  0  0  0  0  0
  179.9320  177.1280  141.2410 N   0  0  0  0  0  0  0  0  0  0  0  0
  180.6170  175.2060  139.8900 O   0  0  0  0  0  0  0  0  0  0  0  0
  178.9310  175.7600  137.7520 O   0  0  0  0  0  1  0  0  0  0  0  0
  179.1190  173.3500  138.7480 O   0  0  0  0  0  1  0  0  0  0  0  0
  179.9340  174.5860  138.4400 P   0  0  0  0  0  0  0  0  0  0  0  0
  181.1660  174.1930  137.3510 O   0  0  0  0  0  0  0  0  0  0  0  0
  182.6780  178.6170  144.3500 C   0  0  0  0  0  2  0  0  0  0  0  0
  184.0700  179.1510  144.6470 C   0  0  0  0  0  2  0  0  0  0  0  0
  184.7610  178.2910  145.6930 C   0  0  2  0  0  3  0  0  0  0  0  0
  184.8750  179.0080  146.8850 O   0  0  0  0  0  1  0  0  0  0  0  0
  187.6130  177.0950  143.4750 C   0  0  0  0  0  3  0  0  0  0  0  0
  188.4540  177.4370  145.7200 C   0  0  0  0  0  3  0  0  0  0  0  0
  186.3410  177.4920  143.8910 C   0  0  0  0  0  3  0  0  0  0  0  0
  186.1200  177.8640  145.2260 C   0  0  0  0  0  0  0  0  0  0  0  0
  188.6790  177.0680  144.3890 C   0  0  0  0  0  0  0  0  0  0  0  0
  187.1800  177.8320  146.1370 C   0  0  0  0  0  3  0  0  0  0  0  0
  189.9650  176.6760  144.0040 O   0  0  0  0  0  0  0  0  0  0  0  0
  190.2070  175.8230  142.8940 C   0  0  0  0  0  1  0  0  0  0  0  0
  1 26  1  1  0  0  0
  2  7  1  0  0  0  0
  3 11  1  0  0  0  0
  5  1  1  0  0  0  0
  6 15  1  6  0  0  0
  6 12  1  0  0  0  0
  7  1  1  0  0  0  0
  8  9  2  0  0  0  0
  9  6  1  0  0  0  0
  9 13  1  0  0  0  0
 10 14  1  0  0  0  0
 10 20  1  1  0  0  0
 11  5  1  0  0  0  0
 12  3  1  0  0  0  0
 13 16  1  6  0  0  0
 13 10  1  0  0  0  0
 13 14  1  0  0  0  0
 14  4  1  6  0  0  0
 14  2  1  0  0  0  0
 18 20  1  0  0  0  0
 18 17  2  0  0  0  0
 20 19  1  0  0  0  0
 21 18  1  0  0  0  0
 22 24  1  0  0  0  0
 24 23  1  0  0  0  0
 24 21  1  0  0  0  0
 25 24  2  0  0  0  0
 26 27  1  0  0  0  0
 27 28  1  0  0  0  0
 28 29  1  1  0  0  0
 30 32  2  0  0  0  0
 30 34  1  0  0  0  0
 31 35  1  0  0  0  0
 32 33  1  0  0  0  0
 33 28  1  0  0  0  0
 33 35  2  0  0  0  0
 34 31  2  0  0  0  0
 36 34  1  0  0  0  0
 37 36  1  0  0  0  0
M  END
>  <MODEL>
1

>  <REMARK>
 VINA RESULT:      -7.7      0.000      0.000
  Name = 
  8 active torsions:
  status: ('A' for Active; 'I' for Inactive)
    1  A    between atoms: C_1  and  C_21
    2  A    between atoms: O_2  and  C_33
    3  A    between atoms: C_11  and  C_20
    4  A    between atoms: C_11  and  C_26
    5  A    between atoms: O_12  and  C_17
    6  A    between atoms: O_12  and  P_27
    7  A    between atoms: C_20  and  C_21
    8  A    between atoms: C_22  and  N_37
                            x       y       z     vdW  Elec       q    Type
                         _______ _______ _______ _____ _____    ______ ____

>  <TORSDO>
F 8

$$$$
=
 OpenBabel11062412283D

 37 39  0  0  1  0  0  0  0  0999 V2000
  183.5460  179.0060  140.5880 C   0  0  2  0  0  3  0  0  0  0  0  0
  183.0390  180.3820  138.8260 C   0  0  0  0  0  2  0  0  0  0  0  0
  182.1710  175.8050  139.6440 C   0  0  0  0  0  2  0  0  0  0  0  0
  182.8530  178.2640  137.7340 F   0  0  0  0  0  0  0  0  0  0  0  0
  183.5290  177.4840  140.3410 C   0  0  0  0  0  2  0  0  0  0  0  0
  180.2340  176.6120  138.1410 C   0  0  2  0  0  3  0  0  0  0  0  0
  184.0920  179.7020  139.4880 O   0  0  0  0  0  0  0  0  0  0  0  0
  179.9910  177.6690  136.0190 O   0  0  0  0  0  0  0  0  0  0  0  0
  180.2410  177.8160  137.2060 C   0  0  0  0  0  0  0  0  0  0  0  0
  180.9840  179.1470  139.1640 C   0  0  1  0  0  3  0  0  0  0  0  0
  182.2020  177.0190  140.3490 O   0  0  0  0  0  0  0  0  0  0  0  0
  181.6160  175.9540  138.2150 C   0  0  0  0  0  2  0  0  0  0  0  0
  180.6530  179.1850  137.7140 C   0  0  1  0  0  0  0  0  0  0  0  0
  182.1280  179.3770  138.1160 C   0  0  1  0  0  0  0  0  0  0  0  0
  179.2800  175.6770  137.7380 O   0  0  0  0  0  1  0  0  0  0  0  0
  179.9900  180.3140  137.2250 O   0  0  0  0  0  1  0  0  0  0  0  0
  179.6370  181.1650  141.8920 O   0  0  0  0  0  0  0  0  0  0  0  0
  180.0040  180.1610  141.2230 C   0  0  0  0  0  0  0  0  0  0  0  0
  180.5630  181.5910  139.3790 O   0  0  0  0  0  1  0  0  0  0  0  0
  180.4860  180.3340  139.8880 N   0  0  0  0  0  0  0  0  0  0  0  0
  179.9430  178.8780  141.7780 O   0  0  0  0  0  0  0  0  0  0  0  0
  181.6010  178.9450  144.0080 O   0  0  0  0  0  1  0  0  0  0  0  0
  179.7200  177.1440  143.7630 O   0  0  0  0  0  0  0  0  0  0  0  0
  180.0360  178.5940  143.4710 P   0  0  0  0  0  0  0  0  0  0  0  0
  178.9310  179.5870  144.2770 O   0  0  0  0  0  1  0  0  0  0  0  0
  184.3030  179.3490  141.8570 C   0  0  0  0  0  2  0  0  0  0  0  0
  184.8610  178.0760  142.4730 C   0  0  0  0  0  2  0  0  0  0  0  0
  185.0380  178.2400  143.9740 C   0  0  2  0  0  3  0  0  0  0  0  0
  184.7760  179.5640  144.3330 O   0  0  0  0  0  1  0  0  0  0  0  0
  188.0940  177.5220  146.1240 C   0  0  0  0  0  3  0  0  0  0  0  0
  188.6620  177.1440  143.8010 C   0  0  0  0  0  3  0  0  0  0  0  0
  186.7970  177.8750  145.7500 C   0  0  0  0  0  3  0  0  0  0  0  0
  186.4250  177.8630  144.3970 C   0  0  0  0  0  0  0  0  0  0  0  0
  189.0360  177.1520  145.1490 C   0  0  0  0  0  0  0  0  0  0  0  0
  187.3630  177.4990  143.4250 C   0  0  0  0  0  3  0  0  0  0  0  0
  190.3430  176.7930  145.4910 O   0  0  0  0  0  0  0  0  0  0  0  0
  190.8080  176.7810  146.8340 C   0  0  0  0  0  1  0  0  0  0  0  0
  1 26  1  1  0  0  0
  2  7  1  0  0  0  0
  3 11  1  0  0  0  0
  5 11  1  0  0  0  0
  5  1  1  0  0  0  0
  6 15  1  6  0  0  0
  6 12  1  0  0  0  0
  7  1  1  0  0  0  0
  8  9  2  0  0  0  0
  9 13  1  0  0  0  0
  9  6  1  0  0  0  0
 10 20  1  1  0  0  0
 12  3  1  0  0  0  0
 13 16  1  6  0  0  0
 13 14  1  0  0  0  0
 13 10  1  0  0  0  0
 14  4  1  6  0  0  0
 14  2  1  0  0  0  0
 14 10  1  0  0  0  0
 18 21  1  0  0  0  0
 18 17  2  0  0  0  0
 19 20  1  0  0  0  0
 20 18  1  0  0  0  0
 21 24  1  0  0  0  0
 24 23  2  0  0  0  0
 24 22  1  0  0  0  0
 24 25  1  0  0  0  0
 26 27  1  0  0  0  0
 27 28  1  0  0  0  0
 28 29  1  6  0  0  0
 28 33  1  0  0  0  0
 31 34  1  0  0  0  0
 32 30  1  0  0  0  0
 33 32  2  0  0  0  0
 34 36  1  0  0  0  0
 34 30  2  0  0  0  0
 35 31  2  0  0  0  0
 35 33  1  0  0  0  0
 36 37  1  0  0  0  0
M  END
>  <MODEL>
2

>  <REMARK>
 VINA RESULT:      -7.4      2.177      3.840
  Name = 
  8 active torsions:
  status: ('A' for Active; 'I' for Inactive)
    1  A    between atoms: C_1  and  C_21
    2  A    between atoms: O_2  and  C_33
    3  A    between atoms: C_11  and  C_20
    4  A    between atoms: C_11  and  C_26
    5  A    between atoms: O_12  and  C_17
    6  A    between atoms: O_12  and  P_27
    7  A    between atoms: C_20  and  C_21
    8  A    between atoms: C_22  and  N_37
                            x       y       z     vdW  Elec       q    Type
                         _______ _______ _______ _____ _____    ______ ____

>  <TORSDO>
F 8

$$$$
=
 OpenBabel11062412283D

 37 39  0  0  1  0  0  0  0  0999 V2000
  187.3980  178.1880  139.2670 C   0  0  2  0  0  3  0  0  0  0  0  0
  187.2580  178.2560  136.9800 C   0  0  0  0  0  2  0  0  0  0  0  0
  190.6320  176.7260  139.9200 C   0  0  0  0  0  2  0  0  0  0  0  0
  189.6310  178.0960  137.2220 F   0  0  0  0  0  0  0  0  0  0  0  0
  188.7980  178.0610  139.9000 C   0  0  0  0  0  2  0  0  0  0  0  0
  190.8770  175.2890  137.7900 C   0  0  2  0  0  3  0  0  0  0  0  0
  187.4120  179.0470  138.1460 O   0  0  0  0  0  0  0  0  0  0  0  0
  191.1930  175.6610  135.4580 O   0  0  0  0  0  0  0  0  0  0  0  0
  190.3990  175.6440  136.3860 C   0  0  0  0  0  0  0  0  0  0  0  0
  188.1750  176.0550  137.4060 C   0  0  1  0  0  3  0  0  0  0  0  0
  189.2310  176.7260  139.8250 O   0  0  0  0  0  0  0  0  0  0  0  0
  191.3270  176.5360  138.5590 C   0  0  0  0  0  2  0  0  0  0  0  0
  188.9640  176.0750  136.1460 C   0  0  1  0  0  0  0  0  0  0  0  0
  188.5240  177.4290  136.7340 C   0  0  1  0  0  0  0  0  0  0  0  0
  191.9140  174.3580  137.7390 O   0  0  0  0  0  1  0  0  0  0  0  0
  188.3280  175.6710  134.9690 O   0  0  0  0  0  1  0  0  0  0  0  0
  185.4550  173.6450  137.0580 O   0  0  0  0  0  0  0  0  0  0  0  0
  186.6200  174.1200  137.1570 C   0  0  0  0  0  0  0  0  0  0  0  0
  185.7130  176.3420  137.1740 O   0  0  0  0  0  1  0  0  0  0  0  0
  186.8070  175.5370  137.2070 N   0  0  0  0  0  0  0  0  0  0  0  0
  187.7290  173.2700  137.2190 O   0  0  0  0  0  0  0  0  0  0  0  0
  187.1870  172.5360  134.5940 O   0  0  0  0  0  0  0  0  0  0  0  0
  187.9150  170.7690  136.3800 O   0  0  0  0  0  1  0  0  0  0  0  0
  188.1490  172.1980  135.9430 P   0  0  0  0  0  0  0  0  0  0  0  0
  189.7770  172.4040  135.5370 O   0  0  0  0  0  1  0  0  0  0  0  0
  186.3760  178.6640  140.2830 C   0  0  0  0  0  2  0  0  0  0  0  0
  186.7910  178.2050  141.6710 C   0  0  0  0  0  2  0  0  0  0  0  0
  185.6010  178.2180  142.6180 C   0  0  2  0  0  3  0  0  0  0  0  0
  184.8420  179.3690  142.3970 O   0  0  0  0  0  1  0  0  0  0  0  0
  187.6870  177.5730  145.7340 C   0  0  0  0  0  3  0  0  0  0  0  0
  185.6220  178.6580  146.3820 C   0  0  0  0  0  3  0  0  0  0  0  0
  187.2870  177.6090  144.3970 C   0  0  0  0  0  3  0  0  0  0  0  0
  186.0500  178.1710  144.0460 C   0  0  0  0  0  0  0  0  0  0  0  0
  186.8550  178.1000  146.7360 C   0  0  0  0  0  0  0  0  0  0  0  0
  185.2200  178.6920  145.0440 C   0  0  0  0  0  3  0  0  0  0  0  0
  187.2270  178.0800  148.0830 O   0  0  0  0  0  0  0  0  0  0  0  0
  188.5740  177.9140  148.5050 C   0  0  0  0  0  1  0  0  0  0  0  0
  1  5  1  0  0  0  0
  1 26  1  1  0  0  0
  2  7  1  0  0  0  0
  6 15  1  6  0  0  0
  6 12  1  0  0  0  0
  7  1  1  0  0  0  0
  8  9  2  0  0  0  0
  9  6  1  0  0  0  0
 10 20  1  6  0  0  0
 11  5  1  0  0  0  0
 11  3  1  0  0  0  0
 12  3  1  0  0  0  0
 13 16  1  6  0  0  0
 13  9  1  0  0  0  0
 13 14  1  0  0  0  0
 13 10  1  0  0  0  0
 14  2  1  0  0  0  0
 14  4  1  1  0  0  0
 14 10  1  0  0  0  0
 17 18  2  0  0  0  0
 18 20  1  0  0  0  0
 18 21  1  0  0  0  0
 19 20  1  0  0  0  0
 22 24  2  0  0  0  0
 24 23  1  0  0  0  0
 24 21  1  0  0  0  0
 25 24  1  0  0  0  0
 26 27  1  0  0  0  0
 27 28  1  0  0  0  0
 28 29  1  1  0  0  0
 28 33  1  0  0  0  0
 30 34  1  0  0  0  0
 31 34  2  0  0  0  0
 32 30  2  0  0  0  0
 33 32  1  0  0  0  0
 33 35  2  0  0  0  0
 34 36  1  0  0  0  0
 35 31  1  0  0  0  0
 36 37  1  0  0  0  0
M  END
>  <MODEL>
3

>  <REMARK>
 VINA RESULT:      -7.4      5.123      7.340
  Name = 
  8 active torsions:
  status: ('A' for Active; 'I' for Inactive)
    1  A    between atoms: C_1  and  C_21
    2  A    between atoms: O_2  and  C_33
    3  A    between atoms: C_11  and  C_20
    4  A    between atoms: C_11  and  C_26
    5  A    between atoms: O_12  and  C_17
    6  A    between atoms: O_12  and  P_27
    7  A    between atoms: C_20  and  C_21
    8  A    between atoms: C_22  and  N_37
                            x       y       z     vdW  Elec       q    Type
                         _______ _______ _______ _____ _____    ______ ____

>  <TORSDO>
F 8

$$$$
=
 OpenBabel11062412283D

 37 39  0  0  1  0  0  0  0  0999 V2000
  188.3210  178.1120  139.3260 C   0  0  2  0  0  3  0  0  0  0  0  0
  187.7870  178.3910  137.1140 C   0  0  0  0  0  2  0  0  0  0  0  0
  191.5140  176.4290  139.2660 C   0  0  0  0  0  2  0  0  0  0  0  0
  190.1490  178.0860  136.9100 F   0  0  0  0  0  0  0  0  0  0  0  0
  189.7990  177.8560  139.6830 C   0  0  0  0  0  2  0  0  0  0  0  0
  191.2820  175.1780  137.0210 C   0  0  2  0  0  3  0  0  0  0  0  0
  188.1970  179.0660  138.2920 O   0  0  0  0  0  0  0  0  0  0  0  0
  191.2070  175.7390  134.7060 O   0  0  0  0  0  0  0  0  0  0  0  0
  190.5900  175.6810  135.7590 C   0  0  0  0  0  0  0  0  0  0  0  0
  188.6130  176.1160  137.1930 C   0  0  1  0  0  3  0  0  0  0  0  0
  190.1210  176.5110  139.4260 O   0  0  0  0  0  0  0  0  0  0  0  0
  191.9440  176.3250  137.7910 C   0  0  0  0  0  2  0  0  0  0  0  0
  189.1680  176.2070  135.8160 C   0  0  1  0  0  0  0  0  0  0  0  0
  188.9300  177.5240  136.5790 C   0  0  1  0  0  0  0  0  0  0  0  0
  192.2290  174.2010  136.7100 O   0  0  0  0  0  1  0  0  0  0  0  0
  188.3090  175.9440  134.7470 O   0  0  0  0  0  1  0  0  0  0  0  0
  185.7180  173.8930  137.2680 O   0  0  0  0  0  0  0  0  0  0  0  0
  186.9130  174.2890  137.1880 C   0  0  0  0  0  0  0  0  0  0  0  0
  186.1690  176.5660  137.3350 O   0  0  0  0  0  1  0  0  0  0  0  0
  187.1990  175.6900  137.2050 N   0  0  0  0  0  0  0  0  0  0  0  0
  187.9610  173.3680  137.0850 O   0  0  0  0  0  0  0  0  0  0  0  0
  189.7820  172.4380  135.2020 O   0  0  0  0  0  1  0  0  0  0  0  0
  187.2660  172.8130  134.5940 O   0  0  0  0  0  0  0  0  0  0  0  0
  188.1720  172.3530  135.7140 P   0  0  0  0  0  0  0  0  0  0  0  0
  187.7980  170.7560  136.1230 O   0  0  0  0  0  1  0  0  0  0  0  0
  187.5290  178.5480  140.5440 C   0  0  0  0  0  2  0  0  0  0  0  0
  188.0670  177.8420  141.7770 C   0  0  0  0  0  2  0  0  0  0  0  0
  186.9260  177.3460  142.6510 C   0  0  2  0  0  3  0  0  0  0  0  0
  185.7670  178.0690  142.3600 O   0  0  0  0  0  1  0  0  0  0  0  0
  188.8630  177.4220  145.9250 C   0  0  0  0  0  3  0  0  0  0  0  0
  186.5450  177.9560  146.3730 C   0  0  0  0  0  3  0  0  0  0  0  0
  188.5710  177.2870  144.5670 C   0  0  0  0  0  3  0  0  0  0  0  0
  187.2610  177.4880  144.1050 C   0  0  0  0  0  0  0  0  0  0  0  0
  187.8500  177.7600  146.8370 C   0  0  0  0  0  0  0  0  0  0  0  0
  186.2510  177.8200  145.0130 C   0  0  0  0  0  3  0  0  0  0  0  0
  188.1100  177.9030  148.2030 O   0  0  0  0  0  0  0  0  0  0  0  0
  189.3940  178.2460  148.7070 C   0  0  0  0  0  1  0  0  0  0  0  0
  1  5  1  0  0  0  0
  1 26  1  1  0  0  0
  2  7  1  0  0  0  0
  3 11  1  0  0  0  0
  6 15  1  6  0  0  0
  6 12  1  0  0  0  0
  7  1  1  0  0  0  0
  8  9  2  0  0  0  0
  9 13  1  0  0  0  0
  9  6  1  0  0  0  0
 10 20  1  6  0  0  0
 11  5  1  0  0  0  0
 12  3  1  0  0  0  0
 13 16  1  6  0  0  0
 13 14  1  0  0  0  0
 13 10  1  0  0  0  0
 14  4  1  1  0  0  0
 14  2  1  0  0  0  0
 14 10  1  0  0  0  0
 18 20  1  0  0  0  0
 18 17  2  0  0  0  0
 20 19  1  0  0  0  0
 21 18  1  0  0  0  0
 22 24  1  0  0  0  0
 23 24  2  0  0  0  0
 24 25  1  0  0  0  0
 24 21  1  0  0  0  0
 26 27  1  0  0  0  0
 27 28  1  0  0  0  0
 28 29  1  1  0  0  0
 28 33  1  0  0  0  0
 30 34  1  0  0  0  0
 31 34  2  0  0  0  0
 32 30  2  0  0  0  0
 33 32  1  0  0  0  0
 33 35  2  0  0  0  0
 34 36  1  0  0  0  0
 35 31  1  0  0  0  0
 36 37  1  0  0  0  0
M  END
>  <MODEL>
4

>  <REMARK>
 VINA RESULT:      -7.3      5.414      7.668
  Name = 
  8 active torsions:
  status: ('A' for Active; 'I' for Inactive)
    1  A    between atoms: C_1  and  C_21
    2  A    between atoms: O_2  and  C_33
    3  A    between atoms: C_11  and  C_20
    4  A    between atoms: C_11  and  C_26
    5  A    between atoms: O_12  and  C_17
    6  A    between atoms: O_12  and  P_27
    7  A    between atoms: C_20  and  C_21
    8  A    between atoms: C_22  and  N_37
                            x       y       z     vdW  Elec       q    Type
                         _______ _______ _______ _____ _____    ______ ____

>  <TORSDO>
F 8

$$$$
=
 OpenBabel11062412283D

 37 39  0  0  1  0  0  0  0  0999 V2000
  188.3140  177.9330  139.5890 C   0  0  2  0  0  3  0  0  0  0  0  0
  187.8150  178.6720  137.4770 C   0  0  0  0  0  2  0  0  0  0  0  0
  191.4340  176.1620  139.2010 C   0  0  0  0  0  2  0  0  0  0  0  0
  190.1640  178.3130  137.2210 F   0  0  0  0  0  0  0  0  0  0  0  0
  189.7760  177.5480  139.8900 C   0  0  0  0  0  2  0  0  0  0  0  0
  191.1750  175.3950  136.7500 C   0  0  2  0  0  3  0  0  0  0  0  0
  188.2400  179.0790  138.7660 O   0  0  0  0  0  0  0  0  0  0  0  0
  191.1480  176.4110  134.5940 O   0  0  0  0  0  0  0  0  0  0  0  0
  190.5180  176.1700  135.6130 C   0  0  0  0  0  0  0  0  0  0  0  0
  188.5450  176.3940  137.1010 C   0  0  1  0  0  3  0  0  0  0  0  0
  190.0440  176.2700  139.3710 O   0  0  0  0  0  0  0  0  0  0  0  0
  191.8750  176.3360  137.7350 C   0  0  0  0  0  2  0  0  0  0  0  0
  189.1180  176.7330  135.7710 C   0  0  1  0  0  0  0  0  0  0  0  0
  188.9270  177.8810  136.7810 C   0  0  1  0  0  0  0  0  0  0  0  0
  192.0830  174.4610  136.2520 O   0  0  0  0  0  1  0  0  0  0  0  0
  188.2600  176.7270  134.6690 O   0  0  0  0  0  1  0  0  0  0  0  0
  185.5520  174.4340  136.3740 O   0  0  0  0  0  0  0  0  0  0  0  0
  186.7580  174.8010  136.3940 C   0  0  0  0  0  0  0  0  0  0  0  0
  186.1390  176.7730  137.6150 O   0  0  0  0  0  1  0  0  0  0  0  0
  187.1150  176.0350  137.0240 N   0  0  0  0  0  0  0  0  0  0  0  0
  187.7500  174.0110  135.8040 O   0  0  0  0  0  0  0  0  0  0  0  0
  187.6930  171.8840  137.5920 O   0  0  0  0  0  1  0  0  0  0  0  0
  189.0740  171.7620  135.3740 O   0  0  0  0  0  1  0  0  0  0  0  0
  187.7850  172.2990  135.9550 P   0  0  0  0  0  0  0  0  0  0  0  0
  186.4710  171.6280  135.1310 O   0  0  0  0  0  0  0  0  0  0  0  0
  187.5270  178.1510  140.8680 C   0  0  0  0  0  2  0  0  0  0  0  0
  188.4790  178.1570  142.0520 C   0  0  0  0  0  2  0  0  0  0  0  0
  187.9600  177.2570  143.1620 C   0  0  2  0  0  3  0  0  0  0  0  0
  186.7450  177.7550  143.6360 O   0  0  0  0  0  1  0  0  0  0  0  0
  189.4940  177.3450  146.6430 C   0  0  0  0  0  3  0  0  0  0  0  0
  191.2050  176.7240  145.0470 C   0  0  0  0  0  3  0  0  0  0  0  0
  188.5600  177.4330  145.6090 C   0  0  0  0  0  3  0  0  0  0  0  0
  188.9460  177.1660  144.2870 C   0  0  0  0  0  0  0  0  0  0  0  0
  190.8240  176.9870  146.3670 C   0  0  0  0  0  0  0  0  0  0  0  0
  190.2710  176.8140  144.0100 C   0  0  0  0  0  3  0  0  0  0  0  0
  191.7820  176.8890  147.3800 O   0  0  0  0  0  0  0  0  0  0  0  0
  192.4370  175.6690  147.7010 C   0  0  0  0  0  1  0  0  0  0  0  0
  1  5  1  0  0  0  0
  1 26  1  1  0  0  0
  2  7  1  0  0  0  0
  3 11  1  0  0  0  0
  6 15  1  6  0  0  0
  6 12  1  0  0  0  0
  7  1  1  0  0  0  0
  8  9  2  0  0  0  0
  9 13  1  0  0  0  0
  9  6  1  0  0  0  0
 10 20  1  6  0  0  0
 11  5  1  0  0  0  0
 12  3  1  0  0  0  0
 13 16  1  6  0  0  0
 13 14  1  0  0  0  0
 13 10  1  0  0  0  0
 14 10  1  0  0  0  0
 14  4  1  1  0  0  0
 14  2  1  0  0  0  0
 17 18  2  0  0  0  0
 18 20  1  0  0  0  0
 20 19  1  0  0  0  0
 21 24  1  0  0  0  0
 21 18  1  0  0  0  0
 23 24  1  0  0  0  0
 24 22  1  0  0  0  0
 25 24  2  0  0  0  0
 26 27  1  0  0  0  0
 27 28  1  0  0  0  0
 28 29  1  1  0  0  0
 28 33  1  0  0  0  0
 31 34  2  0  0  0  0
 32 30  2  0  0  0  0
 33 32  1  0  0  0  0
 34 30  1  0  0  0  0
 34 36  1  0  0  0  0
 35 33  2  0  0  0  0
 35 31  1  0  0  0  0
 36 37  1  0  0  0  0
M  END
>  <MODEL>
5

>  <REMARK>
 VINA RESULT:      -6.9      5.660      7.561
  Name = 
  8 active torsions:
  status: ('A' for Active; 'I' for Inactive)
    1  A    between atoms: C_1  and  C_21
    2  A    between atoms: O_2  and  C_33
    3  A    between atoms: C_11  and  C_20
    4  A    between atoms: C_11  and  C_26
    5  A    between atoms: O_12  and  C_17
    6  A    between atoms: O_12  and  P_27
    7  A    between atoms: C_20  and  C_21
    8  A    between atoms: C_22  and  N_37
                            x       y       z     vdW  Elec       q    Type
                         _______ _______ _______ _____ _____    ______ ____

>  <TORSDO>
F 8

$$$$
=
 OpenBabel11062412283D

 37 39  0  0  1  0  0  0  0  0999 V2000
  188.6290  176.6260  136.7400 C   0  0  2  0  0  3  0  0  0  0  0  0
  187.2680  177.8190  135.3330 C   0  0  0  0  0  2  0  0  0  0  0  0
  186.8930  173.4970  137.2180 C   0  0  0  0  0  2  0  0  0  0  0  0
  186.4680  175.6140  134.8730 F   0  0  0  0  0  0  0  0  0  0  0  0
  188.4460  175.0960  136.7920 C   0  0  0  0  0  2  0  0  0  0  0  0
  184.4670  174.3130  136.8870 C   0  0  2  0  0  3  0  0  0  0  0  0
  188.4960  177.1180  135.4230 O   0  0  0  0  0  0  0  0  0  0  0  0
  183.1230  175.1180  135.0920 O   0  0  0  0  0  0  0  0  0  0  0  0
  183.9850  175.3840  135.9150 C   0  0  0  0  0  0  0  0  0  0  0  0
  185.7080  176.8610  136.9190 C   0  0  1  0  0  3  0  0  0  0  0  0
  187.3310  174.7800  137.5880 O   0  0  0  0  0  0  0  0  0  0  0  0
  185.6490  173.5260  136.3110 C   0  0  0  0  0  2  0  0  0  0  0  0
  184.6380  176.7540  135.8920 C   0  0  1  0  0  0  0  0  0  0  0  0
  186.0950  176.8360  135.3990 C   0  0  1  0  0  0  0  0  0  0  0  0
  183.4280  173.4420  137.2180 O   0  0  0  0  0  1  0  0  0  0  0  0
  183.8390  177.8770  135.6610 O   0  0  0  0  0  1  0  0  0  0  0  0
  184.8580  179.4600  139.3370 O   0  0  0  0  0  0  0  0  0  0  0  0
  184.8270  178.3740  138.6970 C   0  0  0  0  0  0  0  0  0  0  0  0
  186.5940  179.1600  137.2760 O   0  0  0  0  0  1  0  0  0  0  0  0
  185.7140  178.1750  137.5930 N   0  0  0  0  0  0  0  0  0  0  0  0
  183.9310  177.3620  139.0600 O   0  0  0  0  0  0  0  0  0  0  0  0
  181.6460  177.7990  140.5790 O   0  0  0  0  0  1  0  0  0  0  0  0
  181.5810  176.3380  138.4100 O   0  0  0  0  0  1  0  0  0  0  0  0
  182.2260  177.5690  139.0070 P   0  0  0  0  0  0  0  0  0  0  0  0
  181.8440  178.9200  138.0650 O   0  0  0  0  0  0  0  0  0  0  0  0
  189.9640  177.0410  137.3270 C   0  0  0  0  0  2  0  0  0  0  0  0
  189.7320  177.9700  138.5060 C   0  0  0  0  0  2  0  0  0  0  0  0
  190.2500  177.3450  139.7920 C   0  0  2  0  0  3  0  0  0  0  0  0
  190.5610  176.0030  139.5650 O   0  0  0  0  0  1  0  0  0  0  0  0
  188.4400  176.8640  143.1040 C   0  0  0  0  0  3  0  0  0  0  0  0
  187.1520  178.3750  141.7190 C   0  0  0  0  0  3  0  0  0  0  0  0
  189.3970  176.7520  142.0940 C   0  0  0  0  0  3  0  0  0  0  0  0
  189.2360  177.4530  140.8900 C   0  0  0  0  0  0  0  0  0  0  0  0
  187.3110  177.6800  142.9220 C   0  0  0  0  0  0  0  0  0  0  0  0
  188.1090  178.2620  140.7050 C   0  0  0  0  0  3  0  0  0  0  0  0
  186.3350  177.8140  143.9140 O   0  0  0  0  0  0  0  0  0  0  0  0
  185.0360  178.3240  143.6490 C   0  0  0  0  0  1  0  0  0  0  0  0
  1  5  1  0  0  0  0
  1 26  1  6  0  0  0
  2 14  1  0  0  0  0
  2  7  1  0  0  0  0
  3 11  1  0  0  0  0
  5 11  1  0  0  0  0
  6 15  1  6  0  0  0
  7  1  1  0  0  0  0
  8  9  2  0  0  0  0
  9  6  1  0  0  0  0
 10 20  1  6  0  0  0
 12  6  1  0  0  0  0
 12  3  1  0  0  0  0
 13 16  1  6  0  0  0
 13  9  1  0  0  0  0
 13 10  1  0  0  0  0
 14  4  1  6  0  0  0
 14 13  1  0  0  0  0
 14 10  1  0  0  0  0
 18 21  1  0  0  0  0
 18 17  2  0  0  0  0
 19 20  1  0  0  0  0
 20 18  1  0  0  0  0
 23 24  1  0  0  0  0
 24 21  1  0  0  0  0
 24 22  1  0  0  0  0
 25 24  2  0  0  0  0
 26 27  1  0  0  0  0
 27 28  1  0  0  0  0
 28 29  1  6  0  0  0
 28 33  1  0  0  0  0
 31 34  2  0  0  0  0
 32 30  2  0  0  0  0
 33 32  1  0  0  0  0
 34 30  1  0  0  0  0
 34 36  1  0  0  0  0
 35 33  2  0  0  0  0
 35 31  1  0  0  0  0
 37 36  1  0  0  0  0
M  END
>  <MODEL>
6

>  <REMARK>
 VINA RESULT:      -6.7      4.106      6.564
  Name = 
  8 active torsions:
  status: ('A' for Active; 'I' for Inactive)
    1  A    between atoms: C_1  and  C_21
    2  A    between atoms: O_2  and  C_33
    3  A    between atoms: C_11  and  C_20
    4  A    between atoms: C_11  and  C_26
    5  A    between atoms: O_12  and  C_17
    6  A    between atoms: O_12  and  P_27
    7  A    between atoms: C_20  and  C_21
    8  A    between atoms: C_22  and  N_37
                            x       y       z     vdW  Elec       q    Type
                         _______ _______ _______ _____ _____    ______ ____

>  <TORSDO>
F 8

$$$$
=
 OpenBabel11062412283D

 37 39  0  0  1  0  0  0  0  0999 V2000
  183.8390  178.9140  139.8550 C   0  0  2  0  0  3  0  0  0  0  0  0
  182.2330  180.4010  139.1730 C   0  0  0  0  0  2  0  0  0  0  0  0
  183.5770  176.1820  137.5110 C   0  0  0  0  0  2  0  0  0  0  0  0
  182.5010  179.1600  137.1480 F   0  0  0  0  0  0  0  0  0  0  0  0
  184.3260  177.8640  138.8360 C   0  0  0  0  0  2  0  0  0  0  0  0
  181.0760  176.3920  136.9070 C   0  0  2  0  0  3  0  0  0  0  0  0
  183.6300  180.1700  139.2430 O   0  0  0  0  0  0  0  0  0  0  0  0
  179.6860  177.9240  135.7230 O   0  0  0  0  0  0  0  0  0  0  0  0
  180.2730  177.6800  136.7660 C   0  0  0  0  0  0  0  0  0  0  0  0
  181.0970  178.2670  139.0320 C   0  0  1  0  0  3  0  0  0  0  0  0
  183.3870  176.8210  138.7470 O   0  0  0  0  0  0  0  0  0  0  0  0
  182.5280  176.5870  136.4580 C   0  0  0  0  0  2  0  0  0  0  0  0
  180.2740  178.7140  137.8770 C   0  0  1  0  0  0  0  0  0  0  0  0
  181.5940  179.4620  138.1460 C   0  0  1  0  0  0  0  0  0  0  0  0
  180.4850  175.3590  136.1780 O   0  0  0  0  0  1  0  0  0  0  0  0
  179.0960  179.4160  138.1460 O   0  0  0  0  0  1  0  0  0  0  0  0
  178.9330  177.9790  141.9580 O   0  0  0  0  0  0  0  0  0  0  0  0
  179.4340  177.7590  140.8210 C   0  0  0  0  0  0  0  0  0  0  0  0
  180.9270  179.6140  141.1180 O   0  0  0  0  0  1  0  0  0  0  0  0
  180.4780  178.6040  140.3300 N   0  0  0  0  0  0  0  0  0  0  0  0
  178.9750  176.6940  140.0390 O   0  0  0  0  0  0  0  0  0  0  0  0
  178.9350  174.4970  141.7400 O   0  0  0  0  0  1  0  0  0  0  0  0
  181.0280  175.0420  140.2690 O   0  0  0  0  0  1  0  0  0  0  0  0
  179.5160  175.0780  140.2620 P   0  0  0  0  0  0  0  0  0  0  0  0
  178.9340  174.1040  139.0090 O   0  0  0  0  0  0  0  0  0  0  0  0
  184.8090  179.0480  141.0140 C   0  0  0  0  0  2  0  0  0  0  0  0
  184.6180  177.8820  141.9700 C   0  0  0  0  0  2  0  0  0  0  0  0
  184.1340  178.3740  143.3250 C   0  0  2  0  0  3  0  0  0  0  0  0
  183.7110  179.7000  143.2150 O   0  0  0  0  0  1  0  0  0  0  0  0
  187.5040  177.7470  144.9770 C   0  0  0  0  0  3  0  0  0  0  0  0
  185.9380  178.5150  146.6560 C   0  0  0  0  0  3  0  0  0  0  0  0
  186.5070  177.8390  144.0040 C   0  0  0  0  0  3  0  0  0  0  0  0
  185.2190  178.2700  144.3530 C   0  0  0  0  0  0  0  0  0  0  0  0
  187.2240  178.0870  146.3110 C   0  0  0  0  0  0  0  0  0  0  0  0
  184.9380  178.6050  145.6820 C   0  0  0  0  0  3  0  0  0  0  0  0
  188.2000  178.0070  147.3080 O   0  0  0  0  0  0  0  0  0  0  0  0
  189.5630  177.7170  147.0270 C   0  0  0  0  0  1  0  0  0  0  0  0
  1 26  1  1  0  0  0
  2  7  1  0  0  0  0
  3 11  1  0  0  0  0
  5  1  1  0  0  0  0
  6 15  1  6  0  0  0
  7  1  1  0  0  0  0
  8  9  2  0  0  0  0
  9  6  1  0  0  0  0
  9 13  1  0  0  0  0
 10 20  1  1  0  0  0
 11  5  1  0  0  0  0
 12  6  1  0  0  0  0
 12  3  1  0  0  0  0
 13 16  1  1  0  0  0
 13 14  1  0  0  0  0
 13 10  1  0  0  0  0
 14  4  1  6  0  0  0
 14 10  1  0  0  0  0
 14  2  1  0  0  0  0
 18 17  2  0  0  0  0
 20 18  1  0  0  0  0
 20 19  1  0  0  0  0
 21 24  1  0  0  0  0
 21 18  1  0  0  0  0
 24 23  1  0  0  0  0
 24 22  1  0  0  0  0
 25 24  2  0  0  0  0
 26 27  1  0  0  0  0
 27 28  1  0  0  0  0
 28 29  1  6  0  0  0
 28 33  1  0  0  0  0
 30 34  1  0  0  0  0
 32 33  1  0  0  0  0
 32 30  2  0  0  0  0
 33 35  2  0  0  0  0
 34 31  2  0  0  0  0
 34 36  1  0  0  0  0
 35 31  1  0  0  0  0
 37 36  1  0  0  0  0
M  END
>  <MODEL>
7

>  <REMARK>
 VINA RESULT:      -6.7      1.898      2.903
  Name = 
  8 active torsions:
  status: ('A' for Active; 'I' for Inactive)
    1  A    between atoms: C_1  and  C_21
    2  A    between atoms: O_2  and  C_33
    3  A    between atoms: C_11  and  C_20
    4  A    between atoms: C_11  and  C_26
    5  A    between atoms: O_12  and  C_17
    6  A    between atoms: O_12  and  P_27
    7  A    between atoms: C_20  and  C_21
    8  A    between atoms: C_22  and  N_37
                            x       y       z     vdW  Elec       q    Type
                         _______ _______ _______ _____ _____    ______ ____

>  <TORSDO>
F 8

$$$$
=
 OpenBabel11062412283D

 37 39  0  0  1  0  0  0  0  0999 V2000
  185.4190  178.9320  140.4920 C   0  0  2  0  0  3  0  0  0  0  0  0
  184.0470  179.4350  138.7250 C   0  0  0  0  0  2  0  0  0  0  0  0
  188.2300  177.2420  138.9850 C   0  0  0  0  0  2  0  0  0  0  0  0
  186.1060  179.1360  137.5480 F   0  0  0  0  0  0  0  0  0  0  0  0
  186.9000  178.6310  140.1900 C   0  0  0  0  0  2  0  0  0  0  0  0
  187.0490  176.2240  136.9280 C   0  0  2  0  0  3  0  0  0  0  0  0
  184.9300  179.9850  139.6880 O   0  0  0  0  0  0  0  0  0  0  0  0
  186.0680  177.0150  134.9050 O   0  0  0  0  0  0  0  0  0  0  0  0
  185.9290  176.8560  136.1080 C   0  0  0  0  0  0  0  0  0  0  0  0
  184.7260  177.1580  138.2580 C   0  0  1  0  0  3  0  0  0  0  0  0
  187.0270  177.3170  139.7060 O   0  0  0  0  0  0  0  0  0  0  0  0
  188.0190  177.2830  137.4590 C   0  0  0  0  0  2  0  0  0  0  0  0
  184.6790  177.3820  136.7880 C   0  0  1  0  0  0  0  0  0  0  0  0
  184.8330  178.6190  137.6950 C   0  0  1  0  0  0  0  0  0  0  0  0
  187.7410  175.2770  136.1720 O   0  0  0  0  0  1  0  0  0  0  0  0
  183.4480  177.2340  136.1440 O   0  0  0  0  0  1  0  0  0  0  0  0
  181.9780  174.9650  139.2410 O   0  0  0  0  0  0  0  0  0  0  0  0
  183.0560  175.3630  138.7190 C   0  0  0  0  0  0  0  0  0  0  0  0
  182.6030  177.5930  139.4820 O   0  0  0  0  0  1  0  0  0  0  0  0
  183.4200  176.7430  138.8080 N   0  0  0  0  0  0  0  0  0  0  0  0
  183.8960  174.4640  138.0540 O   0  0  0  0  0  0  0  0  0  0  0  0
  181.9560  174.2350  136.0770 O   0  0  0  0  0  1  0  0  0  0  0  0
  183.1640  172.1290  137.0500 O   0  0  0  0  0  1  0  0  0  0  0  0
  183.3950  173.5740  136.6710 P   0  0  0  0  0  0  0  0  0  0  0  0
  184.5870  173.6600  135.4750 O   0  0  0  0  0  0  0  0  0  0  0  0
  185.2100  179.2490  141.9600 C   0  0  0  0  0  2  0  0  0  0  0  0
  185.2040  177.9570  142.7610 C   0  0  0  0  0  2  0  0  0  0  0  0
  185.1730  178.2510  144.2520 C   0  0  2  0  0  3  0  0  0  0  0  0
  184.9310  179.6120  144.4540 O   0  0  0  0  0  1  0  0  0  0  0  0
  187.8180  177.5210  146.8890 C   0  0  0  0  0  3  0  0  0  0  0  0
  188.7600  177.1090  144.6970 C   0  0  0  0  0  3  0  0  0  0  0  0
  186.6060  177.8860  146.3000 C   0  0  0  0  0  3  0  0  0  0  0  0
  186.4650  177.8620  144.9040 C   0  0  0  0  0  0  0  0  0  0  0  0
  188.9030  177.1280  146.0880 C   0  0  0  0  0  0  0  0  0  0  0  0
  187.5470  177.4750  144.1060 C   0  0  0  0  0  3  0  0  0  0  0  0
  190.1300  176.7570  146.6470 O   0  0  0  0  0  0  0  0  0  0  0  0
  191.3550  176.8380  145.9320 C   0  0  0  0  0  1  0  0  0  0  0  0
  1 26  1  1  0  0  0
  2  7  1  0  0  0  0
  3 11  1  0  0  0  0
  5  1  1  0  0  0  0
  6 15  1  6  0  0  0
  6 12  1  0  0  0  0
  7  1  1  0  0  0  0
  8  9  2  0  0  0  0
  9 13  1  0  0  0  0
  9  6  1  0  0  0  0
 10 20  1  1  0  0  0
 11  5  1  0  0  0  0
 12  3  1  0  0  0  0
 13 16  1  6  0  0  0
 13 14  1  0  0  0  0
 13 10  1  0  0  0  0
 14  4  1  1  0  0  0
 14 10  1  0  0  0  0
 14  2  1  0  0  0  0
 18 20  1  0  0  0  0
 18 17  2  0  0  0  0
 20 19  1  0  0  0  0
 21 18  1  0  0  0  0
 22 24  1  0  0  0  0
 24 23  1  0  0  0  0
 24 21  1  0  0  0  0
 25 24  2  0  0  0  0
 26 27  1  0  0  0  0
 27 28  1  0  0  0  0
 28 29  1  6  0  0  0
 28 33  1  0  0  0  0
 31 34  1  0  0  0  0
 32 30  1  0  0  0  0
 33 32  2  0  0  0  0
 34 36  1  0  0  0  0
 34 30  2  0  0  0  0
 35 31  2  0  0  0  0
 35 33  1  0  0  0  0
 37 36  1  0  0  0  0
M  END
>  <MODEL>
8

>  <REMARK>
 VINA RESULT:      -6.4      2.897      4.032
  Name = 
  8 active torsions:
  status: ('A' for Active; 'I' for Inactive)
    1  A    between atoms: C_1  and  C_21
    2  A    between atoms: O_2  and  C_33
    3  A    between atoms: C_11  and  C_20
    4  A    between atoms: C_11  and  C_26
    5  A    between atoms: O_12  and  C_17
    6  A    between atoms: O_12  and  P_27
    7  A    between atoms: C_20  and  C_21
    8  A    between atoms: C_22  and  N_37
                            x       y       z     vdW  Elec       q    Type
                         _______ _______ _______ _____ _____    ______ ____

>  <TORSDO>
F 8

$$$$
=
 OpenBabel11062412283D

 37 39  0  0  1  0  0  0  0  0999 V2000
  190.0160  176.9270  139.2750 C   0  0  2  0  0  3  0  0  0  0  0  0
  189.4500  178.9700  138.4010 C   0  0  0  0  0  2  0  0  0  0  0  0
  188.7170  174.5470  136.8920 C   0  0  0  0  0  2  0  0  0  0  0  0
  189.3080  177.6430  136.4180 F   0  0  0  0  0  0  0  0  0  0  0  0
  190.0370  175.7170  138.3210 C   0  0  0  0  0  2  0  0  0  0  0  0
  186.7410  175.9240  135.9650 C   0  0  2  0  0  3  0  0  0  0  0  0
  190.5290  178.0860  138.6520 O   0  0  0  0  0  0  0  0  0  0  0  0
  186.4440  177.8700  134.6220 O   0  0  0  0  0  0  0  0  0  0  0  0
  186.7030  177.4310  135.7320 C   0  0  0  0  0  0  0  0  0  0  0  0
  187.4330  177.6660  138.0920 C   0  0  1  0  0  3  0  0  0  0  0  0
  188.7230  175.2670  138.0980 O   0  0  0  0  0  0  0  0  0  0  0  0
  188.1410  175.3550  135.7140 C   0  0  0  0  0  2  0  0  0  0  0  0
  187.0840  178.3920  136.8420 C   0  0  1  0  0  0  0  0  0  0  0  0
  188.5580  178.4090  137.2900 C   0  0  1  0  0  0  0  0  0  0  0  0
  185.8080  175.2750  135.1560 O   0  0  0  0  0  1  0  0  0  0  0  0
  186.3850  179.5970  136.9600 O   0  0  0  0  0  1  0  0  0  0  0  0
  185.0410  178.7760  140.6160 O   0  0  0  0  0  0  0  0  0  0  0  0
  185.5070  178.2720  139.5570 C   0  0  0  0  0  0  0  0  0  0  0  0
  187.7200  178.9200  140.2230 O   0  0  0  0  0  1  0  0  0  0  0  0
  186.9120  178.3370  139.2990 N   0  0  0  0  0  0  0  0  0  0  0  0
  184.6590  177.6510  138.6340 O   0  0  0  0  0  0  0  0  0  0  0  0
  182.2830  177.0820  137.3090 O   0  0  0  0  0  0  0  0  0  0  0  0
  182.6230  179.3390  138.5850 O   0  0  0  0  0  1  0  0  0  0  0  0
  182.9540  177.8650  138.6490 P   0  0  0  0  0  0  0  0  0  0  0  0
  182.3090  177.2030  140.0650 O   0  0  0  0  0  1  0  0  0  0  0  0
  190.7780  176.6340  140.5530 C   0  0  0  0  0  2  0  0  0  0  0  0
  190.0910  177.3210  141.7210 C   0  0  0  0  0  2  0  0  0  0  0  0
  190.4440  176.6330  143.0310 C   0  0  2  0  0  3  0  0  0  0  0  0
  190.4490  175.2490  142.8430 O   0  0  0  0  0  1  0  0  0  0  0  0
  187.1980  177.3980  144.8640 C   0  0  0  0  0  3  0  0  0  0  0  0
  189.0460  177.6230  146.4120 C   0  0  0  0  0  3  0  0  0  0  0  0
  188.0910  177.0570  143.8470 C   0  0  0  0  0  3  0  0  0  0  0  0
  189.4680  176.9960  144.1090 C   0  0  0  0  0  0  0  0  0  0  0  0
  187.6720  177.6820  146.1560 C   0  0  0  0  0  0  0  0  0  0  0  0
  189.9410  177.2830  145.3930 C   0  0  0  0  0  3  0  0  0  0  0  0
  186.8040  178.0270  147.1960 O   0  0  0  0  0  0  0  0  0  0  0  0
  185.5220  178.5970  146.9680 C   0  0  0  0  0  1  0  0  0  0  0  0
  1 26  1  1  0  0  0
  2  7  1  0  0  0  0
  3 11  1  0  0  0  0
  5  1  1  0  0  0  0
  6 15  1  6  0  0  0
  7  1  1  0  0  0  0
  8  9  2  0  0  0  0
  9  6  1  0  0  0  0
  9 13  1  0  0  0  0
 10 20  1  1  0  0  0
 11  5  1  0  0  0  0
 12  6  1  0  0  0  0
 12  3  1  0  0  0  0
 13 16  1  1  0  0  0
 13 14  1  0  0  0  0
 13 10  1  0  0  0  0
 14  4  1  6  0  0  0
 14 10  1  0  0  0  0
 14  2  1  0  0  0  0
 18 17  2  0  0  0  0
 20 18  1  0  0  0  0
 20 19  1  0  0  0  0
 21 24  1  0  0  0  0
 21 18  1  0  0  0  0
 22 24  2  0  0  0  0
 23 24  1  0  0  0  0
 24 25  1  0  0  0  0
 26 27  1  0  0  0  0
 27 28  1  0  0  0  0
 28 29  1  6  0  0  0
 28 33  1  0  0  0  0
 30 34  1  0  0  0  0
 32 33  1  0  0  0  0
 32 30  2  0  0  0  0
 33 35  2  0  0  0  0
 34 31  2  0  0  0  0
 34 36  1  0  0  0  0
 35 31  1  0  0  0  0
 37 36  1  0  0  0  0
M  END
>  <MODEL>
9

>  <REMARK>
 VINA RESULT:      -6.4      3.962      6.542
  Name = 
  8 active torsions:
  status: ('A' for Active; 'I' for Inactive)
    1  A    between atoms: C_1  and  C_21
    2  A    between atoms: O_2  and  C_33
    3  A    between atoms: C_11  and  C_20
    4  A    between atoms: C_11  and  C_26
    5  A    between atoms: O_12  and  C_17
    6  A    between atoms: O_12  and  P_27
    7  A    between atoms: C_20  and  C_21
    8  A    between atoms: C_22  and  N_37
                            x       y       z     vdW  Elec       q    Type
                         _______ _______ _______ _____ _____    ______ ____

>  <TORSDO>
F 8

$$$$
