=
 OpenBabel11062413443D

 35 41  0  0  1  0  0  0  0  0999 V2000
  183.2140  178.8910  141.0210 C   0  0  2  0  0  3  0  0  0  0  0  0
  184.6440  178.6480  138.9830 C   0  0  0  0  0  2  0  0  0  0  0  0
  181.1960  175.4460  139.6490 C   0  0  2  0  0  3  0  0  0  0  0  0
  182.1870  177.9780  140.3250 C   0  0  2  0  0  0  0  0  0  0  0  0
  178.9720  175.8030  137.0230 C   0  0  0  0  0  2  0  0  0  0  0  0
  182.7920  176.8950  139.3440 C   0  0  1  0  0  3  0  0  0  0  0  0
  181.9080  176.0650  138.6300 O   0  0  0  0  0  0  0  0  0  0  0  0
  179.7250  176.8630  140.8020 C   0  0  0  0  0  2  0  0  0  0  0  0
  178.9390  177.8370  138.1940 O   0  0  0  0  0  0  0  0  0  0  0  0
  184.6380  178.6320  140.5130 C   0  0  0  0  0  2  0  0  0  0  0  0
  179.2680  176.6550  138.2280 C   0  0  0  0  0  0  0  0  0  0  0  0
  180.1370  174.0380  138.0840 O   0  0  0  0  0  0  0  0  0  0  0  0
  181.0760  178.8020  139.6950 C   0  0  0  0  0  2  0  0  0  0  0  0
  180.7700  178.0210  140.9680 C   0  0  2  0  0  3  0  0  0  0  0  0
  178.9320  174.3450  137.4410 C   0  0  0  0  0  2  0  0  0  0  0  0
  180.0340  174.5210  139.4040 C   0  0  2  0  0  3  0  0  0  0  0  0
  183.8420  177.4800  138.3880 C   0  0  0  0  0  2  0  0  0  0  0  0
  179.8070  176.0410  139.5260 C   0  0  1  0  0  0  0  0  0  0  0  0
  187.7170  177.2530  143.3490 C   0  0  0  0  0  3  0  0  0  0  0  0
  185.1710  178.4400  145.5580 C   0  0  0  0  0  0  0  0  0  0  0  0
  184.9080  178.6050  146.9490 N   0  0  0  0  0  1  0  0  0  0  0  0
  186.3430  178.0380  145.1650 N   0  0  0  0  0  0  0  0  0  0  0  0
  186.6190  177.8700  143.7680 C   0  0  0  0  0  0  0  0  0  0  0  0
  185.6730  178.4290  142.7510 C   0  0  0  0  0  2  0  0  0  0  0  0
  184.1020  178.6150  144.6120 N   0  0  0  0  0  0  0  0  0  0  0  0
  183.1500  178.7050  142.4660 N   0  0  0  0  0  2  0  0  0  0  0  0
  184.2860  178.5680  143.3260 C   0  0  0  0  0  0  0  0  0  0  0  0
  188.6610  176.6860  144.2560 N   0  0  0  0  0  2  0  0  0  0  0  0
  190.0690  176.6710  143.8860 C   0  0  1  0  0  3  0  0  0  0  0  0
  191.7270  178.1740  143.4320 O   0  0  0  0  0  0  0  0  0  0  0  0
  190.4070  177.8820  143.0940 C   0  0  0  0  0  2  0  0  0  0  0  0
  191.8190  177.9800  144.7500 O   0  0  0  0  0  0  0  0  0  0  0  0
  191.0250  176.8520  145.0460 C   0  0  1  0  0  3  0  0  0  0  0  0
  190.3630  177.0540  146.3770 C   0  0  0  0  0  3  0  0  0  0  0  0
  190.9240  176.6430  147.4520 N   0  0  0  0  0  2  0  0  0  0  0  0
  1 26  1  1  0  0  0
  2 10  1  0  0  0  0
  3  7  1  6  0  0  0
  4 13  1  6  0  0  0
  4 14  1  0  0  0  0
  4  1  1  0  0  0  0
  5 15  1  0  0  0  0
  5 11  1  0  0  0  0
  6 17  1  6  0  0  0
  6  4  1  0  0  0  0
  7  6  1  0  0  0  0
  8 14  1  0  0  0  0
  9 11  2  0  0  0  0
 10  1  1  0  0  0  0
 11 18  1  0  0  0  0
 14 13  1  6  0  0  0
 15 12  1  0  0  0  0
 16 12  1  6  0  0  0
 16 18  1  0  0  0  0
 16  3  1  0  0  0  0
 17  2  1  0  0  0  0
 18  3  1  0  0  0  0
 18  8  1  1  0  0  0
 19 23  2  0  0  0  0
 19 28  1  0  0  0  0
 20 21  1  0  0  0  0
 22 20  2  0  0  0  0
 23 22  1  0  0  0  0
 24 27  1  0  0  0  0
 24 23  1  0  0  0  0
 25 20  1  0  0  0  0
 26 27  1  0  0  0  0
 27 25  2  0  0  0  0
 29 28  1  1  0  0  0
 29 33  1  0  0  0  0
 30 32  1  0  0  0  0
 31 30  1  0  0  0  0
 31 29  1  0  0  0  0
 32 33  1  0  0  0  0
 33 34  1  1  0  0  0
 34 35  2  0  0  0  0
M  END
>  <MODEL>
1

>  <REMARK>
 VINA RESULT:      -8.7      0.000      0.000
  Name = 
  4 active torsions:
  status: ('A' for Active; 'I' for Inactive)
    1  A    between atoms: C_1  and  N_23
    2  A    between atoms: C_8  and  N_22
    3  A    between atoms: C_9  and  N_22
    4  A    between atoms: C_19  and  C_26
                            x       y       z     vdW  Elec       q    Type
                         _______ _______ _______ _____ _____    ______ ____

>  <TORSDO>
F 4

$$$$
=
 OpenBabel11062413443D

 35 41  0  0  1  0  0  0  0  0999 V2000
  183.4360  178.9370  141.0150 C   0  0  2  0  0  3  0  0  0  0  0  0
  184.9160  178.6480  139.0190 C   0  0  0  0  0  2  0  0  0  0  0  0
  181.3340  175.5730  139.5680 C   0  0  2  0  0  3  0  0  0  0  0  0
  182.3970  178.0640  140.2850 C   0  0  2  0  0  0  0  0  0  0  0  0
  179.2040  176.0220  136.8790 C   0  0  0  0  0  2  0  0  0  0  0  0
  182.9910  176.9640  139.3170 C   0  0  1  0  0  3  0  0  0  0  0  0
  182.0980  176.1690  138.5740 O   0  0  0  0  0  0  0  0  0  0  0  0
  179.8820  177.0400  140.6840 C   0  0  0  0  0  2  0  0  0  0  0  0
  179.2110  178.0510  138.0580 O   0  0  0  0  0  0  0  0  0  0  0  0
  184.8640  178.6260  140.5480 C   0  0  0  0  0  2  0  0  0  0  0  0
  179.4940  176.8580  138.0970 C   0  0  0  0  0  0  0  0  0  0  0  0
  180.2700  174.2110  137.9660 O   0  0  0  0  0  0  0  0  0  0  0  0
  181.3370  178.9310  139.6260 C   0  0  0  0  0  2  0  0  0  0  0  0
  180.9640  178.1580  140.8860 C   0  0  2  0  0  3  0  0  0  0  0  0
  179.0970  174.5650  137.2890 C   0  0  0  0  0  2  0  0  0  0  0  0
  180.1460  174.6930  139.2850 C   0  0  2  0  0  3  0  0  0  0  0  0
  184.0890  177.5130  138.3950 C   0  0  0  0  0  2  0  0  0  0  0  0
  179.9720  176.2200  139.4070 C   0  0  1  0  0  0  0  0  0  0  0  0
  187.8300  177.2060  143.4800 C   0  0  0  0  0  3  0  0  0  0  0  0
  185.2380  178.4360  145.6110 C   0  0  0  0  0  0  0  0  0  0  0  0
  184.9340  178.6030  146.9930 N   0  0  0  0  0  1  0  0  0  0  0  0
  186.4150  178.0130  145.2540 N   0  0  0  0  0  0  0  0  0  0  0  0
  186.7310  177.8430  143.8660 C   0  0  0  0  0  0  0  0  0  0  0  0
  185.8300  178.4230  142.8210 C   0  0  0  0  0  2  0  0  0  0  0  0
  184.2030  178.6340  144.6310 N   0  0  0  0  0  0  0  0  0  0  0  0
  183.3230  178.7480  142.4570 N   0  0  0  0  0  2  0  0  0  0  0  0
  184.4270  178.5870  143.3520 C   0  0  0  0  0  0  0  0  0  0  0  0
  188.7340  176.6190  144.4150 N   0  0  0  0  0  2  0  0  0  0  0  0
  189.6440  177.4850  145.1510 C   0  0  1  0  0  3  0  0  0  0  0  0
  190.9830  177.3700  146.9970 O   0  0  0  0  0  0  0  0  0  0  0  0
  189.6810  177.0930  146.5840 C   0  0  0  0  0  2  0  0  0  0  0  0
  191.7760  176.9770  145.9980 O   0  0  0  0  0  0  0  0  0  0  0  0
  191.1050  177.3030  144.8010 C   0  0  1  0  0  3  0  0  0  0  0  0
  191.3760  176.2370  143.7800 C   0  0  0  0  0  3  0  0  0  0  0  0
  192.0240  175.1800  144.1000 N   0  0  0  0  0  2  0  0  0  0  0  0
  1 26  1  1  0  0  0
  2 10  1  0  0  0  0
  3  7  1  6  0  0  0
  4 13  1  6  0  0  0
  4 14  1  0  0  0  0
  4  1  1  0  0  0  0
  5 15  1  0  0  0  0
  5 11  1  0  0  0  0
  6 17  1  6  0  0  0
  6  4  1  0  0  0  0
  7  6  1  0  0  0  0
  8 14  1  0  0  0  0
  9 11  2  0  0  0  0
 10  1  1  0  0  0  0
 11 18  1  0  0  0  0
 14 13  1  6  0  0  0
 15 12  1  0  0  0  0
 16 12  1  6  0  0  0
 16 18  1  0  0  0  0
 16  3  1  0  0  0  0
 17  2  1  0  0  0  0
 18  3  1  0  0  0  0
 18  8  1  1  0  0  0
 19 23  2  0  0  0  0
 19 28  1  0  0  0  0
 20 21  1  0  0  0  0
 22 20  2  0  0  0  0
 23 22  1  0  0  0  0
 24 27  1  0  0  0  0
 24 23  1  0  0  0  0
 25 20  1  0  0  0  0
 26 27  1  0  0  0  0
 27 25  2  0  0  0  0
 29 28  1  6  0  0  0
 29 31  1  0  0  0  0
 31 30  1  0  0  0  0
 32 30  1  0  0  0  0
 33 34  1  6  0  0  0
 33 29  1  0  0  0  0
 33 32  1  0  0  0  0
 34 35  2  0  0  0  0
M  END
>  <MODEL>
2

>  <REMARK>
 VINA RESULT:      -8.6      0.964      1.277
  Name = 
  4 active torsions:
  status: ('A' for Active; 'I' for Inactive)
    1  A    between atoms: C_1  and  N_23
    2  A    between atoms: C_8  and  N_22
    3  A    between atoms: C_9  and  N_22
    4  A    between atoms: C_19  and  C_26
                            x       y       z     vdW  Elec       q    Type
                         _______ _______ _______ _____ _____    ______ ____

>  <TORSDO>
F 4

$$$$
=
 OpenBabel11062413443D

 35 41  0  0  1  0  0  0  0  0999 V2000
  183.9780  178.1980  141.2750 C   0  0  2  0  0  3  0  0  0  0  0  0
  182.0830  178.9840  142.7060 C   0  0  0  0  0  2  0  0  0  0  0  0
  181.5430  179.2570  137.9920 C   0  0  2  0  0  3  0  0  0  0  0  0
  182.9720  178.1090  140.1110 C   0  0  2  0  0  0  0  0  0  0  0  0
  178.9350  177.1440  137.1550 C   0  0  0  0  0  2  0  0  0  0  0  0
  181.7870  179.1560  140.1540 C   0  0  1  0  0  3  0  0  0  0  0  0
  180.7990  179.0940  139.1530 O   0  0  0  0  0  0  0  0  0  0  0  0
  182.9100  177.4280  137.4530 C   0  0  0  0  0  2  0  0  0  0  0  0
  180.6120  175.7850  138.0760 O   0  0  0  0  0  0  0  0  0  0  0  0
  183.5430  179.2320  142.3220 C   0  0  0  0  0  2  0  0  0  0  0  0
  180.3490  176.8860  137.6030 C   0  0  0  0  0  0  0  0  0  0  0  0
  179.5660  179.3810  136.7150 O   0  0  0  0  0  0  0  0  0  0  0  0
  182.4990  176.6770  139.9190 C   0  0  0  0  0  2  0  0  0  0  0  0
  183.4770  177.2630  138.9060 C   0  0  2  0  0  3  0  0  0  0  0  0
  178.9310  178.2730  136.1420 C   0  0  0  0  0  2  0  0  0  0  0  0
  180.9540  179.1600  136.6100 C   0  0  2  0  0  3  0  0  0  0  0  0
  181.1220  179.2460  141.5350 C   0  0  0  0  0  2  0  0  0  0  0  0
  181.4690  177.8970  137.3270 C   0  0  1  0  0  0  0  0  0  0  0  0
  187.9500  177.9290  144.8130 C   0  0  0  0  0  3  0  0  0  0  0  0
  188.9380  178.1640  141.3860 C   0  0  0  0  0  0  0  0  0  0  0  0
  190.1100  178.2540  140.5810 N   0  0  0  0  0  1  0  0  0  0  0  0
  189.0470  177.9820  142.6690 N   0  0  0  0  0  0  0  0  0  0  0  0
  187.8740  177.8890  143.4890 C   0  0  0  0  0  0  0  0  0  0  0  0
  186.5330  177.7040  142.8490 C   0  0  0  0  0  2  0  0  0  0  0  0
  187.6500  178.3850  140.7860 N   0  0  0  0  0  0  0  0  0  0  0  0
  185.3050  178.5220  140.7640 N   0  0  0  0  0  2  0  0  0  0  0  0
  186.5350  178.2320  141.4360 C   0  0  0  0  0  0  0  0  0  0  0  0
  189.1900  178.1110  145.4960 N   0  0  0  0  0  2  0  0  0  0  0  0
  189.9220  176.9370  145.9480 C   0  0  1  0  0  3  0  0  0  0  0  0
  192.0530  176.3900  146.5610 O   0  0  0  0  0  0  0  0  0  0  0  0
  191.3490  177.0310  145.5440 C   0  0  0  0  0  2  0  0  0  0  0  0
  191.4770  176.7730  147.7030 O   0  0  0  0  0  0  0  0  0  0  0  0
  190.0900  176.8420  147.4500 C   0  0  1  0  0  3  0  0  0  0  0  0
  189.5080  177.9920  148.2190 C   0  0  0  0  0  3  0  0  0  0  0  0
  188.3050  177.9410  148.6530 N   0  0  0  0  0  2  0  0  0  0  0  0
  1 26  1  6  0  0  0
  1 10  1  0  0  0  0
  3  7  1  1  0  0  0
  4 13  1  1  0  0  0
  4  6  1  0  0  0  0
  4  1  1  0  0  0  0
  5 11  1  0  0  0  0
  6 17  1  1  0  0  0
  7  6  1  0  0  0  0
 10  2  1  0  0  0  0
 11  9  2  0  0  0  0
 14  8  1  6  0  0  0
 14 13  1  0  0  0  0
 14  4  1  0  0  0  0
 15 12  1  0  0  0  0
 15  5  1  0  0  0  0
 16 12  1  1  0  0  0
 16 18  1  0  0  0  0
 16  3  1  0  0  0  0
 17  2  1  0  0  0  0
 18  8  1  6  0  0  0
 18 11  1  0  0  0  0
 18  3  1  0  0  0  0
 19 28  1  0  0  0  0
 20 22  2  0  0  0  0
 21 20  1  0  0  0  0
 22 23  1  0  0  0  0
 23 19  2  0  0  0  0
 24 23  1  0  0  0  0
 25 20  1  0  0  0  0
 25 27  2  0  0  0  0
 26 27  1  0  0  0  0
 27 24  1  0  0  0  0
 29 28  1  1  0  0  0
 29 33  1  0  0  0  0
 30 32  1  0  0  0  0
 31 29  1  0  0  0  0
 31 30  1  0  0  0  0
 33 32  1  0  0  0  0
 33 34  1  1  0  0  0
 34 35  2  0  0  0  0
M  END
>  <MODEL>
3

>  <REMARK>
 VINA RESULT:      -8.4      2.130      3.567
  Name = 
  4 active torsions:
  status: ('A' for Active; 'I' for Inactive)
    1  A    between atoms: C_1  and  N_23
    2  A    between atoms: C_8  and  N_22
    3  A    between atoms: C_9  and  N_22
    4  A    between atoms: C_19  and  C_26
                            x       y       z     vdW  Elec       q    Type
                         _______ _______ _______ _____ _____    ______ ____

>  <TORSDO>
F 4

$$$$
=
 OpenBabel11062413443D

 35 41  0  0  1  0  0  0  0  0999 V2000
  184.6130  178.6510  142.4140 C   0  0  2  0  0  3  0  0  0  0  0  0
  184.4540  179.2350  144.8410 C   0  0  0  0  0  2  0  0  0  0  0  0
  188.1220  176.5480  143.4570 C   0  0  2  0  0  3  0  0  0  0  0  0
  186.0950  178.3120  142.6630 C   0  0  2  0  0  0  0  0  0  0  0  0
  190.9940  178.3800  144.0640 C   0  0  0  0  0  2  0  0  0  0  0  0
  186.4340  177.7610  144.1060 C   0  0  1  0  0  3  0  0  0  0  0  0
  187.7780  177.4850  144.4220 O   0  0  0  0  0  0  0  0  0  0  0  0
  188.2910  177.4140  141.2830 C   0  0  0  0  0  2  0  0  0  0  0  0
  189.7590  179.5980  142.4850 O   0  0  0  0  0  0  0  0  0  0  0  0
  183.7740  178.4930  143.6890 C   0  0  0  0  0  2  0  0  0  0  0  0
  189.9020  178.5120  143.0380 C   0  0  0  0  0  0  0  0  0  0  0  0
  190.2010  176.1950  144.5090 O   0  0  0  0  0  0  0  0  0  0  0  0
  186.9890  179.4650  142.2370 C   0  0  0  0  0  2  0  0  0  0  0  0
  186.9450  178.2160  141.3630 C   0  0  2  0  0  3  0  0  0  0  0  0
  191.3650  176.9160  144.2120 C   0  0  0  0  0  2  0  0  0  0  0  0
  189.5150  176.0010  143.2930 C   0  0  2  0  0  3  0  0  0  0  0  0
  185.7990  178.5980  145.2270 C   0  0  0  0  0  2  0  0  0  0  0  0
  189.0970  177.2940  142.5670 C   0  0  1  0  0  0  0  0  0  0  0  0
  181.9000  181.1880  138.5950 C   0  0  0  0  0  3  0  0  0  0  0  0
  182.7980  177.8040  137.8740 C   0  0  0  0  0  0  0  0  0  0  0  0
  182.6400  176.8140  136.8620 N   0  0  0  0  0  1  0  0  0  0  0  0
  182.3670  179.0140  137.6690 N   0  0  0  0  0  0  0  0  0  0  0  0
  182.5220  180.0180  138.6800 C   0  0  0  0  0  0  0  0  0  0  0  0
  183.4320  179.7680  139.8430 C   0  0  0  0  0  2  0  0  0  0  0  0
  183.3360  177.4270  139.1540 N   0  0  0  0  0  0  0  0  0  0  0  0
  184.0790  177.8100  141.3490 N   0  0  0  0  0  2  0  0  0  0  0  0
  183.5910  178.2890  140.0920 C   0  0  0  0  0  0  0  0  0  0  0  0
  181.0120  181.4970  137.5230 N   0  0  0  0  0  2  0  0  0  0  0  0
  180.6040  182.8800  137.3250 C   0  0  1  0  0  3  0  0  0  0  0  0
  181.5550  184.8660  136.7200 O   0  0  0  0  0  0  0  0  0  0  0  0
  181.7430  183.7970  137.5940 C   0  0  0  0  0  2  0  0  0  0  0  0
  181.1650  184.3300  135.5620 O   0  0  0  0  0  0  0  0  0  0  0  0
  180.3140  183.2510  135.8860 C   0  0  1  0  0  3  0  0  0  0  0  0
  180.5320  182.1420  134.8990 C   0  0  0  0  0  3  0  0  0  0  0  0
  179.5770  181.3460  134.5940 N   0  0  0  0  0  2  0  0  0  0  0  0
  1 26  1  6  0  0  0
  1  4  1  0  0  0  0
  1 10  1  0  0  0  0
  2 17  1  0  0  0  0
  3  7  1  1  0  0  0
  4 13  1  1  0  0  0
  4  6  1  0  0  0  0
  5 15  1  0  0  0  0
  6  7  1  0  0  0  0
  6 17  1  1  0  0  0
  9 11  2  0  0  0  0
 10  2  1  0  0  0  0
 11  5  1  0  0  0  0
 14  8  1  1  0  0  0
 14 13  1  0  0  0  0
 14  4  1  0  0  0  0
 15 12  1  0  0  0  0
 16  3  1  0  0  0  0
 16 12  1  1  0  0  0
 18  8  1  6  0  0  0
 18 11  1  0  0  0  0
 18 16  1  0  0  0  0
 18  3  1  0  0  0  0
 19 23  2  0  0  0  0
 20 25  1  0  0  0  0
 21 20  1  0  0  0  0
 22 20  2  0  0  0  0
 22 23  1  0  0  0  0
 23 24  1  0  0  0  0
 24 27  1  0  0  0  0
 25 27  2  0  0  0  0
 27 26  1  0  0  0  0
 28 19  1  0  0  0  0
 29 28  1  6  0  0  0
 29 31  1  0  0  0  0
 30 31  1  0  0  0  0
 32 33  1  0  0  0  0
 32 30  1  0  0  0  0
 33 34  1  6  0  0  0
 33 29  1  0  0  0  0
 35 34  2  0  0  0  0
M  END
>  <MODEL>
4

>  <REMARK>
 VINA RESULT:      -8.2      4.106     10.132
  Name = 
  4 active torsions:
  status: ('A' for Active; 'I' for Inactive)
    1  A    between atoms: C_1  and  N_23
    2  A    between atoms: C_8  and  N_22
    3  A    between atoms: C_9  and  N_22
    4  A    between atoms: C_19  and  C_26
                            x       y       z     vdW  Elec       q    Type
                         _______ _______ _______ _____ _____    ______ ____

>  <TORSDO>
F 4

$$$$
=
 OpenBabel11062413443D

 35 41  0  0  1  0  0  0  0  0999 V2000
  184.3080  179.1000  140.2500 C   0  0  2  0  0  3  0  0  0  0  0  0
  185.8140  178.3560  138.3970 C   0  0  0  0  0  2  0  0  0  0  0  0
  181.2250  177.1530  138.1220 C   0  0  2  0  0  3  0  0  0  0  0  0
  183.1240  178.8440  139.2980 C   0  0  2  0  0  0  0  0  0  0  0  0
  179.9400  178.7260  135.3210 C   0  0  0  0  0  2  0  0  0  0  0  0
  183.3340  177.6810  138.2480 C   0  0  1  0  0  3  0  0  0  0  0  0
  182.3150  177.4310  137.3090 O   0  0  0  0  0  0  0  0  0  0  0  0
  180.3850  179.0110  139.2830 C   0  0  0  0  0  2  0  0  0  0  0  0
  180.6290  180.4340  136.7760 O   0  0  0  0  0  0  0  0  0  0  0  0
  185.5200  178.2300  139.8930 C   0  0  0  0  0  2  0  0  0  0  0  0
  180.3650  179.2400  136.6700 C   0  0  0  0  0  0  0  0  0  0  0  0
  179.9460  176.5450  136.2380 O   0  0  0  0  0  0  0  0  0  0  0  0
  182.6530  180.1440  138.6650 C   0  0  0  0  0  2  0  0  0  0  0  0
  181.7940  179.5120  139.7550 C   0  0  2  0  0  3  0  0  0  0  0  0
  179.1580  177.4380  135.5020 C   0  0  0  0  0  2  0  0  0  0  0  0
  179.8350  176.9190  137.5930 C   0  0  2  0  0  3  0  0  0  0  0  0
  184.6900  177.7620  137.5330 C   0  0  0  0  0  2  0  0  0  0  0  0
  180.3130  178.3470  137.9160 C   0  0  1  0  0  0  0  0  0  0  0  0
  188.1170  177.3000  143.5100 C   0  0  0  0  0  3  0  0  0  0  0  0
  185.1260  178.4430  145.0990 C   0  0  0  0  0  0  0  0  0  0  0  0
  184.5420  178.5590  146.3930 N   0  0  0  0  0  1  0  0  0  0  0  0
  186.3560  178.0370  144.9790 N   0  0  0  0  0  0  0  0  0  0  0  0
  186.9550  177.9180  143.6820 C   0  0  0  0  0  0  0  0  0  0  0  0
  186.2820  178.5320  142.4930 C   0  0  0  0  0  2  0  0  0  0  0  0
  184.3150  178.6710  143.9340 N   0  0  0  0  0  0  0  0  0  0  0  0
  183.9010  178.8600  141.6300 N   0  0  0  0  0  2  0  0  0  0  0  0
  184.7980  178.6710  142.7280 C   0  0  0  0  0  0  0  0  0  0  0  0
  188.8140  176.6830  144.5910 N   0  0  0  0  0  2  0  0  0  0  0  0
  189.7470  177.4820  145.3730 C   0  0  1  0  0  3  0  0  0  0  0  0
  191.0850  177.2290  147.2050 O   0  0  0  0  0  0  0  0  0  0  0  0
  189.7770  177.0080  146.7810 C   0  0  0  0  0  2  0  0  0  0  0  0
  191.8670  176.8740  146.1830 O   0  0  0  0  0  0  0  0  0  0  0  0
  191.2020  177.2850  145.0080 C   0  0  1  0  0  3  0  0  0  0  0  0
  191.4450  176.2720  143.9280 C   0  0  0  0  0  3  0  0  0  0  0  0
  192.0060  175.1540  144.1980 N   0  0  0  0  0  2  0  0  0  0  0  0
  1 26  1  1  0  0  0
  2 10  1  0  0  0  0
  3  7  1  6  0  0  0
  4 13  1  6  0  0  0
  4 14  1  0  0  0  0
  4  1  1  0  0  0  0
  5 15  1  0  0  0  0
  5 11  1  0  0  0  0
  6 17  1  6  0  0  0
  6  4  1  0  0  0  0
  7  6  1  0  0  0  0
  8 14  1  0  0  0  0
 10  1  1  0  0  0  0
 11  9  2  0  0  0  0
 11 18  1  0  0  0  0
 14 13  1  6  0  0  0
 15 12  1  0  0  0  0
 16 12  1  6  0  0  0
 16 18  1  0  0  0  0
 16  3  1  0  0  0  0
 17  2  1  0  0  0  0
 18  3  1  0  0  0  0
 18  8  1  1  0  0  0
 19 23  2  0  0  0  0
 19 28  1  0  0  0  0
 20 21  1  0  0  0  0
 22 20  2  0  0  0  0
 23 22  1  0  0  0  0
 24 27  1  0  0  0  0
 24 23  1  0  0  0  0
 25 20  1  0  0  0  0
 26 27  1  0  0  0  0
 27 25  2  0  0  0  0
 29 28  1  6  0  0  0
 29 31  1  0  0  0  0
 31 30  1  0  0  0  0
 32 30  1  0  0  0  0
 33 34  1  6  0  0  0
 33 29  1  0  0  0  0
 33 32  1  0  0  0  0
 34 35  2  0  0  0  0
M  END
>  <MODEL>
5

>  <REMARK>
 VINA RESULT:      -8.2      1.748      2.236
  Name = 
  4 active torsions:
  status: ('A' for Active; 'I' for Inactive)
    1  A    between atoms: C_1  and  N_23
    2  A    between atoms: C_8  and  N_22
    3  A    between atoms: C_9  and  N_22
    4  A    between atoms: C_19  and  C_26
                            x       y       z     vdW  Elec       q    Type
                         _______ _______ _______ _____ _____    ______ ____

>  <TORSDO>
F 4

$$$$
=
 OpenBabel11062413443D

 35 41  0  0  1  0  0  0  0  0999 V2000
  182.1010  178.3190  140.3550 C   0  0  2  0  0  3  0  0  0  0  0  0
  179.7390  179.0470  140.7360 C   0  0  0  0  0  2  0  0  0  0  0  0
  180.7210  176.7890  136.6700 C   0  0  2  0  0  3  0  0  0  0  0  0
  181.5590  177.3540  139.2830 C   0  0  2  0  0  0  0  0  0  0  0  0
  178.9320  173.8280  136.7080 C   0  0  0  0  0  2  0  0  0  0  0  0
  180.2630  177.8430  138.5200 C   0  0  1  0  0  3  0  0  0  0  0  0
  179.6800  176.9850  137.5680 O   0  0  0  0  0  0  0  0  0  0  0  0
  182.4830  175.4820  137.5010 C   0  0  0  0  0  2  0  0  0  0  0  0
  180.4270  173.7160  138.5130 O   0  0  0  0  0  0  0  0  0  0  0  0
  181.1790  179.5290  140.5470 C   0  0  0  0  0  2  0  0  0  0  0  0
  180.1460  174.2930  137.4670 C   0  0  0  0  0  0  0  0  0  0  0  0
  179.2750  175.6300  135.2130 O   0  0  0  0  0  0  0  0  0  0  0  0
  181.4290  175.9470  139.8430 C   0  0  0  0  0  2  0  0  0  0  0  0
  182.5670  176.2410  138.8710 C   0  0  2  0  0  3  0  0  0  0  0  0
  179.0620  174.2470  135.2550 C   0  0  0  0  0  2  0  0  0  0  0  0
  180.6380  175.8450  135.5000 C   0  0  2  0  0  3  0  0  0  0  0  0
  179.1810  178.3780  139.4690 C   0  0  0  0  0  2  0  0  0  0  0  0
  181.1020  175.3370  136.8790 C   0  0  1  0  0  0  0  0  0  0  0  0
  185.7120  178.1460  144.2680 C   0  0  0  0  0  3  0  0  0  0  0  0
  187.0150  178.6200  140.9740 C   0  0  0  0  0  0  0  0  0  0  0  0
  188.2510  178.8310  140.2980 N   0  0  0  0  0  1  0  0  0  0  0  0
  187.0100  178.3820  142.2520 N   0  0  0  0  0  0  0  0  0  0  0  0
  185.7710  178.1670  142.9420 C   0  0  0  0  0  0  0  0  0  0  0  0
  184.5170  177.9230  142.1610 C   0  0  0  0  0  2  0  0  0  0  0  0
  185.7800  178.7820  140.2550 N   0  0  0  0  0  0  0  0  0  0  0  0
  183.4460  178.7580  139.9980 N   0  0  0  0  0  2  0  0  0  0  0  0
  184.6210  178.5200  140.7790 C   0  0  0  0  0  0  0  0  0  0  0  0
  186.8610  178.3780  145.0810 N   0  0  0  0  0  2  0  0  0  0  0  0
  187.8290  177.3050  145.2520 C   0  0  1  0  0  3  0  0  0  0  0  0
  190.0890  177.0720  145.4840 O   0  0  0  0  0  0  0  0  0  0  0  0
  189.1420  177.6990  144.6770 C   0  0  0  0  0  2  0  0  0  0  0  0
  189.6480  177.2020  146.7370 O   0  0  0  0  0  0  0  0  0  0  0  0
  188.2450  177.0550  146.6860 C   0  0  1  0  0  3  0  0  0  0  0  0
  187.6190  177.9800  147.6890 C   0  0  0  0  0  3  0  0  0  0  0  0
  188.1550  178.1520  148.8380 N   0  0  0  0  0  2  0  0  0  0  0  0
  1 26  1  6  0  0  0
  1 10  1  0  0  0  0
  3 18  1  0  0  0  0
  3  7  1  1  0  0  0
  4 13  1  1  0  0  0
  4  1  1  0  0  0  0
  5 11  1  0  0  0  0
  6  4  1  0  0  0  0
  6 17  1  1  0  0  0
  7  6  1  0  0  0  0
 10  2  1  0  0  0  0
 11  9  2  0  0  0  0
 12 15  1  0  0  0  0
 14  8  1  6  0  0  0
 14  4  1  0  0  0  0
 14 13  1  0  0  0  0
 15  5  1  0  0  0  0
 16 12  1  1  0  0  0
 16  3  1  0  0  0  0
 16 18  1  0  0  0  0
 17  2  1  0  0  0  0
 18 11  1  0  0  0  0
 18  8  1  1  0  0  0
 19 28  1  0  0  0  0
 20 22  2  0  0  0  0
 21 20  1  0  0  0  0
 22 23  1  0  0  0  0
 23 19  2  0  0  0  0
 24 23  1  0  0  0  0
 25 27  2  0  0  0  0
 25 20  1  0  0  0  0
 26 27  1  0  0  0  0
 27 24  1  0  0  0  0
 29 28  1  1  0  0  0
 29 33  1  0  0  0  0
 30 32  1  0  0  0  0
 31 29  1  0  0  0  0
 31 30  1  0  0  0  0
 33 32  1  0  0  0  0
 33 34  1  1  0  0  0
 34 35  2  0  0  0  0
M  END
>  <MODEL>
6

>  <REMARK>
 VINA RESULT:      -8.1      2.106      3.409
  Name = 
  4 active torsions:
  status: ('A' for Active; 'I' for Inactive)
    1  A    between atoms: C_1  and  N_23
    2  A    between atoms: C_8  and  N_22
    3  A    between atoms: C_9  and  N_22
    4  A    between atoms: C_19  and  C_26
                            x       y       z     vdW  Elec       q    Type
                         _______ _______ _______ _____ _____    ______ ____

>  <TORSDO>
F 4

$$$$
=
 OpenBabel11062413443D

 35 41  0  0  1  0  0  0  0  0999 V2000
  180.4630  178.8510  140.4270 C   0  0  2  0  0  3  0  0  0  0  0  0
  180.2090  180.5880  138.6450 C   0  0  0  0  0  2  0  0  0  0  0  0
  183.6760  177.3800  138.1170 C   0  0  2  0  0  3  0  0  0  0  0  0
  181.2770  178.0260  139.4120 C   0  0  2  0  0  0  0  0  0  0  0  0
  182.9310  175.5540  135.2740 C   0  0  0  0  0  2  0  0  0  0  0  0
  182.1040  178.8680  138.3590 C   0  0  1  0  0  3  0  0  0  0  0  0
  182.8250  178.1780  137.3650 O   0  0  0  0  0  0  0  0  0  0  0  0
  182.6070  175.6310  139.2570 C   0  0  0  0  0  2  0  0  0  0  0  0
  181.1790  175.1630  136.7850 O   0  0  0  0  0  0  0  0  0  0  0  0
  180.5320  180.3530  140.1220 C   0  0  0  0  0  2  0  0  0  0  0  0
  182.3220  175.5870  136.6500 C   0  0  0  0  0  0  0  0  0  0  0  0
  184.8020  176.7000  136.1620 O   0  0  0  0  0  0  0  0  0  0  0  0
  180.4100  176.9540  138.7730 C   0  0  0  0  0  2  0  0  0  0  0  0
  181.4470  176.5310  139.8080 C   0  0  2  0  0  3  0  0  0  0  0  0
  184.4430  175.5820  135.3980 C   0  0  0  0  0  2  0  0  0  0  0  0
  184.6000  176.3560  137.5140 C   0  0  2  0  0  3  0  0  0  0  0  0
  181.2790  179.9920  137.7160 C   0  0  0  0  0  2  0  0  0  0  0  0
  183.1510  175.9780  137.8800 C   0  0  1  0  0  0  0  0  0  0  0  0
  185.7500  178.8830  141.0780 C   0  0  0  0  0  3  0  0  0  0  0  0
  183.8160  178.9410  144.0830 C   0  0  0  0  0  0  0  0  0  0  0  0
  183.9790  178.9320  145.4980 N   0  0  0  0  0  1  0  0  0  0  0  0
  184.8610  179.0190  143.3130 N   0  0  0  0  0  0  0  0  0  0  0  0
  184.7080  179.0310  141.8870 C   0  0  0  0  0  0  0  0  0  0  0  0
  183.3540  179.2490  141.2850 C   0  0  0  0  0  2  0  0  0  0  0  0
  182.5050  178.7530  143.5220 N   0  0  0  0  0  0  0  0  0  0  0  0
  180.9370  178.5870  141.7810 N   0  0  0  0  0  2  0  0  0  0  0  0
  182.2660  178.8380  142.2470 C   0  0  0  0  0  0  0  0  0  0  0  0
  187.0690  178.6620  141.5750 N   0  0  0  0  0  2  0  0  0  0  0  0
  187.9480  177.7520  140.8550 C   0  0  1  0  0  3  0  0  0  0  0  0
  189.9240  177.8400  139.7130 O   0  0  0  0  0  0  0  0  0  0  0  0
  188.6900  178.4830  139.7950 C   0  0  0  0  0  2  0  0  0  0  0  0
  190.2890  177.5860  140.9720 O   0  0  0  0  0  0  0  0  0  0  0  0
  189.1140  177.2300  141.6670 C   0  0  1  0  0  3  0  0  0  0  0  0
  189.1910  177.7660  143.0670 C   0  0  0  0  0  3  0  0  0  0  0  0
  190.1620  178.5220  143.4210 N   0  0  0  0  0  2  0  0  0  0  0  0
  1 26  1  1  0  0  0
  2 10  1  0  0  0  0
  3  7  1  6  0  0  0
  4 13  1  6  0  0  0
  4 14  1  0  0  0  0
  4  1  1  0  0  0  0
  5 15  1  0  0  0  0
  5 11  1  0  0  0  0
  6 17  1  6  0  0  0
  6  4  1  0  0  0  0
  7  6  1  0  0  0  0
  8 14  1  0  0  0  0
 10  1  1  0  0  0  0
 11  9  2  0  0  0  0
 11 18  1  0  0  0  0
 14 13  1  6  0  0  0
 15 12  1  0  0  0  0
 16 12  1  6  0  0  0
 16 18  1  0  0  0  0
 16  3  1  0  0  0  0
 17  2  1  0  0  0  0
 18  3  1  0  0  0  0
 18  8  1  1  0  0  0
 19 28  1  0  0  0  0
 19 23  2  0  0  0  0
 20 21  1  0  0  0  0
 22 20  2  0  0  0  0
 23 22  1  0  0  0  0
 24 23  1  0  0  0  0
 24 27  1  0  0  0  0
 25 20  1  0  0  0  0
 26 27  1  0  0  0  0
 27 25  2  0  0  0  0
 29 28  1  1  0  0  0
 29 33  1  0  0  0  0
 30 31  1  0  0  0  0
 30 32  1  0  0  0  0
 31 29  1  0  0  0  0
 32 33  1  0  0  0  0
 33 34  1  1  0  0  0
 34 35  2  0  0  0  0
M  END
>  <MODEL>
7

>  <REMARK>
 VINA RESULT:      -7.9      2.264      3.585
  Name = 
  4 active torsions:
  status: ('A' for Active; 'I' for Inactive)
    1  A    between atoms: C_1  and  N_23
    2  A    between atoms: C_8  and  N_22
    3  A    between atoms: C_9  and  N_22
    4  A    between atoms: C_19  and  C_26
                            x       y       z     vdW  Elec       q    Type
                         _______ _______ _______ _____ _____    ______ ____

>  <TORSDO>
F 4

$$$$
=
 OpenBabel11062413443D

 35 41  0  0  1  0  0  0  0  0999 V2000
  184.3550  178.6630  138.7620 C   0  0  2  0  0  3  0  0  0  0  0  0
  182.3280  180.0530  139.2220 C   0  0  0  0  0  2  0  0  0  0  0  0
  182.1040  176.9510  135.6280 C   0  0  2  0  0  3  0  0  0  0  0  0
  183.4390  177.7100  137.9710 C   0  0  2  0  0  0  0  0  0  0  0  0
  179.6720  174.6320  136.4530 C   0  0  0  0  0  2  0  0  0  0  0  0
  182.2020  178.3910  137.2590 C   0  0  1  0  0  3  0  0  0  0  0  0
  181.2900  177.5710  136.5670 O   0  0  0  0  0  0  0  0  0  0  0  0
  183.5970  175.3820  136.5270 C   0  0  0  0  0  2  0  0  0  0  0  0
  181.3490  174.4340  138.0820 O   0  0  0  0  0  0  0  0  0  0  0  0
  183.7960  180.0910  138.7940 C   0  0  0  0  0  2  0  0  0  0  0  0
  181.0630  174.8760  136.9740 C   0  0  0  0  0  0  0  0  0  0  0  0
  180.2160  175.9910  134.5940 O   0  0  0  0  0  0  0  0  0  0  0  0
  183.0550  176.5080  138.8190 C   0  0  0  0  0  2  0  0  0  0  0  0
  184.0700  176.3140  137.6970 C   0  0  2  0  0  3  0  0  0  0  0  0
  179.6800  174.7440  134.9400 C   0  0  0  0  0  2  0  0  0  0  0  0
  181.6180  175.8770  134.6910 C   0  0  2  0  0  3  0  0  0  0  0  0
  181.4390  179.3520  138.1820 C   0  0  0  0  0  2  0  0  0  0  0  0
  182.1460  175.5080  136.0910 C   0  0  1  0  0  0  0  0  0  0  0  0
  188.3620  178.2160  142.2450 C   0  0  0  0  0  3  0  0  0  0  0  0
  189.2310  177.7400  138.8110 C   0  0  0  0  0  0  0  0  0  0  0  0
  190.3650  177.4910  137.9860 N   0  0  0  0  0  1  0  0  0  0  0  0
  189.3590  177.7400  140.1050 N   0  0  0  0  0  0  0  0  0  0  0  0
  188.2240  177.9880  140.9440 C   0  0  0  0  0  0  0  0  0  0  0  0
  186.8450  177.9570  140.3600 C   0  0  0  0  0  2  0  0  0  0  0  0
  187.9780  178.0980  138.2010 N   0  0  0  0  0  0  0  0  0  0  0  0
  185.6970  178.6570  138.1890 N   0  0  0  0  0  2  0  0  0  0  0  0
  186.8820  178.2530  138.8810 C   0  0  0  0  0  0  0  0  0  0  0  0
  189.6410  178.2710  142.8730 N   0  0  0  0  0  2  0  0  0  0  0  0
  189.7080  178.3610  144.3240 C   0  0  1  0  0  3  0  0  0  0  0  0
  189.0360  177.1480  146.1380 O   0  0  0  0  0  0  0  0  0  0  0  0
  188.5500  177.6610  144.9380 C   0  0  0  0  0  2  0  0  0  0  0  0
  190.2550  176.6750  145.8680 O   0  0  0  0  0  0  0  0  0  0  0  0
  190.8400  177.5750  144.9520 C   0  0  1  0  0  3  0  0  0  0  0  0
  191.6820  176.8040  143.9770 C   0  0  0  0  0  3  0  0  0  0  0  0
  191.6600  175.5240  143.9680 N   0  0  0  0  0  2  0  0  0  0  0  0
  1 26  1  6  0  0  0
  1 10  1  0  0  0  0
  3 18  1  0  0  0  0
  3  7  1  1  0  0  0
  4  1  1  0  0  0  0
  4 13  1  1  0  0  0
  5 11  1  0  0  0  0
  6  4  1  0  0  0  0
  6 17  1  1  0  0  0
  7  6  1  0  0  0  0
 10  2  1  0  0  0  0
 11  9  2  0  0  0  0
 12 15  1  0  0  0  0
 14  8  1  6  0  0  0
 14  4  1  0  0  0  0
 14 13  1  0  0  0  0
 15  5  1  0  0  0  0
 16 12  1  1  0  0  0
 16  3  1  0  0  0  0
 16 18  1  0  0  0  0
 17  2  1  0  0  0  0
 18  8  1  1  0  0  0
 18 11  1  0  0  0  0
 19 28  1  0  0  0  0
 20 22  2  0  0  0  0
 21 20  1  0  0  0  0
 22 23  1  0  0  0  0
 23 19  2  0  0  0  0
 24 23  1  0  0  0  0
 25 20  1  0  0  0  0
 25 27  2  0  0  0  0
 26 27  1  0  0  0  0
 27 24  1  0  0  0  0
 29 28  1  6  0  0  0
 29 31  1  0  0  0  0
 29 33  1  0  0  0  0
 31 30  1  0  0  0  0
 32 30  1  0  0  0  0
 33 34  1  6  0  0  0
 33 32  1  0  0  0  0
 35 34  2  0  0  0  0
M  END
>  <MODEL>
8

>  <REMARK>
 VINA RESULT:      -7.6      2.930      4.240
  Name = 
  4 active torsions:
  status: ('A' for Active; 'I' for Inactive)
    1  A    between atoms: C_1  and  N_23
    2  A    between atoms: C_8  and  N_22
    3  A    between atoms: C_9  and  N_22
    4  A    between atoms: C_19  and  C_26
                            x       y       z     vdW  Elec       q    Type
                         _______ _______ _______ _____ _____    ______ ____

>  <TORSDO>
F 4

$$$$
=
 OpenBabel11062413443D

 35 41  0  0  1  0  0  0  0  0999 V2000
  188.6820  174.1720  135.3010 C   0  0  2  0  0  3  0  0  0  0  0  0
  187.4490  172.3070  136.4220 C   0  0  0  0  0  2  0  0  0  0  0  0
  186.2960  176.7540  137.6380 C   0  0  2  0  0  3  0  0  0  0  0  0
  187.5390  175.1040  135.7460 C   0  0  2  0  0  0  0  0  0  0  0  0
  183.0070  177.2370  136.6810 C   0  0  0  0  0  2  0  0  0  0  0  0
  186.8300  174.7120  137.1040 C   0  0  1  0  0  3  0  0  0  0  0  0
  185.7390  175.4870  137.5410 O   0  0  0  0  0  0  0  0  0  0  0  0
  186.8140  177.7450  135.5760 C   0  0  0  0  0  2  0  0  0  0  0  0
  184.2110  176.8250  134.7100 O   0  0  0  0  0  0  0  0  0  0  0  0
  188.8190  172.9600  136.2310 C   0  0  0  0  0  2  0  0  0  0  0  0
  184.2870  177.1220  135.8980 C   0  0  0  0  0  0  0  0  0  0  0  0
  184.3170  177.5730  138.6220 O   0  0  0  0  0  0  0  0  0  0  0  0
  186.5610  175.3360  134.6050 C   0  0  0  0  0  2  0  0  0  0  0  0
  187.5090  176.4660  134.9930 C   0  0  2  0  0  3  0  0  0  0  0  0
  183.2440  178.1100  137.8990 C   0  0  0  0  0  2  0  0  0  0  0  0
  185.4980  177.9860  137.9730 C   0  0  2  0  0  3  0  0  0  0  0  0
  186.4710  173.2210  137.1790 C   0  0  0  0  0  2  0  0  0  0  0  0
  185.6350  177.5220  136.5100 C   0  0  1  0  0  0  0  0  0  0  0  0
  190.1460  176.5950  139.8140 C   0  0  0  0  0  3  0  0  0  0  0  0
  192.6620  176.3740  137.2850 C   0  0  0  0  0  0  0  0  0  0  0  0
  194.0060  176.7700  137.0310 N   0  0  0  0  0  1  0  0  0  0  0  0
  192.1340  176.5890  138.4540 N   0  0  0  0  0  0  0  0  0  0  0  0
  190.7820  176.1930  138.7200 C   0  0  0  0  0  0  0  0  0  0  0  0
  190.0730  175.2780  137.7700 C   0  0  0  0  0  2  0  0  0  0  0  0
  191.8680  175.8410  136.2110 N   0  0  0  0  0  0  0  0  0  0  0  0
  189.9380  174.9120  135.2460 N   0  0  0  0  0  2  0  0  0  0  0  0
  190.6670  175.3770  136.3860 C   0  0  0  0  0  0  0  0  0  0  0  0
  190.7500  177.4730  140.7620 N   0  0  0  0  0  2  0  0  0  0  0  0
  189.9270  178.0360  141.8230 C   0  0  1  0  0  3  0  0  0  0  0  0
  188.1040  177.4370  143.0620 O   0  0  0  0  0  0  0  0  0  0  0  0
  188.5430  177.4990  141.7410 C   0  0  0  0  0  2  0  0  0  0  0  0
  189.1390  176.9840  143.7720 O   0  0  0  0  0  0  0  0  0  0  0  0
  190.2950  177.5730  143.2160 C   0  0  1  0  0  3  0  0  0  0  0  0
  191.4230  176.5840  143.2700 C   0  0  0  0  0  3  0  0  0  0  0  0
  191.6840  175.9530  144.3520 N   0  0  0  0  0  2  0  0  0  0  0  0
  1 26  1  1  0  0  0
  1  4  1  0  0  0  0
  1 10  1  0  0  0  0
  2 17  1  0  0  0  0
  3  7  1  1  0  0  0
  3 16  1  0  0  0  0
  4 13  1  6  0  0  0
  4  6  1  0  0  0  0
  5 15  1  0  0  0  0
  6 17  1  6  0  0  0
  6  7  1  0  0  0  0
  9 11  2  0  0  0  0
 10  2  1  0  0  0  0
 11 18  1  0  0  0  0
 11  5  1  0  0  0  0
 14 13  1  6  0  0  0
 14  8  1  0  0  0  0
 14  4  1  0  0  0  0
 15 12  1  0  0  0  0
 16 12  1  1  0  0  0
 18  8  1  6  0  0  0
 18  3  1  0  0  0  0
 18 16  1  0  0  0  0
 19 28  1  0  0  0  0
 20 22  2  0  0  0  0
 21 20  1  0  0  0  0
 22 23  1  0  0  0  0
 23 19  2  0  0  0  0
 24 23  1  0  0  0  0
 25 27  2  0  0  0  0
 25 20  1  0  0  0  0
 26 27  1  0  0  0  0
 27 24  1  0  0  0  0
 29 28  1  6  0  0  0
 29 33  1  0  0  0  0
 30 32  1  0  0  0  0
 31 29  1  0  0  0  0
 31 30  1  0  0  0  0
 33 34  1  6  0  0  0
 33 32  1  0  0  0  0
 34 35  2  0  0  0  0
M  END
>  <MODEL>
9

>  <REMARK>
 VINA RESULT:      -7.5      4.949      7.130
  Name = 
  4 active torsions:
  status: ('A' for Active; 'I' for Inactive)
    1  A    between atoms: C_1  and  N_23
    2  A    between atoms: C_8  and  N_22
    3  A    between atoms: C_9  and  N_22
    4  A    between atoms: C_19  and  C_26
                            x       y       z     vdW  Elec       q    Type
                         _______ _______ _______ _____ _____    ______ ____

>  <TORSDO>
F 4

$$$$
