=
 OpenBabel11062412273D

 37 39  0  0  1  0  0  0  0  0999 V2000
  187.1670  177.9490  146.9600 C   0  0  0  0  0  0  0  0  0  0  0  0
  186.2710  177.7470  145.7720 C   0  0  2  0  0  3  0  0  0  0  0  0
  186.7180  178.3280  148.0760 O   0  0  0  0  0  0  0  0  0  0  0  0
  189.0290  177.0190  145.5940 C   0  0  0  0  0  2  0  0  0  0  0  0
  186.9980  178.2330  144.5180 C   0  0  0  0  0  2  0  0  0  0  0  0
  188.3850  177.5950  144.3170 C   0  0  2  0  0  3  0  0  0  0  0  0
  188.5630  177.6980  146.7990 N   0  0  0  0  0  2  0  0  0  0  0  0
  184.8870  178.3890  145.8930 C   0  0  0  0  0  2  0  0  0  0  0  0
  184.6290  179.4510  144.8230 C   0  0  0  0  0  2  0  0  0  0  0  0
  184.1550  178.8290  143.5090 C   0  0  2  0  0  3  0  0  0  0  0  0
  185.1250  179.4310  140.0680 O   0  0  0  0  0  1  0  0  0  0  0  0
  184.4290  178.8310  141.1200 C   0  0  1  0  0  3  0  0  0  0  0  0
  184.9530  179.3390  142.3880 N   0  0  0  0  0  2  0  0  0  0  0  0
  182.2580  178.4790  142.0740 O   0  0  0  0  0  0  0  0  0  0  0  0
  182.6600  179.1000  143.2680 C   0  0  1  0  0  3  0  0  0  0  0  0
  182.9220  179.1290  141.0180 C   0  0  2  0  0  3  0  0  0  0  0  0
  182.3550  178.6060  139.7050 C   0  0  0  0  0  2  0  0  0  0  0  0
  181.7070  177.3840  139.9150 O   0  0  0  0  0  1  0  0  0  0  0  0
  181.9120  178.5770  144.3230 O   0  0  0  0  0  0  0  0  0  0  0  0
  180.5830  178.6740  143.9080 C   0  0  0  0  0  1  0  0  0  0  0  0
  188.2840  176.5210  143.2410 C   0  0  0  0  0  2  0  0  0  0  0  0
  190.9030  177.3080  140.4950 C   0  0  0  0  0  2  0  0  0  0  0  0
  188.8810  176.9620  141.9820 N   0  0  0  0  0  0  0  0  0  0  0  0
  190.8820  175.7850  142.3280 O   0  0  0  0  0  0  0  0  0  0  0  0
  190.2300  176.6140  141.6360 C   0  0  0  0  0  0  0  0  0  0  0  0
  188.1340  177.8610  141.1570 C   0  0  0  0  0  3  0  0  0  0  0  0
  189.8970  177.7350  139.4080 C   0  0  2  0  0  3  0  0  0  0  0  0
  188.5990  178.2520  139.9690 C   0  0  0  0  0  3  0  0  0  0  0  0
  189.6560  176.6780  138.3100 C   0  0  2  0  0  3  0  0  0  0  0  0
  190.8360  174.5850  138.1550 O   0  0  0  0  0  1  0  0  0  0  0  0
  190.8580  175.8340  137.9910 C   0  0  0  0  0  0  0  0  0  0  0  0
  191.9800  176.4330  137.4340 O   0  0  0  0  0  0  0  0  0  0  0  0
  189.0050  178.6930  136.8930 C   0  0  0  0  0  1  0  0  0  0  0  0
  188.9030  177.1870  137.0670 C   0  0  2  0  0  3  0  0  0  0  0  0
  187.4350  176.7900  137.1040 C   0  0  0  0  0  2  0  0  0  0  0  0
  186.6190  177.9200  136.9860 O   0  0  0  0  0  0  0  0  0  0  0  0
  185.3330  177.4470  137.2560 C   0  0  0  0  0  1  0  0  0  0  0  0
  1  3  2  0  0  0  0
  2  8  1  1  0  0  0
  2  1  1  0  0  0  0
  4  7  1  0  0  0  0
  5  2  1  0  0  0  0
  6 21  1  6  0  0  0
  6  5  1  0  0  0  0
  6  4  1  0  0  0  0
  7  1  1  0  0  0  0
  9  8  1  0  0  0  0
 10  9  1  1  0  0  0
 12 11  1  6  0  0  0
 12 13  1  0  0  0  0
 13 10  1  0  0  0  0
 14 15  1  0  0  0  0
 15 10  1  0  0  0  0
 15 19  1  1  0  0  0
 16 17  1  6  0  0  0
 16 12  1  0  0  0  0
 16 14  1  0  0  0  0
 17 18  1  0  0  0  0
 20 19  1  0  0  0  0
 22 25  1  0  0  0  0
 23 21  1  0  0  0  0
 25 23  1  0  0  0  0
 25 24  2  0  0  0  0
 26 23  1  0  0  0  0
 27 29  1  6  0  0  0
 27 28  1  0  0  0  0
 27 22  1  0  0  0  0
 28 26  2  0  0  0  0
 29 31  1  6  0  0  0
 31 30  1  0  0  0  0
 32 31  2  0  0  0  0
 34 33  1  1  0  0  0
 34 35  1  0  0  0  0
 34 29  1  0  0  0  0
 36 35  1  0  0  0  0
 36 37  1  0  0  0  0
M  END
>  <MODEL>
1

>  <REMARK>
 VINA RESULT:      -8.1      0.000      0.000
  Name = 
  12 active torsions:
  status: ('A' for Active; 'I' for Inactive)
    1  A    between atoms: C_2  and  C_11
    2  A    between atoms: O_4  and  C_5
    3  A    between atoms: C_5  and  C_16
    4  A    between atoms: C_6  and  C_36
    5  A    between atoms: O_10  and  C_33
    6  A    between atoms: C_11  and  C_21
    7  A    between atoms: C_12  and  C_21
    8  A    between atoms: N_15  and  C_18
    9  A    between atoms: C_16  and  C_20
   10  A    between atoms: C_18  and  C_28
   11  A    between atoms: C_20  and  C_32
   12  A    between atoms: C_20  and  C_35
                            x       y       z     vdW  Elec       q    Type
                         _______ _______ _______ _____ _____    ______ ____

>  <TORSDO>
F 12

$$$$
=
 OpenBabel11062412273D

 37 39  0  0  1  0  0  0  0  0999 V2000
  185.0370  178.8400  145.7900 C   0  0  0  0  0  0  0  0  0  0  0  0
  186.0970  178.6100  144.7510 C   0  0  2  0  0  3  0  0  0  0  0  0
  185.2930  178.7880  147.0240 O   0  0  0  0  0  0  0  0  0  0  0  0
  183.4840  179.4390  143.9390 C   0  0  0  0  0  2  0  0  0  0  0  0
  185.4880  177.8190  143.5930 C   0  0  0  0  0  2  0  0  0  0  0  0
  184.2190  178.4600  143.0010 C   0  0  2  0  0  3  0  0  0  0  0  0
  183.7110  179.1270  145.3460 N   0  0  0  0  0  2  0  0  0  0  0  0
  187.3720  177.9420  145.2680 C   0  0  0  0  0  2  0  0  0  0  0  0
  187.8690  176.8220  144.3510 C   0  0  0  0  0  2  0  0  0  0  0  0
  188.8510  177.3430  143.3020 C   0  0  2  0  0  3  0  0  0  0  0  0
  188.5950  177.6360  139.6970 O   0  0  0  0  0  1  0  0  0  0  0  0
  189.1890  177.7520  140.9560 C   0  0  1  0  0  3  0  0  0  0  0  0
  188.2180  177.3600  141.9780 N   0  0  0  0  0  2  0  0  0  0  0  0
  191.0240  177.0350  142.3200 O   0  0  0  0  0  0  0  0  0  0  0  0
  190.1370  176.4990  143.2680 C   0  0  1  0  0  3  0  0  0  0  0  0
  190.4410  176.8610  141.0530 C   0  0  2  0  0  3  0  0  0  0  0  0
  191.4670  177.2540  139.9980 C   0  0  0  0  0  2  0  0  0  0  0  0
  192.7060  177.4950  140.6010 O   0  0  0  0  0  1  0  0  0  0  0  0
  190.7470  176.5240  144.5230 O   0  0  0  0  0  0  0  0  0  0  0  0
  191.4240  177.7420  144.5720 C   0  0  0  0  0  1  0  0  0  0  0  0
  184.5790  179.1480  141.6890 C   0  0  0  0  0  2  0  0  0  0  0  0
  182.9240  178.6670  138.2180 C   0  0  0  0  0  2  0  0  0  0  0  0
  183.8990  178.5300  140.5530 N   0  0  0  0  0  0  0  0  0  0  0  0
  184.5450  180.2080  139.0430 O   0  0  0  0  0  0  0  0  0  0  0  0
  183.8580  179.1740  139.2700 C   0  0  0  0  0  0  0  0  0  0  0  0
  183.1580  177.3270  140.7790 C   0  0  0  0  0  3  0  0  0  0  0  0
  182.6840  177.1490  138.3450 C   0  0  2  0  0  3  0  0  0  0  0  0
  182.5660  176.6840  139.7720 C   0  0  0  0  0  3  0  0  0  0  0  0
  183.6750  176.2780  137.5460 C   0  0  2  0  0  3  0  0  0  0  0  0
  184.7010  177.5080  135.7490 O   0  0  0  0  0  0  0  0  0  0  0  0
  184.8040  177.0440  136.9160 C   0  0  0  0  0  0  0  0  0  0  0  0
  185.9440  177.3100  137.6630 O   0  0  0  0  0  1  0  0  0  0  0  0
  181.5320  175.0930  136.8430 C   0  0  0  0  0  1  0  0  0  0  0  0
  183.0260  175.2420  136.6100 C   0  0  2  0  0  3  0  0  0  0  0  0
  183.6870  173.8780  136.7440 C   0  0  0  0  0  2  0  0  0  0  0  0
  184.3800  173.7870  137.9560 O   0  0  0  0  0  0  0  0  0  0  0  0
  185.4800  172.9770  137.6650 C   0  0  0  0  0  1  0  0  0  0  0  0
  1  3  2  0  0  0  0
  2  8  1  1  0  0  0
  2  1  1  0  0  0  0
  4  7  1  0  0  0  0
  5  2  1  0  0  0  0
  6 21  1  6  0  0  0
  6  5  1  0  0  0  0
  6  4  1  0  0  0  0
  7  1  1  0  0  0  0
  9  8  1  0  0  0  0
 10  9  1  1  0  0  0
 12 11  1  6  0  0  0
 12 16  1  0  0  0  0
 12 13  1  0  0  0  0
 13 10  1  0  0  0  0
 14 15  1  0  0  0  0
 15 10  1  0  0  0  0
 15 19  1  1  0  0  0
 16 17  1  6  0  0  0
 16 14  1  0  0  0  0
 17 18  1  0  0  0  0
 19 20  1  0  0  0  0
 22 27  1  0  0  0  0
 22 25  1  0  0  0  0
 23 26  1  0  0  0  0
 23 21  1  0  0  0  0
 24 25  2  0  0  0  0
 25 23  1  0  0  0  0
 27 29  1  1  0  0  0
 27 28  1  0  0  0  0
 28 26  2  0  0  0  0
 29 31  1  6  0  0  0
 30 31  2  0  0  0  0
 31 32  1  0  0  0  0
 34 35  1  0  0  0  0
 34 33  1  1  0  0  0
 34 29  1  0  0  0  0
 35 36  1  0  0  0  0
 37 36  1  0  0  0  0
M  END
>  <MODEL>
2

>  <REMARK>
 VINA RESULT:      -7.9      2.365      6.405
  Name = 
  12 active torsions:
  status: ('A' for Active; 'I' for Inactive)
    1  A    between atoms: C_2  and  C_11
    2  A    between atoms: O_4  and  C_5
    3  A    between atoms: C_5  and  C_16
    4  A    between atoms: C_6  and  C_36
    5  A    between atoms: O_10  and  C_33
    6  A    between atoms: C_11  and  C_21
    7  A    between atoms: C_12  and  C_21
    8  A    between atoms: N_15  and  C_18
    9  A    between atoms: C_16  and  C_20
   10  A    between atoms: C_18  and  C_28
   11  A    between atoms: C_20  and  C_32
   12  A    between atoms: C_20  and  C_35
                            x       y       z     vdW  Elec       q    Type
                         _______ _______ _______ _____ _____    ______ ____

>  <TORSDO>
F 12

$$$$
=
 OpenBabel11062412273D

 37 39  0  0  1  0  0  0  0  0999 V2000
  186.0520  178.3440  146.6520 C   0  0  0  0  0  0  0  0  0  0  0  0
  185.4570  177.9610  145.3280 C   0  0  2  0  0  3  0  0  0  0  0  0
  185.3520  178.8410  147.5770 O   0  0  0  0  0  0  0  0  0  0  0  0
  188.1880  177.3230  145.8830 C   0  0  0  0  0  2  0  0  0  0  0  0
  186.4510  178.3140  144.2210 C   0  0  0  0  0  2  0  0  0  0  0  0
  187.8530  177.7100  144.4290 C   0  0  2  0  0  3  0  0  0  0  0  0
  187.4490  178.1290  146.8500 N   0  0  0  0  0  2  0  0  0  0  0  0
  184.0780  178.5580  145.0440 C   0  0  0  0  0  2  0  0  0  0  0  0
  184.0390  179.3750  143.7500 C   0  0  0  0  0  2  0  0  0  0  0  0
  182.6380  179.4020  143.1380 C   0  0  2  0  0  3  0  0  0  0  0  0
  179.4820  178.0350  144.2820 O   0  0  0  0  0  1  0  0  0  0  0  0
  180.3500  178.7250  143.4320 C   0  0  1  0  0  3  0  0  0  0  0  0
  181.6690  178.8000  144.0610 N   0  0  0  0  0  2  0  0  0  0  0  0
  181.3120  178.7630  141.2380 O   0  0  0  0  0  0  0  0  0  0  0  0
  182.6050  178.6790  141.7800 C   0  0  1  0  0  3  0  0  0  0  0  0
  180.4580  178.0170  142.0700 C   0  0  2  0  0  3  0  0  0  0  0  0
  179.0940  177.9300  141.3960 C   0  0  0  0  0  2  0  0  0  0  0  0
  178.9310  178.9950  140.5050 O   0  0  0  0  0  1  0  0  0  0  0  0
  183.5030  179.2860  140.9030 O   0  0  0  0  0  0  0  0  0  0  0  0
  184.1280  178.2310  140.2380 C   0  0  0  0  0  1  0  0  0  0  0  0
  188.0140  176.5070  143.5070 C   0  0  0  0  0  2  0  0  0  0  0  0
  191.0260  176.9600  141.1120 C   0  0  0  0  0  2  0  0  0  0  0  0
  188.8050  176.8370  142.3230 N   0  0  0  0  0  0  0  0  0  0  0  0
  190.6470  175.5430  142.9900 O   0  0  0  0  0  0  0  0  0  0  0  0
  190.1570  176.3770  142.1800 C   0  0  0  0  0  0  0  0  0  0  0  0
  188.2450  177.7400  141.3650 C   0  0  0  0  0  3  0  0  0  0  0  0
  190.2090  177.3980  139.8800 C   0  0  2  0  0  3  0  0  0  0  0  0
  188.8920  178.0330  140.2370 C   0  0  0  0  0  3  0  0  0  0  0  0
  190.0360  176.3020  138.8080 C   0  0  2  0  0  3  0  0  0  0  0  0
  191.4820  174.5700  137.9680 O   0  0  0  0  0  1  0  0  0  0  0  0
  191.3270  175.7930  138.2300 C   0  0  0  0  0  0  0  0  0  0  0  0
  192.3320  176.6960  137.9110 O   0  0  0  0  0  0  0  0  0  0  0  0
  188.3470  175.3180  137.1730 C   0  0  0  0  0  1  0  0  0  0  0  0
  188.9510  176.5860  137.7530 C   0  0  2  0  0  3  0  0  0  0  0  0
  189.4890  177.4440  136.6170 C   0  0  0  0  0  2  0  0  0  0  0  0
  189.1840  178.7910  136.8340 O   0  0  0  0  0  0  0  0  0  0  0  0
  187.8090  178.8760  136.6020 C   0  0  0  0  0  1  0  0  0  0  0  0
  1  7  1  0  0  0  0
  1  3  2  0  0  0  0
  2  8  1  6  0  0  0
  2  1  1  0  0  0  0
  4  7  1  0  0  0  0
  5  6  1  0  0  0  0
  5  2  1  0  0  0  0
  6 21  1  6  0  0  0
  6  4  1  0  0  0  0
  9  8  1  0  0  0  0
 10  9  1  1  0  0  0
 10 13  1  0  0  0  0
 12 13  1  0  0  0  0
 12 11  1  1  0  0  0
 14 15  1  0  0  0  0
 14 16  1  0  0  0  0
 15 19  1  6  0  0  0
 15 10  1  0  0  0  0
 16 17  1  6  0  0  0
 16 12  1  0  0  0  0
 18 17  1  0  0  0  0
 20 19  1  0  0  0  0
 22 25  1  0  0  0  0
 23 21  1  0  0  0  0
 25 23  1  0  0  0  0
 25 24  2  0  0  0  0
 26 23  1  0  0  0  0
 27 29  1  6  0  0  0
 27 28  1  0  0  0  0
 27 22  1  0  0  0  0
 28 26  2  0  0  0  0
 29 31  1  6  0  0  0
 30 31  1  0  0  0  0
 32 31  2  0  0  0  0
 34 33  1  6  0  0  0
 34 29  1  0  0  0  0
 35 36  1  0  0  0  0
 35 34  1  0  0  0  0
 37 36  1  0  0  0  0
M  END
>  <MODEL>
3

>  <REMARK>
 VINA RESULT:      -7.9      1.447      2.420
  Name = 
  12 active torsions:
  status: ('A' for Active; 'I' for Inactive)
    1  A    between atoms: C_2  and  C_11
    2  A    between atoms: O_4  and  C_5
    3  A    between atoms: C_5  and  C_16
    4  A    between atoms: C_6  and  C_36
    5  A    between atoms: O_10  and  C_33
    6  A    between atoms: C_11  and  C_21
    7  A    between atoms: C_12  and  C_21
    8  A    between atoms: N_15  and  C_18
    9  A    between atoms: C_16  and  C_20
   10  A    between atoms: C_18  and  C_28
   11  A    between atoms: C_20  and  C_32
   12  A    between atoms: C_20  and  C_35
                            x       y       z     vdW  Elec       q    Type
                         _______ _______ _______ _____ _____    ______ ____

>  <TORSDO>
F 12

$$$$
=
 OpenBabel11062412273D

 37 39  0  0  1  0  0  0  0  0999 V2000
  190.0450  177.0350  136.3350 C   0  0  0  0  0  0  0  0  0  0  0  0
  189.1230  177.8450  137.2010 C   0  0  2  0  0  3  0  0  0  0  0  0
  189.9080  176.9860  135.0820 O   0  0  0  0  0  0  0  0  0  0  0  0
  191.4040  176.5790  138.3700 C   0  0  0  0  0  2  0  0  0  0  0  0
  188.8540  177.0710  138.4930 C   0  0  0  0  0  2  0  0  0  0  0  0
  190.1320  176.6450  139.2390 C   0  0  2  0  0  3  0  0  0  0  0  0
  191.0990  176.3110  136.9690 N   0  0  0  0  0  2  0  0  0  0  0  0
  187.8170  178.2710  136.5290 C   0  0  0  0  0  2  0  0  0  0  0  0
  186.7240  177.2030  136.6240 C   0  0  0  0  0  2  0  0  0  0  0  0
  185.4390  177.7590  137.2360 C   0  0  2  0  0  3  0  0  0  0  0  0
  184.8430  179.7010  140.2390 O   0  0  0  0  0  1  0  0  0  0  0  0
  184.5170  179.0270  139.0600 C   0  0  1  0  0  3  0  0  0  0  0  0
  185.7500  178.5850  138.4090 N   0  0  0  0  0  2  0  0  0  0  0  0
  183.2860  177.1880  138.1400 O   0  0  0  0  0  0  0  0  0  0  0  0
  184.4650  176.6320  137.6190 C   0  0  1  0  0  3  0  0  0  0  0  0
  183.6160  177.8140  139.3550 C   0  0  2  0  0  3  0  0  0  0  0  0
  182.3240  178.2520  140.0320 C   0  0  0  0  0  2  0  0  0  0  0  0
  181.4920  177.1470  140.2380 O   0  0  0  0  0  1  0  0  0  0  0  0
  184.1500  175.8790  136.4880 O   0  0  0  0  0  0  0  0  0  0  0  0
  183.0660  175.0880  136.8710 C   0  0  0  0  0  1  0  0  0  0  0  0
  190.3450  177.5760  140.4260 C   0  0  0  0  0  2  0  0  0  0  0  0
  188.2190  175.9560  143.2330 C   0  0  0  0  0  2  0  0  0  0  0  0
  189.3230  177.3820  141.4530 N   0  0  0  0  0  0  0  0  0  0  0  0
  190.4430  175.5810  142.4600 O   0  0  0  0  0  0  0  0  0  0  0  0
  189.4070  176.2980  142.3900 C   0  0  0  0  0  0  0  0  0  0  0  0
  188.1660  178.2220  141.4240 C   0  0  0  0  0  3  0  0  0  0  0  0
  187.3550  177.1960  143.5380 C   0  0  2  0  0  3  0  0  0  0  0  0
  187.2280  178.1340  142.3680 C   0  0  0  0  0  3  0  0  0  0  0  0
  187.7520  177.9470  144.8260 C   0  0  2  0  0  3  0  0  0  0  0  0
  190.0420  178.6890  144.8720 O   0  0  0  0  0  0  0  0  0  0  0  0
  189.2010  177.8100  145.2010 C   0  0  0  0  0  0  0  0  0  0  0  0
  189.6000  176.7380  145.9870 O   0  0  0  0  0  1  0  0  0  0  0  0
  185.3540  178.1570  145.6610 C   0  0  0  0  0  1  0  0  0  0  0  0
  186.7820  177.7720  146.0090 C   0  0  2  0  0  3  0  0  0  0  0  0
  187.2310  178.5760  147.2200 C   0  0  0  0  0  2  0  0  0  0  0  0
  187.4570  177.7310  148.3120 O   0  0  0  0  0  0  0  0  0  0  0  0
  188.6460  178.2040  148.8730 C   0  0  0  0  0  1  0  0  0  0  0  0
  1  7  1  0  0  0  0
  1  2  1  0  0  0  0
  2  8  1  6  0  0  0
  2  5  1  0  0  0  0
  3  1  2  0  0  0  0
  4  6  1  0  0  0  0
  5  6  1  0  0  0  0
  6 21  1  1  0  0  0
  7  4  1  0  0  0  0
  8  9  1  0  0  0  0
 10  9  1  1  0  0  0
 10 15  1  0  0  0  0
 10 13  1  0  0  0  0
 12 16  1  0  0  0  0
 12 11  1  1  0  0  0
 13 12  1  0  0  0  0
 14 16  1  0  0  0  0
 15 19  1  6  0  0  0
 15 14  1  0  0  0  0
 16 17  1  6  0  0  0
 17 18  1  0  0  0  0
 19 20  1  0  0  0  0
 21 23  1  0  0  0  0
 22 27  1  0  0  0  0
 23 25  1  0  0  0  0
 25 24  2  0  0  0  0
 25 22  1  0  0  0  0
 26 23  1  0  0  0  0
 26 28  2  0  0  0  0
 27 29  1  1  0  0  0
 28 27  1  0  0  0  0
 29 31  1  1  0  0  0
 29 34  1  0  0  0  0
 30 31  2  0  0  0  0
 31 32  1  0  0  0  0
 34 33  1  6  0  0  0
 34 35  1  0  0  0  0
 35 36  1  0  0  0  0
 36 37  1  0  0  0  0
M  END
>  <MODEL>
4

>  <REMARK>
 VINA RESULT:      -7.9      2.137      7.222
  Name = 
  12 active torsions:
  status: ('A' for Active; 'I' for Inactive)
    1  A    between atoms: C_2  and  C_11
    2  A    between atoms: O_4  and  C_5
    3  A    between atoms: C_5  and  C_16
    4  A    between atoms: C_6  and  C_36
    5  A    between atoms: O_10  and  C_33
    6  A    between atoms: C_11  and  C_21
    7  A    between atoms: C_12  and  C_21
    8  A    between atoms: N_15  and  C_18
    9  A    between atoms: C_16  and  C_20
   10  A    between atoms: C_18  and  C_28
   11  A    between atoms: C_20  and  C_32
   12  A    between atoms: C_20  and  C_35
                            x       y       z     vdW  Elec       q    Type
                         _______ _______ _______ _____ _____    ______ ____

>  <TORSDO>
F 12

$$$$
=
 OpenBabel11062412273D

 37 39  0  0  1  0  0  0  0  0999 V2000
  183.5840  178.9180  144.3290 C   0  0  0  0  0  0  0  0  0  0  0  0
  184.9300  178.8680  143.6640 C   0  0  2  0  0  3  0  0  0  0  0  0
  183.4620  178.9470  145.5840 O   0  0  0  0  0  0  0  0  0  0  0  0
  182.5790  179.1640  142.0650 C   0  0  0  0  0  2  0  0  0  0  0  0
  184.8440  177.9460  142.4470 C   0  0  0  0  0  2  0  0  0  0  0  0
  183.7200  178.3190  141.4630 C   0  0  2  0  0  3  0  0  0  0  0  0
  182.4240  178.9360  143.4980 N   0  0  0  0  0  2  0  0  0  0  0  0
  186.0860  178.4680  144.5820 C   0  0  0  0  0  2  0  0  0  0  0  0
  187.1980  177.7180  143.8440 C   0  0  0  0  0  2  0  0  0  0  0  0
  188.1700  177.0460  144.8130 C   0  0  2  0  0  3  0  0  0  0  0  0
  188.7800  177.5490  148.3510 O   0  0  0  0  0  1  0  0  0  0  0  0
  188.9430  176.9730  147.0900 C   0  0  1  0  0  3  0  0  0  0  0  0
  187.9430  177.5310  146.1790 N   0  0  0  0  0  2  0  0  0  0  0  0
  190.4860  176.6160  145.2910 O   0  0  0  0  0  0  0  0  0  0  0  0
  189.6320  177.2820  144.3980 C   0  0  1  0  0  3  0  0  0  0  0  0
  190.3560  177.2420  146.5430 C   0  0  2  0  0  3  0  0  0  0  0  0
  191.4140  176.6660  147.4760 C   0  0  0  0  0  2  0  0  0  0  0  0
  192.2700  175.8180  146.7650 O   0  0  0  0  0  1  0  0  0  0  0  0
  189.8410  176.7820  143.1130 O   0  0  0  0  0  0  0  0  0  0  0  0
  191.1260  177.2020  142.7660 C   0  0  0  0  0  1  0  0  0  0  0  0
  184.3320  179.0290  140.2610 C   0  0  0  0  0  2  0  0  0  0  0  0
  185.2710  177.5210  136.8170 C   0  0  0  0  0  2  0  0  0  0  0  0
  184.3210  178.1810  139.0710 N   0  0  0  0  0  0  0  0  0  0  0  0
  186.5040  178.7640  138.4340 O   0  0  0  0  0  0  0  0  0  0  0  0
  185.4260  178.1690  138.1560 C   0  0  0  0  0  0  0  0  0  0  0  0
  183.1260  177.4560  138.7670 C   0  0  0  0  0  3  0  0  0  0  0  0
  184.2710  176.3490  136.8580 C   0  0  2  0  0  3  0  0  0  0  0  0
  183.0730  176.6200  137.7300 C   0  0  0  0  0  3  0  0  0  0  0  0
  184.9060  174.9810  137.1800 C   0  0  2  0  0  3  0  0  0  0  0  0
  187.2740  174.5500  137.2590 O   0  0  0  0  0  1  0  0  0  0  0  0
  186.2530  174.7610  136.5500 C   0  0  0  0  0  0  0  0  0  0  0  0
  186.3560  174.7120  135.1670 O   0  0  0  0  0  0  0  0  0  0  0  0
  184.6020  172.4700  137.4910 C   0  0  0  0  0  1  0  0  0  0  0  0
  183.9560  173.7750  137.0570 C   0  0  2  0  0  3  0  0  0  0  0  0
  183.4310  173.6210  135.6380 C   0  0  0  0  0  2  0  0  0  0  0  0
  182.0880  174.0040  135.5680 O   0  0  0  0  0  0  0  0  0  0  0  0
  181.3850  172.7970  135.5540 C   0  0  0  0  0  1  0  0  0  0  0  0
  1  3  2  0  0  0  0
  2  1  1  0  0  0  0
  2  8  1  1  0  0  0
  4  7  1  0  0  0  0
  5  2  1  0  0  0  0
  6 21  1  6  0  0  0
  6  4  1  0  0  0  0
  6  5  1  0  0  0  0
  7  1  1  0  0  0  0
  9  8  1  0  0  0  0
 10  9  1  6  0  0  0
 10 13  1  0  0  0  0
 12 11  1  1  0  0  0
 13 12  1  0  0  0  0
 14 16  1  0  0  0  0
 15 19  1  6  0  0  0
 15 10  1  0  0  0  0
 15 14  1  0  0  0  0
 16 12  1  0  0  0  0
 16 17  1  1  0  0  0
 18 17  1  0  0  0  0
 20 19  1  0  0  0  0
 22 27  1  0  0  0  0
 22 25  1  0  0  0  0
 23 21  1  0  0  0  0
 25 24  2  0  0  0  0
 25 23  1  0  0  0  0
 26 23  1  0  0  0  0
 27 29  1  1  0  0  0
 27 28  1  0  0  0  0
 28 26  2  0  0  0  0
 29 31  1  6  0  0  0
 31 30  1  0  0  0  0
 32 31  2  0  0  0  0
 34 29  1  0  0  0  0
 34 33  1  6  0  0  0
 35 34  1  0  0  0  0
 36 35  1  0  0  0  0
 37 36  1  0  0  0  0
M  END
>  <MODEL>
5

>  <REMARK>
 VINA RESULT:      -7.5      2.738      6.809
  Name = 
  12 active torsions:
  status: ('A' for Active; 'I' for Inactive)
    1  A    between atoms: C_2  and  C_11
    2  A    between atoms: O_4  and  C_5
    3  A    between atoms: C_5  and  C_16
    4  A    between atoms: C_6  and  C_36
    5  A    between atoms: O_10  and  C_33
    6  A    between atoms: C_11  and  C_21
    7  A    between atoms: C_12  and  C_21
    8  A    between atoms: N_15  and  C_18
    9  A    between atoms: C_16  and  C_20
   10  A    between atoms: C_18  and  C_28
   11  A    between atoms: C_20  and  C_32
   12  A    between atoms: C_20  and  C_35
                            x       y       z     vdW  Elec       q    Type
                         _______ _______ _______ _____ _____    ______ ____

>  <TORSDO>
F 12

$$$$
=
 OpenBabel11062412273D

 37 39  0  0  1  0  0  0  0  0999 V2000
  185.2150  178.7840  146.0080 C   0  0  0  0  0  0  0  0  0  0  0  0
  186.2660  178.5320  144.9660 C   0  0  2  0  0  3  0  0  0  0  0  0
  185.4800  178.7550  147.2410 O   0  0  0  0  0  0  0  0  0  0  0  0
  183.6480  179.3510  144.1580 C   0  0  0  0  0  2  0  0  0  0  0  0
  185.6460  177.7190  143.8280 C   0  0  0  0  0  2  0  0  0  0  0  0
  184.3740  178.3520  143.2340 C   0  0  2  0  0  3  0  0  0  0  0  0
  183.8860  179.0650  145.5700 N   0  0  0  0  0  2  0  0  0  0  0  0
  187.5430  177.8710  145.4860 C   0  0  0  0  0  2  0  0  0  0  0  0
  188.1070  176.8270  144.5190 C   0  0  0  0  0  2  0  0  0  0  0  0
  189.0490  177.4550  143.4920 C   0  0  2  0  0  3  0  0  0  0  0  0
  189.2480  177.1260  139.8870 O   0  0  0  0  0  1  0  0  0  0  0  0
  189.5980  177.5970  141.1540 C   0  0  1  0  0  3  0  0  0  0  0  0
  188.6350  177.0890  142.1320 N   0  0  0  0  0  2  0  0  0  0  0  0
  191.3410  177.6660  142.7980 O   0  0  0  0  0  0  0  0  0  0  0  0
  190.5090  177.0370  143.7380 C   0  0  1  0  0  3  0  0  0  0  0  0
  191.0190  177.1420  141.5330 C   0  0  2  0  0  3  0  0  0  0  0  0
  192.0380  177.6630  140.5280 C   0  0  0  0  0  2  0  0  0  0  0  0
  192.2090  176.7360  139.4940 O   0  0  0  0  0  1  0  0  0  0  0  0
  190.8980  177.4250  145.0190 O   0  0  0  0  0  0  0  0  0  0  0  0
  191.6810  176.3720  145.4940 C   0  0  0  0  0  1  0  0  0  0  0  0
  184.7240  179.0140  141.9070 C   0  0  0  0  0  2  0  0  0  0  0  0
  182.6540  179.2820  138.6410 C   0  0  0  0  0  2  0  0  0  0  0  0
  183.6860  178.7910  140.9020 N   0  0  0  0  0  0  0  0  0  0  0  0
  184.9320  179.7530  139.1610 O   0  0  0  0  0  0  0  0  0  0  0  0
  183.8360  179.2700  139.5580 C   0  0  0  0  0  0  0  0  0  0  0  0
  182.4550  178.1950  141.3220 C   0  0  0  0  0  3  0  0  0  0  0  0
  181.6640  178.1460  138.9660 C   0  0  2  0  0  3  0  0  0  0  0  0
  181.4940  177.9110  140.4430 C   0  0  0  0  0  3  0  0  0  0  0  0
  181.9350  176.8290  138.2100 C   0  0  2  0  0  3  0  0  0  0  0  0
  184.2080  176.3310  137.5950 O   0  0  0  0  0  1  0  0  0  0  0  0
  183.1170  176.8790  137.2840 C   0  0  0  0  0  0  0  0  0  0  0  0
  182.9770  177.4710  136.0360 O   0  0  0  0  0  0  0  0  0  0  0  0
  179.4580  177.0460  137.6540 C   0  0  0  0  0  1  0  0  0  0  0  0
  180.6900  176.1590  137.5980 C   0  0  2  0  0  3  0  0  0  0  0  0
  180.3790  174.8340  138.2770 C   0  0  0  0  0  2  0  0  0  0  0  0
  180.8000  173.7650  137.4800 O   0  0  0  0  0  0  0  0  0  0  0  0
  180.0790  172.6700  137.9640 C   0  0  0  0  0  1  0  0  0  0  0  0
  1  3  2  0  0  0  0
  2  8  1  1  0  0  0
  2  1  1  0  0  0  0
  4  7  1  0  0  0  0
  5  2  1  0  0  0  0
  6 21  1  6  0  0  0
  6  5  1  0  0  0  0
  6  4  1  0  0  0  0
  7  1  1  0  0  0  0
  9  8  1  0  0  0  0
 10 15  1  0  0  0  0
 10  9  1  1  0  0  0
 12 11  1  6  0  0  0
 12 16  1  0  0  0  0
 12 13  1  0  0  0  0
 13 10  1  0  0  0  0
 14 15  1  0  0  0  0
 15 19  1  1  0  0  0
 16 17  1  6  0  0  0
 16 14  1  0  0  0  0
 18 17  1  0  0  0  0
 19 20  1  0  0  0  0
 22 27  1  0  0  0  0
 22 25  1  0  0  0  0
 23 26  1  0  0  0  0
 23 21  1  0  0  0  0
 24 25  2  0  0  0  0
 25 23  1  0  0  0  0
 27 29  1  6  0  0  0
 27 28  1  0  0  0  0
 28 26  2  0  0  0  0
 29 31  1  6  0  0  0
 31 30  1  0  0  0  0
 32 31  2  0  0  0  0
 34 33  1  1  0  0  0
 34 29  1  0  0  0  0
 34 35  1  0  0  0  0
 36 37  1  0  0  0  0
 36 35  1  0  0  0  0
M  END
>  <MODEL>
6

>  <REMARK>
 VINA RESULT:      -7.3      2.475      7.009
  Name = 
  12 active torsions:
  status: ('A' for Active; 'I' for Inactive)
    1  A    between atoms: C_2  and  C_11
    2  A    between atoms: O_4  and  C_5
    3  A    between atoms: C_5  and  C_16
    4  A    between atoms: C_6  and  C_36
    5  A    between atoms: O_10  and  C_33
    6  A    between atoms: C_11  and  C_21
    7  A    between atoms: C_12  and  C_21
    8  A    between atoms: N_15  and  C_18
    9  A    between atoms: C_16  and  C_20
   10  A    between atoms: C_18  and  C_28
   11  A    between atoms: C_20  and  C_32
   12  A    between atoms: C_20  and  C_35
                            x       y       z     vdW  Elec       q    Type
                         _______ _______ _______ _____ _____    ______ ____

>  <TORSDO>
F 12

$$$$
=
 OpenBabel11062412273D

 37 39  0  0  1  0  0  0  0  0999 V2000
  190.7180  176.9050  137.6520 C   0  0  0  0  0  0  0  0  0  0  0  0
  189.7200  177.8920  138.1840 C   0  0  2  0  0  3  0  0  0  0  0  0
  190.8180  176.6580  136.4190 O   0  0  0  0  0  0  0  0  0  0  0  0
  191.6240  176.7180  139.9640 C   0  0  0  0  0  2  0  0  0  0  0  0
  189.1470  177.3550  139.4970 C   0  0  0  0  0  2  0  0  0  0  0  0
  190.2200  176.9910  140.5400 C   0  0  2  0  0  3  0  0  0  0  0  0
  191.5700  176.2400  138.5860 N   0  0  0  0  0  2  0  0  0  0  0  0
  188.6040  178.2690  137.2070 C   0  0  0  0  0  2  0  0  0  0  0  0
  187.5110  177.2030  137.1140 C   0  0  0  0  0  2  0  0  0  0  0  0
  186.1130  177.8110  137.2360 C   0  0  2  0  0  3  0  0  0  0  0  0
  184.5570  179.7660  139.8630 O   0  0  0  0  0  1  0  0  0  0  0  0
  184.6490  179.1100  138.6330 C   0  0  1  0  0  3  0  0  0  0  0  0
  186.0160  178.6190  138.4570 N   0  0  0  0  0  2  0  0  0  0  0  0
  183.7590  177.3280  137.3000 O   0  0  0  0  0  0  0  0  0  0  0  0
  185.0250  176.7240  137.2260 C   0  0  1  0  0  3  0  0  0  0  0  0
  183.6570  177.9350  138.5640 C   0  0  2  0  0  3  0  0  0  0  0  0
  182.2260  178.4250  138.7430 C   0  0  0  0  0  2  0  0  0  0  0  0
  182.0330  179.6130  138.0300 O   0  0  0  0  0  1  0  0  0  0  0  0
  185.1070  175.9890  136.0430 O   0  0  0  0  0  0  0  0  0  0  0  0
  184.3830  176.7280  135.1070 C   0  0  0  0  0  1  0  0  0  0  0  0
  190.2810  178.0920  141.5910 C   0  0  0  0  0  2  0  0  0  0  0  0
  189.1850  177.6710  145.2850 C   0  0  0  0  0  2  0  0  0  0  0  0
  189.4860  177.7550  142.7700 N   0  0  0  0  0  0  0  0  0  0  0  0
  190.7350  179.1270  144.2090 O   0  0  0  0  0  0  0  0  0  0  0  0
  189.8340  178.2550  144.0700 C   0  0  0  0  0  0  0  0  0  0  0  0
  188.4240  176.8080  142.6230 C   0  0  0  0  0  3  0  0  0  0  0  0
  187.7560  177.1730  144.9900 C   0  0  2  0  0  3  0  0  0  0  0  0
  187.6260  176.5040  143.6470 C   0  0  0  0  0  3  0  0  0  0  0  0
  186.6550  178.2320  145.2040 C   0  0  2  0  0  3  0  0  0  0  0  0
  186.6550  177.6180  147.5320 O   0  0  0  0  0  1  0  0  0  0  0  0
  186.1950  178.3670  146.6280 C   0  0  0  0  0  0  0  0  0  0  0  0
  185.3100  179.3830  146.9630 O   0  0  0  0  0  0  0  0  0  0  0  0
  185.6750  179.2200  143.0700 C   0  0  0  0  0  1  0  0  0  0  0  0
  185.5060  178.1950  144.1780 C   0  0  2  0  0  3  0  0  0  0  0  0
  184.1560  178.4060  144.8470 C   0  0  0  0  0  2  0  0  0  0  0  0
  183.4340  179.4050  144.1880 O   0  0  0  0  0  0  0  0  0  0  0  0
  182.1730  178.8410  143.9800 C   0  0  0  0  0  1  0  0  0  0  0  0
  1  2  1  0  0  0  0
  1  7  1  0  0  0  0
  2  8  1  6  0  0  0
  2  5  1  0  0  0  0
  3  1  2  0  0  0  0
  4  6  1  0  0  0  0
  5  6  1  0  0  0  0
  6 21  1  1  0  0  0
  7  4  1  0  0  0  0
  9  8  1  0  0  0  0
 10  9  1  1  0  0  0
 10 13  1  0  0  0  0
 12 11  1  1  0  0  0
 13 12  1  0  0  0  0
 14 16  1  0  0  0  0
 15 19  1  6  0  0  0
 15 10  1  0  0  0  0
 15 14  1  0  0  0  0
 16 12  1  0  0  0  0
 16 17  1  6  0  0  0
 18 17  1  0  0  0  0
 20 19  1  0  0  0  0
 21 23  1  0  0  0  0
 23 25  1  0  0  0  0
 25 24  2  0  0  0  0
 25 22  1  0  0  0  0
 26 23  1  0  0  0  0
 26 28  2  0  0  0  0
 27 29  1  6  0  0  0
 27 22  1  0  0  0  0
 28 27  1  0  0  0  0
 29 31  1  1  0  0  0
 31 32  2  0  0  0  0
 31 30  1  0  0  0  0
 34 33  1  6  0  0  0
 34 35  1  0  0  0  0
 34 29  1  0  0  0  0
 36 35  1  0  0  0  0
 37 36  1  0  0  0  0
M  END
>  <MODEL>
7

>  <REMARK>
 VINA RESULT:      -7.2      1.853      7.050
  Name = 
  12 active torsions:
  status: ('A' for Active; 'I' for Inactive)
    1  A    between atoms: C_2  and  C_11
    2  A    between atoms: O_4  and  C_5
    3  A    between atoms: C_5  and  C_16
    4  A    between atoms: C_6  and  C_36
    5  A    between atoms: O_10  and  C_33
    6  A    between atoms: C_11  and  C_21
    7  A    between atoms: C_12  and  C_21
    8  A    between atoms: N_15  and  C_18
    9  A    between atoms: C_16  and  C_20
   10  A    between atoms: C_18  and  C_28
   11  A    between atoms: C_20  and  C_32
   12  A    between atoms: C_20  and  C_35
                            x       y       z     vdW  Elec       q    Type
                         _______ _______ _______ _____ _____    ______ ____

>  <TORSDO>
F 12

$$$$
=
 OpenBabel11062412273D

 37 39  0  0  1  0  0  0  0  0999 V2000
  191.3220  176.9840  141.8520 C   0  0  0  0  0  0  0  0  0  0  0  0
  189.9790  176.3690  141.5840 C   0  0  2  0  0  3  0  0  0  0  0  0
  191.8060  177.0450  143.0160 O   0  0  0  0  0  0  0  0  0  0  0  0
  191.6110  177.2000  139.3890 C   0  0  0  0  0  2  0  0  0  0  0  0
  189.2650  177.1920  140.5110 C   0  0  0  0  0  2  0  0  0  0  0  0
  190.0890  177.3810  139.2230 C   0  0  2  0  0  3  0  0  0  0  0  0
  192.0560  177.5060  140.7450 N   0  0  0  0  0  2  0  0  0  0  0  0
  189.0960  176.1870  142.8200 C   0  0  0  0  0  2  0  0  0  0  0  0
  188.2060  177.4000  143.0980 C   0  0  0  0  0  2  0  0  0  0  0  0
  188.2550  177.8140  144.5690 C   0  0  2  0  0  3  0  0  0  0  0  0
  190.3420  176.7040  147.3180 O   0  0  0  0  0  1  0  0  0  0  0  0
  189.3510  177.4530  146.6790 C   0  0  1  0  0  3  0  0  0  0  0  0
  189.3700  177.1450  145.2490 N   0  0  0  0  0  2  0  0  0  0  0  0
  187.0040  177.9340  146.6190 O   0  0  0  0  0  0  0  0  0  0  0  0
  186.9280  177.5030  145.2840 C   0  0  1  0  0  3  0  0  0  0  0  0
  187.9630  177.1350  147.2650 C   0  0  2  0  0  3  0  0  0  0  0  0
  187.9200  177.4510  148.7550 C   0  0  0  0  0  2  0  0  0  0  0  0
  188.6280  178.6290  149.0150 O   0  0  0  0  0  1  0  0  0  0  0  0
  185.8840  178.1760  144.6490 O   0  0  0  0  0  0  0  0  0  0  0  0
  185.3490  179.0160  145.6260 C   0  0  0  0  0  1  0  0  0  0  0  0
  189.5540  176.4380  138.1520 C   0  0  0  0  0  2  0  0  0  0  0  0
  186.0330  176.2810  136.5400 C   0  0  0  0  0  2  0  0  0  0  0  0
  188.2060  176.8130  137.7290 N   0  0  0  0  0  0  0  0  0  0  0  0
  187.5510  174.6020  137.2880 O   0  0  0  0  0  0  0  0  0  0  0  0
  187.2850  175.8340  137.2270 C   0  0  0  0  0  0  0  0  0  0  0  0
  187.8660  178.2030  137.7030 C   0  0  0  0  0  3  0  0  0  0  0  0
  185.5270  177.6290  137.0880 C   0  0  2  0  0  3  0  0  0  0  0  0
  186.6350  178.6040  137.3840 C   0  0  0  0  0  3  0  0  0  0  0  0
  184.5480  177.5090  138.2740 C   0  0  2  0  0  3  0  0  0  0  0  0
  182.7120  176.0410  138.7940 O   0  0  0  0  0  1  0  0  0  0  0  0
  183.2670  176.7930  137.9490 C   0  0  0  0  0  0  0  0  0  0  0  0
  182.6500  177.0280  136.7280 O   0  0  0  0  0  0  0  0  0  0  0  0
  184.4170  178.5610  140.5910 C   0  0  0  0  0  1  0  0  0  0  0  0
  184.3520  178.7990  139.0930 C   0  0  2  0  0  3  0  0  0  0  0  0
  183.0320  179.4770  138.7550 C   0  0  0  0  0  2  0  0  0  0  0  0
  182.1940  179.5010  139.8750 O   0  0  0  0  0  0  0  0  0  0  0  0
  181.0350  180.1380  139.4250 C   0  0  0  0  0  1  0  0  0  0  0  0
  1  3  2  0  0  0  0
  2  1  1  0  0  0  0
  2  8  1  1  0  0  0
  4  7  1  0  0  0  0
  5  2  1  0  0  0  0
  6 21  1  6  0  0  0
  6  4  1  0  0  0  0
  6  5  1  0  0  0  0
  7  1  1  0  0  0  0
  8  9  1  0  0  0  0
 10  9  1  6  0  0  0
 10 13  1  0  0  0  0
 10 15  1  0  0  0  0
 12 16  1  0  0  0  0
 12 11  1  1  0  0  0
 13 12  1  0  0  0  0
 14 16  1  0  0  0  0
 15 19  1  6  0  0  0
 15 14  1  0  0  0  0
 16 17  1  1  0  0  0
 17 18  1  0  0  0  0
 19 20  1  0  0  0  0
 22 27  1  0  0  0  0
 22 25  1  0  0  0  0
 23 21  1  0  0  0  0
 25 24  2  0  0  0  0
 25 23  1  0  0  0  0
 26 23  1  0  0  0  0
 27 28  1  0  0  0  0
 27 29  1  1  0  0  0
 28 26  2  0  0  0  0
 29 31  1  6  0  0  0
 29 34  1  0  0  0  0
 31 30  1  0  0  0  0
 32 31  2  0  0  0  0
 34 33  1  1  0  0  0
 35 34  1  0  0  0  0
 35 36  1  0  0  0  0
 37 36  1  0  0  0  0
M  END
>  <MODEL>
8

>  <REMARK>
 VINA RESULT:      -7.1      2.317      6.458
  Name = 
  12 active torsions:
  status: ('A' for Active; 'I' for Inactive)
    1  A    between atoms: C_2  and  C_11
    2  A    between atoms: O_4  and  C_5
    3  A    between atoms: C_5  and  C_16
    4  A    between atoms: C_6  and  C_36
    5  A    between atoms: O_10  and  C_33
    6  A    between atoms: C_11  and  C_21
    7  A    between atoms: C_12  and  C_21
    8  A    between atoms: N_15  and  C_18
    9  A    between atoms: C_16  and  C_20
   10  A    between atoms: C_18  and  C_28
   11  A    between atoms: C_20  and  C_32
   12  A    between atoms: C_20  and  C_35
                            x       y       z     vdW  Elec       q    Type
                         _______ _______ _______ _____ _____    ______ ____

>  <TORSDO>
F 12

$$$$
=
 OpenBabel11062412273D

 37 39  0  0  1  0  0  0  0  0999 V2000
  186.1010  178.3510  146.5590 C   0  0  0  0  0  0  0  0  0  0  0  0
  186.7210  178.4280  145.1930 C   0  0  2  0  0  3  0  0  0  0  0  0
  186.7930  178.1500  147.5940 O   0  0  0  0  0  0  0  0  0  0  0  0
  183.9380  179.0010  145.5100 C   0  0  0  0  0  2  0  0  0  0  0  0
  185.7920  177.7430  144.1900 C   0  0  0  0  0  2  0  0  0  0  0  0
  184.3500  178.2850  144.2080 C   0  0  2  0  0  3  0  0  0  0  0  0
  184.6870  178.5160  146.6650 N   0  0  0  0  0  2  0  0  0  0  0  0
  188.1430  177.8710  145.1000 C   0  0  0  0  0  2  0  0  0  0  0  0
  188.2890  176.7940  144.0230 C   0  0  0  0  0  2  0  0  0  0  0  0
  189.0850  177.2990  142.8200 C   0  0  2  0  0  3  0  0  0  0  0  0
  188.1010  177.9960  139.4000 O   0  0  0  0  0  1  0  0  0  0  0  0
  188.9630  177.9070  140.4960 C   0  0  1  0  0  3  0  0  0  0  0  0
  188.1900  177.5300  141.6790 N   0  0  0  0  0  2  0  0  0  0  0  0
  190.9300  176.8350  141.3490 O   0  0  0  0  0  0  0  0  0  0  0  0
  190.2010  176.3140  142.4320 C   0  0  1  0  0  3  0  0  0  0  0  0
  190.0680  176.8660  140.2390 C   0  0  2  0  0  3  0  0  0  0  0  0
  190.8880  177.2410  139.0110 C   0  0  0  0  0  2  0  0  0  0  0  0
  192.1660  176.6800  139.0980 O   0  0  0  0  0  1  0  0  0  0  0  0
  191.0640  176.1340  143.5120 O   0  0  0  0  0  0  0  0  0  0  0  0
  191.6490  177.3830  143.7210 C   0  0  0  0  0  1  0  0  0  0  0  0
  184.1540  179.2040  143.0090 C   0  0  0  0  0  2  0  0  0  0  0  0
  180.7920  178.0930  141.4330 C   0  0  0  0  0  2  0  0  0  0  0  0
  183.1790  178.6590  142.0660 N   0  0  0  0  0  0  0  0  0  0  0  0
  181.3480  179.7020  143.1020 O   0  0  0  0  0  0  0  0  0  0  0  0
  181.7720  178.8900  142.2340 C   0  0  0  0  0  0  0  0  0  0  0  0
  183.6480  177.7780  141.0410 C   0  0  0  0  0  3  0  0  0  0  0  0
  181.3650  177.6880  140.0610 C   0  0  2  0  0  3  0  0  0  0  0  0
  182.8180  177.2960  140.1160 C   0  0  0  0  0  3  0  0  0  0  0  0
  181.0960  178.7050  138.9320 C   0  0  2  0  0  3  0  0  0  0  0  0
  178.9310  179.6460  139.4050 O   0  0  0  0  0  0  0  0  0  0  0  0
  180.1750  179.8280  139.3190 C   0  0  0  0  0  0  0  0  0  0  0  0
  180.7130  181.0610  139.6610 O   0  0  0  0  0  1  0  0  0  0  0  0
  179.9660  176.8100  137.6580 C   0  0  0  0  0  1  0  0  0  0  0  0
  180.7830  178.0870  137.5570 C   0  0  2  0  0  3  0  0  0  0  0  0
  182.0540  177.8010  136.7730 C   0  0  0  0  0  2  0  0  0  0  0  0
  181.9850  178.3770  135.5000 O   0  0  0  0  0  0  0  0  0  0  0  0
  181.7470  177.2990  134.6450 C   0  0  0  0  0  1  0  0  0  0  0  0
  1  7  1  0  0  0  0
  1  3  2  0  0  0  0
  2  8  1  1  0  0  0
  2  1  1  0  0  0  0
  4  7  1  0  0  0  0
  5  6  1  0  0  0  0
  5  2  1  0  0  0  0
  6 21  1  6  0  0  0
  6  4  1  0  0  0  0
  9  8  1  0  0  0  0
 10  9  1  1  0  0  0
 12 11  1  6  0  0  0
 12 13  1  0  0  0  0
 13 10  1  0  0  0  0
 14 15  1  0  0  0  0
 15 10  1  0  0  0  0
 15 19  1  1  0  0  0
 16 17  1  6  0  0  0
 16 12  1  0  0  0  0
 16 14  1  0  0  0  0
 17 18  1  0  0  0  0
 19 20  1  0  0  0  0
 22 25  1  0  0  0  0
 23 25  1  0  0  0  0
 23 21  1  0  0  0  0
 25 24  2  0  0  0  0
 26 23  1  0  0  0  0
 27 29  1  6  0  0  0
 27 28  1  0  0  0  0
 27 22  1  0  0  0  0
 28 26  2  0  0  0  0
 29 31  1  1  0  0  0
 31 30  2  0  0  0  0
 31 32  1  0  0  0  0
 34 33  1  1  0  0  0
 34 29  1  0  0  0  0
 35 34  1  0  0  0  0
 36 35  1  0  0  0  0
 37 36  1  0  0  0  0
M  END
>  <MODEL>
9

>  <REMARK>
 VINA RESULT:      -7.1      2.187      7.367
  Name = 
  12 active torsions:
  status: ('A' for Active; 'I' for Inactive)
    1  A    between atoms: C_2  and  C_11
    2  A    between atoms: O_4  and  C_5
    3  A    between atoms: C_5  and  C_16
    4  A    between atoms: C_6  and  C_36
    5  A    between atoms: O_10  and  C_33
    6  A    between atoms: C_11  and  C_21
    7  A    between atoms: C_12  and  C_21
    8  A    between atoms: N_15  and  C_18
    9  A    between atoms: C_16  and  C_20
   10  A    between atoms: C_18  and  C_28
   11  A    between atoms: C_20  and  C_32
   12  A    between atoms: C_20  and  C_35
                            x       y       z     vdW  Elec       q    Type
                         _______ _______ _______ _____ _____    ______ ____

>  <TORSDO>
F 12

$$$$
