=
 OpenBabel11062414453D

 27 31  0  0  1  0  0  0  0  0999 V2000
  189.0490  178.3080  139.7200 N   0  0  0  0  0  0  0  0  0  0  0  0
  191.9360  174.9660  138.1300 N   0  0  0  0  0  0  0  0  0  0  0  0
  187.7600  177.3310  137.9790 N   0  0  0  0  0  0  0  0  0  0  0  0
  188.7420  175.6670  136.5880 N   0  0  0  0  0  2  0  0  0  0  0  0
  190.0540  175.1440  136.6720 C   0  0  0  0  0  0  0  0  0  0  0  0
  191.9980  173.9520  135.9440 C   0  0  0  0  0  3  0  0  0  0  0  0
  193.9950  173.7820  137.4790 C   0  0  0  0  0  1  0  0  0  0  0  0
  192.6090  174.2440  137.1850 C   0  0  0  0  0  0  0  0  0  0  0  0
  187.9210  178.2440  139.0740 C   0  0  0  0  0  3  0  0  0  0  0  0
  190.6950  174.4080  135.6870 C   0  0  0  0  0  3  0  0  0  0  0  0
  189.7410  176.1230  138.7950 C   0  0  2  0  0  3  0  0  0  0  0  0
  190.6830  175.4290  137.8650 C   0  0  0  0  0  0  0  0  0  0  0  0
  188.6040  176.3500  137.8320 C   0  0  0  0  0  0  0  0  0  0  0  0
  190.2130  177.4820  139.3390 C   0  0  2  0  0  3  0  0  0  0  0  0
  188.7650  177.5880  143.2020 C   0  0  1  0  0  3  0  0  0  0  0  0
  192.3890  177.5780  140.2700 O   0  0  0  0  0  0  0  0  0  0  0  0
  191.6490  177.2980  142.9760 C   0  0  0  0  0  2  0  0  0  0  0  0
  189.3290  176.7100  142.1040 C   0  0  0  0  0  2  0  0  0  0  0  0
  187.4610  177.4550  145.0580 C   0  0  0  0  0  0  0  0  0  0  0  0
  191.1660  177.3710  140.4970 C   0  0  0  0  0  0  0  0  0  0  0  0
  187.4460  177.2000  143.6600 N   0  0  0  0  0  2  0  0  0  0  0  0
  188.8080  177.8420  145.5920 C   0  0  2  0  0  3  0  0  0  0  0  0
  190.7080  177.1350  141.8410 N   0  0  0  0  0  0  0  0  0  0  0  0
  189.6490  177.4050  144.4110 C   0  0  2  0  0  3  0  0  0  0  0  0
  191.0080  178.0290  144.1780 C   0  0  0  0  0  2  0  0  0  0  0  0
  186.4290  177.3480  145.7700 O   0  0  0  0  0  0  0  0  0  0  0  0
  189.1890  176.9870  146.7950 C   0  0  0  0  0  1  0  0  0  0  0  0
  3  9  1  0  0  0  0
  4  5  1  0  0  0  0
  4 13  1  0  0  0  0
  5 12  2  0  0  0  0
  6  8  1  0  0  0  0
  8  7  1  0  0  0  0
  8  2  2  0  0  0  0
  9  1  2  0  0  0  0
 10  6  2  0  0  0  0
 10  5  1  0  0  0  0
 11 13  1  6  0  0  0
 11 14  1  0  0  0  0
 12  2  1  0  0  0  0
 12 11  1  0  0  0  0
 13  3  2  0  0  0  0
 14  1  1  0  0  0  0
 14 20  1  1  0  0  0
 15 18  1  6  0  0  0
 15 21  1  0  0  0  0
 15 24  1  0  0  0  0
 16 20  2  0  0  0  0
 17 25  1  0  0  0  0
 19 22  1  0  0  0  0
 19 26  2  0  0  0  0
 20 23  1  0  0  0  0
 21 19  1  0  0  0  0
 22 27  1  1  0  0  0
 23 18  1  0  0  0  0
 23 17  1  0  0  0  0
 24 25  1  6  0  0  0
 24 22  1  0  0  0  0
M  END
>  <MODEL>
1

>  <REMARK>
 VINA RESULT:      -8.8      0.000      0.000
  Name = 
  1 active torsions:
  status: ('A' for Active; 'I' for Inactive)
    1  A    between atoms: C_9  and  C_27
                            x       y       z     vdW  Elec       q    Type
                         _______ _______ _______ _____ _____    ______ ____

>  <TORSDO>
F 1

$$$$
=
 OpenBabel11062414453D

 27 31  0  0  1  0  0  0  0  0999 V2000
  190.7970  177.8260  142.2790 N   0  0  0  0  0  0  0  0  0  0  0  0
  186.6780  178.0450  144.5200 N   0  0  0  0  0  0  0  0  0  0  0  0
  191.3610  176.9880  144.4300 N   0  0  0  0  0  0  0  0  0  0  0  0
  189.7310  177.0250  146.1650 N   0  0  0  0  0  2  0  0  0  0  0  0
  188.3980  177.4900  146.0800 C   0  0  0  0  0  0  0  0  0  0  0  0
  186.2650  178.2170  146.8880 C   0  0  0  0  0  3  0  0  0  0  0  0
  184.4540  178.8230  145.2380 C   0  0  0  0  0  1  0  0  0  0  0  0
  185.8320  178.3460  145.5490 C   0  0  0  0  0  0  0  0  0  0  0  0
  191.6860  177.2960  143.0670 C   0  0  0  0  0  3  0  0  0  0  0  0
  187.5720  177.7770  147.1560 C   0  0  0  0  0  3  0  0  0  0  0  0
  188.9840  177.1550  143.8200 C   0  0  2  0  0  3  0  0  0  0  0  0
  187.9520  177.6450  144.7850 C   0  0  0  0  0  0  0  0  0  0  0  0
  190.1120  176.9310  144.7940 C   0  0  0  0  0  0  0  0  0  0  0  0
  189.4390  178.1660  142.7540 C   0  0  2  0  0  3  0  0  0  0  0  0
  190.6720  176.9520  139.0070 C   0  0  1  0  0  3  0  0  0  0  0  0
  187.4960  179.0310  141.7130 O   0  0  0  0  0  0  0  0  0  0  0  0
  187.9580  177.9850  139.1350 C   0  0  0  0  0  2  0  0  0  0  0  0
  189.8160  176.6140  140.2100 C   0  0  0  0  0  2  0  0  0  0  0  0
  191.7320  175.9420  137.2690 C   0  0  0  0  0  0  0  0  0  0  0  0
  188.4990  178.2770  141.5860 C   0  0  0  0  0  0  0  0  0  0  0  0
  191.6760  175.9570  138.6890 N   0  0  0  0  0  2  0  0  0  0  0  0
  190.6720  176.7740  136.6110 C   0  0  2  0  0  3  0  0  0  0  0  0
  188.7670  177.6330  140.3270 N   0  0  0  0  0  0  0  0  0  0  0  0
  189.7600  176.9600  137.8050 C   0  0  2  0  0  3  0  0  0  0  0  0
  188.8160  178.1420  137.8590 C   0  0  0  0  0  2  0  0  0  0  0  0
  192.5920  175.2740  136.6390 O   0  0  0  0  0  0  0  0  0  0  0  0
  189.9210  175.9720  135.5540 C   0  0  0  0  0  1  0  0  0  0  0  0
  1 14  1  0  0  0  0
  1  9  2  0  0  0  0
  2 12  2  0  0  0  0
  2  8  1  0  0  0  0
  3 13  2  0  0  0  0
  5  4  1  0  0  0  0
  5 10  2  0  0  0  0
  6 10  1  0  0  0  0
  7  8  1  0  0  0  0
  8  6  2  0  0  0  0
  9  3  1  0  0  0  0
 11 12  1  1  0  0  0
 11 13  1  0  0  0  0
 12  5  1  0  0  0  0
 13  4  1  0  0  0  0
 14 20  1  6  0  0  0
 14 11  1  0  0  0  0
 15 18  1  1  0  0  0
 17 23  1  0  0  0  0
 18 23  1  0  0  0  0
 19 21  1  0  0  0  0
 20 16  2  0  0  0  0
 21 15  1  0  0  0  0
 22 27  1  6  0  0  0
 22 19  1  0  0  0  0
 22 24  1  0  0  0  0
 23 20  1  0  0  0  0
 24 25  1  6  0  0  0
 24 15  1  0  0  0  0
 25 17  1  0  0  0  0
 26 19  2  0  0  0  0
M  END
>  <MODEL>
2

>  <REMARK>
 VINA RESULT:      -8.8      1.974      8.163
  Name = 
  1 active torsions:
  status: ('A' for Active; 'I' for Inactive)
    1  A    between atoms: C_9  and  C_27
                            x       y       z     vdW  Elec       q    Type
                         _______ _______ _______ _____ _____    ______ ____

>  <TORSDO>
F 1

$$$$
=
 OpenBabel11062414453D

 27 31  0  0  1  0  0  0  0  0999 V2000
  182.7720  179.0020  142.7870 N   0  0  0  0  0  0  0  0  0  0  0  0
  187.3170  177.8660  142.4910 N   0  0  0  0  0  0  0  0  0  0  0  0
  183.4300  179.0030  145.0700 N   0  0  0  0  0  0  0  0  0  0  0  0
  185.6230  178.2870  145.6570 N   0  0  0  0  0  2  0  0  0  0  0  0
  186.6460  177.8520  144.7820 C   0  0  0  0  0  0  0  0  0  0  0  0
  188.7140  176.8230  144.1550 C   0  0  0  0  0  3  0  0  0  0  0  0
  189.4130  176.8210  141.7290 C   0  0  0  0  0  1  0  0  0  0  0  0
  188.4570  177.1850  142.8130 C   0  0  0  0  0  0  0  0  0  0  0  0
  182.4670  179.2280  144.0310 C   0  0  0  0  0  3  0  0  0  0  0  0
  187.7930  177.1670  145.1570 C   0  0  0  0  0  3  0  0  0  0  0  0
  185.1810  179.0110  143.3430 C   0  0  2  0  0  3  0  0  0  0  0  0
  186.4140  178.1740  143.4620 C   0  0  0  0  0  0  0  0  0  0  0  0
  184.6900  178.8890  144.7630 C   0  0  0  0  0  0  0  0  0  0  0  0
  184.0960  178.4760  142.3930 C   0  0  2  0  0  3  0  0  0  0  0  0
  182.4760  176.0580  139.4660 C   0  0  1  0  0  3  0  0  0  0  0  0
  185.3190  179.5500  140.6730 O   0  0  0  0  0  0  0  0  0  0  0  0
  184.0840  178.2710  138.4830 C   0  0  0  0  0  2  0  0  0  0  0  0
  182.3870  177.3960  140.1700 C   0  0  0  0  0  2  0  0  0  0  0  0
  181.1820  174.6050  138.2920 C   0  0  0  0  0  0  0  0  0  0  0  0
  184.3590  178.7780  140.9430 C   0  0  0  0  0  0  0  0  0  0  0  0
  181.2710  175.2560  139.5520 N   0  0  0  0  0  2  0  0  0  0  0  0
  182.1960  175.0740  137.2920 C   0  0  2  0  0  3  0  0  0  0  0  0
  183.6160  178.1450  139.8850 N   0  0  0  0  0  0  0  0  0  0  0  0
  182.6310  176.3430  137.9930 C   0  0  2  0  0  3  0  0  0  0  0  0
  183.9920  176.9380  137.7050 C   0  0  0  0  0  2  0  0  0  0  0  0
  180.3140  173.7250  138.0520 O   0  0  0  0  0  0  0  0  0  0  0  0
  181.5320  175.4560  135.9740 C   0  0  0  0  0  1  0  0  0  0  0  0
  1  9  2  0  0  0  0
  2  8  2  0  0  0  0
  2 12  1  0  0  0  0
  5 10  1  0  0  0  0
  5  4  1  0  0  0  0
  6 10  2  0  0  0  0
  7  8  1  0  0  0  0
  8  6  1  0  0  0  0
  9  3  1  0  0  0  0
 11 12  1  1  0  0  0
 11 13  1  0  0  0  0
 12  5  2  0  0  0  0
 13  3  2  0  0  0  0
 13  4  1  0  0  0  0
 14 20  1  6  0  0  0
 14  1  1  0  0  0  0
 14 11  1  0  0  0  0
 15 21  1  0  0  0  0
 15 18  1  1  0  0  0
 16 20  2  0  0  0  0
 17 23  1  0  0  0  0
 19 21  1  0  0  0  0
 22 27  1  6  0  0  0
 22 24  1  0  0  0  0
 22 19  1  0  0  0  0
 23 18  1  0  0  0  0
 23 20  1  0  0  0  0
 24 25  1  1  0  0  0
 24 15  1  0  0  0  0
 25 17  1  0  0  0  0
 26 19  2  0  0  0  0
M  END
>  <MODEL>
3

>  <REMARK>
 VINA RESULT:      -8.5      4.915      8.649
  Name = 
  1 active torsions:
  status: ('A' for Active; 'I' for Inactive)
    1  A    between atoms: C_9  and  C_27
                            x       y       z     vdW  Elec       q    Type
                         _______ _______ _______ _____ _____    ______ ____

>  <TORSDO>
F 1

$$$$
=
 OpenBabel11062414453D

 27 31  0  0  1  0  0  0  0  0999 V2000
  185.6810  179.0840  144.7010 N   0  0  0  0  0  0  0  0  0  0  0  0
  183.3100  178.5360  140.6870 N   0  0  0  0  0  0  0  0  0  0  0  0
  183.4320  179.0030  145.4640 N   0  0  0  0  0  0  0  0  0  0  0  0
  181.6580  178.9440  143.8770 N   0  0  0  0  0  2  0  0  0  0  0  0
  181.7700  178.9350  142.4670 C   0  0  0  0  0  0  0  0  0  0  0  0
  181.0260  179.1320  140.2000 C   0  0  0  0  0  3  0  0  0  0  0  0
  182.6610  178.7300  138.3190 C   0  0  0  0  0  1  0  0  0  0  0  0
  182.3310  178.7960  139.7710 C   0  0  0  0  0  0  0  0  0  0  0  0
  184.8460  179.0610  145.6990 C   0  0  0  0  0  3  0  0  0  0  0  0
  180.7420  179.1990  141.5740 C   0  0  0  0  0  3  0  0  0  0  0  0
  183.9210  178.2700  143.1680 C   0  0  2  0  0  3  0  0  0  0  0  0
  183.0370  178.6290  142.0180 C   0  0  0  0  0  0  0  0  0  0  0  0
  182.9900  178.6480  144.2920 C   0  0  0  0  0  0  0  0  0  0  0  0
  185.2180  179.0870  143.2980 C   0  0  2  0  0  3  0  0  0  0  0  0
  188.7430  177.6820  144.9190 C   0  0  1  0  0  3  0  0  0  0  0  0
  186.2720  178.9660  141.1810 O   0  0  0  0  0  0  0  0  0  0  0  0
  188.6330  177.6680  142.0150 C   0  0  0  0  0  2  0  0  0  0  0  0
  187.4440  177.3030  144.2380 C   0  0  0  0  0  2  0  0  0  0  0  0
  190.3270  176.7990  146.2890 C   0  0  0  0  0  0  0  0  0  0  0  0
  186.3220  178.6160  142.3920 C   0  0  0  0  0  0  0  0  0  0  0  0
  188.9340  177.0740  146.2220 N   0  0  0  0  0  2  0  0  0  0  0  0
  191.0590  177.0430  145.0040 C   0  0  2  0  0  3  0  0  0  0  0  0
  187.4530  177.8760  142.8880 N   0  0  0  0  0  0  0  0  0  0  0  0
  189.8630  177.1210  144.0780 C   0  0  2  0  0  3  0  0  0  0  0  0
  189.9700  177.8680  142.7660 C   0  0  0  0  0  2  0  0  0  0  0  0
  190.8760  176.3760  147.3400 O   0  0  0  0  0  0  0  0  0  0  0  0
  191.8940  175.8320  144.6070 C   0  0  0  0  0  1  0  0  0  0  0  0
  1  9  2  0  0  0  0
  2 12  1  0  0  0  0
  3  9  1  0  0  0  0
  4 13  1  0  0  0  0
  5  4  1  0  0  0  0
  6 10  2  0  0  0  0
  7  8  1  0  0  0  0
  8  6  1  0  0  0  0
  8  2  2  0  0  0  0
 10  5  1  0  0  0  0
 11 12  1  6  0  0  0
 11 14  1  0  0  0  0
 11 13  1  0  0  0  0
 12  5  2  0  0  0  0
 13  3  2  0  0  0  0
 14 20  1  6  0  0  0
 14  1  1  0  0  0  0
 15 18  1  6  0  0  0
 15 21  1  0  0  0  0
 16 20  2  0  0  0  0
 17 25  1  0  0  0  0
 17 23  1  0  0  0  0
 19 26  2  0  0  0  0
 20 23  1  0  0  0  0
 21 19  1  0  0  0  0
 22 27  1  6  0  0  0
 22 19  1  0  0  0  0
 23 18  1  0  0  0  0
 24 25  1  6  0  0  0
 24 15  1  0  0  0  0
 24 22  1  0  0  0  0
M  END
>  <MODEL>
4

>  <REMARK>
 VINA RESULT:      -8.4      4.602      7.538
  Name = 
  1 active torsions:
  status: ('A' for Active; 'I' for Inactive)
    1  A    between atoms: C_9  and  C_27
                            x       y       z     vdW  Elec       q    Type
                         _______ _______ _______ _____ _____    ______ ____

>  <TORSDO>
F 1

$$$$
=
 OpenBabel11062414453D

 27 31  0  0  1  0  0  0  0  0999 V2000
  185.2140  179.5390  143.3810 N   0  0  0  0  0  0  0  0  0  0  0  0
  183.9280  177.7270  139.2470 N   0  0  0  0  0  0  0  0  0  0  0  0
  182.8700  179.2740  143.6670 N   0  0  0  0  0  0  0  0  0  0  0  0
  181.5370  178.5750  141.8230 N   0  0  0  0  0  2  0  0  0  0  0  0
  181.9780  178.2650  140.5150 C   0  0  0  0  0  0  0  0  0  0  0  0
  181.7730  177.8240  138.1710 C   0  0  0  0  0  3  0  0  0  0  0  0
  183.8380  177.2740  136.8270 C   0  0  0  0  0  1  0  0  0  0  0  0
  183.1700  177.6120  138.1160 C   0  0  0  0  0  0  0  0  0  0  0  0
  184.1750  179.6090  144.1600 C   0  0  0  0  0  3  0  0  0  0  0  0
  181.1680  178.1520  139.3950 C   0  0  0  0  0  3  0  0  0  0  0  0
  183.9610  178.1290  141.7840 C   0  0  2  0  0  3  0  0  0  0  0  0
  183.3400  178.0720  140.4250 C   0  0  0  0  0  0  0  0  0  0  0  0
  182.7580  178.5970  142.5600 C   0  0  0  0  0  0  0  0  0  0  0  0
  185.0970  179.1510  141.9600 C   0  0  2  0  0  3  0  0  0  0  0  0
  188.0450  178.0440  144.6280 C   0  0  1  0  0  3  0  0  0  0  0  0
  186.7180  178.9290  140.2480 O   0  0  0  0  0  0  0  0  0  0  0  0
  188.7740  177.8140  141.8240 C   0  0  0  0  0  2  0  0  0  0  0  0
  187.0070  177.5530  143.6400 C   0  0  0  0  0  2  0  0  0  0  0  0
  189.1910  177.3430  146.4600 C   0  0  0  0  0  0  0  0  0  0  0  0
  186.4270  178.6710  141.4470 C   0  0  0  0  0  0  0  0  0  0  0  0
  187.8700  177.5430  145.9770 N   0  0  0  0  0  2  0  0  0  0  0  0
  190.2550  177.5290  145.4190 C   0  0  2  0  0  3  0  0  0  0  0  0
  187.3870  178.0260  142.3040 N   0  0  0  0  0  0  0  0  0  0  0  0
  189.3740  177.4800  144.1890 C   0  0  2  0  0  3  0  0  0  0  0  0
  189.8330  178.1330  142.9030 C   0  0  0  0  0  2  0  0  0  0  0  0
  189.4270  177.0250  147.6550 O   0  0  0  0  0  0  0  0  0  0  0  0
  191.2010  176.3340  145.3800 C   0  0  0  0  0  1  0  0  0  0  0  0
  1  9  2  0  0  0  0
  2 12  1  0  0  0  0
  3  9  1  0  0  0  0
  4 13  1  0  0  0  0
  5  4  1  0  0  0  0
  6 10  2  0  0  0  0
  7  8  1  0  0  0  0
  8  6  1  0  0  0  0
  8  2  2  0  0  0  0
 10  5  1  0  0  0  0
 11 12  1  6  0  0  0
 11 14  1  0  0  0  0
 11 13  1  0  0  0  0
 12  5  2  0  0  0  0
 13  3  2  0  0  0  0
 14 20  1  1  0  0  0
 14  1  1  0  0  0  0
 15 18  1  6  0  0  0
 15 21  1  0  0  0  0
 16 20  2  0  0  0  0
 17 23  1  0  0  0  0
 17 25  1  0  0  0  0
 19 26  2  0  0  0  0
 20 23  1  0  0  0  0
 21 19  1  0  0  0  0
 22 27  1  6  0  0  0
 22 19  1  0  0  0  0
 23 18  1  0  0  0  0
 24 25  1  6  0  0  0
 24 15  1  0  0  0  0
 24 22  1  0  0  0  0
M  END
>  <MODEL>
5

>  <REMARK>
 VINA RESULT:      -8.4      4.391      6.612
  Name = 
  1 active torsions:
  status: ('A' for Active; 'I' for Inactive)
    1  A    between atoms: C_9  and  C_27
                            x       y       z     vdW  Elec       q    Type
                         _______ _______ _______ _____ _____    ______ ____

>  <TORSDO>
F 1

$$$$
=
 OpenBabel11062414453D

 27 31  0  0  1  0  0  0  0  0999 V2000
  190.1780  177.2700  141.6500 N   0  0  0  0  0  0  0  0  0  0  0  0
  186.4350  178.2260  138.9850 N   0  0  0  0  0  0  0  0  0  0  0  0
  191.1430  177.4320  139.4850 N   0  0  0  0  0  0  0  0  0  0  0  0
  189.7280  177.7020  137.5900 N   0  0  0  0  0  2  0  0  0  0  0  0
  188.3170  177.8000  137.5800 C   0  0  0  0  0  0  0  0  0  0  0  0
  186.1180  177.8000  136.6340 C   0  0  0  0  0  3  0  0  0  0  0  0
  184.1270  178.2310  138.1240 C   0  0  0  0  0  1  0  0  0  0  0  0
  185.5960  178.0870  137.9160 C   0  0  0  0  0  0  0  0  0  0  0  0
  191.2460  177.2750  140.9070 C   0  0  0  0  0  3  0  0  0  0  0  0
  187.5050  177.6580  136.4650 C   0  0  0  0  0  3  0  0  0  0  0  0
  188.8630  178.2880  139.8220 C   0  0  2  0  0  3  0  0  0  0  0  0
  187.7760  178.0600  138.8210 C   0  0  0  0  0  0  0  0  0  0  0  0
  190.0390  177.8900  138.9680 C   0  0  0  0  0  0  0  0  0  0  0  0
  188.8250  177.3890  141.0690 C   0  0  2  0  0  3  0  0  0  0  0  0
  189.8360  177.1150  145.0610 C   0  0  1  0  0  3  0  0  0  0  0  0
  186.6500  178.0030  141.7770 O   0  0  0  0  0  0  0  0  0  0  0  0
  187.2050  178.2310  144.5330 C   0  0  0  0  0  2  0  0  0  0  0  0
  189.6600  178.0460  143.8790 C   0  0  0  0  0  2  0  0  0  0  0  0
  190.9560  176.9790  147.0340 C   0  0  0  0  0  0  0  0  0  0  0  0
  187.8540  177.8540  142.1200 C   0  0  0  0  0  0  0  0  0  0  0  0
  191.1670  177.1250  145.6360 N   0  0  0  0  0  2  0  0  0  0  0  0
  189.5140  177.0450  147.4420 C   0  0  2  0  0  3  0  0  0  0  0  0
  188.2450  178.0330  143.4940 N   0  0  0  0  0  0  0  0  0  0  0  0
  188.9480  177.6320  146.1660 C   0  0  2  0  0  3  0  0  0  0  0  0
  187.4900  177.4240  145.8200 C   0  0  0  0  0  2  0  0  0  0  0  0
  191.9070  176.8230  147.8430 O   0  0  0  0  0  0  0  0  0  0  0  0
  189.3070  178.0520  148.5670 C   0  0  0  0  0  1  0  0  0  0  0  0
  3  9  1  0  0  0  0
  4 13  1  0  0  0  0
  5  4  1  0  0  0  0
  5 12  2  0  0  0  0
  6  8  1  0  0  0  0
  8  7  1  0  0  0  0
  8  2  2  0  0  0  0
  9  1  2  0  0  0  0
 10  6  2  0  0  0  0
 10  5  1  0  0  0  0
 11 12  1  6  0  0  0
 11 14  1  0  0  0  0
 12  2  1  0  0  0  0
 13  3  2  0  0  0  0
 13 11  1  0  0  0  0
 14  1  1  0  0  0  0
 14 20  1  1  0  0  0
 15 18  1  6  0  0  0
 15 21  1  0  0  0  0
 15 24  1  0  0  0  0
 16 20  2  0  0  0  0
 17 25  1  0  0  0  0
 19 22  1  0  0  0  0
 19 26  2  0  0  0  0
 20 23  1  0  0  0  0
 21 19  1  0  0  0  0
 22 27  1  1  0  0  0
 23 18  1  0  0  0  0
 23 17  1  0  0  0  0
 24 25  1  6  0  0  0
 24 22  1  0  0  0  0
M  END
>  <MODEL>
6

>  <REMARK>
 VINA RESULT:      -8.3      2.836      4.590
  Name = 
  1 active torsions:
  status: ('A' for Active; 'I' for Inactive)
    1  A    between atoms: C_9  and  C_27
                            x       y       z     vdW  Elec       q    Type
                         _______ _______ _______ _____ _____    ______ ____

>  <TORSDO>
F 1

$$$$
=
 OpenBabel11062414453D

 27 31  0  0  1  0  0  0  0  0999 V2000
  191.9450  177.6600  140.5890 N   0  0  0  0  0  0  0  0  0  0  0  0
  189.2180  175.2980  137.5860 N   0  0  0  0  0  0  0  0  0  0  0  0
  193.5470  176.6990  139.1190 N   0  0  0  0  0  0  0  0  0  0  0  0
  192.8270  175.1700  137.4420 N   0  0  0  0  0  2  0  0  0  0  0  0
  191.5040  174.7450  137.1790 C   0  0  0  0  0  0  0  0  0  0  0  0
  189.7770  173.3780  136.2420 C   0  0  0  0  0  3  0  0  0  0  0  0
  187.3600  173.9520  136.6890 C   0  0  0  0  0  1  0  0  0  0  0  0
  188.8180  174.2230  136.8440 C   0  0  0  0  0  0  0  0  0  0  0  0
  193.1870  177.5490  140.2180 C   0  0  0  0  0  3  0  0  0  0  0  0
  191.1450  173.6480  136.4110 C   0  0  0  0  0  3  0  0  0  0  0  0
  191.1850  176.7170  138.4340 C   0  0  2  0  0  3  0  0  0  0  0  0
  190.5450  175.5400  137.7700 C   0  0  0  0  0  0  0  0  0  0  0  0
  192.6250  176.2980  138.2910 C   0  0  0  0  0  0  0  0  0  0  0  0
  190.8640  176.9000  139.9280 C   0  0  2  0  0  3  0  0  0  0  0  0
  189.3040  176.9490  143.7480 C   0  0  1  0  0  3  0  0  0  0  0  0
  188.7970  177.7890  139.1910 O   0  0  0  0  0  0  0  0  0  0  0  0
  187.6630  178.2500  141.7320 C   0  0  0  0  0  2  0  0  0  0  0  0
  189.9830  177.7640  142.6660 C   0  0  0  0  0  2  0  0  0  0  0  0
  189.0280  176.9140  146.0030 C   0  0  0  0  0  0  0  0  0  0  0  0
  189.5390  177.5620  140.1850 C   0  0  0  0  0  0  0  0  0  0  0  0
  190.0330  176.8910  144.9990 N   0  0  0  0  0  2  0  0  0  0  0  0
  187.6460  177.1590  145.4750 C   0  0  2  0  0  3  0  0  0  0  0  0
  189.0740  177.8460  141.5170 N   0  0  0  0  0  0  0  0  0  0  0  0
  188.0200  177.6610  144.0970 C   0  0  2  0  0  3  0  0  0  0  0  0
  187.0270  177.5590  142.9590 C   0  0  0  0  0  2  0  0  0  0  0  0
  189.2950  176.7530  147.2230 O   0  0  0  0  0  0  0  0  0  0  0  0
  186.9630  178.2940  146.2300 C   0  0  0  0  0  1  0  0  0  0  0  0
  2 12  1  0  0  0  0
  3  9  1  0  0  0  0
  4 13  1  0  0  0  0
  5  4  1  0  0  0  0
  5 12  2  0  0  0  0
  6 10  2  0  0  0  0
  6  8  1  0  0  0  0
  7  8  1  0  0  0  0
  8  2  2  0  0  0  0
  9  1  2  0  0  0  0
 10  5  1  0  0  0  0
 11 12  1  1  0  0  0
 11 14  1  0  0  0  0
 13 11  1  0  0  0  0
 13  3  2  0  0  0  0
 14 20  1  6  0  0  0
 14  1  1  0  0  0  0
 15 18  1  6  0  0  0
 15 24  1  0  0  0  0
 15 21  1  0  0  0  0
 16 20  2  0  0  0  0
 17 25  1  0  0  0  0
 19 26  2  0  0  0  0
 20 23  1  0  0  0  0
 21 19  1  0  0  0  0
 22 19  1  0  0  0  0
 22 27  1  1  0  0  0
 23 17  1  0  0  0  0
 23 18  1  0  0  0  0
 24 25  1  6  0  0  0
 24 22  1  0  0  0  0
M  END
>  <MODEL>
7

>  <REMARK>
 VINA RESULT:      -8.3      1.846      3.230
  Name = 
  1 active torsions:
  status: ('A' for Active; 'I' for Inactive)
    1  A    between atoms: C_9  and  C_27
                            x       y       z     vdW  Elec       q    Type
                         _______ _______ _______ _____ _____    ______ ____

>  <TORSDO>
F 1

$$$$
=
 OpenBabel11062414453D

 27 31  0  0  1  0  0  0  0  0999 V2000
  188.4680  178.9570  138.4390 N   0  0  0  0  0  0  0  0  0  0  0  0
  185.0720  175.9050  137.3500 N   0  0  0  0  0  0  0  0  0  0  0  0
  189.3380  177.9300  136.4800 N   0  0  0  0  0  0  0  0  0  0  0  0
  188.1760  176.0940  135.5070 N   0  0  0  0  0  2  0  0  0  0  0  0
  186.9670  175.5120  135.9520 C   0  0  0  0  0  0  0  0  0  0  0  0
  185.2420  173.8570  136.0910 C   0  0  0  0  0  3  0  0  0  0  0  0
  183.2490  174.2660  137.5850 C   0  0  0  0  0  1  0  0  0  0  0  0
  184.5490  174.6940  136.9960 C   0  0  0  0  0  0  0  0  0  0  0  0
  189.3990  178.9050  137.5320 C   0  0  0  0  0  3  0  0  0  0  0  0
  186.4710  174.2780  135.5580 C   0  0  0  0  0  3  0  0  0  0  0  0
  186.9570  177.6180  137.0130 C   0  0  2  0  0  3  0  0  0  0  0  0
  186.2770  176.2960  136.8510 C   0  0  0  0  0  0  0  0  0  0  0  0
  188.2140  177.3180  136.2380 C   0  0  0  0  0  0  0  0  0  0  0  0
  187.3390  178.0040  138.4530 C   0  0  2  0  0  3  0  0  0  0  0  0
  187.3210  177.6310  142.5630 C   0  0  1  0  0  3  0  0  0  0  0  0
  185.1340  178.8490  138.6300 O   0  0  0  0  0  0  0  0  0  0  0  0
  185.0260  179.0210  141.4430 C   0  0  0  0  0  2  0  0  0  0  0  0
  187.5340  178.5730  141.3960 C   0  0  0  0  0  2  0  0  0  0  0  0
  187.9090  177.3800  144.7430 C   0  0  0  0  0  0  0  0  0  0  0  0
  186.1970  178.5720  139.2490 C   0  0  0  0  0  0  0  0  0  0  0  0
  188.4660  177.4990  143.4410 N   0  0  0  0  0  2  0  0  0  0  0  0
  186.4270  177.6000  144.7930 C   0  0  2  0  0  3  0  0  0  0  0  0
  186.2600  178.7110  140.6810 N   0  0  0  0  0  0  0  0  0  0  0  0
  186.2500  178.2420  143.4340 C   0  0  2  0  0  3  0  0  0  0  0  0
  184.9060  178.1910  142.7420 C   0  0  0  0  0  2  0  0  0  0  0  0
  188.6150  177.1250  145.7530 O   0  0  0  0  0  0  0  0  0  0  0  0
  186.0590  178.6260  145.8590 C   0  0  0  0  0  1  0  0  0  0  0  0
  1 14  1  0  0  0  0
  3  9  1  0  0  0  0
  4  5  1  0  0  0  0
  4 13  1  0  0  0  0
  5 12  1  0  0  0  0
  6  8  2  0  0  0  0
  8  2  1  0  0  0  0
  8  7  1  0  0  0  0
  9  1  2  0  0  0  0
 10  5  2  0  0  0  0
 10  6  1  0  0  0  0
 11 13  1  6  0  0  0
 11 14  1  0  0  0  0
 12 11  1  0  0  0  0
 12  2  2  0  0  0  0
 13  3  2  0  0  0  0
 14 20  1  6  0  0  0
 15 18  1  6  0  0  0
 15 24  1  0  0  0  0
 15 21  1  0  0  0  0
 16 20  2  0  0  0  0
 17 25  1  0  0  0  0
 19 22  1  0  0  0  0
 19 26  2  0  0  0  0
 20 23  1  0  0  0  0
 21 19  1  0  0  0  0
 22 27  1  1  0  0  0
 23 18  1  0  0  0  0
 23 17  1  0  0  0  0
 24 25  1  6  0  0  0
 24 22  1  0  0  0  0
M  END
>  <MODEL>
8

>  <REMARK>
 VINA RESULT:      -8.3      3.347      4.755
  Name = 
  1 active torsions:
  status: ('A' for Active; 'I' for Inactive)
    1  A    between atoms: C_9  and  C_27
                            x       y       z     vdW  Elec       q    Type
                         _______ _______ _______ _____ _____    ______ ____

>  <TORSDO>
F 1

$$$$
=
 OpenBabel11062414453D

 27 31  0  0  1  0  0  0  0  0999 V2000
  190.6940  177.7660  140.3260 N   0  0  0  0  0  0  0  0  0  0  0  0
  187.6800  175.5330  137.5040 N   0  0  0  0  0  0  0  0  0  0  0  0
  192.1530  176.4510  138.9880 N   0  0  0  0  0  0  0  0  0  0  0  0
  191.2360  174.8840  137.4490 N   0  0  0  0  0  2  0  0  0  0  0  0
  189.8680  174.6270  137.1990 C   0  0  0  0  0  0  0  0  0  0  0  0
  187.9710  173.4310  136.3600 C   0  0  0  0  0  3  0  0  0  0  0  0
  185.6570  174.3810  136.6990 C   0  0  0  0  0  1  0  0  0  0  0  0
  187.1370  174.4580  136.8580 C   0  0  0  0  0  0  0  0  0  0  0  0
  191.9100  177.4450  139.9940 C   0  0  0  0  0  3  0  0  0  0  0  0
  189.3620  173.5220  136.5310 C   0  0  0  0  0  3  0  0  0  0  0  0
  189.8220  176.7350  138.2550 C   0  0  2  0  0  3  0  0  0  0  0  0
  189.0270  175.6020  137.6910 C   0  0  0  0  0  0  0  0  0  0  0  0
  191.1900  176.1060  138.1830 C   0  0  0  0  0  0  0  0  0  0  0  0
  189.5200  177.1050  139.7170 C   0  0  2  0  0  3  0  0  0  0  0  0
  187.6830  177.3750  143.4030 C   0  0  1  0  0  3  0  0  0  0  0  0
  187.6870  178.3200  138.8380 O   0  0  0  0  0  0  0  0  0  0  0  0
  186.4390  178.9370  141.2910 C   0  0  0  0  0  2  0  0  0  0  0  0
  188.5680  178.0780  142.3950 C   0  0  0  0  0  2  0  0  0  0  0  0
  187.2230  177.3670  145.6280 C   0  0  0  0  0  0  0  0  0  0  0  0
  188.3010  177.9690  139.8830 C   0  0  0  0  0  0  0  0  0  0  0  0
  188.2900  177.1910  144.7060 N   0  0  0  0  0  2  0  0  0  0  0  0
  185.9450  177.8340  144.9980 C   0  0  2  0  0  3  0  0  0  0  0  0
  187.7800  178.3130  141.1800 N   0  0  0  0  0  0  0  0  0  0  0  0
  186.5040  178.2810  143.6640 C   0  0  2  0  0  3  0  0  0  0  0  0
  185.6030  178.3470  142.4500 C   0  0  0  0  0  2  0  0  0  0  0  0
  187.3610  177.1560  146.8610 O   0  0  0  0  0  0  0  0  0  0  0  0
  185.3920  179.0580  145.7200 C   0  0  0  0  0  1  0  0  0  0  0  0
  2 12  1  0  0  0  0
  3  9  1  0  0  0  0
  4 13  1  0  0  0  0
  5  4  1  0  0  0  0
  5 12  2  0  0  0  0
  6 10  2  0  0  0  0
  6  8  1  0  0  0  0
  7  8  1  0  0  0  0
  8  2  2  0  0  0  0
  9  1  2  0  0  0  0
 10  5  1  0  0  0  0
 11 12  1  1  0  0  0
 11 14  1  0  0  0  0
 13 11  1  0  0  0  0
 13  3  2  0  0  0  0
 14 20  1  6  0  0  0
 14  1  1  0  0  0  0
 15 18  1  6  0  0  0
 15 24  1  0  0  0  0
 15 21  1  0  0  0  0
 16 20  2  0  0  0  0
 17 25  1  0  0  0  0
 19 26  2  0  0  0  0
 20 23  1  0  0  0  0
 21 19  1  0  0  0  0
 22 19  1  0  0  0  0
 22 27  1  1  0  0  0
 23 17  1  0  0  0  0
 23 18  1  0  0  0  0
 24 25  1  6  0  0  0
 24 22  1  0  0  0  0
M  END
>  <MODEL>
9

>  <REMARK>
 VINA RESULT:      -8.3      2.035      3.637
  Name = 
  1 active torsions:
  status: ('A' for Active; 'I' for Inactive)
    1  A    between atoms: C_9  and  C_27
                            x       y       z     vdW  Elec       q    Type
                         _______ _______ _______ _____ _____    ______ ____

>  <TORSDO>
F 1

$$$$
