=
 OpenBabel11062413263D

 30 32  0  0  1  0  0  0  0  0999 V2000
  189.9020  177.4210  147.8160 N   0  0  0  0  0  0  0  0  0  0  0  0
  185.7980  178.6990  145.1380 C   0  0  2  0  0  3  0  0  0  0  0  0
  186.5590  176.5000  144.1310 C   0  0  0  0  0  1  0  0  0  0  0  0
  188.0490  177.6550  145.7450 C   0  0  0  0  0  0  0  0  0  0  0  0
  187.0130  177.8710  144.6260 C   0  0  2  0  0  0  0  0  0  0  0  0
  187.6910  177.9320  147.0860 C   0  0  0  0  0  0  0  0  0  0  0  0
  189.3610  177.1590  145.4920 C   0  0  0  0  0  0  0  0  0  0  0  0
  191.7000  176.6660  146.3420 C   0  0  0  0  0  1  0  0  0  0  0  0
  188.6400  177.8230  148.0990 C   0  0  0  0  0  3  0  0  0  0  0  0
  190.2850  177.0890  146.5580 C   0  0  0  0  0  0  0  0  0  0  0  0
  185.3230  178.2340  146.5040 C   0  0  0  0  0  2  0  0  0  0  0  0
  186.3960  178.3280  147.4270 O   0  0  0  0  0  0  0  0  0  0  0  0
  187.6680  178.6620  143.4820 C   0  0  0  0  0  2  0  0  0  0  0  0
  187.3470  178.1380  142.2280 O   0  0  0  0  0  1  0  0  0  0  0  0
  183.4500  179.2030  144.8290 O   0  0  0  0  0  1  0  0  0  0  0  0
  184.6270  178.8530  144.1610 C   0  0  0  0  0  2  0  0  0  0  0  0
  189.7750  176.7110  144.1110 C   0  0  0  0  0  2  0  0  0  0  0  0
  190.8490  178.9050  143.7660 C   0  0  0  0  0  2  0  0  0  0  0  0
  190.8230  177.5990  143.5030 C   0  0  0  0  0  0  0  0  0  0  0  0
  191.8470  176.9990  142.5910 C   0  0  0  0  0  2  0  0  0  0  0  0
  191.6850  177.5040  141.1650 C   0  0  0  0  0  2  0  0  0  0  0  0
  190.5020  176.8230  140.4910 C   0  0  0  0  0  2  0  0  0  0  0  0
  190.8070  176.9450  137.9400 C   0  0  0  0  0  2  0  0  0  0  0  0
  190.0940  177.5020  139.1860 C   0  0  1  0  0  3  0  0  0  0  0  0
  188.5780  177.7050  139.0630 C   0  0  0  0  0  2  0  0  0  0  0  0
  188.1780  178.2190  137.6830 C   0  0  0  0  0  2  0  0  0  0  0  0
  188.7590  175.5120  137.3250 C   0  0  0  0  0  2  0  0  0  0  0  0
  190.2800  175.6200  137.3730 C   0  0  2  0  0  3  0  0  0  0  0  0
  190.8140  174.5430  138.0780 O   0  0  0  0  0  1  0  0  0  0  0  0
  187.9980  176.9020  136.4080 S   0  0  0  0  0  0  0  0  0  0  0  0
  1  9  1  0  0  0  0
  2 16  1  6  0  0  0
  2 11  1  0  0  0  0
  4  6  1  0  0  0  0
  5  3  1  6  0  0  0
  5  2  1  0  0  0  0
  5  4  1  0  0  0  0
  6 12  1  0  0  0  0
  6  9  2  0  0  0  0
  7  4  2  0  0  0  0
  7 10  1  0  0  0  0
  8 10  1  0  0  0  0
 10  1  2  0  0  0  0
 11 12  1  0  0  0  0
 13  5  1  0  0  0  0
 14 13  1  0  0  0  0
 16 15  1  0  0  0  0
 17  7  1  0  0  0  0
 19 18  2  0  0  0  0
 19 17  1  0  0  0  0
 20 19  1  0  0  0  0
 21 20  1  0  0  0  0
 22 21  1  0  0  0  0
 23 24  1  0  0  0  0
 24 22  1  1  0  0  0
 25 24  1  0  0  0  0
 26 25  1  0  0  0  0
 27 28  1  0  0  0  0
 28 23  1  0  0  0  0
 28 29  1  1  0  0  0
 30 27  1  0  0  0  0
 30 26  1  0  0  0  0
M  END
>  <MODEL>
1

>  <REMARK>
 VINA RESULT:      -7.8      0.000      0.000
  Name = 
  8 active torsions:
  status: ('A' for Active; 'I' for Inactive)
    1  A    between atoms: C_3  and  C_24
    2  A    between atoms: C_4  and  C_23
    3  A    between atoms: C_10  and  C_13
    4  A    between atoms: C_12  and  C_17
    5  A    between atoms: C_12  and  C_20
    6  A    between atoms: C_16  and  C_19
    7  A    between atoms: C_16  and  C_20
    8  A    between atoms: C_19  and  C_24
                            x       y       z     vdW  Elec       q    Type
                         _______ _______ _______ _____ _____    ______ ____

>  <TORSDO>
F 8

$$$$
=
 OpenBabel11062413263D

 30 32  0  0  1  0  0  0  0  0999 V2000
  189.8190  177.1430  147.7380 N   0  0  0  0  0  0  0  0  0  0  0  0
  190.4930  176.5340  142.7560 C   0  0  2  0  0  3  0  0  0  0  0  0
  189.6260  178.9040  142.9990 C   0  0  0  0  0  1  0  0  0  0  0  0
  189.5670  177.4020  144.9730 C   0  0  0  0  0  0  0  0  0  0  0  0
  189.4400  177.4550  143.4390 C   0  0  2  0  0  0  0  0  0  0  0  0
  190.7190  176.8220  145.5550 C   0  0  0  0  0  0  0  0  0  0  0  0
  188.5760  177.9390  145.8450 C   0  0  0  0  0  0  0  0  0  0  0  0
  187.6700  178.2140  148.1990 C   0  0  0  0  0  1  0  0  0  0  0  0
  190.8120  176.6900  146.9380 C   0  0  0  0  0  3  0  0  0  0  0  0
  188.7170  177.7570  147.2390 C   0  0  0  0  0  0  0  0  0  0  0  0
  191.8680  176.6700  143.3880 C   0  0  0  0  0  2  0  0  0  0  0  0
  191.7780  176.3620  144.7690 O   0  0  0  0  0  0  0  0  0  0  0  0
  188.0450  176.9480  143.0340 C   0  0  0  0  0  2  0  0  0  0  0  0
  187.9050  175.5730  143.2370 O   0  0  0  0  0  1  0  0  0  0  0  0
  191.6540  177.3910  140.8120 O   0  0  0  0  0  1  0  0  0  0  0  0
  190.5700  176.6150  141.2270 C   0  0  0  0  0  2  0  0  0  0  0  0
  187.3840  178.6940  145.3050 C   0  0  0  0  0  2  0  0  0  0  0  0
  185.9680  176.7170  145.7150 C   0  0  0  0  0  2  0  0  0  0  0  0
  186.0780  178.0440  145.6570 C   0  0  0  0  0  0  0  0  0  0  0  0
  184.8880  178.9060  145.9450 C   0  0  0  0  0  2  0  0  0  0  0  0
  183.7740  178.6690  144.9370 C   0  0  0  0  0  2  0  0  0  0  0  0
  184.0320  179.4620  143.6630 C   0  0  0  0  0  2  0  0  0  0  0  0
  183.6510  177.7430  141.7880 C   0  0  0  0  0  2  0  0  0  0  0  0
  184.6590  178.6170  142.5570 C   0  0  1  0  0  3  0  0  0  0  0  0
  185.6680  179.3970  141.7030 C   0  0  0  0  0  2  0  0  0  0  0  0
  186.1460  178.5900  140.5000 C   0  0  0  0  0  2  0  0  0  0  0  0
  183.5660  179.4330  139.8470 C   0  0  0  0  0  2  0  0  0  0  0  0
  182.8000  178.4430  140.7200 C   0  0  2  0  0  3  0  0  0  0  0  0
  181.7040  179.0740  141.3070 O   0  0  0  0  0  1  0  0  0  0  0  0
  185.0200  178.6610  139.0450 S   0  0  0  0  0  0  0  0  0  0  0  0
  2 16  1  6  0  0  0
  2 11  1  0  0  0  0
  2  5  1  0  0  0  0
  4  6  2  0  0  0  0
  4  7  1  0  0  0  0
  5  3  1  6  0  0  0
  5  4  1  0  0  0  0
  6  9  1  0  0  0  0
  7 10  2  0  0  0  0
  9  1  2  0  0  0  0
 10  1  1  0  0  0  0
 10  8  1  0  0  0  0
 11 12  1  0  0  0  0
 12  6  1  0  0  0  0
 13 14  1  0  0  0  0
 13  5  1  0  0  0  0
 15 16  1  0  0  0  0
 17 19  1  0  0  0  0
 17  7  1  0  0  0  0
 19 18  2  0  0  0  0
 19 20  1  0  0  0  0
 21 20  1  0  0  0  0
 22 21  1  0  0  0  0
 23 24  1  0  0  0  0
 24 22  1  6  0  0  0
 25 24  1  0  0  0  0
 26 25  1  0  0  0  0
 27 28  1  0  0  0  0
 28 29  1  1  0  0  0
 28 23  1  0  0  0  0
 30 27  1  0  0  0  0
 30 26  1  0  0  0  0
M  END
>  <MODEL>
2

>  <REMARK>
 VINA RESULT:      -7.4      2.461      5.817
  Name = 
  8 active torsions:
  status: ('A' for Active; 'I' for Inactive)
    1  A    between atoms: C_3  and  C_24
    2  A    between atoms: C_4  and  C_23
    3  A    between atoms: C_10  and  C_13
    4  A    between atoms: C_12  and  C_17
    5  A    between atoms: C_12  and  C_20
    6  A    between atoms: C_16  and  C_19
    7  A    between atoms: C_16  and  C_20
    8  A    between atoms: C_19  and  C_24
                            x       y       z     vdW  Elec       q    Type
                         _______ _______ _______ _____ _____    ______ ____

>  <TORSDO>
F 8

$$$$
=
 OpenBabel11062413263D

 30 32  0  0  1  0  0  0  0  0999 V2000
  185.0460  178.6230  146.0220 N   0  0  0  0  0  0  0  0  0  0  0  0
  189.8260  176.9540  145.9190 C   0  0  2  0  0  3  0  0  0  0  0  0
  189.5560  178.2520  143.7590 C   0  0  0  0  0  1  0  0  0  0  0  0
  187.5380  177.7600  145.1170 C   0  0  0  0  0  0  0  0  0  0  0  0
  188.9150  177.2220  144.6860 C   0  0  2  0  0  0  0  0  0  0  0  0
  187.3550  178.2140  146.4450 C   0  0  0  0  0  0  0  0  0  0  0  0
  186.4320  177.8460  144.2220 C   0  0  0  0  0  0  0  0  0  0  0  0
  183.9570  178.2750  143.8600 C   0  0  0  0  0  1  0  0  0  0  0  0
  186.0960  178.6240  146.8760 C   0  0  0  0  0  3  0  0  0  0  0  0
  185.1750  178.2520  144.7230 C   0  0  0  0  0  0  0  0  0  0  0  0
  189.7590  178.0810  146.9360 C   0  0  0  0  0  2  0  0  0  0  0  0
  188.4150  178.2520  147.3540 O   0  0  0  0  0  0  0  0  0  0  0  0
  188.7230  175.8860  143.9480 C   0  0  0  0  0  2  0  0  0  0  0  0
  189.5470  175.7810  142.8250 O   0  0  0  0  0  1  0  0  0  0  0  0
  192.0730  176.6340  146.7600 O   0  0  0  0  0  1  0  0  0  0  0  0
  191.2750  176.5600  145.6160 C   0  0  0  0  0  2  0  0  0  0  0  0
  186.5820  177.5120  142.7580 C   0  0  0  0  0  2  0  0  0  0  0  0
  185.7090  179.5700  141.7170 C   0  0  0  0  0  2  0  0  0  0  0  0
  186.7300  178.7320  141.8960 C   0  0  0  0  0  0  0  0  0  0  0  0
  188.0460  179.0020  141.2340 C   0  0  0  0  0  2  0  0  0  0  0  0
  188.3110  178.0180  140.1050 C   0  0  0  0  0  2  0  0  0  0  0  0
  189.2720  178.6200  139.0890 C   0  0  0  0  0  2  0  0  0  0  0  0
  189.7350  177.3930  136.8770 C   0  0  0  0  0  2  0  0  0  0  0  0
  188.8350  178.3770  137.6460 C   0  0  1  0  0  3  0  0  0  0  0  0
  187.3220  178.1630  137.5050 C   0  0  0  0  0  2  0  0  0  0  0  0
  186.9320  177.7460  136.0900 C   0  0  0  0  0  2  0  0  0  0  0  0
  188.0630  175.4700  137.2460 C   0  0  0  0  0  2  0  0  0  0  0  0
  189.5240  175.8980  137.1540 C   0  0  2  0  0  3  0  0  0  0  0  0
  190.2070  175.5160  138.3080 O   0  0  0  0  0  1  0  0  0  0  0  0
  187.1110  175.9440  135.7560 S   0  0  0  0  0  0  0  0  0  0  0  0
  1  9  1  0  0  0  0
  2 16  1  6  0  0  0
  2 11  1  0  0  0  0
  4  6  1  0  0  0  0
  5  3  1  6  0  0  0
  5  4  1  0  0  0  0
  5  2  1  0  0  0  0
  6  9  2  0  0  0  0
  6 12  1  0  0  0  0
  7 10  1  0  0  0  0
  7  4  2  0  0  0  0
  8 10  1  0  0  0  0
 10  1  2  0  0  0  0
 11 12  1  0  0  0  0
 13  5  1  0  0  0  0
 14 13  1  0  0  0  0
 16 15  1  0  0  0  0
 17  7  1  0  0  0  0
 18 19  2  0  0  0  0
 19 17  1  0  0  0  0
 20 19  1  0  0  0  0
 21 20  1  0  0  0  0
 22 21  1  0  0  0  0
 23 28  1  0  0  0  0
 23 24  1  0  0  0  0
 24 22  1  1  0  0  0
 25 24  1  0  0  0  0
 26 25  1  0  0  0  0
 28 27  1  0  0  0  0
 28 29  1  1  0  0  0
 30 26  1  0  0  0  0
 30 27  1  0  0  0  0
M  END
>  <MODEL>
3

>  <REMARK>
 VINA RESULT:      -7.0      2.087      4.037
  Name = 
  8 active torsions:
  status: ('A' for Active; 'I' for Inactive)
    1  A    between atoms: C_3  and  C_24
    2  A    between atoms: C_4  and  C_23
    3  A    between atoms: C_10  and  C_13
    4  A    between atoms: C_12  and  C_17
    5  A    between atoms: C_12  and  C_20
    6  A    between atoms: C_16  and  C_19
    7  A    between atoms: C_16  and  C_20
    8  A    between atoms: C_19  and  C_24
                            x       y       z     vdW  Elec       q    Type
                         _______ _______ _______ _____ _____    ______ ____

>  <TORSDO>
F 8

$$$$
=
 OpenBabel11062413263D

 30 32  0  0  1  0  0  0  0  0999 V2000
  185.9400  177.9800  143.1250 N   0  0  0  0  0  0  0  0  0  0  0  0
  190.3310  176.7190  145.3090 C   0  0  2  0  0  3  0  0  0  0  0  0
  190.8020  178.9270  144.1560 C   0  0  0  0  0  1  0  0  0  0  0  0
  188.6640  177.7610  143.6780 C   0  0  0  0  0  0  0  0  0  0  0  0
  190.1550  177.5520  144.0070 C   0  0  2  0  0  0  0  0  0  0  0  0
  187.6890  177.4720  144.6620 C   0  0  0  0  0  0  0  0  0  0  0  0
  188.2180  178.2610  142.4200 C   0  0  0  0  0  0  0  0  0  0  0  0
  186.3000  178.7500  140.8330 C   0  0  0  0  0  1  0  0  0  0  0  0
  186.3350  177.5740  144.3550 C   0  0  0  0  0  3  0  0  0  0  0  0
  186.8300  178.3230  142.1610 C   0  0  0  0  0  0  0  0  0  0  0  0
  189.3880  177.1710  146.4110 C   0  0  0  0  0  2  0  0  0  0  0  0
  188.0510  177.0720  145.9500 O   0  0  0  0  0  0  0  0  0  0  0  0
  190.8160  176.7720  142.8590 C   0  0  0  0  0  2  0  0  0  0  0  0
  190.4150  175.4340  142.8330 O   0  0  0  0  0  1  0  0  0  0  0  0
  191.8570  176.9080  147.1800 O   0  0  0  0  0  1  0  0  0  0  0  0
  191.7660  176.5710  145.8270 C   0  0  0  0  0  2  0  0  0  0  0  0
  189.1980  178.7200  141.3680 C   0  0  0  0  0  2  0  0  0  0  0  0
  189.0130  176.6080  140.1070 C   0  0  0  0  0  2  0  0  0  0  0  0
  189.0870  177.9390  140.0910 C   0  0  0  0  0  0  0  0  0  0  0  0
  189.0590  178.6740  138.7860 C   0  0  0  0  0  2  0  0  0  0  0  0
  188.2420  177.9230  137.7450 C   0  0  0  0  0  2  0  0  0  0  0  0
  188.8420  178.1150  136.3590 C   0  0  0  0  0  2  0  0  0  0  0  0
  190.4310  176.3570  135.3600 C   0  0  0  0  0  2  0  0  0  0  0  0
  188.9760  176.8040  135.5870 C   0  0  1  0  0  3  0  0  0  0  0  0
  188.0020  175.7210  136.0710 C   0  0  0  0  0  2  0  0  0  0  0  0
  188.2730  174.3720  135.4120 C   0  0  0  0  0  2  0  0  0  0  0  0
  190.2940  174.6860  137.3130 C   0  0  0  0  0  2  0  0  0  0  0  0
  191.1450  175.6910  136.5440 C   0  0  2  0  0  3  0  0  0  0  0  0
  191.6480  176.6560  137.4140 O   0  0  0  0  0  1  0  0  0  0  0  0
  189.6040  173.3890  136.2210 S   0  0  0  0  0  0  0  0  0  0  0  0
  1  9  1  0  0  0  0
  2 16  1  1  0  0  0
  2 11  1  0  0  0  0
  4  5  1  0  0  0  0
  4  6  1  0  0  0  0
  5  3  1  1  0  0  0
  5  2  1  0  0  0  0
  6 12  1  0  0  0  0
  7  4  2  0  0  0  0
  8 10  1  0  0  0  0
  9  6  2  0  0  0  0
 10  7  1  0  0  0  0
 10  1  2  0  0  0  0
 12 11  1  0  0  0  0
 13  5  1  0  0  0  0
 14 13  1  0  0  0  0
 16 15  1  0  0  0  0
 17  7  1  0  0  0  0
 19 18  2  0  0  0  0
 19 17  1  0  0  0  0
 20 19  1  0  0  0  0
 21 20  1  0  0  0  0
 22 21  1  0  0  0  0
 23 24  1  0  0  0  0
 23 28  1  0  0  0  0
 24 25  1  0  0  0  0
 24 22  1  1  0  0  0
 26 25  1  0  0  0  0
 26 30  1  0  0  0  0
 28 27  1  0  0  0  0
 28 29  1  1  0  0  0
 30 27  1  0  0  0  0
M  END
>  <MODEL>
4

>  <REMARK>
 VINA RESULT:      -6.9      2.359      4.583
  Name = 
  8 active torsions:
  status: ('A' for Active; 'I' for Inactive)
    1  A    between atoms: C_3  and  C_24
    2  A    between atoms: C_4  and  C_23
    3  A    between atoms: C_10  and  C_13
    4  A    between atoms: C_12  and  C_17
    5  A    between atoms: C_12  and  C_20
    6  A    between atoms: C_16  and  C_19
    7  A    between atoms: C_16  and  C_20
    8  A    between atoms: C_19  and  C_24
                            x       y       z     vdW  Elec       q    Type
                         _______ _______ _______ _____ _____    ______ ____

>  <TORSDO>
F 8

$$$$
=
 OpenBabel11062413263D

 30 32  0  0  1  0  0  0  0  0999 V2000
  179.1180  177.4140  141.7370 N   0  0  0  0  0  0  0  0  0  0  0  0
  183.0490  177.1360  138.5570 C   0  0  2  0  0  3  0  0  0  0  0  0
  184.0960  177.5030  140.8370 C   0  0  0  0  0  1  0  0  0  0  0  0
  181.6390  177.7550  140.5950 C   0  0  0  0  0  0  0  0  0  0  0  0
  182.9910  177.9490  139.8830 C   0  0  2  0  0  0  0  0  0  0  0  0
  180.7790  176.7100  140.1800 C   0  0  0  0  0  0  0  0  0  0  0  0
  181.2200  178.5730  141.6840 C   0  0  0  0  0  0  0  0  0  0  0  0
  179.3890  179.2810  143.2920 C   0  0  0  0  0  1  0  0  0  0  0  0
  179.5190  176.5730  140.7550 C   0  0  0  0  0  3  0  0  0  0  0  0
  179.9220  178.3970  142.2140 C   0  0  0  0  0  0  0  0  0  0  0  0
  182.4980  175.7300  138.7230 C   0  0  0  0  0  2  0  0  0  0  0  0
  181.1600  175.8060  139.1860 O   0  0  0  0  0  0  0  0  0  0  0  0
  183.1600  179.4360  139.5270 C   0  0  0  0  0  2  0  0  0  0  0  0
  184.4750  179.8720  139.7020 O   0  0  0  0  0  1  0  0  0  0  0  0
  184.2350  177.2610  136.4500 O   0  0  0  0  0  1  0  0  0  0  0  0
  184.3990  177.1250  137.8310 C   0  0  0  0  0  2  0  0  0  0  0  0
  182.1350  179.6180  142.2760 C   0  0  0  0  0  2  0  0  0  0  0  0
  182.3690  178.2600  144.3210 C   0  0  0  0  0  2  0  0  0  0  0  0
  182.9170  179.1070  143.4510 C   0  0  0  0  0  0  0  0  0  0  0  0
  184.3320  179.5600  143.6370 C   0  0  0  0  0  2  0  0  0  0  0  0
  185.1320  178.5570  144.4550 C   0  0  0  0  0  2  0  0  0  0  0  0
  186.2310  177.9340  143.6060 C   0  0  0  0  0  2  0  0  0  0  0  0
  188.2950  176.4000  143.5920 C   0  0  0  0  0  2  0  0  0  0  0  0
  187.2280  177.1240  144.4320 C   0  0  1  0  0  3  0  0  0  0  0  0
  187.7370  177.8790  145.6680 C   0  0  0  0  0  2  0  0  0  0  0  0
  188.8600  177.1270  146.3760 C   0  0  0  0  0  2  0  0  0  0  0  0
  190.0320  178.2320  144.0960 C   0  0  0  0  0  2  0  0  0  0  0  0
  189.4660  177.2480  143.0770 C   0  0  2  0  0  3  0  0  0  0  0  0
  189.1030  177.9230  141.9120 O   0  0  0  0  0  1  0  0  0  0  0  0
  190.5300  177.4030  145.6510 S   0  0  0  0  0  0  0  0  0  0  0  0
  1 10  1  0  0  0  0
  2 16  1  1  0  0  0
  2 11  1  0  0  0  0
  2  5  1  0  0  0  0
  4  7  1  0  0  0  0
  5  4  1  0  0  0  0
  5  3  1  1  0  0  0
  6  4  2  0  0  0  0
  6  9  1  0  0  0  0
  7 10  2  0  0  0  0
  7 17  1  0  0  0  0
  9  1  2  0  0  0  0
 10  8  1  0  0  0  0
 11 12  1  0  0  0  0
 12  6  1  0  0  0  0
 13 14  1  0  0  0  0
 13  5  1  0  0  0  0
 15 16  1  0  0  0  0
 17 19  1  0  0  0  0
 19 20  1  0  0  0  0
 19 18  2  0  0  0  0
 20 21  1  0  0  0  0
 22 21  1  0  0  0  0
 23 24  1  0  0  0  0
 24 22  1  6  0  0  0
 24 25  1  0  0  0  0
 25 26  1  0  0  0  0
 27 30  1  0  0  0  0
 28 29  1  6  0  0  0
 28 23  1  0  0  0  0
 28 27  1  0  0  0  0
 30 26  1  0  0  0  0
M  END
>  <MODEL>
5

>  <REMARK>
 VINA RESULT:      -6.8      4.843      8.280
  Name = 
  8 active torsions:
  status: ('A' for Active; 'I' for Inactive)
    1  A    between atoms: C_3  and  C_24
    2  A    between atoms: C_4  and  C_23
    3  A    between atoms: C_10  and  C_13
    4  A    between atoms: C_12  and  C_17
    5  A    between atoms: C_12  and  C_20
    6  A    between atoms: C_16  and  C_19
    7  A    between atoms: C_16  and  C_20
    8  A    between atoms: C_19  and  C_24
                            x       y       z     vdW  Elec       q    Type
                         _______ _______ _______ _____ _____    ______ ____

>  <TORSDO>
F 8

$$$$
=
 OpenBabel11062413263D

 30 32  0  0  1  0  0  0  0  0999 V2000
  180.9740  179.7250  143.0900 N   0  0  0  0  0  0  0  0  0  0  0  0
  182.3620  178.6630  138.3370 C   0  0  2  0  0  3  0  0  0  0  0  0
  183.0610  176.6280  139.6760 C   0  0  0  0  0  1  0  0  0  0  0  0
  182.3180  178.6610  140.8900 C   0  0  0  0  0  0  0  0  0  0  0  0
  183.0520  178.1540  139.6350 C   0  0  2  0  0  0  0  0  0  0  0  0
  181.0280  179.2270  140.7600 C   0  0  0  0  0  0  0  0  0  0  0  0
  182.8750  178.5610  142.1990 C   0  0  0  0  0  0  0  0  0  0  0  0
  182.7570  179.1560  144.6630 C   0  0  0  0  0  1  0  0  0  0  0  0
  180.3860  179.7660  141.8710 C   0  0  0  0  0  3  0  0  0  0  0  0
  182.1840  179.1450  143.2840 C   0  0  0  0  0  0  0  0  0  0  0  0
  180.8490  178.5410  138.4070 C   0  0  0  0  0  2  0  0  0  0  0  0
  180.3740  179.2700  139.5270 O   0  0  0  0  0  0  0  0  0  0  0  0
  184.4910  178.6970  139.6420 C   0  0  0  0  0  2  0  0  0  0  0  0
  184.5410  180.0580  139.3300 O   0  0  0  0  0  1  0  0  0  0  0  0
  181.8850  177.9120  136.0850 O   0  0  0  0  0  1  0  0  0  0  0  0
  182.9070  178.1040  137.0180 C   0  0  0  0  0  2  0  0  0  0  0  0
  184.1840  177.8490  142.4400 C   0  0  0  0  0  2  0  0  0  0  0  0
  185.7310  179.7710  142.4150 C   0  0  0  0  0  2  0  0  0  0  0  0
  185.2180  178.7330  143.0760 C   0  0  0  0  0  0  0  0  0  0  0  0
  185.6710  178.4380  144.4720 C   0  0  0  0  0  2  0  0  0  0  0  0
  186.4380  177.1260  144.5400 C   0  0  0  0  0  2  0  0  0  0  0  0
  187.8360  177.3540  145.0990 C   0  0  0  0  0  2  0  0  0  0  0  0
  190.1150  178.4690  144.6800 C   0  0  0  0  0  2  0  0  0  0  0  0
  188.7840  177.9800  144.0800 C   0  0  1  0  0  3  0  0  0  0  0  0
  188.8850  177.1730  142.7790 C   0  0  0  0  0  2  0  0  0  0  0  0
  189.9670  177.7150  141.8500 C   0  0  0  0  0  2  0  0  0  0  0  0
  191.3360  176.3530  143.8670 C   0  0  0  0  0  2  0  0  0  0  0  0
  191.1810  177.4020  144.9640 C   0  0  2  0  0  3  0  0  0  0  0  0
  190.9350  176.7810  146.1870 O   0  0  0  0  0  1  0  0  0  0  0  0
  191.6640  177.1100  142.2330 S   0  0  0  0  0  0  0  0  0  0  0  0
  1 10  1  0  0  0  0
  2 16  1  6  0  0  0
  2 11  1  0  0  0  0
  2  5  1  0  0  0  0
  4  7  1  0  0  0  0
  5 13  1  0  0  0  0
  5  3  1  1  0  0  0
  5  4  1  0  0  0  0
  6  4  2  0  0  0  0
  6  9  1  0  0  0  0
  7 17  1  0  0  0  0
  7 10  2  0  0  0  0
  9  1  2  0  0  0  0
 10  8  1  0  0  0  0
 11 12  1  0  0  0  0
 12  6  1  0  0  0  0
 14 13  1  0  0  0  0
 15 16  1  0  0  0  0
 17 19  1  0  0  0  0
 18 19  2  0  0  0  0
 19 20  1  0  0  0  0
 20 21  1  0  0  0  0
 21 22  1  0  0  0  0
 23 28  1  0  0  0  0
 24 23  1  0  0  0  0
 24 22  1  1  0  0  0
 25 24  1  0  0  0  0
 26 30  1  0  0  0  0
 26 25  1  0  0  0  0
 27 28  1  0  0  0  0
 28 29  1  1  0  0  0
 30 27  1  0  0  0  0
M  END
>  <MODEL>
6

>  <REMARK>
 VINA RESULT:      -6.8      4.441      7.370
  Name = 
  8 active torsions:
  status: ('A' for Active; 'I' for Inactive)
    1  A    between atoms: C_3  and  C_24
    2  A    between atoms: C_4  and  C_23
    3  A    between atoms: C_10  and  C_13
    4  A    between atoms: C_12  and  C_17
    5  A    between atoms: C_12  and  C_20
    6  A    between atoms: C_16  and  C_19
    7  A    between atoms: C_16  and  C_20
    8  A    between atoms: C_19  and  C_24
                            x       y       z     vdW  Elec       q    Type
                         _______ _______ _______ _____ _____    ______ ____

>  <TORSDO>
F 8

$$$$
=
 OpenBabel11062413263D

 30 32  0  0  1  0  0  0  0  0999 V2000
  186.0010  177.9900  143.1390 N   0  0  0  0  0  0  0  0  0  0  0  0
  190.3600  176.7170  145.3800 C   0  0  2  0  0  3  0  0  0  0  0  0
  190.8650  178.8990  144.1930 C   0  0  0  0  0  1  0  0  0  0  0  0
  188.7180  177.7490  143.7180 C   0  0  0  0  0  0  0  0  0  0  0  0
  190.2030  177.5300  144.0620 C   0  0  2  0  0  0  0  0  0  0  0  0
  187.7310  177.4890  144.6990 C   0  0  0  0  0  0  0  0  0  0  0  0
  188.2870  178.2320  142.4480 C   0  0  0  0  0  0  0  0  0  0  0  0
  186.3880  178.7150  140.8360 C   0  0  0  0  0  1  0  0  0  0  0  0
  186.3820  177.6010  144.3780 C   0  0  0  0  0  3  0  0  0  0  0  0
  186.9030  178.3060  142.1760 C   0  0  0  0  0  0  0  0  0  0  0  0
  189.4130  177.2000  146.4670 C   0  0  0  0  0  2  0  0  0  0  0  0
  188.0790  177.1070  145.9960 O   0  0  0  0  0  0  0  0  0  0  0  0
  190.8650  176.7210  142.9340 C   0  0  0  0  0  2  0  0  0  0  0  0
  190.4370  175.3920  142.9180 O   0  0  0  0  0  1  0  0  0  0  0  0
  191.8670  176.8920  147.2670 O   0  0  0  0  0  1  0  0  0  0  0  0
  191.7890  176.5620  145.9120 C   0  0  0  0  0  2  0  0  0  0  0  0
  189.2810  178.6620  141.3960 C   0  0  0  0  0  2  0  0  0  0  0  0
  189.1220  176.5470  140.1350 C   0  0  0  0  0  2  0  0  0  0  0  0
  189.1510  177.8800  140.1210 C   0  0  0  0  0  0  0  0  0  0  0  0
  189.0520  178.6160  138.8200 C   0  0  0  0  0  2  0  0  0  0  0  0
  188.7100  177.6740  137.6750 C   0  0  0  0  0  2  0  0  0  0  0  0
  188.0480  178.4390  136.5370 C   0  0  0  0  0  2  0  0  0  0  0  0
  186.5500  177.1570  134.8870 C   0  0  0  0  0  2  0  0  0  0  0  0
  186.6460  177.9260  136.2170 C   0  0  1  0  0  3  0  0  0  0  0  0
  185.9530  177.2810  137.4240 C   0  0  0  0  0  2  0  0  0  0  0  0
  184.6330  176.6190  137.0400 C   0  0  0  0  0  2  0  0  0  0  0  0
  186.6240  174.8940  136.1140 C   0  0  0  0  0  2  0  0  0  0  0  0
  187.0420  175.7030  134.8900 C   0  0  2  0  0  3  0  0  0  0  0  0
  188.4270  175.6580  134.7380 O   0  0  0  0  0  1  0  0  0  0  0  0
  184.8100  174.9150  136.3660 S   0  0  0  0  0  0  0  0  0  0  0  0
  1  9  1  0  0  0  0
  2 16  1  1  0  0  0
  2 11  1  0  0  0  0
  4  5  1  0  0  0  0
  4  6  1  0  0  0  0
  5  3  1  1  0  0  0
  5  2  1  0  0  0  0
  6 12  1  0  0  0  0
  7  4  2  0  0  0  0
  8 10  1  0  0  0  0
  9  6  2  0  0  0  0
 10  7  1  0  0  0  0
 10  1  2  0  0  0  0
 12 11  1  0  0  0  0
 13  5  1  0  0  0  0
 14 13  1  0  0  0  0
 16 15  1  0  0  0  0
 17  7  1  0  0  0  0
 19 18  2  0  0  0  0
 19 17  1  0  0  0  0
 20 19  1  0  0  0  0
 21 20  1  0  0  0  0
 22 21  1  0  0  0  0
 23 28  1  0  0  0  0
 23 24  1  0  0  0  0
 24 22  1  1  0  0  0
 24 25  1  0  0  0  0
 26 25  1  0  0  0  0
 27 30  1  0  0  0  0
 28 29  1  1  0  0  0
 28 27  1  0  0  0  0
 30 26  1  0  0  0  0
M  END
>  <MODEL>
7

>  <REMARK>
 VINA RESULT:      -6.8      2.652      4.751
  Name = 
  8 active torsions:
  status: ('A' for Active; 'I' for Inactive)
    1  A    between atoms: C_3  and  C_24
    2  A    between atoms: C_4  and  C_23
    3  A    between atoms: C_10  and  C_13
    4  A    between atoms: C_12  and  C_17
    5  A    between atoms: C_12  and  C_20
    6  A    between atoms: C_16  and  C_19
    7  A    between atoms: C_16  and  C_20
    8  A    between atoms: C_19  and  C_24
                            x       y       z     vdW  Elec       q    Type
                         _______ _______ _______ _____ _____    ______ ____

>  <TORSDO>
F 8

$$$$
=
 OpenBabel11062413263D

 30 32  0  0  1  0  0  0  0  0999 V2000
  186.3030  178.2470  147.4350 N   0  0  0  0  0  0  0  0  0  0  0  0
  190.3190  176.7730  144.7260 C   0  0  2  0  0  3  0  0  0  0  0  0
  189.0850  178.3890  143.2120 C   0  0  0  0  0  1  0  0  0  0  0  0
  187.9780  177.6210  145.2960 C   0  0  0  0  0  0  0  0  0  0  0  0
  188.9340  177.2040  144.1620 C   0  0  2  0  0  0  0  0  0  0  0  0
  188.4960  177.8510  146.5930 C   0  0  0  0  0  0  0  0  0  0  0  0
  186.5800  177.8120  145.0900 C   0  0  0  0  0  0  0  0  0  0  0  0
  184.2740  178.2120  146.0710 C   0  0  0  0  0  1  0  0  0  0  0  0
  187.6360  178.1450  147.6460 C   0  0  0  0  0  3  0  0  0  0  0  0
  185.7560  178.0910  146.2030 C   0  0  0  0  0  0  0  0  0  0  0  0
  190.8190  177.7210  145.8030 C   0  0  0  0  0  2  0  0  0  0  0  0
  189.8670  177.7790  146.8520 O   0  0  0  0  0  0  0  0  0  0  0  0
  188.3360  175.9970  143.4200 C   0  0  0  0  0  2  0  0  0  0  0  0
  188.6090  176.0330  142.0510 O   0  0  0  0  0  1  0  0  0  0  0  0
  192.0300  175.2530  143.9360 O   0  0  0  0  0  1  0  0  0  0  0  0
  191.4090  176.4800  143.6890 C   0  0  0  0  0  2  0  0  0  0  0  0
  185.9720  177.7210  143.7120 C   0  0  0  0  0  2  0  0  0  0  0  0
  185.2900  180.0850  143.8850 C   0  0  0  0  0  2  0  0  0  0  0  0
  185.6770  179.0670  143.1170 C   0  0  0  0  0  0  0  0  0  0  0  0
  185.8250  179.2590  141.6390 C   0  0  0  0  0  2  0  0  0  0  0  0
  184.7620  178.4880  140.8710 C   0  0  0  0  0  2  0  0  0  0  0  0
  184.2890  179.2910  139.6660 C   0  0  0  0  0  2  0  0  0  0  0  0
  182.6100  178.3140  137.9810 C   0  0  0  0  0  2  0  0  0  0  0  0
  182.8230  179.0350  139.3240 C   0  0  1  0  0  3  0  0  0  0  0  0
  182.0130  178.5020  140.5140 C   0  0  0  0  0  2  0  0  0  0  0  0
  180.6030  178.0850  140.1070 C   0  0  0  0  0  2  0  0  0  0  0  0
  182.2750  176.0550  139.1690 C   0  0  0  0  0  2  0  0  0  0  0  0
  182.8420  176.7970  137.9630 C   0  0  2  0  0  3  0  0  0  0  0  0
  184.2000  176.5140  137.8230 O   0  0  0  0  0  1  0  0  0  0  0  0
  180.4900  176.3870  139.4040 S   0  0  0  0  0  0  0  0  0  0  0  0
  1  9  1  0  0  0  0
  2 16  1  6  0  0  0
  2 11  1  0  0  0  0
  4  6  1  0  0  0  0
  5  3  1  6  0  0  0
  5  2  1  0  0  0  0
  5  4  1  0  0  0  0
  6 12  1  0  0  0  0
  6  9  2  0  0  0  0
  7  4  2  0  0  0  0
  7 10  1  0  0  0  0
  8 10  1  0  0  0  0
 10  1  2  0  0  0  0
 11 12  1  0  0  0  0
 13  5  1  0  0  0  0
 14 13  1  0  0  0  0
 16 15  1  0  0  0  0
 17  7  1  0  0  0  0
 19 17  1  0  0  0  0
 19 18  2  0  0  0  0
 20 19  1  0  0  0  0
 21 20  1  0  0  0  0
 22 21  1  0  0  0  0
 23 24  1  0  0  0  0
 24 22  1  1  0  0  0
 24 25  1  0  0  0  0
 26 25  1  0  0  0  0
 27 30  1  0  0  0  0
 28 29  1  1  0  0  0
 28 23  1  0  0  0  0
 28 27  1  0  0  0  0
 30 26  1  0  0  0  0
M  END
>  <MODEL>
8

>  <REMARK>
 VINA RESULT:      -6.6      3.657      5.789
  Name = 
  8 active torsions:
  status: ('A' for Active; 'I' for Inactive)
    1  A    between atoms: C_3  and  C_24
    2  A    between atoms: C_4  and  C_23
    3  A    between atoms: C_10  and  C_13
    4  A    between atoms: C_12  and  C_17
    5  A    between atoms: C_12  and  C_20
    6  A    between atoms: C_16  and  C_19
    7  A    between atoms: C_16  and  C_20
    8  A    between atoms: C_19  and  C_24
                            x       y       z     vdW  Elec       q    Type
                         _______ _______ _______ _____ _____    ______ ____

>  <TORSDO>
F 8

$$$$
=
 OpenBabel11062413263D

 30 32  0  0  1  0  0  0  0  0999 V2000
  184.6730  178.7500  146.3190 N   0  0  0  0  0  0  0  0  0  0  0  0
  189.3310  176.8800  145.6480 C   0  0  2  0  0  3  0  0  0  0  0  0
  188.9270  178.3340  143.6110 C   0  0  0  0  0  1  0  0  0  0  0  0
  187.0230  177.8400  145.1240 C   0  0  0  0  0  0  0  0  0  0  0  0
  188.3240  177.2720  144.5280 C   0  0  2  0  0  0  0  0  0  0  0  0
  186.9880  178.2100  146.4900 C   0  0  0  0  0  0  0  0  0  0  0  0
  185.8440  178.0370  144.3480 C   0  0  0  0  0  0  0  0  0  0  0  0
  183.3710  178.6000  144.2550 C   0  0  0  0  0  1  0  0  0  0  0  0
  185.7970  178.6450  147.0650 C   0  0  0  0  0  3  0  0  0  0  0  0
  184.6610  178.4630  144.9930 C   0  0  0  0  0  0  0  0  0  0  0  0
  189.4170  177.9370  146.7360 C   0  0  0  0  0  2  0  0  0  0  0  0
  188.1290  178.1390  147.2920 O   0  0  0  0  0  0  0  0  0  0  0  0
  187.9960  176.0000  143.7290 C   0  0  0  0  0  2  0  0  0  0  0  0
  188.6980  175.9400  142.5230 O   0  0  0  0  0  1  0  0  0  0  0  0
  191.7270  177.1860  145.8070 O   0  0  0  0  0  1  0  0  0  0  0  0
  190.7240  176.4430  145.1810 C   0  0  0  0  0  2  0  0  0  0  0  0
  185.8390  177.7970  142.8570 C   0  0  0  0  0  2  0  0  0  0  0  0
  186.0460  180.2420  142.5990 C   0  0  0  0  0  2  0  0  0  0  0  0
  185.7140  179.0670  142.0650 C   0  0  0  0  0  0  0  0  0  0  0  0
  185.2100  179.0010  140.6560 C   0  0  0  0  0  2  0  0  0  0  0  0
  183.6900  179.0410  140.6090 C   0  0  0  0  0  2  0  0  0  0  0  0
  183.1750  178.2700  139.4010 C   0  0  0  0  0  2  0  0  0  0  0  0
  180.7130  178.5250  138.7050 C   0  0  0  0  0  2  0  0  0  0  0  0
  182.1520  179.0600  138.5890 C   0  0  1  0  0  3  0  0  0  0  0  0
  182.3210  180.5790  138.7230 C   0  0  0  0  0  2  0  0  0  0  0  0
  181.1850  181.3450  138.0520 C   0  0  0  0  0  2  0  0  0  0  0  0
  180.1030  180.3430  140.4230 C   0  0  0  0  0  2  0  0  0  0  0  0
  179.9360  178.8940  139.9760 C   0  0  2  0  0  3  0  0  0  0  0  0
  180.2690  178.0310  141.0180 O   0  0  0  0  0  1  0  0  0  0  0  0
  179.6780  181.5270  139.0940 S   0  0  0  0  0  0  0  0  0  0  0  0
  1  9  1  0  0  0  0
  2 16  1  6  0  0  0
  2 11  1  0  0  0  0
  4  6  1  0  0  0  0
  5  3  1  6  0  0  0
  5  4  1  0  0  0  0
  5  2  1  0  0  0  0
  6  9  2  0  0  0  0
  6 12  1  0  0  0  0
  7 10  1  0  0  0  0
  7  4  2  0  0  0  0
  8 10  1  0  0  0  0
 10  1  2  0  0  0  0
 11 12  1  0  0  0  0
 13  5  1  0  0  0  0
 14 13  1  0  0  0  0
 16 15  1  0  0  0  0
 17  7  1  0  0  0  0
 19 18  2  0  0  0  0
 19 17  1  0  0  0  0
 20 19  1  0  0  0  0
 21 20  1  0  0  0  0
 22 21  1  0  0  0  0
 23 28  1  0  0  0  0
 24 23  1  0  0  0  0
 24 25  1  0  0  0  0
 24 22  1  1  0  0  0
 26 25  1  0  0  0  0
 26 30  1  0  0  0  0
 28 27  1  0  0  0  0
 28 29  1  1  0  0  0
 30 27  1  0  0  0  0
M  END
>  <MODEL>
9

>  <REMARK>
 VINA RESULT:      -6.6      4.207      6.683
  Name = 
  8 active torsions:
  status: ('A' for Active; 'I' for Inactive)
    1  A    between atoms: C_3  and  C_24
    2  A    between atoms: C_4  and  C_23
    3  A    between atoms: C_10  and  C_13
    4  A    between atoms: C_12  and  C_17
    5  A    between atoms: C_12  and  C_20
    6  A    between atoms: C_16  and  C_19
    7  A    between atoms: C_16  and  C_20
    8  A    between atoms: C_19  and  C_24
                            x       y       z     vdW  Elec       q    Type
                         _______ _______ _______ _____ _____    ______ ____

>  <TORSDO>
F 8

$$$$
