=
 OpenBabel11062411033D

 66 70  0  0  1  0  0  0  0  0999 V2000
  190.1010  177.8920  137.7990 O   0  0  0  0  0  0  0  0  0  0  0  0
  189.2760  177.0610  138.5600 C   0  0  0  0  0  2  0  0  0  0  0  0
  189.1560  177.6010  139.9760 C   0  0  2  0  0  3  0  0  0  0  0  0
  191.8840  177.0050  141.7940 F   0  0  0  0  0  0  0  0  0  0  0  0
  190.4130  178.0620  140.4270 O   0  0  0  0  0  0  0  0  0  0  0  0
  189.6140  176.3540  141.7590 C   0  0  1  0  0  3  0  0  0  0  0  0
  188.6110  176.6190  140.8300 O   0  0  0  0  0  0  0  0  0  0  0  0
  190.5950  177.4890  141.6820 C   0  0  0  0  0  0  0  0  0  0  0  0
  190.3700  178.4460  142.6600 F   0  0  0  0  0  0  0  0  0  0  0  0
  187.8220  176.6610  143.5910 C   0  0  1  0  0  0  0  0  0  0  0  0
  187.1590  177.5030  142.6960 O   0  0  0  0  0  1  0  0  0  0  0  0
  187.8800  175.3330  143.1330 O   0  0  0  0  0  0  0  0  0  0  0  0
  189.1080  176.0380  143.1810 C   0  0  1  0  0  3  0  0  0  0  0  0
  187.5270  176.7830  145.0780 C   0  0  0  0  0  2  0  0  0  0  0  0
  187.9490  178.1410  145.6320 C   0  0  2  0  0  3  0  0  0  0  0  0
  188.9870  177.9660  146.5540 O   0  0  0  0  0  0  0  0  0  0  0  0
  190.1030  177.9520  145.8430 O   0  0  0  0  0  0  0  0  0  0  0  0
  190.8010  176.8070  146.2510 C   0  0  2  0  0  3  0  0  0  0  0  0
  190.0730  176.1850  147.4280 C   0  0  0  0  0  2  0  0  0  0  0  0
  191.3360  176.9870  147.6630 C   0  0  1  0  0  3  0  0  0  0  0  0
  192.8140  175.2920  146.9740 O   0  0  0  0  0  0  0  0  0  0  0  0
  192.4790  176.0520  147.8670 C   0  0  0  0  0  3  0  0  0  0  0  0
  186.7790  178.7830  146.3560 C   0  0  0  0  0  2  0  0  0  0  0  0
  185.9410  179.5220  145.4200 N   0  0  0  0  0  2  0  0  0  0  0  0
  184.6900  178.7940  145.1990 C   0  0  1  0  0  3  0  0  0  0  0  0
  183.9130  178.7950  146.3610 O   0  0  0  0  0  1  0  0  0  0  0  0
  183.9530  178.3770  142.9990 C   0  0  1  0  0  3  0  0  0  0  0  0
  182.7640  178.5150  143.8590 C   0  0  1  0  0  3  0  0  0  0  0  0
  183.8220  179.0330  141.7710 O   0  0  0  0  0  1  0  0  0  0  0  0
  183.9400  179.3690  144.0870 N   0  0  0  0  0  0  0  0  0  0  0  0
  181.6390  179.3570  143.2710 C   0  0  0  0  0  2  0  0  0  0  0  0
  181.2280  178.8140  142.0540 O   0  0  0  0  0  0  0  0  0  0  0  0
  180.2950  179.7260  141.5600 C   0  0  0  0  0  1  0  0  0  0  0  0
  189.9400  177.4550  136.4830 C   0  0  0  0  0  2  0  0  0  0  0  0
  189.8950  175.9290  136.4160 C   0  0  2  0  0  3  0  0  0  0  0  0
  191.2320  175.2930  136.0070 C   0  0  2  0  0  3  0  0  0  0  0  0
  192.2160  176.2820  135.8830 O   0  0  0  0  0  0  0  0  0  0  0  0
  193.3270  177.0210  138.1510 O   0  0  0  0  0  1  0  0  0  0  0  0
  193.3690  175.9480  137.0850 P   0  0  1  0  0  0  0  0  0  0  0  0
  192.9860  174.3460  137.8440 C   0  0  0  0  0  1  0  0  0  0  0  0
  194.9210  175.8810  136.4110 O   0  0  0  0  0  0  0  0  0  0  0  0
  191.1330  174.4870  134.7170 C   0  0  0  0  0  2  0  0  0  0  0  0
  192.8180  172.7720  135.1660 C   0  0  0  0  0  3  0  0  0  0  0  0
  191.5410  173.0800  134.9690 C   0  0  0  0  0  3  0  0  0  0  0  0
  192.9260  170.3850  134.6100 C   0  0  0  0  0  2  0  0  0  0  0  0
  193.2710  171.3920  135.4080 C   0  0  0  0  0  0  0  0  0  0  0  0
  194.3980  171.0770  136.7550 S   0  0  0  0  0  0  0  0  0  0  0  0
  195.8580  171.1130  135.6680 C   0  0  0  0  0  2  0  0  0  0  0  0
  197.1000  172.8110  136.7870 O   0  0  0  0  0  0  0  0  0  0  0  0
  196.5080  172.4500  135.7350 C   0  0  0  0  0  0  0  0  0  0  0  0
  196.4970  173.3050  134.5970 N   0  0  0  0  0  1  0  0  0  0  0  0
  188.4960  175.3410  135.3980 S   0  0  0  0  0  0  0  0  0  0  0  0
  187.2490  176.1180  136.4650 C   0  0  0  0  0  2  0  0  0  0  0  0
  185.9060  176.0980  135.7700 C   0  0  0  0  0  2  0  0  0  0  0  0
  184.9250  175.2820  136.5890 C   0  0  0  0  0  2  0  0  0  0  0  0
  183.8170  174.8470  135.7490 N   0  0  0  0  0  2  0  0  0  0  0  0
  181.9330  172.9690  135.4890 S   0  0  0  0  0  0  0  0  0  0  0  0
  182.6200  174.2510  136.2570 C   0  0  0  0  0  0  0  0  0  0  0  0
  181.9990  174.8330  137.4110 N   0  0  0  0  0  2  0  0  0  0  0  0
  180.9850  175.8790  137.3510 C   0  0  2  0  0  3  0  0  0  0  0  0
  179.6620  178.6600  137.5150 C   0  0  0  0  0  1  0  0  0  0  0  0
  181.5810  177.2030  137.7660 C   0  0  2  0  0  3  0  0  0  0  0  0
  180.5390  177.9690  138.4600 N   0  0  0  0  0  0  0  0  0  0  0  0
  179.7140  176.9560  139.1080 C   0  0  0  0  0  2  0  0  0  0  0  0
  179.9110  175.6290  138.3840 C   0  0  0  0  0  2  0  0  0  0  0  0
  182.2410  177.9420  136.6040 C   0  0  0  0  0  1  0  0  0  0  0  0
  1  2  1  0  0  0  0
  3  2  1  6  0  0  0
  3  5  1  0  0  0  0
  3  7  1  0  0  0  0
  5  8  1  0  0  0  0
  6  7  1  6  0  0  0
  6 13  1  0  0  0  0
  8  6  1  0  0  0  0
  8  4  1  0  0  0  0
  8  9  1  0  0  0  0
 10 11  1  6  0  0  0
 10 14  1  0  0  0  0
 12 10  1  0  0  0  0
 13 12  1  6  0  0  0
 13 10  1  0  0  0  0
 15 14  1  1  0  0  0
 15 23  1  0  0  0  0
 15 16  1  0  0  0  0
 17 16  1  0  0  0  0
 18 17  1  1  0  0  0
 18 19  1  0  0  0  0
 18 20  1  0  0  0  0
 19 20  1  0  0  0  0
 20 22  1  6  0  0  0
 21 22  2  0  0  0  0
 24 23  1  0  0  0  0
 25 24  1  0  0  0  0
 25 26  1  1  0  0  0
 27 29  1  6  0  0  0
 27 28  1  0  0  0  0
 27 30  1  0  0  0  0
 28 31  1  6  0  0  0
 28 30  1  0  0  0  0
 30 25  1  0  0  0  0
 32 31  1  0  0  0  0
 33 32  1  0  0  0  0
 34  1  1  0  0  0  0
 35 34  1  6  0  0  0
 36 42  1  6  0  0  0
 36 35  1  0  0  0  0
 37 36  1  0  0  0  0
 37 39  1  0  0  0  0
 39 40  1  1  0  0  0
 39 38  1  0  0  0  0
 41 39  2  0  0  0  0
 42 44  1  0  0  0  0
 43 46  1  0  0  0  0
 44 43  2  0  0  0  0
 45 46  2  0  0  0  0
 46 47  1  0  0  0  0
 48 50  1  0  0  0  0
 48 47  1  0  0  0  0
 50 49  2  0  0  0  0
 51 50  1  0  0  0  0
 52 35  1  0  0  0  0
 52 53  1  0  0  0  0
 54 53  1  0  0  0  0
 54 55  1  0  0  0  0
 56 58  1  0  0  0  0
 56 55  1  0  0  0  0
 57 58  2  0  0  0  0
 58 59  1  0  0  0  0
 60 59  1  1  0  0  0
 60 62  1  0  0  0  0
 60 65  1  0  0  0  0
 61 63  1  0  0  0  0
 62 66  1  6  0  0  0
 62 63  1  0  0  0  0
 63 64  1  0  0  0  0
 65 64  1  0  0  0  0
M  END
>  <MODEL>
1

>  <REMARK>
 VINA RESULT:      -4.8      0.000      0.000
  Name = 
  34 active torsions:
  status: ('A' for Active; 'I' for Inactive)
    1  A    between atoms: O_2  and  C_47
    2  A    between atoms: C_4  and  C_40
    3  A    between atoms: O_6  and  C_20
    4  A    between atoms: O_6  and  C_38
    5  A    between atoms: N_7  and  C_12
    6  A    between atoms: N_7  and  C_36
    7  A    between atoms: C_8  and  N_21
    8  A    between atoms: C_9  and  O_17
    9  A    between atoms: C_10  and  C_33
   10  A    between atoms: C_10  and  C_60
   11  A    between atoms: C_12  and  N_48
   12  A    between atoms: C_16  and  C_24
   13  A    between atoms: O_17  and  O_57
   14  A    between atoms: C_18  and  C_47
   15  A    between atoms: C_19  and  C_45
   16  A    between atoms: C_20  and  C_34
   17  A    between atoms: N_21  and  C_25
   18  A    between atoms: C_22  and  C_38
   19  A    between atoms: C_23  and  C_36
   20  A    between atoms: C_23  and  C_40
   21  A    between atoms: C_23  and  O_57
   22  A    between atoms: C_24  and  S_66
   23  A    between atoms: C_25  and  N_53
   24  A    between atoms: C_34  and  C_60
   25  A    between atoms: C_34  and  S_62
   26  A    between atoms: C_35  and  C_49
   27  A    between atoms: P_37  and  O_39
   28  A    between atoms: O_39  and  C_60
   29  A    between atoms: C_45  and  S_66
   30  A    between atoms: C_51  and  C_56
   31  A    between atoms: C_51  and  S_62
   32  A    between atoms: N_53  and  C_58
   33  A    between atoms: C_54  and  C_61
   34  A    between atoms: C_56  and  C_58
                            x       y       z     vdW  Elec       q    Type
                         _______ _______ _______ _____ _____    ______ ____

>  <TORSDO>
F 34

$$$$
=
 OpenBabel11062411033D

 66 70  0  0  1  0  0  0  0  0999 V2000
  190.5160  177.5910  137.6530 O   0  0  0  0  0  0  0  0  0  0  0  0
  189.6820  176.7510  138.3940 C   0  0  0  0  0  2  0  0  0  0  0  0
  189.3580  177.3890  139.7350 C   0  0  2  0  0  3  0  0  0  0  0  0
  192.0270  177.5920  141.7190 F   0  0  0  0  0  0  0  0  0  0  0  0
  190.4550  178.1570  140.1830 O   0  0  0  0  0  0  0  0  0  0  0  0
  189.9560  176.4570  141.6630 C   0  0  1  0  0  3  0  0  0  0  0  0
  188.9820  176.4020  140.6690 O   0  0  0  0  0  0  0  0  0  0  0  0
  190.6740  177.7660  141.5010 C   0  0  0  0  0  0  0  0  0  0  0  0
  190.1870  178.7430  142.3560 F   0  0  0  0  0  0  0  0  0  0  0  0
  187.9810  176.3640  143.3230 C   0  0  1  0  0  0  0  0  0  0  0  0
  187.1720  176.7900  142.2670 O   0  0  0  0  0  1  0  0  0  0  0  0
  188.5330  175.0910  143.0930 O   0  0  0  0  0  0  0  0  0  0  0  0
  189.4380  176.1810  143.0890 C   0  0  1  0  0  3  0  0  0  0  0  0
  187.5060  176.5760  144.7510 C   0  0  0  0  0  2  0  0  0  0  0  0
  187.8200  177.9830  145.2520 C   0  0  2  0  0  3  0  0  0  0  0  0
  188.4740  177.9030  146.4870 O   0  0  0  0  0  0  0  0  0  0  0  0
  189.7600  177.7650  146.2070 O   0  0  0  0  0  0  0  0  0  0  0  0
  190.2520  176.8230  147.1220 C   0  0  2  0  0  3  0  0  0  0  0  0
  191.0720  177.5490  148.1730 C   0  0  0  0  0  2  0  0  0  0  0  0
  191.7710  176.7800  147.0710 C   0  0  1  0  0  3  0  0  0  0  0  0
  192.7800  174.6640  146.8700 O   0  0  0  0  0  0  0  0  0  0  0  0
  192.2320  175.4680  147.6070 C   0  0  0  0  0  3  0  0  0  0  0  0
  186.5280  178.7540  145.4530 C   0  0  0  0  0  2  0  0  0  0  0  0
  185.9620  179.1480  144.1680 N   0  0  0  0  0  2  0  0  0  0  0  0
  184.5100  178.9560  144.1910 C   0  0  1  0  0  3  0  0  0  0  0  0
  183.9430  179.6500  145.2630 O   0  0  0  0  0  1  0  0  0  0  0  0
  184.1670  178.3240  141.9460 C   0  0  1  0  0  3  0  0  0  0  0  0
  182.8490  178.4170  142.5990 C   0  0  1  0  0  3  0  0  0  0  0  0
  184.1850  178.8770  140.6620 O   0  0  0  0  0  1  0  0  0  0  0  0
  183.9070  179.3840  142.9330 N   0  0  0  0  0  0  0  0  0  0  0  0
  181.7730  179.1150  141.7780 C   0  0  0  0  0  2  0  0  0  0  0  0
  180.5110  178.6840  142.1870 O   0  0  0  0  0  0  0  0  0  0  0  0
  180.2770  177.5280  141.4420 C   0  0  0  0  0  1  0  0  0  0  0  0
  190.5380  177.0400  136.3700 C   0  0  0  0  0  2  0  0  0  0  0  0
  190.6110  175.5140  136.4330 C   0  0  2  0  0  3  0  0  0  0  0  0
  191.9830  174.9490  136.0350 C   0  0  2  0  0  3  0  0  0  0  0  0
  192.6740  175.8770  135.2460 O   0  0  0  0  0  0  0  0  0  0  0  0
  194.5080  177.5960  136.0220 O   0  0  0  0  0  1  0  0  0  0  0  0
  194.1700  176.1210  136.0130 P   0  0  1  0  0  0  0  0  0  0  0  0
  194.0620  175.5290  137.7230 C   0  0  0  0  0  1  0  0  0  0  0  0
  195.3910  175.2660  135.2090 O   0  0  0  0  0  0  0  0  0  0  0  0
  191.8840  173.6130  135.3090 C   0  0  0  0  0  2  0  0  0  0  0  0
  193.6510  172.1820  136.2100 C   0  0  0  0  0  3  0  0  0  0  0  0
  193.2260  172.9790  135.2350 C   0  0  0  0  0  3  0  0  0  0  0  0
  195.1460  170.2580  136.5000 C   0  0  0  0  0  2  0  0  0  0  0  0
  194.9760  171.5410  136.1870 C   0  0  0  0  0  0  0  0  0  0  0  0
  196.3830  172.4850  135.6290 S   0  0  0  0  0  0  0  0  0  0  0  0
  196.7330  173.1290  137.2960 C   0  0  0  0  0  2  0  0  0  0  0  0
  199.1100  173.1020  137.4560 O   0  0  0  0  0  0  0  0  0  0  0  0
  198.0650  173.7920  137.3160 C   0  0  0  0  0  0  0  0  0  0  0  0
  198.1630  175.2000  137.1360 N   0  0  0  0  0  1  0  0  0  0  0  0
  189.2370  174.7360  135.5130 S   0  0  0  0  0  0  0  0  0  0  0  0
  188.0760  176.0810  135.8910 C   0  0  0  0  0  2  0  0  0  0  0  0
  186.6790  175.5180  136.0320 C   0  0  0  0  0  2  0  0  0  0  0  0
  186.6980  174.3570  137.0070 C   0  0  0  0  0  2  0  0  0  0  0  0
  185.3830  174.1990  137.6160 N   0  0  0  0  0  2  0  0  0  0  0  0
  184.4060  176.6360  137.1100 S   0  0  0  0  0  0  0  0  0  0  0  0
  184.2510  175.0070  137.2830 C   0  0  0  0  0  0  0  0  0  0  0  0
  182.9680  174.3770  137.1670 N   0  0  0  0  0  2  0  0  0  0  0  0
  181.8340  174.6720  138.0330 C   0  0  2  0  0  3  0  0  0  0  0  0
  178.9400  174.7970  139.0970 C   0  0  0  0  0  1  0  0  0  0  0  0
  180.5550  174.1750  137.4010 C   0  0  2  0  0  3  0  0  0  0  0  0
  179.4780  175.1010  137.7710 N   0  0  0  0  0  0  0  0  0  0  0  0
  180.1380  176.3960  137.8910 C   0  0  0  0  0  2  0  0  0  0  0  0
  181.6250  176.1660  138.1360 C   0  0  0  0  0  2  0  0  0  0  0  0
  180.2690  172.7100  137.7260 C   0  0  0  0  0  1  0  0  0  0  0  0
  1  2  1  0  0  0  0
  3  2  1  6  0  0  0
  3  5  1  0  0  0  0
  3  7  1  0  0  0  0
  5  8  1  0  0  0  0
  6  7  1  6  0  0  0
  6 13  1  0  0  0  0
  8  6  1  0  0  0  0
  8  4  1  0  0  0  0
  8  9  1  0  0  0  0
 10 11  1  6  0  0  0
 10 14  1  0  0  0  0
 12 10  1  0  0  0  0
 13 12  1  6  0  0  0
 13 10  1  0  0  0  0
 15 14  1  1  0  0  0
 15 23  1  0  0  0  0
 15 16  1  0  0  0  0
 17 16  1  0  0  0  0
 18 17  1  6  0  0  0
 18 19  1  0  0  0  0
 20 18  1  0  0  0  0
 20 22  1  1  0  0  0
 20 19  1  0  0  0  0
 21 22  2  0  0  0  0
 24 25  1  0  0  0  0
 24 23  1  0  0  0  0
 25 26  1  1  0  0  0
 27 29  1  6  0  0  0
 27 28  1  0  0  0  0
 27 30  1  0  0  0  0
 28 31  1  6  0  0  0
 28 30  1  0  0  0  0
 30 25  1  0  0  0  0
 31 32  1  0  0  0  0
 33 32  1  0  0  0  0
 34  1  1  0  0  0  0
 35 34  1  6  0  0  0
 36 42  1  6  0  0  0
 36 35  1  0  0  0  0
 37 39  1  0  0  0  0
 37 36  1  0  0  0  0
 39 38  1  0  0  0  0
 39 40  1  1  0  0  0
 41 39  2  0  0  0  0
 44 42  1  0  0  0  0
 44 43  2  0  0  0  0
 46 43  1  0  0  0  0
 46 45  2  0  0  0  0
 47 46  1  0  0  0  0
 47 48  1  0  0  0  0
 48 50  1  0  0  0  0
 50 49  2  0  0  0  0
 51 50  1  0  0  0  0
 52 53  1  0  0  0  0
 52 35  1  0  0  0  0
 53 54  1  0  0  0  0
 54 55  1  0  0  0  0
 55 56  1  0  0  0  0
 57 58  2  0  0  0  0
 58 56  1  0  0  0  0
 59 58  1  0  0  0  0
 60 59  1  6  0  0  0
 60 65  1  0  0  0  0
 62 66  1  1  0  0  0
 62 63  1  0  0  0  0
 62 60  1  0  0  0  0
 63 64  1  0  0  0  0
 63 61  1  0  0  0  0
 64 65  1  0  0  0  0
M  END
>  <MODEL>
2

>  <REMARK>
 VINA RESULT:      -3.9      1.452      1.832
  Name = 
  34 active torsions:
  status: ('A' for Active; 'I' for Inactive)
    1  A    between atoms: O_2  and  C_47
    2  A    between atoms: C_4  and  C_40
    3  A    between atoms: O_6  and  C_20
    4  A    between atoms: O_6  and  C_38
    5  A    between atoms: N_7  and  C_12
    6  A    between atoms: N_7  and  C_36
    7  A    between atoms: C_8  and  N_21
    8  A    between atoms: C_9  and  O_17
    9  A    between atoms: C_10  and  C_33
   10  A    between atoms: C_10  and  C_60
   11  A    between atoms: C_12  and  N_48
   12  A    between atoms: C_16  and  C_24
   13  A    between atoms: O_17  and  O_57
   14  A    between atoms: C_18  and  C_47
   15  A    between atoms: C_19  and  C_45
   16  A    between atoms: C_20  and  C_34
   17  A    between atoms: N_21  and  C_25
   18  A    between atoms: C_22  and  C_38
   19  A    between atoms: C_23  and  C_36
   20  A    between atoms: C_23  and  C_40
   21  A    between atoms: C_23  and  O_57
   22  A    between atoms: C_24  and  S_66
   23  A    between atoms: C_25  and  N_53
   24  A    between atoms: C_34  and  C_60
   25  A    between atoms: C_34  and  S_62
   26  A    between atoms: C_35  and  C_49
   27  A    between atoms: P_37  and  O_39
   28  A    between atoms: O_39  and  C_60
   29  A    between atoms: C_45  and  S_66
   30  A    between atoms: C_51  and  C_56
   31  A    between atoms: C_51  and  S_62
   32  A    between atoms: N_53  and  C_58
   33  A    between atoms: C_54  and  C_61
   34  A    between atoms: C_56  and  C_58
                            x       y       z     vdW  Elec       q    Type
                         _______ _______ _______ _____ _____    ______ ____

>  <TORSDO>
F 34

$$$$
=
 OpenBabel11062411033D

 66 70  0  0  1  0  0  0  0  0999 V2000
  186.0890  178.4030  138.9910 O   0  0  0  0  0  0  0  0  0  0  0  0
  187.1130  177.4800  138.7730 C   0  0  0  0  0  2  0  0  0  0  0  0
  187.1970  177.1340  137.2950 C   0  0  2  0  0  3  0  0  0  0  0  0
  184.8690  174.9350  136.3740 F   0  0  0  0  0  0  0  0  0  0  0  0
  185.9030  176.9160  136.7740 O   0  0  0  0  0  0  0  0  0  0  0  0
  187.2210  175.0310  136.5730 C   0  0  1  0  0  3  0  0  0  0  0  0
  188.0450  176.0230  137.0990 O   0  0  0  0  0  0  0  0  0  0  0  0
  185.9750  175.7110  136.0810 C   0  0  0  0  0  0  0  0  0  0  0  0
  186.0170  175.9660  134.7190 F   0  0  0  0  0  0  0  0  0  0  0  0
  188.8930  173.1330  136.0580 C   0  0  1  0  0  0  0  0  0  0  0  0
  189.1710  173.1100  137.4260 O   0  0  0  0  0  1  0  0  0  0  0  0
  187.5680  172.7550  135.7770 O   0  0  0  0  0  0  0  0  0  0  0  0
  187.9010  174.1110  135.5380 C   0  0  1  0  0  3  0  0  0  0  0  0
  189.9120  172.5610  135.0860 C   0  0  0  0  0  2  0  0  0  0  0  0
  190.8880  173.6260  134.5940 C   0  0  2  0  0  3  0  0  0  0  0  0
  192.1950  173.1300  134.6660 O   0  0  0  0  0  0  0  0  0  0  0  0
  192.1650  172.1640  135.5700 O   0  0  0  0  0  0  0  0  0  0  0  0
  193.3490  171.4350  135.3890 C   0  0  2  0  0  3  0  0  0  0  0  0
  194.1160  171.4190  136.6990 C   0  0  0  0  0  2  0  0  0  0  0  0
  194.5600  172.3360  135.5780 C   0  0  1  0  0  3  0  0  0  0  0  0
  196.7060  171.3750  135.5170 O   0  0  0  0  0  0  0  0  0  0  0  0
  195.7260  171.7250  134.8790 C   0  0  0  0  0  3  0  0  0  0  0  0
  190.8000  174.8510  135.4860 C   0  0  0  0  0  2  0  0  0  0  0  0
  192.1100  175.1770  136.0380 N   0  0  0  0  0  2  0  0  0  0  0  0
  191.9450  175.8820  137.3120 C   0  0  1  0  0  3  0  0  0  0  0  0
  191.4050  175.0270  138.2760 O   0  0  0  0  0  1  0  0  0  0  0  0
  193.1220  176.5670  139.2350 C   0  0  1  0  0  3  0  0  0  0  0  0
  193.8400  175.4230  138.6460 C   0  0  1  0  0  3  0  0  0  0  0  0
  193.9750  177.5900  139.6620 O   0  0  0  0  0  1  0  0  0  0  0  0
  193.2160  176.4300  137.7730 N   0  0  0  0  0  0  0  0  0  0  0  0
  195.3540  175.5760  138.5860 C   0  0  0  0  0  2  0  0  0  0  0  0
  195.9500  174.7680  139.5540 O   0  0  0  0  0  0  0  0  0  0  0  0
  196.9040  174.0270  138.8550 C   0  0  0  0  0  1  0  0  0  0  0  0
  185.0220  177.9490  138.2140 C   0  0  0  0  0  2  0  0  0  0  0  0
  183.7020  178.0670  138.9760 C   0  0  2  0  0  3  0  0  0  0  0  0
  182.4810  178.2590  138.0630 C   0  0  2  0  0  3  0  0  0  0  0  0
  181.3080  178.2720  138.8270 O   0  0  0  0  0  0  0  0  0  0  0  0
  179.0780  179.6600  138.9970 O   0  0  0  0  0  1  0  0  0  0  0  0
  180.4200  179.6210  138.2980 P   0  0  1  0  0  0  0  0  0  0  0  0
  181.3410  181.1300  138.7020 C   0  0  0  0  0  1  0  0  0  0  0  0
  180.1840  179.5510  136.6240 O   0  0  0  0  0  0  0  0  0  0  0  0
  182.3860  177.1990  136.9720 C   0  0  0  0  0  2  0  0  0  0  0  0
  181.3750  175.3460  138.2070 C   0  0  0  0  0  3  0  0  0  0  0  0
  181.2590  176.2750  137.2640 C   0  0  0  0  0  3  0  0  0  0  0  0
  179.2790  174.7300  139.3220 C   0  0  0  0  0  2  0  0  0  0  0  0
  180.2920  174.4010  138.5250 C   0  0  0  0  0  0  0  0  0  0  0  0
  180.2850  172.8000  137.7380 S   0  0  0  0  0  0  0  0  0  0  0  0
  181.0220  173.4450  136.2030 C   0  0  0  0  0  2  0  0  0  0  0  0
  182.7130  172.6170  134.7430 O   0  0  0  0  0  0  0  0  0  0  0  0
  182.3110  172.7540  135.9290 C   0  0  0  0  0  0  0  0  0  0  0  0
  183.1100  172.2830  137.0090 N   0  0  0  0  0  1  0  0  0  0  0  0
  183.7980  179.3260  140.2970 S   0  0  0  0  0  0  0  0  0  0  0  0
  184.4680  178.1570  141.5150 C   0  0  0  0  0  2  0  0  0  0  0  0
  184.1730  178.6590  142.9120 C   0  0  0  0  0  2  0  0  0  0  0  0
  185.4730  178.8270  143.6720 C   0  0  0  0  0  2  0  0  0  0  0  0
  186.2400  177.5890  143.6270 N   0  0  0  0  0  2  0  0  0  0  0  0
  188.0850  178.6670  142.0200 S   0  0  0  0  0  0  0  0  0  0  0  0
  187.5150  177.4660  142.9890 C   0  0  0  0  0  0  0  0  0  0  0  0
  188.2540  176.2490  143.1610 N   0  0  0  0  0  2  0  0  0  0  0  0
  189.4440  176.1310  143.9940 C   0  0  2  0  0  3  0  0  0  0  0  0
  191.6250  176.8140  146.0660 C   0  0  0  0  0  1  0  0  0  0  0  0
  189.6220  177.3790  144.8250 C   0  0  2  0  0  3  0  0  0  0  0  0
  191.0630  177.6170  144.9800 N   0  0  0  0  0  0  0  0  0  0  0  0
  191.6510  177.0980  143.7500 C   0  0  0  0  0  2  0  0  0  0  0  0
  190.6860  176.0930  143.1330 C   0  0  0  0  0  2  0  0  0  0  0  0
  188.8450  177.3290  146.1380 C   0  0  0  0  0  1  0  0  0  0  0  0
  2  1  1  0  0  0  0
  3  2  1  1  0  0  0
  5  3  1  0  0  0  0
  6  7  1  6  0  0  0
  7  3  1  0  0  0  0
  8  4  1  0  0  0  0
  8  6  1  0  0  0  0
  8  5  1  0  0  0  0
  9  8  1  0  0  0  0
 10 11  1  1  0  0  0
 12 10  1  0  0  0  0
 13 12  1  1  0  0  0
 13 10  1  0  0  0  0
 13  6  1  0  0  0  0
 14 10  1  0  0  0  0
 15 16  1  0  0  0  0
 15 14  1  1  0  0  0
 15 23  1  0  0  0  0
 16 17  1  0  0  0  0
 18 17  1  1  0  0  0
 18 20  1  0  0  0  0
 18 19  1  0  0  0  0
 20 22  1  6  0  0  0
 20 19  1  0  0  0  0
 22 21  2  0  0  0  0
 23 24  1  0  0  0  0
 24 25  1  0  0  0  0
 25 30  1  0  0  0  0
 25 26  1  1  0  0  0
 27 29  1  1  0  0  0
 28 31  1  1  0  0  0
 28 27  1  0  0  0  0
 30 28  1  0  0  0  0
 30 27  1  0  0  0  0
 31 32  1  0  0  0  0
 33 32  1  0  0  0  0
 34  1  1  0  0  0  0
 35 34  1  6  0  0  0
 35 52  1  0  0  0  0
 36 42  1  6  0  0  0
 36 37  1  0  0  0  0
 36 35  1  0  0  0  0
 39 40  1  1  0  0  0
 39 37  1  0  0  0  0
 39 38  1  0  0  0  0
 41 39  2  0  0  0  0
 42 44  1  0  0  0  0
 43 46  1  0  0  0  0
 44 43  2  0  0  0  0
 46 45  2  0  0  0  0
 47 46  1  0  0  0  0
 48 47  1  0  0  0  0
 49 50  2  0  0  0  0
 50 48  1  0  0  0  0
 50 51  1  0  0  0  0
 52 53  1  0  0  0  0
 53 54  1  0  0  0  0
 54 55  1  0  0  0  0
 56 55  1  0  0  0  0
 57 58  2  0  0  0  0
 58 59  1  0  0  0  0
 58 56  1  0  0  0  0
 60 59  1  6  0  0  0
 60 62  1  0  0  0  0
 62 63  1  0  0  0  0
 62 66  1  1  0  0  0
 63 61  1  0  0  0  0
 64 63  1  0  0  0  0
 65 64  1  0  0  0  0
 65 60  1  0  0  0  0
M  END
>  <MODEL>
3

>  <REMARK>
 VINA RESULT:      -3.9      4.111     11.266
  Name = 
  34 active torsions:
  status: ('A' for Active; 'I' for Inactive)
    1  A    between atoms: O_2  and  C_47
    2  A    between atoms: C_4  and  C_40
    3  A    between atoms: O_6  and  C_20
    4  A    between atoms: O_6  and  C_38
    5  A    between atoms: N_7  and  C_12
    6  A    between atoms: N_7  and  C_36
    7  A    between atoms: C_8  and  N_21
    8  A    between atoms: C_9  and  O_17
    9  A    between atoms: C_10  and  C_33
   10  A    between atoms: C_10  and  C_60
   11  A    between atoms: C_12  and  N_48
   12  A    between atoms: C_16  and  C_24
   13  A    between atoms: O_17  and  O_57
   14  A    between atoms: C_18  and  C_47
   15  A    between atoms: C_19  and  C_45
   16  A    between atoms: C_20  and  C_34
   17  A    between atoms: N_21  and  C_25
   18  A    between atoms: C_22  and  C_38
   19  A    between atoms: C_23  and  C_36
   20  A    between atoms: C_23  and  C_40
   21  A    between atoms: C_23  and  O_57
   22  A    between atoms: C_24  and  S_66
   23  A    between atoms: C_25  and  N_53
   24  A    between atoms: C_34  and  C_60
   25  A    between atoms: C_34  and  S_62
   26  A    between atoms: C_35  and  C_49
   27  A    between atoms: P_37  and  O_39
   28  A    between atoms: O_39  and  C_60
   29  A    between atoms: C_45  and  S_66
   30  A    between atoms: C_51  and  C_56
   31  A    between atoms: C_51  and  S_62
   32  A    between atoms: N_53  and  C_58
   33  A    between atoms: C_54  and  C_61
   34  A    between atoms: C_56  and  C_58
                            x       y       z     vdW  Elec       q    Type
                         _______ _______ _______ _____ _____    ______ ____

>  <TORSDO>
F 34

$$$$
=
 OpenBabel11062411033D

 66 70  0  0  1  0  0  0  0  0999 V2000
  189.2590  177.6100  140.4540 O   0  0  0  0  0  0  0  0  0  0  0  0
  188.2610  178.5840  140.5250 C   0  0  0  0  0  2  0  0  0  0  0  0
  186.9180  177.9840  140.1390 C   0  0  2  0  0  3  0  0  0  0  0  0
  186.0440  178.7400  137.0150 F   0  0  0  0  0  0  0  0  0  0  0  0
  186.9270  177.6150  138.7770 O   0  0  0  0  0  0  0  0  0  0  0  0
  185.3040  179.1980  139.2110 C   0  0  1  0  0  3  0  0  0  0  0  0
  185.8750  178.8840  140.4420 O   0  0  0  0  0  0  0  0  0  0  0  0
  185.7640  178.1540  138.2340 C   0  0  0  0  0  0  0  0  0  0  0  0
  184.8280  177.1460  138.0620 F   0  0  0  0  0  0  0  0  0  0  0  0
  182.9870  178.5050  140.1120 C   0  0  1  0  0  0  0  0  0  0  0  0
  183.6480  177.4990  140.8210 O   0  0  0  0  0  1  0  0  0  0  0  0
  183.3530  179.7920  140.5440 O   0  0  0  0  0  0  0  0  0  0  0  0
  183.7780  179.4180  139.2450 C   0  0  1  0  0  3  0  0  0  0  0  0
  181.5010  178.3540  139.8260 C   0  0  0  0  0  2  0  0  0  0  0  0
  181.2200  178.2230  138.3330 C   0  0  2  0  0  3  0  0  0  0  0  0
  180.3750  179.2620  137.9240 O   0  0  0  0  0  0  0  0  0  0  0  0
  179.6300  178.7600  136.9520 O   0  0  0  0  0  0  0  0  0  0  0  0
  179.4440  179.8050  136.0360 C   0  0  2  0  0  3  0  0  0  0  0  0
  179.4870  179.2330  134.6300 C   0  0  0  0  0  2  0  0  0  0  0  0
  180.6860  179.9820  135.1750 C   0  0  1  0  0  3  0  0  0  0  0  0
  180.5000  182.3200  135.3540 O   0  0  0  0  0  0  0  0  0  0  0  0
  180.6920  181.3650  134.6200 C   0  0  0  0  0  3  0  0  0  0  0  0
  180.5140  176.9070  138.0590 C   0  0  0  0  0  2  0  0  0  0  0  0
  181.4660  175.9000  137.6060 N   0  0  0  0  0  2  0  0  0  0  0  0
  180.7870  174.9380  136.7360 C   0  0  1  0  0  3  0  0  0  0  0  0
  181.0590  175.2160  135.3940 O   0  0  0  0  0  1  0  0  0  0  0  0
  180.0660  172.6940  136.6700 C   0  0  1  0  0  3  0  0  0  0  0  0
  181.2470  172.8180  135.7970 C   0  0  1  0  0  3  0  0  0  0  0  0
  180.0840  171.5400  137.4590 O   0  0  0  0  0  1  0  0  0  0  0  0
  181.1820  173.5710  137.0610 N   0  0  0  0  0  0  0  0  0  0  0  0
  182.2680  171.6960  135.9350 C   0  0  0  0  0  2  0  0  0  0  0  0
  183.2920  172.0910  136.7960 O   0  0  0  0  0  0  0  0  0  0  0  0
  184.4560  171.6000  136.2060 C   0  0  0  0  0  1  0  0  0  0  0  0
  189.6010  177.5400  139.1020 C   0  0  0  0  0  2  0  0  0  0  0  0
  191.1160  177.6200  138.9170 C   0  0  2  0  0  3  0  0  0  0  0  0
  191.6770  176.5370  137.9820 C   0  0  2  0  0  3  0  0  0  0  0  0
  191.2250  175.2740  138.3840 O   0  0  0  0  0  0  0  0  0  0  0  0
  188.8410  175.2450  137.2710 O   0  0  0  0  0  1  0  0  0  0  0  0
  190.2450  174.7040  137.1180 P   0  0  1  0  0  0  0  0  0  0  0  0
  190.9300  175.2720  135.5380 C   0  0  0  0  0  1  0  0  0  0  0  0
  190.2020  173.0110  137.1240 O   0  0  0  0  0  0  0  0  0  0  0  0
  193.1990  176.5510  137.9080 C   0  0  0  0  0  2  0  0  0  0  0  0
  194.6390  174.7280  137.1430 C   0  0  0  0  0  3  0  0  0  0  0  0
  193.7210  175.1620  138.0000 C   0  0  0  0  0  3  0  0  0  0  0  0
  194.6810  172.4300  138.0010 C   0  0  0  0  0  2  0  0  0  0  0  0
  195.1770  173.3580  137.1860 C   0  0  0  0  0  0  0  0  0  0  0  0
  196.4670  172.9010  136.0420 S   0  0  0  0  0  0  0  0  0  0  0  0
  197.7740  173.0780  137.2980 C   0  0  0  0  0  2  0  0  0  0  0  0
  198.5700  175.1100  136.3420 O   0  0  0  0  0  0  0  0  0  0  0  0
  198.2070  174.5000  137.3830 C   0  0  0  0  0  0  0  0  0  0  0  0
  198.1720  175.1820  138.6310 N   0  0  0  0  0  1  0  0  0  0  0  0
  191.9870  177.6820  140.5220 S   0  0  0  0  0  0  0  0  0  0  0  0
  190.9210  176.4200  141.2750 C   0  0  0  0  0  2  0  0  0  0  0  0
  191.5530  175.9240  142.5580 C   0  0  0  0  0  2  0  0  0  0  0  0
  190.6590  176.2780  143.7300 C   0  0  0  0  0  2  0  0  0  0  0  0
  191.4680  176.5030  144.9210 N   0  0  0  0  0  2  0  0  0  0  0  0
  190.9320  175.7650  147.4340 S   0  0  0  0  0  0  0  0  0  0  0  0
  190.9240  176.8500  146.1980 C   0  0  0  0  0  0  0  0  0  0  0  0
  190.3160  178.1390  146.3570 N   0  0  0  0  0  2  0  0  0  0  0  0
  188.8990  178.4040  146.1400 C   0  0  2  0  0  3  0  0  0  0  0  0
  185.8340  178.2890  146.4700 C   0  0  0  0  0  1  0  0  0  0  0  0
  188.0660  177.5740  147.0870 C   0  0  2  0  0  3  0  0  0  0  0  0
  186.8220  177.2130  146.3960 N   0  0  0  0  0  0  0  0  0  0  0  0
  187.2040  177.1120  144.9910 C   0  0  0  0  0  2  0  0  0  0  0  0
  188.4770  177.9200  144.7720 C   0  0  0  0  0  2  0  0  0  0  0  0
  187.8620  178.2510  148.4410 C   0  0  0  0  0  1  0  0  0  0  0  0
  1  2  1  0  0  0  0
  3  7  1  0  0  0  0
  3  2  1  6  0  0  0
  4  8  1  0  0  0  0
  5  3  1  0  0  0  0
  6 13  1  0  0  0  0
  6  7  1  1  0  0  0
  8  5  1  0  0  0  0
  8  6  1  0  0  0  0
  9  8  1  0  0  0  0
 10 12  1  0  0  0  0
 10 11  1  1  0  0  0
 13 10  1  0  0  0  0
 13 12  1  1  0  0  0
 14 10  1  0  0  0  0
 15 23  1  1  0  0  0
 15 14  1  0  0  0  0
 16 15  1  0  0  0  0
 17 16  1  0  0  0  0
 18 17  1  1  0  0  0
 19 20  1  0  0  0  0
 19 18  1  0  0  0  0
 20 22  1  6  0  0  0
 20 18  1  0  0  0  0
 22 21  2  0  0  0  0
 24 23  1  0  0  0  0
 25 26  1  6  0  0  0
 25 30  1  0  0  0  0
 25 24  1  0  0  0  0
 27 30  1  0  0  0  0
 27 29  1  1  0  0  0
 28 31  1  1  0  0  0
 28 27  1  0  0  0  0
 28 30  1  0  0  0  0
 31 32  1  0  0  0  0
 33 32  1  0  0  0  0
 34  1  1  0  0  0  0
 35 34  1  1  0  0  0
 35 52  1  0  0  0  0
 36 42  1  1  0  0  0
 36 37  1  0  0  0  0
 36 35  1  0  0  0  0
 39 40  1  6  0  0  0
 39 41  2  0  0  0  0
 39 38  1  0  0  0  0
 39 37  1  0  0  0  0
 42 44  1  0  0  0  0
 43 46  1  0  0  0  0
 43 44  2  0  0  0  0
 46 45  2  0  0  0  0
 47 46  1  0  0  0  0
 47 48  1  0  0  0  0
 48 50  1  0  0  0  0
 49 50  2  0  0  0  0
 50 51  1  0  0  0  0
 52 53  1  0  0  0  0
 53 54  1  0  0  0  0
 54 55  1  0  0  0  0
 55 56  1  0  0  0  0
 56 58  1  0  0  0  0
 58 59  1  0  0  0  0
 58 57  2  0  0  0  0
 60 59  1  1  0  0  0
 60 62  1  0  0  0  0
 62 66  1  1  0  0  0
 63 61  1  0  0  0  0
 63 62  1  0  0  0  0
 64 63  1  0  0  0  0
 65 64  1  0  0  0  0
 65 60  1  0  0  0  0
M  END
>  <MODEL>
4

>  <REMARK>
 VINA RESULT:      -3.5      3.837      9.188
  Name = 
  34 active torsions:
  status: ('A' for Active; 'I' for Inactive)
    1  A    between atoms: O_2  and  C_47
    2  A    between atoms: C_4  and  C_40
    3  A    between atoms: O_6  and  C_20
    4  A    between atoms: O_6  and  C_38
    5  A    between atoms: N_7  and  C_12
    6  A    between atoms: N_7  and  C_36
    7  A    between atoms: C_8  and  N_21
    8  A    between atoms: C_9  and  O_17
    9  A    between atoms: C_10  and  C_33
   10  A    between atoms: C_10  and  C_60
   11  A    between atoms: C_12  and  N_48
   12  A    between atoms: C_16  and  C_24
   13  A    between atoms: O_17  and  O_57
   14  A    between atoms: C_18  and  C_47
   15  A    between atoms: C_19  and  C_45
   16  A    between atoms: C_20  and  C_34
   17  A    between atoms: N_21  and  C_25
   18  A    between atoms: C_22  and  C_38
   19  A    between atoms: C_23  and  C_36
   20  A    between atoms: C_23  and  C_40
   21  A    between atoms: C_23  and  O_57
   22  A    between atoms: C_24  and  S_66
   23  A    between atoms: C_25  and  N_53
   24  A    between atoms: C_34  and  C_60
   25  A    between atoms: C_34  and  S_62
   26  A    between atoms: C_35  and  C_49
   27  A    between atoms: P_37  and  O_39
   28  A    between atoms: O_39  and  C_60
   29  A    between atoms: C_45  and  S_66
   30  A    between atoms: C_51  and  C_56
   31  A    between atoms: C_51  and  S_62
   32  A    between atoms: N_53  and  C_58
   33  A    between atoms: C_54  and  C_61
   34  A    between atoms: C_56  and  C_58
                            x       y       z     vdW  Elec       q    Type
                         _______ _______ _______ _____ _____    ______ ____

>  <TORSDO>
F 34

$$$$
=
 OpenBabel11062411033D

 66 70  0  0  1  0  0  0  0  0999 V2000
  191.7600  177.8750  140.6530 O   0  0  0  0  0  0  0  0  0  0  0  0
  192.5950  178.1250  141.7440 C   0  0  0  0  0  2  0  0  0  0  0  0
  191.8900  177.7480  143.0370 C   0  0  2  0  0  3  0  0  0  0  0  0
  191.3210  174.4730  143.2620 F   0  0  0  0  0  0  0  0  0  0  0  0
  192.3420  176.4870  143.4850 O   0  0  0  0  0  0  0  0  0  0  0  0
  190.0720  176.4690  143.0630 C   0  0  1  0  0  3  0  0  0  0  0  0
  190.4910  177.7810  142.8600 O   0  0  0  0  0  0  0  0  0  0  0  0
  191.1920  175.7540  143.7640 C   0  0  0  0  0  0  0  0  0  0  0  0
  191.0040  175.6990  145.1360 F   0  0  0  0  0  0  0  0  0  0  0  0
  187.4990  176.5780  142.8980 C   0  0  1  0  0  0  0  0  0  0  0  0
  187.6750  176.9390  141.5610 O   0  0  0  0  0  1  0  0  0  0  0  0
  187.9520  175.2730  143.1630 O   0  0  0  0  0  0  0  0  0  0  0  0
  188.6960  176.3290  143.7450 C   0  0  1  0  0  3  0  0  0  0  0  0
  186.1910  176.9250  143.5920 C   0  0  0  0  0  2  0  0  0  0  0  0
  185.3990  177.9760  142.8210 C   0  0  2  0  0  3  0  0  0  0  0  0
  186.1180  178.3590  141.6830 O   0  0  0  0  0  0  0  0  0  0  0  0
  185.4230  179.3400  141.1300 O   0  0  0  0  0  0  0  0  0  0  0  0
  184.3730  178.7210  140.4370 C   0  0  2  0  0  3  0  0  0  0  0  0
  184.7810  178.5510  138.9850 C   0  0  0  0  0  2  0  0  0  0  0  0
  183.8190  179.6550  139.3720 C   0  0  1  0  0  3  0  0  0  0  0  0
  181.5210  180.0460  139.0530 O   0  0  0  0  0  0  0  0  0  0  0  0
  182.4290  179.2310  139.0380 C   0  0  0  0  0  3  0  0  0  0  0  0
  185.2020  179.2060  143.6890 C   0  0  0  0  0  2  0  0  0  0  0  0
  186.0740  179.1530  144.8570 N   0  0  0  0  0  2  0  0  0  0  0  0
  185.2900  179.4100  146.0670 C   0  0  1  0  0  3  0  0  0  0  0  0
  183.9740  178.9710  145.8990 O   0  0  0  0  0  1  0  0  0  0  0  0
  186.6080  177.5740  146.7380 C   0  0  1  0  0  3  0  0  0  0  0  0
  187.3560  178.8060  147.0430 C   0  0  1  0  0  3  0  0  0  0  0  0
  186.6770  176.6220  147.7600 O   0  0  0  0  0  1  0  0  0  0  0  0
  185.8970  178.7660  147.2280 N   0  0  0  0  0  0  0  0  0  0  0  0
  188.0340  178.8260  148.4070 C   0  0  0  0  0  2  0  0  0  0  0  0
  189.3830  178.4970  148.2690 O   0  0  0  0  0  0  0  0  0  0  0  0
  189.5520  178.2720  146.9030 C   0  0  0  0  0  1  0  0  0  0  0  0
  192.5710  177.2370  139.7140 C   0  0  0  0  0  2  0  0  0  0  0  0
  191.8440  176.0510  139.0810 C   0  0  2  0  0  3  0  0  0  0  0  0
  192.5590  175.4830  137.8450 C   0  0  2  0  0  3  0  0  0  0  0  0
  191.9900  174.2550  137.4830 O   0  0  0  0  0  0  0  0  0  0  0  0
  191.4990  175.9050  135.4920 O   0  0  0  0  0  0  0  0  0  0  0  0
  191.4470  174.4440  135.8840 P   0  0  1  0  0  0  0  0  0  0  0  0
  192.5270  173.4960  134.7770 C   0  0  0  0  0  1  0  0  0  0  0  0
  189.8610  173.8730  135.7290 O   0  0  0  0  0  1  0  0  0  0  0  0
  194.0610  175.3240  138.0500 C   0  0  0  0  0  2  0  0  0  0  0  0
  196.0690  175.1610  136.6650 C   0  0  0  0  0  3  0  0  0  0  0  0
  194.7510  175.3140  136.7350 C   0  0  0  0  0  3  0  0  0  0  0  0
  196.9710  176.2620  134.6670 C   0  0  0  0  0  2  0  0  0  0  0  0
  196.7990  175.1550  135.3870 C   0  0  0  0  0  0  0  0  0  0  0  0
  197.5610  173.6400  134.8340 S   0  0  0  0  0  0  0  0  0  0  0  0
  197.8810  173.0690  136.5330 C   0  0  0  0  0  2  0  0  0  0  0  0
  195.9520  171.6700  136.5280 O   0  0  0  0  0  0  0  0  0  0  0  0
  197.1830  171.7770  136.7740 C   0  0  0  0  0  0  0  0  0  0  0  0
  197.9140  170.6490  137.2430 N   0  0  0  0  0  1  0  0  0  0  0  0
  190.0850  176.4300  138.7640 S   0  0  0  0  0  0  0  0  0  0  0  0
  190.4660  177.6290  137.4540 C   0  0  0  0  0  2  0  0  0  0  0  0
  189.5360  177.4090  136.2810 C   0  0  0  0  0  2  0  0  0  0  0  0
  188.1000  177.4230  136.7670 C   0  0  0  0  0  2  0  0  0  0  0  0
  187.6310  176.0580  136.9670 N   0  0  0  0  0  2  0  0  0  0  0  0
  186.5860  175.2030  134.6590 S   0  0  0  0  0  0  0  0  0  0  0  0
  186.5120  175.4920  136.2770 C   0  0  0  0  0  0  0  0  0  0  0  0
  185.3070  175.2420  137.0120 N   0  0  0  0  0  2  0  0  0  0  0  0
  183.9940  175.0910  136.3980 C   0  0  2  0  0  3  0  0  0  0  0  0
  181.0430  175.6240  135.6720 C   0  0  0  0  0  1  0  0  0  0  0  0
  183.0580  176.1620  136.9060 C   0  0  2  0  0  3  0  0  0  0  0  0
  181.7090  175.5870  136.9750 N   0  0  0  0  0  0  0  0  0  0  0  0
  181.9300  174.1770  137.2750 C   0  0  0  0  0  2  0  0  0  0  0  0
  183.3460  173.8030  136.8520 C   0  0  0  0  0  2  0  0  0  0  0  0
  183.1530  177.4580  136.1030 C   0  0  0  0  0  1  0  0  0  0  0  0
  1  2  1  0  0  0  0
  3  2  1  6  0  0  0
  3  5  1  0  0  0  0
  4  8  1  0  0  0  0
  5  8  1  0  0  0  0
  6  7  1  1  0  0  0
  6 13  1  0  0  0  0
  6  8  1  0  0  0  0
  7  3  1  0  0  0  0
  8  9  1  0  0  0  0
 10 11  1  6  0  0  0
 10 12  1  0  0  0  0
 10 14  1  0  0  0  0
 10 13  1  0  0  0  0
 13 12  1  6  0  0  0
 15 14  1  1  0  0  0
 15 23  1  0  0  0  0
 16 15  1  0  0  0  0
 17 16  1  0  0  0  0
 18 17  1  1  0  0  0
 19 20  1  0  0  0  0
 19 18  1  0  0  0  0
 20 22  1  6  0  0  0
 20 18  1  0  0  0  0
 22 21  2  0  0  0  0
 23 24  1  0  0  0  0
 24 25  1  0  0  0  0
 25 26  1  6  0  0  0
 25 30  1  0  0  0  0
 27 28  1  0  0  0  0
 27 30  1  0  0  0  0
 27 29  1  1  0  0  0
 28 30  1  0  0  0  0
 28 31  1  1  0  0  0
 32 31  1  0  0  0  0
 33 32  1  0  0  0  0
 34  1  1  0  0  0  0
 35 34  1  6  0  0  0
 36 42  1  1  0  0  0
 36 35  1  0  0  0  0
 37 36  1  0  0  0  0
 38 39  2  0  0  0  0
 39 40  1  6  0  0  0
 39 37  1  0  0  0  0
 41 39  1  0  0  0  0
 43 44  2  0  0  0  0
 44 42  1  0  0  0  0
 45 46  2  0  0  0  0
 46 43  1  0  0  0  0
 47 46  1  0  0  0  0
 47 48  1  0  0  0  0
 48 50  1  0  0  0  0
 49 50  2  0  0  0  0
 50 51  1  0  0  0  0
 52 35  1  0  0  0  0
 53 52  1  0  0  0  0
 54 55  1  0  0  0  0
 54 53  1  0  0  0  0
 55 56  1  0  0  0  0
 57 58  2  0  0  0  0
 58 56  1  0  0  0  0
 58 59  1  0  0  0  0
 60 65  1  0  0  0  0
 60 62  1  0  0  0  0
 60 59  1  1  0  0  0
 61 63  1  0  0  0  0
 62 66  1  6  0  0  0
 62 63  1  0  0  0  0
 63 64  1  0  0  0  0
 65 64  1  0  0  0  0
M  END
>  <MODEL>
5

>  <REMARK>
 VINA RESULT:      -3.0      2.342      5.268
  Name = 
  34 active torsions:
  status: ('A' for Active; 'I' for Inactive)
    1  A    between atoms: O_2  and  C_47
    2  A    between atoms: C_4  and  C_40
    3  A    between atoms: O_6  and  C_20
    4  A    between atoms: O_6  and  C_38
    5  A    between atoms: N_7  and  C_12
    6  A    between atoms: N_7  and  C_36
    7  A    between atoms: C_8  and  N_21
    8  A    between atoms: C_9  and  O_17
    9  A    between atoms: C_10  and  C_33
   10  A    between atoms: C_10  and  C_60
   11  A    between atoms: C_12  and  N_48
   12  A    between atoms: C_16  and  C_24
   13  A    between atoms: O_17  and  O_57
   14  A    between atoms: C_18  and  C_47
   15  A    between atoms: C_19  and  C_45
   16  A    between atoms: C_20  and  C_34
   17  A    between atoms: N_21  and  C_25
   18  A    between atoms: C_22  and  C_38
   19  A    between atoms: C_23  and  C_36
   20  A    between atoms: C_23  and  C_40
   21  A    between atoms: C_23  and  O_57
   22  A    between atoms: C_24  and  S_66
   23  A    between atoms: C_25  and  N_53
   24  A    between atoms: C_34  and  C_60
   25  A    between atoms: C_34  and  S_62
   26  A    between atoms: C_35  and  C_49
   27  A    between atoms: P_37  and  O_39
   28  A    between atoms: O_39  and  C_60
   29  A    between atoms: C_45  and  S_66
   30  A    between atoms: C_51  and  C_56
   31  A    between atoms: C_51  and  S_62
   32  A    between atoms: N_53  and  C_58
   33  A    between atoms: C_54  and  C_61
   34  A    between atoms: C_56  and  C_58
                            x       y       z     vdW  Elec       q    Type
                         _______ _______ _______ _____ _____    ______ ____

>  <TORSDO>
F 34

$$$$
=
 OpenBabel11062411033D

 66 70  0  0  1  0  0  0  0  0999 V2000
  188.5250  178.5380  138.1410 O   0  0  0  0  0  0  0  0  0  0  0  0
  187.6300  177.5910  138.6440 C   0  0  0  0  0  2  0  0  0  0  0  0
  187.0670  178.0630  139.9750 C   0  0  2  0  0  3  0  0  0  0  0  0
  189.2780  179.8310  141.7310 F   0  0  0  0  0  0  0  0  0  0  0  0
  187.5890  179.3340  140.2990 O   0  0  0  0  0  0  0  0  0  0  0  0
  188.1520  177.7600  141.8910 C   0  0  1  0  0  3  0  0  0  0  0  0
  187.3240  177.1080  140.9820 O   0  0  0  0  0  0  0  0  0  0  0  0
  188.0390  179.2310  141.6120 C   0  0  0  0  0  0  0  0  0  0  0  0
  187.1350  179.8590  142.4560 F   0  0  0  0  0  0  0  0  0  0  0  0
  186.5210  177.1260  143.7890 C   0  0  1  0  0  0  0  0  0  0  0  0
  185.4940  177.2870  142.8570 O   0  0  0  0  0  1  0  0  0  0  0  0
  187.3800  176.0630  143.4590 O   0  0  0  0  0  0  0  0  0  0  0  0
  187.9260  177.3670  143.3660 C   0  0  1  0  0  3  0  0  0  0  0  0
  186.1960  177.2130  145.2720 C   0  0  0  0  0  2  0  0  0  0  0  0
  186.3000  178.6430  145.7940 C   0  0  2  0  0  3  0  0  0  0  0  0
  187.1250  178.6680  146.9240 O   0  0  0  0  0  0  0  0  0  0  0  0
  188.3640  178.7230  146.4650 O   0  0  0  0  0  0  0  0  0  0  0  0
  188.9760  177.5290  146.8710 C   0  0  2  0  0  3  0  0  0  0  0  0
  190.0240  177.8510  147.9210 C   0  0  0  0  0  2  0  0  0  0  0  0
  190.4520  177.5380  146.5030 C   0  0  1  0  0  3  0  0  0  0  0  0
  191.5190  175.6410  147.3940 O   0  0  0  0  0  0  0  0  0  0  0  0
  190.9400  176.1320  146.4380 C   0  0  0  0  0  3  0  0  0  0  0  0
  184.9250  179.1380  146.2050 C   0  0  0  0  0  2  0  0  0  0  0  0
  183.8820  178.3610  145.5450 N   0  0  0  0  0  2  0  0  0  0  0  0
  183.0540  179.2460  144.7230 C   0  0  1  0  0  3  0  0  0  0  0  0
  183.8310  179.8740  143.7470 O   0  0  0  0  0  1  0  0  0  0  0  0
  180.7210  179.2570  144.3840 C   0  0  1  0  0  3  0  0  0  0  0  0
  181.3730  179.3750  143.0670 C   0  0  1  0  0  3  0  0  0  0  0  0
  179.6350  178.3770  144.3810 O   0  0  0  0  0  1  0  0  0  0  0  0
  181.9570  178.5090  144.1040 N   0  0  0  0  0  0  0  0  0  0  0  0
  180.7700  178.5080  141.9700 C   0  0  0  0  0  2  0  0  0  0  0  0
  179.7270  179.1920  141.3460 O   0  0  0  0  0  0  0  0  0  0  0  0
  179.0520  178.2130  140.6160 C   0  0  0  0  0  1  0  0  0  0  0  0
  189.3060  177.8420  137.2160 C   0  0  0  0  0  2  0  0  0  0  0  0
  189.8300  176.5380  137.8160 C   0  0  2  0  0  3  0  0  0  0  0  0
  191.3250  176.5820  138.1680 C   0  0  2  0  0  3  0  0  0  0  0  0
  191.5830  177.6510  139.0360 O   0  0  0  0  0  0  0  0  0  0  0  0
  193.1700  176.3010  140.6440 O   0  0  0  0  0  0  0  0  0  0  0  0
  191.8100  176.9620  140.5720 P   0  0  1  0  0  0  0  0  0  0  0  0
  191.7210  178.2690  141.8260 C   0  0  0  0  0  1  0  0  0  0  0  0
  190.6060  175.8140  140.8870 O   0  0  0  0  0  1  0  0  0  0  0  0
  192.2200  176.6780  136.9380 C   0  0  0  0  0  2  0  0  0  0  0  0
  193.6890  174.8110  137.5170 C   0  0  0  0  0  3  0  0  0  0  0  0
  193.5560  176.1040  137.2410 C   0  0  0  0  0  3  0  0  0  0  0  0
  195.3850  173.9900  139.0880 C   0  0  0  0  0  2  0  0  0  0  0  0
  194.9900  174.1990  137.8340 C   0  0  0  0  0  0  0  0  0  0  0  0
  196.0260  173.6300  136.4980 S   0  0  0  0  0  0  0  0  0  0  0  0
  197.2200  174.9860  136.7200 C   0  0  0  0  0  2  0  0  0  0  0  0
  198.9530  174.9240  138.3540 O   0  0  0  0  0  0  0  0  0  0  0  0
  198.4930  174.4550  137.2790 C   0  0  0  0  0  0  0  0  0  0  0  0
  199.1710  173.3890  136.6220 N   0  0  0  0  0  1  0  0  0  0  0  0
  189.3950  175.0970  136.7800 S   0  0  0  0  0  0  0  0  0  0  0  0
  188.6100  176.1170  135.4990 C   0  0  0  0  0  2  0  0  0  0  0  0
  187.4270  175.3740  134.9160 C   0  0  0  0  0  2  0  0  0  0  0  0
  187.1080  174.1730  135.7830 C   0  0  0  0  0  2  0  0  0  0  0  0
  186.2040  173.2760  135.0750 N   0  0  0  0  0  2  0  0  0  0  0  0
  184.4040  171.2990  135.0630 S   0  0  0  0  0  0  0  0  0  0  0  0
  185.0390  172.6910  135.6660 C   0  0  0  0  0  0  0  0  0  0  0  0
  184.4030  173.3770  136.7530 N   0  0  0  0  0  2  0  0  0  0  0  0
  183.2740  174.2850  136.5940 C   0  0  2  0  0  3  0  0  0  0  0  0
  180.4110  175.3010  136.0590 C   0  0  0  0  0  1  0  0  0  0  0  0
  182.0410  173.5120  136.1920 C   0  0  2  0  0  3  0  0  0  0  0  0
  181.2440  174.3660  135.3020 N   0  0  0  0  0  0  0  0  0  0  0  0
  182.2300  175.1810  134.6010 C   0  0  0  0  0  2  0  0  0  0  0  0
  183.5100  175.2180  135.4280 C   0  0  0  0  0  2  0  0  0  0  0  0
  181.2740  172.9600  137.3920 C   0  0  0  0  0  1  0  0  0  0  0  0
  1  2  1  0  0  0  0
  3  2  1  6  0  0  0
  3  5  1  0  0  0  0
  3  7  1  0  0  0  0
  5  8  1  0  0  0  0
  6  7  1  6  0  0  0
  6 13  1  0  0  0  0
  8  4  1  0  0  0  0
  8  6  1  0  0  0  0
  8  9  1  0  0  0  0
 10 11  1  6  0  0  0
 10 14  1  0  0  0  0
 12 10  1  0  0  0  0
 13 12  1  6  0  0  0
 13 10  1  0  0  0  0
 15 14  1  1  0  0  0
 15 23  1  0  0  0  0
 15 16  1  0  0  0  0
 17 16  1  0  0  0  0
 18 17  1  6  0  0  0
 18 19  1  0  0  0  0
 20 22  1  1  0  0  0
 20 18  1  0  0  0  0
 20 19  1  0  0  0  0
 22 21  2  0  0  0  0
 24 23  1  0  0  0  0
 25 26  1  6  0  0  0
 25 24  1  0  0  0  0
 27 29  1  6  0  0  0
 28 31  1  6  0  0  0
 28 30  1  0  0  0  0
 28 27  1  0  0  0  0
 30 27  1  0  0  0  0
 30 25  1  0  0  0  0
 32 31  1  0  0  0  0
 33 32  1  0  0  0  0
 34  1  1  0  0  0  0
 35 34  1  6  0  0  0
 35 36  1  0  0  0  0
 36 42  1  6  0  0  0
 36 37  1  0  0  0  0
 37 39  1  0  0  0  0
 39 38  2  0  0  0  0
 39 41  1  0  0  0  0
 39 40  1  1  0  0  0
 42 44  1  0  0  0  0
 43 46  1  0  0  0  0
 44 43  2  0  0  0  0
 46 45  2  0  0  0  0
 47 48  1  0  0  0  0
 47 46  1  0  0  0  0
 48 50  1  0  0  0  0
 50 49  2  0  0  0  0
 51 50  1  0  0  0  0
 52 35  1  0  0  0  0
 53 52  1  0  0  0  0
 54 53  1  0  0  0  0
 54 55  1  0  0  0  0
 56 58  1  0  0  0  0
 56 55  1  0  0  0  0
 57 58  2  0  0  0  0
 58 59  1  0  0  0  0
 60 59  1  6  0  0  0
 62 60  1  0  0  0  0
 62 66  1  1  0  0  0
 63 61  1  0  0  0  0
 63 62  1  0  0  0  0
 64 63  1  0  0  0  0
 64 65  1  0  0  0  0
 65 60  1  0  0  0  0
M  END
>  <MODEL>
6

>  <REMARK>
 VINA RESULT:      -2.9      2.430      3.112
  Name = 
  34 active torsions:
  status: ('A' for Active; 'I' for Inactive)
    1  A    between atoms: O_2  and  C_47
    2  A    between atoms: C_4  and  C_40
    3  A    between atoms: O_6  and  C_20
    4  A    between atoms: O_6  and  C_38
    5  A    between atoms: N_7  and  C_12
    6  A    between atoms: N_7  and  C_36
    7  A    between atoms: C_8  and  N_21
    8  A    between atoms: C_9  and  O_17
    9  A    between atoms: C_10  and  C_33
   10  A    between atoms: C_10  and  C_60
   11  A    between atoms: C_12  and  N_48
   12  A    between atoms: C_16  and  C_24
   13  A    between atoms: O_17  and  O_57
   14  A    between atoms: C_18  and  C_47
   15  A    between atoms: C_19  and  C_45
   16  A    between atoms: C_20  and  C_34
   17  A    between atoms: N_21  and  C_25
   18  A    between atoms: C_22  and  C_38
   19  A    between atoms: C_23  and  C_36
   20  A    between atoms: C_23  and  C_40
   21  A    between atoms: C_23  and  O_57
   22  A    between atoms: C_24  and  S_66
   23  A    between atoms: C_25  and  N_53
   24  A    between atoms: C_34  and  C_60
   25  A    between atoms: C_34  and  S_62
   26  A    between atoms: C_35  and  C_49
   27  A    between atoms: P_37  and  O_39
   28  A    between atoms: O_39  and  C_60
   29  A    between atoms: C_45  and  S_66
   30  A    between atoms: C_51  and  C_56
   31  A    between atoms: C_51  and  S_62
   32  A    between atoms: N_53  and  C_58
   33  A    between atoms: C_54  and  C_61
   34  A    between atoms: C_56  and  C_58
                            x       y       z     vdW  Elec       q    Type
                         _______ _______ _______ _____ _____    ______ ____

>  <TORSDO>
F 34

$$$$
=
 OpenBabel11062411033D

 66 70  0  0  1  0  0  0  0  0999 V2000
  189.3870  176.7370  138.0020 O   0  0  0  0  0  0  0  0  0  0  0  0
  189.1730  177.7910  138.8930 C   0  0  0  0  0  2  0  0  0  0  0  0
  188.3910  177.3010  140.1010 C   0  0  2  0  0  3  0  0  0  0  0  0
  186.7160  179.7570  141.6060 F   0  0  0  0  0  0  0  0  0  0  0  0
  187.1820  178.0220  140.2200 O   0  0  0  0  0  0  0  0  0  0  0  0
  188.5200  178.3080  142.0790 C   0  0  1  0  0  3  0  0  0  0  0  0
  189.1820  177.3920  141.2660 O   0  0  0  0  0  0  0  0  0  0  0  0
  187.1220  178.4380  141.5470 C   0  0  0  0  0  0  0  0  0  0  0  0
  186.2190  177.6420  142.2360 F   0  0  0  0  0  0  0  0  0  0  0  0
  187.8680  176.8160  144.0820 C   0  0  1  0  0  0  0  0  0  0  0  0
  187.1290  176.0520  143.1760 O   0  0  0  0  0  1  0  0  0  0  0  0
  189.2490  176.7670  143.8200 O   0  0  0  0  0  0  0  0  0  0  0  0
  188.6060  178.0090  143.5900 C   0  0  1  0  0  3  0  0  0  0  0  0
  187.5220  176.7470  145.5610 C   0  0  0  0  0  2  0  0  0  0  0  0
  187.8530  178.0500  146.2830 C   0  0  2  0  0  3  0  0  0  0  0  0
  188.6630  177.7770  147.3910 O   0  0  0  0  0  0  0  0  0  0  0  0
  189.2530  176.6220  147.1300 O   0  0  0  0  0  0  0  0  0  0  0  0
  190.6100  176.8090  147.4330 C   0  0  2  0  0  3  0  0  0  0  0  0
  191.4360  176.4340  146.2160 C   0  0  0  0  0  2  0  0  0  0  0  0
  191.3490  175.4810  147.3900 C   0  0  1  0  0  3  0  0  0  0  0  0
  193.6380  175.9420  147.6820 O   0  0  0  0  0  0  0  0  0  0  0  0
  192.5910  175.5960  148.2060 C   0  0  0  0  0  3  0  0  0  0  0  0
  186.5730  178.6950  146.7840 C   0  0  0  0  0  2  0  0  0  0  0  0
  185.4060  177.9970  146.2560 N   0  0  0  0  0  2  0  0  0  0  0  0
  184.5890  178.9260  145.4740 C   0  0  1  0  0  3  0  0  0  0  0  0
  185.4030  179.7640  144.7050 O   0  0  0  0  0  1  0  0  0  0  0  0
  182.3350  178.8400  144.7900 C   0  0  1  0  0  3  0  0  0  0  0  0
  183.1570  179.1530  143.6070 C   0  0  1  0  0  3  0  0  0  0  0  0
  181.3300  177.9030  144.5270 O   0  0  0  0  0  1  0  0  0  0  0  0
  183.6520  178.2050  144.6190 N   0  0  0  0  0  0  0  0  0  0  0  0
  182.7850  178.3890  142.3440 C   0  0  0  0  0  2  0  0  0  0  0  0
  183.6840  178.6960  141.3220 O   0  0  0  0  0  0  0  0  0  0  0  0
  182.9620  178.4920  140.1460 C   0  0  0  0  0  1  0  0  0  0  0  0
  190.7690  176.5410  137.9990 C   0  0  0  0  0  2  0  0  0  0  0  0
  191.1110  175.0730  137.7410 C   0  0  2  0  0  3  0  0  0  0  0  0
  192.3340  174.8800  136.8310 C   0  0  2  0  0  3  0  0  0  0  0  0
  192.6660  176.0900  136.2090 O   0  0  0  0  0  0  0  0  0  0  0  0
  193.9670  178.1200  137.2610 O   0  0  0  0  0  1  0  0  0  0  0  0
  194.0790  176.6380  136.9760 P   0  0  1  0  0  0  0  0  0  0  0  0
  194.2850  175.7490  138.5420 C   0  0  0  0  0  1  0  0  0  0  0  0
  195.4300  176.3510  135.9960 O   0  0  0  0  0  0  0  0  0  0  0  0
  192.1260  173.7910  135.7850 C   0  0  0  0  0  2  0  0  0  0  0  0
  194.4850  173.1450  135.7990 C   0  0  0  0  0  3  0  0  0  0  0  0
  193.2100  172.7800  135.8880 C   0  0  0  0  0  3  0  0  0  0  0  0
  196.0720  171.5590  134.8090 C   0  0  0  0  0  2  0  0  0  0  0  0
  195.5930  172.1790  135.8840 C   0  0  0  0  0  0  0  0  0  0  0  0
  196.3810  171.9050  137.4610 S   0  0  0  0  0  0  0  0  0  0  0  0
  196.7570  173.6720  137.6870 C   0  0  0  0  0  2  0  0  0  0  0  0
  198.9940  172.8680  137.8500 O   0  0  0  0  0  0  0  0  0  0  0  0
  198.2140  173.8550  137.9270 C   0  0  0  0  0  0  0  0  0  0  0  0
  198.7340  175.1510  138.2040 N   0  0  0  0  0  1  0  0  0  0  0  0
  189.6530  174.1330  137.1670 S   0  0  0  0  0  0  0  0  0  0  0  0
  189.8320  174.6910  135.4480 C   0  0  0  0  0  2  0  0  0  0  0  0
  188.5530  175.3640  134.9990 C   0  0  0  0  0  2  0  0  0  0  0  0
  187.4890  174.3130  134.7520 C   0  0  0  0  0  2  0  0  0  0  0  0
  186.1710  174.9320  134.7490 N   0  0  0  0  0  2  0  0  0  0  0  0
  186.0880  175.2600  137.4010 S   0  0  0  0  0  0  0  0  0  0  0  0
  185.3760  175.1160  135.9250 C   0  0  0  0  0  0  0  0  0  0  0  0
  183.9480  175.1090  135.7970 N   0  0  0  0  0  2  0  0  0  0  0  0
  183.1010  173.9890  136.1860 C   0  0  2  0  0  3  0  0  0  0  0  0
  181.5280  171.3390  136.0320 C   0  0  0  0  0  1  0  0  0  0  0  0
  182.9270  173.0410  135.0230 C   0  0  2  0  0  3  0  0  0  0  0  0
  181.5780  172.4690  135.1040 N   0  0  0  0  0  0  0  0  0  0  0  0
  180.7720  173.5240  135.7100 C   0  0  0  0  0  2  0  0  0  0  0  0
  181.6950  174.4670  136.4720 C   0  0  0  0  0  2  0  0  0  0  0  0
  184.0480  172.0070  134.9340 C   0  0  0  0  0  1  0  0  0  0  0  0
  1  2  1  0  0  0  0
  3  2  1  6  0  0  0
  3  5  1  0  0  0  0
  3  7  1  0  0  0  0
  5  8  1  0  0  0  0
  6  7  1  6  0  0  0
  6 13  1  0  0  0  0
  8  4  1  0  0  0  0
  8  6  1  0  0  0  0
  8  9  1  0  0  0  0
 10 11  1  6  0  0  0
 10 14  1  0  0  0  0
 12 10  1  0  0  0  0
 13 12  1  6  0  0  0
 13 10  1  0  0  0  0
 15 14  1  1  0  0  0
 15 23  1  0  0  0  0
 15 16  1  0  0  0  0
 17 16  1  0  0  0  0
 18 17  1  6  0  0  0
 19 20  1  0  0  0  0
 19 18  1  0  0  0  0
 20 18  1  0  0  0  0
 20 22  1  1  0  0  0
 21 22  2  0  0  0  0
 24 23  1  0  0  0  0
 25 26  1  6  0  0  0
 25 24  1  0  0  0  0
 27 29  1  6  0  0  0
 28 31  1  6  0  0  0
 28 30  1  0  0  0  0
 28 27  1  0  0  0  0
 30 27  1  0  0  0  0
 30 25  1  0  0  0  0
 32 31  1  0  0  0  0
 33 32  1  0  0  0  0
 34  1  1  0  0  0  0
 35 34  1  6  0  0  0
 36 42  1  6  0  0  0
 36 35  1  0  0  0  0
 37 36  1  0  0  0  0
 37 39  1  0  0  0  0
 39 38  1  0  0  0  0
 39 40  1  1  0  0  0
 41 39  2  0  0  0  0
 42 44  1  0  0  0  0
 43 46  1  0  0  0  0
 43 44  2  0  0  0  0
 45 46  2  0  0  0  0
 46 47  1  0  0  0  0
 47 48  1  0  0  0  0
 48 50  1  0  0  0  0
 49 50  2  0  0  0  0
 50 51  1  0  0  0  0
 52 35  1  0  0  0  0
 53 52  1  0  0  0  0
 54 53  1  0  0  0  0
 55 54  1  0  0  0  0
 56 55  1  0  0  0  0
 56 58  1  0  0  0  0
 58 57  2  0  0  0  0
 59 58  1  0  0  0  0
 60 59  1  6  0  0  0
 60 65  1  0  0  0  0
 62 66  1  1  0  0  0
 62 63  1  0  0  0  0
 62 60  1  0  0  0  0
 63 64  1  0  0  0  0
 63 61  1  0  0  0  0
 64 65  1  0  0  0  0
M  END
>  <MODEL>
7

>  <REMARK>
 VINA RESULT:      -2.9      2.176      2.905
  Name = 
  34 active torsions:
  status: ('A' for Active; 'I' for Inactive)
    1  A    between atoms: O_2  and  C_47
    2  A    between atoms: C_4  and  C_40
    3  A    between atoms: O_6  and  C_20
    4  A    between atoms: O_6  and  C_38
    5  A    between atoms: N_7  and  C_12
    6  A    between atoms: N_7  and  C_36
    7  A    between atoms: C_8  and  N_21
    8  A    between atoms: C_9  and  O_17
    9  A    between atoms: C_10  and  C_33
   10  A    between atoms: C_10  and  C_60
   11  A    between atoms: C_12  and  N_48
   12  A    between atoms: C_16  and  C_24
   13  A    between atoms: O_17  and  O_57
   14  A    between atoms: C_18  and  C_47
   15  A    between atoms: C_19  and  C_45
   16  A    between atoms: C_20  and  C_34
   17  A    between atoms: N_21  and  C_25
   18  A    between atoms: C_22  and  C_38
   19  A    between atoms: C_23  and  C_36
   20  A    between atoms: C_23  and  C_40
   21  A    between atoms: C_23  and  O_57
   22  A    between atoms: C_24  and  S_66
   23  A    between atoms: C_25  and  N_53
   24  A    between atoms: C_34  and  C_60
   25  A    between atoms: C_34  and  S_62
   26  A    between atoms: C_35  and  C_49
   27  A    between atoms: P_37  and  O_39
   28  A    between atoms: O_39  and  C_60
   29  A    between atoms: C_45  and  S_66
   30  A    between atoms: C_51  and  C_56
   31  A    between atoms: C_51  and  S_62
   32  A    between atoms: N_53  and  C_58
   33  A    between atoms: C_54  and  C_61
   34  A    between atoms: C_56  and  C_58
                            x       y       z     vdW  Elec       q    Type
                         _______ _______ _______ _____ _____    ______ ____

>  <TORSDO>
F 34

$$$$
=
 OpenBabel11062411033D

 66 70  0  0  1  0  0  0  0  0999 V2000
  185.7330  178.5070  139.5850 O   0  0  0  0  0  0  0  0  0  0  0  0
  186.9260  177.7890  139.4820 C   0  0  0  0  0  2  0  0  0  0  0  0
  187.7290  178.2790  138.2870 C   0  0  2  0  0  3  0  0  0  0  0  0
  186.0310  178.0250  135.4320 F   0  0  0  0  0  0  0  0  0  0  0  0
  186.8730  178.8980  137.3500 O   0  0  0  0  0  0  0  0  0  0  0  0
  187.9460  177.0710  136.4340 C   0  0  1  0  0  3  0  0  0  0  0  0
  188.4610  177.2160  137.7190 O   0  0  0  0  0  0  0  0  0  0  0  0
  187.1900  178.3300  136.1200 C   0  0  0  0  0  0  0  0  0  0  0  0
  187.9470  179.2280  135.3820 F   0  0  0  0  0  0  0  0  0  0  0  0
  189.5580  175.2950  135.4810 C   0  0  1  0  0  0  0  0  0  0  0  0
  189.1600  174.4750  136.5380 O   0  0  0  0  0  1  0  0  0  0  0  0
  188.5030  175.5740  134.5940 O   0  0  0  0  0  0  0  0  0  0  0  0
  188.9820  176.6610  135.3670 C   0  0  1  0  0  3  0  0  0  0  0  0
  190.8830  175.0170  134.7880 C   0  0  0  0  0  2  0  0  0  0  0  0
  191.9530  176.0320  135.1790 C   0  0  2  0  0  3  0  0  0  0  0  0
  193.1480  175.3620  135.4670 O   0  0  0  0  0  0  0  0  0  0  0  0
  192.7930  174.1870  135.9600 O   0  0  0  0  0  0  0  0  0  0  0  0
  193.9530  173.3990  135.9430 C   0  0  2  0  0  3  0  0  0  0  0  0
  193.5750  171.9860  135.5400 C   0  0  0  0  0  2  0  0  0  0  0  0
  193.8630  172.3030  136.9930 C   0  0  1  0  0  3  0  0  0  0  0  0
  195.6010  171.7940  138.4940 O   0  0  0  0  0  0  0  0  0  0  0  0
  195.2410  171.8460  137.3290 C   0  0  0  0  0  3  0  0  0  0  0  0
  191.5180  176.7770  136.4280 C   0  0  0  0  0  2  0  0  0  0  0  0
  192.1880  176.2370  137.6060 N   0  0  0  0  0  2  0  0  0  0  0  0
  191.3130  176.3680  138.7720 C   0  0  1  0  0  3  0  0  0  0  0  0
  190.3910  175.3190  138.8120 O   0  0  0  0  0  1  0  0  0  0  0  0
  193.1870  177.3670  139.7950 C   0  0  1  0  0  3  0  0  0  0  0  0
  191.9880  177.7720  140.5500 C   0  0  1  0  0  3  0  0  0  0  0  0
  194.2660  177.0290  140.6180 O   0  0  0  0  0  1  0  0  0  0  0  0
  192.0910  176.4080  140.0060 N   0  0  0  0  0  0  0  0  0  0  0  0
  192.1330  177.7200  142.0650 C   0  0  0  0  0  2  0  0  0  0  0  0
  191.2430  176.7860  142.5940 O   0  0  0  0  0  0  0  0  0  0  0  0
  191.7940  176.4340  143.8260 C   0  0  0  0  0  1  0  0  0  0  0  0
  184.9670  178.0940  138.4930 C   0  0  0  0  0  2  0  0  0  0  0  0
  183.4740  178.1940  138.8040 C   0  0  2  0  0  3  0  0  0  0  0  0
  182.6020  178.4170  137.5590 C   0  0  2  0  0  3  0  0  0  0  0  0
  181.2490  178.2790  137.8890 O   0  0  0  0  0  0  0  0  0  0  0  0
  178.9430  179.2920  137.1280 O   0  0  0  0  0  1  0  0  0  0  0  0
  180.4370  179.5250  137.0680 P   0  0  1  0  0  0  0  0  0  0  0  0
  180.8210  181.1070  137.8660 C   0  0  0  0  0  1  0  0  0  0  0  0
  180.9350  179.5870  135.4510 O   0  0  0  0  0  0  0  0  0  0  0  0
  182.9610  177.4800  136.4110 C   0  0  0  0  0  2  0  0  0  0  0  0
  183.6020  175.1270  136.5940 C   0  0  0  0  0  3  0  0  0  0  0  0
  182.6930  176.0730  136.8070 C   0  0  0  0  0  3  0  0  0  0  0  0
  184.3190  172.9830  137.5460 C   0  0  0  0  0  2  0  0  0  0  0  0
  183.3780  173.7180  136.9580 C   0  0  0  0  0  0  0  0  0  0  0  0
  181.7650  173.0030  136.6920 S   0  0  0  0  0  0  0  0  0  0  0  0
  180.9310  174.6200  136.7680 C   0  0  0  0  0  2  0  0  0  0  0  0
  180.0710  173.9770  134.6400 O   0  0  0  0  0  0  0  0  0  0  0  0
  179.9850  174.7570  135.6270 C   0  0  0  0  0  0  0  0  0  0  0  0
  178.9580  175.7410  135.6670 N   0  0  0  0  0  1  0  0  0  0  0  0
  183.1420  179.4160  140.1210 S   0  0  0  0  0  0  0  0  0  0  0  0
  183.1590  178.1650  141.4380 C   0  0  0  0  0  2  0  0  0  0  0  0
  182.2930  178.6300  142.5880 C   0  0  0  0  0  2  0  0  0  0  0  0
  183.1740  179.1660  143.6990 C   0  0  0  0  0  2  0  0  0  0  0  0
  184.3370  178.3060  143.8700 N   0  0  0  0  0  2  0  0  0  0  0  0
  185.9960  180.2400  143.0620 S   0  0  0  0  0  0  0  0  0  0  0  0
  185.6840  178.7350  143.6480 C   0  0  0  0  0  0  0  0  0  0  0  0
  186.7490  177.8060  143.8870 N   0  0  0  0  0  2  0  0  0  0  0  0
  187.1220  177.3160  145.2080 C   0  0  2  0  0  3  0  0  0  0  0  0
  187.8590  177.3000  148.2040 C   0  0  0  0  0  1  0  0  0  0  0  0
  187.2890  178.4750  146.1620 C   0  0  2  0  0  3  0  0  0  0  0  0
  188.3580  178.1310  147.1080 N   0  0  0  0  0  0  0  0  0  0  0  0
  189.2630  177.2830  146.3400 C   0  0  0  0  0  2  0  0  0  0  0  0
  188.4950  176.6850  145.1670 C   0  0  0  0  0  2  0  0  0  0  0  0
  185.9740  178.8910  146.8200 C   0  0  0  0  0  1  0  0  0  0  0  0
  2  1  1  0  0  0  0
  3  2  1  1  0  0  0
  4  8  1  0  0  0  0
  5  3  1  0  0  0  0
  6  7  1  1  0  0  0
  7  3  1  0  0  0  0
  8  6  1  0  0  0  0
  8  5  1  0  0  0  0
  9  8  1  0  0  0  0
 10 11  1  1  0  0  0
 12 10  1  0  0  0  0
 13 12  1  6  0  0  0
 13 10  1  0  0  0  0
 13  6  1  0  0  0  0
 14 10  1  0  0  0  0
 15 14  1  1  0  0  0
 15 16  1  0  0  0  0
 15 23  1  0  0  0  0
 16 17  1  0  0  0  0
 18 17  1  1  0  0  0
 18 20  1  0  0  0  0
 19 18  1  0  0  0  0
 19 20  1  0  0  0  0
 20 22  1  6  0  0  0
 22 21  2  0  0  0  0
 23 24  1  0  0  0  0
 24 25  1  0  0  0  0
 25 26  1  1  0  0  0
 25 30  1  0  0  0  0
 27 30  1  0  0  0  0
 27 28  1  0  0  0  0
 27 29  1  1  0  0  0
 28 31  1  1  0  0  0
 30 28  1  0  0  0  0
 31 32  1  0  0  0  0
 32 33  1  0  0  0  0
 34  1  1  0  0  0  0
 35 34  1  6  0  0  0
 35 52  1  0  0  0  0
 36 42  1  6  0  0  0
 36 37  1  0  0  0  0
 36 35  1  0  0  0  0
 39 38  1  0  0  0  0
 39 40  1  1  0  0  0
 39 37  1  0  0  0  0
 41 39  2  0  0  0  0
 42 44  1  0  0  0  0
 43 44  2  0  0  0  0
 43 46  1  0  0  0  0
 46 45  2  0  0  0  0
 47 48  1  0  0  0  0
 47 46  1  0  0  0  0
 49 50  2  0  0  0  0
 50 51  1  0  0  0  0
 50 48  1  0  0  0  0
 52 53  1  0  0  0  0
 53 54  1  0  0  0  0
 54 55  1  0  0  0  0
 55 56  1  0  0  0  0
 57 58  2  0  0  0  0
 58 56  1  0  0  0  0
 58 59  1  0  0  0  0
 60 59  1  6  0  0  0
 60 62  1  0  0  0  0
 62 66  1  1  0  0  0
 62 63  1  0  0  0  0
 63 61  1  0  0  0  0
 64 63  1  0  0  0  0
 65 60  1  0  0  0  0
 65 64  1  0  0  0  0
M  END
>  <MODEL>
8

>  <REMARK>
 VINA RESULT:      -2.6      3.849     10.504
  Name = 
  34 active torsions:
  status: ('A' for Active; 'I' for Inactive)
    1  A    between atoms: O_2  and  C_47
    2  A    between atoms: C_4  and  C_40
    3  A    between atoms: O_6  and  C_20
    4  A    between atoms: O_6  and  C_38
    5  A    between atoms: N_7  and  C_12
    6  A    between atoms: N_7  and  C_36
    7  A    between atoms: C_8  and  N_21
    8  A    between atoms: C_9  and  O_17
    9  A    between atoms: C_10  and  C_33
   10  A    between atoms: C_10  and  C_60
   11  A    between atoms: C_12  and  N_48
   12  A    between atoms: C_16  and  C_24
   13  A    between atoms: O_17  and  O_57
   14  A    between atoms: C_18  and  C_47
   15  A    between atoms: C_19  and  C_45
   16  A    between atoms: C_20  and  C_34
   17  A    between atoms: N_21  and  C_25
   18  A    between atoms: C_22  and  C_38
   19  A    between atoms: C_23  and  C_36
   20  A    between atoms: C_23  and  C_40
   21  A    between atoms: C_23  and  O_57
   22  A    between atoms: C_24  and  S_66
   23  A    between atoms: C_25  and  N_53
   24  A    between atoms: C_34  and  C_60
   25  A    between atoms: C_34  and  S_62
   26  A    between atoms: C_35  and  C_49
   27  A    between atoms: P_37  and  O_39
   28  A    between atoms: O_39  and  C_60
   29  A    between atoms: C_45  and  S_66
   30  A    between atoms: C_51  and  C_56
   31  A    between atoms: C_51  and  S_62
   32  A    between atoms: N_53  and  C_58
   33  A    between atoms: C_54  and  C_61
   34  A    between atoms: C_56  and  C_58
                            x       y       z     vdW  Elec       q    Type
                         _______ _______ _______ _____ _____    ______ ____

>  <TORSDO>
F 34

$$$$
=
 OpenBabel11062411033D

 66 70  0  0  1  0  0  0  0  0999 V2000
  190.1790  178.2590  138.7520 O   0  0  0  0  0  0  0  0  0  0  0  0
  189.2280  177.5260  139.4640 C   0  0  0  0  0  2  0  0  0  0  0  0
  188.6540  178.3710  140.5900 C   0  0  2  0  0  3  0  0  0  0  0  0
  188.5840  176.7350  143.4920 F   0  0  0  0  0  0  0  0  0  0  0  0
  189.3090  178.0680  141.8040 O   0  0  0  0  0  0  0  0  0  0  0  0
  187.0480  177.6200  141.9310 C   0  0  1  0  0  3  0  0  0  0  0  0
  187.2580  178.1880  140.6770 O   0  0  0  0  0  0  0  0  0  0  0  0
  188.2950  177.8530  142.7340 C   0  0  0  0  0  0  0  0  0  0  0  0
  188.1890  178.9610  143.5610 F   0  0  0  0  0  0  0  0  0  0  0  0
  185.5190  179.5220  142.7720 C   0  0  1  0  0  0  0  0  0  0  0  0
  186.4900  180.4080  142.3000 O   0  0  0  0  0  1  0  0  0  0  0  0
  184.9180  178.7870  141.7350 O   0  0  0  0  0  0  0  0  0  0  0  0
  185.7440  178.0590  142.6270 C   0  0  1  0  0  3  0  0  0  0  0  0
  184.5400  179.9940  143.8350 C   0  0  0  0  0  2  0  0  0  0  0  0
  184.6330  179.1560  145.1060 C   0  0  2  0  0  3  0  0  0  0  0  0
  185.7940  178.3760  145.0670 O   0  0  0  0  0  0  0  0  0  0  0  0
  186.2950  178.4100  146.2910 O   0  0  0  0  0  0  0  0  0  0  0  0
  187.2610  177.3950  146.3380 C   0  0  2  0  0  3  0  0  0  0  0  0
  187.4500  176.9700  147.7820 C   0  0  0  0  0  2  0  0  0  0  0  0
  188.4800  177.8610  147.1190 C   0  0  1  0  0  3  0  0  0  0  0  0
  189.4860  175.9790  146.1300 O   0  0  0  0  0  0  0  0  0  0  0  0
  189.6540  177.0360  146.7160 C   0  0  0  0  0  3  0  0  0  0  0  0
  183.4400  178.2210  145.1900 C   0  0  0  0  0  2  0  0  0  0  0  0
  182.9060  177.9520  143.8600 N   0  0  0  0  0  2  0  0  0  0  0  0
  181.6590  178.6970  143.6710 C   0  0  1  0  0  3  0  0  0  0  0  0
  181.8520  180.0520  143.9530 O   0  0  0  0  0  1  0  0  0  0  0  0
  179.8400  177.8660  142.4230 C   0  0  1  0  0  3  0  0  0  0  0  0
  179.9160  179.3220  142.2030 C   0  0  1  0  0  3  0  0  0  0  0  0
  179.5840  177.1470  141.2510 O   0  0  0  0  0  1  0  0  0  0  0  0
  181.1500  178.5280  142.3140 N   0  0  0  0  0  0  0  0  0  0  0  0
  179.7330  179.7640  140.7570 C   0  0  0  0  0  2  0  0  0  0  0  0
  180.9520  179.6970  140.0840 O   0  0  0  0  0  0  0  0  0  0  0  0
  180.8160  180.5900  139.0210 C   0  0  0  0  0  1  0  0  0  0  0  0
  189.9870  177.9010  137.4160 C   0  0  0  0  0  2  0  0  0  0  0  0
  188.8280  176.9140  137.2770 C   0  0  2  0  0  3  0  0  0  0  0  0
  189.2740  175.4440  137.2630 C   0  0  2  0  0  3  0  0  0  0  0  0
  188.1690  174.6050  137.4570 O   0  0  0  0  0  0  0  0  0  0  0  0
  188.6750  172.0450  137.1160 O   0  0  0  0  0  1  0  0  0  0  0  0
  188.3600  173.3190  136.3620 P   0  0  1  0  0  0  0  0  0  0  0  0
  186.8150  173.0940  135.4400 C   0  0  0  0  0  1  0  0  0  0  0  0
  189.6100  173.6550  135.2710 O   0  0  0  0  0  0  0  0  0  0  0  0
  190.3500  175.1420  138.2990 C   0  0  0  0  0  2  0  0  0  0  0  0
  192.2510  174.9320  136.7740 C   0  0  0  0  0  3  0  0  0  0  0  0
  191.6770  175.5720  137.7870 C   0  0  0  0  0  3  0  0  0  0  0  0
  193.9210  176.5850  136.0720 C   0  0  0  0  0  2  0  0  0  0  0  0
  193.5680  175.3130  136.2400 C   0  0  0  0  0  0  0  0  0  0  0  0
  194.7660  174.0350  135.9010 S   0  0  0  0  0  0  0  0  0  0  0  0
  196.1660  175.0770  136.4170 C   0  0  0  0  0  2  0  0  0  0  0  0
  197.8760  175.0000  138.0740 O   0  0  0  0  0  0  0  0  0  0  0  0
  196.9430  174.3920  137.4860 C   0  0  0  0  0  0  0  0  0  0  0  0
  196.6050  173.0640  137.8710 N   0  0  0  0  0  1  0  0  0  0  0  0
  187.7510  177.3360  135.8620 S   0  0  0  0  0  0  0  0  0  0  0  0
  186.5800  178.2690  136.8900 C   0  0  0  0  0  2  0  0  0  0  0  0
  185.7250  177.3070  137.6850 C   0  0  0  0  0  2  0  0  0  0  0  0
  184.6320  176.7500  136.7950 C   0  0  0  0  0  2  0  0  0  0  0  0
  183.8860  175.7220  137.5090 N   0  0  0  0  0  2  0  0  0  0  0  0
  181.8020  176.0830  139.1450 S   0  0  0  0  0  0  0  0  0  0  0  0
  182.4650  175.7440  137.6780 C   0  0  0  0  0  0  0  0  0  0  0  0
  181.6350  175.4030  136.5600 N   0  0  0  0  0  2  0  0  0  0  0  0
  181.5100  174.0550  136.0190 C   0  0  2  0  0  3  0  0  0  0  0  0
  181.3620  170.9770  135.8850 C   0  0  0  0  0  1  0  0  0  0  0  0
  181.6530  173.0380  137.1260 C   0  0  2  0  0  3  0  0  0  0  0  0
  182.3150  171.8530  136.5670 N   0  0  0  0  0  0  0  0  0  0  0  0
  183.1910  172.3820  135.5280 C   0  0  0  0  0  2  0  0  0  0  0  0
  182.6680  173.7480  135.0980 C   0  0  0  0  0  2  0  0  0  0  0  0
  180.3300  172.7480  137.8340 C   0  0  0  0  0  1  0  0  0  0  0  0
  1  2  1  0  0  0  0
  3  2  1  6  0  0  0
  3  7  1  0  0  0  0
  3  5  1  0  0  0  0
  5  8  1  0  0  0  0
  6  7  1  6  0  0  0
  6 13  1  0  0  0  0
  6  8  1  0  0  0  0
  8  4  1  0  0  0  0
  8  9  1  0  0  0  0
 10 11  1  6  0  0  0
 10 14  1  0  0  0  0
 12 10  1  0  0  0  0
 13 12  1  6  0  0  0
 13 10  1  0  0  0  0
 15 14  1  6  0  0  0
 15 23  1  0  0  0  0
 16 15  1  0  0  0  0
 16 17  1  0  0  0  0
 18 17  1  1  0  0  0
 18 20  1  0  0  0  0
 18 19  1  0  0  0  0
 20 22  1  6  0  0  0
 20 19  1  0  0  0  0
 21 22  2  0  0  0  0
 24 23  1  0  0  0  0
 25 24  1  0  0  0  0
 25 26  1  6  0  0  0
 27 29  1  6  0  0  0
 28 31  1  6  0  0  0
 28 30  1  0  0  0  0
 28 27  1  0  0  0  0
 30 27  1  0  0  0  0
 30 25  1  0  0  0  0
 32 31  1  0  0  0  0
 33 32  1  0  0  0  0
 34  1  1  0  0  0  0
 35 34  1  6  0  0  0
 36 35  1  0  0  0  0
 36 37  1  0  0  0  0
 36 42  1  1  0  0  0
 39 40  1  6  0  0  0
 39 38  1  0  0  0  0
 39 37  1  0  0  0  0
 41 39  2  0  0  0  0
 43 44  2  0  0  0  0
 44 42  1  0  0  0  0
 45 46  2  0  0  0  0
 46 43  1  0  0  0  0
 47 46  1  0  0  0  0
 47 48  1  0  0  0  0
 48 50  1  0  0  0  0
 50 51  1  0  0  0  0
 50 49  2  0  0  0  0
 52 53  1  0  0  0  0
 52 35  1  0  0  0  0
 53 54  1  0  0  0  0
 55 56  1  0  0  0  0
 55 54  1  0  0  0  0
 56 58  1  0  0  0  0
 58 57  2  0  0  0  0
 59 58  1  0  0  0  0
 60 59  1  1  0  0  0
 60 62  1  0  0  0  0
 61 63  1  0  0  0  0
 62 66  1  6  0  0  0
 63 62  1  0  0  0  0
 64 63  1  0  0  0  0
 65 64  1  0  0  0  0
 65 60  1  0  0  0  0
M  END
>  <MODEL>
9

>  <REMARK>
 VINA RESULT:      -2.0      2.521      3.836
  Name = 
  34 active torsions:
  status: ('A' for Active; 'I' for Inactive)
    1  A    between atoms: O_2  and  C_47
    2  A    between atoms: C_4  and  C_40
    3  A    between atoms: O_6  and  C_20
    4  A    between atoms: O_6  and  C_38
    5  A    between atoms: N_7  and  C_12
    6  A    between atoms: N_7  and  C_36
    7  A    between atoms: C_8  and  N_21
    8  A    between atoms: C_9  and  O_17
    9  A    between atoms: C_10  and  C_33
   10  A    between atoms: C_10  and  C_60
   11  A    between atoms: C_12  and  N_48
   12  A    between atoms: C_16  and  C_24
   13  A    between atoms: O_17  and  O_57
   14  A    between atoms: C_18  and  C_47
   15  A    between atoms: C_19  and  C_45
   16  A    between atoms: C_20  and  C_34
   17  A    between atoms: N_21  and  C_25
   18  A    between atoms: C_22  and  C_38
   19  A    between atoms: C_23  and  C_36
   20  A    between atoms: C_23  and  C_40
   21  A    between atoms: C_23  and  O_57
   22  A    between atoms: C_24  and  S_66
   23  A    between atoms: C_25  and  N_53
   24  A    between atoms: C_34  and  C_60
   25  A    between atoms: C_34  and  S_62
   26  A    between atoms: C_35  and  C_49
   27  A    between atoms: P_37  and  O_39
   28  A    between atoms: O_39  and  C_60
   29  A    between atoms: C_45  and  S_66
   30  A    between atoms: C_51  and  C_56
   31  A    between atoms: C_51  and  S_62
   32  A    between atoms: N_53  and  C_58
   33  A    between atoms: C_54  and  C_61
   34  A    between atoms: C_56  and  C_58
                            x       y       z     vdW  Elec       q    Type
                         _______ _______ _______ _____ _____    ______ ____

>  <TORSDO>
F 34

$$$$
