=
 OpenBabel11062412213D

 43 46  0  0  1  0  0  0  0  0999 V2000
  191.0840  177.1060  141.5290 N   0  0  0  0  0  2  0  0  0  0  0  0
  191.9290  177.2820  142.5710 O   0  0  0  0  0  0  0  0  0  0  0  0
  191.3560  178.3130  143.3150 C   0  0  0  0  0  2  0  0  0  0  0  0
  188.7340  177.3290  145.8440 C   0  0  0  0  0  0  0  0  0  0  0  0
  190.7100  177.7530  144.5310 C   0  0  0  0  0  0  0  0  0  0  0  0
  191.4920  177.2090  145.5530 C   0  0  0  0  0  3  0  0  0  0  0  0
  189.3240  177.8210  144.6790 C   0  0  0  0  0  3  0  0  0  0  0  0
  189.5140  176.8010  146.8300 N   0  0  0  0  0  0  0  0  0  0  0  0
  190.8670  176.7300  146.7070 C   0  0  0  0  0  3  0  0  0  0  0  0
  187.2500  177.4390  146.0200 C   0  0  2  0  0  3  0  0  0  0  0  0
  186.9810  177.3850  143.4950 C   0  0  0  0  0  3  0  0  0  0  0  0
  186.5420  177.8500  144.7440 C   0  0  0  0  0  0  0  0  0  0  0  0
  186.9300  178.3760  147.1890 C   0  0  0  0  0  2  0  0  0  0  0  0
  184.8690  179.0670  146.0780 N   0  0  0  0  0  2  0  0  0  0  0  0
  185.4220  178.5480  147.3250 C   0  0  0  0  0  2  0  0  0  0  0  0
  185.1440  178.5300  142.3940 C   0  0  0  0  0  0  0  0  0  0  0  0
  184.6840  178.9710  143.6430 C   0  0  0  0  0  3  0  0  0  0  0  0
  186.2910  177.7280  142.3290 C   0  0  0  0  0  3  0  0  0  0  0  0
  185.3650  178.6220  144.8120 C   0  0  0  0  0  0  0  0  0  0  0  0
  184.4190  178.8920  141.1630 C   0  0  0  0  0  0  0  0  0  0  0  0
  185.1090  179.4880  140.0670 N   0  0  0  0  0  1  0  0  0  0  0  0
  183.1820  178.6750  141.0650 O   0  0  0  0  0  0  0  0  0  0  0  0
  191.7820  177.4890  140.3710 N   0  0  0  0  0  2  0  0  0  0  0  0
  190.9720  177.1610  139.1950 C   0  0  2  0  0  3  0  0  0  0  0  0
  189.5390  176.8220  139.5820 C   0  0  0  0  0  2  0  0  0  0  0  0
  188.5480  178.9610  139.8860 O   0  0  0  0  0  1  0  0  0  0  0  0
  188.5730  177.8580  139.0270 C   0  0  1  0  0  3  0  0  0  0  0  0
  189.0140  178.2810  137.6240 C   0  0  2  0  0  3  0  0  0  0  0  0
  188.9360  179.6680  137.4890 O   0  0  0  0  0  1  0  0  0  0  0  0
  188.1230  177.6460  136.5650 C   0  0  0  0  0  2  0  0  0  0  0  0
  186.7830  177.9680  136.7840 O   0  0  0  0  0  0  0  0  0  0  0  0
  186.0720  177.0000  136.0720 C   0  0  0  0  0  2  0  0  0  0  0  0
  185.0600  176.3910  136.9300 N   0  0  0  0  0  0  0  0  0  0  0  0
  183.8290  177.1640  136.8160 C   0  0  0  0  0  1  0  0  0  0  0  0
  184.8070  175.0100  136.5030 C   0  0  0  0  0  2  0  0  0  0  0  0
  183.9420  172.7570  137.0640 C   0  0  0  0  0  2  0  0  0  0  0  0
  185.3240  172.8740  137.6710 C   0  0  0  0  0  2  0  0  0  0  0  0
  184.4030  174.0770  137.6480 C   0  0  0  0  0  3  0  0  0  0  0  0
  191.5880  176.0260  138.3880 C   0  0  0  0  0  2  0  0  0  0  0  0
  192.7380  176.5130  137.6440 N   0  0  0  0  0  2  0  0  0  0  0  0
  193.6960  175.4220  137.5740 C   0  0  0  0  0  2  0  0  0  0  0  0
  195.3590  174.3550  138.5580 C   0  0  0  0  0  1  0  0  0  0  0  0
  194.6210  175.5380  138.6120 O   0  0  0  0  0  0  0  0  0  0  0  0
  1  2  1  0  0  0  0
  2  3  1  0  0  0  0
  3  5  1  0  0  0  0
  4  8  1  0  0  0  0
  5  7  1  0  0  0  0
  5  6  2  0  0  0  0
  6  9  1  0  0  0  0
  7  4  2  0  0  0  0
  9  8  2  0  0  0  0
 10  4  1  6  0  0  0
 10 13  1  0  0  0  0
 11 12  1  0  0  0  0
 12 19  2  0  0  0  0
 12 10  1  0  0  0  0
 13 15  1  0  0  0  0
 14 15  1  0  0  0  0
 16 17  2  0  0  0  0
 17 19  1  0  0  0  0
 18 16  1  0  0  0  0
 18 11  2  0  0  0  0
 19 14  1  0  0  0  0
 20 16  1  0  0  0  0
 21 20  1  0  0  0  0
 22 20  2  0  0  0  0
 23  1  1  0  0  0  0
 24 39  1  1  0  0  0
 24 25  1  0  0  0  0
 24 23  1  0  0  0  0
 27 25  1  0  0  0  0
 27 26  1  1  0  0  0
 28 29  1  1  0  0  0
 28 27  1  0  0  0  0
 30 31  1  0  0  0  0
 30 28  1  0  0  0  0
 32 31  1  0  0  0  0
 32 33  1  0  0  0  0
 34 33  1  0  0  0  0
 35 33  1  0  0  0  0
 35 38  1  0  0  0  0
 36 38  1  0  0  0  0
 36 37  1  0  0  0  0
 38 37  1  0  0  0  0
 40 39  1  0  0  0  0
 41 40  1  0  0  0  0
 41 43  1  0  0  0  0
 42 43  1  0  0  0  0
M  END
>  <MODEL>
1

>  <REMARK>
 VINA RESULT:      -8.0      0.000      0.000
  Name = 
  20 active torsions:
  status: ('A' for Active; 'I' for Inactive)
    1  A    between atoms: N_1  and  C_24
    2  A    between atoms: N_1  and  C_36
    3  A    between atoms: N_3  and  C_20
    4  A    between atoms: N_3  and  C_31
    5  A    between atoms: C_4  and  C_10
    6  A    between atoms: C_4  and  C_13
    7  A    between atoms: O_5  and  N_32
    8  A    between atoms: O_5  and  C_43
    9  A    between atoms: C_7  and  C_8
   10  A    between atoms: C_10  and  O_23
   11  A    between atoms: C_12  and  C_43
   12  A    between atoms: C_13  and  C_14
   13  A    between atoms: C_14  and  C_26
   14  A    between atoms: C_18  and  C_29
   15  A    between atoms: C_20  and  C_26
   16  A    between atoms: O_23  and  C_24
   17  A    between atoms: C_26  and  N_37
   18  A    between atoms: O_27  and  C_31
   19  A    between atoms: N_32  and  N_37
   20  A    between atoms: C_36  and  C_42
                            x       y       z     vdW  Elec       q    Type
                         _______ _______ _______ _____ _____    ______ ____

>  <TORSDO>
F 20

$$$$
=
 OpenBabel11062412213D

 43 46  0  0  1  0  0  0  0  0999 V2000
  190.1930  177.1480  141.7070 N   0  0  0  0  0  2  0  0  0  0  0  0
  190.5930  176.1720  142.5530 O   0  0  0  0  0  0  0  0  0  0  0  0
  191.4780  176.8070  143.4250 C   0  0  0  0  0  2  0  0  0  0  0  0
  189.0410  177.0660  146.2950 C   0  0  0  0  0  0  0  0  0  0  0  0
  190.9140  176.8020  144.8010 C   0  0  0  0  0  0  0  0  0  0  0  0
  191.7530  176.6250  145.9030 C   0  0  0  0  0  3  0  0  0  0  0  0
  189.5510  177.0320  144.9950 C   0  0  0  0  0  3  0  0  0  0  0  0
  189.8770  176.8900  147.3570 N   0  0  0  0  0  0  0  0  0  0  0  0
  191.2090  176.6690  147.1880 C   0  0  0  0  0  3  0  0  0  0  0  0
  187.5850  177.3520  146.5060 C   0  0  2  0  0  3  0  0  0  0  0  0
  187.2300  177.2190  143.9940 C   0  0  0  0  0  3  0  0  0  0  0  0
  186.8870  177.7860  145.2310 C   0  0  0  0  0  0  0  0  0  0  0  0
  187.4110  178.3700  147.6370 C   0  0  0  0  0  2  0  0  0  0  0  0
  185.4070  179.2430  146.5510 N   0  0  0  0  0  2  0  0  0  0  0  0
  185.9380  178.7200  147.8060 C   0  0  0  0  0  2  0  0  0  0  0  0
  185.4990  178.5170  142.8900 C   0  0  0  0  0  0  0  0  0  0  0  0
  185.1330  179.0620  144.1290 C   0  0  0  0  0  3  0  0  0  0  0  0
  186.5460  177.5870  142.8330 C   0  0  0  0  0  3  0  0  0  0  0  0
  185.8080  178.6900  145.2940 C   0  0  0  0  0  0  0  0  0  0  0  0
  184.7800  178.9050  141.6640 C   0  0  0  0  0  0  0  0  0  0  0  0
  183.3880  178.6320  141.5250 N   0  0  0  0  0  1  0  0  0  0  0  0
  185.3890  179.4850  140.7260 O   0  0  0  0  0  0  0  0  0  0  0  0
  191.1840  177.2590  140.7170 N   0  0  0  0  0  2  0  0  0  0  0  0
  190.5380  177.3840  139.4080 C   0  0  2  0  0  3  0  0  0  0  0  0
  189.0490  177.0710  139.4880 C   0  0  0  0  0  2  0  0  0  0  0  0
  189.0330  179.3630  138.8580 O   0  0  0  0  0  1  0  0  0  0  0  0
  188.2280  178.2220  138.9260 C   0  0  1  0  0  3  0  0  0  0  0  0
  187.7010  177.8550  137.5370 C   0  0  2  0  0  3  0  0  0  0  0  0
  187.4370  179.0090  136.7980 O   0  0  0  0  0  1  0  0  0  0  0  0
  186.4130  177.0500  137.6440 C   0  0  0  0  0  2  0  0  0  0  0  0
  185.3070  177.8370  137.3200 O   0  0  0  0  0  0  0  0  0  0  0  0
  184.2740  177.3260  138.1090 C   0  0  0  0  0  2  0  0  0  0  0  0
  183.0060  177.9410  137.7300 N   0  0  0  0  0  0  0  0  0  0  0  0
  181.9190  177.1440  138.2860 C   0  0  0  0  0  1  0  0  0  0  0  0
  182.9300  179.3050  138.2680 C   0  0  0  0  0  2  0  0  0  0  0  0
  181.5180  181.3400  138.3370 C   0  0  0  0  0  2  0  0  0  0  0  0
  181.0740  180.5220  137.1430 C   0  0  0  0  0  2  0  0  0  0  0  0
  181.4990  179.8270  138.4210 C   0  0  0  0  0  3  0  0  0  0  0  0
  191.2110  176.5040  138.3640 C   0  0  0  0  0  2  0  0  0  0  0  0
  190.5310  175.2220  138.2810 N   0  0  0  0  0  2  0  0  0  0  0  0
  190.2100  174.9990  136.8800 C   0  0  0  0  0  2  0  0  0  0  0  0
  189.3640  173.1110  136.1110 C   0  0  0  0  0  1  0  0  0  0  0  0
  189.0150  174.2860  136.7780 O   0  0  0  0  0  0  0  0  0  0  0  0
  1  2  1  0  0  0  0
  2  3  1  0  0  0  0
  3  5  1  0  0  0  0
  4  8  1  0  0  0  0
  5  7  1  0  0  0  0
  5  6  2  0  0  0  0
  6  9  1  0  0  0  0
  7  4  2  0  0  0  0
  9  8  2  0  0  0  0
 10  4  1  6  0  0  0
 10 13  1  0  0  0  0
 11 12  1  0  0  0  0
 12 19  2  0  0  0  0
 12 10  1  0  0  0  0
 13 15  1  0  0  0  0
 14 15  1  0  0  0  0
 16 17  2  0  0  0  0
 17 19  1  0  0  0  0
 18 16  1  0  0  0  0
 18 11  2  0  0  0  0
 19 14  1  0  0  0  0
 20 16  1  0  0  0  0
 21 20  1  0  0  0  0
 22 20  2  0  0  0  0
 23  1  1  0  0  0  0
 24 39  1  6  0  0  0
 24 25  1  0  0  0  0
 24 23  1  0  0  0  0
 27 26  1  6  0  0  0
 27 25  1  0  0  0  0
 28 29  1  6  0  0  0
 28 30  1  0  0  0  0
 28 27  1  0  0  0  0
 31 30  1  0  0  0  0
 31 32  1  0  0  0  0
 33 32  1  0  0  0  0
 33 35  1  0  0  0  0
 33 34  1  0  0  0  0
 35 38  1  0  0  0  0
 36 38  1  0  0  0  0
 37 36  1  0  0  0  0
 37 38  1  0  0  0  0
 40 39  1  0  0  0  0
 41 40  1  0  0  0  0
 42 43  1  0  0  0  0
 43 41  1  0  0  0  0
M  END
>  <MODEL>
2

>  <REMARK>
 VINA RESULT:      -7.5      2.020      2.997
  Name = 
  20 active torsions:
  status: ('A' for Active; 'I' for Inactive)
    1  A    between atoms: N_1  and  C_24
    2  A    between atoms: N_1  and  C_36
    3  A    between atoms: N_3  and  C_20
    4  A    between atoms: N_3  and  C_31
    5  A    between atoms: C_4  and  C_10
    6  A    between atoms: C_4  and  C_13
    7  A    between atoms: O_5  and  N_32
    8  A    between atoms: O_5  and  C_43
    9  A    between atoms: C_7  and  C_8
   10  A    between atoms: C_10  and  O_23
   11  A    between atoms: C_12  and  C_43
   12  A    between atoms: C_13  and  C_14
   13  A    between atoms: C_14  and  C_26
   14  A    between atoms: C_18  and  C_29
   15  A    between atoms: C_20  and  C_26
   16  A    between atoms: O_23  and  C_24
   17  A    between atoms: C_26  and  N_37
   18  A    between atoms: O_27  and  C_31
   19  A    between atoms: N_32  and  N_37
   20  A    between atoms: C_36  and  C_42
                            x       y       z     vdW  Elec       q    Type
                         _______ _______ _______ _____ _____    ______ ____

>  <TORSDO>
F 20

$$$$
=
 OpenBabel11062412213D

 43 46  0  0  1  0  0  0  0  0999 V2000
  190.9760  176.9870  141.5350 N   0  0  0  0  0  2  0  0  0  0  0  0
  190.5250  177.2240  140.2810 O   0  0  0  0  0  0  0  0  0  0  0  0
  189.2530  177.7660  140.4640 C   0  0  0  0  0  2  0  0  0  0  0  0
  186.8430  177.8280  137.5610 C   0  0  0  0  0  0  0  0  0  0  0  0
  188.6460  178.0710  139.1410 C   0  0  0  0  0  0  0  0  0  0  0  0
  189.3600  178.8110  138.1950 C   0  0  0  0  0  3  0  0  0  0  0  0
  187.3840  177.5690  138.8220 C   0  0  0  0  0  3  0  0  0  0  0  0
  187.5550  178.5530  136.6520 N   0  0  0  0  0  0  0  0  0  0  0  0
  188.7880  179.0470  136.9430 C   0  0  0  0  0  3  0  0  0  0  0  0
  185.5050  177.2560  137.2030 C   0  0  2  0  0  3  0  0  0  0  0  0
  184.3930  179.1140  138.5290 C   0  0  0  0  0  3  0  0  0  0  0  0
  184.3910  177.7830  138.0870 C   0  0  0  0  0  0  0  0  0  0  0  0
  185.5730  175.7250  137.2070 C   0  0  0  0  0  2  0  0  0  0  0  0
  183.2360  175.6170  137.9040 N   0  0  0  0  0  2  0  0  0  0  0  0
  184.1970  175.1390  136.9150 C   0  0  0  0  0  2  0  0  0  0  0  0
  182.2550  178.7780  139.6310 C   0  0  0  0  0  0  0  0  0  0  0  0
  182.2350  177.4560  139.1650 C   0  0  0  0  0  3  0  0  0  0  0  0
  183.3360  179.6060  139.3000 C   0  0  0  0  0  3  0  0  0  0  0  0
  183.2850  176.9630  138.3850 C   0  0  0  0  0  0  0  0  0  0  0  0
  181.1420  179.2970  140.4470 C   0  0  0  0  0  0  0  0  0  0  0  0
  181.0610  178.9900  141.8360 N   0  0  0  0  0  1  0  0  0  0  0  0
  180.2540  180.0210  139.9240 O   0  0  0  0  0  0  0  0  0  0  0  0
  190.3290  177.9060  142.3780 N   0  0  0  0  0  2  0  0  0  0  0  0
  190.2510  177.3410  143.7280 C   0  0  2  0  0  3  0  0  0  0  0  0
  189.6720  178.3420  144.7200 C   0  0  0  0  0  2  0  0  0  0  0  0
  188.0020  176.6520  144.6300 O   0  0  0  0  0  1  0  0  0  0  0  0
  188.2830  177.9140  145.1660 C   0  0  1  0  0  3  0  0  0  0  0  0
  188.2160  177.8740  146.6940 C   0  0  2  0  0  3  0  0  0  0  0  0
  188.4420  176.5750  147.1550 O   0  0  0  0  0  1  0  0  0  0  0  0
  186.8470  178.3240  147.1860 C   0  0  0  0  0  2  0  0  0  0  0  0
  185.8290  177.6470  146.5130 O   0  0  0  0  0  0  0  0  0  0  0  0
  184.8420  178.6140  146.3120 C   0  0  0  0  0  2  0  0  0  0  0  0
  184.3500  178.5480  144.9390 N   0  0  0  0  0  0  0  0  0  0  0  0
  182.9390  178.9130  144.9340 C   0  0  0  0  0  1  0  0  0  0  0  0
  185.0970  179.4870  144.0940 C   0  0  0  0  0  2  0  0  0  0  0  0
  186.0610  179.1030  141.8440 C   0  0  0  0  0  2  0  0  0  0  0  0
  185.1090  177.9620  142.1280 C   0  0  0  0  0  2  0  0  0  0  0  0
  184.7750  179.3610  142.6030 C   0  0  0  0  0  3  0  0  0  0  0  0
  191.6080  176.8420  144.2060 C   0  0  0  0  0  2  0  0  0  0  0  0
  191.7950  177.1770  145.6080 N   0  0  0  0  0  2  0  0  0  0  0  0
  191.9630  175.9260  146.3290 C   0  0  0  0  0  2  0  0  0  0  0  0
  192.8270  175.8150  148.3560 C   0  0  0  0  0  1  0  0  0  0  0  0
  191.6460  176.1100  147.6750 O   0  0  0  0  0  0  0  0  0  0  0  0
  1 23  1  0  0  0  0
  2  3  1  0  0  0  0
  2  1  1  0  0  0  0
  4  7  1  0  0  0  0
  5  3  1  0  0  0  0
  6  5  1  0  0  0  0
  7  5  2  0  0  0  0
  8  9  1  0  0  0  0
  8  4  2  0  0  0  0
  9  6  2  0  0  0  0
 10 13  1  0  0  0  0
 10  4  1  1  0  0  0
 10 12  1  0  0  0  0
 11 18  1  0  0  0  0
 12 19  1  0  0  0  0
 12 11  2  0  0  0  0
 14 19  1  0  0  0  0
 15 13  1  0  0  0  0
 15 14  1  0  0  0  0
 16 20  1  0  0  0  0
 17 16  1  0  0  0  0
 18 16  2  0  0  0  0
 19 17  2  0  0  0  0
 20 21  1  0  0  0  0
 22 20  2  0  0  0  0
 23 24  1  0  0  0  0
 24 39  1  1  0  0  0
 24 25  1  0  0  0  0
 25 27  1  0  0  0  0
 27 26  1  6  0  0  0
 27 28  1  0  0  0  0
 28 29  1  6  0  0  0
 28 30  1  0  0  0  0
 31 30  1  0  0  0  0
 32 31  1  0  0  0  0
 33 32  1  0  0  0  0
 34 33  1  0  0  0  0
 35 33  1  0  0  0  0
 36 37  1  0  0  0  0
 36 38  1  0  0  0  0
 37 38  1  0  0  0  0
 38 35  1  0  0  0  0
 39 40  1  0  0  0  0
 40 41  1  0  0  0  0
 41 43  1  0  0  0  0
 43 42  1  0  0  0  0
M  END
>  <MODEL>
3

>  <REMARK>
 VINA RESULT:      -7.2      2.618      7.562
  Name = 
  20 active torsions:
  status: ('A' for Active; 'I' for Inactive)
    1  A    between atoms: N_1  and  C_24
    2  A    between atoms: N_1  and  C_36
    3  A    between atoms: N_3  and  C_20
    4  A    between atoms: N_3  and  C_31
    5  A    between atoms: C_4  and  C_10
    6  A    between atoms: C_4  and  C_13
    7  A    between atoms: O_5  and  N_32
    8  A    between atoms: O_5  and  C_43
    9  A    between atoms: C_7  and  C_8
   10  A    between atoms: C_10  and  O_23
   11  A    between atoms: C_12  and  C_43
   12  A    between atoms: C_13  and  C_14
   13  A    between atoms: C_14  and  C_26
   14  A    between atoms: C_18  and  C_29
   15  A    between atoms: C_20  and  C_26
   16  A    between atoms: O_23  and  C_24
   17  A    between atoms: C_26  and  N_37
   18  A    between atoms: O_27  and  C_31
   19  A    between atoms: N_32  and  N_37
   20  A    between atoms: C_36  and  C_42
                            x       y       z     vdW  Elec       q    Type
                         _______ _______ _______ _____ _____    ______ ____

>  <TORSDO>
F 20

$$$$
=
 OpenBabel11062412213D

 43 46  0  0  1  0  0  0  0  0999 V2000
  186.3580  176.5830  136.8290 N   0  0  0  0  0  2  0  0  0  0  0  0
  185.6090  177.7080  136.7700 O   0  0  0  0  0  0  0  0  0  0  0  0
  184.3630  177.2740  136.3170 C   0  0  0  0  0  2  0  0  0  0  0  0
  182.3560  177.6050  139.4950 C   0  0  0  0  0  0  0  0  0  0  0  0
  183.4970  176.9420  137.4790 C   0  0  0  0  0  0  0  0  0  0  0  0
  183.0930  175.6230  137.6980 C   0  0  0  0  0  3  0  0  0  0  0  0
  183.1340  177.9390  138.3850 C   0  0  0  0  0  3  0  0  0  0  0  0
  181.9700  176.3120  139.6910 N   0  0  0  0  0  0  0  0  0  0  0  0
  182.3170  175.3250  138.8210 C   0  0  0  0  0  3  0  0  0  0  0  0
  182.0000  178.6680  140.4900 C   0  0  2  0  0  3  0  0  0  0  0  0
  184.2190  178.2680  141.6590 C   0  0  0  0  0  3  0  0  0  0  0  0
  182.8610  178.6080  141.7380 C   0  0  0  0  0  0  0  0  0  0  0  0
  180.5040  178.6020  140.8140 C   0  0  0  0  0  2  0  0  0  0  0  0
  180.9530  179.3980  143.0770 N   0  0  0  0  0  2  0  0  0  0  0  0
  180.1520  179.6330  141.8790 C   0  0  0  0  0  2  0  0  0  0  0  0
  184.4720  178.6170  144.0490 C   0  0  0  0  0  0  0  0  0  0  0  0
  183.1210  178.9860  144.1270 C   0  0  0  0  0  3  0  0  0  0  0  0
  185.0160  178.2660  142.8060 C   0  0  0  0  0  3  0  0  0  0  0  0
  182.3230  178.9990  142.9800 C   0  0  0  0  0  0  0  0  0  0  0  0
  185.3130  178.6120  145.2590 C   0  0  0  0  0  0  0  0  0  0  0  0
  184.7550  178.9410  146.5290 N   0  0  0  0  0  1  0  0  0  0  0  0
  186.5350  178.3120  145.1830 O   0  0  0  0  0  0  0  0  0  0  0  0
  187.6500  176.9330  136.4030 N   0  0  0  0  0  2  0  0  0  0  0  0
  188.6250  176.4290  137.3740 C   0  0  2  0  0  3  0  0  0  0  0  0
  189.7960  177.3890  137.5390 C   0  0  0  0  0  2  0  0  0  0  0  0
  188.9810  179.5170  138.2150 O   0  0  0  0  0  1  0  0  0  0  0  0
  189.5540  178.3380  138.7020 C   0  0  1  0  0  3  0  0  0  0  0  0
  188.6300  177.6770  139.7280 C   0  0  2  0  0  3  0  0  0  0  0  0
  187.5710  178.5300  140.0460 O   0  0  0  0  0  1  0  0  0  0  0  0
  189.3880  177.3570  141.0090 C   0  0  0  0  0  2  0  0  0  0  0  0
  188.6860  177.8060  142.1280 O   0  0  0  0  0  0  0  0  0  0  0  0
  189.6620  178.3800  142.9440 C   0  0  0  0  0  2  0  0  0  0  0  0
  190.1750  177.3890  143.8840 N   0  0  0  0  0  0  0  0  0  0  0  0
  191.6070  177.2340  143.6600 C   0  0  0  0  0  1  0  0  0  0  0  0
  189.9460  177.8400  145.2620 C   0  0  0  0  0  2  0  0  0  0  0  0
  190.3730  177.1410  147.6000 C   0  0  0  0  0  2  0  0  0  0  0  0
  188.8750  177.1160  147.3880 C   0  0  0  0  0  2  0  0  0  0  0  0
  189.8050  176.6950  146.2680 C   0  0  0  0  0  3  0  0  0  0  0  0
  189.1240  175.0400  136.9990 C   0  0  0  0  0  2  0  0  0  0  0  0
  190.5660  174.9690  137.1630 N   0  0  0  0  0  2  0  0  0  0  0  0
  190.9860  173.6580  136.6960 C   0  0  0  0  0  2  0  0  0  0  0  0
  192.7940  174.6610  137.4680 C   0  0  0  0  0  1  0  0  0  0  0  0
  192.2980  173.4090  137.1020 O   0  0  0  0  0  0  0  0  0  0  0  0
  2  1  1  0  0  0  0
  3  2  1  0  0  0  0
  3  5  1  0  0  0  0
  4  8  1  0  0  0  0
  5  6  2  0  0  0  0
  5  7  1  0  0  0  0
  6  9  1  0  0  0  0
  7  4  2  0  0  0  0
  9  8  2  0  0  0  0
 10  4  1  6  0  0  0
 10 13  1  0  0  0  0
 10 12  1  0  0  0  0
 11 12  2  0  0  0  0
 11 18  1  0  0  0  0
 12 19  1  0  0  0  0
 13 15  1  0  0  0  0
 15 14  1  0  0  0  0
 16 17  1  0  0  0  0
 16 20  1  0  0  0  0
 18 16  2  0  0  0  0
 19 14  1  0  0  0  0
 19 17  2  0  0  0  0
 20 21  1  0  0  0  0
 22 20  2  0  0  0  0
 23  1  1  0  0  0  0
 23 24  1  0  0  0  0
 24 39  1  6  0  0  0
 24 25  1  0  0  0  0
 25 27  1  0  0  0  0
 27 26  1  6  0  0  0
 27 28  1  0  0  0  0
 28 29  1  1  0  0  0
 28 30  1  0  0  0  0
 30 31  1  0  0  0  0
 31 32  1  0  0  0  0
 32 33  1  0  0  0  0
 33 35  1  0  0  0  0
 34 33  1  0  0  0  0
 35 38  1  0  0  0  0
 37 36  1  0  0  0  0
 38 37  1  0  0  0  0
 38 36  1  0  0  0  0
 39 40  1  0  0  0  0
 41 43  1  0  0  0  0
 41 40  1  0  0  0  0
 43 42  1  0  0  0  0
M  END
>  <MODEL>
4

>  <REMARK>
 VINA RESULT:      -7.1      2.310      7.084
  Name = 
  20 active torsions:
  status: ('A' for Active; 'I' for Inactive)
    1  A    between atoms: N_1  and  C_24
    2  A    between atoms: N_1  and  C_36
    3  A    between atoms: N_3  and  C_20
    4  A    between atoms: N_3  and  C_31
    5  A    between atoms: C_4  and  C_10
    6  A    between atoms: C_4  and  C_13
    7  A    between atoms: O_5  and  N_32
    8  A    between atoms: O_5  and  C_43
    9  A    between atoms: C_7  and  C_8
   10  A    between atoms: C_10  and  O_23
   11  A    between atoms: C_12  and  C_43
   12  A    between atoms: C_13  and  C_14
   13  A    between atoms: C_14  and  C_26
   14  A    between atoms: C_18  and  C_29
   15  A    between atoms: C_20  and  C_26
   16  A    between atoms: O_23  and  C_24
   17  A    between atoms: C_26  and  N_37
   18  A    between atoms: O_27  and  C_31
   19  A    between atoms: N_32  and  N_37
   20  A    between atoms: C_36  and  C_42
                            x       y       z     vdW  Elec       q    Type
                         _______ _______ _______ _____ _____    ______ ____

>  <TORSDO>
F 20

$$$$
=
 OpenBabel11062412213D

 43 46  0  0  1  0  0  0  0  0999 V2000
  185.5850  178.6760  139.0560 N   0  0  0  0  0  2  0  0  0  0  0  0
  185.1190  179.3500  140.1330 O   0  0  0  0  0  0  0  0  0  0  0  0
  183.8520  178.8130  140.3600 C   0  0  0  0  0  2  0  0  0  0  0  0
  184.3060  178.9310  144.1040 C   0  0  0  0  0  0  0  0  0  0  0  0
  183.5540  178.8350  141.8160 C   0  0  0  0  0  0  0  0  0  0  0  0
  182.2410  178.6780  142.2660 C   0  0  0  0  0  3  0  0  0  0  0  0
  184.5950  178.9540  142.7380 C   0  0  0  0  0  3  0  0  0  0  0  0
  183.0170  178.7780  144.5230 N   0  0  0  0  0  0  0  0  0  0  0  0
  181.9900  178.6560  143.6400 C   0  0  0  0  0  3  0  0  0  0  0  0
  185.4270  179.0190  145.0940 C   0  0  2  0  0  3  0  0  0  0  0  0
  187.0340  178.2270  143.2940 C   0  0  0  0  0  3  0  0  0  0  0  0
  186.6600  178.2580  144.6460 C   0  0  0  0  0  0  0  0  0  0  0  0
  184.9410  178.5700  146.4760 C   0  0  0  0  0  2  0  0  0  0  0  0
  187.1710  177.7240  146.9930 N   0  0  0  0  0  2  0  0  0  0  0  0
  186.0950  178.5880  147.4700 C   0  0  0  0  0  2  0  0  0  0  0  0
  189.0180  176.9400  143.8450 C   0  0  0  0  0  0  0  0  0  0  0  0
  188.6640  176.9960  145.2010 C   0  0  0  0  0  3  0  0  0  0  0  0
  188.2000  177.5680  142.8960 C   0  0  0  0  0  3  0  0  0  0  0  0
  187.5040  177.6630  145.6030 C   0  0  0  0  0  0  0  0  0  0  0  0
  190.2470  176.2440  143.4240 C   0  0  0  0  0  0  0  0  0  0  0  0
  191.5280  176.7830  143.7400 N   0  0  0  0  0  1  0  0  0  0  0  0
  190.1760  175.1620  142.7830 O   0  0  0  0  0  0  0  0  0  0  0  0
  186.9690  178.5210  139.2430 N   0  0  0  0  0  2  0  0  0  0  0  0
  187.5350  177.8420  138.0750 C   0  0  2  0  0  3  0  0  0  0  0  0
  186.4710  177.0620  137.3130 C   0  0  0  0  0  2  0  0  0  0  0  0
  187.4670  176.4270  135.2500 O   0  0  0  0  0  1  0  0  0  0  0  0
  186.5690  177.3360  135.8200 C   0  0  1  0  0  3  0  0  0  0  0  0
  185.1890  177.2010  135.1750 C   0  0  2  0  0  3  0  0  0  0  0  0
  184.1870  177.4430  136.1180 O   0  0  0  0  0  1  0  0  0  0  0  0
  184.9890  175.8000  134.6140 C   0  0  0  0  0  2  0  0  0  0  0  0
  184.1960  175.0310  135.4660 O   0  0  0  0  0  0  0  0  0  0  0  0
  185.0170  173.9660  135.8400 C   0  0  0  0  0  2  0  0  0  0  0  0
  184.7620  173.6020  137.2300 N   0  0  0  0  0  0  0  0  0  0  0  0
  183.6870  174.4430  137.7410 C   0  0  0  0  0  1  0  0  0  0  0  0
  184.3570  172.1940  137.3120 C   0  0  0  0  0  2  0  0  0  0  0  0
  183.6060  170.1290  136.1670 C   0  0  0  0  0  2  0  0  0  0  0  0
  182.5470  171.1850  135.9340 C   0  0  0  0  0  2  0  0  0  0  0  0
  184.0120  171.5730  135.9560 C   0  0  0  0  0  3  0  0  0  0  0  0
  188.6900  176.9290  138.4610 C   0  0  0  0  0  2  0  0  0  0  0  0
  189.5610  177.6040  139.4090 N   0  0  0  0  0  2  0  0  0  0  0  0
  190.6580  176.6960  139.7030 C   0  0  0  0  0  2  0  0  0  0  0  0
  191.8990  175.7580  138.1370 C   0  0  0  0  0  1  0  0  0  0  0  0
  190.6660  175.6490  138.7800 O   0  0  0  0  0  0  0  0  0  0  0  0
  1 23  1  0  0  0  0
  1  2  1  0  0  0  0
  2  3  1  0  0  0  0
  3  5  1  0  0  0  0
  4  8  1  0  0  0  0
  5  6  2  0  0  0  0
  5  7  1  0  0  0  0
  6  9  1  0  0  0  0
  7  4  2  0  0  0  0
  9  8  2  0  0  0  0
 10  4  1  6  0  0  0
 10 13  1  0  0  0  0
 11 12  1  0  0  0  0
 12 10  1  0  0  0  0
 12 19  2  0  0  0  0
 13 15  1  0  0  0  0
 14 15  1  0  0  0  0
 16 17  2  0  0  0  0
 17 19  1  0  0  0  0
 18 11  2  0  0  0  0
 18 16  1  0  0  0  0
 19 14  1  0  0  0  0
 20 21  1  0  0  0  0
 20 16  1  0  0  0  0
 22 20  2  0  0  0  0
 24 25  1  1  0  0  0
 24 39  1  0  0  0  0
 24 23  1  0  0  0  0
 27 26  1  6  0  0  0
 27 25  1  0  0  0  0
 28 27  1  0  0  0  0
 28 29  1  1  0  0  0
 30 28  1  0  0  0  0
 30 31  1  0  0  0  0
 31 32  1  0  0  0  0
 32 33  1  0  0  0  0
 33 35  1  0  0  0  0
 33 34  1  0  0  0  0
 37 38  1  0  0  0  0
 37 36  1  0  0  0  0
 38 36  1  0  0  0  0
 38 35  1  0  0  0  0
 39 40  1  0  0  0  0
 40 41  1  0  0  0  0
 42 43  1  0  0  0  0
 43 41  1  0  0  0  0
M  END
>  <MODEL>
5

>  <REMARK>
 VINA RESULT:      -7.0      2.036      5.005
  Name = 
  20 active torsions:
  status: ('A' for Active; 'I' for Inactive)
    1  A    between atoms: N_1  and  C_24
    2  A    between atoms: N_1  and  C_36
    3  A    between atoms: N_3  and  C_20
    4  A    between atoms: N_3  and  C_31
    5  A    between atoms: C_4  and  C_10
    6  A    between atoms: C_4  and  C_13
    7  A    between atoms: O_5  and  N_32
    8  A    between atoms: O_5  and  C_43
    9  A    between atoms: C_7  and  C_8
   10  A    between atoms: C_10  and  O_23
   11  A    between atoms: C_12  and  C_43
   12  A    between atoms: C_13  and  C_14
   13  A    between atoms: C_14  and  C_26
   14  A    between atoms: C_18  and  C_29
   15  A    between atoms: C_20  and  C_26
   16  A    between atoms: O_23  and  C_24
   17  A    between atoms: C_26  and  N_37
   18  A    between atoms: O_27  and  C_31
   19  A    between atoms: N_32  and  N_37
   20  A    between atoms: C_36  and  C_42
                            x       y       z     vdW  Elec       q    Type
                         _______ _______ _______ _____ _____    ______ ____

>  <TORSDO>
F 20

$$$$
=
 OpenBabel11062412213D

 43 46  0  0  1  0  0  0  0  0999 V2000
  186.5540  177.1760  144.4630 N   0  0  0  0  0  2  0  0  0  0  0  0
  185.4500  177.7400  145.0050 O   0  0  0  0  0  0  0  0  0  0  0  0
  185.4200  179.0300  144.4730 C   0  0  0  0  0  2  0  0  0  0  0  0
  183.1920  178.5530  141.4650 C   0  0  0  0  0  0  0  0  0  0  0  0
  184.9420  178.9780  143.0660 C   0  0  0  0  0  0  0  0  0  0  0  0
  185.8310  179.2140  142.0140 C   0  0  0  0  0  3  0  0  0  0  0  0
  183.6170  178.6380  142.7920 C   0  0  0  0  0  3  0  0  0  0  0  0
  184.0740  178.7870  140.4520 N   0  0  0  0  0  0  0  0  0  0  0  0
  185.3710  179.1170  140.6990 C   0  0  0  0  0  3  0  0  0  0  0  0
  181.7790  178.1470  141.1700 C   0  0  2  0  0  3  0  0  0  0  0  0
  182.6610  176.2520  139.7280 C   0  0  0  0  0  3  0  0  0  0  0  0
  181.6780  177.2220  139.9730 C   0  0  0  0  0  0  0  0  0  0  0  0
  180.8990  179.3920  141.0180 C   0  0  0  0  0  2  0  0  0  0  0  0
  179.4930  178.2080  139.4110 N   0  0  0  0  0  2  0  0  0  0  0  0
  179.4780  178.9870  140.6460 C   0  0  0  0  0  2  0  0  0  0  0  0
  181.4120  175.4350  137.8110 C   0  0  0  0  0  0  0  0  0  0  0  0
  180.4130  176.3830  138.0710 C   0  0  0  0  0  3  0  0  0  0  0  0
  182.5320  175.3700  138.6520 C   0  0  0  0  0  3  0  0  0  0  0  0
  180.5330  177.2610  139.1520 C   0  0  0  0  0  0  0  0  0  0  0  0
  181.2800  174.5050  136.6750 C   0  0  0  0  0  0  0  0  0  0  0  0
  182.4170  173.8030  136.1800 N   0  0  0  0  0  1  0  0  0  0  0  0
  180.1580  174.3180  136.1330 O   0  0  0  0  0  0  0  0  0  0  0  0
  187.6620  177.7620  145.0970 N   0  0  0  0  0  2  0  0  0  0  0  0
  188.7310  177.9490  144.1120 C   0  0  2  0  0  3  0  0  0  0  0  0
  188.7210  176.8470  143.0610 C   0  0  0  0  0  2  0  0  0  0  0  0
  190.4110  175.1890  142.8440 O   0  0  0  0  0  1  0  0  0  0  0  0
  190.1350  176.5370  142.5940 C   0  0  1  0  0  3  0  0  0  0  0  0
  190.2680  176.8430  141.1010 C   0  0  2  0  0  3  0  0  0  0  0  0
  191.4620  177.5220  140.8500 O   0  0  0  0  0  1  0  0  0  0  0  0
  189.1130  177.7120  140.6230 C   0  0  0  0  0  2  0  0  0  0  0  0
  189.3440  178.1770  139.3280 O   0  0  0  0  0  0  0  0  0  0  0  0
  188.1460  177.9350  138.6530 C   0  0  0  0  0  2  0  0  0  0  0  0
  188.2420  178.4140  137.2770 N   0  0  0  0  0  0  0  0  0  0  0  0
  189.2820  177.6550  136.5930 C   0  0  0  0  0  1  0  0  0  0  0  0
  186.9620  178.2130  136.5870 C   0  0  0  0  0  2  0  0  0  0  0  0
  184.6810  177.2460  136.5800 C   0  0  0  0  0  2  0  0  0  0  0  0
  185.6600  176.0940  136.6570 C   0  0  0  0  0  2  0  0  0  0  0  0
  185.9540  177.3870  137.3900 C   0  0  0  0  0  3  0  0  0  0  0  0
  190.0970  178.0390  144.7770 C   0  0  0  0  0  2  0  0  0  0  0  0
  190.0600  177.3930  146.0780 N   0  0  0  0  0  2  0  0  0  0  0  0
  191.2970  176.6410  146.2190 C   0  0  0  0  0  2  0  0  0  0  0  0
  192.4380  175.7100  147.8630 C   0  0  0  0  0  1  0  0  0  0  0  0
  191.8820  176.9230  147.4540 O   0  0  0  0  0  0  0  0  0  0  0  0
  1  2  1  0  0  0  0
  1 23  1  0  0  0  0
  3  2  1  0  0  0  0
  4  7  1  0  0  0  0
  5  3  1  0  0  0  0
  6  5  1  0  0  0  0
  7  5  2  0  0  0  0
  8  9  1  0  0  0  0
  8  4  2  0  0  0  0
  9  6  2  0  0  0  0
 10  4  1  6  0  0  0
 11 12  1  0  0  0  0
 12 10  1  0  0  0  0
 13 10  1  0  0  0  0
 14 15  1  0  0  0  0
 15 13  1  0  0  0  0
 16 17  2  0  0  0  0
 16 18  1  0  0  0  0
 17 19  1  0  0  0  0
 18 11  2  0  0  0  0
 19 14  1  0  0  0  0
 19 12  2  0  0  0  0
 20 16  1  0  0  0  0
 21 20  1  0  0  0  0
 22 20  2  0  0  0  0
 24 25  1  6  0  0  0
 24 39  1  0  0  0  0
 24 23  1  0  0  0  0
 27 26  1  6  0  0  0
 27 25  1  0  0  0  0
 28 29  1  1  0  0  0
 28 27  1  0  0  0  0
 30 28  1  0  0  0  0
 31 30  1  0  0  0  0
 32 31  1  0  0  0  0
 33 32  1  0  0  0  0
 34 33  1  0  0  0  0
 35 33  1  0  0  0  0
 35 38  1  0  0  0  0
 36 37  1  0  0  0  0
 36 38  1  0  0  0  0
 37 38  1  0  0  0  0
 39 40  1  0  0  0  0
 40 41  1  0  0  0  0
 41 43  1  0  0  0  0
 43 42  1  0  0  0  0
M  END
>  <MODEL>
6

>  <REMARK>
 VINA RESULT:      -6.9      2.848      6.559
  Name = 
  20 active torsions:
  status: ('A' for Active; 'I' for Inactive)
    1  A    between atoms: N_1  and  C_24
    2  A    between atoms: N_1  and  C_36
    3  A    between atoms: N_3  and  C_20
    4  A    between atoms: N_3  and  C_31
    5  A    between atoms: C_4  and  C_10
    6  A    between atoms: C_4  and  C_13
    7  A    between atoms: O_5  and  N_32
    8  A    between atoms: O_5  and  C_43
    9  A    between atoms: C_7  and  C_8
   10  A    between atoms: C_10  and  O_23
   11  A    between atoms: C_12  and  C_43
   12  A    between atoms: C_13  and  C_14
   13  A    between atoms: C_14  and  C_26
   14  A    between atoms: C_18  and  C_29
   15  A    between atoms: C_20  and  C_26
   16  A    between atoms: O_23  and  C_24
   17  A    between atoms: C_26  and  N_37
   18  A    between atoms: O_27  and  C_31
   19  A    between atoms: N_32  and  N_37
   20  A    between atoms: C_36  and  C_42
                            x       y       z     vdW  Elec       q    Type
                         _______ _______ _______ _____ _____    ______ ____

>  <TORSDO>
F 20

$$$$
=
 OpenBabel11062412213D

 43 46  0  0  1  0  0  0  0  0999 V2000
  184.9640  179.3840  140.0550 N   0  0  0  0  0  2  0  0  0  0  0  0
  184.2580  179.3750  141.2080 O   0  0  0  0  0  0  0  0  0  0  0  0
  184.7160  178.2490  141.8910 C   0  0  0  0  0  2  0  0  0  0  0  0
  185.7280  178.6740  145.5020 C   0  0  0  0  0  0  0  0  0  0  0  0
  184.6450  178.4900  143.3570 C   0  0  0  0  0  0  0  0  0  0  0  0
  183.4060  178.6610  143.9800 C   0  0  0  0  0  3  0  0  0  0  0  0
  185.8130  178.4880  144.1200 C   0  0  0  0  0  3  0  0  0  0  0  0
  184.5100  178.8400  146.0910 N   0  0  0  0  0  0  0  0  0  0  0  0
  183.3600  178.8410  145.3640 C   0  0  0  0  0  3  0  0  0  0  0  0
  186.9780  178.6320  146.3280 C   0  0  2  0  0  3  0  0  0  0  0  0
  188.3180  178.1950  144.2150 C   0  0  0  0  0  3  0  0  0  0  0  0
  188.1400  177.9930  145.5910 C   0  0  0  0  0  0  0  0  0  0  0  0
  186.6950  177.9490  147.6690 C   0  0  0  0  0  2  0  0  0  0  0  0
  188.9820  177.0960  147.7230 N   0  0  0  0  0  2  0  0  0  0  0  0
  187.9790  177.8380  148.4820 C   0  0  0  0  0  2  0  0  0  0  0  0
  190.3690  176.8950  144.2630 C   0  0  0  0  0  0  0  0  0  0  0  0
  190.2110  176.7170  145.6450 C   0  0  0  0  0  3  0  0  0  0  0  0
  189.4200  177.6450  143.5550 C   0  0  0  0  0  3  0  0  0  0  0  0
  189.1150  177.2740  146.3100 C   0  0  0  0  0  0  0  0  0  0  0  0
  191.5300  176.3140  143.5650 C   0  0  0  0  0  0  0  0  0  0  0  0
  192.0750  176.9540  142.4140 N   0  0  0  0  0  1  0  0  0  0  0  0
  192.0540  175.2470  143.9820 O   0  0  0  0  0  0  0  0  0  0  0  0
  184.1760  180.0500  139.1010 N   0  0  0  0  0  2  0  0  0  0  0  0
  182.9360  179.2960  138.8980 C   0  0  2  0  0  3  0  0  0  0  0  0
  183.0550  178.3310  137.7250 C   0  0  0  0  0  2  0  0  0  0  0  0
  182.0530  176.2610  138.3280 O   0  0  0  0  0  1  0  0  0  0  0  0
  183.2870  176.9110  138.2200 C   0  0  1  0  0  3  0  0  0  0  0  0
  184.2020  176.1650  137.2470 C   0  0  2  0  0  3  0  0  0  0  0  0
  184.0470  174.7850  137.3970 O   0  0  0  0  0  1  0  0  0  0  0  0
  185.6620  176.5130  137.5050 C   0  0  0  0  0  2  0  0  0  0  0  0
  186.4630  176.1250  136.4310 O   0  0  0  0  0  0  0  0  0  0  0  0
  187.6400  175.6640  137.0240 C   0  0  0  0  0  2  0  0  0  0  0  0
  188.7980  176.2610  136.3660 N   0  0  0  0  0  0  0  0  0  0  0  0
  188.3280  177.2680  135.4220 C   0  0  0  0  0  1  0  0  0  0  0  0
  189.6670  176.9000  137.3620 C   0  0  0  0  0  2  0  0  0  0  0  0
  189.9330  177.8530  139.6330 C   0  0  0  0  0  2  0  0  0  0  0  0
  188.7030  178.4860  139.0200 C   0  0  0  0  0  2  0  0  0  0  0  0
  189.0230  177.0300  138.7450 C   0  0  0  0  0  3  0  0  0  0  0  0
  181.7420  180.2220  138.7060 C   0  0  0  0  0  2  0  0  0  0  0  0
  180.5530  179.6250  139.2910 N   0  0  0  0  0  2  0  0  0  0  0  0
  180.9030  179.2030  140.6370 C   0  0  0  0  0  2  0  0  0  0  0  0
  179.2100  177.9090  141.2120 C   0  0  0  0  0  1  0  0  0  0  0  0
  180.5480  177.8650  140.8200 O   0  0  0  0  0  0  0  0  0  0  0  0
  1  2  1  0  0  0  0
  2  3  1  0  0  0  0
  3  5  1  0  0  0  0
  4  8  1  0  0  0  0
  5  6  2  0  0  0  0
  5  7  1  0  0  0  0
  6  9  1  0  0  0  0
  7  4  2  0  0  0  0
  9  8  2  0  0  0  0
 10  4  1  6  0  0  0
 10 13  1  0  0  0  0
 11 12  1  0  0  0  0
 12 19  2  0  0  0  0
 12 10  1  0  0  0  0
 13 15  1  0  0  0  0
 14 15  1  0  0  0  0
 16 17  2  0  0  0  0
 17 19  1  0  0  0  0
 18 11  2  0  0  0  0
 18 16  1  0  0  0  0
 19 14  1  0  0  0  0
 20 22  2  0  0  0  0
 20 16  1  0  0  0  0
 21 20  1  0  0  0  0
 23  1  1  0  0  0  0
 24 25  1  6  0  0  0
 24 23  1  0  0  0  0
 25 27  1  0  0  0  0
 27 26  1  6  0  0  0
 28 29  1  1  0  0  0
 28 30  1  0  0  0  0
 28 27  1  0  0  0  0
 31 32  1  0  0  0  0
 31 30  1  0  0  0  0
 33 32  1  0  0  0  0
 33 35  1  0  0  0  0
 34 33  1  0  0  0  0
 35 38  1  0  0  0  0
 37 36  1  0  0  0  0
 38 37  1  0  0  0  0
 38 36  1  0  0  0  0
 39 24  1  0  0  0  0
 39 40  1  0  0  0  0
 40 41  1  0  0  0  0
 41 43  1  0  0  0  0
 43 42  1  0  0  0  0
M  END
>  <MODEL>
7

>  <REMARK>
 VINA RESULT:      -6.7      2.437      7.256
  Name = 
  20 active torsions:
  status: ('A' for Active; 'I' for Inactive)
    1  A    between atoms: N_1  and  C_24
    2  A    between atoms: N_1  and  C_36
    3  A    between atoms: N_3  and  C_20
    4  A    between atoms: N_3  and  C_31
    5  A    between atoms: C_4  and  C_10
    6  A    between atoms: C_4  and  C_13
    7  A    between atoms: O_5  and  N_32
    8  A    between atoms: O_5  and  C_43
    9  A    between atoms: C_7  and  C_8
   10  A    between atoms: C_10  and  O_23
   11  A    between atoms: C_12  and  C_43
   12  A    between atoms: C_13  and  C_14
   13  A    between atoms: C_14  and  C_26
   14  A    between atoms: C_18  and  C_29
   15  A    between atoms: C_20  and  C_26
   16  A    between atoms: O_23  and  C_24
   17  A    between atoms: C_26  and  N_37
   18  A    between atoms: O_27  and  C_31
   19  A    between atoms: N_32  and  N_37
   20  A    between atoms: C_36  and  C_42
                            x       y       z     vdW  Elec       q    Type
                         _______ _______ _______ _____ _____    ______ ____

>  <TORSDO>
F 20

$$$$
=
 OpenBabel11062412213D

 43 46  0  0  1  0  0  0  0  0999 V2000
  187.0580  177.5390  144.8330 N   0  0  0  0  0  2  0  0  0  0  0  0
  186.1520  177.6270  143.8320 O   0  0  0  0  0  0  0  0  0  0  0  0
  185.3370  178.7000  144.1920 C   0  0  0  0  0  2  0  0  0  0  0  0
  182.8770  178.1860  141.3770 C   0  0  0  0  0  0  0  0  0  0  0  0
  184.0650  178.6410  143.4230 C   0  0  0  0  0  0  0  0  0  0  0  0
  182.8730  179.0830  144.0030 C   0  0  0  0  0  3  0  0  0  0  0  0
  184.0710  178.1970  142.1010 C   0  0  0  0  0  3  0  0  0  0  0  0
  181.7240  178.6200  141.9600 N   0  0  0  0  0  0  0  0  0  0  0  0
  181.6990  179.0600  143.2480 C   0  0  0  0  0  3  0  0  0  0  0  0
  182.8910  177.7480  139.9430 C   0  0  2  0  0  3  0  0  0  0  0  0
  182.4290  180.1450  139.2420 C   0  0  0  0  0  3  0  0  0  0  0  0
  182.2610  178.7700  139.0170 C   0  0  0  0  0  0  0  0  0  0  0  0
  182.2390  176.3680  139.8120 C   0  0  0  0  0  2  0  0  0  0  0  0
  181.4470  176.9470  137.5770 N   0  0  0  0  0  2  0  0  0  0  0  0
  182.1840  175.9510  138.3480 C   0  0  0  0  0  2  0  0  0  0  0  0
  181.1850  180.6540  137.2190 C   0  0  0  0  0  0  0  0  0  0  0  0
  181.0420  179.2810  136.9750 C   0  0  0  0  0  3  0  0  0  0  0  0
  181.8900  181.0790  138.3540 C   0  0  0  0  0  3  0  0  0  0  0  0
  181.5880  178.3430  137.8550 C   0  0  0  0  0  0  0  0  0  0  0  0
  180.6140  181.6410  136.2850 C   0  0  0  0  0  0  0  0  0  0  0  0
  180.7830  183.0370  136.5170 N   0  0  0  0  0  1  0  0  0  0  0  0
  179.9750  181.2590  135.2690 O   0  0  0  0  0  0  0  0  0  0  0  0
  188.2200  176.9750  144.2800 N   0  0  0  0  0  2  0  0  0  0  0  0
  189.3040  177.9580  144.3460 C   0  0  2  0  0  3  0  0  0  0  0  0
  189.8810  178.2450  142.9660 C   0  0  0  0  0  2  0  0  0  0  0  0
  188.1680  178.5370  141.3440 O   0  0  0  0  0  1  0  0  0  0  0  0
  189.0400  177.5860  141.8840 C   0  0  1  0  0  3  0  0  0  0  0  0
  189.9490  177.0130  140.7950 C   0  0  2  0  0  3  0  0  0  0  0  0
  191.2820  177.3340  141.0570 O   0  0  0  0  0  1  0  0  0  0  0  0
  189.5800  177.5800  139.4310 C   0  0  0  0  0  2  0  0  0  0  0  0
  189.1360  176.5710  138.5760 O   0  0  0  0  0  0  0  0  0  0  0  0
  189.7810  176.8310  137.3660 C   0  0  0  0  0  2  0  0  0  0  0  0
  188.8700  177.5070  136.4480 N   0  0  0  0  0  0  0  0  0  0  0  0
  189.4460  177.4690  135.1090 C   0  0  0  0  0  1  0  0  0  0  0  0
  187.5720  176.8230  136.4360 C   0  0  0  0  0  2  0  0  0  0  0  0
  185.2390  177.1600  137.2000 C   0  0  0  0  0  2  0  0  0  0  0  0
  186.0780  178.2590  137.8140 C   0  0  0  0  0  2  0  0  0  0  0  0
  186.3750  177.7760  136.4090 C   0  0  0  0  0  3  0  0  0  0  0  0
  190.4040  177.5180  145.3020 C   0  0  0  0  0  2  0  0  0  0  0  0
  189.8190  176.9290  146.4950 N   0  0  0  0  0  2  0  0  0  0  0  0
  190.9020  176.7070  147.4380 C   0  0  0  0  0  2  0  0  0  0  0  0
  192.7750  175.6160  147.8580 C   0  0  0  0  0  1  0  0  0  0  0  0
  191.6240  175.5710  147.0700 O   0  0  0  0  0  0  0  0  0  0  0  0
  2  3  1  0  0  0  0
  2  1  1  0  0  0  0
  4  8  2  0  0  0  0
  4  7  1  0  0  0  0
  5  6  1  0  0  0  0
  5  3  1  0  0  0  0
  7  5  2  0  0  0  0
  8  9  1  0  0  0  0
  9  6  2  0  0  0  0
 10  4  1  1  0  0  0
 12 11  1  0  0  0  0
 12 10  1  0  0  0  0
 13 10  1  0  0  0  0
 14 19  1  0  0  0  0
 14 15  1  0  0  0  0
 15 13  1  0  0  0  0
 16 18  1  0  0  0  0
 17 16  2  0  0  0  0
 17 19  1  0  0  0  0
 18 11  2  0  0  0  0
 19 12  2  0  0  0  0
 20 21  1  0  0  0  0
 20 16  1  0  0  0  0
 22 20  2  0  0  0  0
 23 24  1  0  0  0  0
 23  1  1  0  0  0  0
 24 25  1  6  0  0  0
 24 39  1  0  0  0  0
 27 26  1  6  0  0  0
 27 25  1  0  0  0  0
 28 29  1  1  0  0  0
 28 27  1  0  0  0  0
 30 28  1  0  0  0  0
 31 30  1  0  0  0  0
 32 31  1  0  0  0  0
 33 32  1  0  0  0  0
 34 33  1  0  0  0  0
 35 33  1  0  0  0  0
 36 37  1  0  0  0  0
 38 35  1  0  0  0  0
 38 36  1  0  0  0  0
 38 37  1  0  0  0  0
 39 40  1  0  0  0  0
 40 41  1  0  0  0  0
 43 41  1  0  0  0  0
 43 42  1  0  0  0  0
M  END
>  <MODEL>
8

>  <REMARK>
 VINA RESULT:      -6.7      3.024      6.798
  Name = 
  20 active torsions:
  status: ('A' for Active; 'I' for Inactive)
    1  A    between atoms: N_1  and  C_24
    2  A    between atoms: N_1  and  C_36
    3  A    between atoms: N_3  and  C_20
    4  A    between atoms: N_3  and  C_31
    5  A    between atoms: C_4  and  C_10
    6  A    between atoms: C_4  and  C_13
    7  A    between atoms: O_5  and  N_32
    8  A    between atoms: O_5  and  C_43
    9  A    between atoms: C_7  and  C_8
   10  A    between atoms: C_10  and  O_23
   11  A    between atoms: C_12  and  C_43
   12  A    between atoms: C_13  and  C_14
   13  A    between atoms: C_14  and  C_26
   14  A    between atoms: C_18  and  C_29
   15  A    between atoms: C_20  and  C_26
   16  A    between atoms: O_23  and  C_24
   17  A    between atoms: C_26  and  N_37
   18  A    between atoms: O_27  and  C_31
   19  A    between atoms: N_32  and  N_37
   20  A    between atoms: C_36  and  C_42
                            x       y       z     vdW  Elec       q    Type
                         _______ _______ _______ _____ _____    ______ ____

>  <TORSDO>
F 20

$$$$
=
 OpenBabel11062412213D

 43 46  0  0  1  0  0  0  0  0999 V2000
  183.1200  178.0100  141.4610 N   0  0  0  0  0  2  0  0  0  0  0  0
  183.9040  178.9800  141.9870 O   0  0  0  0  0  0  0  0  0  0  0  0
  183.4590  179.1150  143.3020 C   0  0  0  0  0  2  0  0  0  0  0  0
  186.6820  177.6930  144.6570 C   0  0  0  0  0  0  0  0  0  0  0  0
  184.5500  178.7370  144.2390 C   0  0  0  0  0  0  0  0  0  0  0  0
  184.4190  178.9890  145.6070 C   0  0  0  0  0  3  0  0  0  0  0  0
  185.6830  178.0790  143.7600 C   0  0  0  0  0  3  0  0  0  0  0  0
  186.5350  177.9480  145.9880 N   0  0  0  0  0  0  0  0  0  0  0  0
  185.4360  178.5860  146.4750 C   0  0  0  0  0  3  0  0  0  0  0  0
  187.8800  176.9500  144.1480 C   0  0  2  0  0  3  0  0  0  0  0  0
  188.7480  176.7880  146.5300 C   0  0  0  0  0  3  0  0  0  0  0  0
  189.0110  176.9110  145.1570 C   0  0  0  0  0  0  0  0  0  0  0  0
  188.3230  177.5310  142.8020 C   0  0  0  0  0  2  0  0  0  0  0  0
  190.6410  176.9640  143.3130 N   0  0  0  0  0  2  0  0  0  0  0  0
  189.5840  176.8270  142.3170 C   0  0  0  0  0  2  0  0  0  0  0  0
  191.1280  176.7210  147.0070 C   0  0  0  0  0  0  0  0  0  0  0  0
  191.3950  176.8120  145.6340 C   0  0  0  0  0  3  0  0  0  0  0  0
  189.7980  176.7000  147.4470 C   0  0  0  0  0  3  0  0  0  0  0  0
  190.3480  176.8900  144.7120 C   0  0  0  0  0  0  0  0  0  0  0  0
  192.2340  176.6310  147.9770 C   0  0  0  0  0  0  0  0  0  0  0  0
  193.0650  175.4740  148.0190 N   0  0  0  0  0  1  0  0  0  0  0  0
  192.4580  177.5780  148.7760 O   0  0  0  0  0  0  0  0  0  0  0  0
  181.9630  178.6430  140.9770 N   0  0  0  0  0  2  0  0  0  0  0  0
  181.6530  178.1140  139.6460 C   0  0  2  0  0  3  0  0  0  0  0  0
  182.4790  178.8000  138.5660 C   0  0  0  0  0  2  0  0  0  0  0  0
  183.4270  177.8310  136.6130 O   0  0  0  0  0  1  0  0  0  0  0  0
  183.5280  177.8510  138.0080 C   0  0  1  0  0  3  0  0  0  0  0  0
  184.9240  178.3080  138.4380 C   0  0  2  0  0  3  0  0  0  0  0  0
  184.8850  179.6320  138.8810 O   0  0  0  0  0  1  0  0  0  0  0  0
  185.9020  178.2210  137.2740 C   0  0  0  0  0  2  0  0  0  0  0  0
  187.1340  178.7800  137.6170 O   0  0  0  0  0  0  0  0  0  0  0  0
  188.0490  178.1490  136.7720 C   0  0  0  0  0  2  0  0  0  0  0  0
  189.3900  178.2220  137.3440 N   0  0  0  0  0  0  0  0  0  0  0  0
  189.2760  178.2170  138.7970 C   0  0  0  0  0  1  0  0  0  0  0  0
  190.1800  177.0610  136.9160 C   0  0  0  0  0  2  0  0  0  0  0  0
  190.7480  174.6920  137.3650 C   0  0  0  0  0  2  0  0  0  0  0  0
  191.8110  175.5440  138.0250 C   0  0  0  0  0  2  0  0  0  0  0  0
  190.3690  176.0090  138.0110 C   0  0  0  0  0  3  0  0  0  0  0  0
  180.1670  178.2240  139.3310 C   0  0  0  0  0  2  0  0  0  0  0  0
  179.4720  178.8690  140.4320 N   0  0  0  0  0  2  0  0  0  0  0  0
  179.1050  180.2030  139.9840 C   0  0  0  0  0  2  0  0  0  0  0  0
  179.6810  180.7490  142.0430 C   0  0  0  0  0  1  0  0  0  0  0  0
  179.8110  181.1580  140.7160 O   0  0  0  0  0  0  0  0  0  0  0  0
  1  2  1  0  0  0  0
  2  3  1  0  0  0  0
  3  5  1  0  0  0  0
  4  8  1  0  0  0  0
  5  6  2  0  0  0  0
  6  9  1  0  0  0  0
  7  5  1  0  0  0  0
  7  4  2  0  0  0  0
  8  9  2  0  0  0  0
 10  4  1  1  0  0  0
 10 12  1  0  0  0  0
 11 18  1  0  0  0  0
 12 11  2  0  0  0  0
 13 10  1  0  0  0  0
 14 19  1  0  0  0  0
 15 13  1  0  0  0  0
 15 14  1  0  0  0  0
 16 18  2  0  0  0  0
 16 20  1  0  0  0  0
 17 16  1  0  0  0  0
 19 12  1  0  0  0  0
 19 17  2  0  0  0  0
 20 21  1  0  0  0  0
 20 22  2  0  0  0  0
 23  1  1  0  0  0  0
 24 25  1  6  0  0  0
 24 23  1  0  0  0  0
 27 26  1  6  0  0  0
 27 28  1  0  0  0  0
 27 25  1  0  0  0  0
 28 29  1  6  0  0  0
 30 31  1  0  0  0  0
 30 28  1  0  0  0  0
 32 33  1  0  0  0  0
 32 31  1  0  0  0  0
 33 34  1  0  0  0  0
 35 33  1  0  0  0  0
 35 38  1  0  0  0  0
 36 38  1  0  0  0  0
 36 37  1  0  0  0  0
 38 37  1  0  0  0  0
 39 24  1  0  0  0  0
 39 40  1  0  0  0  0
 41 40  1  0  0  0  0
 41 43  1  0  0  0  0
 43 42  1  0  0  0  0
M  END
>  <MODEL>
9

>  <REMARK>
 VINA RESULT:      -6.7      2.790      8.034
  Name = 
  20 active torsions:
  status: ('A' for Active; 'I' for Inactive)
    1  A    between atoms: N_1  and  C_24
    2  A    between atoms: N_1  and  C_36
    3  A    between atoms: N_3  and  C_20
    4  A    between atoms: N_3  and  C_31
    5  A    between atoms: C_4  and  C_10
    6  A    between atoms: C_4  and  C_13
    7  A    between atoms: O_5  and  N_32
    8  A    between atoms: O_5  and  C_43
    9  A    between atoms: C_7  and  C_8
   10  A    between atoms: C_10  and  O_23
   11  A    between atoms: C_12  and  C_43
   12  A    between atoms: C_13  and  C_14
   13  A    between atoms: C_14  and  C_26
   14  A    between atoms: C_18  and  C_29
   15  A    between atoms: C_20  and  C_26
   16  A    between atoms: O_23  and  C_24
   17  A    between atoms: C_26  and  N_37
   18  A    between atoms: O_27  and  C_31
   19  A    between atoms: N_32  and  N_37
   20  A    between atoms: C_36  and  C_42
                            x       y       z     vdW  Elec       q    Type
                         _______ _______ _______ _____ _____    ______ ____

>  <TORSDO>
F 20

$$$$
