=
 OpenBabel11062415463D

 27 29  0  0  1  0  0  0  0  0999 V2000
  186.4920  178.2160  144.5450 C   0  0  1  0  0  3  0  0  0  0  0  0
  186.0880  178.6190  140.0120 N   0  0  0  0  0  1  0  0  0  0  0  0
  185.0390  178.4730  144.1670 C   0  0  2  0  0  3  0  0  0  0  0  0
  186.6250  176.9650  145.4100 C   0  0  0  0  0  2  0  0  0  0  0  0
  185.1040  179.4330  141.9670 N   0  0  0  0  0  0  0  0  0  0  0  0
  188.0210  176.9360  146.0190 C   0  0  0  0  0  2  0  0  0  0  0  0
  187.2630  178.3670  142.1510 N   0  0  0  0  0  0  0  0  0  0  0  0
  187.5120  178.1400  143.4150 C   0  0  0  0  0  0  0  0  0  0  0  0
  186.1020  178.8090  141.4220 C   0  0  0  0  0  0  0  0  0  0  0  0
  184.9840  179.7520  143.3730 C   0  0  0  0  0  2  0  0  0  0  0  0
  188.8800  177.6610  143.7800 C   0  0  0  0  0  0  0  0  0  0  0  0
  189.0820  177.0570  144.9620 C   0  0  0  0  0  3  0  0  0  0  0  0
  191.2930  178.7310  143.1980 S   0  0  0  0  0  0  0  0  0  0  0  0
  190.0220  177.7500  142.8380 C   0  0  0  0  0  0  0  0  0  0  0  0
  190.4600  176.0940  138.2000 C   0  0  0  0  0  0  0  0  0  0  0  0
  190.0920  176.9710  140.3840 C   0  0  0  0  0  0  0  0  0  0  0  0
  189.5670  178.1490  139.8350 C   0  0  0  0  0  3  0  0  0  0  0  0
  189.9490  177.2640  137.6230 C   0  0  0  0  0  3  0  0  0  0  0  0
  190.1410  176.7610  141.8020 N   0  0  0  0  0  2  0  0  0  0  0  0
  190.5080  175.9750  139.5550 N   0  0  0  0  0  0  0  0  0  0  0  0
  189.5030  178.2940  138.4490 C   0  0  0  0  0  3  0  0  0  0  0  0
  190.9300  174.9590  137.3480 C   0  0  2  0  0  3  0  0  0  0  0  0
  190.1550  173.8210  137.5860 O   0  0  0  0  0  1  0  0  0  0  0  0
  192.3960  174.6630  137.6150 C   0  0  0  0  0  2  0  0  0  0  0  0
  193.2210  175.7330  137.0830 N   0  0  0  0  0  1  0  0  0  0  0  0
  184.1850  178.6410  145.4160 C   0  0  0  0  0  2  0  0  0  0  0  0
  183.0220  179.3480  145.1070 O   0  0  0  0  0  1  0  0  0  0  0  0
  1  4  1  6  0  0  0
  2  9  1  0  0  0  0
  3  1  1  0  0  0  0
  3 26  1  1  0  0  0
  4  6  1  0  0  0  0
  5 10  1  0  0  0  0
  7  8  2  0  0  0  0
  8 11  1  0  0  0  0
  8  1  1  0  0  0  0
  9  5  2  0  0  0  0
  9  7  1  0  0  0  0
 10  3  1  0  0  0  0
 11 12  2  0  0  0  0
 12  6  1  0  0  0  0
 14 13  2  0  0  0  0
 14 11  1  0  0  0  0
 15 20  1  0  0  0  0
 16 19  1  0  0  0  0
 17 16  1  0  0  0  0
 18 15  2  0  0  0  0
 18 21  1  0  0  0  0
 19 14  1  0  0  0  0
 20 16  2  0  0  0  0
 21 17  2  0  0  0  0
 22 23  1  1  0  0  0
 22 24  1  0  0  0  0
 22 15  1  0  0  0  0
 25 24  1  0  0  0  0
 27 26  1  0  0  0  0
M  END
>  <MODEL>
1

>  <REMARK>
 VINA RESULT:      -7.7      0.000      0.000
  Name = 
  5 active torsions:
  status: ('A' for Active; 'I' for Inactive)
    1  A    between atoms: C_2  and  C_4
    2  A    between atoms: C_2  and  C_9
    3  A    between atoms: C_5  and  C_11
    4  A    between atoms: C_14  and  N_17
    5  A    between atoms: C_14  and  C_26
                            x       y       z     vdW  Elec       q    Type
                         _______ _______ _______ _____ _____    ______ ____

>  <TORSDO>
F 5

$$$$
=
 OpenBabel11062415463D

 27 29  0  0  1  0  0  0  0  0999 V2000
  189.8050  176.9790  146.8470 C   0  0  1  0  0  3  0  0  0  0  0  0
  190.6910  178.3380  142.5760 N   0  0  0  0  0  1  0  0  0  0  0  0
  191.2960  176.8660  146.5570 C   0  0  2  0  0  3  0  0  0  0  0  0
  189.5470  177.8040  148.1050 C   0  0  0  0  0  2  0  0  0  0  0  0
  191.4870  176.8230  144.1640 N   0  0  0  0  0  0  0  0  0  0  0  0
  188.0950  177.6180  148.5250 C   0  0  0  0  0  2  0  0  0  0  0  0
  189.2930  177.7680  144.5090 N   0  0  0  0  0  0  0  0  0  0  0  0
  188.9060  177.4970  145.7290 C   0  0  0  0  0  0  0  0  0  0  0  0
  190.5340  177.6230  143.7950 C   0  0  0  0  0  0  0  0  0  0  0  0
  191.4690  175.9890  145.3450 C   0  0  0  0  0  2  0  0  0  0  0  0
  187.4950  177.8190  146.1020 C   0  0  0  0  0  0  0  0  0  0  0  0
  187.1540  177.9270  147.3950 C   0  0  0  0  0  3  0  0  0  0  0  0
  185.1090  178.9460  145.5170 S   0  0  0  0  0  0  0  0  0  0  0  0
  186.4600  178.1140  145.0810 C   0  0  0  0  0  0  0  0  0  0  0  0
  185.8050  178.5210  140.1970 C   0  0  0  0  0  0  0  0  0  0  0  0
  185.9630  178.2310  142.5560 C   0  0  0  0  0  0  0  0  0  0  0  0
  184.5760  178.3840  142.6800 C   0  0  0  0  0  3  0  0  0  0  0  0
  184.4170  178.6890  140.2910 C   0  0  0  0  0  3  0  0  0  0  0  0
  186.7920  177.9480  143.6920 N   0  0  0  0  0  2  0  0  0  0  0  0
  186.5350  178.2880  141.3220 N   0  0  0  0  0  0  0  0  0  0  0  0
  183.8050  178.6200  141.5410 C   0  0  0  0  0  3  0  0  0  0  0  0
  186.4960  178.5680  138.8720 C   0  0  2  0  0  3  0  0  0  0  0  0
  185.7250  177.9260  137.9000 O   0  0  0  0  0  1  0  0  0  0  0  0
  187.8700  177.9240  138.9640 C   0  0  0  0  0  2  0  0  0  0  0  0
  188.8990  178.9270  138.7530 N   0  0  0  0  0  1  0  0  0  0  0  0
  192.0190  176.2190  147.7300 C   0  0  0  0  0  2  0  0  0  0  0  0
  192.8880  175.2290  147.2680 O   0  0  0  0  0  1  0  0  0  0  0  0
  1  4  1  1  0  0  0
  2  9  1  0  0  0  0
  3  1  1  0  0  0  0
  3 26  1  1  0  0  0
  4  6  1  0  0  0  0
  5 10  1  0  0  0  0
  7  8  2  0  0  0  0
  8 11  1  0  0  0  0
  8  1  1  0  0  0  0
  9  5  2  0  0  0  0
  9  7  1  0  0  0  0
 10  3  1  0  0  0  0
 11 12  2  0  0  0  0
 12  6  1  0  0  0  0
 14 13  2  0  0  0  0
 14 11  1  0  0  0  0
 15 18  2  0  0  0  0
 15 20  1  0  0  0  0
 16 17  1  0  0  0  0
 16 19  1  0  0  0  0
 18 21  1  0  0  0  0
 19 14  1  0  0  0  0
 20 16  2  0  0  0  0
 21 17  2  0  0  0  0
 22 23  1  6  0  0  0
 22 24  1  0  0  0  0
 22 15  1  0  0  0  0
 25 24  1  0  0  0  0
 27 26  1  0  0  0  0
M  END
>  <MODEL>
2

>  <REMARK>
 VINA RESULT:      -7.6      3.355      5.743
  Name = 
  5 active torsions:
  status: ('A' for Active; 'I' for Inactive)
    1  A    between atoms: C_2  and  C_4
    2  A    between atoms: C_2  and  C_9
    3  A    between atoms: C_5  and  C_11
    4  A    between atoms: C_14  and  N_17
    5  A    between atoms: C_14  and  C_26
                            x       y       z     vdW  Elec       q    Type
                         _______ _______ _______ _____ _____    ______ ____

>  <TORSDO>
F 5

$$$$
=
 OpenBabel11062415463D

 27 29  0  0  1  0  0  0  0  0999 V2000
  189.5800  176.8010  145.0360 C   0  0  1  0  0  3  0  0  0  0  0  0
  188.2860  178.5130  141.0030 N   0  0  0  0  0  1  0  0  0  0  0  0
  190.7150  176.6870  144.0270 C   0  0  2  0  0  3  0  0  0  0  0  0
  190.0370  177.5180  146.3040 C   0  0  0  0  0  2  0  0  0  0  0  0
  189.6790  176.8510  141.8670 N   0  0  0  0  0  0  0  0  0  0  0  0
  188.9840  177.3220  147.3860 C   0  0  0  0  0  2  0  0  0  0  0  0
  188.0130  177.8020  143.3340 N   0  0  0  0  0  0  0  0  0  0  0  0
  188.2750  177.4310  144.5610 C   0  0  0  0  0  0  0  0  0  0  0  0
  188.7190  177.6970  142.0840 C   0  0  0  0  0  0  0  0  0  0  0  0
  190.2040  175.9160  142.8370 C   0  0  0  0  0  2  0  0  0  0  0  0
  187.2630  177.7450  145.6150 C   0  0  0  0  0  0  0  0  0  0  0  0
  187.6230  177.7460  146.9080 C   0  0  0  0  0  3  0  0  0  0  0  0
  185.0280  179.0880  146.3300 S   0  0  0  0  0  0  0  0  0  0  0  0
  185.8750  178.1480  145.2780 C   0  0  0  0  0  0  0  0  0  0  0  0
  182.7890  178.6820  141.4530 C   0  0  0  0  0  0  0  0  0  0  0  0
  184.1390  178.3430  143.3860 C   0  0  0  0  0  0  0  0  0  0  0  0
  183.0400  178.6080  144.2140 C   0  0  0  0  0  3  0  0  0  0  0  0
  181.6750  178.9610  142.2550 C   0  0  0  0  0  3  0  0  0  0  0  0
  185.4150  177.9760  143.9270 N   0  0  0  0  0  2  0  0  0  0  0  0
  183.9800  178.3730  142.0340 N   0  0  0  0  0  0  0  0  0  0  0  0
  181.8070  178.9240  143.6420 C   0  0  0  0  0  3  0  0  0  0  0  0
  182.6830  178.6920  139.9620 C   0  0  2  0  0  3  0  0  0  0  0  0
  182.0020  177.5560  139.5160 O   0  0  0  0  0  1  0  0  0  0  0  0
  184.0630  178.7600  139.3290 C   0  0  0  0  0  2  0  0  0  0  0  0
  184.4470  180.1470  139.1290 N   0  0  0  0  0  1  0  0  0  0  0  0
  191.8890  175.9270  144.6290 C   0  0  0  0  0  2  0  0  0  0  0  0
  192.0210  174.6840  144.0080 O   0  0  0  0  0  1  0  0  0  0  0  0
  1  4  1  1  0  0  0
  2  9  1  0  0  0  0
  3 26  1  1  0  0  0
  3  1  1  0  0  0  0
  4  6  1  0  0  0  0
  5  9  2  0  0  0  0
  5 10  1  0  0  0  0
  7  8  2  0  0  0  0
  8  1  1  0  0  0  0
  8 11  1  0  0  0  0
  9  7  1  0  0  0  0
 10  3  1  0  0  0  0
 11 12  2  0  0  0  0
 12  6  1  0  0  0  0
 14 11  1  0  0  0  0
 14 13  2  0  0  0  0
 15 20  1  0  0  0  0
 15 18  2  0  0  0  0
 16 19  1  0  0  0  0
 16 17  1  0  0  0  0
 18 21  1  0  0  0  0
 19 14  1  0  0  0  0
 20 16  2  0  0  0  0
 21 17  2  0  0  0  0
 22 23  1  6  0  0  0
 22 15  1  0  0  0  0
 24 22  1  0  0  0  0
 25 24  1  0  0  0  0
 27 26  1  0  0  0  0
M  END
>  <MODEL>
3

>  <REMARK>
 VINA RESULT:      -7.6      3.557      6.715
  Name = 
  5 active torsions:
  status: ('A' for Active; 'I' for Inactive)
    1  A    between atoms: C_2  and  C_4
    2  A    between atoms: C_2  and  C_9
    3  A    between atoms: C_5  and  C_11
    4  A    between atoms: C_14  and  N_17
    5  A    between atoms: C_14  and  C_26
                            x       y       z     vdW  Elec       q    Type
                         _______ _______ _______ _____ _____    ______ ____

>  <TORSDO>
F 5

$$$$
=
 OpenBabel11062415463D

 27 29  0  0  1  0  0  0  0  0999 V2000
  189.7710  177.0370  146.8200 C   0  0  1  0  0  3  0  0  0  0  0  0
  191.3300  178.1370  142.6690 N   0  0  0  0  0  1  0  0  0  0  0  0
  191.2920  176.9680  146.7930 C   0  0  2  0  0  3  0  0  0  0  0  0
  189.2790  177.9360  147.9520 C   0  0  0  0  0  2  0  0  0  0  0  0
  191.8900  176.7690  144.4760 N   0  0  0  0  0  0  0  0  0  0  0  0
  187.7830  177.7180  148.1360 C   0  0  0  0  0  2  0  0  0  0  0  0
  189.6410  177.6430  144.3770 N   0  0  0  0  0  0  0  0  0  0  0  0
  189.0610  177.4400  145.5320 C   0  0  0  0  0  0  0  0  0  0  0  0
  190.9900  177.5020  143.8940 C   0  0  0  0  0  0  0  0  0  0  0  0
  191.6950  176.0180  145.6960 C   0  0  0  0  0  2  0  0  0  0  0  0
  187.5980  177.7270  145.6370 C   0  0  0  0  0  0  0  0  0  0  0  0
  187.0380  177.9090  146.8440 C   0  0  0  0  0  3  0  0  0  0  0  0
  187.2000  177.2300  143.0100 S   0  0  0  0  0  0  0  0  0  0  0  0
  186.7430  177.9080  144.4390 C   0  0  0  0  0  0  0  0  0  0  0  0
  182.0600  178.8180  143.1420 C   0  0  0  0  0  0  0  0  0  0  0  0
  184.3680  178.4810  143.6230 C   0  0  0  0  0  0  0  0  0  0  0  0
  184.6560  178.4120  142.2540 C   0  0  0  0  0  3  0  0  0  0  0  0
  182.3150  178.7420  141.7670 C   0  0  0  0  0  3  0  0  0  0  0  0
  185.4030  178.3970  144.6130 N   0  0  0  0  0  2  0  0  0  0  0  0
  183.0860  178.6960  144.0270 N   0  0  0  0  0  0  0  0  0  0  0  0
  183.6210  178.5380  141.3260 C   0  0  0  0  0  3  0  0  0  0  0  0
  180.6760  179.0560  143.6540 C   0  0  2  0  0  3  0  0  0  0  0  0
  180.1870  177.9080  144.2830 O   0  0  0  0  0  1  0  0  0  0  0  0
  179.7510  179.4700  142.5220 C   0  0  0  0  0  2  0  0  0  0  0  0
  179.6680  180.9190  142.4560 N   0  0  0  0  0  1  0  0  0  0  0  0
  191.8250  176.4330  148.1160 C   0  0  0  0  0  2  0  0  0  0  0  0
  193.0440  175.7860  147.9130 O   0  0  0  0  0  1  0  0  0  0  0  0
  1  4  1  1  0  0  0
  2  9  1  0  0  0  0
  3  1  1  0  0  0  0
  3 26  1  1  0  0  0
  4  6  1  0  0  0  0
  5 10  1  0  0  0  0
  7  8  2  0  0  0  0
  8 11  1  0  0  0  0
  8  1  1  0  0  0  0
  9  7  1  0  0  0  0
  9  5  2  0  0  0  0
 10  3  1  0  0  0  0
 11 12  2  0  0  0  0
 12  6  1  0  0  0  0
 13 14  2  0  0  0  0
 14 19  1  0  0  0  0
 14 11  1  0  0  0  0
 15 22  1  0  0  0  0
 15 20  1  0  0  0  0
 16 20  2  0  0  0  0
 16 19  1  0  0  0  0
 17 16  1  0  0  0  0
 18 15  2  0  0  0  0
 21 18  1  0  0  0  0
 21 17  2  0  0  0  0
 22 23  1  6  0  0  0
 24 22  1  0  0  0  0
 25 24  1  0  0  0  0
 27 26  1  0  0  0  0
M  END
>  <MODEL>
4

>  <REMARK>
 VINA RESULT:      -7.5      4.328      7.969
  Name = 
  5 active torsions:
  status: ('A' for Active; 'I' for Inactive)
    1  A    between atoms: C_2  and  C_4
    2  A    between atoms: C_2  and  C_9
    3  A    between atoms: C_5  and  C_11
    4  A    between atoms: C_14  and  N_17
    5  A    between atoms: C_14  and  C_26
                            x       y       z     vdW  Elec       q    Type
                         _______ _______ _______ _____ _____    ______ ____

>  <TORSDO>
F 5

$$$$
=
 OpenBabel11062415463D

 27 29  0  0  1  0  0  0  0  0999 V2000
  191.0050  177.3750  142.1810 C   0  0  1  0  0  3  0  0  0  0  0  0
  187.4790  178.4590  139.4840 N   0  0  0  0  0  1  0  0  0  0  0  0
  191.4840  177.6020  140.7530 C   0  0  2  0  0  3  0  0  0  0  0  0
  191.7840  178.2390  143.1690 C   0  0  0  0  0  2  0  0  0  0  0  0
  189.5350  177.3590  139.3710 N   0  0  0  0  0  0  0  0  0  0  0  0
  191.4990  177.7470  144.5820 C   0  0  0  0  0  2  0  0  0  0  0  0
  188.5940  177.7680  141.5560 N   0  0  0  0  0  0  0  0  0  0  0  0
  189.5140  177.5380  142.4580 C   0  0  0  0  0  0  0  0  0  0  0  0
  188.6010  177.8580  140.1200 C   0  0  0  0  0  0  0  0  0  0  0  0
  190.7150  176.6730  139.8510 C   0  0  0  0  0  2  0  0  0  0  0  0
  189.0980  177.5410  143.8940 C   0  0  0  0  0  0  0  0  0  0  0  0
  190.0210  177.6960  144.8560 C   0  0  0  0  0  3  0  0  0  0  0  0
  187.2590  177.7960  145.8580 S   0  0  0  0  0  0  0  0  0  0  0  0
  187.6740  177.4660  144.3010 C   0  0  0  0  0  0  0  0  0  0  0  0
  183.4350  178.6850  142.0660 C   0  0  0  0  0  0  0  0  0  0  0  0
  185.3780  178.0450  143.2870 C   0  0  0  0  0  0  0  0  0  0  0  0
  184.8030  178.5200  144.4740 C   0  0  0  0  0  3  0  0  0  0  0  0
  182.8390  179.1780  143.2340 C   0  0  0  0  0  3  0  0  0  0  0  0
  186.6650  177.4130  143.2770 N   0  0  0  0  0  2  0  0  0  0  0  0
  184.6750  178.1280  142.1250 N   0  0  0  0  0  0  0  0  0  0  0  0
  183.5310  179.0920  144.4410 C   0  0  0  0  0  3  0  0  0  0  0  0
  182.7180  178.7400  140.7560 C   0  0  2  0  0  3  0  0  0  0  0  0
  181.7900  177.7000  140.6680 O   0  0  0  0  0  1  0  0  0  0  0  0
  183.7050  178.6630  139.6030 C   0  0  0  0  0  2  0  0  0  0  0  0
  184.1810  179.9950  139.2710 N   0  0  0  0  0  1  0  0  0  0  0  0
  192.9670  177.2780  140.6310 C   0  0  0  0  0  2  0  0  0  0  0  0
  193.3340  177.2280  139.2850 O   0  0  0  0  0  1  0  0  0  0  0  0
  1  8  1  0  0  0  0
  1  4  1  1  0  0  0
  2  9  1  0  0  0  0
  3 26  1  1  0  0  0
  3  1  1  0  0  0  0
  4  6  1  0  0  0  0
  5 10  1  0  0  0  0
  5  9  2  0  0  0  0
  6 12  1  0  0  0  0
  7  8  2  0  0  0  0
  8 11  1  0  0  0  0
  9  7  1  0  0  0  0
 10  3  1  0  0  0  0
 11 14  1  0  0  0  0
 11 12  2  0  0  0  0
 14 13  2  0  0  0  0
 15 20  1  0  0  0  0
 15 18  2  0  0  0  0
 16 17  1  0  0  0  0
 18 21  1  0  0  0  0
 19 16  1  0  0  0  0
 19 14  1  0  0  0  0
 20 16  2  0  0  0  0
 21 17  2  0  0  0  0
 22 23  1  1  0  0  0
 22 15  1  0  0  0  0
 24 22  1  0  0  0  0
 25 24  1  0  0  0  0
 27 26  1  0  0  0  0
M  END
>  <MODEL>
5

>  <REMARK>
 VINA RESULT:      -7.4      2.456      6.847
  Name = 
  5 active torsions:
  status: ('A' for Active; 'I' for Inactive)
    1  A    between atoms: C_2  and  C_4
    2  A    between atoms: C_2  and  C_9
    3  A    between atoms: C_5  and  C_11
    4  A    between atoms: C_14  and  N_17
    5  A    between atoms: C_14  and  C_26
                            x       y       z     vdW  Elec       q    Type
                         _______ _______ _______ _____ _____    ______ ____

>  <TORSDO>
F 5

$$$$
=
 OpenBabel11062415463D

 27 29  0  0  1  0  0  0  0  0999 V2000
  187.8200  177.5440  145.7830 C   0  0  1  0  0  3  0  0  0  0  0  0
  191.8750  178.7060  144.0270 N   0  0  0  0  0  1  0  0  0  0  0  0
  188.8480  177.7100  146.8950 C   0  0  2  0  0  3  0  0  0  0  0  0
  186.5820  178.3990  146.0420 C   0  0  0  0  0  2  0  0  0  0  0  0
  190.9910  177.5150  145.8300 N   0  0  0  0  0  0  0  0  0  0  0  0
  185.4750  177.9590  145.0930 C   0  0  0  0  0  2  0  0  0  0  0  0
  189.5190  178.0240  143.9840 N   0  0  0  0  0  0  0  0  0  0  0  0
  188.2870  177.7790  144.3510 C   0  0  0  0  0  0  0  0  0  0  0  0
  190.7790  178.0750  144.6780 C   0  0  0  0  0  0  0  0  0  0  0  0
  190.0040  176.7910  146.6010 C   0  0  0  0  0  2  0  0  0  0  0  0
  187.2230  177.8400  143.3030 C   0  0  0  0  0  0  0  0  0  0  0  0
  185.9380  177.9800  143.6630 C   0  0  0  0  0  3  0  0  0  0  0  0
  186.7210  178.8410  140.8430 S   0  0  0  0  0  0  0  0  0  0  0  0
  187.5440  177.8390  141.8550 C   0  0  0  0  0  0  0  0  0  0  0  0
  191.1780  176.7320  138.6890 C   0  0  0  0  0  0  0  0  0  0  0  0
  189.3100  177.1940  140.0930 C   0  0  0  0  0  0  0  0  0  0  0  0
  188.5350  177.5220  138.9730 C   0  0  0  0  0  3  0  0  0  0  0  0
  190.4310  177.0640  137.5520 C   0  0  0  0  0  3  0  0  0  0  0  0
  188.7580  177.2040  141.4170 N   0  0  0  0  0  2  0  0  0  0  0  0
  190.5990  176.7960  139.9190 N   0  0  0  0  0  0  0  0  0  0  0  0
  189.1030  177.4610  137.7000 C   0  0  0  0  0  3  0  0  0  0  0  0
  192.5980  176.2820  138.5710 C   0  0  2  0  0  3  0  0  0  0  0  0
  193.4560  177.2310  139.1320 O   0  0  0  0  0  1  0  0  0  0  0  0
  192.9620  176.0400  137.1150 C   0  0  0  0  0  2  0  0  0  0  0  0
  194.1890  176.7450  136.7890 N   0  0  0  0  0  1  0  0  0  0  0  0
  188.2470  177.3180  148.2380 C   0  0  0  0  0  2  0  0  0  0  0  0
  188.5640  178.2780  149.2010 O   0  0  0  0  0  1  0  0  0  0  0  0
  1  4  1  1  0  0  0
  1  3  1  0  0  0  0
  2  9  1  0  0  0  0
  3 26  1  1  0  0  0
  5 10  1  0  0  0  0
  6  4  1  0  0  0  0
  7  8  2  0  0  0  0
  7  9  1  0  0  0  0
  8  1  1  0  0  0  0
  9  5  2  0  0  0  0
 10  3  1  0  0  0  0
 11 12  2  0  0  0  0
 11  8  1  0  0  0  0
 12  6  1  0  0  0  0
 13 14  2  0  0  0  0
 14 11  1  0  0  0  0
 15 20  1  0  0  0  0
 16 19  1  0  0  0  0
 17 16  1  0  0  0  0
 18 21  1  0  0  0  0
 18 15  2  0  0  0  0
 19 14  1  0  0  0  0
 20 16  2  0  0  0  0
 21 17  2  0  0  0  0
 22 15  1  0  0  0  0
 22 23  1  6  0  0  0
 24 22  1  0  0  0  0
 25 24  1  0  0  0  0
 26 27  1  0  0  0  0
M  END
>  <MODEL>
6

>  <REMARK>
 VINA RESULT:      -7.3      2.548      3.828
  Name = 
  5 active torsions:
  status: ('A' for Active; 'I' for Inactive)
    1  A    between atoms: C_2  and  C_4
    2  A    between atoms: C_2  and  C_9
    3  A    between atoms: C_5  and  C_11
    4  A    between atoms: C_14  and  N_17
    5  A    between atoms: C_14  and  C_26
                            x       y       z     vdW  Elec       q    Type
                         _______ _______ _______ _____ _____    ______ ____

>  <TORSDO>
F 5

$$$$
=
 OpenBabel11062415463D

 27 29  0  0  1  0  0  0  0  0999 V2000
  182.5070  179.0310  142.7810 C   0  0  1  0  0  3  0  0  0  0  0  0
  183.4220  176.4350  139.1350 N   0  0  0  0  0  1  0  0  0  0  0  0
  181.2560  178.8590  141.9300 C   0  0  2  0  0  3  0  0  0  0  0  0
  182.2490  178.6290  144.2310 C   0  0  0  0  0  2  0  0  0  0  0  0
  182.0380  178.2100  139.7550 N   0  0  0  0  0  0  0  0  0  0  0  0
  183.4090  179.1170  145.0890 C   0  0  0  0  0  2  0  0  0  0  0  0
  183.9220  177.7000  141.1760 N   0  0  0  0  0  0  0  0  0  0  0  0
  183.7840  178.3480  142.3040 C   0  0  0  0  0  0  0  0  0  0  0  0
  183.0690  177.4740  140.0390 C   0  0  0  0  0  0  0  0  0  0  0  0
  181.5730  179.3350  140.5360 C   0  0  0  0  0  2  0  0  0  0  0  0
  184.9320  178.3340  143.2610 C   0  0  0  0  0  0  0  0  0  0  0  0
  184.7280  178.6350  144.5530 C   0  0  0  0  0  3  0  0  0  0  0  0
  186.9710  178.5550  141.5000 S   0  0  0  0  0  0  0  0  0  0  0  0
  186.2930  177.9070  142.8520 C   0  0  0  0  0  0  0  0  0  0  0  0
  190.1970  177.1130  145.7800 C   0  0  0  0  0  0  0  0  0  0  0  0
  188.4320  177.5040  144.2280 C   0  0  0  0  0  0  0  0  0  0  0  0
  189.2460  178.3900  143.5090 C   0  0  0  0  0  3  0  0  0  0  0  0
  191.0290  178.0010  145.0870 C   0  0  0  0  0  3  0  0  0  0  0  0
  187.1030  177.1850  143.7940 N   0  0  0  0  0  2  0  0  0  0  0  0
  188.9330  176.8820  145.3300 N   0  0  0  0  0  0  0  0  0  0  0  0
  190.5470  178.6410  143.9470 C   0  0  0  0  0  3  0  0  0  0  0  0
  190.6850  176.3930  146.9950 C   0  0  2  0  0  3  0  0  0  0  0  0
  190.7250  177.2600  148.0890 O   0  0  0  0  0  1  0  0  0  0  0  0
  192.0590  175.7950  146.7460 C   0  0  0  0  0  2  0  0  0  0  0  0
  192.8990  175.9840  147.9160 N   0  0  0  0  0  1  0  0  0  0  0  0
  180.1160  179.7040  142.4820 C   0  0  0  0  0  2  0  0  0  0  0  0
  179.0180  178.8920  142.7720 O   0  0  0  0  0  1  0  0  0  0  0  0
  1  4  1  1  0  0  0
  2  9  1  0  0  0  0
  3 26  1  1  0  0  0
  3  1  1  0  0  0  0
  4  6  1  0  0  0  0
  5  9  2  0  0  0  0
  5 10  1  0  0  0  0
  7  8  2  0  0  0  0
  8  1  1  0  0  0  0
  8 11  1  0  0  0  0
  9  7  1  0  0  0  0
 10  3  1  0  0  0  0
 11 12  2  0  0  0  0
 12  6  1  0  0  0  0
 13 14  2  0  0  0  0
 14 11  1  0  0  0  0
 14 19  1  0  0  0  0
 15 22  1  0  0  0  0
 16 20  2  0  0  0  0
 17 21  2  0  0  0  0
 17 16  1  0  0  0  0
 18 15  2  0  0  0  0
 19 16  1  0  0  0  0
 20 15  1  0  0  0  0
 21 18  1  0  0  0  0
 22 23  1  1  0  0  0
 24 22  1  0  0  0  0
 24 25  1  0  0  0  0
 26 27  1  0  0  0  0
M  END
>  <MODEL>
7

>  <REMARK>
 VINA RESULT:      -7.0      4.585      5.927
  Name = 
  5 active torsions:
  status: ('A' for Active; 'I' for Inactive)
    1  A    between atoms: C_2  and  C_4
    2  A    between atoms: C_2  and  C_9
    3  A    between atoms: C_5  and  C_11
    4  A    between atoms: C_14  and  N_17
    5  A    between atoms: C_14  and  C_26
                            x       y       z     vdW  Elec       q    Type
                         _______ _______ _______ _____ _____    ______ ____

>  <TORSDO>
F 5

$$$$
=
 OpenBabel11062415463D

 27 29  0  0  1  0  0  0  0  0999 V2000
  188.9590  177.0740  144.6670 C   0  0  1  0  0  3  0  0  0  0  0  0
  188.3110  178.5850  140.4050 N   0  0  0  0  0  1  0  0  0  0  0  0
  190.2600  176.9990  143.8780 C   0  0  2  0  0  3  0  0  0  0  0  0
  189.1450  177.8540  145.9660 C   0  0  0  0  0  2  0  0  0  0  0  0
  189.6160  177.0360  141.5650 N   0  0  0  0  0  0  0  0  0  0  0  0
  187.9270  177.6270  146.8530 C   0  0  0  0  0  2  0  0  0  0  0  0
  187.6680  177.9280  142.6780 N   0  0  0  0  0  0  0  0  0  0  0  0
  187.7270  177.6100  143.9460 C   0  0  0  0  0  0  0  0  0  0  0  0
  188.5890  177.8290  141.5770 C   0  0  0  0  0  0  0  0  0  0  0  0
  190.0120  176.1640  142.6500 C   0  0  0  0  0  2  0  0  0  0  0  0
  186.5280  177.8930  144.7920 C   0  0  0  0  0  0  0  0  0  0  0  0
  186.6520  177.9530  146.1270 C   0  0  0  0  0  3  0  0  0  0  0  0
  184.1090  179.0650  145.0750 S   0  0  0  0  0  0  0  0  0  0  0  0
  185.2030  178.2010  144.2010 C   0  0  0  0  0  0  0  0  0  0  0  0
  182.9180  178.6730  139.8420 C   0  0  0  0  0  0  0  0  0  0  0  0
  183.8670  178.3640  142.0040 C   0  0  0  0  0  0  0  0  0  0  0  0
  182.6260  178.6230  142.6000 C   0  0  0  0  0  3  0  0  0  0  0  0
  181.6670  178.9470  140.4090 C   0  0  0  0  0  3  0  0  0  0  0  0
  185.0170  178.0140  142.7880 N   0  0  0  0  0  2  0  0  0  0  0  0
  183.9750  178.3820  140.6480 N   0  0  0  0  0  0  0  0  0  0  0  0
  181.5250  178.9210  141.7950 C   0  0  0  0  0  3  0  0  0  0  0  0
  183.1050  178.6720  138.3590 C   0  0  2  0  0  3  0  0  0  0  0  0
  181.9570  178.1910  137.7260 O   0  0  0  0  0  1  0  0  0  0  0  0
  184.3100  177.8300  137.9740 C   0  0  0  0  0  2  0  0  0  0  0  0
  183.8700  176.5970  137.3440 N   0  0  0  0  0  1  0  0  0  0  0  0
  191.3480  176.3290  144.7070 C   0  0  0  0  0  2  0  0  0  0  0  0
  191.9660  175.3260  143.9600 O   0  0  0  0  0  1  0  0  0  0  0  0
  1  4  1  1  0  0  0
  2  9  1  0  0  0  0
  3  1  1  0  0  0  0
  3 26  1  1  0  0  0
  4  6  1  0  0  0  0
  5  9  2  0  0  0  0
  5 10  1  0  0  0  0
  7  8  2  0  0  0  0
  8  1  1  0  0  0  0
  8 11  1  0  0  0  0
  9  7  1  0  0  0  0
 10  3  1  0  0  0  0
 11 12  2  0  0  0  0
 12  6  1  0  0  0  0
 14 11  1  0  0  0  0
 14 13  2  0  0  0  0
 15 18  2  0  0  0  0
 15 20  1  0  0  0  0
 16 17  1  0  0  0  0
 16 19  1  0  0  0  0
 18 21  1  0  0  0  0
 19 14  1  0  0  0  0
 20 16  2  0  0  0  0
 21 17  2  0  0  0  0
 22 23  1  6  0  0  0
 22 15  1  0  0  0  0
 24 22  1  0  0  0  0
 25 24  1  0  0  0  0
 27 26  1  0  0  0  0
M  END
>  <MODEL>
8

>  <REMARK>
 VINA RESULT:      -7.0      3.570      6.379
  Name = 
  5 active torsions:
  status: ('A' for Active; 'I' for Inactive)
    1  A    between atoms: C_2  and  C_4
    2  A    between atoms: C_2  and  C_9
    3  A    between atoms: C_5  and  C_11
    4  A    between atoms: C_14  and  N_17
    5  A    between atoms: C_14  and  C_26
                            x       y       z     vdW  Elec       q    Type
                         _______ _______ _______ _____ _____    ______ ____

>  <TORSDO>
F 5

$$$$
=
 OpenBabel11062415463D

 27 29  0  0  1  0  0  0  0  0999 V2000
  184.4550  178.3490  143.9170 C   0  0  1  0  0  3  0  0  0  0  0  0
  188.0750  178.7810  141.1630 N   0  0  0  0  0  1  0  0  0  0  0  0
  185.7350  178.4390  144.7380 C   0  0  2  0  0  3  0  0  0  0  0  0
  183.4360  179.3930  144.3660 C   0  0  0  0  0  2  0  0  0  0  0  0
  187.5120  177.8590  143.2320 N   0  0  0  0  0  0  0  0  0  0  0  0
  182.0850  179.0560  143.7490 C   0  0  0  0  0  2  0  0  0  0  0  0
  185.7130  178.4500  141.7350 N   0  0  0  0  0  0  0  0  0  0  0  0
  184.5860  178.4150  142.3990 C   0  0  0  0  0  0  0  0  0  0  0  0
  187.1000  178.3630  142.1100 C   0  0  0  0  0  0  0  0  0  0  0  0
  186.6600  177.3420  144.2800 C   0  0  0  0  0  2  0  0  0  0  0  0
  183.3160  178.5590  141.6250 C   0  0  0  0  0  0  0  0  0  0  0  0
  182.1850  178.9110  142.2560 C   0  0  0  0  0  3  0  0  0  0  0  0
  182.9980  176.9280  139.4930 S   0  0  0  0  0  0  0  0  0  0  0  0
  183.2730  178.4110  140.1490 C   0  0  0  0  0  0  0  0  0  0  0  0
  180.9290  182.0560  137.7680 C   0  0  0  0  0  0  0  0  0  0  0  0
  181.9660  180.1820  138.8110 C   0  0  0  0  0  0  0  0  0  0  0  0
  180.7660  179.4610  138.7350 C   0  0  0  0  0  3  0  0  0  0  0  0
  179.7130  181.3640  137.6890 C   0  0  0  0  0  3  0  0  0  0  0  0
  183.1620  179.5940  139.3390 N   0  0  0  0  0  2  0  0  0  0  0  0
  182.0170  181.4480  138.3140 N   0  0  0  0  0  0  0  0  0  0  0  0
  179.6370  180.0600  138.1760 C   0  0  0  0  0  3  0  0  0  0  0  0
  181.0560  183.4480  137.2380 C   0  0  2  0  0  3  0  0  0  0  0  0
  180.1680  184.3010  137.8970 O   0  0  0  0  0  1  0  0  0  0  0  0
  180.7990  183.4750  135.7410 C   0  0  0  0  0  2  0  0  0  0  0  0
  179.5710  184.1980  135.4640 N   0  0  0  0  0  1  0  0  0  0  0  0
  185.4340  178.2320  146.2170 C   0  0  0  0  0  2  0  0  0  0  0  0
  185.6800  179.4110  146.9230 O   0  0  0  0  0  1  0  0  0  0  0  0
  1  4  1  1  0  0  0
  1  3  1  0  0  0  0
  2  9  1  0  0  0  0
  3 26  1  1  0  0  0
  5 10  1  0  0  0  0
  6  4  1  0  0  0  0
  7  9  1  0  0  0  0
  7  8  2  0  0  0  0
  8  1  1  0  0  0  0
  9  5  2  0  0  0  0
 10  3  1  0  0  0  0
 11 12  2  0  0  0  0
 11  8  1  0  0  0  0
 12  6  1  0  0  0  0
 13 14  2  0  0  0  0
 14 11  1  0  0  0  0
 15 20  1  0  0  0  0
 16 19  1  0  0  0  0
 17 16  1  0  0  0  0
 18 15  2  0  0  0  0
 18 21  1  0  0  0  0
 19 14  1  0  0  0  0
 20 16  2  0  0  0  0
 21 17  2  0  0  0  0
 22 15  1  0  0  0  0
 22 23  1  1  0  0  0
 24 22  1  0  0  0  0
 25 24  1  0  0  0  0
 26 27  1  0  0  0  0
M  END
>  <MODEL>
9

>  <REMARK>
 VINA RESULT:      -7.0      5.222      8.349
  Name = 
  5 active torsions:
  status: ('A' for Active; 'I' for Inactive)
    1  A    between atoms: C_2  and  C_4
    2  A    between atoms: C_2  and  C_9
    3  A    between atoms: C_5  and  C_11
    4  A    between atoms: C_14  and  N_17
    5  A    between atoms: C_14  and  C_26
                            x       y       z     vdW  Elec       q    Type
                         _______ _______ _______ _____ _____    ______ ____

>  <TORSDO>
F 5

$$$$
