=
 OpenBabel11062413473D

 52 54  0  0  1  0  0  0  0  0999 V2000
  190.3550  177.1050  139.9900 C   0  0  0  0  0  0  0  0  0  0  0  0
  190.4560  177.1240  141.2880 C   0  0  0  0  0  3  0  0  0  0  0  0
  190.1970  177.0910  138.6920 C   0  0  0  0  0  3  0  0  0  0  0  0
  186.6910  175.6150  136.7750 C   0  0  0  0  0  0  0  0  0  0  0  0
  187.8040  174.8440  136.8810 N   0  0  0  0  0  0  0  0  0  0  0  0
  185.4720  177.7830  137.1130 C   0  0  2  0  0  3  0  0  0  0  0  0
  186.6710  176.9020  137.3300 C   0  0  0  0  0  0  0  0  0  0  0  0
  185.3440  178.6890  138.1690 O   0  0  0  0  0  1  0  0  0  0  0  0
  187.8200  177.3820  137.9600 C   0  0  0  0  0  3  0  0  0  0  0  0
  188.9280  175.2860  137.5170 C   0  0  0  0  0  0  0  0  0  0  0  0
  184.1710  176.9620  136.9530 C   0  0  2  0  0  0  0  0  0  0  0  0
  188.9600  176.5760  138.0720 C   0  0  0  0  0  0  0  0  0  0  0  0
  183.7350  176.5320  138.1980 F   0  0  0  0  0  0  0  0  0  0  0  0
  185.5460  175.1270  136.0640 N   0  0  0  0  0  0  0  0  0  0  0  0
  184.4000  175.7410  136.0950 C   0  0  0  0  0  3  0  0  0  0  0  0
  183.1530  177.7470  136.3300 O   0  0  0  0  0  0  0  0  0  0  0  0
  181.0810  176.9280  136.9160 O   0  0  0  0  0  0  0  0  0  0  0  0
  181.8800  177.9060  136.8790 C   0  0  0  0  0  0  0  0  0  0  0  0
  181.4130  179.2510  137.3230 C   0  0  0  0  0  2  0  0  0  0  0  0
  181.8360  178.8640  139.7260 C   0  0  0  0  0  1  0  0  0  0  0  0
  182.2130  179.7110  138.5270 C   0  0  0  0  0  2  0  0  0  0  0  0
  190.0520  174.4640  137.5900 O   0  0  0  0  0  0  0  0  0  0  0  0
  190.7830  174.1650  136.4570 N   0  0  0  0  0  2  0  0  0  0  0  0
  192.1840  173.9920  136.8340 C   0  0  0  0  0  2  0  0  0  0  0  0
  192.9640  175.3100  136.8280 C   0  0  1  0  0  3  0  0  0  0  0  0
  194.6650  175.5990  138.3410 O   0  0  0  0  0  0  0  0  0  0  0  0
  193.4850  175.5680  138.1480 N   0  0  0  0  0  0  0  0  0  0  0  0
  194.0800  175.3500  135.7790 C   0  0  0  0  0  2  0  0  0  0  0  0
  194.4950  173.9620  135.3080 C   0  0  0  0  0  1  0  0  0  0  0  0
  191.7550  177.3050  141.9500 C   0  0  0  0  0  3  0  0  0  0  0  0
  191.8820  178.0100  143.0320 N   0  0  0  0  0  0  0  0  0  0  0  0
  190.7670  178.6760  143.7000 C   0  0  2  0  0  3  0  0  0  0  0  0
  191.1430  179.9750  144.0570 O   0  0  0  0  0  1  0  0  0  0  0  0
  190.3270  177.9000  144.9500 C   0  0  2  0  0  3  0  0  0  0  0  0
  191.4890  177.0490  145.4720 C   0  0  0  0  0  2  0  0  0  0  0  0
  191.3190  176.6530  146.9280 C   0  0  0  0  0  2  0  0  0  0  0  0
  193.0110  176.0690  148.5230 O   0  0  0  0  0  1  0  0  0  0  0  0
  192.3680  175.6420  147.3600 C   0  0  0  0  0  2  0  0  0  0  0  0
  189.2460  177.0590  144.6320 O   0  0  0  0  0  0  0  0  0  0  0  0
  188.1140  177.5940  145.2660 C   0  0  2  0  0  3  0  0  0  0  0  0
  187.5190  176.6340  146.0870 O   0  0  0  0  0  1  0  0  0  0  0  0
  183.5120  178.3300  144.8050 C   0  0  0  0  0  1  0  0  0  0  0  0
  187.1110  178.0790  144.2230 C   0  0  1  0  0  3  0  0  0  0  0  0
  184.9210  178.8300  144.5280 C   0  0  2  0  0  0  0  0  0  0  0  0
  187.4180  177.4970  142.9860 O   0  0  0  0  0  0  0  0  0  0  0  0
  184.8930  179.5080  143.1470 C   0  0  0  0  0  2  0  0  0  0  0  0
  187.4440  178.5550  142.0730 C   0  0  0  0  0  2  0  0  0  0  0  0
  186.1870  178.5540  141.1980 C   0  0  0  0  0  2  0  0  0  0  0  0
  184.8940  178.4910  142.0090 C   0  0  0  0  0  2  0  0  0  0  0  0
  185.8020  177.7150  144.6000 O   0  0  0  0  0  0  0  0  0  0  0  0
  185.2700  179.8910  145.5790 C   0  0  0  0  0  2  0  0  0  0  0  0
  185.3570  179.3210  146.8540 O   0  0  0  0  0  1  0  0  0  0  0  0
  1  2  2  0  0  0  0
  2 30  1  0  0  0  0
  3  1  2  0  0  0  0
  4  5  1  0  0  0  0
  4  7  2  0  0  0  0
  5 10  2  0  0  0  0
  6  7  1  0  0  0  0
  6  8  1  1  0  0  0
  7  9  1  0  0  0  0
  9 12  2  0  0  0  0
 10 22  1  0  0  0  0
 10 12  1  0  0  0  0
 11  6  1  0  0  0  0
 11 13  1  1  0  0  0
 12  3  1  0  0  0  0
 14 15  2  0  0  0  0
 14  4  1  0  0  0  0
 15 11  1  0  0  0  0
 16 18  1  0  0  0  0
 16 11  1  0  0  0  0
 18 17  2  0  0  0  0
 18 19  1  0  0  0  0
 19 21  1  0  0  0  0
 21 20  1  0  0  0  0
 23 24  1  0  0  0  0
 23 22  1  0  0  0  0
 25 28  1  6  0  0  0
 25 24  1  0  0  0  0
 25 27  1  0  0  0  0
 27 26  2  0  0  0  0
 29 28  1  0  0  0  0
 30 31  2  0  0  0  0
 31 32  1  0  0  0  0
 32 33  1  1  0  0  0
 32 34  1  0  0  0  0
 34 35  1  6  0  0  0
 35 36  1  0  0  0  0
 36 38  1  0  0  0  0
 38 37  1  0  0  0  0
 39 34  1  0  0  0  0
 39 40  1  0  0  0  0
 40 41  1  6  0  0  0
 43 50  1  0  0  0  0
 43 40  1  1  0  0  0
 44 50  1  0  0  0  0
 44 42  1  1  0  0  0
 44 51  1  0  0  0  0
 45 43  1  0  0  0  0
 46 44  1  0  0  0  0
 47 45  1  0  0  0  0
 48 49  1  0  0  0  0
 48 47  1  0  0  0  0
 49 46  1  0  0  0  0
 51 52  1  0  0  0  0
M  END
>  <MODEL>
1

>  <REMARK>
 VINA RESULT:      -6.9      0.000      0.000
  Name = 
  21 active torsions:
  status: ('A' for Active; 'I' for Inactive)
    1  A    between atoms: C_1  and  C_30
    2  A    between atoms: C_1  and  N_38
    3  A    between atoms: C_6  and  C_28
    4  A    between atoms: C_6  and  C_36
    5  A    between atoms: N_8  and  O_45
    6  A    between atoms: N_8  and  C_49
    7  A    between atoms: C_9  and  C_14
    8  A    between atoms: C_10  and  C_21
    9  A    between atoms: C_10  and  O_47
   10  A    between atoms: O_13  and  C_36
   11  A    between atoms: O_13  and  C_37
   12  A    between atoms: C_14  and  C_32
   13  A    between atoms: C_15  and  C_29
   14  A    between atoms: C_16  and  C_42
   15  A    between atoms: C_18  and  C_25
   16  A    between atoms: N_22  and  C_42
   17  A    between atoms: C_30  and  C_32
   18  A    between atoms: C_30  and  O_47
   19  A    between atoms: C_31  and  O_45
   20  A    between atoms: C_33  and  C_40
   21  A    between atoms: C_42  and  C_49
                            x       y       z     vdW  Elec       q    Type
                         _______ _______ _______ _____ _____    ______ ____

>  <TORSDO>
F 21

$$$$
=
 OpenBabel11062413473D

 52 54  0  0  1  0  0  0  0  0999 V2000
  190.5010  177.4850  140.2170 C   0  0  0  0  0  0  0  0  0  0  0  0
  190.5410  177.2100  141.4880 C   0  0  0  0  0  3  0  0  0  0  0  0
  190.4060  177.7680  138.9430 C   0  0  0  0  0  3  0  0  0  0  0  0
  186.9370  176.9330  136.6150 C   0  0  0  0  0  0  0  0  0  0  0  0
  188.1540  176.4480  136.2530 N   0  0  0  0  0  0  0  0  0  0  0  0
  185.4740  178.3110  138.1190 C   0  0  2  0  0  3  0  0  0  0  0  0
  186.8040  177.6910  137.7870 C   0  0  0  0  0  0  0  0  0  0  0  0
  185.3480  178.4660  139.5020 O   0  0  0  0  0  1  0  0  0  0  0  0
  187.9410  177.9610  138.5490 C   0  0  0  0  0  3  0  0  0  0  0  0
  189.2720  176.6780  137.0000 C   0  0  0  0  0  0  0  0  0  0  0  0
  184.2930  177.4800  137.5650 C   0  0  2  0  0  0  0  0  0  0  0  0
  189.1880  177.4480  138.1720 C   0  0  0  0  0  0  0  0  0  0  0  0
  184.0760  176.3770  138.3780 F   0  0  0  0  0  0  0  0  0  0  0  0
  185.7960  176.7010  135.7810 N   0  0  0  0  0  0  0  0  0  0  0  0
  184.5860  176.9780  136.1720 C   0  0  0  0  0  3  0  0  0  0  0  0
  183.1060  178.2730  137.5010 O   0  0  0  0  0  0  0  0  0  0  0  0
  181.0600  177.4380  136.8460 O   0  0  0  0  0  0  0  0  0  0  0  0
  181.8390  177.7610  137.7870 C   0  0  0  0  0  0  0  0  0  0  0  0
  181.3540  177.6940  139.1950 C   0  0  0  0  0  2  0  0  0  0  0  0
  182.4050  178.5870  141.2450 C   0  0  0  0  0  1  0  0  0  0  0  0
  181.7320  178.9610  139.9390 C   0  0  0  0  0  2  0  0  0  0  0  0
  190.5020  176.1700  136.5820 O   0  0  0  0  0  0  0  0  0  0  0  0
  190.7690  174.8180  136.6540 N   0  0  0  0  0  2  0  0  0  0  0  0
  191.8590  174.6040  137.6030 C   0  0  0  0  0  2  0  0  0  0  0  0
  193.2410  174.7120  136.9490 C   0  0  1  0  0  3  0  0  0  0  0  0
  193.5970  176.8600  137.6740 O   0  0  0  0  0  0  0  0  0  0  0  0
  194.0080  175.7390  137.6110 N   0  0  0  0  0  0  0  0  0  0  0  0
  194.0050  173.3840  136.9230 C   0  0  0  0  0  2  0  0  0  0  0  0
  193.3960  172.3730  135.9620 C   0  0  0  0  0  1  0  0  0  0  0  0
  191.8100  177.1920  142.2280 C   0  0  0  0  0  3  0  0  0  0  0  0
  191.8850  177.5490  143.4730 N   0  0  0  0  0  0  0  0  0  0  0  0
  190.7340  177.9850  144.2610 C   0  0  2  0  0  3  0  0  0  0  0  0
  190.7780  179.3740  144.4240 O   0  0  0  0  0  1  0  0  0  0  0  0
  190.7110  177.3000  145.6340 C   0  0  2  0  0  3  0  0  0  0  0  0
  191.8290  176.2560  145.7150 C   0  0  0  0  0  2  0  0  0  0  0  0
  191.9850  175.6690  147.1070 C   0  0  0  0  0  2  0  0  0  0  0  0
  193.2010  176.6070  148.9490 O   0  0  0  0  0  1  0  0  0  0  0  0
  192.0520  176.7540  148.1690 C   0  0  0  0  0  2  0  0  0  0  0  0
  189.4720  176.6650  145.8290 O   0  0  0  0  0  0  0  0  0  0  0  0
  188.6880  177.5330  146.6040 C   0  0  2  0  0  3  0  0  0  0  0  0
  188.4040  176.9540  147.8430 O   0  0  0  0  0  1  0  0  0  0  0  0
  187.1240  178.2780  142.2530 C   0  0  0  0  0  1  0  0  0  0  0  0
  187.3890  177.8570  145.8740 C   0  0  1  0  0  3  0  0  0  0  0  0
  186.8790  177.6290  143.6060 C   0  0  2  0  0  0  0  0  0  0  0  0
  186.6990  178.8500  146.5830 O   0  0  0  0  0  0  0  0  0  0  0  0
  185.3660  177.7010  143.8720 C   0  0  0  0  0  2  0  0  0  0  0  0
  185.3940  178.3700  146.7220 C   0  0  0  0  0  2  0  0  0  0  0  0
  184.4400  179.0920  145.7670 C   0  0  0  0  0  2  0  0  0  0  0  0
  184.9300  179.0940  144.3200 C   0  0  0  0  0  2  0  0  0  0  0  0
  187.6640  178.3200  144.5700 O   0  0  0  0  0  0  0  0  0  0  0  0
  187.2810  176.1510  143.5100 C   0  0  0  0  0  2  0  0  0  0  0  0
  188.4350  175.9980  142.7340 O   0  0  0  0  0  1  0  0  0  0  0  0
  1  2  2  0  0  0  0
  2 30  1  0  0  0  0
  3  1  2  0  0  0  0
  4  7  2  0  0  0  0
  5  4  1  0  0  0  0
  5 10  2  0  0  0  0
  6  8  1  1  0  0  0
  7  6  1  0  0  0  0
  7  9  1  0  0  0  0
 10 12  1  0  0  0  0
 11  6  1  0  0  0  0
 11 13  1  1  0  0  0
 12  9  2  0  0  0  0
 12  3  1  0  0  0  0
 14 15  2  0  0  0  0
 14  4  1  0  0  0  0
 15 11  1  0  0  0  0
 16 11  1  0  0  0  0
 16 18  1  0  0  0  0
 17 18  2  0  0  0  0
 18 19  1  0  0  0  0
 19 21  1  0  0  0  0
 21 20  1  0  0  0  0
 22 23  1  0  0  0  0
 22 10  1  0  0  0  0
 23 24  1  0  0  0  0
 25 28  1  1  0  0  0
 25 24  1  0  0  0  0
 25 27  1  0  0  0  0
 27 26  2  0  0  0  0
 29 28  1  0  0  0  0
 30 31  2  0  0  0  0
 31 32  1  0  0  0  0
 32 33  1  1  0  0  0
 32 34  1  0  0  0  0
 34 35  1  6  0  0  0
 34 39  1  0  0  0  0
 35 36  1  0  0  0  0
 36 38  1  0  0  0  0
 38 37  1  0  0  0  0
 39 40  1  0  0  0  0
 40 41  1  1  0  0  0
 43 45  1  0  0  0  0
 43 40  1  1  0  0  0
 44 42  1  6  0  0  0
 44 46  1  0  0  0  0
 44 50  1  0  0  0  0
 45 47  1  0  0  0  0
 46 49  1  0  0  0  0
 48 47  1  0  0  0  0
 49 48  1  0  0  0  0
 50 43  1  0  0  0  0
 51 44  1  0  0  0  0
 52 51  1  0  0  0  0
M  END
>  <MODEL>
2

>  <REMARK>
 VINA RESULT:      -6.7      1.207      2.124
  Name = 
  21 active torsions:
  status: ('A' for Active; 'I' for Inactive)
    1  A    between atoms: C_1  and  C_30
    2  A    between atoms: C_1  and  N_38
    3  A    between atoms: C_6  and  C_28
    4  A    between atoms: C_6  and  C_36
    5  A    between atoms: N_8  and  O_45
    6  A    between atoms: N_8  and  C_49
    7  A    between atoms: C_9  and  C_14
    8  A    between atoms: C_10  and  C_21
    9  A    between atoms: C_10  and  O_47
   10  A    between atoms: O_13  and  C_36
   11  A    between atoms: O_13  and  C_37
   12  A    between atoms: C_14  and  C_32
   13  A    between atoms: C_15  and  C_29
   14  A    between atoms: C_16  and  C_42
   15  A    between atoms: C_18  and  C_25
   16  A    between atoms: N_22  and  C_42
   17  A    between atoms: C_30  and  C_32
   18  A    between atoms: C_30  and  O_47
   19  A    between atoms: C_31  and  O_45
   20  A    between atoms: C_33  and  C_40
   21  A    between atoms: C_42  and  C_49
                            x       y       z     vdW  Elec       q    Type
                         _______ _______ _______ _____ _____    ______ ____

>  <TORSDO>
F 21

$$$$
=
 OpenBabel11062413473D

 52 54  0  0  1  0  0  0  0  0999 V2000
  189.4290  177.4150  139.6240 C   0  0  0  0  0  0  0  0  0  0  0  0
  189.8430  177.2610  140.8480 C   0  0  0  0  0  3  0  0  0  0  0  0
  188.9640  177.5840  138.4140 C   0  0  0  0  0  3  0  0  0  0  0  0
  184.8710  177.0130  137.3770 C   0  0  0  0  0  0  0  0  0  0  0  0
  185.8110  176.0910  137.0420 N   0  0  0  0  0  0  0  0  0  0  0  0
  184.2060  179.2190  138.3740 C   0  0  2  0  0  3  0  0  0  0  0  0
  185.2350  178.1550  138.1030 C   0  0  0  0  0  0  0  0  0  0  0  0
  184.5250  179.9060  139.5480 O   0  0  0  0  0  1  0  0  0  0  0  0
  186.5760  178.3380  138.4440 C   0  0  0  0  0  3  0  0  0  0  0  0
  187.1220  176.2390  137.3900 C   0  0  0  0  0  0  0  0  0  0  0  0
  182.7790  178.6320  138.4700 C   0  0  2  0  0  0  0  0  0  0  0  0
  187.5350  177.3770  138.1020 C   0  0  0  0  0  0  0  0  0  0  0  0
  182.6040  178.0290  139.7080 F   0  0  0  0  0  0  0  0  0  0  0  0
  183.5130  176.8370  136.9580 N   0  0  0  0  0  0  0  0  0  0  0  0
  182.5480  177.5840  137.4080 C   0  0  0  0  0  3  0  0  0  0  0  0
  181.8000  179.6570  138.2910 O   0  0  0  0  0  0  0  0  0  0  0  0
  179.6850  178.9450  137.7170 O   0  0  0  0  0  0  0  0  0  0  0  0
  180.7460  179.5450  137.3830 C   0  0  0  0  0  0  0  0  0  0  0  0
  180.9020  180.0330  135.9820 C   0  0  0  0  0  2  0  0  0  0  0  0
  180.5590  182.4300  136.4670 C   0  0  0  0  0  1  0  0  0  0  0  0
  179.9970  181.2250  135.7400 C   0  0  0  0  0  2  0  0  0  0  0  0
  188.0530  175.2720  137.0130 O   0  0  0  0  0  0  0  0  0  0  0  0
  188.3700  175.0770  135.6840 N   0  0  0  0  0  2  0  0  0  0  0  0
  189.6610  175.7050  135.4110 C   0  0  0  0  0  2  0  0  0  0  0  0
  190.8450  174.8090  135.7900 C   0  0  1  0  0  3  0  0  0  0  0  0
  191.0750  174.6170  138.0650 O   0  0  0  0  0  0  0  0  0  0  0  0
  191.3660  175.2170  137.0720 N   0  0  0  0  0  0  0  0  0  0  0  0
  190.5010  173.3160  135.7860 C   0  0  0  0  0  2  0  0  0  0  0  0
  191.6750  172.4420  135.3660 C   0  0  0  0  0  1  0  0  0  0  0  0
  191.2720  177.1260  141.1610 C   0  0  0  0  0  3  0  0  0  0  0  0
  191.7680  177.5230  142.2920 N   0  0  0  0  0  0  0  0  0  0  0  0
  190.9710  178.1250  143.3600 C   0  0  2  0  0  3  0  0  0  0  0  0
  191.5940  179.2950  143.8060 O   0  0  0  0  0  1  0  0  0  0  0  0
  190.7920  177.1510  144.5330 C   0  0  2  0  0  3  0  0  0  0  0  0
  191.7730  175.9830  144.3960 C   0  0  0  0  0  2  0  0  0  0  0  0
  192.0020  175.2500  145.7070 C   0  0  0  0  0  2  0  0  0  0  0  0
  192.3330  175.5360  148.0640 O   0  0  0  0  0  1  0  0  0  0  0  0
  191.9580  176.1980  146.8940 C   0  0  0  0  0  2  0  0  0  0  0  0
  189.4780  176.6510  144.5400 O   0  0  0  0  0  0  0  0  0  0  0  0
  188.7460  177.4460  145.4350 C   0  0  2  0  0  3  0  0  0  0  0  0
  188.4860  176.7390  146.6110 O   0  0  0  0  0  1  0  0  0  0  0  0
  184.2350  178.0260  146.5560 C   0  0  0  0  0  1  0  0  0  0  0  0
  187.4330  177.8830  144.7920 C   0  0  1  0  0  3  0  0  0  0  0  0
  185.4500  178.5670  145.8170 C   0  0  2  0  0  0  0  0  0  0  0  0
  187.3240  177.2930  143.5250 O   0  0  0  0  0  0  0  0  0  0  0  0
  184.9330  179.2240  144.5250 C   0  0  0  0  0  2  0  0  0  0  0  0
  187.0020  178.3370  142.6540 C   0  0  0  0  0  2  0  0  0  0  0  0
  185.5240  178.2840  142.2560 C   0  0  0  0  0  2  0  0  0  0  0  0
  184.5850  178.1910  143.4570 C   0  0  0  0  0  2  0  0  0  0  0  0
  186.3410  177.4830  145.5900 O   0  0  0  0  0  0  0  0  0  0  0  0
  186.0960  179.6540  146.6850 C   0  0  0  0  0  2  0  0  0  0  0  0
  186.5560  179.1200  147.8930 O   0  0  0  0  0  1  0  0  0  0  0  0
  1  2  2  0  0  0  0
  2 30  1  0  0  0  0
  3  1  2  0  0  0  0
  4  7  2  0  0  0  0
  5  4  1  0  0  0  0
  5 10  2  0  0  0  0
  6 11  1  0  0  0  0
  6  8  1  1  0  0  0
  7  6  1  0  0  0  0
  7  9  1  0  0  0  0
 10 12  1  0  0  0  0
 11 13  1  1  0  0  0
 12  3  1  0  0  0  0
 12  9  2  0  0  0  0
 14  4  1  0  0  0  0
 14 15  2  0  0  0  0
 15 11  1  0  0  0  0
 16 11  1  0  0  0  0
 18 17  2  0  0  0  0
 18 16  1  0  0  0  0
 19 18  1  0  0  0  0
 21 19  1  0  0  0  0
 21 20  1  0  0  0  0
 22 10  1  0  0  0  0
 23 22  1  0  0  0  0
 24 23  1  0  0  0  0
 25 24  1  1  0  0  0
 25 27  1  0  0  0  0
 27 26  2  0  0  0  0
 28 25  1  0  0  0  0
 29 28  1  0  0  0  0
 30 31  2  0  0  0  0
 31 32  1  0  0  0  0
 32 33  1  1  0  0  0
 32 34  1  0  0  0  0
 34 35  1  6  0  0  0
 34 39  1  0  0  0  0
 35 36  1  0  0  0  0
 36 38  1  0  0  0  0
 38 37  1  0  0  0  0
 39 40  1  0  0  0  0
 40 41  1  1  0  0  0
 43 40  1  1  0  0  0
 43 50  1  0  0  0  0
 44 42  1  1  0  0  0
 44 51  1  0  0  0  0
 45 43  1  0  0  0  0
 46 44  1  0  0  0  0
 47 45  1  0  0  0  0
 48 47  1  0  0  0  0
 48 49  1  0  0  0  0
 49 46  1  0  0  0  0
 50 44  1  0  0  0  0
 51 52  1  0  0  0  0
M  END
>  <MODEL>
3

>  <REMARK>
 VINA RESULT:      -6.5      1.574      2.142
  Name = 
  21 active torsions:
  status: ('A' for Active; 'I' for Inactive)
    1  A    between atoms: C_1  and  C_30
    2  A    between atoms: C_1  and  N_38
    3  A    between atoms: C_6  and  C_28
    4  A    between atoms: C_6  and  C_36
    5  A    between atoms: N_8  and  O_45
    6  A    between atoms: N_8  and  C_49
    7  A    between atoms: C_9  and  C_14
    8  A    between atoms: C_10  and  C_21
    9  A    between atoms: C_10  and  O_47
   10  A    between atoms: O_13  and  C_36
   11  A    between atoms: O_13  and  C_37
   12  A    between atoms: C_14  and  C_32
   13  A    between atoms: C_15  and  C_29
   14  A    between atoms: C_16  and  C_42
   15  A    between atoms: C_18  and  C_25
   16  A    between atoms: N_22  and  C_42
   17  A    between atoms: C_30  and  C_32
   18  A    between atoms: C_30  and  O_47
   19  A    between atoms: C_31  and  O_45
   20  A    between atoms: C_33  and  C_40
   21  A    between atoms: C_42  and  C_49
                            x       y       z     vdW  Elec       q    Type
                         _______ _______ _______ _____ _____    ______ ____

>  <TORSDO>
F 21

$$$$
=
 OpenBabel11062413473D

 52 54  0  0  1  0  0  0  0  0999 V2000
  188.4250  177.9540  139.4180 C   0  0  0  0  0  0  0  0  0  0  0  0
  188.0160  178.0190  140.6520 C   0  0  0  0  0  3  0  0  0  0  0  0
  188.8360  177.8320  138.1830 C   0  0  0  0  0  3  0  0  0  0  0  0
  191.1630  174.4440  137.0610 C   0  0  0  0  0  0  0  0  0  0  0  0
  189.8050  174.4010  137.0240 N   0  0  0  0  0  0  0  0  0  0  0  0
  193.3160  175.6250  137.5800 C   0  0  2  0  0  3  0  0  0  0  0  0
  191.8180  175.6240  137.4390 C   0  0  0  0  0  0  0  0  0  0  0  0
  193.8190  176.9080  137.3460 O   0  0  0  0  0  1  0  0  0  0  0  0
  191.0540  176.7330  137.8040 C   0  0  0  0  0  3  0  0  0  0  0  0
  189.0410  175.4840  137.3500 C   0  0  0  0  0  0  0  0  0  0  0  0
  193.9880  174.6060  136.6290 C   0  0  2  0  0  0  0  0  0  0  0  0
  189.6560  176.6810  137.7530 C   0  0  0  0  0  0  0  0  0  0  0  0
  194.0240  175.1230  135.3420 F   0  0  0  0  0  0  0  0  0  0  0  0
  191.9260  173.2730  136.7490 N   0  0  0  0  0  0  0  0  0  0  0  0
  193.2160  173.3100  136.5870 C   0  0  0  0  0  3  0  0  0  0  0  0
  195.3150  174.3090  137.0670 O   0  0  0  0  0  0  0  0  0  0  0  0
  196.3290  173.3710  135.2230 O   0  0  0  0  0  0  0  0  0  0  0  0
  196.3910  174.1860  136.1870 C   0  0  0  0  0  0  0  0  0  0  0  0
  197.6590  174.9300  136.4370 C   0  0  0  0  0  2  0  0  0  0  0  0
  199.0750  173.1220  137.3460 C   0  0  0  0  0  1  0  0  0  0  0  0
  198.3370  174.4000  137.6870 C   0  0  0  0  0  2  0  0  0  0  0  0
  187.6500  175.3890  137.3090 O   0  0  0  0  0  0  0  0  0  0  0  0
  186.9710  175.4860  136.1110 N   0  0  0  0  0  2  0  0  0  0  0  0
  186.1580  176.7000  136.1290 C   0  0  0  0  0  2  0  0  0  0  0  0
  185.1360  176.7090  137.2710 C   0  0  1  0  0  3  0  0  0  0  0  0
  185.3290  178.6730  138.4420 O   0  0  0  0  0  0  0  0  0  0  0  0
  184.7670  178.0700  137.5760 N   0  0  0  0  0  0  0  0  0  0  0  0
  183.8970  175.8550  136.9830 C   0  0  0  0  0  2  0  0  0  0  0  0
  183.5670  174.8950  138.1180 C   0  0  0  0  0  1  0  0  0  0  0  0
  187.4930  179.2700  141.2190 C   0  0  0  0  0  3  0  0  0  0  0  0
  186.5710  179.2780  142.1320 N   0  0  0  0  0  0  0  0  0  0  0  0
  185.9760  178.0660  142.6930 C   0  0  2  0  0  3  0  0  0  0  0  0
  184.7580  177.8060  142.0560 O   0  0  0  0  0  1  0  0  0  0  0  0
  185.7540  178.2070  144.2040 C   0  0  2  0  0  3  0  0  0  0  0  0
  184.7080  179.2920  144.4800 C   0  0  0  0  0  2  0  0  0  0  0  0
  183.3560  178.7200  144.8670 C   0  0  0  0  0  2  0  0  0  0  0  0
  181.0910  178.4680  144.1210 O   0  0  0  0  0  1  0  0  0  0  0  0
  182.2500  179.2300  143.9590 C   0  0  0  0  0  2  0  0  0  0  0  0
  186.9610  178.5620  144.8320 O   0  0  0  0  0  0  0  0  0  0  0  0
  187.2270  177.5720  145.7910 C   0  0  2  0  0  3  0  0  0  0  0  0
  186.7400  177.9630  147.0400 O   0  0  0  0  0  1  0  0  0  0  0  0
  190.8110  176.3710  143.0260 C   0  0  0  0  0  1  0  0  0  0  0  0
  188.7280  177.3160  145.8770 C   0  0  1  0  0  3  0  0  0  0  0  0
  190.3100  177.2520  144.1600 C   0  0  2  0  0  0  0  0  0  0  0  0
  188.9980  176.5490  147.0190 O   0  0  0  0  0  0  0  0  0  0  0  0
  191.4800  177.4270  145.1430 C   0  0  0  0  0  2  0  0  0  0  0  0
  190.0330  177.2170  147.6790 C   0  0  0  0  0  2  0  0  0  0  0  0
  191.3670  176.4900  147.4860 C   0  0  0  0  0  2  0  0  0  0  0  0
  191.6800  176.1950  146.0210 C   0  0  0  0  0  2  0  0  0  0  0  0
  189.1710  176.6200  144.7310 O   0  0  0  0  0  0  0  0  0  0  0  0
  189.9570  178.6280  143.5790 C   0  0  0  0  0  2  0  0  0  0  0  0
  191.0100  179.5300  143.7610 O   0  0  0  0  0  1  0  0  0  0  0  0
  1  2  2  0  0  0  0
  2 30  1  0  0  0  0
  3  1  2  0  0  0  0
  4  7  2  0  0  0  0
  5  4  1  0  0  0  0
  5 10  2  0  0  0  0
  6  8  1  6  0  0  0
  7  6  1  0  0  0  0
  7  9  1  0  0  0  0
 10 12  1  0  0  0  0
 11 13  1  6  0  0  0
 11 16  1  0  0  0  0
 11  6  1  0  0  0  0
 12  9  2  0  0  0  0
 12  3  1  0  0  0  0
 14  4  1  0  0  0  0
 15 11  1  0  0  0  0
 15 14  2  0  0  0  0
 17 18  2  0  0  0  0
 18 19  1  0  0  0  0
 18 16  1  0  0  0  0
 19 21  1  0  0  0  0
 20 21  1  0  0  0  0
 22 10  1  0  0  0  0
 23 24  1  0  0  0  0
 23 22  1  0  0  0  0
 25 24  1  6  0  0  0
 25 27  1  0  0  0  0
 27 26  2  0  0  0  0
 28 25  1  0  0  0  0
 28 29  1  0  0  0  0
 30 31  2  0  0  0  0
 31 32  1  0  0  0  0
 32 33  1  6  0  0  0
 32 34  1  0  0  0  0
 34 35  1  6  0  0  0
 34 39  1  0  0  0  0
 35 36  1  0  0  0  0
 38 37  1  0  0  0  0
 38 36  1  0  0  0  0
 39 40  1  0  0  0  0
 40 41  1  1  0  0  0
 43 40  1  6  0  0  0
 43 45  1  0  0  0  0
 44 42  1  6  0  0  0
 44 50  1  0  0  0  0
 44 46  1  0  0  0  0
 45 47  1  0  0  0  0
 46 49  1  0  0  0  0
 48 47  1  0  0  0  0
 49 48  1  0  0  0  0
 50 43  1  0  0  0  0
 51 52  1  0  0  0  0
 51 44  1  0  0  0  0
M  END
>  <MODEL>
4

>  <REMARK>
 VINA RESULT:      -6.5      2.577      8.390
  Name = 
  21 active torsions:
  status: ('A' for Active; 'I' for Inactive)
    1  A    between atoms: C_1  and  C_30
    2  A    between atoms: C_1  and  N_38
    3  A    between atoms: C_6  and  C_28
    4  A    between atoms: C_6  and  C_36
    5  A    between atoms: N_8  and  O_45
    6  A    between atoms: N_8  and  C_49
    7  A    between atoms: C_9  and  C_14
    8  A    between atoms: C_10  and  C_21
    9  A    between atoms: C_10  and  O_47
   10  A    between atoms: O_13  and  C_36
   11  A    between atoms: O_13  and  C_37
   12  A    between atoms: C_14  and  C_32
   13  A    between atoms: C_15  and  C_29
   14  A    between atoms: C_16  and  C_42
   15  A    between atoms: C_18  and  C_25
   16  A    between atoms: N_22  and  C_42
   17  A    between atoms: C_30  and  C_32
   18  A    between atoms: C_30  and  O_47
   19  A    between atoms: C_31  and  O_45
   20  A    between atoms: C_33  and  C_40
   21  A    between atoms: C_42  and  C_49
                            x       y       z     vdW  Elec       q    Type
                         _______ _______ _______ _____ _____    ______ ____

>  <TORSDO>
F 21

$$$$
=
 OpenBabel11062413473D

 52 54  0  0  1  0  0  0  0  0999 V2000
  188.7340  177.9770  139.5960 C   0  0  0  0  0  0  0  0  0  0  0  0
  188.2480  178.0470  138.3910 C   0  0  0  0  0  3  0  0  0  0  0  0
  189.1740  177.8860  140.8240 C   0  0  0  0  0  3  0  0  0  0  0  0
  186.5580  178.0690  144.1820 C   0  0  0  0  0  0  0  0  0  0  0  0
  187.8970  177.9090  144.3490 N   0  0  0  0  0  0  0  0  0  0  0  0
  184.5300  178.2810  142.7180 C   0  0  2  0  0  3  0  0  0  0  0  0
  186.0230  178.2120  142.8950 C   0  0  0  0  0  0  0  0  0  0  0  0
  184.2160  179.0080  141.5660 O   0  0  0  0  0  1  0  0  0  0  0  0
  186.8820  178.1540  141.7970 C   0  0  0  0  0  3  0  0  0  0  0  0
  188.7570  177.8770  143.2890 C   0  0  0  0  0  0  0  0  0  0  0  0
  183.8300  178.9020  143.9490 C   0  0  2  0  0  0  0  0  0  0  0  0
  188.2610  177.9970  141.9790 C   0  0  0  0  0  0  0  0  0  0  0  0
  183.9810  180.2810  143.9250 F   0  0  0  0  0  0  0  0  0  0  0  0
  185.6880  178.0570  145.3200 N   0  0  0  0  0  0  0  0  0  0  0  0
  184.4340  178.3920  145.2350 C   0  0  0  0  0  3  0  0  0  0  0  0
  182.4410  178.5700  143.9580 O   0  0  0  0  0  0  0  0  0  0  0  0
  181.0130  180.2790  143.3680 O   0  0  0  0  0  0  0  0  0  0  0  0
  181.5180  179.1550  143.0900 C   0  0  0  0  0  0  0  0  0  0  0  0
  181.0380  178.4130  141.8880 C   0  0  0  0  0  2  0  0  0  0  0  0
  180.9860  178.7150  139.4370 C   0  0  0  0  0  1  0  0  0  0  0  0
  180.7150  179.3850  140.7690 C   0  0  0  0  0  2  0  0  0  0  0  0
  190.1220  177.6980  143.5080 O   0  0  0  0  0  0  0  0  0  0  0  0
  190.5770  176.7080  144.3550 N   0  0  0  0  0  2  0  0  0  0  0  0
  191.1940  177.3350  145.5220 C   0  0  0  0  0  2  0  0  0  0  0  0
  190.9880  176.5250  146.8060 C   0  0  1  0  0  3  0  0  0  0  0  0
  192.6830  176.0700  148.2850 O   0  0  0  0  0  0  0  0  0  0  0  0
  191.9860  176.9000  147.7780 N   0  0  0  0  0  0  0  0  0  0  0  0
  189.5760  176.6590  147.3880 C   0  0  0  0  0  2  0  0  0  0  0  0
  189.3310  178.0180  148.0300 C   0  0  0  0  0  1  0  0  0  0  0  0
  189.1170  178.2740  137.2280 C   0  0  0  0  0  3  0  0  0  0  0  0
  188.8390  177.7880  136.0570 N   0  0  0  0  0  0  0  0  0  0  0  0
  187.6480  176.9890  135.7740 C   0  0  2  0  0  3  0  0  0  0  0  0
  186.5820  177.4450  136.5560 O   0  0  0  0  0  1  0  0  0  0  0  0
  187.9000  175.5020  136.0530 C   0  0  2  0  0  3  0  0  0  0  0  0
  189.0540  174.9950  135.1820 C   0  0  0  0  0  2  0  0  0  0  0  0
  190.1380  174.3000  135.9880 C   0  0  0  0  0  2  0  0  0  0  0  0
  191.4130  174.5760  138.0000 O   0  0  0  0  0  1  0  0  0  0  0  0
  190.1530  174.7730  137.4320 C   0  0  0  0  0  2  0  0  0  0  0  0
  186.7430  174.7600  135.7600 O   0  0  0  0  0  0  0  0  0  0  0  0
  186.3130  174.1840  136.9660 C   0  0  2  0  0  3  0  0  0  0  0  0
  187.1600  173.1370  137.3330 O   0  0  0  0  0  1  0  0  0  0  0  0
  181.9650  175.2690  138.3270 C   0  0  0  0  0  1  0  0  0  0  0  0
  184.8840  173.6690  136.8190 C   0  0  1  0  0  3  0  0  0  0  0  0
  182.8710  174.7870  137.2040 C   0  0  2  0  0  0  0  0  0  0  0  0
  184.8800  172.2760  136.9830 O   0  0  0  0  0  0  0  0  0  0  0  0
  182.0680  173.7570  136.3910 C   0  0  0  0  0  2  0  0  0  0  0  0
  184.1650  171.7760  135.8910 C   0  0  0  0  0  2  0  0  0  0  0  0
  182.7620  171.3290  136.3130 C   0  0  0  0  0  2  0  0  0  0  0  0
  182.0020  172.4020  137.0900 C   0  0  0  0  0  2  0  0  0  0  0  0
  184.0510  174.2570  137.7940 O   0  0  0  0  0  0  0  0  0  0  0  0
  183.1850  175.9810  136.2940 C   0  0  0  0  0  2  0  0  0  0  0  0
  183.3850  177.1430  137.0460 O   0  0  0  0  0  1  0  0  0  0  0  0
  1  3  2  0  0  0  0
  2  1  2  0  0  0  0
  3 12  1  0  0  0  0
  4  5  1  0  0  0  0
  4 14  1  0  0  0  0
  6  8  1  6  0  0  0
  6  7  1  0  0  0  0
  6 11  1  0  0  0  0
  7  4  2  0  0  0  0
  9 12  2  0  0  0  0
  9  7  1  0  0  0  0
 10 22  1  0  0  0  0
 10  5  2  0  0  0  0
 11 13  1  6  0  0  0
 11 16  1  0  0  0  0
 11 15  1  0  0  0  0
 12 10  1  0  0  0  0
 15 14  2  0  0  0  0
 18 17  2  0  0  0  0
 18 16  1  0  0  0  0
 19 18  1  0  0  0  0
 20 21  1  0  0  0  0
 21 19  1  0  0  0  0
 22 23  1  0  0  0  0
 23 24  1  0  0  0  0
 25 24  1  6  0  0  0
 25 28  1  0  0  0  0
 25 27  1  0  0  0  0
 27 26  2  0  0  0  0
 28 29  1  0  0  0  0
 30  2  1  0  0  0  0
 31 30  2  0  0  0  0
 32 34  1  0  0  0  0
 32 31  1  0  0  0  0
 32 33  1  1  0  0  0
 34 35  1  6  0  0  0
 35 36  1  0  0  0  0
 36 38  1  0  0  0  0
 38 37  1  0  0  0  0
 39 34  1  0  0  0  0
 39 40  1  0  0  0  0
 40 41  1  6  0  0  0
 43 40  1  1  0  0  0
 43 45  1  0  0  0  0
 43 50  1  0  0  0  0
 44 50  1  0  0  0  0
 44 42  1  1  0  0  0
 46 49  1  0  0  0  0
 46 44  1  0  0  0  0
 47 48  1  0  0  0  0
 47 45  1  0  0  0  0
 48 49  1  0  0  0  0
 51 52  1  0  0  0  0
 51 44  1  0  0  0  0
M  END
>  <MODEL>
5

>  <REMARK>
 VINA RESULT:      -6.2      2.907      8.308
  Name = 
  21 active torsions:
  status: ('A' for Active; 'I' for Inactive)
    1  A    between atoms: C_1  and  C_30
    2  A    between atoms: C_1  and  N_38
    3  A    between atoms: C_6  and  C_28
    4  A    between atoms: C_6  and  C_36
    5  A    between atoms: N_8  and  O_45
    6  A    between atoms: N_8  and  C_49
    7  A    between atoms: C_9  and  C_14
    8  A    between atoms: C_10  and  C_21
    9  A    between atoms: C_10  and  O_47
   10  A    between atoms: O_13  and  C_36
   11  A    between atoms: O_13  and  C_37
   12  A    between atoms: C_14  and  C_32
   13  A    between atoms: C_15  and  C_29
   14  A    between atoms: C_16  and  C_42
   15  A    between atoms: C_18  and  C_25
   16  A    between atoms: N_22  and  C_42
   17  A    between atoms: C_30  and  C_32
   18  A    between atoms: C_30  and  O_47
   19  A    between atoms: C_31  and  O_45
   20  A    between atoms: C_33  and  C_40
   21  A    between atoms: C_42  and  C_49
                            x       y       z     vdW  Elec       q    Type
                         _______ _______ _______ _____ _____    ______ ____

>  <TORSDO>
F 21

$$$$
=
 OpenBabel11062413473D

 52 54  0  0  1  0  0  0  0  0999 V2000
  186.3140  178.4460  139.7980 C   0  0  0  0  0  0  0  0  0  0  0  0
  185.1140  178.6730  140.2480 C   0  0  0  0  0  3  0  0  0  0  0  0
  187.5270  178.1810  139.3890 C   0  0  0  0  0  3  0  0  0  0  0  0
  190.5730  176.8770  142.0680 C   0  0  0  0  0  0  0  0  0  0  0  0
  190.7990  176.9360  140.7290 N   0  0  0  0  0  0  0  0  0  0  0  0
  189.0620  177.1090  144.0590 C   0  0  2  0  0  3  0  0  0  0  0  0
  189.3360  177.2800  142.5890 C   0  0  0  0  0  0  0  0  0  0  0  0
  188.1360  178.0630  144.4880 O   0  0  0  0  0  1  0  0  0  0  0  0
  188.3410  177.7090  141.7100 C   0  0  0  0  0  3  0  0  0  0  0  0
  189.8480  177.3790  139.8560 C   0  0  0  0  0  0  0  0  0  0  0  0
  190.3540  177.2000  144.9030 C   0  0  2  0  0  0  0  0  0  0  0  0
  188.5880  177.7750  140.3330 C   0  0  0  0  0  0  0  0  0  0  0  0
  190.7280  178.5290  145.0420 F   0  0  0  0  0  0  0  0  0  0  0  0
  191.5850  176.3680  142.9440 N   0  0  0  0  0  0  0  0  0  0  0  0
  191.4930  176.4660  144.2380 C   0  0  0  0  0  3  0  0  0  0  0  0
  190.1550  176.6180  146.1920 O   0  0  0  0  0  0  0  0  0  0  0  0
  191.6130  177.1420  147.8970 O   0  0  0  0  0  0  0  0  0  0  0  0
  190.4700  177.2830  147.3780 C   0  0  0  0  0  0  0  0  0  0  0  0
  189.4300  178.0720  148.0990 C   0  0  0  0  0  2  0  0  0  0  0  0
  187.0160  178.2570  147.6100 C   0  0  0  0  0  1  0  0  0  0  0  0
  188.1100  177.3260  148.0930 C   0  0  0  0  0  2  0  0  0  0  0  0
  190.1220  177.4100  138.4890 O   0  0  0  0  0  0  0  0  0  0  0  0
  190.0700  176.2570  137.7320 N   0  0  0  0  0  2  0  0  0  0  0  0
  190.9810  176.3970  136.5990 C   0  0  0  0  0  2  0  0  0  0  0  0
  192.2350  175.5280  136.7390 C   0  0  1  0  0  3  0  0  0  0  0  0
  193.5450  176.7810  138.1470 O   0  0  0  0  0  0  0  0  0  0  0  0
  192.8720  175.8020  138.0040 N   0  0  0  0  0  0  0  0  0  0  0  0
  191.9560  174.0300  136.5780 C   0  0  0  0  0  2  0  0  0  0  0  0
  193.0260  173.1580  137.2210 C   0  0  0  0  0  1  0  0  0  0  0  0
  184.1170  179.3870  139.4380 C   0  0  0  0  0  3  0  0  0  0  0  0
  183.3930  178.7800  138.5480 N   0  0  0  0  0  0  0  0  0  0  0  0
  183.4810  177.3480  138.2710 C   0  0  2  0  0  3  0  0  0  0  0  0
  184.3240  177.1340  137.1760 O   0  0  0  0  0  1  0  0  0  0  0  0
  182.0960  176.7530  137.9860 C   0  0  2  0  0  3  0  0  0  0  0  0
  181.1210  177.1400  139.1020 C   0  0  0  0  0  2  0  0  0  0  0  0
  180.3570  175.9490  139.6550 C   0  0  0  0  0  2  0  0  0  0  0  0
  179.9850  177.5670  141.3840 O   0  0  0  0  0  1  0  0  0  0  0  0
  179.5980  176.3080  140.9210 C   0  0  0  0  0  2  0  0  0  0  0  0
  182.1840  175.3520  137.9170 O   0  0  0  0  0  0  0  0  0  0  0  0
  181.9940  174.9980  136.5720 C   0  0  2  0  0  3  0  0  0  0  0  0
  180.7170  175.3710  136.1490 O   0  0  0  0  0  1  0  0  0  0  0  0
  185.3040  171.9290  135.3230 C   0  0  0  0  0  1  0  0  0  0  0  0
  182.1800  173.4940  136.3950 C   0  0  1  0  0  3  0  0  0  0  0  0
  184.1600  172.2620  136.2680 C   0  0  2  0  0  0  0  0  0  0  0  0
  181.0600  172.9670  135.7370 O   0  0  0  0  0  0  0  0  0  0  0  0
  183.4340  170.9420  136.5780 C   0  0  0  0  0  2  0  0  0  0  0  0
  180.6590  171.8700  136.5050 C   0  0  0  0  0  2  0  0  0  0  0  0
  181.0530  170.5540  135.8290 C   0  0  0  0  0  2  0  0  0  0  0  0
  182.5270  170.5040  135.4310 C   0  0  0  0  0  2  0  0  0  0  0  0
  183.3370  173.2320  135.6320 O   0  0  0  0  0  0  0  0  0  0  0  0
  184.7570  172.8020  137.5750 C   0  0  0  0  0  2  0  0  0  0  0  0
  185.5490  173.9290  137.3320 O   0  0  0  0  0  1  0  0  0  0  0  0
  1  2  2  0  0  0  0
  3  1  2  0  0  0  0
  3 12  1  0  0  0  0
  4  7  2  0  0  0  0
  4 14  1  0  0  0  0
  5  4  1  0  0  0  0
  6  8  1  1  0  0  0
  6 11  1  0  0  0  0
  7  6  1  0  0  0  0
  9  7  1  0  0  0  0
 10 12  1  0  0  0  0
 10  5  2  0  0  0  0
 11 13  1  1  0  0  0
 11 16  1  0  0  0  0
 12  9  2  0  0  0  0
 14 15  2  0  0  0  0
 15 11  1  0  0  0  0
 16 18  1  0  0  0  0
 18 17  2  0  0  0  0
 18 19  1  0  0  0  0
 20 21  1  0  0  0  0
 21 19  1  0  0  0  0
 22 10  1  0  0  0  0
 23 22  1  0  0  0  0
 24 25  1  0  0  0  0
 24 23  1  0  0  0  0
 25 28  1  1  0  0  0
 25 27  1  0  0  0  0
 27 26  2  0  0  0  0
 28 29  1  0  0  0  0
 30  2  1  0  0  0  0
 31 30  2  0  0  0  0
 32 33  1  6  0  0  0
 32 31  1  0  0  0  0
 34 32  1  0  0  0  0
 34 35  1  1  0  0  0
 35 36  1  0  0  0  0
 36 38  1  0  0  0  0
 38 37  1  0  0  0  0
 39 34  1  0  0  0  0
 40 41  1  1  0  0  0
 40 39  1  0  0  0  0
 43 40  1  6  0  0  0
 44 42  1  6  0  0  0
 44 46  1  0  0  0  0
 44 51  1  0  0  0  0
 45 43  1  0  0  0  0
 45 47  1  0  0  0  0
 48 47  1  0  0  0  0
 49 48  1  0  0  0  0
 49 46  1  0  0  0  0
 50 44  1  0  0  0  0
 50 43  1  0  0  0  0
 52 51  1  0  0  0  0
M  END
>  <MODEL>
6

>  <REMARK>
 VINA RESULT:      -6.0      3.163      9.383
  Name = 
  21 active torsions:
  status: ('A' for Active; 'I' for Inactive)
    1  A    between atoms: C_1  and  C_30
    2  A    between atoms: C_1  and  N_38
    3  A    between atoms: C_6  and  C_28
    4  A    between atoms: C_6  and  C_36
    5  A    between atoms: N_8  and  O_45
    6  A    between atoms: N_8  and  C_49
    7  A    between atoms: C_9  and  C_14
    8  A    between atoms: C_10  and  C_21
    9  A    between atoms: C_10  and  O_47
   10  A    between atoms: O_13  and  C_36
   11  A    between atoms: O_13  and  C_37
   12  A    between atoms: C_14  and  C_32
   13  A    between atoms: C_15  and  C_29
   14  A    between atoms: C_16  and  C_42
   15  A    between atoms: C_18  and  C_25
   16  A    between atoms: N_22  and  C_42
   17  A    between atoms: C_30  and  C_32
   18  A    between atoms: C_30  and  O_47
   19  A    between atoms: C_31  and  O_45
   20  A    between atoms: C_33  and  C_40
   21  A    between atoms: C_42  and  C_49
                            x       y       z     vdW  Elec       q    Type
                         _______ _______ _______ _____ _____    ______ ____

>  <TORSDO>
F 21

$$$$
=
 OpenBabel11062413473D

 52 54  0  0  1  0  0  0  0  0999 V2000
  187.2910  177.1980  137.5220 C   0  0  0  0  0  0  0  0  0  0  0  0
  186.5110  176.3100  136.9760 C   0  0  0  0  0  3  0  0  0  0  0  0
  188.1070  178.0470  138.0890 C   0  0  0  0  0  3  0  0  0  0  0  0
  190.3120  176.8840  141.5440 C   0  0  0  0  0  0  0  0  0  0  0  0
  190.9030  176.9280  140.3210 N   0  0  0  0  0  0  0  0  0  0  0  0
  188.2980  177.1010  143.0260 C   0  0  2  0  0  3  0  0  0  0  0  0
  188.9690  177.2570  141.6890 C   0  0  0  0  0  0  0  0  0  0  0  0
  187.2640  178.0330  143.1560 O   0  0  0  0  0  1  0  0  0  0  0  0
  188.2500  177.6400  140.5560 C   0  0  0  0  0  3  0  0  0  0  0  0
  190.2240  177.3260  139.2070 C   0  0  0  0  0  0  0  0  0  0  0  0
  189.2990  177.2470  144.1960 C   0  0  2  0  0  0  0  0  0  0  0  0
  188.8700  177.6910  139.3020 C   0  0  0  0  0  0  0  0  0  0  0  0
  189.5840  178.5890  144.4020 F   0  0  0  0  0  0  0  0  0  0  0  0
  191.0510  176.4220  142.6810 N   0  0  0  0  0  0  0  0  0  0  0  0
  190.5970  176.5380  143.8940 C   0  0  0  0  0  3  0  0  0  0  0  0
  188.7610  176.6800  145.3920 O   0  0  0  0  0  0  0  0  0  0  0  0
  189.9290  177.1230  147.3280 O   0  0  0  0  0  0  0  0  0  0  0  0
  188.8830  177.2930  146.6400 C   0  0  0  0  0  0  0  0  0  0  0  0
  187.7420  178.0590  147.2190 C   0  0  0  0  0  2  0  0  0  0  0  0
  185.3430  178.6100  147.0100 C   0  0  0  0  0  1  0  0  0  0  0  0
  186.4800  177.8030  146.4160 C   0  0  0  0  0  2  0  0  0  0  0  0
  190.8690  177.3440  137.9710 O   0  0  0  0  0  0  0  0  0  0  0  0
  191.5920  176.2510  137.5360 N   0  0  0  0  0  2  0  0  0  0  0  0
  190.7000  175.3630  136.7930 C   0  0  0  0  0  2  0  0  0  0  0  0
  191.4450  174.5040  135.7660 C   0  0  1  0  0  3  0  0  0  0  0  0
  192.3990  176.2300  134.5940 O   0  0  0  0  0  0  0  0  0  0  0  0
  192.5700  175.2420  135.2450 N   0  0  0  0  0  0  0  0  0  0  0  0
  191.8880  173.1450  136.3200 C   0  0  0  0  0  2  0  0  0  0  0  0
  193.2790  172.7420  135.8490 C   0  0  0  0  0  1  0  0  0  0  0  0
  185.4920  176.6920  135.9890 C   0  0  0  0  0  3  0  0  0  0  0  0
  184.5040  175.9080  135.6830 N   0  0  0  0  0  0  0  0  0  0  0  0
  184.2970  174.5930  136.2870 C   0  0  2  0  0  3  0  0  0  0  0  0
  184.7690  173.6010  135.4210 O   0  0  0  0  0  1  0  0  0  0  0  0
  182.8120  174.3530  136.5940 C   0  0  2  0  0  3  0  0  0  0  0  0
  182.1090  173.7850  135.3570 C   0  0  0  0  0  2  0  0  0  0  0  0
  180.6840  173.3440  135.6430 C   0  0  0  0  0  2  0  0  0  0  0  0
  179.9620  171.3240  136.7120 O   0  0  0  0  0  1  0  0  0  0  0  0
  180.5340  171.8350  135.5460 C   0  0  0  0  0  2  0  0  0  0  0  0
  182.1990  175.5650  136.9570 O   0  0  0  0  0  0  0  0  0  0  0  0
  182.1030  175.5680  138.3570 C   0  0  2  0  0  3  0  0  0  0  0  0
  181.1380  174.6520  138.7800 O   0  0  0  0  0  1  0  0  0  0  0  0
  183.3560  178.6080  141.6930 C   0  0  0  0  0  1  0  0  0  0  0  0
  181.7440  176.9660  138.8540 C   0  0  1  0  0  3  0  0  0  0  0  0
  182.9670  178.3940  140.2380 C   0  0  2  0  0  0  0  0  0  0  0  0
  180.3490  177.1010  138.8740 O   0  0  0  0  0  0  0  0  0  0  0  0
  182.1440  179.6210  139.8080 C   0  0  0  0  0  2  0  0  0  0  0  0
  180.0810  178.2990  138.2060 C   0  0  0  0  0  2  0  0  0  0  0  0
  179.7030  179.4050  139.1960 C   0  0  0  0  0  2  0  0  0  0  0  0
  180.7120  179.5610  140.3320 C   0  0  0  0  0  2  0  0  0  0  0  0
  182.2530  177.1670  140.1540 O   0  0  0  0  0  0  0  0  0  0  0  0
  184.2510  178.3560  139.3980 C   0  0  0  0  0  2  0  0  0  0  0  0
  184.8250  179.6280  139.3070 O   0  0  0  0  0  1  0  0  0  0  0  0
  1  3  2  0  0  0  0
  2  1  2  0  0  0  0
  3 12  1  0  0  0  0
  4  7  2  0  0  0  0
  4 14  1  0  0  0  0
  5  4  1  0  0  0  0
  6  8  1  1  0  0  0
  6 11  1  0  0  0  0
  7  6  1  0  0  0  0
  9  7  1  0  0  0  0
 10 12  1  0  0  0  0
 10  5  2  0  0  0  0
 11 13  1  1  0  0  0
 11 16  1  0  0  0  0
 12  9  2  0  0  0  0
 14 15  2  0  0  0  0
 15 11  1  0  0  0  0
 16 18  1  0  0  0  0
 18 19  1  0  0  0  0
 18 17  2  0  0  0  0
 21 20  1  0  0  0  0
 21 19  1  0  0  0  0
 22 10  1  0  0  0  0
 23 22  1  0  0  0  0
 24 23  1  0  0  0  0
 25 28  1  1  0  0  0
 25 24  1  0  0  0  0
 26 27  2  0  0  0  0
 27 25  1  0  0  0  0
 29 28  1  0  0  0  0
 30  2  1  0  0  0  0
 31 30  2  0  0  0  0
 31 32  1  0  0  0  0
 32 33  1  6  0  0  0
 32 34  1  0  0  0  0
 34 35  1  6  0  0  0
 34 39  1  0  0  0  0
 35 36  1  0  0  0  0
 38 36  1  0  0  0  0
 38 37  1  0  0  0  0
 39 40  1  0  0  0  0
 40 41  1  6  0  0  0
 43 40  1  1  0  0  0
 43 45  1  0  0  0  0
 43 50  1  0  0  0  0
 44 42  1  1  0  0  0
 46 44  1  0  0  0  0
 46 49  1  0  0  0  0
 47 45  1  0  0  0  0
 47 48  1  0  0  0  0
 48 49  1  0  0  0  0
 50 44  1  0  0  0  0
 51 44  1  0  0  0  0
 52 51  1  0  0  0  0
M  END
>  <MODEL>
7

>  <REMARK>
 VINA RESULT:      -5.9      2.657      8.531
  Name = 
  21 active torsions:
  status: ('A' for Active; 'I' for Inactive)
    1  A    between atoms: C_1  and  C_30
    2  A    between atoms: C_1  and  N_38
    3  A    between atoms: C_6  and  C_28
    4  A    between atoms: C_6  and  C_36
    5  A    between atoms: N_8  and  O_45
    6  A    between atoms: N_8  and  C_49
    7  A    between atoms: C_9  and  C_14
    8  A    between atoms: C_10  and  C_21
    9  A    between atoms: C_10  and  O_47
   10  A    between atoms: O_13  and  C_36
   11  A    between atoms: O_13  and  C_37
   12  A    between atoms: C_14  and  C_32
   13  A    between atoms: C_15  and  C_29
   14  A    between atoms: C_16  and  C_42
   15  A    between atoms: C_18  and  C_25
   16  A    between atoms: N_22  and  C_42
   17  A    between atoms: C_30  and  C_32
   18  A    between atoms: C_30  and  O_47
   19  A    between atoms: C_31  and  O_45
   20  A    between atoms: C_33  and  C_40
   21  A    between atoms: C_42  and  C_49
                            x       y       z     vdW  Elec       q    Type
                         _______ _______ _______ _____ _____    ______ ____

>  <TORSDO>
F 21

$$$$
=
 OpenBabel11062413473D

 52 54  0  0  1  0  0  0  0  0999 V2000
  183.1150  177.9260  139.1710 C   0  0  0  0  0  0  0  0  0  0  0  0
  183.9680  177.7080  138.2130 C   0  0  0  0  0  3  0  0  0  0  0  0
  182.2970  178.1730  140.1610 C   0  0  0  0  0  3  0  0  0  0  0  0
  183.7090  178.9010  144.1140 C   0  0  0  0  0  0  0  0  0  0  0  0
  182.3970  179.0670  143.8000 N   0  0  0  0  0  0  0  0  0  0  0  0
  186.0780  178.3760  143.4730 C   0  0  2  0  0  3  0  0  0  0  0  0
  184.6120  178.4520  143.1410 C   0  0  0  0  0  0  0  0  0  0  0  0
  186.6950  177.3900  142.6970 O   0  0  0  0  0  1  0  0  0  0  0  0
  184.1470  178.2120  141.8480 C   0  0  0  0  0  3  0  0  0  0  0  0
  181.9180  178.8110  142.5480 C   0  0  0  0  0  0  0  0  0  0  0  0
  186.3180  178.1000  144.9760 C   0  0  2  0  0  0  0  0  0  0  0  0
  182.7920  178.3770  141.5370 C   0  0  0  0  0  0  0  0  0  0  0  0
  186.1010  176.7560  145.2440 F   0  0  0  0  0  0  0  0  0  0  0  0
  184.1770  179.2200  145.4300 N   0  0  0  0  0  0  0  0  0  0  0  0
  185.3710  178.9030  145.8350 C   0  0  0  0  0  3  0  0  0  0  0  0
  187.6510  178.4570  145.3460 O   0  0  0  0  0  0  0  0  0  0  0  0
  189.4450  177.2160  144.6020 O   0  0  0  0  0  0  0  0  0  0  0  0
  188.6580  177.5120  145.5460 C   0  0  0  0  0  0  0  0  0  0  0  0
  188.7460  176.7650  146.8330 C   0  0  0  0  0  2  0  0  0  0  0  0
  189.0080  178.2570  148.7840 C   0  0  0  0  0  1  0  0  0  0  0  0
  189.7510  177.4290  147.7550 C   0  0  0  0  0  2  0  0  0  0  0  0
  180.5660  179.0080  142.2690 O   0  0  0  0  0  0  0  0  0  0  0  0
  180.1020  180.2420  141.8610 N   0  0  0  0  0  2  0  0  0  0  0  0
  178.9860  180.0430  140.9380 C   0  0  0  0  0  2  0  0  0  0  0  0
  179.2580  180.6290  139.5480 C   0  0  1  0  0  3  0  0  0  0  0  0
  180.7280  182.1560  138.6690 O   0  0  0  0  0  0  0  0  0  0  0  0
  180.4300  181.4690  139.6010 N   0  0  0  0  0  0  0  0  0  0  0  0
  179.3940  179.5630  138.4560 C   0  0  0  0  0  2  0  0  0  0  0  0
  179.3360  180.1480  137.0520 C   0  0  0  0  0  1  0  0  0  0  0  0
  183.5380  177.1770  136.9120 C   0  0  0  0  0  3  0  0  0  0  0  0
  184.3730  176.9880  135.9370 N   0  0  0  0  0  0  0  0  0  0  0  0
  185.8050  177.2650  136.0320 C   0  0  2  0  0  3  0  0  0  0  0  0
  186.1660  178.2010  135.0580 O   0  0  0  0  0  1  0  0  0  0  0  0
  186.6300  175.9830  135.8520 C   0  0  2  0  0  3  0  0  0  0  0  0
  186.7690  175.2590  137.1950 C   0  0  0  0  0  2  0  0  0  0  0  0
  186.3010  173.8160  137.1360 C   0  0  0  0  0  2  0  0  0  0  0  0
  184.0010  173.5740  136.5010 O   0  0  0  0  0  1  0  0  0  0  0  0
  184.8600  173.6750  137.5980 C   0  0  0  0  0  2  0  0  0  0  0  0
  187.9100  176.3050  135.3670 O   0  0  0  0  0  0  0  0  0  0  0  0
  188.6980  176.6290  136.4820 C   0  0  2  0  0  3  0  0  0  0  0  0
  189.0980  177.9660  136.4220 O   0  0  0  0  0  1  0  0  0  0  0  0
  193.1800  176.7600  137.8330 C   0  0  0  0  0  1  0  0  0  0  0  0
  189.9240  175.7230  136.5380 C   0  0  1  0  0  3  0  0  0  0  0  0
  191.8800  175.9720  137.7880 C   0  0  2  0  0  0  0  0  0  0  0  0
  190.0240  175.0120  135.3340 O   0  0  0  0  0  0  0  0  0  0  0  0
  192.2590  174.4910  137.6090 C   0  0  0  0  0  2  0  0  0  0  0  0
  190.1930  173.6750  135.7040 C   0  0  0  0  0  2  0  0  0  0  0  0
  191.6450  173.2310  135.5080 C   0  0  0  0  0  2  0  0  0  0  0  0
  192.6510  174.1700  136.1700 C   0  0  0  0  0  2  0  0  0  0  0  0
  191.0910  176.4930  136.7260 O   0  0  0  0  0  0  0  0  0  0  0  0
  191.1760  176.1290  139.1420 C   0  0  0  0  0  2  0  0  0  0  0  0
  190.9900  177.4800  139.4530 O   0  0  0  0  0  1  0  0  0  0  0  0
  1  3  2  0  0  0  0
  2  1  2  0  0  0  0
  3 12  1  0  0  0  0
  4 14  1  0  0  0  0
  5  4  1  0  0  0  0
  6  8  1  6  0  0  0
  6 11  1  0  0  0  0
  7  6  1  0  0  0  0
  7  4  2  0  0  0  0
  9  7  1  0  0  0  0
 10  5  2  0  0  0  0
 11 13  1  1  0  0  0
 11 16  1  0  0  0  0
 11 15  1  0  0  0  0
 12  9  2  0  0  0  0
 12 10  1  0  0  0  0
 14 15  2  0  0  0  0
 16 18  1  0  0  0  0
 17 18  2  0  0  0  0
 18 19  1  0  0  0  0
 19 21  1  0  0  0  0
 21 20  1  0  0  0  0
 22 10  1  0  0  0  0
 23 22  1  0  0  0  0
 24 23  1  0  0  0  0
 25 28  1  6  0  0  0
 25 27  1  0  0  0  0
 25 24  1  0  0  0  0
 26 27  2  0  0  0  0
 29 28  1  0  0  0  0
 30  2  1  0  0  0  0
 31 32  1  0  0  0  0
 31 30  2  0  0  0  0
 32 33  1  6  0  0  0
 34 32  1  0  0  0  0
 34 35  1  1  0  0  0
 36 35  1  0  0  0  0
 36 38  1  0  0  0  0
 37 38  1  0  0  0  0
 39 34  1  0  0  0  0
 39 40  1  0  0  0  0
 40 41  1  6  0  0  0
 43 40  1  6  0  0  0
 43 50  1  0  0  0  0
 44 42  1  1  0  0  0
 44 51  1  0  0  0  0
 45 47  1  0  0  0  0
 45 43  1  0  0  0  0
 46 44  1  0  0  0  0
 48 47  1  0  0  0  0
 48 49  1  0  0  0  0
 49 46  1  0  0  0  0
 50 44  1  0  0  0  0
 51 52  1  0  0  0  0
M  END
>  <MODEL>
8

>  <REMARK>
 VINA RESULT:      -5.9      3.510     10.629
  Name = 
  21 active torsions:
  status: ('A' for Active; 'I' for Inactive)
    1  A    between atoms: C_1  and  C_30
    2  A    between atoms: C_1  and  N_38
    3  A    between atoms: C_6  and  C_28
    4  A    between atoms: C_6  and  C_36
    5  A    between atoms: N_8  and  O_45
    6  A    between atoms: N_8  and  C_49
    7  A    between atoms: C_9  and  C_14
    8  A    between atoms: C_10  and  C_21
    9  A    between atoms: C_10  and  O_47
   10  A    between atoms: O_13  and  C_36
   11  A    between atoms: O_13  and  C_37
   12  A    between atoms: C_14  and  C_32
   13  A    between atoms: C_15  and  C_29
   14  A    between atoms: C_16  and  C_42
   15  A    between atoms: C_18  and  C_25
   16  A    between atoms: N_22  and  C_42
   17  A    between atoms: C_30  and  C_32
   18  A    between atoms: C_30  and  O_47
   19  A    between atoms: C_31  and  O_45
   20  A    between atoms: C_33  and  C_40
   21  A    between atoms: C_42  and  C_49
                            x       y       z     vdW  Elec       q    Type
                         _______ _______ _______ _____ _____    ______ ____

>  <TORSDO>
F 21

$$$$
=
 OpenBabel11062413473D

 52 54  0  0  1  0  0  0  0  0999 V2000
  184.2360  178.7700  142.6890 C   0  0  0  0  0  0  0  0  0  0  0  0
  183.0770  178.6360  142.1110 C   0  0  0  0  0  3  0  0  0  0  0  0
  185.4240  178.8990  143.2200 C   0  0  0  0  0  3  0  0  0  0  0  0
  188.9130  177.0510  141.6190 C   0  0  0  0  0  0  0  0  0  0  0  0
  188.5260  176.8190  142.9010 N   0  0  0  0  0  0  0  0  0  0  0  0
  188.6380  178.2130  139.4110 C   0  0  2  0  0  3  0  0  0  0  0  0
  188.1430  177.8790  140.7920 C   0  0  0  0  0  0  0  0  0  0  0  0
  187.5580  178.4830  138.5660 O   0  0  0  0  0  1  0  0  0  0  0  0
  186.9990  178.4820  141.3180 C   0  0  0  0  0  3  0  0  0  0  0  0
  187.3960  177.3770  143.4250 C   0  0  0  0  0  0  0  0  0  0  0  0
  189.5090  177.0800  138.8200 C   0  0  2  0  0  0  0  0  0  0  0  0
  186.6040  178.2290  142.6380 C   0  0  0  0  0  0  0  0  0  0  0  0
  188.6940  176.0510  138.3700 F   0  0  0  0  0  0  0  0  0  0  0  0
  190.1270  176.4760  141.1210 N   0  0  0  0  0  0  0  0  0  0  0  0
  190.4420  176.5100  139.8600 C   0  0  0  0  0  3  0  0  0  0  0  0
  190.3060  177.5700  137.7400 O   0  0  0  0  0  0  0  0  0  0  0  0
  192.1080  176.4230  136.8750 O   0  0  0  0  0  0  0  0  0  0  0  0
  190.8860  176.7300  136.7870 C   0  0  0  0  0  0  0  0  0  0  0  0
  190.1000  176.2800  135.6030 C   0  0  0  0  0  2  0  0  0  0  0  0
  188.0830  177.4830  134.8370 C   0  0  0  0  0  1  0  0  0  0  0  0
  189.5980  177.4800  134.8220 C   0  0  0  0  0  2  0  0  0  0  0  0
  187.0460  177.1200  144.7500 O   0  0  0  0  0  0  0  0  0  0  0  0
  187.6870  177.7670  145.7870 N   0  0  0  0  0  2  0  0  0  0  0  0
  189.0710  177.3010  145.8490 C   0  0  0  0  0  2  0  0  0  0  0  0
  189.5190  176.9710  147.2760 C   0  0  1  0  0  3  0  0  0  0  0  0
  191.7590  177.0390  147.7730 O   0  0  0  0  0  0  0  0  0  0  0  0
  190.8620  176.4450  147.2490 N   0  0  0  0  0  0  0  0  0  0  0  0
  189.4140  178.1610  148.2360 C   0  0  0  0  0  2  0  0  0  0  0  0
  188.0520  178.2530  148.9120 C   0  0  0  0  0  1  0  0  0  0  0  0
  181.8310  178.9890  142.8060 C   0  0  0  0  0  3  0  0  0  0  0  0
  180.6860  179.0020  142.1960 N   0  0  0  0  0  0  0  0  0  0  0  0
  180.5150  178.6620  140.7850 C   0  0  2  0  0  3  0  0  0  0  0  0
  180.7670  177.2990  140.5990 O   0  0  0  0  0  1  0  0  0  0  0  0
  181.4530  179.4910  139.8970 C   0  0  2  0  0  3  0  0  0  0  0  0
  180.8080  180.8420  139.5750 C   0  0  0  0  0  2  0  0  0  0  0  0
  181.3760  181.4790  138.3180 C   0  0  0  0  0  2  0  0  0  0  0  0
  179.4790  180.7460  137.0470 O   0  0  0  0  0  1  0  0  0  0  0  0
  180.2790  181.8530  137.3350 C   0  0  0  0  0  2  0  0  0  0  0  0
  181.7050  178.8020  138.6980 O   0  0  0  0  0  0  0  0  0  0  0  0
  182.9860  178.2410  138.8120 C   0  0  2  0  0  3  0  0  0  0  0  0
  183.9630  179.2290  138.6730 O   0  0  0  0  0  1  0  0  0  0  0  0
  181.2610  174.0600  137.5970 C   0  0  0  0  0  1  0  0  0  0  0  0
  183.1830  177.1650  137.7490 C   0  0  1  0  0  3  0  0  0  0  0  0
  181.7530  175.4240  137.1370 C   0  0  2  0  0  0  0  0  0  0  0  0
  184.5560  176.9580  137.5540 O   0  0  0  0  0  0  0  0  0  0  0  0
  182.4810  175.2100  135.7980 C   0  0  0  0  0  2  0  0  0  0  0  0
  184.7490  177.0220  136.1710 C   0  0  0  0  0  2  0  0  0  0  0  0
  184.9630  175.6250  135.5830 C   0  0  0  0  0  2  0  0  0  0  0  0
  183.8790  174.6310  135.9940 C   0  0  0  0  0  2  0  0  0  0  0  0
  182.5830  175.9560  138.1620 O   0  0  0  0  0  0  0  0  0  0  0  0
  180.5300  176.3150  136.8830 C   0  0  0  0  0  2  0  0  0  0  0  0
  180.4940  176.7460  135.5530 O   0  0  0  0  0  1  0  0  0  0  0  0
  1  3  2  0  0  0  0
  2  1  2  0  0  0  0
  2 30  1  0  0  0  0
  4  5  1  0  0  0  0
  5 10  2  0  0  0  0
  6  8  1  6  0  0  0
  6  7  1  0  0  0  0
  7  9  1  0  0  0  0
  7  4  2  0  0  0  0
  9 12  2  0  0  0  0
 10 22  1  0  0  0  0
 11 13  1  6  0  0  0
 11  6  1  0  0  0  0
 11 15  1  0  0  0  0
 12  3  1  0  0  0  0
 12 10  1  0  0  0  0
 14  4  1  0  0  0  0
 15 14  2  0  0  0  0
 16 11  1  0  0  0  0
 18 17  2  0  0  0  0
 18 16  1  0  0  0  0
 19 18  1  0  0  0  0
 21 20  1  0  0  0  0
 21 19  1  0  0  0  0
 22 23  1  0  0  0  0
 23 24  1  0  0  0  0
 25 24  1  6  0  0  0
 25 28  1  0  0  0  0
 27 25  1  0  0  0  0
 27 26  2  0  0  0  0
 28 29  1  0  0  0  0
 31 30  2  0  0  0  0
 32 33  1  1  0  0  0
 32 31  1  0  0  0  0
 34 35  1  6  0  0  0
 34 32  1  0  0  0  0
 36 35  1  0  0  0  0
 37 38  1  0  0  0  0
 38 36  1  0  0  0  0
 39 40  1  0  0  0  0
 39 34  1  0  0  0  0
 40 41  1  6  0  0  0
 43 50  1  0  0  0  0
 43 40  1  1  0  0  0
 44 42  1  1  0  0  0
 44 50  1  0  0  0  0
 45 43  1  0  0  0  0
 46 49  1  0  0  0  0
 46 44  1  0  0  0  0
 47 45  1  0  0  0  0
 48 49  1  0  0  0  0
 48 47  1  0  0  0  0
 51 44  1  0  0  0  0
 52 51  1  0  0  0  0
M  END
>  <MODEL>
9

>  <REMARK>
 VINA RESULT:      -5.8      2.729      9.393
  Name = 
  21 active torsions:
  status: ('A' for Active; 'I' for Inactive)
    1  A    between atoms: C_1  and  C_30
    2  A    between atoms: C_1  and  N_38
    3  A    between atoms: C_6  and  C_28
    4  A    between atoms: C_6  and  C_36
    5  A    between atoms: N_8  and  O_45
    6  A    between atoms: N_8  and  C_49
    7  A    between atoms: C_9  and  C_14
    8  A    between atoms: C_10  and  C_21
    9  A    between atoms: C_10  and  O_47
   10  A    between atoms: O_13  and  C_36
   11  A    between atoms: O_13  and  C_37
   12  A    between atoms: C_14  and  C_32
   13  A    between atoms: C_15  and  C_29
   14  A    between atoms: C_16  and  C_42
   15  A    between atoms: C_18  and  C_25
   16  A    between atoms: N_22  and  C_42
   17  A    between atoms: C_30  and  C_32
   18  A    between atoms: C_30  and  O_47
   19  A    between atoms: C_31  and  O_45
   20  A    between atoms: C_33  and  C_40
   21  A    between atoms: C_42  and  C_49
                            x       y       z     vdW  Elec       q    Type
                         _______ _______ _______ _____ _____    ______ ____

>  <TORSDO>
F 21

$$$$
