=
 OpenBabel11062413113D

 42 48  0  0  1  0  0  0  0  0999 V2000
  183.6160  177.3910  137.1370 N   0  0  0  0  0  0  0  0  0  0  0  0
  181.4420  178.3410  136.1880 C   0  0  2  0  0  3  0  0  0  0  0  0
  182.8960  176.9120  134.9540 O   0  0  0  0  0  0  0  0  0  0  0  0
  179.3680  178.5320  142.7460 N   0  0  0  0  0  0  0  0  0  0  0  0
  182.0880  177.9020  139.0440 C   0  0  0  0  0  0  0  0  0  0  0  0
  183.3010  177.8690  138.4710 C   0  0  0  0  0  0  0  0  0  0  0  0
  182.8940  178.8670  143.3360 N   0  0  0  0  0  0  0  0  0  0  0  0
  180.4460  178.7530  143.7020 C   0  0  0  0  0  3  0  0  0  0  0  0
  181.6940  178.6870  142.8720 C   0  0  0  0  0  0  0  0  0  0  0  0
  180.8080  178.5130  134.9550 O   0  0  0  0  0  1  0  0  0  0  0  0
  184.3170  178.1860  139.4760 C   0  0  0  0  0  3  0  0  0  0  0  0
  179.1960  178.1970  140.4380 O   0  0  0  0  0  0  0  0  0  0  0  0
  181.3820  178.4050  141.4650 C   0  0  0  0  0  0  0  0  0  0  0  0
  182.6820  177.5160  136.0420 C   0  0  0  0  0  0  0  0  0  0  0  0
  182.2810  178.2470  140.4640 C   0  0  0  0  0  0  0  0  0  0  0  0
  183.7230  178.4070  140.6370 C   0  0  0  0  0  3  0  0  0  0  0  0
  179.9220  178.3430  141.4520 C   0  0  0  0  0  0  0  0  0  0  0  0
  180.5150  177.6650  137.1350 C   0  0  0  0  0  3  0  0  0  0  0  0
  180.8160  177.4920  138.4200 C   0  0  0  0  0  3  0  0  0  0  0  0
  186.1030  177.7640  137.0070 C   0  0  1  0  0  3  0  0  0  0  0  0
  185.6400  177.3120  135.6310 C   0  0  0  0  0  2  0  0  0  0  0  0
  184.9340  176.7830  136.8660 C   0  0  2  0  0  0  0  0  0  0  0  0
  187.4240  177.0860  137.3340 C   0  0  0  0  0  1  0  0  0  0  0  0
  183.9150  174.6100  137.6980 C   0  0  0  0  0  2  0  0  0  0  0  0
  185.2920  174.2740  135.6700 S   0  0  0  0  0  0  0  0  0  0  0  0
  185.1650  175.2900  137.1740 C   0  0  1  0  0  3  0  0  0  0  0  0
  183.8190  173.6470  136.5350 C   0  0  0  0  0  2  0  0  0  0  0  0
  183.1880  179.1330  144.7390 C   0  0  0  0  0  2  0  0  0  0  0  0
  184.6930  179.1220  144.9860 C   0  0  0  0  0  2  0  0  0  0  0  0
  185.0270  178.6180  146.3860 C   0  0  0  0  0  2  0  0  0  0  0  0
  186.5150  178.7260  146.6940 C   0  0  0  0  0  2  0  0  0  0  0  0
  187.9010  177.1410  148.0810 C   0  0  0  0  0  2  0  0  0  0  0  0
  190.1580  177.4420  147.0750 C   0  0  0  0  0  2  0  0  0  0  0  0
  189.5210  177.3220  145.7130 C   0  0  1  0  0  3  0  0  0  0  0  0
  191.5830  177.3100  144.6580 O   0  0  0  0  0  0  0  0  0  0  0  0
  187.5740  176.9940  144.2960 C   0  0  0  0  0  3  0  0  0  0  0  0
  187.1850  177.3530  146.7430 C   0  0  2  0  0  3  0  0  0  0  0  0
  188.4180  176.9060  143.1890 C   0  0  0  0  0  3  0  0  0  0  0  0
  189.7630  177.0220  143.3450 N   0  0  0  0  0  0  0  0  0  0  0  0
  189.1860  177.9580  148.1310 C   0  0  0  0  0  2  0  0  0  0  0  0
  190.3300  177.2210  144.5660 C   0  0  0  0  0  0  0  0  0  0  0  0
  188.1200  177.1950  145.5690 C   0  0  0  0  0  0  0  0  0  0  0  0
  1  6  1  0  0  0  0
  2 10  1  6  0  0  0
  2 18  1  0  0  0  0
  3 14  2  0  0  0  0
  4  8  2  0  0  0  0
  5 15  1  0  0  0  0
  6  5  2  0  0  0  0
  6 11  1  0  0  0  0
  7 28  1  0  0  0  0
  9  7  2  0  0  0  0
  9  8  1  0  0  0  0
 11 16  2  0  0  0  0
 12 17  2  0  0  0  0
 13  9  1  0  0  0  0
 14  2  1  0  0  0  0
 14  1  1  0  0  0  0
 15 16  1  0  0  0  0
 15 13  2  0  0  0  0
 17 13  1  0  0  0  0
 17  4  1  0  0  0  0
 18 19  2  0  0  0  0
 19  5  1  0  0  0  0
 20 23  1  1  0  0  0
 21 20  1  0  0  0  0
 22 21  1  6  0  0  0
 22 20  1  0  0  0  0
 22  1  1  0  0  0  0
 22 26  1  0  0  0  0
 25 27  1  0  0  0  0
 25 26  1  0  0  0  0
 26 24  1  1  0  0  0
 27 24  1  0  0  0  0
 28 29  1  0  0  0  0
 29 30  1  0  0  0  0
 30 31  1  0  0  0  0
 32 40  1  0  0  0  0
 33 40  1  0  0  0  0
 34 33  1  1  0  0  0
 36 42  2  0  0  0  0
 37 31  1  1  0  0  0
 37 32  1  0  0  0  0
 38 39  2  0  0  0  0
 38 36  1  0  0  0  0
 39 41  1  0  0  0  0
 41 35  2  0  0  0  0
 41 34  1  0  0  0  0
 42 34  1  0  0  0  0
 42 37  1  0  0  0  0
M  END
>  <MODEL>
1

>  <REMARK>
 VINA RESULT:      -9.5      0.000      0.000
  Name = 
  7 active torsions:
  status: ('A' for Active; 'I' for Inactive)
    1  A    between atoms: N_1  and  C_37
    2  A    between atoms: C_13  and  C_17
    3  A    between atoms: C_13  and  C_35
    4  A    between atoms: C_15  and  N_16
    5  A    between atoms: C_15  and  C_22
    6  A    between atoms: C_22  and  C_35
    7  A    between atoms: C_26  and  C_37
                            x       y       z     vdW  Elec       q    Type
                         _______ _______ _______ _____ _____    ______ ____

>  <TORSDO>
F 7

$$$$
=
 OpenBabel11062413113D

 42 48  0  0  1  0  0  0  0  0999 V2000
  183.9530  177.4100  136.9780 N   0  0  0  0  0  0  0  0  0  0  0  0
  181.6820  178.3500  136.2810 C   0  0  2  0  0  3  0  0  0  0  0  0
  182.9720  176.8900  134.9090 O   0  0  0  0  0  0  0  0  0  0  0  0
  180.4220  178.6860  143.0370 N   0  0  0  0  0  0  0  0  0  0  0  0
  182.6690  177.9670  139.0450 C   0  0  0  0  0  0  0  0  0  0  0  0
  183.8040  177.9170  138.3310 C   0  0  0  0  0  0  0  0  0  0  0  0
  183.9940  179.0160  143.1870 N   0  0  0  0  0  0  0  0  0  0  0  0
  181.6090  178.9210  143.8500 C   0  0  0  0  0  3  0  0  0  0  0  0
  182.7460  178.8320  142.8760 C   0  0  0  0  0  0  0  0  0  0  0  0
  180.9030  178.5010  135.1310 O   0  0  0  0  0  1  0  0  0  0  0  0
  184.9350  178.2490  139.1970 C   0  0  0  0  0  3  0  0  0  0  0  0
  179.9700  178.3050  140.7750 O   0  0  0  0  0  0  0  0  0  0  0  0
  182.2650  178.5230  141.5240 C   0  0  0  0  0  0  0  0  0  0  0  0
  182.8930  177.5170  136.0020 C   0  0  0  0  0  0  0  0  0  0  0  0
  183.0350  178.3400  140.4240 C   0  0  0  0  0  0  0  0  0  0  0  0
  184.4880  178.4960  140.4170 C   0  0  0  0  0  3  0  0  0  0  0  0
  180.8140  178.4680  141.6890 C   0  0  0  0  0  0  0  0  0  0  0  0
  180.8760  177.6990  137.3480 C   0  0  0  0  0  3  0  0  0  0  0  0
  181.3310  177.5500  138.5900 C   0  0  0  0  0  3  0  0  0  0  0  0
  186.4080  177.7650  136.5500 C   0  0  1  0  0  3  0  0  0  0  0  0
  185.7840  177.2980  135.2440 C   0  0  0  0  0  2  0  0  0  0  0  0
  185.2270  176.7900  136.5610 C   0  0  2  0  0  0  0  0  0  0  0  0
  187.7560  177.0830  136.7270 C   0  0  0  0  0  1  0  0  0  0  0  0
  184.2880  174.6250  137.5010 C   0  0  0  0  0  2  0  0  0  0  0  0
  185.4780  174.2710  135.3600 S   0  0  0  0  0  0  0  0  0  0  0  0
  185.4850  175.3000  136.8600 C   0  0  1  0  0  3  0  0  0  0  0  0
  184.0890  173.6510  136.3600 C   0  0  0  0  0  2  0  0  0  0  0  0
  184.4580  179.3090  144.5370 C   0  0  0  0  0  2  0  0  0  0  0  0
  185.6790  178.4640  144.8840 C   0  0  0  0  0  2  0  0  0  0  0  0
  186.2290  177.7440  143.6570 C   0  0  0  0  0  2  0  0  0  0  0  0
  187.4810  176.9370  143.9780 C   0  0  0  0  0  2  0  0  0  0  0  0
  189.5890  177.6780  142.8120 C   0  0  0  0  0  2  0  0  0  0  0  0
  191.3150  176.3350  144.0010 C   0  0  0  0  0  2  0  0  0  0  0  0
  190.6690  176.7370  145.3050 C   0  0  1  0  0  3  0  0  0  0  0  0
  192.3670  175.7610  146.5420 O   0  0  0  0  0  0  0  0  0  0  0  0
  188.9710  177.9450  146.5540 C   0  0  0  0  0  3  0  0  0  0  0  0
  188.7200  177.8260  144.0660 C   0  0  2  0  0  3  0  0  0  0  0  0
  189.6330  177.6150  147.7360 C   0  0  0  0  0  3  0  0  0  0  0  0
  190.7720  176.8740  147.6970 N   0  0  0  0  0  0  0  0  0  0  0  0
  190.3320  176.3480  142.8350 C   0  0  0  0  0  2  0  0  0  0  0  0
  191.3030  176.4340  146.5240 C   0  0  0  0  0  0  0  0  0  0  0  0
  189.4880  177.5140  145.3270 C   0  0  0  0  0  0  0  0  0  0  0  0
  1  6  1  0  0  0  0
  2 10  1  6  0  0  0
  2 18  1  0  0  0  0
  3 14  2  0  0  0  0
  4  8  2  0  0  0  0
  5 15  1  0  0  0  0
  6  5  2  0  0  0  0
  6 11  1  0  0  0  0
  7 28  1  0  0  0  0
  9  7  2  0  0  0  0
  9  8  1  0  0  0  0
 11 16  2  0  0  0  0
 12 17  2  0  0  0  0
 13 17  1  0  0  0  0
 13  9  1  0  0  0  0
 14  2  1  0  0  0  0
 14  1  1  0  0  0  0
 15 13  2  0  0  0  0
 16 15  1  0  0  0  0
 17  4  1  0  0  0  0
 18 19  2  0  0  0  0
 19  5  1  0  0  0  0
 20 22  1  0  0  0  0
 20 23  1  6  0  0  0
 21 20  1  0  0  0  0
 22 21  1  6  0  0  0
 22 26  1  0  0  0  0
 22  1  1  0  0  0  0
 25 27  1  0  0  0  0
 25 26  1  0  0  0  0
 26 24  1  1  0  0  0
 27 24  1  0  0  0  0
 28 29  1  0  0  0  0
 30 31  1  0  0  0  0
 30 29  1  0  0  0  0
 32 40  1  0  0  0  0
 32 37  1  0  0  0  0
 34 33  1  6  0  0  0
 34 42  1  0  0  0  0
 34 41  1  0  0  0  0
 36 38  1  0  0  0  0
 37 31  1  6  0  0  0
 37 42  1  0  0  0  0
 39 38  2  0  0  0  0
 40 33  1  0  0  0  0
 41 35  2  0  0  0  0
 41 39  1  0  0  0  0
 42 36  2  0  0  0  0
M  END
>  <MODEL>
2

>  <REMARK>
 VINA RESULT:      -9.4      1.192      2.113
  Name = 
  7 active torsions:
  status: ('A' for Active; 'I' for Inactive)
    1  A    between atoms: N_1  and  C_37
    2  A    between atoms: C_13  and  C_17
    3  A    between atoms: C_13  and  C_35
    4  A    between atoms: C_15  and  N_16
    5  A    between atoms: C_15  and  C_22
    6  A    between atoms: C_22  and  C_35
    7  A    between atoms: C_26  and  C_37
                            x       y       z     vdW  Elec       q    Type
                         _______ _______ _______ _____ _____    ______ ____

>  <TORSDO>
F 7

$$$$
=
 OpenBabel11062413113D

 42 48  0  0  1  0  0  0  0  0999 V2000
  181.2580  178.0990  138.9610 N   0  0  0  0  0  0  0  0  0  0  0  0
  180.7770  176.3350  137.1780 C   0  0  2  0  0  3  0  0  0  0  0  0
  179.0880  177.7000  138.1590 O   0  0  0  0  0  0  0  0  0  0  0  0
  187.2630  177.4610  135.1740 N   0  0  0  0  0  0  0  0  0  0  0  0
  183.3400  177.7450  137.6300 C   0  0  0  0  0  0  0  0  0  0  0  0
  182.6920  177.9580  138.7860 C   0  0  1  0  0  3  0  0  0  0  0  0
  187.6580  178.3360  138.6340 N   0  0  0  0  0  0  0  0  0  0  0  0
  188.1590  177.8440  136.2570 C   0  0  0  0  0  3  0  0  0  0  0  0
  187.2530  178.0220  137.4400 C   0  0  0  0  0  0  0  0  0  0  0  0
  179.6920  175.6390  136.6370 O   0  0  0  0  0  1  0  0  0  0  0  0
  183.6670  178.2500  139.8380 C   0  0  0  0  0  3  0  0  0  0  0  0
  184.9720  177.0500  134.9380 O   0  0  0  0  0  0  0  0  0  0  0  0
  185.8510  177.7840  137.0760 C   0  0  1  0  0  3  0  0  0  0  0  0
  180.3140  177.4010  138.1200 C   0  0  0  0  0  0  0  0  0  0  0  0
  184.7810  177.8970  137.9000 C   0  0  0  0  0  0  0  0  0  0  0  0
  184.8840  178.2140  139.3220 C   0  0  0  0  0  3  0  0  0  0  0  0
  185.9290  177.4180  135.6630 C   0  0  0  0  0  0  0  0  0  0  0  0
  181.5640  176.9600  136.0810 C   0  0  0  0  0  3  0  0  0  0  0  0
  182.7230  177.5760  136.3020 C   0  0  0  0  0  3  0  0  0  0  0  0
  180.9550  178.3780  141.4450 C   0  0  1  0  0  3  0  0  0  0  0  0
  179.5690  178.3590  140.8200 C   0  0  0  0  0  2  0  0  0  0  0  0
  180.7300  178.9540  140.0440 C   0  0  2  0  0  0  0  0  0  0  0  0
  180.9930  179.4370  142.5350 C   0  0  0  0  0  1  0  0  0  0  0  0
  181.1780  180.9110  138.4880 C   0  0  0  0  0  2  0  0  0  0  0  0
  178.9990  181.1200  139.6420 S   0  0  0  0  0  0  0  0  0  0  0  0
  180.6890  180.4840  139.8580 C   0  0  1  0  0  3  0  0  0  0  0  0
  179.8520  181.5180  138.0840 C   0  0  0  0  0  2  0  0  0  0  0  0
  189.0540  178.5820  138.9770 C   0  0  0  0  0  2  0  0  0  0  0  0
  189.4360  177.8350  140.2490 C   0  0  0  0  0  2  0  0  0  0  0  0
  188.4770  178.1470  141.3930 C   0  0  0  0  0  2  0  0  0  0  0  0
  189.1750  178.1380  142.7470 C   0  0  0  0  0  2  0  0  0  0  0  0
  187.2700  176.8150  143.7340 C   0  0  0  0  0  2  0  0  0  0  0  0
  187.3370  177.5430  146.1130 C   0  0  0  0  0  2  0  0  0  0  0  0
  188.8300  177.3290  146.0930 C   0  0  1  0  0  3  0  0  0  0  0  0
  188.9990  177.7150  148.3710 O   0  0  0  0  0  0  0  0  0  0  0  0
  190.8700  176.6690  144.9490 C   0  0  0  0  0  3  0  0  0  0  0  0
  188.7910  176.9120  143.5740 C   0  0  2  0  0  3  0  0  0  0  0  0
  191.5560  176.7560  146.1590 C   0  0  0  0  0  3  0  0  0  0  0  0
  190.8970  177.1160  147.2930 N   0  0  0  0  0  0  0  0  0  0  0  0
  186.7740  177.8550  144.7310 C   0  0  0  0  0  2  0  0  0  0  0  0
  189.5650  177.3980  147.2900 C   0  0  0  0  0  0  0  0  0  0  0  0
  189.4990  176.9480  144.9060 C   0  0  0  0  0  0  0  0  0  0  0  0
  2 10  1  6  0  0  0
  2 14  1  0  0  0  0
  4 17  1  0  0  0  0
  4  8  2  0  0  0  0
  5 15  2  0  0  0  0
  5  6  1  0  0  0  0
  6  1  1  0  0  0  0
  6 11  1  6  0  0  0
  7 28  1  0  0  0  0
  8  9  1  0  0  0  0
  9  7  2  0  0  0  0
 12 17  2  0  0  0  0
 13  9  1  0  0  0  0
 13 15  1  6  0  0  0
 14  3  2  0  0  0  0
 14  1  1  0  0  0  0
 15 16  1  0  0  0  0
 16 11  2  0  0  0  0
 17 13  1  0  0  0  0
 18 19  2  0  0  0  0
 18  2  1  0  0  0  0
 19  5  1  0  0  0  0
 20 23  1  1  0  0  0
 21 20  1  0  0  0  0
 22  1  1  6  0  0  0
 22 21  1  0  0  0  0
 22 20  1  0  0  0  0
 25 26  1  0  0  0  0
 26 24  1  6  0  0  0
 26 22  1  0  0  0  0
 27 24  1  0  0  0  0
 27 25  1  0  0  0  0
 28 29  1  0  0  0  0
 29 30  1  0  0  0  0
 30 31  1  0  0  0  0
 32 40  1  0  0  0  0
 34 33  1  1  0  0  0
 34 41  1  0  0  0  0
 36 38  1  0  0  0  0
 37 31  1  1  0  0  0
 37 32  1  0  0  0  0
 37 42  1  0  0  0  0
 38 39  2  0  0  0  0
 40 33  1  0  0  0  0
 41 39  1  0  0  0  0
 41 35  2  0  0  0  0
 42 36  2  0  0  0  0
 42 34  1  0  0  0  0
M  END
>  <MODEL>
3

>  <REMARK>
 VINA RESULT:      -9.3      2.639      5.826
  Name = 
  7 active torsions:
  status: ('A' for Active; 'I' for Inactive)
    1  A    between atoms: N_1  and  C_37
    2  A    between atoms: C_13  and  C_17
    3  A    between atoms: C_13  and  C_35
    4  A    between atoms: C_15  and  N_16
    5  A    between atoms: C_15  and  C_22
    6  A    between atoms: C_22  and  C_35
    7  A    between atoms: C_26  and  C_37
                            x       y       z     vdW  Elec       q    Type
                         _______ _______ _______ _____ _____    ______ ____

>  <TORSDO>
F 7

$$$$
=
 OpenBabel11062413113D

 42 48  0  0  1  0  0  0  0  0999 V2000
  182.2230  178.5130  140.3680 N   0  0  0  0  0  0  0  0  0  0  0  0
  180.8460  180.1360  141.7800 C   0  0  2  0  0  3  0  0  0  0  0  0
  179.9640  178.9560  139.9080 O   0  0  0  0  0  0  0  0  0  0  0  0
  185.2080  178.4920  146.8410 N   0  0  0  0  0  0  0  0  0  0  0  0
  183.2480  178.6350  142.6420 C   0  0  0  0  0  0  0  0  0  0  0  0
  183.3320  178.5610  141.3050 C   0  0  0  0  0  0  0  0  0  0  0  0
  187.4210  177.9050  144.0750 N   0  0  0  0  0  0  0  0  0  0  0  0
  186.5500  178.1570  146.3810 C   0  0  0  0  0  3  0  0  0  0  0  0
  186.4320  178.1330  144.8860 C   0  0  0  0  0  0  0  0  0  0  0  0
  179.6400  180.8390  141.7170 O   0  0  0  0  0  1  0  0  0  0  0  0
  184.7220  178.3100  140.9220 C   0  0  0  0  0  3  0  0  0  0  0  0
  183.1560  179.0020  145.8430 O   0  0  0  0  0  0  0  0  0  0  0  0
  185.0560  178.4140  144.4570 C   0  0  0  0  0  0  0  0  0  0  0  0
  180.9720  179.1830  140.6340 C   0  0  0  0  0  0  0  0  0  0  0  0
  184.6050  178.4310  143.1790 C   0  0  0  0  0  0  0  0  0  0  0  0
  185.4640  178.2350  142.0140 C   0  0  0  0  0  3  0  0  0  0  0  0
  184.3540  178.6480  145.7170 C   0  0  0  0  0  0  0  0  0  0  0  0
  180.9130  179.3760  143.0570 C   0  0  0  0  0  3  0  0  0  0  0  0
  182.0080  178.7200  143.4350 C   0  0  0  0  0  3  0  0  0  0  0  0
  183.4790  178.3420  138.1930 C   0  0  1  0  0  3  0  0  0  0  0  0
  182.0180  178.5910  137.8530 C   0  0  0  0  0  2  0  0  0  0  0  0
  182.3700  177.7860  139.0910 C   0  0  2  0  0  0  0  0  0  0  0  0
  184.0450  177.3150  137.2250 C   0  0  0  0  0  1  0  0  0  0  0  0
  181.3550  175.7880  140.2870 C   0  0  0  0  0  2  0  0  0  0  0  0
  180.6230  175.9290  137.9270 S   0  0  0  0  0  0  0  0  0  0  0  0
  182.0310  176.2830  139.0240 C   0  0  1  0  0  3  0  0  0  0  0  0
  180.0730  175.4040  139.5800 C   0  0  0  0  0  2  0  0  0  0  0  0
  188.7800  177.6140  144.5170 C   0  0  0  0  0  2  0  0  0  0  0  0
  189.7840  177.9240  143.4120 C   0  0  0  0  0  2  0  0  0  0  0  0
  189.0930  178.1270  142.0680 C   0  0  0  0  0  2  0  0  0  0  0  0
  189.6030  177.1570  141.0090 C   0  0  0  0  0  2  0  0  0  0  0  0
  188.6260  178.6280  139.2110 C   0  0  0  0  0  2  0  0  0  0  0  0
  188.0920  176.9640  137.4390 C   0  0  0  0  0  2  0  0  0  0  0  0
  189.4640  176.3700  137.6430 C   0  0  1  0  0  3  0  0  0  0  0  0
  189.2090  174.9490  135.8320 O   0  0  0  0  0  0  0  0  0  0  0  0
  191.6280  176.3430  138.7480 C   0  0  0  0  0  3  0  0  0  0  0  0
  189.8660  177.8600  139.6770 C   0  0  2  0  0  3  0  0  0  0  0  0
  192.0570  175.3700  137.8450 C   0  0  0  0  0  3  0  0  0  0  0  0
  191.2150  174.9190  136.8780 N   0  0  0  0  0  0  0  0  0  0  0  0
  187.5680  177.6640  138.6880 C   0  0  0  0  0  2  0  0  0  0  0  0
  189.9450  175.3920  136.7530 C   0  0  0  0  0  0  0  0  0  0  0  0
  190.3300  176.8560  138.6500 C   0  0  0  0  0  0  0  0  0  0  0  0
  1 14  1  0  0  0  0
  1  6  1  0  0  0  0
  2 10  1  6  0  0  0
  2 18  1  0  0  0  0
  3 14  2  0  0  0  0
  5 15  1  0  0  0  0
  5 19  1  0  0  0  0
  6  5  2  0  0  0  0
  7 28  1  0  0  0  0
  7  9  2  0  0  0  0
  8  4  2  0  0  0  0
  9  8  1  0  0  0  0
 11  6  1  0  0  0  0
 11 16  2  0  0  0  0
 13  9  1  0  0  0  0
 13 17  1  0  0  0  0
 14  2  1  0  0  0  0
 15 13  2  0  0  0  0
 16 15  1  0  0  0  0
 17 12  2  0  0  0  0
 17  4  1  0  0  0  0
 18 19  2  0  0  0  0
 20 23  1  6  0  0  0
 20 22  1  0  0  0  0
 21 20  1  0  0  0  0
 22 21  1  6  0  0  0
 22  1  1  0  0  0  0
 25 26  1  0  0  0  0
 25 27  1  0  0  0  0
 26 22  1  0  0  0  0
 26 24  1  1  0  0  0
 27 24  1  0  0  0  0
 29 28  1  0  0  0  0
 30 29  1  0  0  0  0
 31 30  1  0  0  0  0
 32 37  1  0  0  0  0
 33 40  1  0  0  0  0
 34 33  1  6  0  0  0
 34 42  1  0  0  0  0
 35 41  2  0  0  0  0
 37 31  1  1  0  0  0
 38 36  1  0  0  0  0
 39 38  2  0  0  0  0
 40 32  1  0  0  0  0
 41 39  1  0  0  0  0
 41 34  1  0  0  0  0
 42 36  2  0  0  0  0
 42 37  1  0  0  0  0
M  END
>  <MODEL>
4

>  <REMARK>
 VINA RESULT:      -9.1      2.929      6.068
  Name = 
  7 active torsions:
  status: ('A' for Active; 'I' for Inactive)
    1  A    between atoms: N_1  and  C_37
    2  A    between atoms: C_13  and  C_17
    3  A    between atoms: C_13  and  C_35
    4  A    between atoms: C_15  and  N_16
    5  A    between atoms: C_15  and  C_22
    6  A    between atoms: C_22  and  C_35
    7  A    between atoms: C_26  and  C_37
                            x       y       z     vdW  Elec       q    Type
                         _______ _______ _______ _____ _____    ______ ____

>  <TORSDO>
F 7

$$$$
=
 OpenBabel11062413113D

 42 48  0  0  1  0  0  0  0  0999 V2000
  181.0690  178.3590  138.7480 N   0  0  0  0  0  0  0  0  0  0  0  0
  180.8180  176.6010  136.9120 C   0  0  2  0  0  3  0  0  0  0  0  0
  179.0560  178.0620  137.5770 O   0  0  0  0  0  0  0  0  0  0  0  0
  187.6040  177.3710  136.0780 N   0  0  0  0  0  0  0  0  0  0  0  0
  183.3310  177.8850  137.8040 C   0  0  0  0  0  0  0  0  0  0  0  0
  182.5030  178.1430  138.8280 C   0  0  1  0  0  3  0  0  0  0  0  0
  187.4310  178.2660  139.5510 N   0  0  0  0  0  0  0  0  0  0  0  0
  188.3150  177.7220  137.3010 C   0  0  0  0  0  3  0  0  0  0  0  0
  187.2260  177.9590  138.3050 C   0  0  0  0  0  0  0  0  0  0  0  0
  179.8100  175.9550  136.1920 O   0  0  0  0  0  1  0  0  0  0  0  0
  183.2910  178.3980  140.0340 C   0  0  0  0  0  3  0  0  0  0  0  0
  185.3720  177.0750  135.4440 O   0  0  0  0  0  0  0  0  0  0  0  0
  185.8990  177.7880  137.7010 C   0  0  1  0  0  3  0  0  0  0  0  0
  180.2530  177.7010  137.7550 C   0  0  0  0  0  0  0  0  0  0  0  0
  184.7090  177.9650  138.3230 C   0  0  0  0  0  0  0  0  0  0  0  0
  184.5760  178.2940  139.7410 C   0  0  0  0  0  3  0  0  0  0  0  0
  186.2050  177.4020  136.3250 C   0  0  0  0  0  0  0  0  0  0  0  0
  181.8160  177.1720  135.9690 C   0  0  0  0  0  3  0  0  0  0  0  0
  182.9490  177.7310  136.3890 C   0  0  0  0  0  3  0  0  0  0  0  0
  180.3790  178.6980  141.1460 C   0  0  1  0  0  3  0  0  0  0  0  0
  179.1130  178.7130  140.3040 C   0  0  0  0  0  2  0  0  0  0  0  0
  180.4050  179.2530  139.7180 C   0  0  2  0  0  0  0  0  0  0  0  0
  180.2790  179.7770  142.2120 C   0  0  0  0  0  1  0  0  0  0  0  0
  181.4150  181.1800  138.4070 C   0  0  0  0  0  2  0  0  0  0  0  0
  178.9660  181.4170  138.6700 S   0  0  0  0  0  0  0  0  0  0  0  0
  180.4510  180.7800  139.5060 C   0  0  1  0  0  3  0  0  0  0  0  0
  180.3380  181.7850  137.5330 C   0  0  0  0  0  2  0  0  0  0  0  0
  188.7550  178.4460  140.1340 C   0  0  0  0  0  2  0  0  0  0  0  0
  188.7370  178.1220  141.6230 C   0  0  0  0  0  2  0  0  0  0  0  0
  189.1900  176.6910  141.8920 C   0  0  0  0  0  2  0  0  0  0  0  0
  189.3290  176.4020  143.3820 C   0  0  0  0  0  2  0  0  0  0  0  0
  191.0310  177.7250  144.6870 C   0  0  0  0  0  2  0  0  0  0  0  0
  190.3760  177.2060  147.0320 C   0  0  0  0  0  2  0  0  0  0  0  0
  188.9420  177.4780  146.6470 C   0  0  1  0  0  3  0  0  0  0  0  0
  188.2310  177.2960  148.8430 O   0  0  0  0  0  0  0  0  0  0  0  0
  187.2640  178.1220  145.0110 C   0  0  0  0  0  3  0  0  0  0  0  0
  189.5850  177.6780  144.1830 C   0  0  2  0  0  3  0  0  0  0  0  0
  186.3140  178.1670  146.0310 C   0  0  0  0  0  3  0  0  0  0  0  0
  186.6720  177.8780  147.3100 N   0  0  0  0  0  0  0  0  0  0  0  0
  191.2220  176.7550  145.8460 C   0  0  0  0  0  2  0  0  0  0  0  0
  187.9490  177.5420  147.6410 C   0  0  0  0  0  0  0  0  0  0  0  0
  188.5890  177.7840  145.3120 C   0  0  0  0  0  0  0  0  0  0  0  0
  1  6  1  0  0  0  0
  2 10  1  6  0  0  0
  2 14  1  0  0  0  0
  3 14  2  0  0  0  0
  4 17  1  0  0  0  0
  4  8  2  0  0  0  0
  5 15  2  0  0  0  0
  5  6  1  0  0  0  0
  6 11  1  6  0  0  0
  7 28  1  0  0  0  0
  8  9  1  0  0  0  0
  9  7  2  0  0  0  0
 12 17  2  0  0  0  0
 13  9  1  0  0  0  0
 13 15  1  6  0  0  0
 14  1  1  0  0  0  0
 15 16  1  0  0  0  0
 16 11  2  0  0  0  0
 17 13  1  0  0  0  0
 18 19  2  0  0  0  0
 18  2  1  0  0  0  0
 19  5  1  0  0  0  0
 20 23  1  1  0  0  0
 21 20  1  0  0  0  0
 22  1  1  6  0  0  0
 22 21  1  0  0  0  0
 22 20  1  0  0  0  0
 25 26  1  0  0  0  0
 26 24  1  6  0  0  0
 26 22  1  0  0  0  0
 27 24  1  0  0  0  0
 27 25  1  0  0  0  0
 28 29  1  0  0  0  0
 29 30  1  0  0  0  0
 30 31  1  0  0  0  0
 32 40  1  0  0  0  0
 34 33  1  1  0  0  0
 34 41  1  0  0  0  0
 36 42  2  0  0  0  0
 36 38  1  0  0  0  0
 37 31  1  1  0  0  0
 37 32  1  0  0  0  0
 37 42  1  0  0  0  0
 38 39  2  0  0  0  0
 39 41  1  0  0  0  0
 40 33  1  0  0  0  0
 41 35  2  0  0  0  0
 42 34  1  0  0  0  0
M  END
>  <MODEL>
5

>  <REMARK>
 VINA RESULT:      -8.9      2.720      5.682
  Name = 
  7 active torsions:
  status: ('A' for Active; 'I' for Inactive)
    1  A    between atoms: N_1  and  C_37
    2  A    between atoms: C_13  and  C_17
    3  A    between atoms: C_13  and  C_35
    4  A    between atoms: C_15  and  N_16
    5  A    between atoms: C_15  and  C_22
    6  A    between atoms: C_22  and  C_35
    7  A    between atoms: C_26  and  C_37
                            x       y       z     vdW  Elec       q    Type
                         _______ _______ _______ _____ _____    ______ ____

>  <TORSDO>
F 7

$$$$
=
 OpenBabel11062413113D

 42 48  0  0  1  0  0  0  0  0999 V2000
  182.2970  178.3550  141.2890 N   0  0  0  0  0  0  0  0  0  0  0  0
  181.1610  179.9020  142.9740 C   0  0  2  0  0  3  0  0  0  0  0  0
  179.9870  178.7700  141.2370 O   0  0  0  0  0  0  0  0  0  0  0  0
  186.3450  178.1710  147.1540 N   0  0  0  0  0  0  0  0  0  0  0  0
  183.6940  178.4200  143.3580 C   0  0  0  0  0  0  0  0  0  0  0  0
  183.5490  178.3930  142.0240 C   0  0  0  0  0  0  0  0  0  0  0  0
  188.0600  177.7220  144.0310 N   0  0  0  0  0  0  0  0  0  0  0  0
  187.5930  177.8780  146.4600 C   0  0  0  0  0  3  0  0  0  0  0  0
  187.2210  177.9030  145.0070 C   0  0  0  0  0  0  0  0  0  0  0  0
  179.9520  180.5830  143.1440 O   0  0  0  0  0  1  0  0  0  0  0  0
  184.8570  178.1820  141.4010 C   0  0  0  0  0  3  0  0  0  0  0  0
  184.1460  178.6750  146.5390 O   0  0  0  0  0  0  0  0  0  0  0  0
  185.7880  178.1710  144.8290 C   0  0  0  0  0  0  0  0  0  0  0  0
  181.1010  178.9920  141.7880 C   0  0  0  0  0  0  0  0  0  0  0  0
  185.1260  178.2240  143.6480 C   0  0  0  0  0  0  0  0  0  0  0  0
  185.7760  178.0850  142.3470 C   0  0  0  0  0  3  0  0  0  0  0  0
  185.3090  178.3490  146.1980 C   0  0  0  0  0  0  0  0  0  0  0  0
  181.4550  179.1000  144.1920 C   0  0  0  0  0  3  0  0  0  0  0  0
  182.6070  178.4530  144.3530 C   0  0  0  0  0  3  0  0  0  0  0  0
  181.2380  176.5120  139.9400 C   0  0  1  0  0  3  0  0  0  0  0  0
  182.7340  176.2430  139.9780 C   0  0  0  0  0  2  0  0  0  0  0  0
  182.2330  177.6760  139.9800 C   0  0  2  0  0  0  0  0  0  0  0  0
  180.7150  176.2110  138.5440 C   0  0  0  0  0  1  0  0  0  0  0  0
  182.9250  179.9050  138.9750 C   0  0  0  0  0  2  0  0  0  0  0  0
  184.0660  177.9990  137.8850 S   0  0  0  0  0  0  0  0  0  0  0  0
  182.5060  178.4760  138.6900 C   0  0  1  0  0  3  0  0  0  0  0  0
  184.2910  179.7450  138.3450 C   0  0  0  0  0  2  0  0  0  0  0  0
  189.4780  177.4430  144.2240 C   0  0  0  0  0  2  0  0  0  0  0  0
  190.0080  176.5470  143.1100 C   0  0  0  0  0  2  0  0  0  0  0  0
  190.4380  177.3600  141.8930 C   0  0  0  0  0  2  0  0  0  0  0  0
  189.7250  176.9130  140.6230 C   0  0  0  0  0  2  0  0  0  0  0  0
  188.6930  178.6270  139.0900 C   0  0  0  0  0  2  0  0  0  0  0  0
  188.3610  177.3010  137.0100 C   0  0  0  0  0  2  0  0  0  0  0  0
  189.7690  176.7820  137.1670 C   0  0  1  0  0  3  0  0  0  0  0  0
  189.6950  175.7220  135.1080 O   0  0  0  0  0  0  0  0  0  0  0  0
  191.8880  176.7030  138.3530 C   0  0  0  0  0  3  0  0  0  0  0  0
  189.9760  177.8770  139.4640 C   0  0  2  0  0  3  0  0  0  0  0  0
  192.4260  175.9570  137.3060 C   0  0  0  0  0  3  0  0  0  0  0  0
  191.6590  175.6400  136.2290 N   0  0  0  0  0  0  0  0  0  0  0  0
  187.7380  177.7060  138.3420 C   0  0  0  0  0  2  0  0  0  0  0  0
  190.3590  176.0320  136.1330 C   0  0  0  0  0  0  0  0  0  0  0  0
  190.5560  177.1280  138.2890 C   0  0  0  0  0  0  0  0  0  0  0  0
  1 14  1  0  0  0  0
  1  6  1  0  0  0  0
  2 10  1  1  0  0  0
  2 18  1  0  0  0  0
  3 14  2  0  0  0  0
  5 15  1  0  0  0  0
  5 19  1  0  0  0  0
  6  5  2  0  0  0  0
  7 28  1  0  0  0  0
  7  9  2  0  0  0  0
  8  4  2  0  0  0  0
  9  8  1  0  0  0  0
 11  6  1  0  0  0  0
 11 16  2  0  0  0  0
 13  9  1  0  0  0  0
 13 17  1  0  0  0  0
 14  2  1  0  0  0  0
 15 13  2  0  0  0  0
 16 15  1  0  0  0  0
 17 12  2  0  0  0  0
 17  4  1  0  0  0  0
 18 19  2  0  0  0  0
 20 23  1  6  0  0  0
 20 21  1  0  0  0  0
 20 22  1  0  0  0  0
 22 21  1  1  0  0  0
 22  1  1  0  0  0  0
 25 27  1  0  0  0  0
 25 26  1  0  0  0  0
 26 24  1  1  0  0  0
 26 22  1  0  0  0  0
 27 24  1  0  0  0  0
 29 28  1  0  0  0  0
 30 29  1  0  0  0  0
 31 30  1  0  0  0  0
 32 37  1  0  0  0  0
 33 40  1  0  0  0  0
 34 33  1  6  0  0  0
 34 42  1  0  0  0  0
 35 41  2  0  0  0  0
 37 31  1  1  0  0  0
 38 36  1  0  0  0  0
 39 38  2  0  0  0  0
 40 32  1  0  0  0  0
 41 39  1  0  0  0  0
 41 34  1  0  0  0  0
 42 36  2  0  0  0  0
 42 37  1  0  0  0  0
M  END
>  <MODEL>
6

>  <REMARK>
 VINA RESULT:      -8.8      3.062      6.821
  Name = 
  7 active torsions:
  status: ('A' for Active; 'I' for Inactive)
    1  A    between atoms: N_1  and  C_37
    2  A    between atoms: C_13  and  C_17
    3  A    between atoms: C_13  and  C_35
    4  A    between atoms: C_15  and  N_16
    5  A    between atoms: C_15  and  C_22
    6  A    between atoms: C_22  and  C_35
    7  A    between atoms: C_26  and  C_37
                            x       y       z     vdW  Elec       q    Type
                         _______ _______ _______ _____ _____    ______ ____

>  <TORSDO>
F 7

$$$$
=
 OpenBabel11062413113D

 42 48  0  0  1  0  0  0  0  0999 V2000
  181.6920  178.5170  137.7900 N   0  0  0  0  0  0  0  0  0  0  0  0
  181.5690  176.4810  136.2520 C   0  0  2  0  0  3  0  0  0  0  0  0
  179.8450  178.1190  136.3960 O   0  0  0  0  0  0  0  0  0  0  0  0
  188.4440  176.7630  136.3260 N   0  0  0  0  0  0  0  0  0  0  0  0
  184.0220  177.7760  137.2860 C   0  0  0  0  0  0  0  0  0  0  0  0
  183.0810  178.2480  138.1180 C   0  0  1  0  0  3  0  0  0  0  0  0
  187.8560  178.2540  139.5390 N   0  0  0  0  0  0  0  0  0  0  0  0
  189.0020  177.2850  137.5670 C   0  0  0  0  0  3  0  0  0  0  0  0
  187.8050  177.7460  138.3450 C   0  0  0  0  0  0  0  0  0  0  0  0
  180.6270  175.7700  135.5050 O   0  0  0  0  0  1  0  0  0  0  0  0
  183.7110  178.6700  139.3690 C   0  0  0  0  0  3  0  0  0  0  0  0
  186.3060  176.4710  135.4230 O   0  0  0  0  0  0  0  0  0  0  0  0
  186.5650  177.5380  137.5850 C   0  0  1  0  0  3  0  0  0  0  0  0
  180.9750  177.7370  136.8090 C   0  0  0  0  0  0  0  0  0  0  0  0
  185.3160  177.8780  137.9850 C   0  0  0  0  0  0  0  0  0  0  0  0
  185.0130  178.4540  139.2930 C   0  0  0  0  0  3  0  0  0  0  0  0
  187.0300  176.9050  136.3530 C   0  0  0  0  0  0  0  0  0  0  0  0
  182.7290  176.8310  135.3880 C   0  0  0  0  0  3  0  0  0  0  0  0
  183.8300  177.3980  135.8740 C   0  0  0  0  0  3  0  0  0  0  0  0
  180.7040  180.8270  137.6150 C   0  0  1  0  0  3  0  0  0  0  0  0
  181.7660  180.8690  138.7030 C   0  0  0  0  0  2  0  0  0  0  0  0
  180.9670  179.5970  138.4900 C   0  0  2  0  0  0  0  0  0  0  0  0
  179.5020  181.6410  138.0640 C   0  0  0  0  0  1  0  0  0  0  0  0
  179.9470  177.7600  139.9180 C   0  0  0  0  0  2  0  0  0  0  0  0
  180.5530  179.7510  141.2570 S   0  0  0  0  0  0  0  0  0  0  0  0
  179.9680  179.2440  139.6110 C   0  0  1  0  0  3  0  0  0  0  0  0
  180.4240  177.9380  141.3440 C   0  0  0  0  0  2  0  0  0  0  0  0
  189.0960  178.4670  140.2750 C   0  0  0  0  0  2  0  0  0  0  0  0
  189.4320  177.2500  141.1310 C   0  0  0  0  0  2  0  0  0  0  0  0
  190.2810  177.6310  142.3390 C   0  0  0  0  0  2  0  0  0  0  0  0
  189.4360  178.1710  143.4860 C   0  0  0  0  0  2  0  0  0  0  0  0
  187.3650  176.7620  143.2140 C   0  0  0  0  0  2  0  0  0  0  0  0
  185.7600  177.9380  144.7100 C   0  0  0  0  0  2  0  0  0  0  0  0
  186.8390  177.9800  145.7640 C   0  0  1  0  0  3  0  0  0  0  0  0
  185.3740  178.8230  147.3470 O   0  0  0  0  0  0  0  0  0  0  0  0
  189.0870  177.4650  146.5290 C   0  0  0  0  0  3  0  0  0  0  0  0
  188.5650  177.0810  144.1100 C   0  0  2  0  0  3  0  0  0  0  0  0
  188.7330  177.9010  147.8050 C   0  0  0  0  0  3  0  0  0  0  0  0
  187.4750  178.3560  148.0460 N   0  0  0  0  0  0  0  0  0  0  0  0
  186.3280  177.8750  143.2960 C   0  0  0  0  0  2  0  0  0  0  0  0
  186.5280  178.4030  147.0690 C   0  0  0  0  0  0  0  0  0  0  0  0
  188.1400  177.4950  145.4980 C   0  0  0  0  0  0  0  0  0  0  0  0
  1  6  1  0  0  0  0
  2 10  1  6  0  0  0
  2 14  1  0  0  0  0
  3 14  2  0  0  0  0
  4 17  1  0  0  0  0
  4  8  2  0  0  0  0
  5 15  2  0  0  0  0
  5  6  1  0  0  0  0
  6 11  1  6  0  0  0
  7 28  1  0  0  0  0
  8  9  1  0  0  0  0
  9  7  2  0  0  0  0
 12 17  2  0  0  0  0
 13 15  1  6  0  0  0
 13  9  1  0  0  0  0
 14  1  1  0  0  0  0
 15 16  1  0  0  0  0
 16 11  2  0  0  0  0
 17 13  1  0  0  0  0
 18 19  2  0  0  0  0
 18  2  1  0  0  0  0
 19  5  1  0  0  0  0
 20 23  1  1  0  0  0
 20 22  1  0  0  0  0
 20 21  1  0  0  0  0
 22  1  1  6  0  0  0
 22 21  1  0  0  0  0
 22 26  1  0  0  0  0
 24 27  1  0  0  0  0
 25 27  1  0  0  0  0
 26 24  1  1  0  0  0
 26 25  1  0  0  0  0
 28 29  1  0  0  0  0
 29 30  1  0  0  0  0
 30 31  1  0  0  0  0
 32 40  1  0  0  0  0
 32 37  1  0  0  0  0
 34 33  1  1  0  0  0
 34 41  1  0  0  0  0
 36 38  1  0  0  0  0
 37 31  1  6  0  0  0
 37 42  1  0  0  0  0
 38 39  2  0  0  0  0
 40 33  1  0  0  0  0
 41 35  2  0  0  0  0
 41 39  1  0  0  0  0
 42 34  1  0  0  0  0
 42 36  2  0  0  0  0
M  END
>  <MODEL>
7

>  <REMARK>
 VINA RESULT:      -8.8      2.806      5.796
  Name = 
  7 active torsions:
  status: ('A' for Active; 'I' for Inactive)
    1  A    between atoms: N_1  and  C_37
    2  A    between atoms: C_13  and  C_17
    3  A    between atoms: C_13  and  C_35
    4  A    between atoms: C_15  and  N_16
    5  A    between atoms: C_15  and  C_22
    6  A    between atoms: C_22  and  C_35
    7  A    between atoms: C_26  and  C_37
                            x       y       z     vdW  Elec       q    Type
                         _______ _______ _______ _____ _____    ______ ____

>  <TORSDO>
F 7

$$$$
=
 OpenBabel11062413113D

 42 48  0  0  1  0  0  0  0  0999 V2000
  188.8400  177.9330  145.1740 N   0  0  0  0  0  0  0  0  0  0  0  0
  187.6490  177.3010  147.3430 C   0  0  2  0  0  3  0  0  0  0  0  0
  189.9230  178.0080  147.2550 O   0  0  0  0  0  0  0  0  0  0  0  0
  181.9190  179.2200  144.0520 N   0  0  0  0  0  0  0  0  0  0  0  0
  186.3880  178.2740  144.8480 C   0  0  0  0  0  0  0  0  0  0  0  0
  187.5990  177.8860  144.4200 C   0  0  1  0  0  3  0  0  0  0  0  0
  183.8340  178.2450  141.1760 N   0  0  0  0  0  0  0  0  0  0  0  0
  181.9620  179.0030  142.6120 C   0  0  0  0  0  3  0  0  0  0  0  0
  183.3750  178.5730  142.3460 C   0  0  0  0  0  0  0  0  0  0  0  0
  187.9560  176.9780  148.6680 O   0  0  0  0  0  1  0  0  0  0  0  0
  187.5360  177.6040  142.9860 C   0  0  0  0  0  3  0  0  0  0  0  0
  183.4090  179.0030  145.8420 O   0  0  0  0  0  0  0  0  0  0  0  0
  184.1680  178.5620  143.5820 C   0  0  1  0  0  3  0  0  0  0  0  0
  188.8680  177.7580  146.6070 C   0  0  0  0  0  0  0  0  0  0  0  0
  185.4840  178.2570  143.6830 C   0  0  0  0  0  0  0  0  0  0  0  0
  186.3050  177.8200  142.5560 C   0  0  0  0  0  3  0  0  0  0  0  0
  183.2000  178.9510  144.6050 C   0  0  0  0  0  0  0  0  0  0  0  0
  186.6290  178.3840  147.3180 C   0  0  0  0  0  3  0  0  0  0  0  0
  186.0610  178.7960  146.1870 C   0  0  0  0  0  3  0  0  0  0  0  0
  190.6130  179.5870  144.4960 C   0  0  1  0  0  3  0  0  0  0  0  0
  190.0340  178.9970  143.2210 C   0  0  0  0  0  2  0  0  0  0  0  0
  190.1210  178.1370  144.4680 C   0  0  2  0  0  0  0  0  0  0  0  0
  192.1200  179.7170  144.3430 C   0  0  0  0  0  1  0  0  0  0  0  0
  190.5150  175.6300  144.5900 C   0  0  0  0  0  2  0  0  0  0  0  0
  191.7680  176.6790  142.7320 S   0  0  0  0  0  0  0  0  0  0  0  0
  191.1540  176.9930  144.4150 C   0  0  1  0  0  3  0  0  0  0  0  0
  190.9270  175.1400  143.2180 C   0  0  0  0  0  2  0  0  0  0  0  0
  183.0370  178.2740  139.9560 C   0  0  0  0  0  2  0  0  0  0  0  0
  183.7120  179.1330  138.8920 C   0  0  0  0  0  2  0  0  0  0  0  0
  185.2280  178.9660  138.9160 C   0  0  0  0  0  2  0  0  0  0  0  0
  185.7000  177.8680  137.9700 C   0  0  0  0  0  2  0  0  0  0  0  0
  186.9480  177.8320  135.7800 C   0  0  0  0  0  2  0  0  0  0  0  0
  188.5270  175.9420  136.1370 C   0  0  0  0  0  2  0  0  0  0  0  0
  188.8510  176.5230  137.4920 C   0  0  1  0  0  3  0  0  0  0  0  0
  190.5470  174.9840  137.8380 O   0  0  0  0  0  0  0  0  0  0  0  0
  188.5710  178.2330  139.1950 C   0  0  0  0  0  3  0  0  0  0  0  0
  186.9920  178.2570  137.2520 C   0  0  2  0  0  3  0  0  0  0  0  0
  189.6260  177.6670  139.9100 C   0  0  0  0  0  3  0  0  0  0  0  0
  190.2680  176.5710  139.4270 N   0  0  0  0  0  0  0  0  0  0  0  0
  187.1320  176.3250  135.6560 C   0  0  0  0  0  2  0  0  0  0  0  0
  189.9130  175.9920  138.2470 C   0  0  0  0  0  0  0  0  0  0  0  0
  188.1790  177.6690  137.9750 C   0  0  0  0  0  0  0  0  0  0  0  0
  1 14  1  0  0  0  0
  2 10  1  1  0  0  0
  4 17  1  0  0  0  0
  5 19  1  0  0  0  0
  6 11  1  6  0  0  0
  6  5  1  0  0  0  0
  6  1  1  0  0  0  0
  7  9  2  0  0  0  0
  8  4  2  0  0  0  0
  9  8  1  0  0  0  0
  9 13  1  0  0  0  0
 13 15  1  6  0  0  0
 13 17  1  0  0  0  0
 14  3  2  0  0  0  0
 14  2  1  0  0  0  0
 15  5  2  0  0  0  0
 16 11  2  0  0  0  0
 16 15  1  0  0  0  0
 17 12  2  0  0  0  0
 18  2  1  0  0  0  0
 19 18  2  0  0  0  0
 20 23  1  6  0  0  0
 21 20  1  0  0  0  0
 22 21  1  6  0  0  0
 22 20  1  0  0  0  0
 22  1  1  0  0  0  0
 25 27  1  0  0  0  0
 25 26  1  0  0  0  0
 26 22  1  0  0  0  0
 26 24  1  6  0  0  0
 27 24  1  0  0  0  0
 28  7  1  0  0  0  0
 29 30  1  0  0  0  0
 29 28  1  0  0  0  0
 31 30  1  0  0  0  0
 32 37  1  0  0  0  0
 34 33  1  6  0  0  0
 34 42  1  0  0  0  0
 34 41  1  0  0  0  0
 35 41  2  0  0  0  0
 36 38  1  0  0  0  0
 37 31  1  1  0  0  0
 37 42  1  0  0  0  0
 39 38  2  0  0  0  0
 40 32  1  0  0  0  0
 40 33  1  0  0  0  0
 41 39  1  0  0  0  0
 42 36  2  0  0  0  0
M  END
>  <MODEL>
8

>  <REMARK>
 VINA RESULT:      -8.8      3.463      8.522
  Name = 
  7 active torsions:
  status: ('A' for Active; 'I' for Inactive)
    1  A    between atoms: N_1  and  C_37
    2  A    between atoms: C_13  and  C_17
    3  A    between atoms: C_13  and  C_35
    4  A    between atoms: C_15  and  N_16
    5  A    between atoms: C_15  and  C_22
    6  A    between atoms: C_22  and  C_35
    7  A    between atoms: C_26  and  C_37
                            x       y       z     vdW  Elec       q    Type
                         _______ _______ _______ _____ _____    ______ ____

>  <TORSDO>
F 7

$$$$
=
 OpenBabel11062413113D

 42 48  0  0  1  0  0  0  0  0999 V2000
  181.9650  176.3310  136.3250 N   0  0  0  0  0  0  0  0  0  0  0  0
  182.3460  173.8730  135.7440 C   0  0  2  0  0  3  0  0  0  0  0  0
  180.4010  175.0870  135.0920 O   0  0  0  0  0  0  0  0  0  0  0  0
  189.0340  175.4320  136.1630 N   0  0  0  0  0  0  0  0  0  0  0  0
  184.4240  175.8990  136.3260 C   0  0  0  0  0  0  0  0  0  0  0  0
  183.3200  176.4740  136.8270 C   0  0  0  0  0  0  0  0  0  0  0  0
  187.8060  177.9180  138.4440 N   0  0  0  0  0  0  0  0  0  0  0  0
  189.3370  176.4890  137.1190 C   0  0  0  0  0  3  0  0  0  0  0  0
  187.9910  176.9860  137.5590 C   0  0  0  0  0  0  0  0  0  0  0  0
  181.6250  172.7650  135.2890 O   0  0  0  0  0  1  0  0  0  0  0  0
  183.7060  177.4580  137.8390 C   0  0  0  0  0  3  0  0  0  0  0  0
  187.1040  174.4200  135.3150 O   0  0  0  0  0  0  0  0  0  0  0  0
  186.9100  176.2720  136.8670 C   0  0  0  0  0  0  0  0  0  0  0  0
  181.5080  175.1120  135.7000 C   0  0  0  0  0  0  0  0  0  0  0  0
  185.5830  176.5030  137.0080 C   0  0  0  0  0  0  0  0  0  0  0  0
  185.0240  177.4750  137.9450 C   0  0  0  0  0  3  0  0  0  0  0  0
  187.6250  175.3080  136.0340 C   0  0  0  0  0  0  0  0  0  0  0  0
  183.5500  174.0670  134.8930 C   0  0  0  0  0  3  0  0  0  0  0  0
  184.4830  174.9720  135.1800 C   0  0  0  0  0  3  0  0  0  0  0  0
  180.6250  178.1080  135.1470 C   0  0  1  0  0  3  0  0  0  0  0  0
  181.5540  178.8130  136.1230 C   0  0  0  0  0  2  0  0  0  0  0  0
  181.0050  177.4430  136.4740 C   0  0  2  0  0  0  0  0  0  0  0  0
  179.2650  178.7860  135.1790 C   0  0  0  0  0  1  0  0  0  0  0  0
  180.2180  176.2700  138.5860 C   0  0  0  0  0  2  0  0  0  0  0  0
  180.2530  178.7310  138.8470 S   0  0  0  0  0  0  0  0  0  0  0  0
  179.9750  177.4150  137.6220 C   0  0  1  0  0  3  0  0  0  0  0  0
  180.4830  177.1780  139.7680 C   0  0  0  0  0  2  0  0  0  0  0  0
  188.8910  178.6270  139.1120 C   0  0  0  0  0  2  0  0  0  0  0  0
  188.6990  178.6040  140.6240 C   0  0  0  0  0  2  0  0  0  0  0  0
  189.5480  177.5190  141.2800 C   0  0  0  0  0  2  0  0  0  0  0  0
  189.7790  177.7890  142.7620 C   0  0  0  0  0  2  0  0  0  0  0  0
  187.7360  176.5750  143.6030 C   0  0  0  0  0  2  0  0  0  0  0  0
  187.5150  177.5030  145.9020 C   0  0  0  0  0  2  0  0  0  0  0  0
  188.9940  177.2720  146.0920 C   0  0  1  0  0  3  0  0  0  0  0  0
  188.8810  177.8490  148.3320 O   0  0  0  0  0  0  0  0  0  0  0  0
  191.1480  176.4960  145.2780 C   0  0  0  0  0  3  0  0  0  0  0  0
  189.2660  176.6420  143.6320 C   0  0  2  0  0  3  0  0  0  0  0  0
  191.6760  176.6790  146.5550 C   0  0  0  0  0  3  0  0  0  0  0  0
  190.8860  177.1410  147.5600 N   0  0  0  0  0  0  0  0  0  0  0  0
  187.1390  177.7010  144.4380 C   0  0  0  0  0  2  0  0  0  0  0  0
  189.5720  177.4350  147.3640 C   0  0  0  0  0  0  0  0  0  0  0  0
  189.8000  176.7850  145.0370 C   0  0  0  0  0  0  0  0  0  0  0  0
  1 22  1  0  0  0  0
  1  6  1  0  0  0  0
  2 10  1  6  0  0  0
  3 14  2  0  0  0  0
  4  8  2  0  0  0  0
  5  6  2  0  0  0  0
  5 15  1  0  0  0  0
  6 11  1  0  0  0  0
  7 28  1  0  0  0  0
  8  9  1  0  0  0  0
  9  7  2  0  0  0  0
 11 16  2  0  0  0  0
 12 17  2  0  0  0  0
 13 15  2  0  0  0  0
 13  9  1  0  0  0  0
 14  2  1  0  0  0  0
 14  1  1  0  0  0  0
 15 16  1  0  0  0  0
 17  4  1  0  0  0  0
 17 13  1  0  0  0  0
 18 19  2  0  0  0  0
 18  2  1  0  0  0  0
 19  5  1  0  0  0  0
 20 23  1  1  0  0  0
 20 21  1  0  0  0  0
 20 22  1  0  0  0  0
 22 21  1  1  0  0  0
 22 26  1  0  0  0  0
 24 27  1  0  0  0  0
 25 27  1  0  0  0  0
 26 24  1  1  0  0  0
 26 25  1  0  0  0  0
 28 29  1  0  0  0  0
 29 30  1  0  0  0  0
 30 31  1  0  0  0  0
 32 37  1  0  0  0  0
 32 40  1  0  0  0  0
 34 33  1  1  0  0  0
 34 41  1  0  0  0  0
 36 38  1  0  0  0  0
 37 31  1  6  0  0  0
 37 42  1  0  0  0  0
 38 39  2  0  0  0  0
 40 33  1  0  0  0  0
 41 39  1  0  0  0  0
 41 35  2  0  0  0  0
 42 36  2  0  0  0  0
 42 34  1  0  0  0  0
M  END
>  <MODEL>
9

>  <REMARK>
 VINA RESULT:      -8.0      3.043      5.876
  Name = 
  7 active torsions:
  status: ('A' for Active; 'I' for Inactive)
    1  A    between atoms: N_1  and  C_37
    2  A    between atoms: C_13  and  C_17
    3  A    between atoms: C_13  and  C_35
    4  A    between atoms: C_15  and  N_16
    5  A    between atoms: C_15  and  C_22
    6  A    between atoms: C_22  and  C_35
    7  A    between atoms: C_26  and  C_37
                            x       y       z     vdW  Elec       q    Type
                         _______ _______ _______ _____ _____    ______ ____

>  <TORSDO>
F 7

$$$$
