=
 OpenBabel11062414173D

 45 51  0  0  1  0  0  0  0  0999 V2000
  183.4970  178.6710  140.5660 C   0  0  1  0  0  3  0  0  0  0  0  0
  183.4530  176.6120  137.9620 C   0  0  2  0  0  3  0  0  0  0  0  0
  183.0740  178.0390  138.2980 C   0  0  2  0  0  3  0  0  0  0  0  0
  184.8230  176.6830  137.3190 C   0  0  0  0  0  2  0  0  0  0  0  0
  185.4880  177.8340  138.0310 C   0  0  2  0  0  3  0  0  0  0  0  0
  184.3800  178.7840  138.4540 C   0  0  2  0  0  3  0  0  0  0  0  0
  186.4620  178.5310  137.1030 C   0  0  0  0  0  1  0  0  0  0  0  0
  184.5690  179.1750  139.7960 O   0  0  0  0  0  0  0  0  0  0  0  0
  182.4450  178.0800  139.6570 C   0  0  2  0  0  3  0  0  0  0  0  0
  182.6490  174.3420  136.9370 C   0  0  1  0  0  3  0  0  0  0  0  0
  182.3860  175.8510  137.1610 C   0  0  1  0  0  3  0  0  0  0  0  0
  179.1270  173.5820  139.2800 O   0  0  0  0  0  0  0  0  0  0  0  0
  180.9920  176.1830  137.6990 C   0  0  0  0  0  2  0  0  0  0  0  0
  180.5800  173.2040  137.5620 O   0  0  0  0  0  0  0  0  0  0  0  0
  181.3620  173.6660  136.4650 C   0  0  0  0  0  2  0  0  0  0  0  0
  180.0740  174.0200  138.5820 C   0  0  0  0  0  0  0  0  0  0  0  0
  180.6560  175.3580  138.9300 C   0  0  0  0  0  2  0  0  0  0  0  0
  183.7260  174.1600  135.8530 C   0  0  2  0  0  3  0  0  0  0  0  0
  184.0600  172.6950  135.4710 C   0  0  2  0  0  3  0  0  0  0  0  0
  183.3300  171.7520  136.2110 O   0  0  0  0  0  1  0  0  0  0  0  0
  185.1360  173.0600  137.8240 C   0  0  0  0  0  1  0  0  0  0  0  0
  184.9970  173.4920  136.3620 C   0  0  2  0  0  0  0  0  0  0  0  0
  186.1550  173.9240  135.7160 O   0  0  0  0  0  1  0  0  0  0  0  0
  181.1760  179.9380  138.5990 C   0  0  0  0  0  2  0  0  0  0  0  0
  180.7470  179.4450  141.0570 C   0  0  1  0  0  3  0  0  0  0  0  0
  180.0240  181.4640  139.7460 C   0  0  0  0  0  2  0  0  0  0  0  0
  180.0030  180.6960  138.5710 O   0  0  0  0  0  0  0  0  0  0  0  0
  181.1130  178.8460  139.6740 C   0  0  2  0  0  3  0  0  0  0  0  0
  179.7210  180.5760  140.9490 C   0  0  0  0  0  2  0  0  0  0  0  0
  180.5170  178.3350  143.1720 O   0  0  0  0  0  0  0  0  0  0  0  0
  179.2410  177.4410  141.4460 N   0  0  0  0  0  1  0  0  0  0  0  0
  180.1800  178.3880  141.9580 C   0  0  0  0  0  0  0  0  0  0  0  0
  183.9980  177.5810  141.5080 C   0  0  0  0  0  2  0  0  0  0  0  0
  184.8110  178.1280  142.6920 C   0  0  1  0  0  3  0  0  0  0  0  0
  188.2080  178.5660  141.5560 C   0  0  0  0  0  2  0  0  0  0  0  0
  187.2090  177.5650  143.2840 C   0  0  0  0  0  0  0  0  0  0  0  0
  186.2480  178.0970  142.4100 N   0  0  0  0  0  0  0  0  0  0  0  0
  186.8130  178.6950  141.3280 O   0  0  0  0  0  0  0  0  0  0  0  0
  188.4070  177.8080  142.8310 C   0  0  0  0  0  3  0  0  0  0  0  0
  186.8940  176.8850  144.4640 O   0  0  0  0  0  0  0  0  0  0  0  0
  187.1950  177.3960  145.7020 C   0  0  0  0  0  0  0  0  0  0  0  0
  187.4540  177.8530  146.7920 C   0  0  0  0  0  3  0  0  0  0  0  0
  183.3950  179.4770  144.2690 C   0  0  0  0  0  2  0  0  0  0  0  0
  184.8500  179.8040  144.5000 C   0  0  0  0  0  2  0  0  0  0  0  0
  184.3560  179.5270  143.0970 C   0  0  0  0  0  3  0  0  0  0  0  0
  1 33  1  1  0  0  0
  2  4  1  6  0  0  0
  2  3  1  0  0  0  0
  3  6  1  0  0  0  0
  3  9  1  0  0  0  0
  4  5  1  0  0  0  0
  5  6  1  0  0  0  0
  6  8  1  0  0  0  0
  7  5  1  0  0  0  0
  8  1  1  0  0  0  0
  9 28  1  0  0  0  0
  9  1  1  0  0  0  0
 10 11  1  0  0  0  0
 11 13  1  0  0  0  0
 11  2  1  0  0  0  0
 13 17  1  0  0  0  0
 14 16  1  0  0  0  0
 15 10  1  0  0  0  0
 15 14  1  0  0  0  0
 16 17  1  0  0  0  0
 16 12  2  0  0  0  0
 18 22  1  0  0  0  0
 18 10  1  0  0  0  0
 19 18  1  0  0  0  0
 19 20  1  0  0  0  0
 19 22  1  0  0  0  0
 22 21  1  0  0  0  0
 23 22  1  0  0  0  0
 24 28  1  0  0  0  0
 25 32  1  0  0  0  0
 26 29  1  0  0  0  0
 27 24  1  0  0  0  0
 27 26  1  0  0  0  0
 28 25  1  0  0  0  0
 29 25  1  0  0  0  0
 31 32  1  0  0  0  0
 32 30  2  0  0  0  0
 33 34  1  0  0  0  0
 34 45  1  0  0  0  0
 35 39  1  0  0  0  0
 36 40  1  0  0  0  0
 37 34  1  0  0  0  0
 37 36  1  0  0  0  0
 38 35  1  0  0  0  0
 38 37  1  0  0  0  0
 39 36  2  0  0  0  0
 40 41  1  0  0  0  0
 41 42  3  0  0  0  0
 43 44  1  0  0  0  0
 45 43  1  0  0  0  0
 45 44  1  0  0  0  0
M  END
>  <MODEL>
1

>  <REMARK>
 VINA RESULT:      -7.2      0.000      0.000
  Name = 
  10 active torsions:
  status: ('A' for Active; 'I' for Inactive)
    1  A    between atoms: C_1  and  C_16
    2  A    between atoms: C_2  and  O_36
    3  A    between atoms: C_3  and  C_17
    4  A    between atoms: C_8  and  C_26
    5  A    between atoms: C_10  and  C_11
    6  A    between atoms: C_12  and  C_16
    7  A    between atoms: C_12  and  N_25
    8  A    between atoms: C_12  and  C_44
    9  A    between atoms: C_18  and  O_36
   10  A    between atoms: C_19  and  C_42
                            x       y       z     vdW  Elec       q    Type
                         _______ _______ _______ _____ _____    ______ ____

>  <TORSDO>
F 10

$$$$
=
 OpenBabel11062414173D

 45 51  0  0  1  0  0  0  0  0999 V2000
  183.7180  178.6820  140.4760 C   0  0  1  0  0  3  0  0  0  0  0  0
  183.6090  176.5930  137.8990 C   0  0  2  0  0  3  0  0  0  0  0  0
  183.2100  178.0130  138.2360 C   0  0  2  0  0  3  0  0  0  0  0  0
  184.9470  176.6900  137.1930 C   0  0  0  0  0  2  0  0  0  0  0  0
  185.6140  177.8660  137.8620 C   0  0  2  0  0  3  0  0  0  0  0  0
  184.5010  178.7920  138.3250 C   0  0  2  0  0  3  0  0  0  0  0  0
  186.5260  178.5770  136.8840 C   0  0  0  0  0  1  0  0  0  0  0  0
  184.7410  179.2040  139.6530 O   0  0  0  0  0  0  0  0  0  0  0  0
  182.6410  178.0530  139.6220 C   0  0  2  0  0  3  0  0  0  0  0  0
  182.7970  174.2810  136.9780 C   0  0  1  0  0  3  0  0  0  0  0  0
  182.5280  175.7950  137.1540 C   0  0  1  0  0  3  0  0  0  0  0  0
  179.3450  173.5820  139.4410 O   0  0  0  0  0  0  0  0  0  0  0  0
  181.1460  176.1370  137.7180 C   0  0  0  0  0  2  0  0  0  0  0  0
  180.7540  173.1520  137.6990 O   0  0  0  0  0  0  0  0  0  0  0  0
  181.5030  173.5800  136.5660 C   0  0  0  0  0  2  0  0  0  0  0  0
  180.2690  174.0010  138.7020 C   0  0  0  0  0  0  0  0  0  0  0  0
  180.8500  175.3550  138.9860 C   0  0  0  0  0  2  0  0  0  0  0  0
  183.8450  174.0680  135.8730 C   0  0  2  0  0  3  0  0  0  0  0  0
  184.1840  172.5920  135.5370 C   0  0  2  0  0  3  0  0  0  0  0  0
  183.4830  171.6720  136.3320 O   0  0  0  0  0  1  0  0  0  0  0  0
  185.3190  173.0550  137.8440 C   0  0  0  0  0  1  0  0  0  0  0  0
  185.1360  173.4300  136.3710 C   0  0  2  0  0  0  0  0  0  0  0  0
  186.2720  173.8470  135.6780 O   0  0  0  0  0  1  0  0  0  0  0  0
  181.2900  179.8850  138.6210 C   0  0  0  0  0  2  0  0  0  0  0  0
  180.9610  179.3680  141.0900 C   0  0  1  0  0  3  0  0  0  0  0  0
  180.1420  181.3760  139.8180 C   0  0  0  0  0  2  0  0  0  0  0  0
  180.0980  180.6140  138.6400 O   0  0  0  0  0  0  0  0  0  0  0  0
  181.2930  178.7860  139.6910 C   0  0  2  0  0  3  0  0  0  0  0  0
  179.9040  180.4740  141.0260 C   0  0  0  0  0  2  0  0  0  0  0  0
  180.8400  178.2380  143.2030 O   0  0  0  0  0  0  0  0  0  0  0  0
  179.5150  177.3300  141.5220 N   0  0  0  0  0  1  0  0  0  0  0  0
  180.4530  178.2920  142.0040 C   0  0  0  0  0  0  0  0  0  0  0  0
  184.2890  177.6160  141.4050 C   0  0  0  0  0  2  0  0  0  0  0  0
  184.5210  178.1200  142.8380 C   0  0  1  0  0  3  0  0  0  0  0  0
  187.5280  176.9280  144.4370 C   0  0  0  0  0  2  0  0  0  0  0  0
  187.0300  177.9640  142.5220 C   0  0  0  0  0  0  0  0  0  0  0  0
  185.8740  177.8010  143.3020 N   0  0  0  0  0  0  0  0  0  0  0  0
  186.1350  177.1970  144.4910 O   0  0  0  0  0  0  0  0  0  0  0  0
  188.0610  177.4640  143.1460 C   0  0  0  0  0  3  0  0  0  0  0  0
  187.0400  178.5700  141.2640 O   0  0  0  0  0  0  0  0  0  0  0  0
  188.0800  178.4050  140.3830 C   0  0  0  0  0  0  0  0  0  0  0  0
  188.9930  178.2660  139.6010 C   0  0  0  0  0  3  0  0  0  0  0  0
  183.3030  179.8890  144.1420 C   0  0  0  0  0  2  0  0  0  0  0  0
  184.7910  180.0950  144.2900 C   0  0  0  0  0  2  0  0  0  0  0  0
  184.2270  179.6110  142.9720 C   0  0  0  0  0  3  0  0  0  0  0  0
  1 33  1  1  0  0  0
  2  4  1  6  0  0  0
  2  3  1  0  0  0  0
  3  6  1  0  0  0  0
  3  9  1  0  0  0  0
  4  5  1  0  0  0  0
  5  6  1  0  0  0  0
  6  8  1  0  0  0  0
  7  5  1  0  0  0  0
  8  1  1  0  0  0  0
  9 28  1  0  0  0  0
  9  1  1  0  0  0  0
 10 11  1  0  0  0  0
 11 13  1  0  0  0  0
 11  2  1  0  0  0  0
 13 17  1  0  0  0  0
 14 16  1  0  0  0  0
 15 10  1  0  0  0  0
 15 14  1  0  0  0  0
 16 17  1  0  0  0  0
 16 12  2  0  0  0  0
 18 22  1  0  0  0  0
 18 10  1  0  0  0  0
 19 18  1  0  0  0  0
 19 20  1  0  0  0  0
 19 22  1  0  0  0  0
 22 21  1  0  0  0  0
 23 22  1  0  0  0  0
 24 27  1  0  0  0  0
 24 28  1  0  0  0  0
 25 32  1  0  0  0  0
 26 29  1  0  0  0  0
 27 26  1  0  0  0  0
 28 25  1  0  0  0  0
 29 25  1  0  0  0  0
 31 32  1  0  0  0  0
 32 30  2  0  0  0  0
 33 34  1  0  0  0  0
 34 45  1  0  0  0  0
 34 37  1  0  0  0  0
 35 38  1  0  0  0  0
 36 39  2  0  0  0  0
 36 37  1  0  0  0  0
 37 38  1  0  0  0  0
 39 35  1  0  0  0  0
 40 36  1  0  0  0  0
 41 40  1  0  0  0  0
 42 41  3  0  0  0  0
 43 44  1  0  0  0  0
 45 43  1  0  0  0  0
 45 44  1  0  0  0  0
M  END
>  <MODEL>
2

>  <REMARK>
 VINA RESULT:      -6.4      0.569      1.671
  Name = 
  10 active torsions:
  status: ('A' for Active; 'I' for Inactive)
    1  A    between atoms: C_1  and  C_16
    2  A    between atoms: C_2  and  O_36
    3  A    between atoms: C_3  and  C_17
    4  A    between atoms: C_8  and  C_26
    5  A    between atoms: C_10  and  C_11
    6  A    between atoms: C_12  and  C_16
    7  A    between atoms: C_12  and  N_25
    8  A    between atoms: C_12  and  C_44
    9  A    between atoms: C_18  and  O_36
   10  A    between atoms: C_19  and  C_42
                            x       y       z     vdW  Elec       q    Type
                         _______ _______ _______ _____ _____    ______ ____

>  <TORSDO>
F 10

$$$$
=
 OpenBabel11062414173D

 45 51  0  0  1  0  0  0  0  0999 V2000
  184.2340  179.0490  140.7640 C   0  0  1  0  0  3  0  0  0  0  0  0
  183.6090  176.8910  138.3220 C   0  0  2  0  0  3  0  0  0  0  0  0
  183.4090  178.3590  138.6280 C   0  0  2  0  0  3  0  0  0  0  0  0
  184.8620  176.8060  137.4740 C   0  0  0  0  0  2  0  0  0  0  0  0
  185.7250  177.9220  138.0080 C   0  0  2  0  0  3  0  0  0  0  0  0
  184.7810  178.9870  138.5400 C   0  0  2  0  0  3  0  0  0  0  0  0
  186.5960  178.4850  136.9040 C   0  0  0  0  0  1  0  0  0  0  0  0
  185.2110  179.4180  139.8120 O   0  0  0  0  0  0  0  0  0  0  0  0
  183.0070  178.5180  140.0630 C   0  0  2  0  0  3  0  0  0  0  0  0
  182.5130  174.6840  137.4380 C   0  0  1  0  0  3  0  0  0  0  0  0
  182.3700  176.1960  137.7380 C   0  0  1  0  0  3  0  0  0  0  0  0
  179.5020  174.0060  140.4290 O   0  0  0  0  0  0  0  0  0  0  0  0
  181.1280  176.5700  138.5520 C   0  0  0  0  0  2  0  0  0  0  0  0
  180.5610  173.6150  138.4460 O   0  0  0  0  0  0  0  0  0  0  0  0
  181.1280  174.0740  137.2230 C   0  0  0  0  0  2  0  0  0  0  0  0
  180.3080  174.4240  139.5620 C   0  0  0  0  0  0  0  0  0  0  0  0
  181.0090  175.7270  139.8100 C   0  0  0  0  0  2  0  0  0  0  0  0
  183.3410  174.4870  136.1560 C   0  0  2  0  0  3  0  0  0  0  0  0
  183.4800  173.0250  135.6580 C   0  0  2  0  0  3  0  0  0  0  0  0
  182.8370  172.0960  136.4910 O   0  0  0  0  0  1  0  0  0  0  0  0
  185.0180  173.1900  137.7650 C   0  0  0  0  0  1  0  0  0  0  0  0
  184.6310  173.7080  136.3770 C   0  0  2  0  0  0  0  0  0  0  0  0
  185.6710  174.0940  135.5320 O   0  0  0  0  0  1  0  0  0  0  0  0
  180.8740  178.7720  141.3170 C   0  0  0  0  0  2  0  0  0  0  0  0
  180.9680  179.6400  138.9270 C   0  0  1  0  0  3  0  0  0  0  0  0
  178.9310  179.3070  140.3630 C   0  0  0  0  0  2  0  0  0  0  0  0
  179.7070  179.5130  141.5140 O   0  0  0  0  0  0  0  0  0  0  0  0
  181.7630  179.4030  140.2380 C   0  0  2  0  0  3  0  0  0  0  0  0
  179.5270  180.0840  139.1920 C   0  0  0  0  0  2  0  0  0  0  0  0
  181.4640  180.7110  136.8380 O   0  0  0  0  0  0  0  0  0  0  0  0
  182.4480  181.6880  138.7040 N   0  0  0  0  0  1  0  0  0  0  0  0
  181.6310  180.6910  138.0880 C   0  0  0  0  0  0  0  0  0  0  0  0
  184.7840  177.9610  141.6800 C   0  0  0  0  0  2  0  0  0  0  0  0
  186.1160  178.3420  142.3450 C   0  0  1  0  0  3  0  0  0  0  0  0
  186.6980  177.4100  145.7820 C   0  0  0  0  0  2  0  0  0  0  0  0
  185.2370  178.7020  144.6940 C   0  0  0  0  0  0  0  0  0  0  0  0
  186.0930  178.0620  143.7830 N   0  0  0  0  0  0  0  0  0  0  0  0
  186.9830  177.2430  144.4020 O   0  0  0  0  0  0  0  0  0  0  0  0
  185.5440  178.3530  145.9120 C   0  0  0  0  0  3  0  0  0  0  0  0
  184.2210  179.5840  144.3180 O   0  0  0  0  0  0  0  0  0  0  0  0
  182.8980  179.2190  144.3280 C   0  0  0  0  0  0  0  0  0  0  0  0
  181.7340  178.8880  144.3360 C   0  0  0  0  0  3  0  0  0  0  0  0
  188.0820  178.6420  140.8090 C   0  0  0  0  0  2  0  0  0  0  0  0
  188.5770  178.2940  142.1910 C   0  0  0  0  0  2  0  0  0  0  0  0
  187.3040  177.6640  141.6680 C   0  0  0  0  0  3  0  0  0  0  0  0
  1 33  1  1  0  0  0
  2  4  1  6  0  0  0
  2  3  1  0  0  0  0
  3  9  1  0  0  0  0
  4  5  1  0  0  0  0
  5  6  1  0  0  0  0
  6  3  1  0  0  0  0
  6  8  1  0  0  0  0
  7  5  1  0  0  0  0
  8  1  1  0  0  0  0
  9 28  1  0  0  0  0
  9  1  1  0  0  0  0
 10 11  1  0  0  0  0
 11  2  1  0  0  0  0
 11 13  1  0  0  0  0
 13 17  1  0  0  0  0
 14 16  1  0  0  0  0
 15 10  1  0  0  0  0
 15 14  1  0  0  0  0
 16 17  1  0  0  0  0
 16 12  2  0  0  0  0
 18 22  1  0  0  0  0
 18 10  1  0  0  0  0
 19 18  1  0  0  0  0
 19 22  1  0  0  0  0
 19 20  1  0  0  0  0
 22 21  1  0  0  0  0
 23 22  1  0  0  0  0
 24 27  1  0  0  0  0
 25 29  1  0  0  0  0
 25 28  1  0  0  0  0
 26 27  1  0  0  0  0
 28 24  1  0  0  0  0
 29 26  1  0  0  0  0
 30 32  2  0  0  0  0
 32 31  1  0  0  0  0
 32 25  1  0  0  0  0
 33 34  1  0  0  0  0
 34 37  1  0  0  0  0
 35 39  1  0  0  0  0
 36 39  2  0  0  0  0
 37 38  1  0  0  0  0
 37 36  1  0  0  0  0
 38 35  1  0  0  0  0
 40 41  1  0  0  0  0
 40 36  1  0  0  0  0
 41 42  3  0  0  0  0
 43 45  1  0  0  0  0
 43 44  1  0  0  0  0
 45 44  1  0  0  0  0
 45 34  1  0  0  0  0
M  END
>  <MODEL>
3

>  <REMARK>
 VINA RESULT:      -6.2      1.462      2.837
  Name = 
  10 active torsions:
  status: ('A' for Active; 'I' for Inactive)
    1  A    between atoms: C_1  and  C_16
    2  A    between atoms: C_2  and  O_36
    3  A    between atoms: C_3  and  C_17
    4  A    between atoms: C_8  and  C_26
    5  A    between atoms: C_10  and  C_11
    6  A    between atoms: C_12  and  C_16
    7  A    between atoms: C_12  and  N_25
    8  A    between atoms: C_12  and  C_44
    9  A    between atoms: C_18  and  O_36
   10  A    between atoms: C_19  and  C_42
                            x       y       z     vdW  Elec       q    Type
                         _______ _______ _______ _____ _____    ______ ____

>  <TORSDO>
F 10

$$$$
=
 OpenBabel11062414173D

 45 51  0  0  1  0  0  0  0  0999 V2000
  184.3660  175.1900  136.3320 C   0  0  1  0  0  3  0  0  0  0  0  0
  182.0050  176.7940  138.0260 C   0  0  2  0  0  3  0  0  0  0  0  0
  182.8460  176.9810  136.7820 C   0  0  2  0  0  3  0  0  0  0  0  0
  180.6730  176.2480  137.5530 C   0  0  0  0  0  2  0  0  0  0  0  0
  181.0420  175.3950  136.3650 C   0  0  2  0  0  3  0  0  0  0  0  0
  182.3000  176.0030  135.7670 C   0  0  2  0  0  3  0  0  0  0  0  0
  179.9170  175.3940  135.3510 C   0  0  0  0  0  1  0  0  0  0  0  0
  183.2430  174.9890  135.4990 O   0  0  0  0  0  0  0  0  0  0  0  0
  184.2440  176.5120  137.0510 C   0  0  2  0  0  3  0  0  0  0  0  0
  180.8660  179.0940  138.5360 C   0  0  1  0  0  3  0  0  0  0  0  0
  181.9270  178.0370  138.9250 C   0  0  1  0  0  3  0  0  0  0  0  0
  178.9310  178.2430  142.2780 O   0  0  0  0  0  0  0  0  0  0  0  0
  181.8990  177.6160  140.3970 C   0  0  0  0  0  2  0  0  0  0  0  0
  179.6450  179.6020  140.5900 O   0  0  0  0  0  0  0  0  0  0  0  0
  180.6600  180.0610  139.7020 C   0  0  0  0  0  2  0  0  0  0  0  0
  179.6780  178.3830  141.2790 C   0  0  0  0  0  0  0  0  0  0  0  0
  180.5030  177.2100  140.8370 C   0  0  0  0  0  2  0  0  0  0  0  0
  181.3570  179.8940  137.3170 C   0  0  2  0  0  3  0  0  0  0  0  0
  180.4370  181.0540  136.8530 C   0  0  2  0  0  3  0  0  0  0  0  0
  179.2690  181.1710  137.6220 O   0  0  0  0  0  1  0  0  0  0  0  0
  179.2130  178.8640  136.1220 C   0  0  0  0  0  1  0  0  0  0  0  0
  180.4670  179.7420  136.0890 C   0  0  2  0  0  0  0  0  0  0  0  0
  181.1600  179.8100  134.8810 O   0  0  0  0  0  1  0  0  0  0  0  0
  185.8590  177.1330  135.2650 C   0  0  0  0  0  2  0  0  0  0  0  0
  186.4510  177.7180  137.6690 C   0  0  1  0  0  3  0  0  0  0  0  0
  187.9600  177.7680  135.6590 C   0  0  0  0  0  2  0  0  0  0  0  0
  186.8530  178.0140  134.8320 O   0  0  0  0  0  0  0  0  0  0  0  0
  185.3070  177.5420  136.6370 C   0  0  2  0  0  3  0  0  0  0  0  0
  187.7040  178.3430  137.0500 C   0  0  0  0  0  2  0  0  0  0  0  0
  185.0110  179.3530  138.6750 O   0  0  0  0  0  0  0  0  0  0  0  0
  186.7110  178.5590  140.0480 N   0  0  0  0  0  1  0  0  0  0  0  0
  186.0090  178.5930  138.8050 C   0  0  0  0  0  0  0  0  0  0  0  0
  184.4510  174.0750  137.3700 C   0  0  0  0  0  2  0  0  0  0  0  0
  185.5220  173.0220  137.0450 C   0  0  1  0  0  3  0  0  0  0  0  0
  184.7520  169.9870  135.2530 C   0  0  0  0  0  2  0  0  0  0  0  0
  183.6260  171.4190  136.5440 C   0  0  0  0  0  0  0  0  0  0  0  0
  184.9420  171.8680  136.3540 N   0  0  0  0  0  0  0  0  0  0  0  0
  185.6580  171.0380  135.5500 O   0  0  0  0  0  0  0  0  0  0  0  0
  183.4430  170.2950  135.9080 C   0  0  0  0  0  3  0  0  0  0  0  0
  182.6770  172.0960  137.3140 O   0  0  0  0  0  0  0  0  0  0  0  0
  181.3340  171.8240  137.2230 C   0  0  0  0  0  0  0  0  0  0  0  0
  180.1520  171.5770  137.1480 C   0  0  0  0  0  3  0  0  0  0  0  0
  187.7110  174.2490  137.1690 C   0  0  0  0  0  2  0  0  0  0  0  0
  187.9460  172.8660  136.6140 C   0  0  0  0  0  2  0  0  0  0  0  0
  186.6830  173.6170  136.2520 C   0  0  0  0  0  3  0  0  0  0  0  0
  1  9  1  0  0  0  0
  1 33  1  1  0  0  0
  2  4  1  6  0  0  0
  2 11  1  0  0  0  0
  3  9  1  0  0  0  0
  3  2  1  0  0  0  0
  5  4  1  0  0  0  0
  6  5  1  0  0  0  0
  6  3  1  0  0  0  0
  7  5  1  0  0  0  0
  8  6  1  0  0  0  0
  8  1  1  0  0  0  0
 10 11  1  0  0  0  0
 10 15  1  0  0  0  0
 11 13  1  0  0  0  0
 13 17  1  0  0  0  0
 14 16  1  0  0  0  0
 15 14  1  0  0  0  0
 16 12  2  0  0  0  0
 17 16  1  0  0  0  0
 18 10  1  0  0  0  0
 19 18  1  0  0  0  0
 19 20  1  0  0  0  0
 22 21  1  0  0  0  0
 22 19  1  0  0  0  0
 22 18  1  0  0  0  0
 23 22  1  0  0  0  0
 24 28  1  0  0  0  0
 25 32  1  0  0  0  0
 26 29  1  0  0  0  0
 27 24  1  0  0  0  0
 27 26  1  0  0  0  0
 28  9  1  0  0  0  0
 28 25  1  0  0  0  0
 29 25  1  0  0  0  0
 30 32  2  0  0  0  0
 32 31  1  0  0  0  0
 34 33  1  0  0  0  0
 35 38  1  0  0  0  0
 35 39  1  0  0  0  0
 36 40  1  0  0  0  0
 37 36  1  0  0  0  0
 37 34  1  0  0  0  0
 38 37  1  0  0  0  0
 39 36  2  0  0  0  0
 41 40  1  0  0  0  0
 42 41  3  0  0  0  0
 44 43  1  0  0  0  0
 45 44  1  0  0  0  0
 45 34  1  0  0  0  0
 45 43  1  0  0  0  0
M  END
>  <MODEL>
4

>  <REMARK>
 VINA RESULT:      -6.0      3.229      7.716
  Name = 
  10 active torsions:
  status: ('A' for Active; 'I' for Inactive)
    1  A    between atoms: C_1  and  C_16
    2  A    between atoms: C_2  and  O_36
    3  A    between atoms: C_3  and  C_17
    4  A    between atoms: C_8  and  C_26
    5  A    between atoms: C_10  and  C_11
    6  A    between atoms: C_12  and  C_16
    7  A    between atoms: C_12  and  N_25
    8  A    between atoms: C_12  and  C_44
    9  A    between atoms: C_18  and  O_36
   10  A    between atoms: C_19  and  C_42
                            x       y       z     vdW  Elec       q    Type
                         _______ _______ _______ _____ _____    ______ ____

>  <TORSDO>
F 10

$$$$
=
 OpenBabel11062414173D

 45 51  0  0  1  0  0  0  0  0999 V2000
  183.8070  179.0620  140.1060 C   0  0  1  0  0  3  0  0  0  0  0  0
  184.1520  176.7690  137.7310 C   0  0  2  0  0  3  0  0  0  0  0  0
  183.7530  178.2220  137.8670 C   0  0  2  0  0  3  0  0  0  0  0  0
  185.6110  176.7710  137.3210 C   0  0  0  0  0  2  0  0  0  0  0  0
  186.1730  177.9800  138.0260 C   0  0  2  0  0  3  0  0  0  0  0  0
  185.0300  178.9720  138.1700 C   0  0  2  0  0  3  0  0  0  0  0  0
  187.3010  178.5830  137.2130 C   0  0  0  0  0  1  0  0  0  0  0  0
  185.0030  179.4860  139.4820 O   0  0  0  0  0  0  0  0  0  0  0  0
  182.9080  178.3940  139.0930 C   0  0  2  0  0  3  0  0  0  0  0  0
  183.6370  174.4730  136.5850 C   0  0  1  0  0  3  0  0  0  0  0  0
  183.2170  175.9410  136.8360 C   0  0  1  0  0  3  0  0  0  0  0  0
  180.0580  173.3030  138.6590 O   0  0  0  0  0  0  0  0  0  0  0  0
  181.7660  176.1230  137.2880 C   0  0  0  0  0  2  0  0  0  0  0  0
  181.6490  173.1250  137.0330 O   0  0  0  0  0  0  0  0  0  0  0  0
  182.4530  173.6980  136.0070 C   0  0  0  0  0  2  0  0  0  0  0  0
  181.0020  173.8530  138.0400 C   0  0  0  0  0  0  0  0  0  0  0  0
  181.4300  175.2260  138.4680 C   0  0  0  0  0  2  0  0  0  0  0  0
  184.7940  174.4310  135.5720 C   0  0  2  0  0  3  0  0  0  0  0  0
  185.1960  173.0230  135.0610 C   0  0  2  0  0  3  0  0  0  0  0  0
  184.4410  171.9910  135.6390 O   0  0  0  0  0  1  0  0  0  0  0  0
  186.0870  173.1510  137.5150 C   0  0  0  0  0  1  0  0  0  0  0  0
  186.0430  173.7370  136.1010 C   0  0  2  0  0  0  0  0  0  0  0  0
  187.2320  174.2600  135.5940 O   0  0  0  0  0  1  0  0  0  0  0  0
  181.9790  180.5970  138.4100 C   0  0  0  0  0  2  0  0  0  0  0  0
  180.6090  179.1630  140.0030 C   0  0  1  0  0  3  0  0  0  0  0  0
  180.2540  181.5830  139.4220 C   0  0  0  0  0  2  0  0  0  0  0  0
  180.8410  181.3700  138.1650 O   0  0  0  0  0  0  0  0  0  0  0  0
  181.6090  179.1650  138.8170 C   0  0  2  0  0  3  0  0  0  0  0  0
  179.5870  180.2990  139.9070 C   0  0  0  0  0  2  0  0  0  0  0  0
  180.0240  177.0730  141.0260 O   0  0  0  0  0  0  0  0  0  0  0  0
  178.9370  177.5270  139.0220 N   0  0  0  0  0  1  0  0  0  0  0  0
  179.8580  177.8660  140.0600 C   0  0  0  0  0  0  0  0  0  0  0  0
  184.1230  178.0630  141.2140 C   0  0  0  0  0  2  0  0  0  0  0  0
  185.2700  178.5150  142.1310 C   0  0  1  0  0  3  0  0  0  0  0  0
  184.9440  178.5440  145.7250 C   0  0  0  0  0  2  0  0  0  0  0  0
  183.5710  178.8220  143.9850 C   0  0  0  0  0  0  0  0  0  0  0  0
  184.8620  178.5010  143.5390 N   0  0  0  0  0  0  0  0  0  0  0  0
  185.7270  178.2970  144.5670 O   0  0  0  0  0  0  0  0  0  0  0  0
  183.5480  178.8620  145.2890 C   0  0  0  0  0  3  0  0  0  0  0  0
  182.4910  179.0640  143.1330 O   0  0  0  0  0  0  0  0  0  0  0  0
  181.1900  178.9760  143.5610 C   0  0  0  0  0  0  0  0  0  0  0  0
  180.0450  178.8930  143.9450 C   0  0  0  0  0  3  0  0  0  0  0  0
  187.6200  178.5080  141.2420 C   0  0  0  0  0  2  0  0  0  0  0  0
  187.6510  178.2940  142.7350 C   0  0  0  0  0  2  0  0  0  0  0  0
  186.5340  177.6890  141.9130 C   0  0  0  0  0  3  0  0  0  0  0  0
  1 33  1  1  0  0  0
  2  4  1  6  0  0  0
  2  3  1  0  0  0  0
  3  6  1  0  0  0  0
  3  9  1  0  0  0  0
  4  5  1  0  0  0  0
  5  6  1  0  0  0  0
  6  8  1  0  0  0  0
  7  5  1  0  0  0  0
  8  1  1  0  0  0  0
  9  1  1  0  0  0  0
 10 11  1  0  0  0  0
 11 13  1  0  0  0  0
 11  2  1  0  0  0  0
 13 17  1  0  0  0  0
 14 16  1  0  0  0  0
 15 10  1  0  0  0  0
 15 14  1  0  0  0  0
 16 17  1  0  0  0  0
 16 12  2  0  0  0  0
 18 22  1  0  0  0  0
 18 10  1  0  0  0  0
 19 18  1  0  0  0  0
 19 20  1  0  0  0  0
 19 22  1  0  0  0  0
 22 21  1  0  0  0  0
 23 22  1  0  0  0  0
 24 28  1  0  0  0  0
 25 32  1  0  0  0  0
 26 29  1  0  0  0  0
 27 24  1  0  0  0  0
 27 26  1  0  0  0  0
 28  9  1  0  0  0  0
 28 25  1  0  0  0  0
 29 25  1  0  0  0  0
 31 32  1  0  0  0  0
 32 30  2  0  0  0  0
 33 34  1  0  0  0  0
 34 37  1  0  0  0  0
 36 39  2  0  0  0  0
 37 36  1  0  0  0  0
 37 38  1  0  0  0  0
 38 35  1  0  0  0  0
 39 35  1  0  0  0  0
 40 41  1  0  0  0  0
 40 36  1  0  0  0  0
 41 42  3  0  0  0  0
 43 45  1  0  0  0  0
 43 44  1  0  0  0  0
 45 34  1  0  0  0  0
 45 44  1  0  0  0  0
M  END
>  <MODEL>
5

>  <REMARK>
 VINA RESULT:      -6.0      1.312      2.661
  Name = 
  10 active torsions:
  status: ('A' for Active; 'I' for Inactive)
    1  A    between atoms: C_1  and  C_16
    2  A    between atoms: C_2  and  O_36
    3  A    between atoms: C_3  and  C_17
    4  A    between atoms: C_8  and  C_26
    5  A    between atoms: C_10  and  C_11
    6  A    between atoms: C_12  and  C_16
    7  A    between atoms: C_12  and  N_25
    8  A    between atoms: C_12  and  C_44
    9  A    between atoms: C_18  and  O_36
   10  A    between atoms: C_19  and  C_42
                            x       y       z     vdW  Elec       q    Type
                         _______ _______ _______ _____ _____    ______ ____

>  <TORSDO>
F 10

$$$$
=
 OpenBabel11062414173D

 45 51  0  0  1  0  0  0  0  0999 V2000
  182.7440  178.9430  140.1850 C   0  0  1  0  0  3  0  0  0  0  0  0
  185.1210  177.6470  138.2650 C   0  0  2  0  0  3  0  0  0  0  0  0
  184.5200  178.9990  138.5840 C   0  0  2  0  0  3  0  0  0  0  0  0
  186.3660  177.5290  139.1210 C   0  0  0  0  0  2  0  0  0  0  0  0
  186.0010  178.2740  140.3800 C   0  0  2  0  0  3  0  0  0  0  0  0
  184.9910  179.3380  139.9790 C   0  0  2  0  0  3  0  0  0  0  0  0
  187.2330  178.9120  140.9880 C   0  0  0  0  0  1  0  0  0  0  0  0
  183.9080  179.3360  140.8820 O   0  0  0  0  0  0  0  0  0  0  0  0
  183.0320  178.8660  138.7040 C   0  0  2  0  0  3  0  0  0  0  0  0
  186.7750  177.0870  136.3150 C   0  0  1  0  0  3  0  0  0  0  0  0
  185.3250  177.3880  136.7640 C   0  0  1  0  0  3  0  0  0  0  0  0
  185.3970  173.1820  135.1640 O   0  0  0  0  0  0  0  0  0  0  0  0
  184.2800  176.3910  136.2590 C   0  0  0  0  0  2  0  0  0  0  0  0
  186.6410  175.0800  134.9280 O   0  0  0  0  0  0  0  0  0  0  0  0
  186.7590  176.5000  134.9040 C   0  0  0  0  0  2  0  0  0  0  0  0
  185.5750  174.3780  135.5040 C   0  0  0  0  0  0  0  0  0  0  0  0
  184.6820  174.9570  136.5610 C   0  0  0  0  0  2  0  0  0  0  0  0
  187.5920  178.3900  136.2950 C   0  0  2  0  0  3  0  0  0  0  0  0
  189.0500  178.2680  135.7820 C   0  0  2  0  0  3  0  0  0  0  0  0
  189.4040  176.9540  135.4370 O   0  0  0  0  0  1  0  0  0  0  0  0
  189.0580  177.1790  138.1580 C   0  0  0  0  0  1  0  0  0  0  0  0
  188.7650  178.3900  137.2680 C   0  0  2  0  0  0  0  0  0  0  0  0
  189.0570  179.6480  137.7950 O   0  0  0  0  0  1  0  0  0  0  0  0
  182.1250  181.1810  138.7170 C   0  0  0  0  0  2  0  0  0  0  0  0
  180.8950  179.4220  137.3520 C   0  0  1  0  0  3  0  0  0  0  0  0
  180.0910  181.7200  137.9790 C   0  0  0  0  0  2  0  0  0  0  0  0
  181.4190  182.1730  138.0320 O   0  0  0  0  0  0  0  0  0  0  0  0
  182.2730  179.9100  137.8720 C   0  0  2  0  0  3  0  0  0  0  0  0
  179.9720  180.5820  136.9690 C   0  0  0  0  0  2  0  0  0  0  0  0
  181.5150  179.0210  135.0690 O   0  0  0  0  0  0  0  0  0  0  0  0
  180.7270  177.1600  136.2170 N   0  0  0  0  0  1  0  0  0  0  0  0
  181.0640  178.5460  136.1460 C   0  0  0  0  0  0  0  0  0  0  0  0
  182.2870  177.5700  140.6660 C   0  0  0  0  0  2  0  0  0  0  0  0
  180.7860  177.5070  140.9900 C   0  0  1  0  0  3  0  0  0  0  0  0
  179.1360  180.6760  141.4980 C   0  0  0  0  0  2  0  0  0  0  0  0
  180.3820  179.2980  142.7370 C   0  0  0  0  0  0  0  0  0  0  0  0
  180.2810  178.8130  141.4240 N   0  0  0  0  0  0  0  0  0  0  0  0
  179.5510  179.6360  140.6260 O   0  0  0  0  0  0  0  0  0  0  0  0
  179.7190  180.4150  142.8510 C   0  0  0  0  0  3  0  0  0  0  0  0
  181.0900  178.6500  143.7520 O   0  0  0  0  0  0  0  0  0  0  0  0
  182.3850  178.9820  144.0640 C   0  0  0  0  0  0  0  0  0  0  0  0
  183.5280  179.2670  144.3440 C   0  0  0  0  0  3  0  0  0  0  0  0
  180.1600  175.4620  139.6730 C   0  0  0  0  0  2  0  0  0  0  0  0
  178.9340  176.0030  140.3670 C   0  0  0  0  0  2  0  0  0  0  0  0
  179.9730  176.9590  139.8220 C   0  0  0  0  0  3  0  0  0  0  0  0
  1 33  1  1  0  0  0
  1  8  1  0  0  0  0
  2  3  1  0  0  0  0
  2  4  1  1  0  0  0
  3  9  1  0  0  0  0
  3  6  1  0  0  0  0
  4  5  1  0  0  0  0
  5  7  1  0  0  0  0
  6  5  1  0  0  0  0
  6  8  1  0  0  0  0
  9  1  1  0  0  0  0
 10 11  1  0  0  0  0
 11  2  1  0  0  0  0
 12 16  2  0  0  0  0
 13 17  1  0  0  0  0
 13 11  1  0  0  0  0
 14 16  1  0  0  0  0
 15 14  1  0  0  0  0
 15 10  1  0  0  0  0
 16 17  1  0  0  0  0
 18 10  1  0  0  0  0
 18 22  1  0  0  0  0
 19 18  1  0  0  0  0
 19 22  1  0  0  0  0
 20 19  1  0  0  0  0
 22 23  1  0  0  0  0
 22 21  1  0  0  0  0
 25 28  1  0  0  0  0
 26 27  1  0  0  0  0
 27 24  1  0  0  0  0
 28  9  1  0  0  0  0
 28 24  1  0  0  0  0
 29 25  1  0  0  0  0
 29 26  1  0  0  0  0
 30 32  2  0  0  0  0
 32 31  1  0  0  0  0
 32 25  1  0  0  0  0
 33 34  1  0  0  0  0
 34 37  1  0  0  0  0
 35 39  1  0  0  0  0
 36 39  2  0  0  0  0
 36 40  1  0  0  0  0
 37 36  1  0  0  0  0
 38 37  1  0  0  0  0
 38 35  1  0  0  0  0
 40 41  1  0  0  0  0
 41 42  3  0  0  0  0
 43 45  1  0  0  0  0
 43 44  1  0  0  0  0
 45 44  1  0  0  0  0
 45 34  1  0  0  0  0
M  END
>  <MODEL>
6

>  <REMARK>
 VINA RESULT:      -5.7      2.577      5.410
  Name = 
  10 active torsions:
  status: ('A' for Active; 'I' for Inactive)
    1  A    between atoms: C_1  and  C_16
    2  A    between atoms: C_2  and  O_36
    3  A    between atoms: C_3  and  C_17
    4  A    between atoms: C_8  and  C_26
    5  A    between atoms: C_10  and  C_11
    6  A    between atoms: C_12  and  C_16
    7  A    between atoms: C_12  and  N_25
    8  A    between atoms: C_12  and  C_44
    9  A    between atoms: C_18  and  O_36
   10  A    between atoms: C_19  and  C_42
                            x       y       z     vdW  Elec       q    Type
                         _______ _______ _______ _____ _____    ______ ____

>  <TORSDO>
F 10

$$$$
=
 OpenBabel11062414173D

 45 51  0  0  1  0  0  0  0  0999 V2000
  184.7750  176.0840  136.5910 C   0  0  1  0  0  3  0  0  0  0  0  0
  182.2040  177.6500  137.9900 C   0  0  2  0  0  3  0  0  0  0  0  0
  183.3880  177.9650  137.1020 C   0  0  2  0  0  3  0  0  0  0  0  0
  181.0190  177.4720  137.0620 C   0  0  0  0  0  2  0  0  0  0  0  0
  181.6290  176.8620  135.8240 C   0  0  2  0  0  3  0  0  0  0  0  0
  183.0640  177.3590  135.7560 C   0  0  2  0  0  3  0  0  0  0  0  0
  180.8570  177.2920  134.5940 C   0  0  0  0  0  1  0  0  0  0  0  0
  183.9310  176.2830  135.4750 O   0  0  0  0  0  0  0  0  0  0  0  0
  184.5880  177.2070  137.5840 C   0  0  2  0  0  3  0  0  0  0  0  0
  180.8490  179.6690  138.9580 C   0  0  1  0  0  3  0  0  0  0  0  0
  181.9970  178.6470  139.1400 C   0  0  1  0  0  3  0  0  0  0  0  0
  178.9440  177.8340  142.3450 O   0  0  0  0  0  0  0  0  0  0  0  0
  181.9860  177.9060  140.4790 C   0  0  0  0  0  2  0  0  0  0  0  0
  179.5550  179.5940  141.0280 O   0  0  0  0  0  0  0  0  0  0  0  0
  180.5360  180.3270  140.3010 C   0  0  0  0  0  2  0  0  0  0  0  0
  179.6900  178.2580  141.4290 C   0  0  0  0  0  0  0  0  0  0  0  0
  180.6270  177.2910  140.7680 C   0  0  0  0  0  2  0  0  0  0  0  0
  181.2810  180.7620  137.9650 C   0  0  2  0  0  3  0  0  0  0  0  0
  180.3770  182.0200  137.9070 C   0  0  2  0  0  3  0  0  0  0  0  0
  179.2720  181.9440  138.7690 O   0  0  0  0  0  1  0  0  0  0  0  0
  179.0190  180.1350  136.7110 C   0  0  0  0  0  1  0  0  0  0  0  0
  180.3010  180.9660  136.8170 C   0  0  2  0  0  0  0  0  0  0  0  0
  180.9080  181.3480  135.6210 O   0  0  0  0  0  1  0  0  0  0  0  0
  186.8280  177.7370  136.6450 C   0  0  0  0  0  2  0  0  0  0  0  0
  186.4860  178.0110  139.1510 C   0  0  1  0  0  3  0  0  0  0  0  0
  188.6600  178.0140  137.8870 C   0  0  0  0  0  2  0  0  0  0  0  0
  187.9980  178.4950  136.7460 O   0  0  0  0  0  0  0  0  0  0  0  0
  185.8280  178.0990  137.7490 C   0  0  2  0  0  3  0  0  0  0  0  0
  187.9390  178.4940  139.1440 C   0  0  0  0  0  2  0  0  0  0  0  0
  184.9360  179.7380  139.7570 O   0  0  0  0  0  0  0  0  0  0  0  0
  185.8870  178.5960  141.5450 N   0  0  0  0  0  1  0  0  0  0  0  0
  185.7270  178.8370  140.1460 C   0  0  0  0  0  0  0  0  0  0  0  0
  184.4340  174.7650  137.2750 C   0  0  0  0  0  2  0  0  0  0  0  0
  183.8570  173.7140  136.3140 C   0  0  1  0  0  3  0  0  0  0  0  0
  185.8330  170.7670  135.6550 C   0  0  0  0  0  2  0  0  0  0  0  0
  185.9470  172.9310  135.1150 C   0  0  0  0  0  0  0  0  0  0  0  0
  184.8580  172.7010  135.9710 N   0  0  0  0  0  0  0  0  0  0  0  0
  184.7660  171.3980  136.3470 O   0  0  0  0  0  0  0  0  0  0  0  0
  186.5770  171.8120  134.8860 C   0  0  0  0  0  3  0  0  0  0  0  0
  186.2760  174.1850  134.5960 O   0  0  0  0  0  0  0  0  0  0  0  0
  187.5440  174.7040  134.6910 C   0  0  0  0  0  0  0  0  0  0  0  0
  188.6620  175.1600  134.7650 C   0  0  0  0  0  3  0  0  0  0  0  0
  181.3520  173.5970  136.1620 C   0  0  0  0  0  2  0  0  0  0  0  0
  181.9390  172.2640  135.7640 C   0  0  0  0  0  2  0  0  0  0  0  0
  182.5880  173.0720  136.8670 C   0  0  0  0  0  3  0  0  0  0  0  0
  1 33  1  1  0  0  0
  1  9  1  0  0  0  0
  2  4  1  6  0  0  0
  2 11  1  0  0  0  0
  3  9  1  0  0  0  0
  3  2  1  0  0  0  0
  5  4  1  0  0  0  0
  6  5  1  0  0  0  0
  6  3  1  0  0  0  0
  7  5  1  0  0  0  0
  8  6  1  0  0  0  0
  8  1  1  0  0  0  0
  9 28  1  0  0  0  0
 10 11  1  0  0  0  0
 10 15  1  0  0  0  0
 11 13  1  0  0  0  0
 13 17  1  0  0  0  0
 14 16  1  0  0  0  0
 15 14  1  0  0  0  0
 16 12  2  0  0  0  0
 17 16  1  0  0  0  0
 18 10  1  0  0  0  0
 19 18  1  0  0  0  0
 19 20  1  0  0  0  0
 21 22  1  0  0  0  0
 22 19  1  0  0  0  0
 22 18  1  0  0  0  0
 23 22  1  0  0  0  0
 24 27  1  0  0  0  0
 24 28  1  0  0  0  0
 25 32  1  0  0  0  0
 26 29  1  0  0  0  0
 27 26  1  0  0  0  0
 28 25  1  0  0  0  0
 29 25  1  0  0  0  0
 30 32  2  0  0  0  0
 32 31  1  0  0  0  0
 34 45  1  0  0  0  0
 34 33  1  0  0  0  0
 35 38  1  0  0  0  0
 36 37  1  0  0  0  0
 37 34  1  0  0  0  0
 37 38  1  0  0  0  0
 39 36  2  0  0  0  0
 39 35  1  0  0  0  0
 40 41  1  0  0  0  0
 40 36  1  0  0  0  0
 41 42  3  0  0  0  0
 43 45  1  0  0  0  0
 44 43  1  0  0  0  0
 44 45  1  0  0  0  0
M  END
>  <MODEL>
7

>  <REMARK>
 VINA RESULT:      -5.5      2.885      7.645
  Name = 
  10 active torsions:
  status: ('A' for Active; 'I' for Inactive)
    1  A    between atoms: C_1  and  C_16
    2  A    between atoms: C_2  and  O_36
    3  A    between atoms: C_3  and  C_17
    4  A    between atoms: C_8  and  C_26
    5  A    between atoms: C_10  and  C_11
    6  A    between atoms: C_12  and  C_16
    7  A    between atoms: C_12  and  N_25
    8  A    between atoms: C_12  and  C_44
    9  A    between atoms: C_18  and  O_36
   10  A    between atoms: C_19  and  C_42
                            x       y       z     vdW  Elec       q    Type
                         _______ _______ _______ _____ _____    ______ ____

>  <TORSDO>
F 10

$$$$
=
 OpenBabel11062414173D

 45 51  0  0  1  0  0  0  0  0999 V2000
  183.6840  178.8610  141.2820 C   0  0  1  0  0  3  0  0  0  0  0  0
  183.3870  176.6720  138.8050 C   0  0  2  0  0  3  0  0  0  0  0  0
  182.8570  178.0350  139.1960 C   0  0  2  0  0  3  0  0  0  0  0  0
  184.5350  176.9270  137.8490 C   0  0  0  0  0  2  0  0  0  0  0  0
  185.1390  178.2110  138.3570 C   0  0  2  0  0  3  0  0  0  0  0  0
  184.0140  178.9910  139.0180 C   0  0  2  0  0  3  0  0  0  0  0  0
  185.7320  179.0020  137.2100 C   0  0  0  0  0  1  0  0  0  0  0  0
  184.4420  179.4870  140.2670 O   0  0  0  0  0  0  0  0  0  0  0  0
  182.5670  178.0530  140.6660 C   0  0  2  0  0  3  0  0  0  0  0  0
  181.7510  175.9790  136.8830 C   0  0  1  0  0  3  0  0  0  0  0  0
  182.3100  175.7000  138.2990 C   0  0  1  0  0  3  0  0  0  0  0  0
  183.4330  172.2070  135.6910 O   0  0  0  0  0  0  0  0  0  0  0  0
  182.7580  174.2550  138.5360 C   0  0  0  0  0  2  0  0  0  0  0  0
  181.8450  173.8450  135.6960 O   0  0  0  0  0  0  0  0  0  0  0  0
  180.9890  174.7510  136.3860 C   0  0  0  0  0  2  0  0  0  0  0  0
  182.9730  173.2300  136.2550 C   0  0  0  0  0  0  0  0  0  0  0  0
  183.7020  173.7760  137.4470 C   0  0  0  0  0  2  0  0  0  0  0  0
  180.7800  177.1710  136.9350 C   0  0  2  0  0  3  0  0  0  0  0  0
  179.9570  177.4310  135.6480 C   0  0  2  0  0  3  0  0  0  0  0  0
  180.2570  176.5330  134.6110 O   0  0  0  0  0  1  0  0  0  0  0  0
  182.3870  178.2100  135.0850 C   0  0  0  0  0  1  0  0  0  0  0  0
  181.1530  178.3030  135.9860 C   0  0  2  0  0  0  0  0  0  0  0  0
  180.8090  179.5690  136.4610 O   0  0  0  0  0  1  0  0  0  0  0  0
  180.6810  179.4180  139.7900 C   0  0  0  0  0  2  0  0  0  0  0  0
  181.0910  179.4140  142.3010 C   0  0  1  0  0  3  0  0  0  0  0  0
  179.6080  180.9630  140.9880 C   0  0  0  0  0  2  0  0  0  0  0  0
  179.4160  179.9620  140.0220 O   0  0  0  0  0  0  0  0  0  0  0  0
  181.1640  178.5910  140.9880 C   0  0  2  0  0  3  0  0  0  0  0  0
  179.8610  180.3240  142.3510 C   0  0  0  0  0  2  0  0  0  0  0  0
  180.0570  177.7460  143.6820 O   0  0  0  0  0  0  0  0  0  0  0  0
  182.1340  178.4870  144.4190 N   0  0  0  0  0  1  0  0  0  0  0  0
  181.0460  178.5060  143.4940 C   0  0  0  0  0  0  0  0  0  0  0  0
  184.5730  177.9260  142.0950 C   0  0  0  0  0  2  0  0  0  0  0  0
  185.8760  178.5870  142.5720 C   0  0  1  0  0  3  0  0  0  0  0  0
  185.3980  179.1260  146.1070 C   0  0  0  0  0  2  0  0  0  0  0  0
  186.6850  177.8090  144.8430 C   0  0  0  0  0  0  0  0  0  0  0  0
  185.9260  178.6700  144.0330 N   0  0  0  0  0  0  0  0  0  0  0  0
  185.1460  179.5090  144.7640 O   0  0  0  0  0  0  0  0  0  0  0  0
  186.4180  178.0310  146.1000 C   0  0  0  0  0  3  0  0  0  0  0  0
  187.5800  176.8600  144.3440 O   0  0  0  0  0  0  0  0  0  0  0  0
  188.9180  176.8870  144.6500 C   0  0  0  0  0  0  0  0  0  0  0  0
  190.0990  176.9060  144.9120 C   0  0  0  0  0  3  0  0  0  0  0  0
  187.4810  178.4210  140.6460 C   0  0  0  0  0  2  0  0  0  0  0  0
  188.2190  178.9010  141.8710 C   0  0  0  0  0  2  0  0  0  0  0  0
  187.1090  177.8830  142.0140 C   0  0  0  0  0  3  0  0  0  0  0  0
  1 33  1  6  0  0  0
  2  4  1  6  0  0  0
  2  3  1  0  0  0  0
  3  9  1  0  0  0  0
  4  5  1  0  0  0  0
  5  6  1  0  0  0  0
  6  3  1  0  0  0  0
  6  8  1  0  0  0  0
  7  5  1  0  0  0  0
  8  1  1  0  0  0  0
  9 28  1  0  0  0  0
  9  1  1  0  0  0  0
 10 18  1  0  0  0  0
 10 11  1  0  0  0  0
 11 13  1  0  0  0  0
 11  2  1  0  0  0  0
 12 16  2  0  0  0  0
 14 16  1  0  0  0  0
 14 15  1  0  0  0  0
 15 10  1  0  0  0  0
 16 17  1  0  0  0  0
 17 13  1  0  0  0  0
 19 22  1  0  0  0  0
 19 18  1  0  0  0  0
 20 19  1  0  0  0  0
 21 22  1  0  0  0  0
 22 23  1  0  0  0  0
 22 18  1  0  0  0  0
 24 27  1  0  0  0  0
 24 28  1  0  0  0  0
 25 29  1  0  0  0  0
 25 32  1  0  0  0  0
 26 29  1  0  0  0  0
 27 26  1  0  0  0  0
 28 25  1  0  0  0  0
 32 30  2  0  0  0  0
 32 31  1  0  0  0  0
 33 34  1  0  0  0  0
 34 37  1  0  0  0  0
 36 39  2  0  0  0  0
 37 38  1  0  0  0  0
 37 36  1  0  0  0  0
 38 35  1  0  0  0  0
 39 35  1  0  0  0  0
 40 41  1  0  0  0  0
 40 36  1  0  0  0  0
 41 42  3  0  0  0  0
 43 44  1  0  0  0  0
 43 45  1  0  0  0  0
 44 45  1  0  0  0  0
 45 34  1  0  0  0  0
M  END
>  <MODEL>
8

>  <REMARK>
 VINA RESULT:      -5.5      1.760      3.331
  Name = 
  10 active torsions:
  status: ('A' for Active; 'I' for Inactive)
    1  A    between atoms: C_1  and  C_16
    2  A    between atoms: C_2  and  O_36
    3  A    between atoms: C_3  and  C_17
    4  A    between atoms: C_8  and  C_26
    5  A    between atoms: C_10  and  C_11
    6  A    between atoms: C_12  and  C_16
    7  A    between atoms: C_12  and  N_25
    8  A    between atoms: C_12  and  C_44
    9  A    between atoms: C_18  and  O_36
   10  A    between atoms: C_19  and  C_42
                            x       y       z     vdW  Elec       q    Type
                         _______ _______ _______ _____ _____    ______ ____

>  <TORSDO>
F 10

$$$$
=
 OpenBabel11062414173D

 45 51  0  0  1  0  0  0  0  0999 V2000
  183.9640  178.9240  141.4870 C   0  0  1  0  0  3  0  0  0  0  0  0
  182.6310  177.1610  139.0110 C   0  0  2  0  0  3  0  0  0  0  0  0
  182.5690  178.5630  139.5780 C   0  0  2  0  0  3  0  0  0  0  0  0
  183.6050  177.2190  137.8520 C   0  0  0  0  0  2  0  0  0  0  0  0
  184.6170  178.2480  138.2920 C   0  0  2  0  0  3  0  0  0  0  0  0
  183.8860  179.2100  139.2150 C   0  0  2  0  0  3  0  0  0  0  0  0
  185.1740  178.9820  137.0900 C   0  0  0  0  0  1  0  0  0  0  0  0
  184.6590  179.4440  140.3710 O   0  0  0  0  0  0  0  0  0  0  0  0
  182.5760  178.4950  141.0750 C   0  0  2  0  0  3  0  0  0  0  0  0
  180.7800  176.6840  137.2230 C   0  0  1  0  0  3  0  0  0  0  0  0
  181.2580  176.5520  138.6890 C   0  0  1  0  0  3  0  0  0  0  0  0
  180.9460  172.3960  136.9900 O   0  0  0  0  0  0  0  0  0  0  0  0
  181.1650  175.1370  139.2660 C   0  0  0  0  0  2  0  0  0  0  0  0
  180.0540  174.4500  136.5530 O   0  0  0  0  0  0  0  0  0  0  0  0
  179.6080  175.7330  136.9820 C   0  0  0  0  0  2  0  0  0  0  0  0
  180.9070  173.6150  137.2870 C   0  0  0  0  0  0  0  0  0  0  0  0
  181.8300  174.1170  138.3570 C   0  0  0  0  0  2  0  0  0  0  0  0
  180.3060  178.1240  136.9610 C   0  0  2  0  0  3  0  0  0  0  0  0
  179.6120  178.3710  135.5960 C   0  0  2  0  0  3  0  0  0  0  0  0
  179.5530  177.2220  134.7930 O   0  0  0  0  0  1  0  0  0  0  0  0
  182.1510  178.0930  135.0440 C   0  0  0  0  0  1  0  0  0  0  0  0
  181.0470  178.8130  135.8230 C   0  0  2  0  0  0  0  0  0  0  0  0
  181.1900  180.1900  135.9980 O   0  0  0  0  0  1  0  0  0  0  0  0
  181.1250  178.7240  143.0810 C   0  0  0  0  0  2  0  0  0  0  0  0
  180.1830  179.4560  140.8340 C   0  0  1  0  0  3  0  0  0  0  0  0
  178.9310  179.1130  142.9870 C   0  0  0  0  0  2  0  0  0  0  0  0
  180.0920  179.4200  143.7140 O   0  0  0  0  0  0  0  0  0  0  0  0
  181.4560  179.3310  141.7130 C   0  0  2  0  0  3  0  0  0  0  0  0
  178.9480  179.8480  141.6500 C   0  0  0  0  0  2  0  0  0  0  0  0
  181.3820  181.2500  139.7850 O   0  0  0  0  0  0  0  0  0  0  0  0
  179.4320  180.6000  138.6990 N   0  0  0  0  0  1  0  0  0  0  0  0
  180.3790  180.4870  139.7620 C   0  0  0  0  0  0  0  0  0  0  0  0
  184.7050  177.7130  142.0440 C   0  0  0  0  0  2  0  0  0  0  0  0
  185.1510  177.8910  143.5040 C   0  0  1  0  0  3  0  0  0  0  0  0
  188.4670  176.7530  144.3540 C   0  0  0  0  0  2  0  0  0  0  0  0
  187.5510  177.9300  142.6930 C   0  0  0  0  0  0  0  0  0  0  0  0
  186.5820  177.6190  143.6600 N   0  0  0  0  0  0  0  0  0  0  0  0
  187.1030  176.9230  144.7050 O   0  0  0  0  0  0  0  0  0  0  0  0
  188.7070  177.4420  143.0480 C   0  0  0  0  0  3  0  0  0  0  0  0
  187.2820  178.6520  141.5280 O   0  0  0  0  0  0  0  0  0  0  0  0
  187.9330  178.3990  140.3460 C   0  0  0  0  0  0  0  0  0  0  0  0
  188.5000  178.1790  139.2990 C   0  0  0  0  0  3  0  0  0  0  0  0
  183.8330  179.1680  145.2200 C   0  0  0  0  0  2  0  0  0  0  0  0
  185.3070  179.3810  145.4630 C   0  0  0  0  0  2  0  0  0  0  0  0
  184.7870  179.2700  144.0460 C   0  0  0  0  0  3  0  0  0  0  0  0
  1 33  1  6  0  0  0
  2  4  1  6  0  0  0
  2  3  1  0  0  0  0
  3  9  1  0  0  0  0
  4  5  1  0  0  0  0
  5  6  1  0  0  0  0
  6  3  1  0  0  0  0
  6  8  1  0  0  0  0
  7  5  1  0  0  0  0
  8  1  1  0  0  0  0
  9  1  1  0  0  0  0
  9 28  1  0  0  0  0
 10 11  1  0  0  0  0
 11  2  1  0  0  0  0
 11 13  1  0  0  0  0
 12 16  2  0  0  0  0
 14 15  1  0  0  0  0
 14 16  1  0  0  0  0
 15 10  1  0  0  0  0
 16 17  1  0  0  0  0
 17 13  1  0  0  0  0
 18 10  1  0  0  0  0
 19 22  1  0  0  0  0
 19 18  1  0  0  0  0
 20 19  1  0  0  0  0
 21 22  1  0  0  0  0
 22 23  1  0  0  0  0
 22 18  1  0  0  0  0
 24 27  1  0  0  0  0
 25 29  1  0  0  0  0
 25 28  1  0  0  0  0
 26 27  1  0  0  0  0
 28 24  1  0  0  0  0
 29 26  1  0  0  0  0
 31 32  1  0  0  0  0
 32 30  2  0  0  0  0
 32 25  1  0  0  0  0
 33 34  1  0  0  0  0
 34 37  1  0  0  0  0
 34 45  1  0  0  0  0
 35 38  1  0  0  0  0
 36 39  2  0  0  0  0
 36 37  1  0  0  0  0
 37 38  1  0  0  0  0
 39 35  1  0  0  0  0
 40 36  1  0  0  0  0
 41 40  1  0  0  0  0
 42 41  3  0  0  0  0
 43 44  1  0  0  0  0
 45 43  1  0  0  0  0
 45 44  1  0  0  0  0
M  END
>  <MODEL>
9

>  <REMARK>
 VINA RESULT:      -5.2      1.951      3.615
  Name = 
  10 active torsions:
  status: ('A' for Active; 'I' for Inactive)
    1  A    between atoms: C_1  and  C_16
    2  A    between atoms: C_2  and  O_36
    3  A    between atoms: C_3  and  C_17
    4  A    between atoms: C_8  and  C_26
    5  A    between atoms: C_10  and  C_11
    6  A    between atoms: C_12  and  C_16
    7  A    between atoms: C_12  and  N_25
    8  A    between atoms: C_12  and  C_44
    9  A    between atoms: C_18  and  O_36
   10  A    between atoms: C_19  and  C_42
                            x       y       z     vdW  Elec       q    Type
                         _______ _______ _______ _____ _____    ______ ____

>  <TORSDO>
F 10

$$$$
