=
 OpenBabel11062413343D

 28 30  0  0  1  0  0  0  0  0999 V2000
  189.4000  177.8000  145.5810 C   0  0  1  0  0  3  0  0  0  0  0  0
  191.2600  176.4150  147.4180 C   0  0  0  0  0  2  0  0  0  0  0  0
  188.6240  176.8920  144.8520 O   0  0  0  0  0  1  0  0  0  0  0  0
  191.6700  176.8970  146.0520 C   0  0  0  0  0  3  0  0  0  0  0  0
  189.1340  177.6450  147.0860 C   0  0  2  0  0  3  0  0  0  0  0  0
  189.7460  176.3440  147.5810 C   0  0  0  0  0  2  0  0  0  0  0  0
  190.8610  177.5940  145.2370 C   0  0  0  0  0  0  0  0  0  0  0  0
  191.3800  178.0710  143.9380 C   0  0  0  0  0  0  0  0  0  0  0  0
  191.5080  179.3060  143.7170 O   0  0  0  0  0  0  0  0  0  0  0  0
  191.7790  177.1060  142.8690 C   0  0  0  0  0  2  0  0  0  0  0  0
  191.4880  177.6620  141.5560 N   0  0  0  0  0  2  0  0  0  0  0  0
  190.2420  177.0700  141.0840 C   0  0  1  0  0  3  0  0  0  0  0  0
  189.9790  175.8890  141.7830 O   0  0  0  0  0  1  0  0  0  0  0  0
  189.1250  178.0090  141.2160 N   0  0  0  0  0  2  0  0  0  0  0  0
  188.4060  178.1140  139.9520 C   0  0  0  0  0  2  0  0  0  0  0  0
  189.3920  178.3470  138.8270 C   0  0  1  0  0  3  0  0  0  0  0  0
  188.7560  178.0450  137.5280 C   0  0  0  0  0  2  0  0  0  0  0  0
  188.9000  179.3650  137.9920 O   0  0  0  0  0  0  0  0  0  0  0  0
  187.6470  177.6870  147.4170 C   0  0  0  0  0  2  0  0  0  0  0  0
  185.6470  178.5500  146.1160 C   0  0  0  0  0  0  0  0  0  0  0  0
  185.2270  179.1750  147.1280 O   0  0  0  0  0  0  0  0  0  0  0  0
  186.8510  177.7790  146.2010 N   0  0  0  0  0  2  0  0  0  0  0  0
  185.5230  178.2700  143.6400 C   0  0  0  0  0  3  0  0  0  0  0  0
  183.5500  179.0000  144.8380 C   0  0  0  0  0  3  0  0  0  0  0  0
  183.4680  178.7050  142.4360 C   0  0  0  0  0  3  0  0  0  0  0  0
  182.8390  179.0470  143.6350 C   0  0  0  0  0  3  0  0  0  0  0  0
  184.8980  178.6090  144.8490 C   0  0  0  0  0  0  0  0  0  0  0  0
  184.8110  178.3170  142.4380 C   0  0  0  0  0  3  0  0  0  0  0  0
  1  3  1  6  0  0  0
  1  5  1  0  0  0  0
  2  6  1  0  0  0  0
  4  2  1  0  0  0  0
  5 19  1  6  0  0  0
  5  6  1  0  0  0  0
  7  1  1  0  0  0  0
  7  4  2  0  0  0  0
  8  7  1  0  0  0  0
  9  8  2  0  0  0  0
 10  8  1  0  0  0  0
 11 10  1  0  0  0  0
 12 14  1  0  0  0  0
 12 11  1  0  0  0  0
 12 13  1  1  0  0  0
 15 14  1  0  0  0  0
 16 15  1  1  0  0  0
 17 18  1  0  0  0  0
 17 16  1  0  0  0  0
 18 16  1  0  0  0  0
 20 22  1  0  0  0  0
 20 21  2  0  0  0  0
 22 19  1  0  0  0  0
 23 27  1  0  0  0  0
 24 27  2  0  0  0  0
 25 28  1  0  0  0  0
 25 26  2  0  0  0  0
 26 24  1  0  0  0  0
 27 20  1  0  0  0  0
 28 23  2  0  0  0  0
M  END
>  <MODEL>
1

>  <REMARK>
 VINA RESULT:      -8.8      0.000      0.000
  Name = 
  10 active torsions:
  status: ('A' for Active; 'I' for Inactive)
    1  A    between atoms: N_1  and  C_18
    2  A    between atoms: N_1  and  C_22
    3  A    between atoms: C_2  and  C_16
    4  A    between atoms: C_2  and  N_28
    5  A    between atoms: C_3  and  C_19
    6  A    between atoms: C_3  and  C_20
    7  A    between atoms: C_8  and  C_22
    8  A    between atoms: C_9  and  C_15
    9  A    between atoms: C_18  and  N_26
   10  A    between atoms: C_20  and  N_26
                            x       y       z     vdW  Elec       q    Type
                         _______ _______ _______ _____ _____    ______ ____

>  <TORSDO>
F 10

$$$$
=
 OpenBabel11062413343D

 28 30  0  0  1  0  0  0  0  0999 V2000
  189.3870  177.7910  145.5550 C   0  0  1  0  0  3  0  0  0  0  0  0
  191.2730  176.3860  147.3500 C   0  0  0  0  0  2  0  0  0  0  0  0
  188.5710  176.8930  144.8580 O   0  0  0  0  0  1  0  0  0  0  0  0
  191.6510  176.8450  145.9680 C   0  0  0  0  0  3  0  0  0  0  0  0
  189.1630  177.6570  147.0690 C   0  0  2  0  0  3  0  0  0  0  0  0
  189.7630  176.3480  147.5590 C   0  0  0  0  0  2  0  0  0  0  0  0
  190.8320  177.5520  145.1700 C   0  0  0  0  0  0  0  0  0  0  0  0
  191.3230  178.0050  143.8510 C   0  0  0  0  0  0  0  0  0  0  0  0
  191.3810  179.2350  143.5810 O   0  0  0  0  0  0  0  0  0  0  0  0
  191.7740  177.0220  142.8190 C   0  0  0  0  0  2  0  0  0  0  0  0
  191.3990  177.4810  141.4900 N   0  0  0  0  0  2  0  0  0  0  0  0
  190.2090  176.7440  141.0800 C   0  0  1  0  0  3  0  0  0  0  0  0
  189.0630  177.4920  141.3610 O   0  0  0  0  0  1  0  0  0  0  0  0
  190.2640  176.3960  139.6590 N   0  0  0  0  0  2  0  0  0  0  0  0
  189.1230  176.9710  138.9560 C   0  0  0  0  0  2  0  0  0  0  0  0
  189.6120  177.9850  137.9430 C   0  0  1  0  0  3  0  0  0  0  0  0
  188.4650  178.5480  137.2010 C   0  0  0  0  0  2  0  0  0  0  0  0
  189.0730  179.2440  138.2620 O   0  0  0  0  0  0  0  0  0  0  0  0
  187.6880  177.7320  147.4430 C   0  0  0  0  0  2  0  0  0  0  0  0
  185.6800  178.6080  146.1620 C   0  0  0  0  0  0  0  0  0  0  0  0
  185.3180  179.3000  147.1520 O   0  0  0  0  0  0  0  0  0  0  0  0
  186.8560  177.7950  146.2480 N   0  0  0  0  0  2  0  0  0  0  0  0
  183.5360  178.9890  144.9440 C   0  0  0  0  0  3  0  0  0  0  0  0
  185.4900  178.3040  143.6910 C   0  0  0  0  0  3  0  0  0  0  0  0
  183.3930  178.6950  142.5460 C   0  0  0  0  0  3  0  0  0  0  0  0
  184.7420  178.3350  142.5100 C   0  0  0  0  0  3  0  0  0  0  0  0
  184.8920  178.6330  144.9170 C   0  0  0  0  0  0  0  0  0  0  0  0
  182.7890  179.0220  143.7630 C   0  0  0  0  0  3  0  0  0  0  0  0
  1  3  1  6  0  0  0
  1  5  1  0  0  0  0
  2  6  1  0  0  0  0
  4  2  1  0  0  0  0
  5 19  1  6  0  0  0
  5  6  1  0  0  0  0
  7  1  1  0  0  0  0
  7  4  2  0  0  0  0
  8  7  1  0  0  0  0
  9  8  2  0  0  0  0
 10  8  1  0  0  0  0
 11 10  1  0  0  0  0
 12 13  1  6  0  0  0
 12 11  1  0  0  0  0
 14 12  1  0  0  0  0
 15 14  1  0  0  0  0
 16 18  1  0  0  0  0
 16 15  1  1  0  0  0
 17 16  1  0  0  0  0
 17 18  1  0  0  0  0
 20 22  1  0  0  0  0
 20 21  2  0  0  0  0
 22 19  1  0  0  0  0
 24 27  2  0  0  0  0
 25 28  1  0  0  0  0
 26 25  2  0  0  0  0
 26 24  1  0  0  0  0
 27 23  1  0  0  0  0
 27 20  1  0  0  0  0
 28 23  2  0  0  0  0
M  END
>  <MODEL>
2

>  <REMARK>
 VINA RESULT:      -8.7      0.702      1.165
  Name = 
  10 active torsions:
  status: ('A' for Active; 'I' for Inactive)
    1  A    between atoms: N_1  and  C_18
    2  A    between atoms: N_1  and  C_22
    3  A    between atoms: C_2  and  C_16
    4  A    between atoms: C_2  and  N_28
    5  A    between atoms: C_3  and  C_19
    6  A    between atoms: C_3  and  C_20
    7  A    between atoms: C_8  and  C_22
    8  A    between atoms: C_9  and  C_15
    9  A    between atoms: C_18  and  N_26
   10  A    between atoms: C_20  and  N_26
                            x       y       z     vdW  Elec       q    Type
                         _______ _______ _______ _____ _____    ______ ____

>  <TORSDO>
F 10

$$$$
=
 OpenBabel11062413343D

 28 30  0  0  1  0  0  0  0  0999 V2000
  189.3350  177.7420  145.4000 C   0  0  1  0  0  3  0  0  0  0  0  0
  191.3200  176.5070  147.2140 C   0  0  0  0  0  2  0  0  0  0  0  0
  188.5380  176.7780  144.7740 O   0  0  0  0  0  1  0  0  0  0  0  0
  191.6450  176.9060  145.8000 C   0  0  0  0  0  3  0  0  0  0  0  0
  189.1550  177.6790  146.9250 C   0  0  2  0  0  3  0  0  0  0  0  0
  189.8190  176.4220  147.4660 C   0  0  0  0  0  2  0  0  0  0  0  0
  190.7790  177.5380  144.9890 C   0  0  0  0  0  0  0  0  0  0  0  0
  191.2170  177.9390  143.6350 C   0  0  0  0  0  0  0  0  0  0  0  0
  191.2560  179.1570  143.3130 O   0  0  0  0  0  0  0  0  0  0  0  0
  191.6370  176.9170  142.6290 C   0  0  0  0  0  2  0  0  0  0  0  0
  190.4740  176.2000  142.1250 N   0  0  0  0  0  2  0  0  0  0  0  0
  190.1730  176.7120  140.7930 C   0  0  1  0  0  3  0  0  0  0  0  0
  189.2300  177.7390  140.8780 O   0  0  0  0  0  1  0  0  0  0  0  0
  191.3870  177.1780  140.1180 N   0  0  0  0  0  2  0  0  0  0  0  0
  191.3550  176.7990  138.7100 C   0  0  0  0  0  2  0  0  0  0  0  0
  192.6030  176.0120  138.3710 C   0  0  1  0  0  3  0  0  0  0  0  0
  192.9980  176.2730  136.9720 C   0  0  0  0  0  2  0  0  0  0  0  0
  193.6360  176.9100  138.0520 O   0  0  0  0  0  0  0  0  0  0  0  0
  187.6880  177.7190  147.3350 C   0  0  0  0  0  2  0  0  0  0  0  0
  185.6760  178.6350  146.0920 C   0  0  0  0  0  0  0  0  0  0  0  0
  185.3620  179.3550  147.0780 O   0  0  0  0  0  0  0  0  0  0  0  0
  186.8270  177.7870  146.1620 N   0  0  0  0  0  2  0  0  0  0  0  0
  185.4220  178.3340  143.6280 C   0  0  0  0  0  3  0  0  0  0  0  0
  183.4980  179.0140  144.9300 C   0  0  0  0  0  3  0  0  0  0  0  0
  183.2920  178.7000  142.5390 C   0  0  0  0  0  3  0  0  0  0  0  0
  182.7200  179.0330  143.7690 C   0  0  0  0  0  3  0  0  0  0  0  0
  184.8550  178.6630  144.8680 C   0  0  0  0  0  0  0  0  0  0  0  0
  184.6430  178.3510  142.4670 C   0  0  0  0  0  3  0  0  0  0  0  0
  1  3  1  6  0  0  0
  1  5  1  0  0  0  0
  2  6  1  0  0  0  0
  4  2  1  0  0  0  0
  5 19  1  6  0  0  0
  5  6  1  0  0  0  0
  7  1  1  0  0  0  0
  7  4  2  0  0  0  0
  8  7  1  0  0  0  0
  9  8  2  0  0  0  0
 10  8  1  0  0  0  0
 11 10  1  0  0  0  0
 12 13  1  1  0  0  0
 12 11  1  0  0  0  0
 14 12  1  0  0  0  0
 15 14  1  0  0  0  0
 16 15  1  6  0  0  0
 17 18  1  0  0  0  0
 17 16  1  0  0  0  0
 18 16  1  0  0  0  0
 20 22  1  0  0  0  0
 20 21  2  0  0  0  0
 22 19  1  0  0  0  0
 23 27  1  0  0  0  0
 25 26  2  0  0  0  0
 26 24  1  0  0  0  0
 27 24  2  0  0  0  0
 27 20  1  0  0  0  0
 28 25  1  0  0  0  0
 28 23  2  0  0  0  0
M  END
>  <MODEL>
3

>  <REMARK>
 VINA RESULT:      -8.5      1.703      1.836
  Name = 
  10 active torsions:
  status: ('A' for Active; 'I' for Inactive)
    1  A    between atoms: N_1  and  C_18
    2  A    between atoms: N_1  and  C_22
    3  A    between atoms: C_2  and  C_16
    4  A    between atoms: C_2  and  N_28
    5  A    between atoms: C_3  and  C_19
    6  A    between atoms: C_3  and  C_20
    7  A    between atoms: C_8  and  C_22
    8  A    between atoms: C_9  and  C_15
    9  A    between atoms: C_18  and  N_26
   10  A    between atoms: C_20  and  N_26
                            x       y       z     vdW  Elec       q    Type
                         _______ _______ _______ _____ _____    ______ ____

>  <TORSDO>
F 10

$$$$
=
 OpenBabel11062413343D

 28 30  0  0  1  0  0  0  0  0999 V2000
  189.6280  177.4190  144.9590 C   0  0  1  0  0  3  0  0  0  0  0  0
  191.0850  176.1950  147.2250 C   0  0  0  0  0  2  0  0  0  0  0  0
  190.0010  178.7540  144.7670 O   0  0  0  0  0  1  0  0  0  0  0  0
  189.7050  176.7820  147.3630 C   0  0  0  0  0  3  0  0  0  0  0  0
  190.8390  176.4920  144.7760 C   0  0  2  0  0  3  0  0  0  0  0  0
  191.7880  176.6540  145.9530 C   0  0  0  0  0  2  0  0  0  0  0  0
  189.0000  177.2710  146.3300 C   0  0  0  0  0  0  0  0  0  0  0  0
  187.6280  177.7720  146.5640 C   0  0  0  0  0  0  0  0  0  0  0  0
  187.2840  178.1740  147.7080 O   0  0  0  0  0  0  0  0  0  0  0  0
  186.6300  177.8290  145.4530 C   0  0  0  0  0  2  0  0  0  0  0  0
  185.8770  179.0730  145.5170 N   0  0  0  0  0  2  0  0  0  0  0  0
  184.5310  178.8080  145.0240 C   0  0  1  0  0  3  0  0  0  0  0  0
  183.5980  179.0270  146.0400 O   0  0  0  0  0  1  0  0  0  0  0  0
  184.2240  179.6330  143.8530 N   0  0  0  0  0  2  0  0  0  0  0  0
  183.7280  178.7970  142.7660 C   0  0  0  0  0  2  0  0  0  0  0  0
  184.8790  178.4110  141.8610 C   0  0  1  0  0  3  0  0  0  0  0  0
  184.6190  178.8830  140.4860 C   0  0  0  0  0  2  0  0  0  0  0  0
  185.4760  179.5800  141.3580 O   0  0  0  0  0  0  0  0  0  0  0  0
  191.5730  176.7530  143.4670 C   0  0  0  0  0  2  0  0  0  0  0  0
  191.0060  177.2230  141.0390 C   0  0  0  0  0  0  0  0  0  0  0  0
  192.1750  177.6400  140.8200 O   0  0  0  0  0  0  0  0  0  0  0  0
  190.6400  176.7720  142.3480 N   0  0  0  0  0  2  0  0  0  0  0  0
  190.2080  176.3840  138.8290 C   0  0  0  0  0  3  0  0  0  0  0  0
  188.8610  178.0010  140.0240 C   0  0  0  0  0  3  0  0  0  0  0  0
  188.1180  177.1530  137.8820 C   0  0  0  0  0  3  0  0  0  0  0  0
  187.9170  177.9750  138.9930 C   0  0  0  0  0  3  0  0  0  0  0  0
  190.0130  177.2030  139.9500 C   0  0  0  0  0  0  0  0  0  0  0  0
  189.2630  176.3570  137.7990 C   0  0  0  0  0  3  0  0  0  0  0  0
  1  3  1  1  0  0  0
  1  7  1  0  0  0  0
  2  4  1  0  0  0  0
  5 19  1  6  0  0  0
  5  1  1  0  0  0  0
  5  6  1  0  0  0  0
  6  2  1  0  0  0  0
  7  8  1  0  0  0  0
  7  4  2  0  0  0  0
  8  9  2  0  0  0  0
 10 11  1  0  0  0  0
 10  8  1  0  0  0  0
 12 11  1  0  0  0  0
 12 13  1  1  0  0  0
 14 12  1  0  0  0  0
 15 14  1  0  0  0  0
 16 15  1  1  0  0  0
 17 18  1  0  0  0  0
 17 16  1  0  0  0  0
 18 16  1  0  0  0  0
 20 22  1  0  0  0  0
 21 20  2  0  0  0  0
 22 19  1  0  0  0  0
 23 27  1  0  0  0  0
 25 26  2  0  0  0  0
 26 24  1  0  0  0  0
 27 24  2  0  0  0  0
 27 20  1  0  0  0  0
 28 25  1  0  0  0  0
 28 23  2  0  0  0  0
M  END
>  <MODEL>
4

>  <REMARK>
 VINA RESULT:      -8.4      1.791      5.780
  Name = 
  10 active torsions:
  status: ('A' for Active; 'I' for Inactive)
    1  A    between atoms: N_1  and  C_18
    2  A    between atoms: N_1  and  C_22
    3  A    between atoms: C_2  and  C_16
    4  A    between atoms: C_2  and  N_28
    5  A    between atoms: C_3  and  C_19
    6  A    between atoms: C_3  and  C_20
    7  A    between atoms: C_8  and  C_22
    8  A    between atoms: C_9  and  C_15
    9  A    between atoms: C_18  and  N_26
   10  A    between atoms: C_20  and  N_26
                            x       y       z     vdW  Elec       q    Type
                         _______ _______ _______ _____ _____    ______ ____

>  <TORSDO>
F 10

$$$$
=
 OpenBabel11062413343D

 28 30  0  0  1  0  0  0  0  0999 V2000
  185.1750  179.0120  143.2020 C   0  0  1  0  0  3  0  0  0  0  0  0
  182.2610  178.5160  143.3140 C   0  0  0  0  0  2  0  0  0  0  0  0
  185.4800  180.3550  143.4530 O   0  0  0  0  0  1  0  0  0  0  0  0
  182.9960  178.7690  142.0260 C   0  0  0  0  0  3  0  0  0  0  0  0
  184.4770  178.3850  144.4180 C   0  0  2  0  0  3  0  0  0  0  0  0
  183.0660  178.9400  144.5380 C   0  0  0  0  0  2  0  0  0  0  0  0
  184.3300  178.9190  141.9490 C   0  0  0  0  0  0  0  0  0  0  0  0
  184.9610  179.1060  140.6250 C   0  0  0  0  0  0  0  0  0  0  0  0
  184.3870  179.7950  139.7380 O   0  0  0  0  0  0  0  0  0  0  0  0
  186.2910  178.5010  140.3150 C   0  0  0  0  0  2  0  0  0  0  0  0
  186.5590  178.5800  138.8870 N   0  0  0  0  0  2  0  0  0  0  0  0
  187.9040  178.0660  138.6530 C   0  0  1  0  0  3  0  0  0  0  0  0
  188.6960  179.0510  138.0580 O   0  0  0  0  0  1  0  0  0  0  0  0
  188.5140  177.5940  139.8980 N   0  0  0  0  0  2  0  0  0  0  0  0
  189.8320  177.0310  139.6290 C   0  0  0  0  0  2  0  0  0  0  0  0
  190.5050  176.6730  140.9370 C   0  0  1  0  0  3  0  0  0  0  0  0
  191.7640  177.4330  141.0810 C   0  0  0  0  0  2  0  0  0  0  0  0
  190.5840  177.8240  141.7400 O   0  0  0  0  0  0  0  0  0  0  0  0
  185.2470  178.6200  145.7120 C   0  0  0  0  0  2  0  0  0  0  0  0
  187.4830  177.9470  146.7020 C   0  0  0  0  0  0  0  0  0  0  0  0
  187.0520  178.1380  147.8710 O   0  0  0  0  0  0  0  0  0  0  0  0
  186.6280  178.1790  145.5770 N   0  0  0  0  0  2  0  0  0  0  0  0
  189.6330  177.0280  147.5730 C   0  0  0  0  0  3  0  0  0  0  0  0
  189.4340  177.5040  145.2080 C   0  0  0  0  0  3  0  0  0  0  0  0
  191.5000  176.6010  146.0920 C   0  0  0  0  0  3  0  0  0  0  0  0
  190.7460  177.0610  145.0100 C   0  0  0  0  0  3  0  0  0  0  0  0
  188.8680  177.4880  146.4920 C   0  0  0  0  0  0  0  0  0  0  0  0
  190.9440  176.5840  147.3740 C   0  0  0  0  0  3  0  0  0  0  0  0
  1  3  1  1  0  0  0
  1  5  1  0  0  0  0
  2  6  1  0  0  0  0
  4  2  1  0  0  0  0
  5  6  1  0  0  0  0
  5 19  1  1  0  0  0
  7  4  2  0  0  0  0
  7  1  1  0  0  0  0
  8  7  1  0  0  0  0
  9  8  2  0  0  0  0
 10  8  1  0  0  0  0
 11 10  1  0  0  0  0
 12 13  1  1  0  0  0
 12 11  1  0  0  0  0
 12 14  1  0  0  0  0
 15 14  1  0  0  0  0
 16 15  1  6  0  0  0
 16 17  1  0  0  0  0
 16 18  1  0  0  0  0
 17 18  1  0  0  0  0
 20 21  2  0  0  0  0
 22 19  1  0  0  0  0
 22 20  1  0  0  0  0
 24 27  1  0  0  0  0
 25 28  2  0  0  0  0
 26 24  2  0  0  0  0
 26 25  1  0  0  0  0
 27 20  1  0  0  0  0
 27 23  2  0  0  0  0
 28 23  1  0  0  0  0
M  END
>  <MODEL>
5

>  <REMARK>
 VINA RESULT:      -8.2      1.741      5.978
  Name = 
  10 active torsions:
  status: ('A' for Active; 'I' for Inactive)
    1  A    between atoms: N_1  and  C_18
    2  A    between atoms: N_1  and  C_22
    3  A    between atoms: C_2  and  C_16
    4  A    between atoms: C_2  and  N_28
    5  A    between atoms: C_3  and  C_19
    6  A    between atoms: C_3  and  C_20
    7  A    between atoms: C_8  and  C_22
    8  A    between atoms: C_9  and  C_15
    9  A    between atoms: C_18  and  N_26
   10  A    between atoms: C_20  and  N_26
                            x       y       z     vdW  Elec       q    Type
                         _______ _______ _______ _____ _____    ______ ____

>  <TORSDO>
F 10

$$$$
=
 OpenBabel11062413343D

 28 30  0  0  1  0  0  0  0  0999 V2000
  184.5470  178.3380  142.4400 C   0  0  1  0  0  3  0  0  0  0  0  0
  184.0580  178.8690  145.3100 C   0  0  0  0  0  2  0  0  0  0  0  0
  185.1150  179.4450  141.8000 O   0  0  0  0  0  1  0  0  0  0  0  0
  182.9930  179.0260  144.2580 C   0  0  0  0  0  3  0  0  0  0  0  0
  185.4710  177.8300  143.5570 C   0  0  2  0  0  3  0  0  0  0  0  0
  185.4610  178.8160  144.7150 C   0  0  0  0  0  2  0  0  0  0  0  0
  183.1760  178.7160  142.9630 C   0  0  0  0  0  0  0  0  0  0  0  0
  182.0460  178.8530  142.0200 C   0  0  0  0  0  0  0  0  0  0  0  0
  180.9770  179.4150  142.3850 O   0  0  0  0  0  0  0  0  0  0  0  0
  182.1470  178.3460  140.6190 C   0  0  0  0  0  2  0  0  0  0  0  0
  182.0440  179.4500  139.6760 N   0  0  0  0  0  2  0  0  0  0  0  0
  183.1900  179.3810  138.7770 C   0  0  1  0  0  3  0  0  0  0  0  0
  184.1080  180.3840  139.0960 O   0  0  0  0  0  1  0  0  0  0  0  0
  183.8250  178.0630  138.8280 N   0  0  0  0  0  2  0  0  0  0  0  0
  185.2340  178.1700  138.4660 C   0  0  0  0  0  2  0  0  0  0  0  0
  185.4570  177.5360  137.1090 C   0  0  1  0  0  3  0  0  0  0  0  0
  186.7010  176.7390  137.1240 C   0  0  0  0  0  2  0  0  0  0  0  0
  185.4360  176.1370  137.2510 O   0  0  0  0  0  0  0  0  0  0  0  0
  186.8970  177.6060  143.0690 C   0  0  0  0  0  2  0  0  0  0  0  0
  189.1930  177.4660  144.1390 C   0  0  0  0  0  0  0  0  0  0  0  0
  189.7330  177.9400  143.1030 O   0  0  0  0  0  0  0  0  0  0  0  0
  187.7750  177.2680  144.1810 N   0  0  0  0  0  2  0  0  0  0  0  0
  189.5600  177.3730  146.6050 C   0  0  0  0  0  3  0  0  0  0  0  0
  191.2740  176.5090  145.1310 C   0  0  0  0  0  3  0  0  0  0  0  0
  191.5870  176.4270  147.5310 C   0  0  0  0  0  3  0  0  0  0  0  0
  192.0550  176.1670  146.2410 C   0  0  0  0  0  3  0  0  0  0  0  0
  190.0200  177.1130  145.3060 C   0  0  0  0  0  0  0  0  0  0  0  0
  190.3400  177.0310  147.7140 C   0  0  0  0  0  3  0  0  0  0  0  0
  1  3  1  1  0  0  0
  1  7  1  0  0  0  0
  1  5  1  0  0  0  0
  4  2  1  0  0  0  0
  5 19  1  6  0  0  0
  5  6  1  0  0  0  0
  6  2  1  0  0  0  0
  7  4  2  0  0  0  0
  8  9  2  0  0  0  0
  8  7  1  0  0  0  0
 10  8  1  0  0  0  0
 11 10  1  0  0  0  0
 12 14  1  0  0  0  0
 12 13  1  1  0  0  0
 12 11  1  0  0  0  0
 15 14  1  0  0  0  0
 16 17  1  0  0  0  0
 16 18  1  0  0  0  0
 16 15  1  1  0  0  0
 17 18  1  0  0  0  0
 19 22  1  0  0  0  0
 20 22  1  0  0  0  0
 20 27  1  0  0  0  0
 21 20  2  0  0  0  0
 23 28  1  0  0  0  0
 24 27  1  0  0  0  0
 24 26  2  0  0  0  0
 25 28  2  0  0  0  0
 26 25  1  0  0  0  0
 27 23  2  0  0  0  0
M  END
>  <MODEL>
6

>  <REMARK>
 VINA RESULT:      -8.0      3.151      7.084
  Name = 
  10 active torsions:
  status: ('A' for Active; 'I' for Inactive)
    1  A    between atoms: N_1  and  C_18
    2  A    between atoms: N_1  and  C_22
    3  A    between atoms: C_2  and  C_16
    4  A    between atoms: C_2  and  N_28
    5  A    between atoms: C_3  and  C_19
    6  A    between atoms: C_3  and  C_20
    7  A    between atoms: C_8  and  C_22
    8  A    between atoms: C_9  and  C_15
    9  A    between atoms: C_18  and  N_26
   10  A    between atoms: C_20  and  N_26
                            x       y       z     vdW  Elec       q    Type
                         _______ _______ _______ _____ _____    ______ ____

>  <TORSDO>
F 10

$$$$
=
 OpenBabel11062413343D

 28 30  0  0  1  0  0  0  0  0999 V2000
  189.1180  177.5360  144.5920 C   0  0  1  0  0  3  0  0  0  0  0  0
  191.2970  176.8840  146.4840 C   0  0  0  0  0  2  0  0  0  0  0  0
  188.3380  176.4130  144.2960 O   0  0  0  0  0  1  0  0  0  0  0  0
  191.4960  176.9240  144.9930 C   0  0  0  0  0  3  0  0  0  0  0  0
  189.0500  177.8560  146.0940 C   0  0  2  0  0  3  0  0  0  0  0  0
  189.8250  176.8050  146.8740 C   0  0  0  0  0  2  0  0  0  0  0  0
  190.5380  177.2940  144.1260 C   0  0  0  0  0  0  0  0  0  0  0  0
  190.8550  177.3550  142.6830 C   0  0  0  0  0  0  0  0  0  0  0  0
  192.0290  177.1380  142.2790 O   0  0  0  0  0  0  0  0  0  0  0  0
  189.7940  177.6580  141.6750 C   0  0  0  0  0  2  0  0  0  0  0  0
  190.3010  177.4360  140.3290 N   0  0  0  0  0  2  0  0  0  0  0  0
  189.2180  177.7080  139.3910 C   0  0  1  0  0  3  0  0  0  0  0  0
  188.4510  178.7840  139.8450 O   0  0  0  0  0  1  0  0  0  0  0  0
  189.7350  177.9710  138.0460 N   0  0  0  0  0  2  0  0  0  0  0  0
  188.7030  178.5930  137.2240 C   0  0  0  0  0  2  0  0  0  0  0  0
  187.7630  177.5270  136.7030 C   0  0  1  0  0  3  0  0  0  0  0  0
  186.3620  177.9300  136.9410 C   0  0  0  0  0  2  0  0  0  0  0  0
  186.9710  178.0770  135.6800 O   0  0  0  0  0  0  0  0  0  0  0  0
  187.6160  177.9380  146.6020 C   0  0  0  0  0  2  0  0  0  0  0  0
  185.3320  178.5050  145.6550 C   0  0  0  0  0  0  0  0  0  0  0  0
  184.9030  178.8070  146.8020 O   0  0  0  0  0  0  0  0  0  0  0  0
  186.6810  178.0550  145.4910 N   0  0  0  0  0  2  0  0  0  0  0  0
  183.0860  178.9200  144.6500 C   0  0  0  0  0  3  0  0  0  0  0  0
  184.9470  178.4110  143.1900 C   0  0  0  0  0  3  0  0  0  0  0  0
  182.7540  178.8300  142.2540 C   0  0  0  0  0  3  0  0  0  0  0  0
  184.1050  178.5190  142.0790 C   0  0  0  0  0  3  0  0  0  0  0  0
  184.4440  178.6120  144.4840 C   0  0  0  0  0  0  0  0  0  0  0  0
  182.2440  179.0300  143.5400 C   0  0  0  0  0  3  0  0  0  0  0  0
  1  3  1  1  0  0  0
  1  5  1  0  0  0  0
  2  6  1  0  0  0  0
  4  2  1  0  0  0  0
  5 19  1  1  0  0  0
  5  6  1  0  0  0  0
  7  1  1  0  0  0  0
  7  4  2  0  0  0  0
  8  7  1  0  0  0  0
  9  8  2  0  0  0  0
 10  8  1  0  0  0  0
 11 10  1  0  0  0  0
 12 13  1  1  0  0  0
 12 11  1  0  0  0  0
 14 12  1  0  0  0  0
 15 14  1  0  0  0  0
 16 17  1  0  0  0  0
 16 15  1  1  0  0  0
 18 16  1  0  0  0  0
 18 17  1  0  0  0  0
 20 21  2  0  0  0  0
 22 20  1  0  0  0  0
 22 19  1  0  0  0  0
 24 27  2  0  0  0  0
 25 28  1  0  0  0  0
 26 25  2  0  0  0  0
 26 24  1  0  0  0  0
 27 23  1  0  0  0  0
 27 20  1  0  0  0  0
 28 23  2  0  0  0  0
M  END
>  <MODEL>
7

>  <REMARK>
 VINA RESULT:      -8.0      1.398      2.024
  Name = 
  10 active torsions:
  status: ('A' for Active; 'I' for Inactive)
    1  A    between atoms: N_1  and  C_18
    2  A    between atoms: N_1  and  C_22
    3  A    between atoms: C_2  and  C_16
    4  A    between atoms: C_2  and  N_28
    5  A    between atoms: C_3  and  C_19
    6  A    between atoms: C_3  and  C_20
    7  A    between atoms: C_8  and  C_22
    8  A    between atoms: C_9  and  C_15
    9  A    between atoms: C_18  and  N_26
   10  A    between atoms: C_20  and  N_26
                            x       y       z     vdW  Elec       q    Type
                         _______ _______ _______ _____ _____    ______ ____

>  <TORSDO>
F 10

$$$$
=
 OpenBabel11062413343D

 28 30  0  0  1  0  0  0  0  0999 V2000
  184.7470  178.5620  139.8220 C   0  0  1  0  0  3  0  0  0  0  0  0
  182.4100  176.7820  139.4640 C   0  0  0  0  0  2  0  0  0  0  0  0
  184.4340  179.8910  139.5180 O   0  0  0  0  0  1  0  0  0  0  0  0
  183.4640  176.9690  138.4050 C   0  0  0  0  0  3  0  0  0  0  0  0
  183.8840  178.0620  140.9920 C   0  0  2  0  0  3  0  0  0  0  0  0
  182.4490  177.8770  140.5240 C   0  0  0  0  0  2  0  0  0  0  0  0
  184.5700  177.7120  138.5810 C   0  0  0  0  0  0  0  0  0  0  0  0
  185.5720  177.7840  137.4970 C   0  0  0  0  0  0  0  0  0  0  0  0
  185.2780  177.4030  136.3310 O   0  0  0  0  0  0  0  0  0  0  0  0
  186.9440  178.3200  137.7520 C   0  0  0  0  0  2  0  0  0  0  0  0
  187.7430  177.3370  138.4680 N   0  0  0  0  0  2  0  0  0  0  0  0
  188.6810  178.0580  139.3220 C   0  0  1  0  0  3  0  0  0  0  0  0
  189.0500  179.2610  138.7160 O   0  0  0  0  0  1  0  0  0  0  0  0
  188.1100  178.3000  140.6490 N   0  0  0  0  0  2  0  0  0  0  0  0
  189.0200  177.8170  141.6820 C   0  0  0  0  0  2  0  0  0  0  0  0
  190.0760  176.9340  141.0520 C   0  0  1  0  0  3  0  0  0  0  0  0
  191.3710  177.1330  141.7350 C   0  0  0  0  0  2  0  0  0  0  0  0
  190.5480  176.0270  142.0170 O   0  0  0  0  0  0  0  0  0  0  0  0
  183.9310  179.0050  142.1880 C   0  0  0  0  0  2  0  0  0  0  0  0
  184.9130  178.7690  144.5150 C   0  0  0  0  0  0  0  0  0  0  0  0
  183.8620  179.2340  145.0330 O   0  0  0  0  0  0  0  0  0  0  0  0
  185.0120  178.6370  143.0930 N   0  0  0  0  0  2  0  0  0  0  0  0
  186.0200  178.6380  146.7470 C   0  0  0  0  0  3  0  0  0  0  0  0
  187.1490  177.7010  144.8220 C   0  0  0  0  0  3  0  0  0  0  0  0
  188.1840  177.5840  147.0070 C   0  0  0  0  0  3  0  0  0  0  0  0
  188.2160  177.3120  145.6380 C   0  0  0  0  0  3  0  0  0  0  0  0
  186.0420  178.3650  145.3720 C   0  0  0  0  0  0  0  0  0  0  0  0
  187.0870  178.2470  147.5630 C   0  0  0  0  0  3  0  0  0  0  0  0
  1  3  1  6  0  0  0
  1  5  1  0  0  0  0
  2  6  1  0  0  0  0
  4  7  2  0  0  0  0
  4  2  1  0  0  0  0
  5 19  1  1  0  0  0
  6  5  1  0  0  0  0
  7  1  1  0  0  0  0
  8 10  1  0  0  0  0
  8  7  1  0  0  0  0
  9  8  2  0  0  0  0
 10 11  1  0  0  0  0
 11 12  1  0  0  0  0
 12 13  1  6  0  0  0
 12 14  1  0  0  0  0
 14 15  1  0  0  0  0
 16 15  1  1  0  0  0
 16 17  1  0  0  0  0
 16 18  1  0  0  0  0
 17 18  1  0  0  0  0
 19 22  1  0  0  0  0
 20 21  2  0  0  0  0
 20 27  1  0  0  0  0
 22 20  1  0  0  0  0
 23 28  1  0  0  0  0
 24 27  1  0  0  0  0
 24 26  2  0  0  0  0
 25 28  2  0  0  0  0
 26 25  1  0  0  0  0
 27 23  2  0  0  0  0
M  END
>  <MODEL>
8

>  <REMARK>
 VINA RESULT:      -7.9      2.425      6.489
  Name = 
  10 active torsions:
  status: ('A' for Active; 'I' for Inactive)
    1  A    between atoms: N_1  and  C_18
    2  A    between atoms: N_1  and  C_22
    3  A    between atoms: C_2  and  C_16
    4  A    between atoms: C_2  and  N_28
    5  A    between atoms: C_3  and  C_19
    6  A    between atoms: C_3  and  C_20
    7  A    between atoms: C_8  and  C_22
    8  A    between atoms: C_9  and  C_15
    9  A    between atoms: C_18  and  N_26
   10  A    between atoms: C_20  and  N_26
                            x       y       z     vdW  Elec       q    Type
                         _______ _______ _______ _____ _____    ______ ____

>  <TORSDO>
F 10

$$$$
=
 OpenBabel11062413343D

 28 30  0  0  1  0  0  0  0  0999 V2000
  185.7480  178.5480  141.1400 C   0  0  1  0  0  3  0  0  0  0  0  0
  183.5160  178.4570  139.1990 C   0  0  0  0  0  2  0  0  0  0  0  0
  186.0680  179.8620  141.4960 O   0  0  0  0  0  1  0  0  0  0  0  0
  184.9610  178.4010  138.7830 C   0  0  0  0  0  3  0  0  0  0  0  0
  184.3000  178.2210  141.5390 C   0  0  2  0  0  3  0  0  0  0  0  0
  183.3390  178.9650  140.6260 C   0  0  0  0  0  2  0  0  0  0  0  0
  185.9830  178.3630  139.6550 C   0  0  0  0  0  0  0  0  0  0  0  0
  187.3660  178.2510  139.1420 C   0  0  0  0  0  0  0  0  0  0  0  0
  187.6790  178.7680  138.0360 O   0  0  0  0  0  0  0  0  0  0  0  0
  188.4210  177.5400  139.9260 C   0  0  0  0  0  2  0  0  0  0  0  0
  189.7420  177.9090  139.4410 N   0  0  0  0  0  2  0  0  0  0  0  0
  190.6670  176.8390  139.7970 C   0  0  1  0  0  3  0  0  0  0  0  0
  191.9790  177.2270  139.5150 O   0  0  0  0  0  1  0  0  0  0  0  0
  190.5290  176.4680  141.2080 N   0  0  0  0  0  2  0  0  0  0  0  0
  191.5340  177.1590  142.0090 C   0  0  0  0  0  2  0  0  0  0  0  0
  190.9560  177.4870  143.3690 C   0  0  1  0  0  3  0  0  0  0  0  0
  191.4070  178.8270  143.7980 C   0  0  0  0  0  2  0  0  0  0  0  0
  190.1270  178.6160  143.2530 O   0  0  0  0  0  0  0  0  0  0  0  0
  184.0130  178.5610  142.9960 C   0  0  0  0  0  2  0  0  0  0  0  0
  185.1880  178.5060  145.2440 C   0  0  0  0  0  0  0  0  0  0  0  0
  184.1700  178.9780  145.8170 O   0  0  0  0  0  0  0  0  0  0  0  0
  185.1740  178.2810  143.8300 N   0  0  0  0  0  2  0  0  0  0  0  0
  187.4810  177.5370  145.4240 C   0  0  0  0  0  3  0  0  0  0  0  0
  186.4730  178.5370  147.3840 C   0  0  0  0  0  3  0  0  0  0  0  0
  188.7000  177.5970  147.5140 C   0  0  0  0  0  3  0  0  0  0  0  0
  187.6220  178.2420  148.1250 C   0  0  0  0  0  3  0  0  0  0  0  0
  186.3950  178.1880  146.0280 C   0  0  0  0  0  0  0  0  0  0  0  0
  188.6300  177.2430  146.1640 C   0  0  0  0  0  3  0  0  0  0  0  0
  1  3  1  6  0  0  0
  1  5  1  0  0  0  0
  2  6  1  0  0  0  0
  4  2  1  0  0  0  0
  4  7  2  0  0  0  0
  5 19  1  1  0  0  0
  6  5  1  0  0  0  0
  7  1  1  0  0  0  0
  8  7  1  0  0  0  0
  8 10  1  0  0  0  0
  9  8  2  0  0  0  0
 11 12  1  0  0  0  0
 11 10  1  0  0  0  0
 12 13  1  1  0  0  0
 12 14  1  0  0  0  0
 14 15  1  0  0  0  0
 16 15  1  6  0  0  0
 16 17  1  0  0  0  0
 18 16  1  0  0  0  0
 18 17  1  0  0  0  0
 19 22  1  0  0  0  0
 20 21  2  0  0  0  0
 20 27  1  0  0  0  0
 22 20  1  0  0  0  0
 23 27  2  0  0  0  0
 23 28  1  0  0  0  0
 24 26  2  0  0  0  0
 25 26  1  0  0  0  0
 27 24  1  0  0  0  0
 28 25  2  0  0  0  0
M  END
>  <MODEL>
9

>  <REMARK>
 VINA RESULT:      -7.9      1.950      5.811
  Name = 
  10 active torsions:
  status: ('A' for Active; 'I' for Inactive)
    1  A    between atoms: N_1  and  C_18
    2  A    between atoms: N_1  and  C_22
    3  A    between atoms: C_2  and  C_16
    4  A    between atoms: C_2  and  N_28
    5  A    between atoms: C_3  and  C_19
    6  A    between atoms: C_3  and  C_20
    7  A    between atoms: C_8  and  C_22
    8  A    between atoms: C_9  and  C_15
    9  A    between atoms: C_18  and  N_26
   10  A    between atoms: C_20  and  N_26
                            x       y       z     vdW  Elec       q    Type
                         _______ _______ _______ _____ _____    ______ ____

>  <TORSDO>
F 10

$$$$
