=
 OpenBabel11062417103D

 36 41  0  0  1  0  0  0  0  0999 V2000
  182.1970  175.3490  136.8610 N   0  0  0  0  0  0  0  0  0  0  0  0
  181.0120  177.5900  138.5030 N   0  0  0  0  0  0  0  0  0  0  0  0
  181.3210  180.3730  137.7420 N   0  0  0  0  0  2  0  0  0  0  0  0
  180.6140  173.8880  137.9550 C   0  0  0  0  0  3  0  0  0  0  0  0
  181.3130  181.8210  137.8740 C   0  0  0  0  0  1  0  0  0  0  0  0
  181.1610  175.1710  137.8330 C   0  0  0  0  0  0  0  0  0  0  0  0
  184.7540  177.8250  137.9970 C   0  0  0  0  0  0  0  0  0  0  0  0
  183.3760  177.1620  138.0230 C   0  0  2  0  0  3  0  0  0  0  0  0
  184.2260  179.3640  139.8930 C   0  0  1  0  0  3  0  0  0  0  0  0
  185.4340  176.7060  135.9360 C   0  0  0  0  0  3  0  0  0  0  0  0
  182.3060  179.5470  138.3680 C   0  0  0  0  0  0  0  0  0  0  0  0
  184.1420  176.1110  135.8300 N   0  0  0  0  0  0  0  0  0  0  0  0
  183.1630  176.2130  136.8660 C   0  0  0  0  0  0  0  0  0  0  0  0
  185.1420  178.7290  138.8960 C   0  0  0  0  0  2  0  0  0  0  0  0
  183.1830  180.0880  139.1690 N   0  0  0  0  0  0  0  0  0  0  0  0
  179.5380  175.9380  139.4590 C   0  0  0  0  0  3  0  0  0  0  0  0
  180.6070  176.2190  138.6020 C   0  0  0  0  0  0  0  0  0  0  0  0
  179.0430  174.6390  139.5600 C   0  0  0  0  0  3  0  0  0  0  0  0
  185.7390  177.4910  136.9600 C   0  0  0  0  0  3  0  0  0  0  0  0
  182.1810  178.0790  138.2220 C   0  0  0  0  0  0  0  0  0  0  0  0
  179.5880  173.6460  138.8110 N   0  0  0  0  0  0  0  0  0  0  0  0
  183.6370  178.3960  140.9200 C   0  0  0  0  0  2  0  0  0  0  0  0
  184.6840  177.8630  141.7810 N   0  0  0  0  0  2  0  0  0  0  0  0
  186.0910  178.4470  145.2010 C   0  0  0  0  0  3  0  0  0  0  0  0
  183.6450  178.6290  143.8750 C   0  0  0  0  0  3  0  0  0  0  0  0
  184.7770  178.1760  143.1760 C   0  0  0  0  0  0  0  0  0  0  0  0
  186.0130  178.0740  143.8500 C   0  0  0  0  0  0  0  0  0  0  0  0
  183.7330  178.9810  145.2210 C   0  0  0  0  0  3  0  0  0  0  0  0
  184.9580  178.8940  145.8840 C   0  0  0  0  0  3  0  0  0  0  0  0
  187.7700  178.2790  142.0560 C   0  0  0  0  0  0  0  0  0  0  0  0
  188.9290  177.8020  141.4350 C   0  0  0  0  0  3  0  0  0  0  0  0
  187.2370  177.6010  143.1710 C   0  0  0  0  0  0  0  0  0  0  0  0
  187.1520  179.3730  141.5440 F   0  0  0  0  0  0  0  0  0  0  0  0
  187.8690  176.4350  143.6280 C   0  0  0  0  0  3  0  0  0  0  0  0
  189.0260  175.9620  143.0040 C   0  0  0  0  0  3  0  0  0  0  0  0
  189.5590  176.6500  141.9110 C   0  0  0  0  0  3  0  0  0  0  0  0
  1 13  2  0  0  0  0
  1  6  1  0  0  0  0
  2 17  1  0  0  0  0
  3  5  1  0  0  0  0
  3 11  1  0  0  0  0
  4 21  1  0  0  0  0
  6  4  2  0  0  0  0
  6 17  1  0  0  0  0
  7  8  1  0  0  0  0
  7 14  1  0  0  0  0
  8 13  1  6  0  0  0
  8 20  1  0  0  0  0
  9 22  1  6  0  0  0
 10 19  1  0  0  0  0
 11 15  2  0  0  0  0
 12 10  2  0  0  0  0
 12 13  1  0  0  0  0
 14  9  1  0  0  0  0
 15  9  1  0  0  0  0
 16 18  1  0  0  0  0
 17 16  2  0  0  0  0
 19  7  2  0  0  0  0
 20 11  1  0  0  0  0
 20  2  2  0  0  0  0
 21 18  2  0  0  0  0
 22 23  1  0  0  0  0
 23 26  1  0  0  0  0
 24 29  1  0  0  0  0
 25 28  1  0  0  0  0
 26 27  1  0  0  0  0
 26 25  2  0  0  0  0
 27 24  2  0  0  0  0
 28 29  2  0  0  0  0
 30 32  1  0  0  0  0
 31 36  1  0  0  0  0
 31 30  2  0  0  0  0
 32 34  2  0  0  0  0
 32 27  1  0  0  0  0
 33 30  1  0  0  0  0
 35 34  1  0  0  0  0
 36 35  2  0  0  0  0
M  END
>  <MODEL>
1

>  <REMARK>
 VINA RESULT:      -9.1      0.000      0.000
  Name = 
  4 active torsions:
  status: ('A' for Active; 'I' for Inactive)
    1  A    between atoms: C_5  and  N_14
    2  A    between atoms: C_5  and  C_19
    3  A    between atoms: C_10  and  C_26
    4  A    between atoms: N_14  and  C_16
                            x       y       z     vdW  Elec       q    Type
                         _______ _______ _______ _____ _____    ______ ____

>  <TORSDO>
F 4

$$$$
=
 OpenBabel11062417103D

 36 41  0  0  1  0  0  0  0  0999 V2000
  183.3150  175.1680  136.3660 N   0  0  0  0  0  0  0  0  0  0  0  0
  181.3070  177.0180  137.6590 N   0  0  0  0  0  0  0  0  0  0  0  0
  181.1010  179.8140  136.9100 N   0  0  0  0  0  2  0  0  0  0  0  0
  181.9300  173.3440  137.1330 C   0  0  0  0  0  3  0  0  0  0  0  0
  180.7210  181.2140  137.0010 C   0  0  0  0  0  1  0  0  0  0  0  0
  182.1680  174.7230  137.0980 C   0  0  0  0  0  0  0  0  0  0  0  0
  184.9050  178.1500  137.9600 C   0  0  0  0  0  0  0  0  0  0  0  0
  183.7520  177.1780  137.7080 C   0  0  2  0  0  3  0  0  0  0  0  0
  183.6330  179.4670  139.6590 C   0  0  1  0  0  3  0  0  0  0  0  0
  186.2570  177.2800  136.1220 C   0  0  0  0  0  3  0  0  0  0  0  0
  182.0960  179.2300  137.7540 C   0  0  0  0  0  0  0  0  0  0  0  0
  185.1980  176.3980  135.7570 N   0  0  0  0  0  0  0  0  0  0  0  0
  184.0240  176.2370  136.5560 C   0  0  0  0  0  0  0  0  0  0  0  0
  184.8650  179.0960  138.8980 C   0  0  0  0  0  2  0  0  0  0  0  0
  182.6270  179.9420  138.7100 N   0  0  0  0  0  0  0  0  0  0  0  0
  180.1000  175.0370  138.3180 C   0  0  0  0  0  3  0  0  0  0  0  0
  181.2290  175.5880  137.7040 C   0  0  0  0  0  0  0  0  0  0  0  0
  179.9190  173.6560  138.3440 C   0  0  0  0  0  3  0  0  0  0  0  0
  186.1390  178.0880  137.1670 C   0  0  0  0  0  3  0  0  0  0  0  0
  182.3590  177.7780  137.6220 C   0  0  0  0  0  0  0  0  0  0  0  0
  180.8320  172.8420  137.7550 N   0  0  0  0  0  0  0  0  0  0  0  0
  183.0850  178.3600  140.5610 C   0  0  0  0  0  2  0  0  0  0  0  0
  184.1320  177.8450  141.4340 N   0  0  0  0  0  2  0  0  0  0  0  0
  185.6020  178.7190  144.7640 C   0  0  0  0  0  3  0  0  0  0  0  0
  183.0970  178.5510  143.5500 C   0  0  0  0  0  3  0  0  0  0  0  0
  184.2440  178.2170  142.8130 C   0  0  0  0  0  0  0  0  0  0  0  0
  185.5120  178.2910  143.4300 C   0  0  0  0  0  0  0  0  0  0  0  0
  183.1990  178.9590  144.8800 C   0  0  0  0  0  3  0  0  0  0  0  0
  184.4530  179.0470  145.4860 C   0  0  0  0  0  3  0  0  0  0  0  0
  187.6310  176.9520  143.1810 C   0  0  0  0  0  0  0  0  0  0  0  0
  188.8020  176.6550  142.4740 C   0  0  0  0  0  3  0  0  0  0  0  0
  186.7550  177.9490  142.7080 C   0  0  0  0  0  0  0  0  0  0  0  0
  187.3810  176.2960  144.3420 F   0  0  0  0  0  0  0  0  0  0  0  0
  187.0840  178.6510  141.5390 C   0  0  0  0  0  3  0  0  0  0  0  0
  188.2540  178.3510  140.8360 C   0  0  0  0  0  3  0  0  0  0  0  0
  189.1100  177.3490  141.3010 C   0  0  0  0  0  3  0  0  0  0  0  0
  1 13  2  0  0  0  0
  1  6  1  0  0  0  0
  2 17  1  0  0  0  0
  3  5  1  0  0  0  0
  3 11  1  0  0  0  0
  4 21  1  0  0  0  0
  6  4  2  0  0  0  0
  6 17  1  0  0  0  0
  7 14  1  0  0  0  0
  8 13  1  6  0  0  0
  8  7  1  0  0  0  0
  9 22  1  6  0  0  0
 10 19  1  0  0  0  0
 11 15  2  0  0  0  0
 12 10  2  0  0  0  0
 12 13  1  0  0  0  0
 14  9  1  0  0  0  0
 15  9  1  0  0  0  0
 16 18  1  0  0  0  0
 17 16  2  0  0  0  0
 19  7  2  0  0  0  0
 20  2  2  0  0  0  0
 20  8  1  0  0  0  0
 20 11  1  0  0  0  0
 21 18  2  0  0  0  0
 22 23  1  0  0  0  0
 23 26  1  0  0  0  0
 24 29  1  0  0  0  0
 25 28  1  0  0  0  0
 26 27  1  0  0  0  0
 26 25  2  0  0  0  0
 27 24  2  0  0  0  0
 28 29  2  0  0  0  0
 30 33  1  0  0  0  0
 31 30  2  0  0  0  0
 32 30  1  0  0  0  0
 32 27  1  0  0  0  0
 34 32  2  0  0  0  0
 35 36  2  0  0  0  0
 35 34  1  0  0  0  0
 36 31  1  0  0  0  0
M  END
>  <MODEL>
2

>  <REMARK>
 VINA RESULT:      -8.8      1.145      1.445
  Name = 
  4 active torsions:
  status: ('A' for Active; 'I' for Inactive)
    1  A    between atoms: C_5  and  N_14
    2  A    between atoms: C_5  and  C_19
    3  A    between atoms: C_10  and  C_26
    4  A    between atoms: N_14  and  C_16
                            x       y       z     vdW  Elec       q    Type
                         _______ _______ _______ _____ _____    ______ ____

>  <TORSDO>
F 4

$$$$
=
 OpenBabel11062417103D

 36 41  0  0  1  0  0  0  0  0999 V2000
  182.9520  176.5990  135.5620 N   0  0  0  0  0  0  0  0  0  0  0  0
  182.5520  175.1800  138.1980 N   0  0  0  0  0  0  0  0  0  0  0  0
  179.9910  175.1860  139.5640 N   0  0  0  0  0  2  0  0  0  0  0  0
  184.8860  175.1850  135.2460 C   0  0  0  0  0  3  0  0  0  0  0  0
  179.0350  175.0220  140.6470 C   0  0  0  0  0  1  0  0  0  0  0  0
  183.8300  175.5900  136.0720 C   0  0  0  0  0  0  0  0  0  0  0  0
  181.7370  178.8750  138.2630 C   0  0  0  0  0  0  0  0  0  0  0  0
  182.3440  177.5770  137.7300 C   0  0  2  0  0  3  0  0  0  0  0  0
  181.9650  178.1860  140.6540 C   0  0  1  0  0  3  0  0  0  0  0  0
  181.0790  179.6690  136.0500 C   0  0  0  0  0  3  0  0  0  0  0  0
  180.9400  176.2550  139.5290 C   0  0  0  0  0  0  0  0  0  0  0  0
  181.5390  178.4490  135.4730 N   0  0  0  0  0  0  0  0  0  0  0  0
  182.2540  177.4660  136.2250 C   0  0  0  0  0  0  0  0  0  0  0  0
  181.6680  179.1640  139.5630 C   0  0  0  0  0  2  0  0  0  0  0  0
  181.0280  177.0700  140.5450 N   0  0  0  0  0  0  0  0  0  0  0  0
  184.5200  173.8950  137.6590 C   0  0  0  0  0  3  0  0  0  0  0  0
  183.6440  174.9260  137.3060 C   0  0  0  0  0  0  0  0  0  0  0  0
  185.5680  173.5440  136.8110 C   0  0  0  0  0  3  0  0  0  0  0  0
  181.1880  179.8880  137.3530 C   0  0  0  0  0  3  0  0  0  0  0  0
  181.9120  176.2900  138.4120 C   0  0  0  0  0  0  0  0  0  0  0  0
  185.7290  174.1920  135.6290 N   0  0  0  0  0  0  0  0  0  0  0  0
  183.4170  177.7060  140.6990 C   0  0  0  0  0  2  0  0  0  0  0  0
  184.2480  178.6550  141.4290 N   0  0  0  0  0  2  0  0  0  0  0  0
  185.7180  178.4050  144.8630 C   0  0  0  0  0  3  0  0  0  0  0  0
  183.2640  178.9620  143.6620 C   0  0  0  0  0  3  0  0  0  0  0  0
  184.3690  178.6420  142.8570 C   0  0  0  0  0  0  0  0  0  0  0  0
  185.6100  178.3500  143.4650 C   0  0  0  0  0  0  0  0  0  0  0  0
  183.3820  178.9980  145.0510 C   0  0  0  0  0  3  0  0  0  0  0  0
  184.6110  178.7240  145.6520 C   0  0  0  0  0  3  0  0  0  0  0  0
  187.6680  176.9560  143.0570 C   0  0  0  0  0  0  0  0  0  0  0  0
  188.7950  176.6560  142.2840 C   0  0  0  0  0  3  0  0  0  0  0  0
  186.8070  178.0030  142.6710 C   0  0  0  0  0  0  0  0  0  0  0  0
  187.4470  176.2540  144.1960 F   0  0  0  0  0  0  0  0  0  0  0  0
  187.1080  178.7490  141.5230 C   0  0  0  0  0  3  0  0  0  0  0  0
  188.2350  178.4460  140.7540 C   0  0  0  0  0  3  0  0  0  0  0  0
  189.0750  177.3960  141.1320 C   0  0  0  0  0  3  0  0  0  0  0  0
  1  6  1  0  0  0  0
  1 13  2  0  0  0  0
  2 20  2  0  0  0  0
  3  5  1  0  0  0  0
  4 21  2  0  0  0  0
  4  6  1  0  0  0  0
  6 17  2  0  0  0  0
  7 14  1  0  0  0  0
  8 13  1  6  0  0  0
  8  7  1  0  0  0  0
  8 20  1  0  0  0  0
  9 22  1  6  0  0  0
 10 19  1  0  0  0  0
 11  3  1  0  0  0  0
 11 15  2  0  0  0  0
 12 10  2  0  0  0  0
 12 13  1  0  0  0  0
 14  9  1  0  0  0  0
 15  9  1  0  0  0  0
 17 16  1  0  0  0  0
 17  2  1  0  0  0  0
 18 16  2  0  0  0  0
 19  7  2  0  0  0  0
 20 11  1  0  0  0  0
 21 18  1  0  0  0  0
 22 23  1  0  0  0  0
 23 26  1  0  0  0  0
 24 29  1  0  0  0  0
 25 28  1  0  0  0  0
 26 27  1  0  0  0  0
 26 25  2  0  0  0  0
 27 24  2  0  0  0  0
 28 29  2  0  0  0  0
 30 33  1  0  0  0  0
 31 30  2  0  0  0  0
 32 30  1  0  0  0  0
 32 27  1  0  0  0  0
 34 32  2  0  0  0  0
 35 36  2  0  0  0  0
 35 34  1  0  0  0  0
 36 31  1  0  0  0  0
M  END
>  <MODEL>
3

>  <REMARK>
 VINA RESULT:      -8.2      1.696      3.606
  Name = 
  4 active torsions:
  status: ('A' for Active; 'I' for Inactive)
    1  A    between atoms: C_5  and  N_14
    2  A    between atoms: C_5  and  C_19
    3  A    between atoms: C_10  and  C_26
    4  A    between atoms: N_14  and  C_16
                            x       y       z     vdW  Elec       q    Type
                         _______ _______ _______ _____ _____    ______ ____

>  <TORSDO>
F 4

$$$$
=
 OpenBabel11062417103D

 36 41  0  0  1  0  0  0  0  0999 V2000
  179.6400  181.5220  139.8340 N   0  0  0  0  0  0  0  0  0  0  0  0
  180.4500  179.2670  137.9940 N   0  0  0  0  0  0  0  0  0  0  0  0
  179.6880  176.5170  138.5200 N   0  0  0  0  0  2  0  0  0  0  0  0
  180.0600  183.0110  137.9780 C   0  0  0  0  0  3  0  0  0  0  0  0
  179.6970  175.0670  138.4140 C   0  0  0  0  0  1  0  0  0  0  0  0
  180.0880  181.7070  138.4870 C   0  0  0  0  0  0  0  0  0  0  0  0
  181.5700  178.8440  141.5840 C   0  0  0  0  0  0  0  0  0  0  0  0
  181.0560  179.5830  140.3480 C   0  0  2  0  0  3  0  0  0  0  0  0
  182.9410  177.2370  140.2490 C   0  0  1  0  0  3  0  0  0  0  0  0
  180.0850  180.0330  143.1140 C   0  0  0  0  0  3  0  0  0  0  0  0
  180.7340  177.2490  139.1640 C   0  0  0  0  0  0  0  0  0  0  0  0
  179.4830  180.7060  142.0110 N   0  0  0  0  0  0  0  0  0  0  0  0
  179.9920  180.6040  140.6790 C   0  0  0  0  0  0  0  0  0  0  0  0
  182.4790  177.8720  141.5220 C   0  0  0  0  0  2  0  0  0  0  0  0
  181.7900  176.6150  139.5960 N   0  0  0  0  0  0  0  0  0  0  0  0
  180.8050  180.9480  136.3020 C   0  0  0  0  0  3  0  0  0  0  0  0
  180.4680  180.6520  137.6260 C   0  0  0  0  0  0  0  0  0  0  0  0
  180.7820  182.2660  135.8500 C   0  0  0  0  0  3  0  0  0  0  0  0
  181.0800  179.1760  142.9270 C   0  0  0  0  0  3  0  0  0  0  0  0
  180.6580  178.7280  139.1570 C   0  0  0  0  0  0  0  0  0  0  0  0
  180.4120  183.2640  136.6920 N   0  0  0  0  0  0  0  0  0  0  0  0
  183.6880  178.1800  139.3040 C   0  0  0  0  0  2  0  0  0  0  0  0
  184.6900  178.9470  140.0320 N   0  0  0  0  0  2  0  0  0  0  0  0
  188.1520  178.0560  141.1440 C   0  0  0  0  0  3  0  0  0  0  0  0
  186.7460  178.4680  138.7710 C   0  0  0  0  0  3  0  0  0  0  0  0
  186.0860  178.6280  140.0000 C   0  0  0  0  0  0  0  0  0  0  0  0
  186.8000  178.4300  141.2020 C   0  0  0  0  0  0  0  0  0  0  0  0
  188.0940  178.1120  138.7270 C   0  0  0  0  0  3  0  0  0  0  0  0
  188.7960  177.9000  139.9150 C   0  0  0  0  0  3  0  0  0  0  0  0
  186.4380  177.7010  143.5870 C   0  0  0  0  0  0  0  0  0  0  0  0
  185.8130  177.8770  144.8260 C   0  0  0  0  0  3  0  0  0  0  0  0
  186.1620  178.5870  142.5260 C   0  0  0  0  0  0  0  0  0  0  0  0
  187.2730  176.6460  143.4150 F   0  0  0  0  0  0  0  0  0  0  0  0
  185.2410  179.6260  142.7240 C   0  0  0  0  0  3  0  0  0  0  0  0
  184.6200  179.7980  143.9640 C   0  0  0  0  0  3  0  0  0  0  0  0
  184.9110  178.9260  145.0160 C   0  0  0  0  0  3  0  0  0  0  0  0
  1 13  2  0  0  0  0
  2 20  2  0  0  0  0
  3 11  1  0  0  0  0
  4  6  1  0  0  0  0
  5  3  1  0  0  0  0
  6  1  1  0  0  0  0
  7 19  2  0  0  0  0
  8 20  1  6  0  0  0
  8 13  1  0  0  0  0
  8  7  1  0  0  0  0
  9 22  1  6  0  0  0
  9 14  1  0  0  0  0
 11 15  2  0  0  0  0
 12 10  2  0  0  0  0
 13 12  1  0  0  0  0
 14  7  1  0  0  0  0
 15  9  1  0  0  0  0
 16 17  1  0  0  0  0
 17  2  1  0  0  0  0
 17  6  2  0  0  0  0
 18 16  2  0  0  0  0
 18 21  1  0  0  0  0
 19 10  1  0  0  0  0
 20 11  1  0  0  0  0
 21  4  2  0  0  0  0
 22 23  1  0  0  0  0
 24 27  1  0  0  0  0
 25 26  1  0  0  0  0
 26 23  1  0  0  0  0
 26 27  2  0  0  0  0
 27 32  1  0  0  0  0
 28 25  2  0  0  0  0
 28 29  1  0  0  0  0
 29 24  2  0  0  0  0
 30 31  1  0  0  0  0
 31 36  2  0  0  0  0
 32 34  1  0  0  0  0
 32 30  2  0  0  0  0
 33 30  1  0  0  0  0
 34 35  2  0  0  0  0
 35 36  1  0  0  0  0
M  END
>  <MODEL>
4

>  <REMARK>
 VINA RESULT:      -8.0      2.124      5.702
  Name = 
  4 active torsions:
  status: ('A' for Active; 'I' for Inactive)
    1  A    between atoms: C_5  and  N_14
    2  A    between atoms: C_5  and  C_19
    3  A    between atoms: C_10  and  C_26
    4  A    between atoms: N_14  and  C_16
                            x       y       z     vdW  Elec       q    Type
                         _______ _______ _______ _____ _____    ______ ____

>  <TORSDO>
F 4

$$$$
=
 OpenBabel11062417103D

 36 41  0  0  1  0  0  0  0  0999 V2000
  186.2690  179.1830  142.0520 N   0  0  0  0  0  0  0  0  0  0  0  0
  184.9400  179.1640  139.3390 N   0  0  0  0  0  0  0  0  0  0  0  0
  182.7070  180.9110  138.7190 N   0  0  0  0  0  2  0  0  0  0  0  0
  188.1710  178.1470  140.9810 C   0  0  0  0  0  3  0  0  0  0  0  0
  181.5550  181.4310  138.0000 C   0  0  0  0  0  1  0  0  0  0  0  0
  186.8600  178.6280  140.8730 C   0  0  0  0  0  0  0  0  0  0  0  0
  182.6060  178.4670  142.2350 C   0  0  0  0  0  0  0  0  0  0  0  0
  183.9440  178.6080  141.5080 C   0  0  2  0  0  3  0  0  0  0  0  0
  181.3910  177.7170  140.1850 C   0  0  1  0  0  3  0  0  0  0  0  0
  183.4310  179.4890  144.2940 C   0  0  0  0  0  3  0  0  0  0  0  0
  182.6570  179.7040  139.4840 C   0  0  0  0  0  0  0  0  0  0  0  0
  184.6870  179.7420  143.6680 N   0  0  0  0  0  2  0  0  0  0  0  0
  185.0140  179.2370  142.3720 C   0  0  0  0  0  0  0  0  0  0  0  0
  181.5120  177.9780  141.6520 C   0  0  0  0  0  3  0  0  0  0  0  0
  181.5720  178.9800  139.4720 N   0  0  0  0  0  0  0  0  0  0  0  0
  186.9510  178.1270  138.5050 C   0  0  0  0  0  3  0  0  0  0  0  0
  186.2390  178.6180  139.6030 C   0  0  0  0  0  0  0  0  0  0  0  0
  188.2460  177.6400  138.6690 C   0  0  0  0  0  3  0  0  0  0  0  0
  182.4570  178.8710  143.6390 C   0  0  0  0  0  3  0  0  0  0  0  0
  183.9070  179.2300  140.1230 C   0  0  0  0  0  0  0  0  0  0  0  0
  188.8260  177.6600  139.8960 N   0  0  0  0  0  0  0  0  0  0  0  0
  182.3240  176.6270  139.6550 C   0  0  0  0  0  2  0  0  0  0  0  0
  181.9760  176.2770  138.2840 N   0  0  0  0  0  2  0  0  0  0  0  0
  182.0800  172.8160  136.8590 C   0  0  0  0  0  3  0  0  0  0  0  0
  180.3240  174.4550  138.2750 C   0  0  0  0  0  3  0  0  0  0  0  0
  181.5810  174.9550  137.8980 C   0  0  0  0  0  0  0  0  0  0  0  0
  182.4670  174.1290  137.1710 C   0  0  0  0  0  0  0  0  0  0  0  0
  179.9460  173.1540  137.9430 C   0  0  0  0  0  3  0  0  0  0  0  0
  180.8270  172.3320  137.2390 C   0  0  0  0  0  3  0  0  0  0  0  0
  184.9810  174.0980  137.3280 C   0  0  0  0  0  0  0  0  0  0  0  0
  186.2280  174.5670  136.9010 C   0  0  0  0  0  3  0  0  0  0  0  0
  183.8000  174.5990  136.7440 C   0  0  0  0  0  0  0  0  0  0  0  0
  184.9300  173.1890  138.3340 F   0  0  0  0  0  0  0  0  0  0  0  0
  183.8940  175.5870  135.7520 C   0  0  0  0  0  3  0  0  0  0  0  0
  185.1420  176.0530  135.3290 C   0  0  0  0  0  3  0  0  0  0  0  0
  186.3090  175.5390  135.9000 C   0  0  0  0  0  3  0  0  0  0  0  0
  1 13  2  0  0  0  0
  2 17  1  0  0  0  0
  2 20  2  0  0  0  0
  3 11  1  0  0  0  0
  5  3  1  0  0  0  0
  6  4  1  0  0  0  0
  6  1  1  0  0  0  0
  7 19  1  0  0  0  0
  8 20  1  6  0  0  0
  8  7  1  0  0  0  0
  8 13  1  0  0  0  0
  9 22  1  6  0  0  0
  9 14  1  0  0  0  0
 11 20  1  0  0  0  0
 12 10  1  0  0  0  0
 13 12  1  0  0  0  0
 14  7  2  0  0  0  0
 15 11  2  0  0  0  0
 15  9  1  0  0  0  0
 16 18  2  0  0  0  0
 16 17  1  0  0  0  0
 17  6  2  0  0  0  0
 18 21  1  0  0  0  0
 19 10  2  0  0  0  0
 21  4  2  0  0  0  0
 23 22  1  0  0  0  0
 24 27  2  0  0  0  0
 24 29  1  0  0  0  0
 26 25  2  0  0  0  0
 26 23  1  0  0  0  0
 27 26  1  0  0  0  0
 28 25  1  0  0  0  0
 29 28  2  0  0  0  0
 30 33  1  0  0  0  0
 31 30  1  0  0  0  0
 32 27  1  0  0  0  0
 32 30  2  0  0  0  0
 34 32  1  0  0  0  0
 35 34  2  0  0  0  0
 35 36  1  0  0  0  0
 36 31  2  0  0  0  0
M  END
>  <MODEL>
5

>  <REMARK>
 VINA RESULT:      -7.7      2.255      7.109
  Name = 
  4 active torsions:
  status: ('A' for Active; 'I' for Inactive)
    1  A    between atoms: C_5  and  N_14
    2  A    between atoms: C_5  and  C_19
    3  A    between atoms: C_10  and  C_26
    4  A    between atoms: N_14  and  C_16
                            x       y       z     vdW  Elec       q    Type
                         _______ _______ _______ _____ _____    ______ ____

>  <TORSDO>
F 4

$$$$
=
 OpenBabel11062417103D

 36 41  0  0  1  0  0  0  0  0999 V2000
  181.4970  175.4900  137.0690 N   0  0  0  0  0  0  0  0  0  0  0  0
  181.3730  177.7470  139.0730 N   0  0  0  0  0  0  0  0  0  0  0  0
  181.8270  180.5060  138.2970 N   0  0  0  0  0  2  0  0  0  0  0  0
  180.2110  174.1920  138.6500 C   0  0  0  0  0  3  0  0  0  0  0  0
  182.1020  181.9260  138.4470 C   0  0  0  0  0  1  0  0  0  0  0  0
  180.8750  175.3890  138.3540 C   0  0  0  0  0  0  0  0  0  0  0  0
  184.6560  177.4790  137.2100 C   0  0  0  0  0  0  0  0  0  0  0  0
  183.2960  177.0210  137.7380 C   0  0  2  0  0  3  0  0  0  0  0  0
  185.1140  178.9300  139.1920 C   0  0  1  0  0  3  0  0  0  0  0  0
  184.3450  176.4330  135.0270 C   0  0  0  0  0  3  0  0  0  0  0  0
  182.8260  179.5030  138.4970 C   0  0  0  0  0  0  0  0  0  0  0  0
  183.0260  176.0400  135.4000 N   0  0  0  0  0  0  0  0  0  0  0  0
  182.5240  176.2030  136.7280 C   0  0  0  0  0  0  0  0  0  0  0  0
  185.4860  178.2480  137.9150 C   0  0  0  0  0  2  0  0  0  0  0  0
  184.0100  179.8500  138.9220 N   0  0  0  0  0  0  0  0  0  0  0  0
  180.1050  176.2560  140.4810 C   0  0  0  0  0  3  0  0  0  0  0  0
  180.8170  176.4440  139.2930 C   0  0  0  0  0  0  0  0  0  0  0  0
  179.4790  175.0370  140.7370 C   0  0  0  0  0  3  0  0  0  0  0  0
  185.1260  177.0870  135.8760 C   0  0  0  0  0  3  0  0  0  0  0  0
  182.4210  178.0820  138.3840 C   0  0  0  0  0  0  0  0  0  0  0  0
  179.5440  174.0360  139.8230 N   0  0  0  0  0  0  0  0  0  0  0  0
  184.7930  177.9820  140.3490 C   0  0  0  0  0  2  0  0  0  0  0  0
  184.8820  178.6820  141.6240 N   0  0  0  0  0  2  0  0  0  0  0  0
  182.9760  178.6310  144.8460 C   0  0  0  0  0  3  0  0  0  0  0  0
  182.4960  179.0100  142.1250 C   0  0  0  0  0  3  0  0  0  0  0  0
  183.8000  178.7240  142.5630 C   0  0  0  0  0  0  0  0  0  0  0  0
  184.0420  178.5220  143.9390 C   0  0  0  0  0  0  0  0  0  0  0  0
  181.4440  179.0990  143.0360 C   0  0  0  0  0  3  0  0  0  0  0  0
  181.6840  178.9140  144.3980 C   0  0  0  0  0  3  0  0  0  0  0  0
  185.6840  178.2920  145.8360 C   0  0  0  0  0  0  0  0  0  0  0  0
  186.9730  177.9980  146.2950 C   0  0  0  0  0  3  0  0  0  0  0  0
  185.3900  178.2150  144.4600 C   0  0  0  0  0  0  0  0  0  0  0  0
  184.7430  178.6890  146.7290 F   0  0  0  0  0  0  0  0  0  0  0  0
  186.4090  177.8650  143.5610 C   0  0  0  0  0  3  0  0  0  0  0  0
  187.6950  177.5720  144.0240 C   0  0  0  0  0  3  0  0  0  0  0  0
  187.9750  177.6340  145.3920 C   0  0  0  0  0  3  0  0  0  0  0  0
  1  6  1  0  0  0  0
  2 17  1  0  0  0  0
  3  5  1  0  0  0  0
  3 11  1  0  0  0  0
  4 21  1  0  0  0  0
  6  4  2  0  0  0  0
  6 17  1  0  0  0  0
  7  8  1  0  0  0  0
  7 14  1  0  0  0  0
  8 13  1  6  0  0  0
  8 20  1  0  0  0  0
  9 22  1  1  0  0  0
 10 12  2  0  0  0  0
 10 19  1  0  0  0  0
 11 15  2  0  0  0  0
 12 13  1  0  0  0  0
 13  1  2  0  0  0  0
 14  9  1  0  0  0  0
 15  9  1  0  0  0  0
 16 18  1  0  0  0  0
 17 16  2  0  0  0  0
 19  7  2  0  0  0  0
 20 11  1  0  0  0  0
 20  2  2  0  0  0  0
 21 18  2  0  0  0  0
 22 23  1  0  0  0  0
 23 26  1  0  0  0  0
 25 26  2  0  0  0  0
 25 28  1  0  0  0  0
 26 27  1  0  0  0  0
 27 32  1  0  0  0  0
 27 24  2  0  0  0  0
 28 29  2  0  0  0  0
 29 24  1  0  0  0  0
 30 31  1  0  0  0  0
 30 33  1  0  0  0  0
 32 30  2  0  0  0  0
 34 35  2  0  0  0  0
 34 32  1  0  0  0  0
 35 36  1  0  0  0  0
 36 31  2  0  0  0  0
M  END
>  <MODEL>
6

>  <REMARK>
 VINA RESULT:      -7.7      1.532      2.203
  Name = 
  4 active torsions:
  status: ('A' for Active; 'I' for Inactive)
    1  A    between atoms: C_5  and  N_14
    2  A    between atoms: C_5  and  C_19
    3  A    between atoms: C_10  and  C_26
    4  A    between atoms: N_14  and  C_16
                            x       y       z     vdW  Elec       q    Type
                         _______ _______ _______ _____ _____    ______ ____

>  <TORSDO>
F 4

$$$$
=
 OpenBabel11062417103D

 36 41  0  0  1  0  0  0  0  0999 V2000
  181.4660  175.6190  137.7120 N   0  0  0  0  0  0  0  0  0  0  0  0
  181.2290  178.1000  139.4190 N   0  0  0  0  0  0  0  0  0  0  0  0
  181.6550  180.7540  138.3260 N   0  0  0  0  0  2  0  0  0  0  0  0
  180.1530  174.4930  139.3990 C   0  0  0  0  0  3  0  0  0  0  0  0
  181.8960  182.1870  138.3080 C   0  0  0  0  0  1  0  0  0  0  0  0
  180.8020  175.6610  138.9800 C   0  0  0  0  0  0  0  0  0  0  0  0
  184.5780  177.6850  137.7060 C   0  0  0  0  0  0  0  0  0  0  0  0
  183.2100  177.2630  138.2430 C   0  0  2  0  0  3  0  0  0  0  0  0
  184.9400  179.3780  139.5080 C   0  0  1  0  0  3  0  0  0  0  0  0
  184.3620  176.3740  135.6580 C   0  0  0  0  0  3  0  0  0  0  0  0
  182.6660  179.8060  138.6770 C   0  0  0  0  0  0  0  0  0  0  0  0
  183.0390  175.9980  136.0360 N   0  0  0  0  0  0  0  0  0  0  0  0
  182.4890  176.3100  137.3180 C   0  0  0  0  0  0  0  0  0  0  0  0
  185.3690  178.5540  138.3370 C   0  0  0  0  0  2  0  0  0  0  0  0
  183.8270  180.2310  139.0930 N   0  0  0  0  0  0  0  0  0  0  0  0
  179.9450  176.7610  140.9590 C   0  0  0  0  0  3  0  0  0  0  0  0
  180.6920  176.8210  139.7790 C   0  0  0  0  0  0  0  0  0  0  0  0
  179.3350  175.5690  141.3440 C   0  0  0  0  0  3  0  0  0  0  0  0
  185.1000  177.1450  136.4450 C   0  0  0  0  0  3  0  0  0  0  0  0
  182.2930  178.3740  138.7270 C   0  0  0  0  0  0  0  0  0  0  0  0
  179.4510  174.4660  140.5610 N   0  0  0  0  0  0  0  0  0  0  0  0
  184.6000  178.5710  140.7620 C   0  0  0  0  0  2  0  0  0  0  0  0
  185.4890  178.9290  141.8590 N   0  0  0  0  0  2  0  0  0  0  0  0
  188.3370  177.1910  143.5570 C   0  0  0  0  0  3  0  0  0  0  0  0
  187.6020  178.0120  140.9960 C   0  0  0  0  0  3  0  0  0  0  0  0
  186.7490  178.2840  142.0790 C   0  0  0  0  0  0  0  0  0  0  0  0
  187.1260  177.8780  143.3780 C   0  0  0  0  0  0  0  0  0  0  0  0
  188.8100  177.3430  141.1910 C   0  0  0  0  0  3  0  0  0  0  0  0
  189.1760  176.9280  142.4720 C   0  0  0  0  0  3  0  0  0  0  0  0
  186.8000  178.1220  145.8640 C   0  0  0  0  0  0  0  0  0  0  0  0
  185.9640  178.3700  146.9580 C   0  0  0  0  0  3  0  0  0  0  0  0
  186.2740  178.1380  144.5560 C   0  0  0  0  0  0  0  0  0  0  0  0
  188.1060  177.8280  146.0870 F   0  0  0  0  0  0  0  0  0  0  0  0
  184.9050  178.3810  144.3730 C   0  0  0  0  0  3  0  0  0  0  0  0
  184.0740  178.6280  145.4690 C   0  0  0  0  0  3  0  0  0  0  0  0
  184.6050  178.6280  146.7610 C   0  0  0  0  0  3  0  0  0  0  0  0
  1  6  1  0  0  0  0
  2 17  1  0  0  0  0
  3 11  1  0  0  0  0
  4 21  1  0  0  0  0
  5  3  1  0  0  0  0
  6  4  2  0  0  0  0
  6 17  1  0  0  0  0
  7  8  1  0  0  0  0
  7 14  1  0  0  0  0
  8 13  1  6  0  0  0
  8 20  1  0  0  0  0
  9 22  1  1  0  0  0
 10 12  2  0  0  0  0
 10 19  1  0  0  0  0
 11 20  1  0  0  0  0
 11 15  2  0  0  0  0
 12 13  1  0  0  0  0
 13  1  2  0  0  0  0
 14  9  1  0  0  0  0
 15  9  1  0  0  0  0
 16 18  1  0  0  0  0
 17 16  2  0  0  0  0
 19  7  2  0  0  0  0
 20  2  2  0  0  0  0
 21 18  2  0  0  0  0
 22 23  1  0  0  0  0
 23 26  1  0  0  0  0
 25 28  2  0  0  0  0
 25 26  1  0  0  0  0
 26 27  2  0  0  0  0
 27 24  1  0  0  0  0
 27 32  1  0  0  0  0
 28 29  1  0  0  0  0
 29 24  2  0  0  0  0
 30 33  1  0  0  0  0
 30 31  1  0  0  0  0
 32 30  2  0  0  0  0
 34 32  1  0  0  0  0
 34 35  2  0  0  0  0
 35 36  1  0  0  0  0
 36 31  2  0  0  0  0
M  END
>  <MODEL>
7

>  <REMARK>
 VINA RESULT:      -7.6      1.308      3.042
  Name = 
  4 active torsions:
  status: ('A' for Active; 'I' for Inactive)
    1  A    between atoms: C_5  and  N_14
    2  A    between atoms: C_5  and  C_19
    3  A    between atoms: C_10  and  C_26
    4  A    between atoms: N_14  and  C_16
                            x       y       z     vdW  Elec       q    Type
                         _______ _______ _______ _____ _____    ______ ____

>  <TORSDO>
F 4

$$$$
=
 OpenBabel11062417103D

 36 41  0  0  1  0  0  0  0  0999 V2000
  189.9400  174.1470  136.7740 N   0  0  0  0  0  0  0  0  0  0  0  0
  187.7040  176.1020  137.3290 N   0  0  0  0  0  0  0  0  0  0  0  0
  187.9880  178.9400  136.7950 N   0  0  0  0  0  2  0  0  0  0  0  0
  188.2520  172.4180  136.7830 C   0  0  0  0  0  3  0  0  0  0  0  0
  187.6920  180.3620  136.8460 C   0  0  0  0  0  1  0  0  0  0  0  0
  188.5710  173.7700  136.9600 C   0  0  0  0  0  0  0  0  0  0  0  0
  190.9530  176.8850  139.1050 C   0  0  0  0  0  0  0  0  0  0  0  0
  189.9350  176.0360  138.3420 C   0  0  2  0  0  3  0  0  0  0  0  0
  189.1960  178.2230  140.2750 C   0  0  1  0  0  3  0  0  0  0  0  0
  192.8640  175.9930  137.8760 C   0  0  0  0  0  3  0  0  0  0  0  0
  188.5290  178.2250  137.9080 C   0  0  0  0  0  0  0  0  0  0  0  0
  191.9830  175.2310  137.0540 N   0  0  0  0  0  0  0  0  0  0  0  0
  190.5810  175.1360  137.3140 C   0  0  0  0  0  0  0  0  0  0  0  0
  190.6030  177.7810  140.0280 C   0  0  0  0  0  2  0  0  0  0  0  0
  188.6810  178.8360  139.0520 N   0  0  0  0  0  0  0  0  0  0  0  0
  186.2130  174.2070  137.2960 C   0  0  0  0  0  3  0  0  0  0  0  0
  187.5250  174.6840  137.2200 C   0  0  0  0  0  0  0  0  0  0  0  0
  185.9500  172.8480  137.1340 C   0  0  0  0  0  3  0  0  0  0  0  0
  192.3930  176.7530  138.8550 C   0  0  0  0  0  3  0  0  0  0  0  0
  188.7310  176.7640  137.7690 C   0  0  0  0  0  0  0  0  0  0  0  0
  186.9680  171.9870  136.8830 N   0  0  0  0  0  0  0  0  0  0  0  0
  188.2670  177.1250  140.7950 C   0  0  0  0  0  2  0  0  0  0  0  0
  188.3360  177.0430  142.2480 N   0  0  0  0  0  2  0  0  0  0  0  0
  186.5490  178.3190  145.2800 C   0  0  0  0  0  3  0  0  0  0  0  0
  186.0450  177.8770  142.5740 C   0  0  0  0  0  3  0  0  0  0  0  0
  187.3040  177.5490  143.1040 C   0  0  0  0  0  0  0  0  0  0  0  0
  187.5560  177.7630  144.4760 C   0  0  0  0  0  0  0  0  0  0  0  0
  185.0470  178.4140  143.3880 C   0  0  0  0  0  3  0  0  0  0  0  0
  185.3010  178.6400  144.7410 C   0  0  0  0  0  3  0  0  0  0  0  0
  188.9580  177.0530  146.4460 C   0  0  0  0  0  0  0  0  0  0  0  0
  190.2080  176.7520  146.9980 C   0  0  0  0  0  3  0  0  0  0  0  0
  188.8580  177.4350  145.0920 C   0  0  0  0  0  0  0  0  0  0  0  0
  187.8600  177.0100  147.2410 F   0  0  0  0  0  0  0  0  0  0  0  0
  190.0260  177.5330  144.3210 C   0  0  0  0  0  3  0  0  0  0  0  0
  191.2720  177.2320  144.8770 C   0  0  0  0  0  3  0  0  0  0  0  0
  191.3620  176.8360  146.2150 C   0  0  0  0  0  3  0  0  0  0  0  0
  1  6  1  0  0  0  0
  1 13  2  0  0  0  0
  2 20  2  0  0  0  0
  3  5  1  0  0  0  0
  3 11  1  0  0  0  0
  4 21  2  0  0  0  0
  4  6  1  0  0  0  0
  6 17  2  0  0  0  0
  7 14  1  0  0  0  0
  8 13  1  6  0  0  0
  8  7  1  0  0  0  0
  9 22  1  6  0  0  0
 10 19  1  0  0  0  0
 11 15  2  0  0  0  0
 12 13  1  0  0  0  0
 12 10  2  0  0  0  0
 14  9  1  0  0  0  0
 15  9  1  0  0  0  0
 17 16  1  0  0  0  0
 17  2  1  0  0  0  0
 18 16  2  0  0  0  0
 19  7  2  0  0  0  0
 20 11  1  0  0  0  0
 20  8  1  0  0  0  0
 21 18  1  0  0  0  0
 22 23  1  0  0  0  0
 23 26  1  0  0  0  0
 25 26  2  0  0  0  0
 25 28  1  0  0  0  0
 26 27  1  0  0  0  0
 27 32  1  0  0  0  0
 27 24  2  0  0  0  0
 28 29  2  0  0  0  0
 29 24  1  0  0  0  0
 30 31  1  0  0  0  0
 30 33  1  0  0  0  0
 32 30  2  0  0  0  0
 34 35  2  0  0  0  0
 34 32  1  0  0  0  0
 35 36  1  0  0  0  0
 36 31  2  0  0  0  0
M  END
>  <MODEL>
8

>  <REMARK>
 VINA RESULT:      -7.6      4.455      5.851
  Name = 
  4 active torsions:
  status: ('A' for Active; 'I' for Inactive)
    1  A    between atoms: C_5  and  N_14
    2  A    between atoms: C_5  and  C_19
    3  A    between atoms: C_10  and  C_26
    4  A    between atoms: N_14  and  C_16
                            x       y       z     vdW  Elec       q    Type
                         _______ _______ _______ _____ _____    ______ ____

>  <TORSDO>
F 4

$$$$
=
 OpenBabel11062417103D

 36 41  0  0  1  0  0  0  0  0999 V2000
  186.3590  179.1710  141.7760 N   0  0  0  0  0  0  0  0  0  0  0  0
  184.7860  179.2220  139.1980 N   0  0  0  0  0  0  0  0  0  0  0  0
  182.5800  181.0630  138.7890 N   0  0  0  0  0  2  0  0  0  0  0  0
  188.1090  178.0640  140.5320 C   0  0  0  0  0  3  0  0  0  0  0  0
  181.3890  181.6340  138.1810 C   0  0  0  0  0  1  0  0  0  0  0  0
  186.8160  178.5990  140.5460 C   0  0  0  0  0  0  0  0  0  0  0  0
  182.7020  178.6060  142.2960 C   0  0  0  0  0  0  0  0  0  0  0  0
  183.9730  178.6960  141.4490 C   0  0  2  0  0  3  0  0  0  0  0  0
  181.2730  177.9170  140.3660 C   0  0  1  0  0  3  0  0  0  0  0  0
  183.7550  179.5810  144.2710 C   0  0  0  0  0  3  0  0  0  0  0  0
  182.5510  179.8550  139.5550 C   0  0  0  0  0  0  0  0  0  0  0  0
  184.9570  179.7860  143.5330 N   0  0  0  0  0  0  0  0  0  0  0  0
  185.1420  179.2750  142.2110 C   0  0  0  0  0  0  0  0  0  0  0  0
  181.5400  178.1650  141.8160 C   0  0  0  0  0  2  0  0  0  0  0  0
  181.4400  179.1760  139.6410 N   0  0  0  0  0  0  0  0  0  0  0  0
  186.6660  178.1080  138.1790 C   0  0  0  0  0  3  0  0  0  0  0  0
  186.0800  178.6220  139.3390 C   0  0  0  0  0  0  0  0  0  0  0  0
  187.9500  177.5680  138.2220 C   0  0  0  0  0  3  0  0  0  0  0  0
  182.7010  179.0070  143.7080 C   0  0  0  0  0  3  0  0  0  0  0  0
  183.8330  179.3260  140.0740 C   0  0  0  0  0  0  0  0  0  0  0  0
  188.6410  177.5560  139.3900 N   0  0  0  0  0  0  0  0  0  0  0  0
  182.1070  176.7930  139.7500 C   0  0  0  0  0  2  0  0  0  0  0  0
  181.4780  176.2960  138.5330 N   0  0  0  0  0  2  0  0  0  0  0  0
  182.7410  176.5040  135.0150 C   0  0  0  0  0  3  0  0  0  0  0  0
  181.3740  178.0910  136.8550 C   0  0  0  0  0  3  0  0  0  0  0  0
  181.7960  176.8060  137.2320 C   0  0  0  0  0  0  0  0  0  0  0  0
  182.4980  176.0050  136.3040 C   0  0  0  0  0  0  0  0  0  0  0  0
  181.6370  178.5800  135.5750 C   0  0  0  0  0  3  0  0  0  0  0  0
  182.3170  177.7840  134.6530 C   0  0  0  0  0  3  0  0  0  0  0  0
  184.2270  174.4330  137.2440 C   0  0  0  0  0  0  0  0  0  0  0  0
  184.6450  173.1330  137.5490 C   0  0  0  0  0  3  0  0  0  0  0  0
  182.9700  174.6470  136.6430 C   0  0  0  0  0  0  0  0  0  0  0  0
  185.0650  175.4690  137.4970 F   0  0  0  0  0  0  0  0  0  0  0  0
  182.1620  173.5430  136.3360 C   0  0  0  0  0  3  0  0  0  0  0  0
  182.5830  172.2460  136.6430 C   0  0  0  0  0  3  0  0  0  0  0  0
  183.8230  172.0420  137.2540 C   0  0  0  0  0  3  0  0  0  0  0  0
  1 13  2  0  0  0  0
  2 17  1  0  0  0  0
  2 20  2  0  0  0  0
  3 11  1  0  0  0  0
  4  6  1  0  0  0  0
  5  3  1  0  0  0  0
  6  1  1  0  0  0  0
  7 19  2  0  0  0  0
  8 20  1  6  0  0  0
  8 13  1  0  0  0  0
  8  7  1  0  0  0  0
  9 22  1  6  0  0  0
  9 14  1  0  0  0  0
 11 15  2  0  0  0  0
 11 20  1  0  0  0  0
 12 10  2  0  0  0  0
 13 12  1  0  0  0  0
 14  7  1  0  0  0  0
 15  9  1  0  0  0  0
 16 18  2  0  0  0  0
 16 17  1  0  0  0  0
 17  6  2  0  0  0  0
 18 21  1  0  0  0  0
 19 10  1  0  0  0  0
 21  4  2  0  0  0  0
 23 22  1  0  0  0  0
 24 27  1  0  0  0  0
 25 26  1  0  0  0  0
 26 23  1  0  0  0  0
 27 32  1  0  0  0  0
 27 26  2  0  0  0  0
 28 25  2  0  0  0  0
 29 24  2  0  0  0  0
 29 28  1  0  0  0  0
 30 33  1  0  0  0  0
 30 31  1  0  0  0  0
 32 30  2  0  0  0  0
 34 35  2  0  0  0  0
 34 32  1  0  0  0  0
 35 36  1  0  0  0  0
 36 31  2  0  0  0  0
M  END
>  <MODEL>
9

>  <REMARK>
 VINA RESULT:      -7.3      2.345      7.183
  Name = 
  4 active torsions:
  status: ('A' for Active; 'I' for Inactive)
    1  A    between atoms: C_5  and  N_14
    2  A    between atoms: C_5  and  C_19
    3  A    between atoms: C_10  and  C_26
    4  A    between atoms: N_14  and  C_16
                            x       y       z     vdW  Elec       q    Type
                         _______ _______ _______ _____ _____    ______ ____

>  <TORSDO>
F 4

$$$$
