=
 OpenBabel11062415423D

 34 39  0  0  1  0  0  0  0  0999 V2000
  182.2140  176.0880  139.9090 C   0  0  0  0  0  1  0  0  0  0  0  0
  179.3840  181.9990  137.9590 C   0  0  2  0  0  3  0  0  0  0  0  0
  179.1620  183.0370  138.8670 O   0  0  0  0  0  1  0  0  0  0  0  0
  182.7480  177.5040  139.8220 C   0  0  1  0  0  3  0  0  0  0  0  0
  184.7900  178.0520  136.6660 O   0  0  0  0  0  0  0  0  0  0  0  0
  179.8750  179.2740  136.6790 C   0  0  0  0  0  2  0  0  0  0  0  0
  182.0660  179.1190  137.9770 C   0  0  2  0  0  3  0  0  0  0  0  0
  180.8000  180.2750  135.9770 C   0  0  2  0  0  3  0  0  0  0  0  0
  183.8220  176.4110  135.1700 C   0  0  0  0  0  1  0  0  0  0  0  0
  181.1970  179.4890  140.3330 C   0  0  2  0  0  3  0  0  0  0  0  0
  183.7140  177.6380  137.4790 C   0  0  2  0  0  0  0  0  0  0  0  0
  181.0320  183.2570  136.7260 O   0  0  0  0  0  1  0  0  0  0  0  0
  184.0400  177.5250  138.9890 C   0  0  1  0  0  3  0  0  0  0  0  0
  180.9310  180.0070  137.4770 C   0  0  1  0  0  0  0  0  0  0  0  0
  184.3860  176.7060  136.5480 C   0  0  2  0  0  0  0  0  0  0  0  0
  180.4610  181.0590  138.4910 C   0  0  2  0  0  3  0  0  0  0  0  0
  179.8160  182.5770  136.6150 C   0  0  1  0  0  3  0  0  0  0  0  0
  182.4730  178.1520  137.0410 O   0  0  0  0  0  0  0  0  0  0  0  0
  180.0540  180.3710  139.7950 C   0  0  0  0  0  2  0  0  0  0  0  0
  181.6410  178.4400  139.2910 C   0  0  2  0  0  3  0  0  0  0  0  0
  185.3570  175.8460  137.0610 O   0  0  0  0  0  1  0  0  0  0  0  0
  179.9220  181.4690  135.5700 C   0  0  0  0  0  2  0  0  0  0  0  0
  179.9700  177.8230  141.6650 C   0  0  0  0  0  2  0  0  0  0  0  0
  180.8080  178.8620  141.6400 C   0  0  0  0  0  0  0  0  0  0  0  0
  181.3830  179.3760  142.8110 O   0  0  0  0  0  0  0  0  0  0  0  0
  182.6350  179.0040  143.3080 C   0  0  0  0  0  0  0  0  0  0  0  0
  185.5760  178.1400  144.4950 O   0  0  0  0  0  0  0  0  0  0  0  0
  183.2280  178.9460  144.6270 C   0  0  0  0  0  2  0  0  0  0  0  0
  184.4390  178.4770  144.0740 C   0  0  0  0  0  0  0  0  0  0  0  0
  183.7750  178.5620  142.7880 N   0  0  0  0  0  0  0  0  0  0  0  0
  184.9330  178.6790  139.4420 C   0  0  0  0  0  2  0  0  0  0  0  0
  187.2290  178.6380  138.7890 O   0  0  0  0  0  1  0  0  0  0  0  0
  186.3370  178.1940  139.7650 C   0  0  1  0  0  3  0  0  0  0  0  0
  186.7560  178.7420  141.1130 C   0  0  0  0  0  1  0  0  0  0  0  0
  2 16  1  0  0  0  0
  2  3  1  1  0  0  0
  4  1  1  6  0  0  0
  7 18  1  6  0  0  0
  7 20  1  0  0  0  0
  8 22  1  1  0  0  0
  8  6  1  0  0  0  0
  8 14  1  0  0  0  0
 10 24  1  1  0  0  0
 11  5  1  6  0  0  0
 11 13  1  0  0  0  0
 13 31  1  1  0  0  0
 13  4  1  0  0  0  0
 14  6  1  1  0  0  0
 14  7  1  0  0  0  0
 14 16  1  0  0  0  0
 15  9  1  6  0  0  0
 15  5  1  0  0  0  0
 15 21  1  0  0  0  0
 15 11  1  0  0  0  0
 16 19  1  1  0  0  0
 17 12  1  1  0  0  0
 17  2  1  0  0  0  0
 18 11  1  0  0  0  0
 19 10  1  0  0  0  0
 20  4  1  0  0  0  0
 20 10  1  0  0  0  0
 22 17  1  0  0  0  0
 24 23  2  0  0  0  0
 24 25  1  0  0  0  0
 25 26  1  0  0  0  0
 26 28  1  0  0  0  0
 29 27  2  0  0  0  0
 29 28  1  0  0  0  0
 30 26  2  0  0  0  0
 30 29  1  0  0  0  0
 31 33  1  0  0  0  0
 32 33  1  0  0  0  0
 33 34  1  0  0  0  0
M  END
>  <MODEL>
1

>  <REMARK>
 VINA RESULT:      -6.2      0.000      0.000
  Name = 
  5 active torsions:
  status: ('A' for Active; 'I' for Inactive)
    1  A    between atoms: C_6  and  C_9
    2  A    between atoms: C_8  and  O_14
    3  A    between atoms: C_9  and  C_21
    4  A    between atoms: O_14  and  C_22
    5  A    between atoms: C_17  and  C_22
                            x       y       z     vdW  Elec       q    Type
                         _______ _______ _______ _____ _____    ______ ____

>  <TORSDO>
F 5

$$$$
=
 OpenBabel11062415423D

 34 39  0  0  1  0  0  0  0  0999 V2000
  189.7950  176.8960  135.0490 C   0  0  0  0  0  1  0  0  0  0  0  0
  188.8490  178.0270  141.7260 C   0  0  2  0  0  3  0  0  0  0  0  0
  187.5700  178.1780  142.2670 O   0  0  0  0  0  1  0  0  0  0  0  0
  189.1680  176.0680  136.1540 C   0  0  1  0  0  3  0  0  0  0  0  0
  191.5660  173.4370  137.4800 O   0  0  0  0  0  0  0  0  0  0  0  0
  191.2420  177.9080  139.8380 C   0  0  0  0  0  2  0  0  0  0  0  0
  190.0570  176.0590  138.5380 C   0  0  2  0  0  3  0  0  0  0  0  0
  191.3320  176.6840  140.7570 C   0  0  2  0  0  3  0  0  0  0  0  0
  193.7130  174.4540  137.0070 C   0  0  0  0  0  1  0  0  0  0  0  0
  187.8600  177.2290  138.0370 C   0  0  2  0  0  3  0  0  0  0  0  0
  191.1080  174.7010  137.0530 C   0  0  2  0  0  0  0  0  0  0  0  0
  189.2420  175.9610  142.9070 O   0  0  0  0  0  1  0  0  0  0  0  0
  189.8190  174.6740  136.1960 C   0  0  1  0  0  3  0  0  0  0  0  0
  190.1350  176.8760  139.8240 C   0  0  1  0  0  0  0  0  0  0  0  0
  192.3330  174.0890  136.4920 C   0  0  2  0  0  0  0  0  0  0  0  0
  188.7700  177.2820  140.3960 C   0  0  2  0  0  3  0  0  0  0  0  0
  189.7310  177.2540  142.7030 C   0  0  1  0  0  3  0  0  0  0  0  0
  191.3160  175.7100  138.0210 O   0  0  0  0  0  0  0  0  0  0  0  0
  187.9750  178.0470  139.3370 C   0  0  0  0  0  2  0  0  0  0  0  0
  189.2490  176.8410  137.4860 C   0  0  2  0  0  3  0  0  0  0  0  0
  192.2380  173.4270  135.2680 O   0  0  0  0  0  1  0  0  0  0  0  0
  191.1680  177.2040  142.1940 C   0  0  0  0  0  2  0  0  0  0  0  0
  187.4470  179.1360  136.5370 C   0  0  0  0  0  2  0  0  0  0  0  0
  187.0320  177.9630  137.0230 C   0  0  0  0  0  0  0  0  0  0  0  0
  185.8460  177.3590  136.5840 O   0  0  0  0  0  0  0  0  0  0  0  0
  184.7760  177.0160  137.4160 C   0  0  0  0  0  0  0  0  0  0  0  0
  182.2680  176.2250  139.3880 O   0  0  0  0  0  0  0  0  0  0  0  0
  184.0730  177.6810  138.4930 C   0  0  0  0  0  2  0  0  0  0  0  0
  183.2300  176.5600  138.6490 C   0  0  0  0  0  0  0  0  0  0  0  0
  183.9810  175.9620  137.5630 N   0  0  0  0  0  0  0  0  0  0  0  0
  188.8230  173.6520  136.7390 C   0  0  0  0  0  2  0  0  0  0  0  0
  187.2200  173.2990  135.0040 O   0  0  0  0  0  1  0  0  0  0  0  0
  187.4160  173.9310  136.2320 C   0  0  1  0  0  3  0  0  0  0  0  0
  186.4120  173.4020  137.2340 C   0  0  0  0  0  1  0  0  0  0  0  0
  2  3  1  1  0  0  0
  2 17  1  0  0  0  0
  4  1  1  6  0  0  0
  4 13  1  0  0  0  0
  4 20  1  0  0  0  0
  7 18  1  6  0  0  0
  7 14  1  0  0  0  0
  8  6  1  6  0  0  0
  8 22  1  0  0  0  0
 10 24  1  6  0  0  0
 10 19  1  0  0  0  0
 11  5  1  1  0  0  0
 11 18  1  0  0  0  0
 13 31  1  1  0  0  0
 13 11  1  0  0  0  0
 14  6  1  6  0  0  0
 14 16  1  0  0  0  0
 14  8  1  0  0  0  0
 15  9  1  1  0  0  0
 15 11  1  0  0  0  0
 15  5  1  0  0  0  0
 16 19  1  6  0  0  0
 16  2  1  0  0  0  0
 17 12  1  6  0  0  0
 20 10  1  0  0  0  0
 20  7  1  0  0  0  0
 21 15  1  0  0  0  0
 22 17  1  0  0  0  0
 23 24  2  0  0  0  0
 25 24  1  0  0  0  0
 25 26  1  0  0  0  0
 26 30  2  0  0  0  0
 26 28  1  0  0  0  0
 28 29  1  0  0  0  0
 29 27  2  0  0  0  0
 30 29  1  0  0  0  0
 32 33  1  0  0  0  0
 33 31  1  0  0  0  0
 33 34  1  0  0  0  0
M  END
>  <MODEL>
2

>  <REMARK>
 VINA RESULT:      -6.1      4.628      8.867
  Name = 
  5 active torsions:
  status: ('A' for Active; 'I' for Inactive)
    1  A    between atoms: C_6  and  C_9
    2  A    between atoms: C_8  and  O_14
    3  A    between atoms: C_9  and  C_21
    4  A    between atoms: O_14  and  C_22
    5  A    between atoms: C_17  and  C_22
                            x       y       z     vdW  Elec       q    Type
                         _______ _______ _______ _____ _____    ______ ____

>  <TORSDO>
F 5

$$$$
=
 OpenBabel11062415423D

 34 39  0  0  1  0  0  0  0  0999 V2000
  184.1400  180.2990  138.7080 C   0  0  0  0  0  1  0  0  0  0  0  0
  184.7190  174.0290  136.0420 C   0  0  2  0  0  3  0  0  0  0  0  0
  185.9440  173.3600  136.0100 O   0  0  0  0  0  1  0  0  0  0  0  0
  184.4570  178.9480  139.3180 C   0  0  1  0  0  3  0  0  0  0  0  0
  181.4070  177.3920  140.9620 O   0  0  0  0  0  0  0  0  0  0  0  0
  182.5420  176.1630  136.1810 C   0  0  0  0  0  2  0  0  0  0  0  0
  183.3790  176.7890  138.5090 C   0  0  2  0  0  3  0  0  0  0  0  0
  182.0900  174.9980  137.0710 C   0  0  2  0  0  3  0  0  0  0  0  0
  179.6040  178.4060  139.7010 C   0  0  0  0  0  1  0  0  0  0  0  0
  185.8240  177.2300  137.9810 C   0  0  2  0  0  3  0  0  0  0  0  0
  182.1810  178.0390  139.9770 C   0  0  2  0  0  0  0  0  0  0  0  0
  183.7540  172.4550  137.5940 O   0  0  0  0  0  1  0  0  0  0  0  0
  183.5000  178.6660  140.4890 C   0  0  1  0  0  3  0  0  0  0  0  0
  183.3770  175.7640  137.3790 C   0  0  1  0  0  0  0  0  0  0  0  0
  180.9030  178.6090  140.4590 C   0  0  2  0  0  0  0  0  0  0  0  0
  184.7420  175.1140  137.1160 C   0  0  2  0  0  3  0  0  0  0  0  0
  183.5980  173.0350  136.3320 C   0  0  1  0  0  3  0  0  0  0  0  0
  182.1260  177.3850  138.7250 O   0  0  0  0  0  0  0  0  0  0  0  0
  185.7840  176.1980  136.8380 C   0  0  0  0  0  2  0  0  0  0  0  0
  184.4370  177.8690  138.2150 C   0  0  2  0  0  3  0  0  0  0  0  0
  180.9520  179.6100  141.4300 O   0  0  0  0  0  1  0  0  0  0  0  0
  182.2390  173.7220  136.2280 C   0  0  0  0  0  2  0  0  0  0  0  0
  187.1810  178.6280  136.4760 C   0  0  0  0  0  2  0  0  0  0  0  0
  186.8860  178.2590  137.7260 C   0  0  0  0  0  0  0  0  0  0  0  0
  187.5190  178.8370  138.8360 O   0  0  0  0  0  0  0  0  0  0  0  0
  188.2840  178.1300  139.7680 C   0  0  0  0  0  0  0  0  0  0  0  0
  190.0770  176.4820  141.9760 O   0  0  0  0  0  0  0  0  0  0  0  0
  188.3120  178.0580  141.2130 C   0  0  0  0  0  2  0  0  0  0  0  0
  189.3720  177.1280  141.1580 C   0  0  0  0  0  0  0  0  0  0  0  0
  189.2820  177.2540  139.7160 N   0  0  0  0  0  0  0  0  0  0  0  0
  184.1800  177.7530  141.5070 C   0  0  0  0  0  2  0  0  0  0  0  0
  185.3060  179.7260  142.2420 O   0  0  0  0  0  1  0  0  0  0  0  0
  184.7130  178.5460  142.6900 C   0  0  1  0  0  3  0  0  0  0  0  0
  183.5670  178.8810  143.6210 C   0  0  0  0  0  1  0  0  0  0  0  0
  2  3  1  1  0  0  0
  2 17  1  0  0  0  0
  2 16  1  0  0  0  0
  4  1  1  6  0  0  0
  4 13  1  0  0  0  0
  7 18  1  6  0  0  0
  8  6  1  6  0  0  0
  8 14  1  0  0  0  0
 10 24  1  6  0  0  0
 10 20  1  0  0  0  0
 11 18  1  6  0  0  0
 11 15  1  0  0  0  0
 11 13  1  0  0  0  0
 11  5  1  0  0  0  0
 13 31  1  1  0  0  0
 14  6  1  6  0  0  0
 14  7  1  0  0  0  0
 15  9  1  6  0  0  0
 15  5  1  0  0  0  0
 15 21  1  0  0  0  0
 16 19  1  6  0  0  0
 16 14  1  0  0  0  0
 17 12  1  1  0  0  0
 19 10  1  0  0  0  0
 20  7  1  0  0  0  0
 20  4  1  0  0  0  0
 22 17  1  0  0  0  0
 22  8  1  0  0  0  0
 23 24  2  0  0  0  0
 24 25  1  0  0  0  0
 25 26  1  0  0  0  0
 26 28  1  0  0  0  0
 29 28  1  0  0  0  0
 29 27  2  0  0  0  0
 30 26  2  0  0  0  0
 30 29  1  0  0  0  0
 31 33  1  0  0  0  0
 32 33  1  0  0  0  0
 33 34  1  0  0  0  0
M  END
>  <MODEL>
3

>  <REMARK>
 VINA RESULT:      -6.1      2.896      6.418
  Name = 
  5 active torsions:
  status: ('A' for Active; 'I' for Inactive)
    1  A    between atoms: C_6  and  C_9
    2  A    between atoms: C_8  and  O_14
    3  A    between atoms: C_9  and  C_21
    4  A    between atoms: O_14  and  C_22
    5  A    between atoms: C_17  and  C_22
                            x       y       z     vdW  Elec       q    Type
                         _______ _______ _______ _____ _____    ______ ____

>  <TORSDO>
F 5

$$$$
=
 OpenBabel11062415423D

 34 39  0  0  1  0  0  0  0  0999 V2000
  182.6620  175.6220  139.1960 C   0  0  0  0  0  1  0  0  0  0  0  0
  180.5200  181.8740  137.4400 C   0  0  2  0  0  3  0  0  0  0  0  0
  181.2500  183.0160  137.7740 O   0  0  0  0  0  1  0  0  0  0  0  0
  183.2090  176.6660  138.2420 C   0  0  1  0  0  3  0  0  0  0  0  0
  182.2770  175.9120  134.6380 O   0  0  0  0  0  0  0  0  0  0  0  0
  179.3660  179.0510  137.3440 C   0  0  0  0  0  2  0  0  0  0  0  0
  181.7070  178.1680  136.8410 C   0  0  2  0  0  3  0  0  0  0  0  0
  179.6270  179.4800  135.8960 C   0  0  2  0  0  3  0  0  0  0  0  0
  180.2320  174.6440  134.9190 C   0  0  0  0  0  1  0  0  0  0  0  0
  182.9710  179.1630  138.8060 C   0  0  2  0  0  3  0  0  0  0  0  0
  182.1130  176.0880  136.0270 C   0  0  2  0  0  0  0  0  0  0  0  0
  180.8990  182.1670  135.0760 O   0  0  0  0  0  1  0  0  0  0  0  0
  183.4230  176.0440  136.8520 C   0  0  1  0  0  3  0  0  0  0  0  0
  180.7760  179.3760  136.9000 C   0  0  1  0  0  0  0  0  0  0  0  0
  181.6740  174.8510  135.3450 C   0  0  2  0  0  0  0  0  0  0  0  0
  181.4280  180.6480  137.4600 C   0  0  2  0  0  3  0  0  0  0  0  0
  179.9070  182.0440  136.0520 C   0  0  1  0  0  3  0  0  0  0  0  0
  181.0880  177.0100  136.3410 O   0  0  0  0  0  0  0  0  0  0  0  0
  182.0050  180.3620  138.8470 C   0  0  0  0  0  2  0  0  0  0  0  0
  182.2820  177.9000  138.2440 C   0  0  2  0  0  3  0  0  0  0  0  0
  182.5150  173.7390  135.3900 O   0  0  0  0  0  1  0  0  0  0  0  0
  178.9890  180.8690  135.7300 C   0  0  0  0  0  2  0  0  0  0  0  0
  184.8900  179.0670  140.3440 C   0  0  0  0  0  2  0  0  0  0  0  0
  183.5750  178.9250  140.1590 C   0  0  0  0  0  0  0  0  0  0  0  0
  182.7120  178.5940  141.2130 O   0  0  0  0  0  0  0  0  0  0  0  0
  183.0330  178.7200  142.5680 C   0  0  0  0  0  0  0  0  0  0  0  0
  183.7690  179.0310  145.7570 O   0  0  0  0  0  0  0  0  0  0  0  0
  182.2950  179.0950  143.7560 C   0  0  0  0  0  2  0  0  0  0  0  0
  183.4530  178.9210  144.5430 C   0  0  0  0  0  0  0  0  0  0  0  0
  184.1220  178.5550  143.3110 N   0  0  0  0  0  0  0  0  0  0  0  0
  184.5510  176.7710  136.1240 C   0  0  0  0  0  2  0  0  0  0  0  0
  186.4950  175.7810  137.0960 O   0  0  0  0  0  1  0  0  0  0  0  0
  185.7570  176.9630  137.0310 C   0  0  1  0  0  3  0  0  0  0  0  0
  186.6290  178.0680  136.4730 C   0  0  0  0  0  1  0  0  0  0  0  0
  2 16  1  0  0  0  0
  2  3  1  6  0  0  0
  4 20  1  0  0  0  0
  4  1  1  1  0  0  0
  5 15  1  0  0  0  0
  7 18  1  1  0  0  0
  7 14  1  0  0  0  0
  7 20  1  0  0  0  0
  8 22  1  1  0  0  0
  8 14  1  0  0  0  0
  8  6  1  0  0  0  0
 10 19  1  0  0  0  0
 10 24  1  1  0  0  0
 11  5  1  6  0  0  0
 11 18  1  0  0  0  0
 11 13  1  0  0  0  0
 13 31  1  6  0  0  0
 13  4  1  0  0  0  0
 14  6  1  1  0  0  0
 14 16  1  0  0  0  0
 15  9  1  6  0  0  0
 15 21  1  0  0  0  0
 15 11  1  0  0  0  0
 16 19  1  1  0  0  0
 17 12  1  6  0  0  0
 17  2  1  0  0  0  0
 20 10  1  0  0  0  0
 22 17  1  0  0  0  0
 24 23  2  0  0  0  0
 24 25  1  0  0  0  0
 25 26  1  0  0  0  0
 26 30  2  0  0  0  0
 26 28  1  0  0  0  0
 28 29  1  0  0  0  0
 29 27  2  0  0  0  0
 30 29  1  0  0  0  0
 31 33  1  0  0  0  0
 33 32  1  0  0  0  0
 34 33  1  0  0  0  0
M  END
>  <MODEL>
4

>  <REMARK>
 VINA RESULT:      -6.0      1.767      2.565
  Name = 
  5 active torsions:
  status: ('A' for Active; 'I' for Inactive)
    1  A    between atoms: C_6  and  C_9
    2  A    between atoms: C_8  and  O_14
    3  A    between atoms: C_9  and  C_21
    4  A    between atoms: O_14  and  C_22
    5  A    between atoms: C_17  and  C_22
                            x       y       z     vdW  Elec       q    Type
                         _______ _______ _______ _____ _____    ______ ____

>  <TORSDO>
F 5

$$$$
=
 OpenBabel11062415423D

 34 39  0  0  1  0  0  0  0  0999 V2000
  181.6410  177.6700  136.0640 C   0  0  0  0  0  1  0  0  0  0  0  0
  183.5390  179.0590  142.4850 C   0  0  2  0  0  3  0  0  0  0  0  0
  182.7340  178.7180  143.5740 O   0  0  0  0  0  1  0  0  0  0  0  0
  182.0210  176.7890  137.2380 C   0  0  1  0  0  3  0  0  0  0  0  0
  185.6160  175.5870  136.9970 O   0  0  0  0  0  0  0  0  0  0  0  0
  184.5680  179.7430  139.6960 C   0  0  0  0  0  2  0  0  0  0  0  0
  183.8260  177.4310  138.9120 C   0  0  2  0  0  3  0  0  0  0  0  0
  185.5850  178.7860  140.3290 C   0  0  2  0  0  3  0  0  0  0  0  0
  186.6320  177.3520  135.6860 C   0  0  0  0  0  1  0  0  0  0  0  0
  181.3900  177.4980  139.6260 C   0  0  2  0  0  3  0  0  0  0  0  0
  184.5260  176.4810  136.9730 C   0  0  2  0  0  0  0  0  0  0  0  0
  185.2710  177.5030  143.1150 O   0  0  0  0  0  1  0  0  0  0  0  0
  183.1360  175.8150  136.8210 C   0  0  1  0  0  3  0  0  0  0  0  0
  184.1400  178.3470  140.0920 C   0  0  1  0  0  0  0  0  0  0  0  0
  185.4740  176.3830  135.8420 C   0  0  2  0  0  0  0  0  0  0  0  0
  183.1740  178.2020  141.2760 C   0  0  2  0  0  3  0  0  0  0  0  0
  185.0070  178.8480  142.8460 C   0  0  1  0  0  3  0  0  0  0  0  0
  184.7100  177.5880  137.8320 O   0  0  0  0  0  0  0  0  0  0  0  0
  181.7390  178.4330  140.8000 C   0  0  0  0  0  2  0  0  0  0  0  0
  182.3770  177.6720  138.4510 C   0  0  2  0  0  3  0  0  0  0  0  0
  185.1110  175.6060  134.7410 O   0  0  0  0  0  1  0  0  0  0  0  0
  185.9070  179.3510  141.7220 C   0  0  0  0  0  2  0  0  0  0  0  0
  179.5040  178.9160  138.9250 C   0  0  0  0  0  2  0  0  0  0  0  0
  179.9630  177.6920  139.2030 C   0  0  0  0  0  0  0  0  0  0  0  0
  179.1560  176.5530  139.0740 O   0  0  0  0  0  0  0  0  0  0  0  0
  179.1110  175.5060  139.9990 C   0  0  0  0  0  0  0  0  0  0  0  0
  179.0010  173.0300  142.1580 O   0  0  0  0  0  0  0  0  0  0  0  0
  179.2430  174.0670  139.9120 C   0  0  0  0  0  2  0  0  0  0  0  0
  179.0500  173.9540  141.3050 C   0  0  0  0  0  0  0  0  0  0  0  0
  178.9310  175.3990  141.3110 N   0  0  0  0  0  0  0  0  0  0  0  0
  183.0490  174.5380  137.6540 C   0  0  0  0  0  2  0  0  0  0  0  0
  182.5790  173.6760  135.4770 O   0  0  0  0  0  1  0  0  0  0  0  0
  182.4840  173.3860  136.8380 C   0  0  1  0  0  3  0  0  0  0  0  0
  183.2710  172.1290  137.1390 C   0  0  0  0  0  1  0  0  0  0  0  0
  2 17  1  0  0  0  0
  2  3  1  1  0  0  0
  4  1  1  6  0  0  0
  4 20  1  0  0  0  0
  7 18  1  6  0  0  0
  7 14  1  0  0  0  0
  8  6  1  6  0  0  0
  8 22  1  0  0  0  0
 10 24  1  6  0  0  0
 10 19  1  0  0  0  0
 11  5  1  1  0  0  0
 11 18  1  0  0  0  0
 13 11  1  0  0  0  0
 13  4  1  0  0  0  0
 13 31  1  1  0  0  0
 14  6  1  6  0  0  0
 14  8  1  0  0  0  0
 14 16  1  0  0  0  0
 15  9  1  6  0  0  0
 15 11  1  0  0  0  0
 15  5  1  0  0  0  0
 16 19  1  6  0  0  0
 16  2  1  0  0  0  0
 17 12  1  6  0  0  0
 20  7  1  0  0  0  0
 20 10  1  0  0  0  0
 21 15  1  0  0  0  0
 22 17  1  0  0  0  0
 23 24  2  0  0  0  0
 25 24  1  0  0  0  0
 25 26  1  0  0  0  0
 26 30  2  0  0  0  0
 28 26  1  0  0  0  0
 28 29  1  0  0  0  0
 29 30  1  0  0  0  0
 29 27  2  0  0  0  0
 32 33  1  0  0  0  0
 33 34  1  0  0  0  0
 33 31  1  0  0  0  0
M  END
>  <MODEL>
5

>  <REMARK>
 VINA RESULT:      -5.7      2.729      5.590
  Name = 
  5 active torsions:
  status: ('A' for Active; 'I' for Inactive)
    1  A    between atoms: C_6  and  C_9
    2  A    between atoms: C_8  and  O_14
    3  A    between atoms: C_9  and  C_21
    4  A    between atoms: O_14  and  C_22
    5  A    between atoms: C_17  and  C_22
                            x       y       z     vdW  Elec       q    Type
                         _______ _______ _______ _____ _____    ______ ____

>  <TORSDO>
F 5

$$$$
=
 OpenBabel11062415423D

 34 39  0  0  1  0  0  0  0  0999 V2000
  188.6090  178.9420  136.9890 C   0  0  0  0  0  1  0  0  0  0  0  0
  186.5740  178.2370  143.4780 C   0  0  2  0  0  3  0  0  0  0  0  0
  185.2510  177.9310  143.7990 O   0  0  0  0  0  1  0  0  0  0  0  0
  188.1170  177.7520  137.7880 C   0  0  1  0  0  3  0  0  0  0  0  0
  190.9880  175.5870  139.0090 O   0  0  0  0  0  0  0  0  0  0  0  0
  189.1130  179.1650  142.0630 C   0  0  0  0  0  2  0  0  0  0  0  0
  188.6740  177.4250  140.2490 C   0  0  2  0  0  3  0  0  0  0  0  0
  189.4370  177.8280  142.7380 C   0  0  2  0  0  3  0  0  0  0  0  0
  192.7950  177.1960  139.1280 C   0  0  0  0  0  1  0  0  0  0  0  0
  186.3120  178.0800  139.5880 C   0  0  2  0  0  3  0  0  0  0  0  0
  190.2430  176.7550  138.7500 C   0  0  2  0  0  0  0  0  0  0  0  0
  187.3970  176.1250  144.3040 O   0  0  0  0  0  1  0  0  0  0  0  0
  189.1290  176.5990  137.6860 C   0  0  1  0  0  3  0  0  0  0  0  0
  188.3580  177.9170  141.6580 C   0  0  1  0  0  0  0  0  0  0  0  0
  191.6500  176.6200  138.3140 C   0  0  2  0  0  0  0  0  0  0  0  0
  186.8750  177.8210  142.0410 C   0  0  2  0  0  3  0  0  0  0  0  0
  187.5160  177.5110  144.4360 C   0  0  1  0  0  3  0  0  0  0  0  0
  190.0330  177.5350  139.9110 O   0  0  0  0  0  0  0  0  0  0  0  0
  186.0290  178.5800  141.0180 C   0  0  0  0  0  2  0  0  0  0  0  0
  187.8100  178.1950  139.2340 C   0  0  2  0  0  3  0  0  0  0  0  0
  191.8990  176.2540  136.9910 O   0  0  0  0  0  1  0  0  0  0  0  0
  188.9580  177.9460  144.1940 C   0  0  0  0  0  2  0  0  0  0  0  0
  185.2690  178.2930  137.3690 C   0  0  0  0  0  2  0  0  0  0  0  0
  185.4380  178.7910  138.5980 C   0  0  0  0  0  0  0  0  0  0  0  0
  184.7840  179.9580  139.0170 O   0  0  0  0  0  0  0  0  0  0  0  0
  183.3980  180.1370  139.0070 C   0  0  0  0  0  0  0  0  0  0  0  0
  180.1350  180.5350  138.9850 O   0  0  0  0  0  0  0  0  0  0  0  0
  182.2670  179.3320  139.4200 C   0  0  0  0  0  2  0  0  0  0  0  0
  181.3800  180.3500  139.0090 C   0  0  0  0  0  0  0  0  0  0  0  0
  182.5620  181.0950  138.6220 N   0  0  0  0  0  0  0  0  0  0  0  0
  188.4100  175.2610  137.8400 C   0  0  0  0  0  2  0  0  0  0  0  0
  189.1440  175.1410  135.5710 O   0  0  0  0  0  1  0  0  0  0  0  0
  188.3090  174.5330  136.5090 C   0  0  1  0  0  3  0  0  0  0  0  0
  188.7300  173.0910  136.6960 C   0  0  0  0  0  1  0  0  0  0  0  0
  2  3  1  1  0  0  0
  2 17  1  0  0  0  0
  4  1  1  6  0  0  0
  4 20  1  0  0  0  0
  7 18  1  6  0  0  0
  7 14  1  0  0  0  0
  8  6  1  6  0  0  0
  8 22  1  0  0  0  0
 10 24  1  6  0  0  0
 10 19  1  0  0  0  0
 11  5  1  1  0  0  0
 11 18  1  0  0  0  0
 13  4  1  0  0  0  0
 13 31  1  1  0  0  0
 13 11  1  0  0  0  0
 14 16  1  0  0  0  0
 14  6  1  6  0  0  0
 14  8  1  0  0  0  0
 15 11  1  0  0  0  0
 15  5  1  0  0  0  0
 15  9  1  1  0  0  0
 16 19  1  6  0  0  0
 16  2  1  0  0  0  0
 17 12  1  6  0  0  0
 20 10  1  0  0  0  0
 20  7  1  0  0  0  0
 21 15  1  0  0  0  0
 22 17  1  0  0  0  0
 23 24  2  0  0  0  0
 24 25  1  0  0  0  0
 26 25  1  0  0  0  0
 26 28  1  0  0  0  0
 27 29  2  0  0  0  0
 29 28  1  0  0  0  0
 30 26  2  0  0  0  0
 30 29  1  0  0  0  0
 32 33  1  0  0  0  0
 33 34  1  0  0  0  0
 33 31  1  0  0  0  0
M  END
>  <MODEL>
6

>  <REMARK>
 VINA RESULT:      -5.4      3.433      7.823
  Name = 
  5 active torsions:
  status: ('A' for Active; 'I' for Inactive)
    1  A    between atoms: C_6  and  C_9
    2  A    between atoms: C_8  and  O_14
    3  A    between atoms: C_9  and  C_21
    4  A    between atoms: O_14  and  C_22
    5  A    between atoms: C_17  and  C_22
                            x       y       z     vdW  Elec       q    Type
                         _______ _______ _______ _____ _____    ______ ____

>  <TORSDO>
F 5

$$$$
=
 OpenBabel11062415423D

 34 39  0  0  1  0  0  0  0  0999 V2000
  181.9600  177.4310  135.8100 C   0  0  0  0  0  1  0  0  0  0  0  0
  183.2150  179.1320  142.3130 C   0  0  2  0  0  3  0  0  0  0  0  0
  182.3130  178.8280  143.3340 O   0  0  0  0  0  1  0  0  0  0  0  0
  182.2340  176.6090  137.0540 C   0  0  1  0  0  3  0  0  0  0  0  0
  185.8490  175.4540  137.2130 O   0  0  0  0  0  0  0  0  0  0  0  0
  184.5000  179.7080  139.6070 C   0  0  0  0  0  2  0  0  0  0  0  0
  183.8620  177.3520  138.8620 C   0  0  2  0  0  3  0  0  0  0  0  0
  185.4620  178.7960  140.3770 C   0  0  2  0  0  3  0  0  0  0  0  0
  186.9670  177.1740  135.9250 C   0  0  0  0  0  1  0  0  0  0  0  0
  181.3690  177.4130  139.3360 C   0  0  2  0  0  3  0  0  0  0  0  0
  184.7560  176.3290  137.0430 C   0  0  2  0  0  0  0  0  0  0  0  0
  184.8960  177.6330  143.1760 O   0  0  0  0  0  1  0  0  0  0  0  0
  183.3950  175.6350  136.7900 C   0  0  1  0  0  3  0  0  0  0  0  0
  184.0510  178.3240  140.0230 C   0  0  1  0  0  0  0  0  0  0  0  0
  185.8100  176.1950  136.0140 C   0  0  2  0  0  0  0  0  0  0  0  0
  182.9770  178.2170  141.1150 C   0  0  2  0  0  3  0  0  0  0  0  0
  184.6440  178.9600  142.8220 C   0  0  1  0  0  3  0  0  0  0  0  0
  184.8450  177.4750  137.8650 O   0  0  0  0  0  0  0  0  0  0  0  0
  181.5920  178.4040  140.4940 C   0  0  0  0  0  2  0  0  0  0  0  0
  182.4620  177.5510  138.2540 C   0  0  2  0  0  3  0  0  0  0  0  0
  185.5640  175.3650  134.9200 O   0  0  0  0  0  1  0  0  0  0  0  0
  185.6430  179.4270  141.7670 C   0  0  0  0  0  2  0  0  0  0  0  0
  179.2590  176.4870  138.4700 C   0  0  0  0  0  2  0  0  0  0  0  0
  179.9870  177.5660  138.7700 C   0  0  0  0  0  0  0  0  0  0  0  0
  179.4840  178.8650  138.6090 O   0  0  0  0  0  0  0  0  0  0  0  0
  179.8710  179.7430  137.5920 C   0  0  0  0  0  0  0  0  0  0  0  0
  180.7910  181.8190  135.2160 O   0  0  0  0  0  0  0  0  0  0  0  0
  180.9260  180.7220  137.4430 C   0  0  0  0  0  2  0  0  0  0  0  0
  180.4670  181.0360  136.1460 C   0  0  0  0  0  0  0  0  0  0  0  0
  179.4400  180.0370  136.3710 N   0  0  0  0  0  0  0  0  0  0  0  0
  183.2430  174.3950  137.6680 C   0  0  0  0  0  2  0  0  0  0  0  0
  182.9380  173.4900  135.4800 O   0  0  0  0  0  1  0  0  0  0  0  0
  183.0560  173.1430  136.8250 C   0  0  1  0  0  3  0  0  0  0  0  0
  184.2550  172.2370  137.0070 C   0  0  0  0  0  1  0  0  0  0  0  0
  2 17  1  0  0  0  0
  2  3  1  1  0  0  0
  4  1  1  6  0  0  0
  4 20  1  0  0  0  0
  7 18  1  6  0  0  0
  7 14  1  0  0  0  0
  8  6  1  6  0  0  0
  8 22  1  0  0  0  0
 10 24  1  6  0  0  0
 10 19  1  0  0  0  0
 11  5  1  1  0  0  0
 11 18  1  0  0  0  0
 13 11  1  0  0  0  0
 13  4  1  0  0  0  0
 13 31  1  1  0  0  0
 14  6  1  6  0  0  0
 14  8  1  0  0  0  0
 14 16  1  0  0  0  0
 15  9  1  6  0  0  0
 15 11  1  0  0  0  0
 15  5  1  0  0  0  0
 16 19  1  6  0  0  0
 16  2  1  0  0  0  0
 17 12  1  6  0  0  0
 20  7  1  0  0  0  0
 20 10  1  0  0  0  0
 21 15  1  0  0  0  0
 22 17  1  0  0  0  0
 23 24  2  0  0  0  0
 25 24  1  0  0  0  0
 26 25  1  0  0  0  0
 27 29  2  0  0  0  0
 28 26  1  0  0  0  0
 29 30  1  0  0  0  0
 29 28  1  0  0  0  0
 30 26  2  0  0  0  0
 32 33  1  0  0  0  0
 33 34  1  0  0  0  0
 33 31  1  0  0  0  0
M  END
>  <MODEL>
7

>  <REMARK>
 VINA RESULT:      -5.3      2.416      5.795
  Name = 
  5 active torsions:
  status: ('A' for Active; 'I' for Inactive)
    1  A    between atoms: C_6  and  C_9
    2  A    between atoms: C_8  and  O_14
    3  A    between atoms: C_9  and  C_21
    4  A    between atoms: O_14  and  C_22
    5  A    between atoms: C_17  and  C_22
                            x       y       z     vdW  Elec       q    Type
                         _______ _______ _______ _____ _____    ______ ____

>  <TORSDO>
F 5

$$$$
=
 OpenBabel11062415423D

 34 39  0  0  1  0  0  0  0  0999 V2000
  187.2860  179.4350  136.3330 C   0  0  0  0  0  1  0  0  0  0  0  0
  185.9300  172.7700  135.6300 C   0  0  2  0  0  3  0  0  0  0  0  0
  186.9270  171.8030  135.7740 O   0  0  0  0  0  1  0  0  0  0  0  0
  187.2960  178.2750  137.3090 C   0  0  1  0  0  3  0  0  0  0  0  0
  184.1260  178.1580  139.3980 O   0  0  0  0  0  0  0  0  0  0  0  0
  184.4140  175.3780  135.1740 C   0  0  0  0  0  2  0  0  0  0  0  0
  185.6150  176.3680  137.1950 C   0  0  2  0  0  3  0  0  0  0  0  0
  183.7640  174.6830  136.3760 C   0  0  2  0  0  3  0  0  0  0  0  0
  182.5350  179.2430  137.9280 C   0  0  0  0  0  1  0  0  0  0  0  0
  188.0240  175.9410  136.5140 C   0  0  2  0  0  3  0  0  0  0  0  0
  184.9400  178.2610  138.2510 C   0  0  2  0  0  0  0  0  0  0  0  0
  184.7470  172.0270  137.5960 O   0  0  0  0  0  1  0  0  0  0  0  0
  186.4220  178.6100  138.5290 C   0  0  1  0  0  3  0  0  0  0  0  0
  185.2310  175.1120  136.4200 C   0  0  1  0  0  0  0  0  0  0  0  0
  183.9120  179.2770  138.5670 C   0  0  2  0  0  0  0  0  0  0  0  0
  186.3440  174.0590  136.3350 C   0  0  2  0  0  3  0  0  0  0  0  0
  184.6230  172.2510  136.2230 C   0  0  1  0  0  3  0  0  0  0  0  0
  184.5900  177.3270  137.2500 O   0  0  0  0  0  0  0  0  0  0  0  0
  187.6000  174.6860  135.7290 C   0  0  0  0  0  2  0  0  0  0  0  0
  186.8840  176.9820  136.5750 C   0  0  2  0  0  3  0  0  0  0  0  0
  184.3180  180.4530  139.1970 O   0  0  0  0  0  1  0  0  0  0  0  0
  183.4880  173.2330  135.9460 C   0  0  0  0  0  2  0  0  0  0  0  0
  189.4020  176.7250  134.6310 C   0  0  0  0  0  2  0  0  0  0  0  0
  189.2880  176.5180  135.9460 C   0  0  0  0  0  0  0  0  0  0  0  0
  190.3110  176.8620  136.8400 O   0  0  0  0  0  0  0  0  0  0  0  0
  191.3790  176.0260  137.1800 C   0  0  0  0  0  0  0  0  0  0  0  0
  193.9030  174.0720  137.9650 O   0  0  0  0  0  0  0  0  0  0  0  0
  192.8110  176.0710  136.9690 C   0  0  0  0  0  2  0  0  0  0  0  0
  192.9600  174.8430  137.6490 C   0  0  0  0  0  0  0  0  0  0  0  0
  191.5210  174.8710  137.8210 N   0  0  0  0  0  0  0  0  0  0  0  0
  186.9380  177.8650  139.7580 C   0  0  0  0  0  2  0  0  0  0  0  0
  188.3020  178.9460  141.3940 O   0  0  0  0  0  1  0  0  0  0  0  0
  188.3330  178.3320  140.1410 C   0  0  1  0  0  3  0  0  0  0  0  0
  189.2620  177.1390  140.1910 C   0  0  0  0  0  1  0  0  0  0  0  0
  2  3  1  1  0  0  0
  2 17  1  0  0  0  0
  2 16  1  0  0  0  0
  4  1  1  6  0  0  0
  4 13  1  0  0  0  0
  7 18  1  6  0  0  0
  8  6  1  6  0  0  0
  8 14  1  0  0  0  0
 10 24  1  6  0  0  0
 10 20  1  0  0  0  0
 11 18  1  6  0  0  0
 11 13  1  0  0  0  0
 11 15  1  0  0  0  0
 11  5  1  0  0  0  0
 13 31  1  1  0  0  0
 14  6  1  6  0  0  0
 14  7  1  0  0  0  0
 15  9  1  6  0  0  0
 15 21  1  0  0  0  0
 15  5  1  0  0  0  0
 16 19  1  6  0  0  0
 16 14  1  0  0  0  0
 17 12  1  1  0  0  0
 19 10  1  0  0  0  0
 20  7  1  0  0  0  0
 20  4  1  0  0  0  0
 22 17  1  0  0  0  0
 22  8  1  0  0  0  0
 23 24  2  0  0  0  0
 24 25  1  0  0  0  0
 25 26  1  0  0  0  0
 26 30  2  0  0  0  0
 28 26  1  0  0  0  0
 28 29  1  0  0  0  0
 29 30  1  0  0  0  0
 29 27  2  0  0  0  0
 31 33  1  0  0  0  0
 33 34  1  0  0  0  0
 33 32  1  0  0  0  0
M  END
>  <MODEL>
8

>  <REMARK>
 VINA RESULT:      -5.3      4.183      8.254
  Name = 
  5 active torsions:
  status: ('A' for Active; 'I' for Inactive)
    1  A    between atoms: C_6  and  C_9
    2  A    between atoms: C_8  and  O_14
    3  A    between atoms: C_9  and  C_21
    4  A    between atoms: O_14  and  C_22
    5  A    between atoms: C_17  and  C_22
                            x       y       z     vdW  Elec       q    Type
                         _______ _______ _______ _____ _____    ______ ____

>  <TORSDO>
F 5

$$$$
=
 OpenBabel11062415423D

 34 39  0  0  1  0  0  0  0  0999 V2000
  184.9900  178.1150  135.8770 C   0  0  0  0  0  1  0  0  0  0  0  0
  182.4500  171.7830  136.3300 C   0  0  2  0  0  3  0  0  0  0  0  0
  183.1860  170.7400  136.8970 O   0  0  0  0  0  1  0  0  0  0  0  0
  184.5880  177.2500  137.0560 C   0  0  1  0  0  3  0  0  0  0  0  0
  181.1380  178.1580  138.3590 O   0  0  0  0  0  0  0  0  0  0  0  0
  181.6070  174.3960  135.0010 C   0  0  0  0  0  2  0  0  0  0  0  0
  182.6010  175.6620  136.9800 C   0  0  2  0  0  3  0  0  0  0  0  0
  180.6230  174.1350  136.1480 C   0  0  2  0  0  3  0  0  0  0  0  0
  180.0930  179.0730  136.3750 C   0  0  0  0  0  1  0  0  0  0  0  0
  184.9540  174.7080  136.9610 C   0  0  2  0  0  3  0  0  0  0  0  0
  182.1480  177.8410  137.4280 C   0  0  2  0  0  0  0  0  0  0  0  0
  180.8060  171.7510  138.0950 O   0  0  0  0  0  1  0  0  0  0  0  0
  183.5960  178.0140  137.9500 C   0  0  1  0  0  3  0  0  0  0  0  0
  182.1140  174.3270  136.4250 C   0  0  1  0  0  0  0  0  0  0  0  0
  181.3090  179.0510  137.2820 C   0  0  2  0  0  0  0  0  0  0  0  0
  182.9860  173.1260  136.8180 C   0  0  2  0  0  3  0  0  0  0  0  0
  180.9800  171.6400  136.7130 C   0  0  1  0  0  3  0  0  0  0  0  0
  181.8010  176.7520  136.5980 O   0  0  0  0  0  0  0  0  0  0  0  0
  184.4320  173.3770  136.3880 C   0  0  0  0  0  2  0  0  0  0  0  0
  184.0590  175.8950  136.5430 C   0  0  2  0  0  3  0  0  0  0  0  0
  181.8270  180.2700  137.7210 O   0  0  0  0  0  1  0  0  0  0  0  0
  180.1380  172.6850  135.9870 C   0  0  0  0  0  2  0  0  0  0  0  0
  186.7980  174.6760  135.3310 C   0  0  0  0  0  2  0  0  0  0  0  0
  186.3900  174.9190  136.5800 C   0  0  0  0  0  0  0  0  0  0  0  0
  187.2640  175.4100  137.5600 O   0  0  0  0  0  0  0  0  0  0  0  0
  187.8020  176.7000  137.5650 C   0  0  0  0  0  0  0  0  0  0  0  0
  189.0550  179.7390  137.5920 O   0  0  0  0  0  0  0  0  0  0  0  0
  187.7800  177.8070  138.4980 C   0  0  0  0  0  2  0  0  0  0  0  0
  188.5620  178.5810  137.6150 C   0  0  0  0  0  0  0  0  0  0  0  0
  188.5400  177.4300  136.7350 N   0  0  0  0  0  0  0  0  0  0  0  0
  183.7180  177.5300  139.3930 C   0  0  0  0  0  2  0  0  0  0  0  0
  184.5560  179.7540  139.6210 O   0  0  0  0  0  1  0  0  0  0  0  0
  184.5340  178.5010  140.2320 C   0  0  1  0  0  3  0  0  0  0  0  0
  183.9060  178.6220  141.6040 C   0  0  0  0  0  1  0  0  0  0  0  0
  2 17  1  0  0  0  0
  2 16  1  0  0  0  0
  2  3  1  1  0  0  0
  4  1  1  6  0  0  0
  4 13  1  0  0  0  0
  7 18  1  6  0  0  0
  8  6  1  6  0  0  0
  8 14  1  0  0  0  0
 10 24  1  6  0  0  0
 11 18  1  6  0  0  0
 11 13  1  0  0  0  0
 11  5  1  0  0  0  0
 13 31  1  1  0  0  0
 14  6  1  6  0  0  0
 14 16  1  0  0  0  0
 14  7  1  0  0  0  0
 15  9  1  6  0  0  0
 15 11  1  0  0  0  0
 15 21  1  0  0  0  0
 15  5  1  0  0  0  0
 16 19  1  6  0  0  0
 17 12  1  1  0  0  0
 19 10  1  0  0  0  0
 20 10  1  0  0  0  0
 20  7  1  0  0  0  0
 20  4  1  0  0  0  0
 22  8  1  0  0  0  0
 22 17  1  0  0  0  0
 23 24  2  0  0  0  0
 24 25  1  0  0  0  0
 25 26  1  0  0  0  0
 26 28  1  0  0  0  0
 27 29  2  0  0  0  0
 29 28  1  0  0  0  0
 30 26  2  0  0  0  0
 30 29  1  0  0  0  0
 31 33  1  0  0  0  0
 32 33  1  0  0  0  0
 33 34  1  0  0  0  0
M  END
>  <MODEL>
9

>  <REMARK>
 VINA RESULT:      -5.2      3.291      6.998
  Name = 
  5 active torsions:
  status: ('A' for Active; 'I' for Inactive)
    1  A    between atoms: C_6  and  C_9
    2  A    between atoms: C_8  and  O_14
    3  A    between atoms: C_9  and  C_21
    4  A    between atoms: O_14  and  C_22
    5  A    between atoms: C_17  and  C_22
                            x       y       z     vdW  Elec       q    Type
                         _______ _______ _______ _____ _____    ______ ____

>  <TORSDO>
F 5

$$$$
