=
 OpenBabel11062415393D

 34 37  0  0  1  0  0  0  0  0999 V2000
  185.3110  178.3900  144.6630 C   0  0  0  0  0  0  0  0  0  0  0  0
  185.6080  179.4370  147.3670 O   0  0  0  0  0  0  0  0  0  0  0  0
  186.4070  178.5550  146.9560 C   0  0  0  0  0  0  0  0  0  0  0  0
  184.4180  179.2360  144.9290 O   0  0  0  0  0  0  0  0  0  0  0  0
  186.2790  178.0010  145.6430 N   0  0  0  0  0  2  0  0  0  0  0  0
  187.4700  178.1200  147.8030 N   0  0  0  0  0  2  0  0  0  0  0  0
  185.3700  177.7840  143.3040 C   0  0  0  0  0  2  0  0  0  0  0  0
  184.4870  178.8910  140.0170 C   0  0  1  0  0  3  0  0  0  0  0  0
  184.0400  178.2550  141.2860 C   0  0  2  0  0  3  0  0  0  0  0  0
  182.6050  178.6830  141.5270 C   0  0  0  0  0  2  0  0  0  0  0  0
  181.6780  178.1790  140.4030 C   0  0  2  0  0  3  0  0  0  0  0  0
  182.3330  177.9890  139.0160 C   0  0  1  0  0  0  0  0  0  0  0  0
  185.8850  178.8550  140.0160 O   0  0  0  0  0  0  0  0  0  0  0  0
  181.5700  179.2650  139.3280 C   0  0  0  0  0  2  0  0  0  0  0  0
  183.8620  178.1480  138.8510 C   0  0  0  0  0  2  0  0  0  0  0  0
  185.0230  178.8220  142.2520 C   0  0  2  0  0  3  0  0  0  0  0  0
  186.2330  179.1000  141.3620 C   0  0  0  0  0  2  0  0  0  0  0  0
  181.6270  176.9930  138.0790 C   0  0  2  0  0  3  0  0  0  0  0  0
  181.9490  175.6660  138.3950 O   0  0  0  0  0  1  0  0  0  0  0  0
  181.9410  177.2710  136.6060 C   0  0  1  0  0  3  0  0  0  0  0  0
  182.4960  176.1360  136.0110 O   0  0  0  0  0  1  0  0  0  0  0  0
  180.6830  177.6530  135.8440 C   0  0  0  0  0  1  0  0  0  0  0  0
  188.3190  177.1390  147.4100 O   0  0  0  0  0  0  0  0  0  0  0  0
  189.5110  177.7600  147.2290 N   0  0  0  0  0  2  0  0  0  0  0  0
  190.0730  177.2430  145.9880 C   0  0  1  0  0  3  0  0  0  0  0  0
  190.0540  178.3180  144.8910 C   0  0  1  0  0  3  0  0  0  0  0  0
  191.3630  178.5990  144.4880 O   0  0  0  0  0  1  0  0  0  0  0  0
  190.2990  177.6810  142.2070 S   0  0  0  0  0  0  0  0  0  0  0  0
  188.9020  176.3760  143.7650 C   0  0  0  0  0  2  0  0  0  0  0  0
  189.7240  175.9950  142.5550 C   0  0  0  0  0  2  0  0  0  0  0  0
  189.2370  177.8540  143.6790 C   0  0  1  0  0  3  0  0  0  0  0  0
  191.4900  176.7470  146.2610 C   0  0  0  0  0  2  0  0  0  0  0  0
  191.5030  175.6930  147.3560 C   0  0  0  0  0  2  0  0  0  0  0  0
  192.8080  175.7450  148.1260 C   0  0  0  0  0  1  0  0  0  0  0  0
  1  4  2  0  0  0  0
  1  5  1  0  0  0  0
  3  2  2  0  0  0  0
  3  6  1  0  0  0  0
  5  3  1  0  0  0  0
  7  1  1  0  0  0  0
  8 15  1  6  0  0  0
  8  9  1  0  0  0  0
  9 10  1  1  0  0  0
  9 16  1  0  0  0  0
 11 14  1  6  0  0  0
 11 10  1  0  0  0  0
 12 18  1  6  0  0  0
 12 14  1  0  0  0  0
 12 11  1  0  0  0  0
 13  8  1  0  0  0  0
 13 17  1  0  0  0  0
 15 12  1  0  0  0  0
 16  7  1  1  0  0  0
 17 16  1  0  0  0  0
 18 19  1  1  0  0  0
 20 22  1  6  0  0  0
 20 18  1  0  0  0  0
 21 20  1  0  0  0  0
 23  6  1  0  0  0  0
 24 23  1  0  0  0  0
 25 32  1  1  0  0  0
 25 24  1  0  0  0  0
 26 27  1  6  0  0  0
 26 25  1  0  0  0  0
 28 30  1  0  0  0  0
 28 31  1  0  0  0  0
 30 29  1  0  0  0  0
 31 29  1  0  0  0  0
 31 26  1  1  0  0  0
 32 33  1  0  0  0  0
 33 34  1  0  0  0  0
M  END
>  <MODEL>
1

>  <REMARK>
 VINA RESULT:      -7.6      0.000      0.000
  Name = 
  11 active torsions:
  status: ('A' for Active; 'I' for Inactive)
    1  A    between atoms: C_2  and  C_5
    2  A    between atoms: C_2  and  C_28
    3  A    between atoms: C_6  and  C_8
    4  A    between atoms: C_8  and  C_22
    5  A    between atoms: O_13  and  N_31
    6  A    between atoms: O_13  and  N_33
    7  A    between atoms: C_14  and  C_19
    8  A    between atoms: C_14  and  C_21
    9  A    between atoms: C_14  and  N_31
   10  A    between atoms: C_16  and  C_21
   11  A    between atoms: C_19  and  C_23
                            x       y       z     vdW  Elec       q    Type
                         _______ _______ _______ _____ _____    ______ ____

>  <TORSDO>
F 11

$$$$
=
 OpenBabel11062415393D

 34 37  0  0  1  0  0  0  0  0999 V2000
  184.7980  179.0040  145.3230 C   0  0  0  0  0  0  0  0  0  0  0  0
  186.4240  177.9500  147.5010 O   0  0  0  0  0  0  0  0  0  0  0  0
  186.9520  178.1440  146.3740 C   0  0  0  0  0  0  0  0  0  0  0  0
  184.1150  178.8380  146.3680 O   0  0  0  0  0  0  0  0  0  0  0  0
  186.1810  178.6400  145.2760 N   0  0  0  0  0  2  0  0  0  0  0  0
  188.3460  177.8900  146.2000 N   0  0  0  0  0  2  0  0  0  0  0  0
  184.1630  179.5970  144.1140 C   0  0  0  0  0  2  0  0  0  0  0  0
  181.6010  178.5840  141.8290 C   0  0  1  0  0  3  0  0  0  0  0  0
  183.0500  178.8430  142.0510 C   0  0  2  0  0  3  0  0  0  0  0  0
  183.8230  177.8440  141.2110 C   0  0  0  0  0  2  0  0  0  0  0  0
  183.5400  178.0430  139.7090 C   0  0  2  0  0  3  0  0  0  0  0  0
  182.1560  178.6300  139.3510 C   0  0  1  0  0  0  0  0  0  0  0  0
  180.9150  179.1860  142.8880 O   0  0  0  0  0  0  0  0  0  0  0  0
  182.3810  177.1290  139.3000 C   0  0  0  0  0  2  0  0  0  0  0  0
  181.2090  179.1280  140.4680 C   0  0  0  0  0  2  0  0  0  0  0  0
  183.1570  178.6260  143.5210 C   0  0  2  0  0  3  0  0  0  0  0  0
  181.7480  178.9620  144.0060 C   0  0  0  0  0  2  0  0  0  0  0  0
  182.0700  179.3470  137.9900 C   0  0  2  0  0  3  0  0  0  0  0  0
  181.8980  180.7290  138.1420 O   0  0  0  0  0  1  0  0  0  0  0  0
  180.9540  178.7740  137.1110 C   0  0  1  0  0  3  0  0  0  0  0  0
  179.9080  179.6930  137.0060 O   0  0  0  0  0  1  0  0  0  0  0  0
  181.4670  178.4610  135.7150 C   0  0  0  0  0  1  0  0  0  0  0  0
  188.9360  178.0440  144.9890 O   0  0  0  0  0  0  0  0  0  0  0  0
  189.0920  176.7830  144.5140 N   0  0  0  0  0  2  0  0  0  0  0  0
  190.3690  176.7500  143.8120 C   0  0  1  0  0  3  0  0  0  0  0  0
  190.3280  177.6450  142.5640 C   0  0  1  0  0  3  0  0  0  0  0  0
  191.5770  177.6290  141.9360 O   0  0  0  0  0  1  0  0  0  0  0  0
  187.9640  178.4310  141.3540 S   0  0  0  0  0  0  0  0  0  0  0  0
  189.7480  177.2340  140.1420 C   0  0  0  0  0  2  0  0  0  0  0  0
  188.7520  178.2910  139.7240 C   0  0  0  0  0  2  0  0  0  0  0  0
  189.2560  177.1640  141.5770 C   0  0  1  0  0  3  0  0  0  0  0  0
  191.4690  177.1850  144.7760 C   0  0  0  0  0  2  0  0  0  0  0  0
  191.8260  176.0670  145.7420 C   0  0  0  0  0  2  0  0  0  0  0  0
  191.5630  176.4990  147.1720 C   0  0  0  0  0  1  0  0  0  0  0  0
  1  4  2  0  0  0  0
  3  2  2  0  0  0  0
  5  1  1  0  0  0  0
  5  3  1  0  0  0  0
  6  3  1  0  0  0  0
  7  1  1  0  0  0  0
  8 15  1  6  0  0  0
  8  9  1  0  0  0  0
  8 13  1  0  0  0  0
  9 10  1  6  0  0  0
  9 16  1  0  0  0  0
 11 14  1  6  0  0  0
 11 10  1  0  0  0  0
 12 18  1  6  0  0  0
 12 11  1  0  0  0  0
 12 15  1  0  0  0  0
 13 17  1  0  0  0  0
 14 12  1  0  0  0  0
 16 17  1  0  0  0  0
 16  7  1  1  0  0  0
 18 19  1  1  0  0  0
 20 22  1  6  0  0  0
 20 18  1  0  0  0  0
 21 20  1  0  0  0  0
 23  6  1  0  0  0  0
 24 23  1  0  0  0  0
 25 24  1  0  0  0  0
 25 32  1  1  0  0  0
 26 27  1  6  0  0  0
 26 25  1  0  0  0  0
 28 31  1  0  0  0  0
 29 31  1  0  0  0  0
 30 29  1  0  0  0  0
 30 28  1  0  0  0  0
 31 26  1  1  0  0  0
 32 33  1  0  0  0  0
 33 34  1  0  0  0  0
M  END
>  <MODEL>
2

>  <REMARK>
 VINA RESULT:      -7.3      2.121      2.751
  Name = 
  11 active torsions:
  status: ('A' for Active; 'I' for Inactive)
    1  A    between atoms: C_2  and  C_5
    2  A    between atoms: C_2  and  C_28
    3  A    between atoms: C_6  and  C_8
    4  A    between atoms: C_8  and  C_22
    5  A    between atoms: O_13  and  N_31
    6  A    between atoms: O_13  and  N_33
    7  A    between atoms: C_14  and  C_19
    8  A    between atoms: C_14  and  C_21
    9  A    between atoms: C_14  and  N_31
   10  A    between atoms: C_16  and  C_21
   11  A    between atoms: C_19  and  C_23
                            x       y       z     vdW  Elec       q    Type
                         _______ _______ _______ _____ _____    ______ ____

>  <TORSDO>
F 11

$$$$
=
 OpenBabel11062415393D

 34 37  0  0  1  0  0  0  0  0999 V2000
  187.4240  177.5980  145.4860 C   0  0  0  0  0  0  0  0  0  0  0  0
  185.3310  179.0080  146.9460 O   0  0  0  0  0  0  0  0  0  0  0  0
  185.2020  178.8240  145.7070 C   0  0  0  0  0  0  0  0  0  0  0  0
  187.7190  177.7280  146.7020 O   0  0  0  0  0  0  0  0  0  0  0  0
  186.2180  178.1560  144.9530 N   0  0  0  0  0  2  0  0  0  0  0  0
  184.0140  179.2660  145.0510 N   0  0  0  0  0  2  0  0  0  0  0  0
  188.3370  176.8470  144.5810 C   0  0  0  0  0  2  0  0  0  0  0  0
  190.4950  177.7440  141.8690 C   0  0  1  0  0  3  0  0  0  0  0  0
  189.1240  177.3580  142.3040 C   0  0  2  0  0  3  0  0  0  0  0  0
  188.1420  178.0970  141.4160 C   0  0  0  0  0  2  0  0  0  0  0  0
  188.2980  177.6750  139.9420 C   0  0  2  0  0  3  0  0  0  0  0  0
  189.7060  177.2030  139.5160 C   0  0  1  0  0  0  0  0  0  0  0  0
  191.3590  177.4210  142.9200 O   0  0  0  0  0  0  0  0  0  0  0  0
  189.2730  178.6350  139.2550 C   0  0  0  0  0  2  0  0  0  0  0  0
  190.8190  177.0230  140.5740 C   0  0  0  0  0  2  0  0  0  0  0  0
  189.1360  177.8120  143.7230 C   0  0  2  0  0  3  0  0  0  0  0  0
  190.6190  177.7350  144.0800 C   0  0  0  0  0  2  0  0  0  0  0  0
  189.7530  176.2760  138.2870 C   0  0  2  0  0  3  0  0  0  0  0  0
  190.6000  175.1800  138.4950 O   0  0  0  0  0  1  0  0  0  0  0  0
  190.1720  177.0280  137.0190 C   0  0  1  0  0  3  0  0  0  0  0  0
  191.1460  176.3020  136.3320 O   0  0  0  0  0  1  0  0  0  0  0  0
  188.9830  177.2420  136.0960 C   0  0  0  0  0  1  0  0  0  0  0  0
  183.8630  179.1260  143.7120 O   0  0  0  0  0  0  0  0  0  0  0  0
  182.6490  178.5400  143.5560 N   0  0  0  0  0  2  0  0  0  0  0  0
  182.0370  179.1420  142.3790 C   0  0  1  0  0  3  0  0  0  0  0  0
  182.3280  178.3050  141.1240 C   0  0  1  0  0  3  0  0  0  0  0  0
  181.1560  177.6710  140.7020 O   0  0  0  0  0  1  0  0  0  0  0  0
  184.6100  178.7800  139.6270 S   0  0  0  0  0  0  0  0  0  0  0  0
  182.3510  178.7290  138.6360 C   0  0  0  0  0  2  0  0  0  0  0  0
  183.7120  178.3250  138.1160 C   0  0  0  0  0  2  0  0  0  0  0  0
  182.8690  179.1840  139.9890 C   0  0  1  0  0  3  0  0  0  0  0  0
  180.5380  179.2820  142.6220 C   0  0  0  0  0  2  0  0  0  0  0  0
  180.1350  178.6570  143.9480 C   0  0  0  0  0  2  0  0  0  0  0  0
  178.9320  179.3750  144.5280 C   0  0  0  0  0  1  0  0  0  0  0  0
  1  4  2  0  0  0  0
  3  2  2  0  0  0  0
  5  1  1  0  0  0  0
  5  3  1  0  0  0  0
  6  3  1  0  0  0  0
  7  1  1  0  0  0  0
  8 15  1  6  0  0  0
  8  9  1  0  0  0  0
  8 13  1  0  0  0  0
  9 10  1  6  0  0  0
  9 16  1  0  0  0  0
 11 14  1  6  0  0  0
 11 10  1  0  0  0  0
 12 18  1  6  0  0  0
 12 11  1  0  0  0  0
 12 15  1  0  0  0  0
 13 17  1  0  0  0  0
 14 12  1  0  0  0  0
 16 17  1  0  0  0  0
 16  7  1  1  0  0  0
 18 19  1  1  0  0  0
 20 22  1  6  0  0  0
 20 18  1  0  0  0  0
 21 20  1  0  0  0  0
 23  6  1  0  0  0  0
 24 23  1  0  0  0  0
 25 32  1  1  0  0  0
 25 24  1  0  0  0  0
 26 27  1  6  0  0  0
 26 25  1  0  0  0  0
 28 31  1  0  0  0  0
 29 31  1  0  0  0  0
 30 29  1  0  0  0  0
 30 28  1  0  0  0  0
 31 26  1  1  0  0  0
 32 33  1  0  0  0  0
 33 34  1  0  0  0  0
M  END
>  <MODEL>
3

>  <REMARK>
 VINA RESULT:      -7.2      3.242      7.526
  Name = 
  11 active torsions:
  status: ('A' for Active; 'I' for Inactive)
    1  A    between atoms: C_2  and  C_5
    2  A    between atoms: C_2  and  C_28
    3  A    between atoms: C_6  and  C_8
    4  A    between atoms: C_8  and  C_22
    5  A    between atoms: O_13  and  N_31
    6  A    between atoms: O_13  and  N_33
    7  A    between atoms: C_14  and  C_19
    8  A    between atoms: C_14  and  C_21
    9  A    between atoms: C_14  and  N_31
   10  A    between atoms: C_16  and  C_21
   11  A    between atoms: C_19  and  C_23
                            x       y       z     vdW  Elec       q    Type
                         _______ _______ _______ _____ _____    ______ ____

>  <TORSDO>
F 11

$$$$
=
 OpenBabel11062415393D

 34 37  0  0  1  0  0  0  0  0999 V2000
  187.6450  177.5420  144.6880 C   0  0  0  0  0  0  0  0  0  0  0  0
  185.1170  178.7990  145.4130 O   0  0  0  0  0  0  0  0  0  0  0  0
  185.2560  178.3120  144.2600 C   0  0  0  0  0  0  0  0  0  0  0  0
  187.6810  178.0050  145.8580 O   0  0  0  0  0  0  0  0  0  0  0  0
  186.4890  177.7070  143.8610 N   0  0  0  0  0  2  0  0  0  0  0  0
  184.1580  178.3420  143.3480 N   0  0  0  0  0  2  0  0  0  0  0  0
  188.8210  176.8020  144.1520 C   0  0  0  0  0  2  0  0  0  0  0  0
  190.7810  177.4780  141.2340 C   0  0  1  0  0  3  0  0  0  0  0  0
  189.4310  177.2060  141.8000 C   0  0  2  0  0  3  0  0  0  0  0  0
  188.4290  178.0020  140.9860 C   0  0  0  0  0  2  0  0  0  0  0  0
  188.4160  177.5410  139.5150 C   0  0  2  0  0  3  0  0  0  0  0  0
  189.7400  176.9530  138.9760 C   0  0  1  0  0  0  0  0  0  0  0  0
  191.7110  177.1090  142.2090 O   0  0  0  0  0  0  0  0  0  0  0  0
  189.3940  178.4090  138.7170 C   0  0  0  0  0  2  0  0  0  0  0  0
  190.9290  176.7090  139.9340 C   0  0  0  0  0  2  0  0  0  0  0  0
  189.6070  177.6860  143.2000 C   0  0  2  0  0  3  0  0  0  0  0  0
  191.1070  177.5020  143.4230 C   0  0  0  0  0  2  0  0  0  0  0  0
  189.6040  176.0030  137.7730 C   0  0  2  0  0  3  0  0  0  0  0  0
  190.2860  174.7970  137.9840 O   0  0  0  0  0  1  0  0  0  0  0  0
  190.0840  176.6540  136.4710 C   0  0  1  0  0  3  0  0  0  0  0  0
  191.1930  175.9670  135.9730 O   0  0  0  0  0  1  0  0  0  0  0  0
  188.9880  176.6380  135.4180 C   0  0  0  0  0  1  0  0  0  0  0  0
  184.2880  177.8700  142.0840 O   0  0  0  0  0  0  0  0  0  0  0  0
  184.4260  178.9750  141.3100 N   0  0  0  0  0  2  0  0  0  0  0  0
  183.4030  178.8980  140.2760 C   0  0  1  0  0  3  0  0  0  0  0  0
  184.0400  178.8740  138.8790 C   0  0  1  0  0  3  0  0  0  0  0  0
  185.3620  179.3240  138.9590 O   0  0  0  0  0  1  0  0  0  0  0  0
  182.9470  177.3840  136.8160 S   0  0  0  0  0  0  0  0  0  0  0  0
  185.2970  177.1520  137.5280 C   0  0  0  0  0  2  0  0  0  0  0  0
  184.6130  177.0360  136.1850 C   0  0  0  0  0  2  0  0  0  0  0  0
  184.0190  177.4580  138.2890 C   0  0  1  0  0  3  0  0  0  0  0  0
  182.5490  177.6590  140.5230 C   0  0  0  0  0  2  0  0  0  0  0  0
  181.0670  178.0010  140.5190 C   0  0  0  0  0  2  0  0  0  0  0  0
  180.8010  179.2060  141.4000 C   0  0  0  0  0  1  0  0  0  0  0  0
  1  4  2  0  0  0  0
  3  2  2  0  0  0  0
  5  3  1  0  0  0  0
  5  1  1  0  0  0  0
  6  3  1  0  0  0  0
  7  1  1  0  0  0  0
  8 15  1  6  0  0  0
  8  9  1  0  0  0  0
  8 13  1  0  0  0  0
  9 10  1  6  0  0  0
  9 16  1  0  0  0  0
 11 14  1  6  0  0  0
 11 10  1  0  0  0  0
 12 18  1  6  0  0  0
 12 11  1  0  0  0  0
 12 15  1  0  0  0  0
 13 17  1  0  0  0  0
 14 12  1  0  0  0  0
 16 17  1  0  0  0  0
 16  7  1  1  0  0  0
 18 19  1  1  0  0  0
 20 22  1  6  0  0  0
 20 18  1  0  0  0  0
 21 20  1  0  0  0  0
 23  6  1  0  0  0  0
 24 23  1  0  0  0  0
 25 32  1  1  0  0  0
 25 24  1  0  0  0  0
 26 27  1  1  0  0  0
 26 25  1  0  0  0  0
 28 31  1  0  0  0  0
 29 31  1  0  0  0  0
 30 28  1  0  0  0  0
 30 29  1  0  0  0  0
 31 26  1  6  0  0  0
 33 32  1  0  0  0  0
 33 34  1  0  0  0  0
M  END
>  <MODEL>
4

>  <REMARK>
 VINA RESULT:      -7.0      3.539      7.500
  Name = 
  11 active torsions:
  status: ('A' for Active; 'I' for Inactive)
    1  A    between atoms: C_2  and  C_5
    2  A    between atoms: C_2  and  C_28
    3  A    between atoms: C_6  and  C_8
    4  A    between atoms: C_8  and  C_22
    5  A    between atoms: O_13  and  N_31
    6  A    between atoms: O_13  and  N_33
    7  A    between atoms: C_14  and  C_19
    8  A    between atoms: C_14  and  C_21
    9  A    between atoms: C_14  and  N_31
   10  A    between atoms: C_16  and  C_21
   11  A    between atoms: C_19  and  C_23
                            x       y       z     vdW  Elec       q    Type
                         _______ _______ _______ _____ _____    ______ ____

>  <TORSDO>
F 11

$$$$
=
 OpenBabel11062415393D

 34 37  0  0  1  0  0  0  0  0999 V2000
  186.9860  177.6090  145.0240 C   0  0  0  0  0  0  0  0  0  0  0  0
  184.9300  179.1100  146.4460 O   0  0  0  0  0  0  0  0  0  0  0  0
  184.7280  178.7640  145.2510 C   0  0  0  0  0  0  0  0  0  0  0  0
  187.3550  177.9030  146.1910 O   0  0  0  0  0  0  0  0  0  0  0  0
  185.7220  178.0460  144.5150 N   0  0  0  0  0  2  0  0  0  0  0  0
  183.4780  179.0730  144.6340 N   0  0  0  0  0  2  0  0  0  0  0  0
  187.8710  176.7850  144.1560 C   0  0  0  0  0  2  0  0  0  0  0  0
  190.2370  177.5180  141.5720 C   0  0  1  0  0  3  0  0  0  0  0  0
  188.8130  177.2800  141.9350 C   0  0  2  0  0  3  0  0  0  0  0  0
  187.9640  178.1610  141.0390 C   0  0  0  0  0  2  0  0  0  0  0  0
  188.1350  177.7760  139.5560 C   0  0  2  0  0  3  0  0  0  0  0  0
  189.4970  177.1570  139.1690 C   0  0  1  0  0  0  0  0  0  0  0  0
  191.0110  177.0580  142.6420 O   0  0  0  0  0  0  0  0  0  0  0  0
  189.2450  178.6380  138.9480 C   0  0  0  0  0  2  0  0  0  0  0  0
  190.5330  176.8100  140.2630 C   0  0  0  0  0  2  0  0  0  0  0  0
  188.8140  177.6790  143.3700 C   0  0  2  0  0  3  0  0  0  0  0  0
  190.2610  177.4160  143.7830 C   0  0  0  0  0  2  0  0  0  0  0  0
  189.4900  176.2750  137.9060 C   0  0  2  0  0  3  0  0  0  0  0  0
  190.0990  175.0340  138.1360 O   0  0  0  0  0  1  0  0  0  0  0  0
  190.1590  176.9730  136.7170 C   0  0  1  0  0  3  0  0  0  0  0  0
  191.3310  176.3020  136.3650 O   0  0  0  0  0  1  0  0  0  0  0  0
  189.2330  177.0010  135.5120 C   0  0  0  0  0  1  0  0  0  0  0  0
  183.2450  178.7580  143.3360 O   0  0  0  0  0  0  0  0  0  0  0  0
  181.9680  179.1530  143.1040 N   0  0  0  0  0  2  0  0  0  0  0  0
  181.6110  178.6700  141.7770 C   0  0  1  0  0  3  0  0  0  0  0  0
  180.4690  179.5070  141.1820 C   0  0  1  0  0  3  0  0  0  0  0  0
  180.9040  180.1210  140.0030 O   0  0  0  0  0  1  0  0  0  0  0  0
  179.0660  178.3670  139.0830 S   0  0  0  0  0  0  0  0  0  0  0  0
  179.5120  177.1720  141.1950 C   0  0  0  0  0  2  0  0  0  0  0  0
  179.4000  176.7150  139.7580 C   0  0  0  0  0  2  0  0  0  0  0  0
  179.2450  178.6330  140.8780 C   0  0  1  0  0  3  0  0  0  0  0  0
  182.8520  178.7070  140.8910 C   0  0  0  0  0  2  0  0  0  0  0  0
  183.0730  177.3720  140.1970 C   0  0  0  0  0  2  0  0  0  0  0  0
  182.9750  177.5340  138.6930 C   0  0  0  0  0  1  0  0  0  0  0  0
  1  4  2  0  0  0  0
  3  2  2  0  0  0  0
  5  1  1  0  0  0  0
  5  3  1  0  0  0  0
  6  3  1  0  0  0  0
  7  1  1  0  0  0  0
  8 15  1  6  0  0  0
  8  9  1  0  0  0  0
  8 13  1  0  0  0  0
  9 10  1  6  0  0  0
  9 16  1  0  0  0  0
 11 14  1  6  0  0  0
 11 10  1  0  0  0  0
 12 18  1  6  0  0  0
 12 11  1  0  0  0  0
 12 15  1  0  0  0  0
 13 17  1  0  0  0  0
 14 12  1  0  0  0  0
 16 17  1  0  0  0  0
 16  7  1  1  0  0  0
 18 19  1  1  0  0  0
 20 22  1  6  0  0  0
 20 18  1  0  0  0  0
 21 20  1  0  0  0  0
 23  6  1  0  0  0  0
 24 23  1  0  0  0  0
 25 32  1  6  0  0  0
 25 24  1  0  0  0  0
 26 27  1  6  0  0  0
 26 25  1  0  0  0  0
 28 30  1  0  0  0  0
 28 31  1  0  0  0  0
 30 29  1  0  0  0  0
 31 26  1  6  0  0  0
 31 29  1  0  0  0  0
 33 32  1  0  0  0  0
 34 33  1  0  0  0  0
M  END
>  <MODEL>
5

>  <REMARK>
 VINA RESULT:      -6.9      3.780      7.872
  Name = 
  11 active torsions:
  status: ('A' for Active; 'I' for Inactive)
    1  A    between atoms: C_2  and  C_5
    2  A    between atoms: C_2  and  C_28
    3  A    between atoms: C_6  and  C_8
    4  A    between atoms: C_8  and  C_22
    5  A    between atoms: O_13  and  N_31
    6  A    between atoms: O_13  and  N_33
    7  A    between atoms: C_14  and  C_19
    8  A    between atoms: C_14  and  C_21
    9  A    between atoms: C_14  and  N_31
   10  A    between atoms: C_16  and  C_21
   11  A    between atoms: C_19  and  C_23
                            x       y       z     vdW  Elec       q    Type
                         _______ _______ _______ _____ _____    ______ ____

>  <TORSDO>
F 11

$$$$
=
 OpenBabel11062415393D

 34 37  0  0  1  0  0  0  0  0999 V2000
  191.2510  177.5120  140.3800 C   0  0  0  0  0  0  0  0  0  0  0  0
  190.4920  177.1330  137.5910 O   0  0  0  0  0  0  0  0  0  0  0  0
  189.6660  177.6450  138.3920 C   0  0  0  0  0  0  0  0  0  0  0  0
  192.1730  176.9610  139.7230 O   0  0  0  0  0  0  0  0  0  0  0  0
  189.9950  177.8260  139.7730 N   0  0  0  0  0  2  0  0  0  0  0  0
  188.3930  178.0730  137.9090 N   0  0  0  0  0  2  0  0  0  0  0  0
  191.4690  177.8510  141.8140 C   0  0  0  0  0  2  0  0  0  0  0  0
  189.6240  176.7800  144.6880 C   0  0  1  0  0  3  0  0  0  0  0  0
  189.5920  177.4410  143.3550 C   0  0  2  0  0  3  0  0  0  0  0  0
  188.2690  177.0850  142.7040 C   0  0  0  0  0  2  0  0  0  0  0  0
  187.0820  177.6310  143.5210 C   0  0  2  0  0  3  0  0  0  0  0  0
  187.3170  177.7850  145.0410 C   0  0  1  0  0  0  0  0  0  0  0  0
  190.9620  176.7470  145.0920 O   0  0  0  0  0  0  0  0  0  0  0  0
  186.6180  176.5490  144.5010 C   0  0  0  0  0  2  0  0  0  0  0  0
  188.7240  177.5500  145.6380 C   0  0  0  0  0  2  0  0  0  0  0  0
  190.7840  176.8290  142.7040 C   0  0  2  0  0  3  0  0  0  0  0  0
  191.6720  176.4880  143.9000 C   0  0  0  0  0  2  0  0  0  0  0  0
  186.4180  178.8130  145.7520 C   0  0  2  0  0  3  0  0  0  0  0  0
  186.5960  178.7850  147.1410 O   0  0  0  0  0  1  0  0  0  0  0  0
  184.9380  178.6110  145.4100 C   0  0  1  0  0  3  0  0  0  0  0  0
  184.1720  178.6180  146.5770 O   0  0  0  0  0  1  0  0  0  0  0  0
  184.4360  179.7140  144.4930 C   0  0  0  0  0  1  0  0  0  0  0  0
  187.4620  178.5840  138.7520 O   0  0  0  0  0  0  0  0  0  0  0  0
  186.3850  178.8410  137.9690 N   0  0  0  0  0  2  0  0  0  0  0  0
  185.3140  177.9620  138.4220 C   0  0  1  0  0  3  0  0  0  0  0  0
  184.3050  178.7330  139.2860 C   0  0  1  0  0  3  0  0  0  0  0  0
  184.5770  180.1030  139.2140 O   0  0  0  0  0  1  0  0  0  0  0  0
  181.8150  177.9460  140.2080 S   0  0  0  0  0  0  0  0  0  0  0  0
  182.1170  179.7730  138.5780 C   0  0  0  0  0  2  0  0  0  0  0  0
  181.1190  179.5410  139.6900 C   0  0  0  0  0  2  0  0  0  0  0  0
  182.8680  178.4750  138.8160 C   0  0  1  0  0  3  0  0  0  0  0  0
  184.6440  177.3360  137.2030 C   0  0  0  0  0  2  0  0  0  0  0  0
  185.3710  176.0760  136.7620 C   0  0  0  0  0  2  0  0  0  0  0  0
  184.9650  175.6970  135.3510 C   0  0  0  0  0  1  0  0  0  0  0  0
  1  7  1  0  0  0  0
  2  3  2  0  0  0  0
  3  5  1  0  0  0  0
  4  1  2  0  0  0  0
  5  1  1  0  0  0  0
  6  3  1  0  0  0  0
  6 23  1  0  0  0  0
  8 13  1  0  0  0  0
  8 15  1  1  0  0  0
  9 10  1  6  0  0  0
  9  8  1  0  0  0  0
 11 10  1  6  0  0  0
 11 14  1  0  0  0  0
 11 12  1  0  0  0  0
 12 15  1  0  0  0  0
 12 18  1  1  0  0  0
 14 12  1  0  0  0  0
 16  7  1  6  0  0  0
 16  9  1  0  0  0  0
 16 17  1  0  0  0  0
 17 13  1  0  0  0  0
 18 19  1  1  0  0  0
 20 22  1  6  0  0  0
 20 18  1  0  0  0  0
 20 21  1  0  0  0  0
 24 25  1  0  0  0  0
 24 23  1  0  0  0  0
 25 32  1  6  0  0  0
 25 26  1  0  0  0  0
 26 27  1  6  0  0  0
 29 31  1  0  0  0  0
 29 30  1  0  0  0  0
 30 28  1  0  0  0  0
 31 26  1  1  0  0  0
 31 28  1  0  0  0  0
 33 32  1  0  0  0  0
 34 33  1  0  0  0  0
M  END
>  <MODEL>
6

>  <REMARK>
 VINA RESULT:      -6.9      3.567      8.990
  Name = 
  11 active torsions:
  status: ('A' for Active; 'I' for Inactive)
    1  A    between atoms: C_2  and  C_5
    2  A    between atoms: C_2  and  C_28
    3  A    between atoms: C_6  and  C_8
    4  A    between atoms: C_8  and  C_22
    5  A    between atoms: O_13  and  N_31
    6  A    between atoms: O_13  and  N_33
    7  A    between atoms: C_14  and  C_19
    8  A    between atoms: C_14  and  C_21
    9  A    between atoms: C_14  and  N_31
   10  A    between atoms: C_16  and  C_21
   11  A    between atoms: C_19  and  C_23
                            x       y       z     vdW  Elec       q    Type
                         _______ _______ _______ _____ _____    ______ ____

>  <TORSDO>
F 11

$$$$
=
 OpenBabel11062415393D

 34 37  0  0  1  0  0  0  0  0999 V2000
  188.5260  178.5410  137.8020 C   0  0  0  0  0  0  0  0  0  0  0  0
  186.8280  178.2340  135.4520 O   0  0  0  0  0  0  0  0  0  0  0  0
  186.3700  177.9400  136.5880 C   0  0  0  0  0  0  0  0  0  0  0  0
  189.1420  178.8450  136.7470 O   0  0  0  0  0  0  0  0  0  0  0  0
  187.1800  178.0570  137.7610 N   0  0  0  0  0  2  0  0  0  0  0  0
  185.0140  177.5080  136.7070 N   0  0  0  0  0  2  0  0  0  0  0  0
  189.2020  178.6930  139.1200 C   0  0  0  0  0  2  0  0  0  0  0  0
  190.0560  176.4650  141.7880 C   0  0  1  0  0  3  0  0  0  0  0  0
  189.2890  177.6660  141.3560 C   0  0  2  0  0  3  0  0  0  0  0  0
  187.9910  177.6810  142.1400 C   0  0  0  0  0  2  0  0  0  0  0  0
  188.2560  177.8180  143.6530 C   0  0  2  0  0  3  0  0  0  0  0  0
  189.6000  177.2500  144.1610 C   0  0  1  0  0  0  0  0  0  0  0  0
  191.0120  176.2180  140.7980 O   0  0  0  0  0  0  0  0  0  0  0  0
  188.3340  176.4180  144.2690 C   0  0  0  0  0  2  0  0  0  0  0  0
  190.6560  176.7330  143.1560 C   0  0  0  0  0  2  0  0  0  0  0  0
  189.1270  177.3930  139.9010 C   0  0  2  0  0  3  0  0  0  0  0  0
  190.3410  176.5200  139.5930 C   0  0  0  0  0  2  0  0  0  0  0  0
  190.1240  177.8570  145.4750 C   0  0  2  0  0  3  0  0  0  0  0  0
  191.5240  177.9050  145.5040 O   0  0  0  0  0  1  0  0  0  0  0  0
  189.6020  177.1030  146.7020 C   0  0  1  0  0  3  0  0  0  0  0  0
  190.6320  176.3610  147.2830 O   0  0  0  0  0  1  0  0  0  0  0  0
  189.0510  178.0670  147.7410 C   0  0  0  0  0  1  0  0  0  0  0  0
  184.5030  177.1390  137.9070 O   0  0  0  0  0  0  0  0  0  0  0  0
  183.1990  177.5090  137.8600 N   0  0  0  0  0  2  0  0  0  0  0  0
  182.9800  178.4240  138.9720 C   0  0  1  0  0  3  0  0  0  0  0  0
  184.1930  178.4390  139.9140 C   0  0  1  0  0  3  0  0  0  0  0  0
  184.6680  179.7470  140.0460 O   0  0  0  0  0  1  0  0  0  0  0  0
  184.5080  178.9430  142.6190 S   0  0  0  0  0  0  0  0  0  0  0  0
  182.3740  178.1820  141.6450 C   0  0  0  0  0  2  0  0  0  0  0  0
  182.7080  179.0980  142.8000 C   0  0  0  0  0  2  0  0  0  0  0  0
  183.8230  177.8900  141.2980 C   0  0  1  0  0  3  0  0  0  0  0  0
  182.6880  179.8140  138.4140 C   0  0  0  0  0  2  0  0  0  0  0  0
  181.2430  180.2140  138.6620 C   0  0  0  0  0  2  0  0  0  0  0  0
  181.1080  181.7240  138.6820 C   0  0  0  0  0  1  0  0  0  0  0  0
  1  7  1  0  0  0  0
  2  3  2  0  0  0  0
  3  6  1  0  0  0  0
  3  5  1  0  0  0  0
  4  1  2  0  0  0  0
  5  1  1  0  0  0  0
  6 23  1  0  0  0  0
  8 15  1  1  0  0  0
  9  8  1  0  0  0  0
  9 10  1  1  0  0  0
 11 10  1  6  0  0  0
 11 12  1  0  0  0  0
 11 14  1  0  0  0  0
 12 14  1  0  0  0  0
 12 18  1  1  0  0  0
 13  8  1  0  0  0  0
 15 12  1  0  0  0  0
 16  7  1  6  0  0  0
 16  9  1  0  0  0  0
 17 16  1  0  0  0  0
 17 13  1  0  0  0  0
 18 19  1  6  0  0  0
 18 20  1  0  0  0  0
 20 21  1  0  0  0  0
 20 22  1  1  0  0  0
 24 23  1  0  0  0  0
 24 25  1  0  0  0  0
 25 32  1  6  0  0  0
 25 26  1  0  0  0  0
 26 27  1  1  0  0  0
 28 30  1  0  0  0  0
 29 30  1  0  0  0  0
 31 26  1  6  0  0  0
 31 29  1  0  0  0  0
 31 28  1  0  0  0  0
 32 33  1  0  0  0  0
 33 34  1  0  0  0  0
M  END
>  <MODEL>
7

>  <REMARK>
 VINA RESULT:      -6.7      3.735      9.667
  Name = 
  11 active torsions:
  status: ('A' for Active; 'I' for Inactive)
    1  A    between atoms: C_2  and  C_5
    2  A    between atoms: C_2  and  C_28
    3  A    between atoms: C_6  and  C_8
    4  A    between atoms: C_8  and  C_22
    5  A    between atoms: O_13  and  N_31
    6  A    between atoms: O_13  and  N_33
    7  A    between atoms: C_14  and  C_19
    8  A    between atoms: C_14  and  C_21
    9  A    between atoms: C_14  and  N_31
   10  A    between atoms: C_16  and  C_21
   11  A    between atoms: C_19  and  C_23
                            x       y       z     vdW  Elec       q    Type
                         _______ _______ _______ _____ _____    ______ ____

>  <TORSDO>
F 11

$$$$
=
 OpenBabel11062415393D

 34 37  0  0  1  0  0  0  0  0999 V2000
  183.1370  176.8720  138.4820 C   0  0  0  0  0  0  0  0  0  0  0  0
  184.6380  177.1020  135.9930 O   0  0  0  0  0  0  0  0  0  0  0  0
  185.1400  177.5450  137.0600 C   0  0  0  0  0  0  0  0  0  0  0  0
  182.4850  176.4140  137.5080 O   0  0  0  0  0  0  0  0  0  0  0  0
  184.4240  177.4700  138.2970 N   0  0  0  0  0  2  0  0  0  0  0  0
  186.4520  178.1070  137.0380 N   0  0  0  0  0  2  0  0  0  0  0  0
  182.5680  176.7880  139.8550 C   0  0  0  0  0  2  0  0  0  0  0  0
  182.6630  178.9920  142.6750 C   0  0  1  0  0  3  0  0  0  0  0  0
  183.4000  178.0240  141.8160 C   0  0  2  0  0  3  0  0  0  0  0  0
  184.8400  178.4920  141.7390 C   0  0  0  0  0  2  0  0  0  0  0  0
  185.5050  178.4800  143.1300 C   0  0  2  0  0  3  0  0  0  0  0  0
  184.5610  178.6880  144.3350 C   0  0  1  0  0  0  0  0  0  0  0  0
  181.3020  178.8170  142.4050 O   0  0  0  0  0  0  0  0  0  0  0  0
  185.3400  179.8620  143.7680 C   0  0  0  0  0  2  0  0  0  0  0  0
  183.0300  178.7380  144.1250 C   0  0  0  0  0  2  0  0  0  0  0  0
  182.6430  178.1430  140.5380 C   0  0  2  0  0  3  0  0  0  0  0  0
  181.2580  178.5730  141.0150 C   0  0  0  0  0  2  0  0  0  0  0  0
  185.0650  178.1290  145.6780 C   0  0  2  0  0  3  0  0  0  0  0  0
  184.1790  178.4160  146.7260 O   0  0  0  0  0  1  0  0  0  0  0  0
  186.4660  178.6440  146.0230 C   0  0  1  0  0  3  0  0  0  0  0  0
  186.4770  179.1760  147.3140 O   0  0  0  0  0  1  0  0  0  0  0  0
  187.4910  177.5240  145.9500 C   0  0  0  0  0  1  0  0  0  0  0  0
  187.0030  178.6360  138.1580 O   0  0  0  0  0  0  0  0  0  0  0  0
  188.3360  178.4210  138.0260 N   0  0  0  0  0  2  0  0  0  0  0  0
  188.6730  177.3060  138.9010 C   0  0  1  0  0  3  0  0  0  0  0  0
  189.4890  176.2470  138.1440 C   0  0  1  0  0  3  0  0  0  0  0  0
  188.6610  175.5760  137.2400 O   0  0  0  0  0  1  0  0  0  0  0  0
  192.2470  176.1680  137.9070 S   0  0  0  0  0  0  0  0  0  0  0  0
  190.7470  176.3740  135.9600 C   0  0  0  0  0  2  0  0  0  0  0  0
  192.0830  175.6970  136.1610 C   0  0  0  0  0  2  0  0  0  0  0  0
  190.6560  176.8900  137.3850 C   0  0  1  0  0  3  0  0  0  0  0  0
  189.4360  177.8420  140.1080 C   0  0  0  0  0  2  0  0  0  0  0  0
  188.5260  177.9780  141.3180 C   0  0  0  0  0  2  0  0  0  0  0  0
  188.8810  176.9420  142.3670 C   0  0  0  0  0  1  0  0  0  0  0  0
  1  7  1  0  0  0  0
  2  3  2  0  0  0  0
  3  5  1  0  0  0  0
  4  1  2  0  0  0  0
  5  1  1  0  0  0  0
  6  3  1  0  0  0  0
  6 23  1  0  0  0  0
  8 15  1  1  0  0  0
  9 10  1  6  0  0  0
  9  8  1  0  0  0  0
 11 10  1  6  0  0  0
 11 14  1  0  0  0  0
 11 12  1  0  0  0  0
 12 18  1  1  0  0  0
 13  8  1  0  0  0  0
 14 12  1  0  0  0  0
 15 12  1  0  0  0  0
 16  7  1  1  0  0  0
 16 17  1  0  0  0  0
 16  9  1  0  0  0  0
 17 13  1  0  0  0  0
 18 20  1  0  0  0  0
 18 19  1  1  0  0  0
 20 22  1  1  0  0  0
 20 21  1  0  0  0  0
 24 23  1  0  0  0  0
 24 25  1  0  0  0  0
 25 32  1  1  0  0  0
 26 27  1  6  0  0  0
 26 25  1  0  0  0  0
 29 30  1  0  0  0  0
 29 31  1  0  0  0  0
 30 28  1  0  0  0  0
 31 28  1  0  0  0  0
 31 26  1  1  0  0  0
 32 33  1  0  0  0  0
 33 34  1  0  0  0  0
M  END
>  <MODEL>
8

>  <REMARK>
 VINA RESULT:      -6.6      3.750      7.620
  Name = 
  11 active torsions:
  status: ('A' for Active; 'I' for Inactive)
    1  A    between atoms: C_2  and  C_5
    2  A    between atoms: C_2  and  C_28
    3  A    between atoms: C_6  and  C_8
    4  A    between atoms: C_8  and  C_22
    5  A    between atoms: O_13  and  N_31
    6  A    between atoms: O_13  and  N_33
    7  A    between atoms: C_14  and  C_19
    8  A    between atoms: C_14  and  C_21
    9  A    between atoms: C_14  and  N_31
   10  A    between atoms: C_16  and  C_21
   11  A    between atoms: C_19  and  C_23
                            x       y       z     vdW  Elec       q    Type
                         _______ _______ _______ _____ _____    ______ ____

>  <TORSDO>
F 11

$$$$
=
 OpenBabel11062415393D

 34 37  0  0  1  0  0  0  0  0999 V2000
  188.4690  178.5730  137.8820 C   0  0  0  0  0  0  0  0  0  0  0  0
  186.8000  178.3180  135.5050 O   0  0  0  0  0  0  0  0  0  0  0  0
  186.3380  177.9700  136.6250 C   0  0  0  0  0  0  0  0  0  0  0  0
  189.0870  178.9310  136.8450 O   0  0  0  0  0  0  0  0  0  0  0  0
  187.1350  178.0600  137.8090 N   0  0  0  0  0  2  0  0  0  0  0  0
  184.9920  177.5040  136.7140 N   0  0  0  0  0  2  0  0  0  0  0  0
  189.1290  178.6900  139.2110 C   0  0  0  0  0  2  0  0  0  0  0  0
  189.7890  176.4050  141.8860 C   0  0  1  0  0  3  0  0  0  0  0  0
  189.1610  177.6850  141.4600 C   0  0  2  0  0  3  0  0  0  0  0  0
  187.9000  177.8670  142.2820 C   0  0  0  0  0  2  0  0  0  0  0  0
  188.2270  177.9880  143.7840 C   0  0  2  0  0  3  0  0  0  0  0  0
  189.5080  177.2660  144.2590 C   0  0  1  0  0  0  0  0  0  0  0  0
  190.6770  176.0310  140.8720 O   0  0  0  0  0  0  0  0  0  0  0  0
  188.1540  176.5960  144.4180 C   0  0  0  0  0  2  0  0  0  0  0  0
  190.4610  176.6140  143.2310 C   0  0  0  0  0  2  0  0  0  0  0  0
  188.9210  177.4170  140.0140 C   0  0  2  0  0  3  0  0  0  0  0  0
  190.0100  176.3990  139.6830 C   0  0  0  0  0  2  0  0  0  0  0  0
  190.1420  177.8200  145.5480 C   0  0  2  0  0  3  0  0  0  0  0  0
  191.5390  177.8850  145.4530 O   0  0  0  0  0  1  0  0  0  0  0  0
  189.7400  177.0040  146.7810 C   0  0  1  0  0  3  0  0  0  0  0  0
  190.8680  176.4170  147.3570 O   0  0  0  0  0  1  0  0  0  0  0  0
  189.0660  177.8850  147.8200 C   0  0  0  0  0  1  0  0  0  0  0  0
  184.4790  177.0770  137.8940 O   0  0  0  0  0  0  0  0  0  0  0  0
  183.2040  177.5410  137.9080 N   0  0  0  0  0  2  0  0  0  0  0  0
  183.1270  178.5330  138.9720 C   0  0  1  0  0  3  0  0  0  0  0  0
  181.7230  179.1520  139.0410 C   0  0  1  0  0  3  0  0  0  0  0  0
  181.3430  179.3030  140.3780 O   0  0  0  0  0  1  0  0  0  0  0  0
  180.8020  180.4150  136.7550 S   0  0  0  0  0  0  0  0  0  0  0  0
  180.6780  181.4490  138.9910 C   0  0  0  0  0  2  0  0  0  0  0  0
  179.7830  181.5180  137.7750 C   0  0  0  0  0  2  0  0  0  0  0  0
  181.6890  180.5190  138.3450 C   0  0  1  0  0  3  0  0  0  0  0  0
  183.5110  177.8690  140.2910 C   0  0  0  0  0  2  0  0  0  0  0  0
  184.5390  178.6970  141.0460 C   0  0  0  0  0  2  0  0  0  0  0  0
  184.2850  178.6230  142.5390 C   0  0  0  0  0  1  0  0  0  0  0  0
  1  7  1  0  0  0  0
  2  3  2  0  0  0  0
  3  6  1  0  0  0  0
  3  5  1  0  0  0  0
  4  1  2  0  0  0  0
  5  1  1  0  0  0  0
  6 23  1  0  0  0  0
  8 15  1  1  0  0  0
  9  8  1  0  0  0  0
  9 10  1  1  0  0  0
 11 10  1  6  0  0  0
 11 12  1  0  0  0  0
 11 14  1  0  0  0  0
 12 14  1  0  0  0  0
 12 18  1  1  0  0  0
 13  8  1  0  0  0  0
 15 12  1  0  0  0  0
 16  7  1  6  0  0  0
 16  9  1  0  0  0  0
 17 16  1  0  0  0  0
 17 13  1  0  0  0  0
 18 19  1  6  0  0  0
 18 20  1  0  0  0  0
 20 21  1  0  0  0  0
 20 22  1  1  0  0  0
 23 24  1  0  0  0  0
 24 25  1  0  0  0  0
 25 26  1  0  0  0  0
 25 32  1  1  0  0  0
 26 27  1  1  0  0  0
 28 30  1  0  0  0  0
 28 31  1  0  0  0  0
 30 29  1  0  0  0  0
 31 29  1  0  0  0  0
 31 26  1  1  0  0  0
 32 33  1  0  0  0  0
 33 34  1  0  0  0  0
M  END
>  <MODEL>
9

>  <REMARK>
 VINA RESULT:      -6.6      4.087      9.805
  Name = 
  11 active torsions:
  status: ('A' for Active; 'I' for Inactive)
    1  A    between atoms: C_2  and  C_5
    2  A    between atoms: C_2  and  C_28
    3  A    between atoms: C_6  and  C_8
    4  A    between atoms: C_8  and  C_22
    5  A    between atoms: O_13  and  N_31
    6  A    between atoms: O_13  and  N_33
    7  A    between atoms: C_14  and  C_19
    8  A    between atoms: C_14  and  C_21
    9  A    between atoms: C_14  and  N_31
   10  A    between atoms: C_16  and  C_21
   11  A    between atoms: C_19  and  C_23
                            x       y       z     vdW  Elec       q    Type
                         _______ _______ _______ _____ _____    ______ ____

>  <TORSDO>
F 11

$$$$
