=
 OpenBabel11062412443D

 32 35  0  0  1  0  0  0  0  0999 V2000
  190.7210  177.4190  144.1650 C   0  0  0  0  0  3  0  0  0  0  0  0
  185.2870  178.5040  141.9890 C   0  0  1  0  0  3  0  0  0  0  0  0
  188.3920  178.9870  142.2660 C   0  0  0  0  0  2  0  0  0  0  0  0
  186.5890  178.8930  147.8850 C   0  0  0  0  0  2  0  0  0  0  0  0
  190.0300  175.5850  142.6480 C   0  0  0  0  0  1  0  0  0  0  0  0
  187.5740  177.9060  142.9650 C   0  0  1  0  0  3  0  0  0  0  0  0
  190.4660  176.6100  145.4030 C   0  0  2  0  0  3  0  0  0  0  0  0
  185.3990  178.4450  147.0470 C   0  0  0  0  0  2  0  0  0  0  0  0
  189.3070  178.3570  141.2190 C   0  0  0  0  0  2  0  0  0  0  0  0
  187.7760  177.9790  147.7510 C   0  0  0  0  0  0  0  0  0  0  0  0
  187.1060  178.3520  144.3210 C   0  0  0  0  0  0  0  0  0  0  0  0
  190.5410  176.9700  142.9180 C   0  0  0  0  0  0  0  0  0  0  0  0
  189.9690  177.5540  146.4900 C   0  0  0  0  0  2  0  0  0  0  0  0
  191.5690  177.4380  140.7030 C   0  0  0  0  0  1  0  0  0  0  0  0
  188.4810  177.7830  146.4670 C   0  0  0  0  0  0  0  0  0  0  0  0
  185.0020  179.2240  143.3260 C   0  0  0  0  0  2  0  0  0  0  0  0
  186.4010  177.4440  142.0950 C   0  0  0  0  0  2  0  0  0  0  0  0
  190.6650  177.9660  141.8020 C   0  0  1  0  0  3  0  0  0  0  0  0
  185.6190  178.5300  144.5390 C   0  0  2  0  0  3  0  0  0  0  0  0
  188.2150  177.4120  148.7870 O   0  0  0  0  0  0  0  0  0  0  0  0
  187.8510  178.0650  145.3550 C   0  0  0  0  0  0  0  0  0  0  0  0
  185.2750  179.3180  145.8040 C   0  0  0  0  0  2  0  0  0  0  0  0
  184.0080  177.8970  141.4030 C   0  0  0  0  0  3  0  0  0  0  0  0
  182.6340  177.6380  139.2750 C   0  0  0  0  0  2  0  0  0  0  0  0
  184.0250  177.9180  139.8650 C   0  0  0  0  0  2  0  0  0  0  0  0
  181.7480  177.1570  140.2560 O   0  0  0  0  0  0  0  0  0  0  0  0
  182.7500  178.5950  141.9420 C   0  0  0  0  0  2  0  0  0  0  0  0
  181.5020  178.2380  141.1200 C   0  0  0  0  0  2  0  0  0  0  0  0
  191.7600  175.9670  145.8840 C   0  0  0  0  0  2  0  0  0  0  0  0
  191.7860  175.8470  147.3700 C   0  0  0  0  0  0  0  0  0  0  0  0
  192.4490  176.8010  148.1320 O   0  0  0  0  0  1  0  0  0  0  0  0
  191.2260  174.8720  147.9340 O   0  0  0  0  0  0  0  0  0  0  0  0
  1  7  1  0  0  0  0
  2 23  1  1  0  0  0
  2 17  1  0  0  0  0
  2 16  1  0  0  0  0
  3  6  1  0  0  0  0
  5 12  1  0  0  0  0
  6 17  1  6  0  0  0
  6 11  1  0  0  0  0
  7 29  1  1  0  0  0
  7 13  1  0  0  0  0
  8  4  1  0  0  0  0
  9 18  1  0  0  0  0
  9  3  1  0  0  0  0
 10  4  1  0  0  0  0
 10 20  2  0  0  0  0
 11 19  1  0  0  0  0
 11 21  2  0  0  0  0
 12  1  2  0  0  0  0
 15 13  1  0  0  0  0
 15 10  1  0  0  0  0
 18 14  1  6  0  0  0
 18 12  1  0  0  0  0
 19 16  1  6  0  0  0
 19 22  1  0  0  0  0
 21 15  2  0  0  0  0
 22  8  1  0  0  0  0
 23 27  1  0  0  0  0
 24 25  1  0  0  0  0
 24 26  1  0  0  0  0
 25 23  1  0  0  0  0
 26 28  1  0  0  0  0
 28 27  1  0  0  0  0
 29 30  1  0  0  0  0
 30 32  2  0  0  0  0
 30 31  1  0  0  0  0
M  END
>  <MODEL>
1

>  <REMARK>
 VINA RESULT:      -8.9      0.000      0.000
  Name = 
  3 active torsions:
  status: ('A' for Active; 'I' for Inactive)
    1  A    between atoms: C_2  and  C_15
    2  A    between atoms: C_7  and  C_14
    3  A    between atoms: C_14  and  C_22
                            x       y       z     vdW  Elec       q    Type
                         _______ _______ _______ _____ _____    ______ ____

>  <TORSDO>
F 3

$$$$
=
 OpenBabel11062412443D

 32 35  0  0  1  0  0  0  0  0999 V2000
  187.8110  178.2590  144.5800 C   0  0  0  0  0  3  0  0  0  0  0  0
  190.2390  177.4760  139.2010 C   0  0  1  0  0  3  0  0  0  0  0  0
  189.9990  178.8090  142.0510 C   0  0  0  0  0  2  0  0  0  0  0  0
  184.4850  179.1790  139.9790 C   0  0  0  0  0  2  0  0  0  0  0  0
  188.9890  176.0800  144.4870 C   0  0  0  0  0  1  0  0  0  0  0  0
  189.1320  177.6810  141.4980 C   0  0  1  0  0  3  0  0  0  0  0  0
  186.4530  177.6300  144.4660 C   0  0  2  0  0  3  0  0  0  0  0  0
  185.2500  178.2950  139.0020 C   0  0  0  0  0  2  0  0  0  0  0  0
  190.9010  178.2790  143.1630 C   0  0  0  0  0  2  0  0  0  0  0  0
  184.4340  178.6050  141.3690 C   0  0  0  0  0  0  0  0  0  0  0  0
  187.8860  178.2070  140.8450 C   0  0  0  0  0  0  0  0  0  0  0  0
  188.9610  177.5760  144.6030 C   0  0  0  0  0  0  0  0  0  0  0  0
  185.5600  178.5750  143.6720 C   0  0  0  0  0  2  0  0  0  0  0  0
  191.2060  177.9240  145.6140 C   0  0  0  0  0  1  0  0  0  0  0  0
  185.6500  178.3920  142.1810 C   0  0  0  0  0  0  0  0  0  0  0  0
  189.0560  178.3070  138.6550 C   0  0  0  0  0  2  0  0  0  0  0  0
  189.9270  176.7850  140.5440 C   0  0  0  0  0  2  0  0  0  0  0  0
  190.2340  178.3680  144.5360 C   0  0  1  0  0  3  0  0  0  0  0  0
  187.7290  178.0150  139.3520 C   0  0  2  0  0  3  0  0  0  0  0  0
  183.3060  178.3570  141.8720 O   0  0  0  0  0  0  0  0  0  0  0  0
  186.8050  178.3060  141.5710 C   0  0  0  0  0  0  0  0  0  0  0  0
  186.6310  178.8840  138.7350 C   0  0  0  0  0  2  0  0  0  0  0  0
  190.7300  176.4600  138.1640 C   0  0  0  0  0  3  0  0  0  0  0  0
  192.7590  175.6820  136.8380 C   0  0  0  0  0  2  0  0  0  0  0  0
  192.2650  176.4250  138.0890 C   0  0  0  0  0  2  0  0  0  0  0  0
  191.7140  174.9760  136.2150 O   0  0  0  0  0  0  0  0  0  0  0  0
  190.1240  176.7290  136.7780 C   0  0  0  0  0  2  0  0  0  0  0  0
  190.8560  175.9510  135.6740 C   0  0  0  0  0  2  0  0  0  0  0  0
  185.8430  177.4450  145.8490 C   0  0  0  0  0  2  0  0  0  0  0  0
  185.1530  178.6840  146.3070 C   0  0  0  0  0  0  0  0  0  0  0  0
  183.8480  178.9410  145.9060 O   0  0  0  0  0  0  0  0  0  0  0  0
  185.7580  179.5080  147.0410 O   0  0  0  0  0  1  0  0  0  0  0  0
  1 12  2  0  0  0  0
  2 23  1  6  0  0  0
  2 17  1  0  0  0  0
  3  9  1  0  0  0  0
  4 10  1  0  0  0  0
  5 12  1  0  0  0  0
  6 17  1  6  0  0  0
  6  3  1  0  0  0  0
  7  1  1  0  0  0  0
  7 29  1  1  0  0  0
  8  4  1  0  0  0  0
  9 18  1  0  0  0  0
 10 20  2  0  0  0  0
 10 15  1  0  0  0  0
 11  6  1  0  0  0  0
 11 21  2  0  0  0  0
 13  7  1  0  0  0  0
 15 13  1  0  0  0  0
 16  2  1  0  0  0  0
 18 12  1  0  0  0  0
 18 14  1  1  0  0  0
 19 16  1  6  0  0  0
 19 11  1  0  0  0  0
 21 15  2  0  0  0  0
 22  8  1  0  0  0  0
 22 19  1  0  0  0  0
 24 25  1  0  0  0  0
 25 23  1  0  0  0  0
 26 24  1  0  0  0  0
 27 23  1  0  0  0  0
 28 26  1  0  0  0  0
 28 27  1  0  0  0  0
 29 30  1  0  0  0  0
 30 32  1  0  0  0  0
 31 30  2  0  0  0  0
M  END
>  <MODEL>
2

>  <REMARK>
 VINA RESULT:      -7.9      3.099      6.595
  Name = 
  3 active torsions:
  status: ('A' for Active; 'I' for Inactive)
    1  A    between atoms: C_2  and  C_15
    2  A    between atoms: C_7  and  C_14
    3  A    between atoms: C_14  and  C_22
                            x       y       z     vdW  Elec       q    Type
                         _______ _______ _______ _____ _____    ______ ____

>  <TORSDO>
F 3

$$$$
=
 OpenBabel11062412443D

 32 35  0  0  1  0  0  0  0  0999 V2000
  183.5060  177.8300  136.6520 C   0  0  0  0  0  3  0  0  0  0  0  0
  185.2290  178.8790  142.2530 C   0  0  1  0  0  3  0  0  0  0  0  0
  183.8130  179.5980  139.5280 C   0  0  0  0  0  2  0  0  0  0  0  0
  189.1470  177.7790  137.7750 C   0  0  0  0  0  2  0  0  0  0  0  0
  182.2070  176.4170  138.2210 C   0  0  0  0  0  1  0  0  0  0  0  0
  184.5100  178.2850  139.8710 C   0  0  1  0  0  3  0  0  0  0  0  0
  184.3760  176.6900  136.2070 C   0  0  2  0  0  3  0  0  0  0  0  0
  189.0500  177.4510  139.2600 C   0  0  0  0  0  2  0  0  0  0  0  0
  182.3050  179.3790  139.4290 C   0  0  0  0  0  2  0  0  0  0  0  0
  188.1080  177.0680  136.9510 C   0  0  0  0  0  0  0  0  0  0  0  0
  185.9500  178.2910  139.4410 C   0  0  0  0  0  0  0  0  0  0  0  0
  182.5190  177.7220  137.5480 C   0  0  0  0  0  0  0  0  0  0  0  0
  185.7660  177.2430  135.9190 C   0  0  0  0  0  2  0  0  0  0  0  0
  180.3580  178.8850  137.9480 C   0  0  0  0  0  1  0  0  0  0  0  0
  186.6610  177.3080  137.1290 C   0  0  0  0  0  0  0  0  0  0  0  0
  186.6270  179.1700  141.6640 C   0  0  0  0  0  2  0  0  0  0  0  0
  184.3750  177.9560  141.3610 C   0  0  0  0  0  2  0  0  0  0  0  0
  181.8710  178.9920  138.0150 C   0  0  1  0  0  3  0  0  0  0  0  0
  187.0150  178.2410  140.5150 C   0  0  2  0  0  3  0  0  0  0  0  0
  188.4960  176.2910  136.0390 O   0  0  0  0  0  0  0  0  0  0  0  0
  186.2420  177.8140  138.2600 C   0  0  0  0  0  0  0  0  0  0  0  0
  188.4100  178.6130  140.0120 C   0  0  0  0  0  2  0  0  0  0  0  0
  185.3320  178.3210  143.6770 C   0  0  0  0  0  3  0  0  0  0  0  0
  185.3650  178.9530  146.1430 C   0  0  0  0  0  2  0  0  0  0  0  0
  184.9430  179.3750  144.7270 C   0  0  0  0  0  2  0  0  0  0  0  0
  185.7460  177.6000  146.1820 O   0  0  0  0  0  0  0  0  0  0  0  0
  186.7330  177.7570  143.9640 C   0  0  0  0  0  2  0  0  0  0  0  0
  186.9530  177.5150  145.4660 C   0  0  0  0  0  2  0  0  0  0  0  0
  183.8280  176.0830  134.9230 C   0  0  0  0  0  2  0  0  0  0  0  0
  183.5450  174.6290  135.0880 C   0  0  0  0  0  0  0  0  0  0  0  0
  184.5490  173.6960  134.8620 O   0  0  0  0  0  0  0  0  0  0  0  0
  182.3920  174.2440  135.4120 O   0  0  0  0  0  1  0  0  0  0  0  0
  1 12  2  0  0  0  0
  2 23  1  1  0  0  0
  4  8  1  0  0  0  0
  6  3  1  1  0  0  0
  6 17  1  0  0  0  0
  7 29  1  6  0  0  0
  7  1  1  0  0  0  0
  8 22  1  0  0  0  0
  9  3  1  0  0  0  0
 10 15  1  0  0  0  0
 10  4  1  0  0  0  0
 11  6  1  0  0  0  0
 11 19  1  0  0  0  0
 12 18  1  0  0  0  0
 12  5  1  0  0  0  0
 13  7  1  0  0  0  0
 13 15  1  0  0  0  0
 15 21  2  0  0  0  0
 16  2  1  0  0  0  0
 17  2  1  0  0  0  0
 18 14  1  1  0  0  0
 18  9  1  0  0  0  0
 19 22  1  6  0  0  0
 19 16  1  0  0  0  0
 20 10  2  0  0  0  0
 21 11  2  0  0  0  0
 23 27  1  0  0  0  0
 23 25  1  0  0  0  0
 24 26  1  0  0  0  0
 25 24  1  0  0  0  0
 27 28  1  0  0  0  0
 28 26  1  0  0  0  0
 29 30  1  0  0  0  0
 30 32  1  0  0  0  0
 31 30  2  0  0  0  0
M  END
>  <MODEL>
3

>  <REMARK>
 VINA RESULT:      -7.2      3.310      9.135
  Name = 
  3 active torsions:
  status: ('A' for Active; 'I' for Inactive)
    1  A    between atoms: C_2  and  C_15
    2  A    between atoms: C_7  and  C_14
    3  A    between atoms: C_14  and  C_22
                            x       y       z     vdW  Elec       q    Type
                         _______ _______ _______ _____ _____    ______ ____

>  <TORSDO>
F 3

$$$$
=
 OpenBabel11062412443D

 32 35  0  0  1  0  0  0  0  0999 V2000
  188.4860  178.1600  145.2370 C   0  0  0  0  0  3  0  0  0  0  0  0
  188.4200  177.8120  139.2940 C   0  0  1  0  0  3  0  0  0  0  0  0
  189.3950  178.9530  142.0690 C   0  0  0  0  0  2  0  0  0  0  0  0
  183.5190  179.2360  142.5460 C   0  0  0  0  0  2  0  0  0  0  0  0
  189.5340  176.0400  144.4970 C   0  0  0  0  0  1  0  0  0  0  0  0
  188.3860  177.8290  141.8520 C   0  0  1  0  0  3  0  0  0  0  0  0
  187.2130  177.4870  145.6600 C   0  0  2  0  0  3  0  0  0  0  0  0
  183.8080  178.4460  141.2750 C   0  0  0  0  0  2  0  0  0  0  0  0
  190.6870  178.3900  142.6560 C   0  0  0  0  0  2  0  0  0  0  0  0
  184.0650  178.5750  143.7810 C   0  0  0  0  0  0  0  0  0  0  0  0
  186.9750  178.3460  141.8250 C   0  0  0  0  0  0  0  0  0  0  0  0
  189.5440  177.5230  144.7230 C   0  0  0  0  0  0  0  0  0  0  0  0
  186.0600  178.4450  145.3870 C   0  0  0  0  0  2  0  0  0  0  0  0
  192.0030  177.8940  144.7180 C   0  0  0  0  0  1  0  0  0  0  0  0
  185.5120  178.3600  143.9870 C   0  0  0  0  0  0  0  0  0  0  0  0
  187.1100  178.6280  139.3600 C   0  0  0  0  0  2  0  0  0  0  0  0
  188.7100  177.0260  140.5890 C   0  0  0  0  0  2  0  0  0  0  0  0
  190.6630  178.3660  144.1850 C   0  0  1  0  0  3  0  0  0  0  0  0
  186.2040  178.2420  140.5270 C   0  0  2  0  0  3  0  0  0  0  0  0
  183.2580  178.2530  144.6930 O   0  0  0  0  0  0  0  0  0  0  0  0
  186.3020  178.3570  142.9440 C   0  0  0  0  0  0  0  0  0  0  0  0
  184.9400  179.1040  140.4950 C   0  0  0  0  0  2  0  0  0  0  0  0
  188.4340  176.8830  138.0760 C   0  0  0  0  0  3  0  0  0  0  0  0
  189.7100  176.2810  135.9560 C   0  0  0  0  0  2  0  0  0  0  0  0
  189.7890  176.9260  137.3490 C   0  0  0  0  0  2  0  0  0  0  0  0
  188.5110  175.5640  135.7900 O   0  0  0  0  0  0  0  0  0  0  0  0
  187.2860  177.2030  137.1060 C   0  0  0  0  0  2  0  0  0  0  0  0
  187.4860  176.5260  135.7410 C   0  0  0  0  0  2  0  0  0  0  0  0
  187.2470  177.1930  147.1530 C   0  0  0  0  0  2  0  0  0  0  0  0
  187.8110  178.3400  147.9200 C   0  0  0  0  0  0  0  0  0  0  0  0
  189.0870  178.2530  148.4600 O   0  0  0  0  0  1  0  0  0  0  0  0
  187.1240  179.3790  148.0960 O   0  0  0  0  0  0  0  0  0  0  0  0
  1  7  1  0  0  0  0
  2 23  1  6  0  0  0
  2 16  1  0  0  0  0
  2 17  1  0  0  0  0
  3  9  1  0  0  0  0
  4 10  1  0  0  0  0
  5 12  1  0  0  0  0
  6 17  1  6  0  0  0
  6  3  1  0  0  0  0
  7 29  1  1  0  0  0
  8  4  1  0  0  0  0
  9 18  1  0  0  0  0
 10 15  1  0  0  0  0
 10 20  2  0  0  0  0
 11  6  1  0  0  0  0
 11 21  2  0  0  0  0
 12  1  2  0  0  0  0
 13  7  1  0  0  0  0
 15 13  1  0  0  0  0
 18 14  1  6  0  0  0
 18 12  1  0  0  0  0
 19 16  1  6  0  0  0
 19 11  1  0  0  0  0
 21 15  2  0  0  0  0
 22 19  1  0  0  0  0
 22  8  1  0  0  0  0
 24 25  1  0  0  0  0
 25 23  1  0  0  0  0
 26 24  1  0  0  0  0
 27 23  1  0  0  0  0
 28 26  1  0  0  0  0
 28 27  1  0  0  0  0
 29 30  1  0  0  0  0
 30 32  2  0  0  0  0
 30 31  1  0  0  0  0
M  END
>  <MODEL>
4

>  <REMARK>
 VINA RESULT:      -7.0      2.765      4.851
  Name = 
  3 active torsions:
  status: ('A' for Active; 'I' for Inactive)
    1  A    between atoms: C_2  and  C_15
    2  A    between atoms: C_7  and  C_14
    3  A    between atoms: C_14  and  C_22
                            x       y       z     vdW  Elec       q    Type
                         _______ _______ _______ _____ _____    ______ ____

>  <TORSDO>
F 3

$$$$
=
 OpenBabel11062412443D

 32 35  0  0  1  0  0  0  0  0999 V2000
  189.1150  178.1260  138.9520 C   0  0  0  0  0  3  0  0  0  0  0  0
  183.4850  177.5350  137.1110 C   0  0  1  0  0  3  0  0  0  0  0  0
  186.3830  178.7780  137.0540 C   0  0  0  0  0  2  0  0  0  0  0  0
  184.9300  179.1460  142.7620 C   0  0  0  0  0  2  0  0  0  0  0  0
  188.8280  175.9650  137.7730 C   0  0  0  0  0  1  0  0  0  0  0  0
  185.8930  177.6570  137.9660 C   0  0  1  0  0  3  0  0  0  0  0  0
  189.1280  177.4850  140.3090 C   0  0  2  0  0  3  0  0  0  0  0  0
  183.8490  178.3020  142.0990 C   0  0  0  0  0  2  0  0  0  0  0  0
  187.3750  178.2250  136.0330 C   0  0  0  0  0  2  0  0  0  0  0  0
  186.2980  178.5300  142.6590 C   0  0  0  0  0  0  0  0  0  0  0  0
  185.3940  178.1880  139.2800 C   0  0  0  0  0  0  0  0  0  0  0  0
  188.9930  177.4560  137.8010 C   0  0  0  0  0  0  0  0  0  0  0  0
  188.4650  178.4440  141.2900 C   0  0  0  0  0  2  0  0  0  0  0  0
  189.7670  177.8000  135.4630 C   0  0  0  0  0  1  0  0  0  0  0  0
  186.9670  178.3070  141.3600 C   0  0  0  0  0  0  0  0  0  0  0  0
  183.0950  178.3680  138.3530 C   0  0  0  0  0  2  0  0  0  0  0  0
  184.8300  176.8000  137.2710 C   0  0  0  0  0  2  0  0  0  0  0  0
  188.8140  178.2650  136.5490 C   0  0  1  0  0  3  0  0  0  0  0  0
  183.9210  178.0400  139.5950 C   0  0  2  0  0  3  0  0  0  0  0  0
  186.9110  178.2540  143.7240 O   0  0  0  0  0  0  0  0  0  0  0  0
  186.2350  178.2530  140.2770 C   0  0  0  0  0  0  0  0  0  0  0  0
  183.4530  178.9140  140.7600 C   0  0  0  0  0  2  0  0  0  0  0  0
  182.3690  176.5570  136.7270 C   0  0  0  0  0  3  0  0  0  0  0  0
  180.0530  175.7150  137.3670 C   0  0  0  0  0  2  0  0  0  0  0  0
  181.0620  176.8700  137.4740 C   0  0  0  0  0  2  0  0  0  0  0  0
  180.4470  174.7790  136.3940 O   0  0  0  0  0  0  0  0  0  0  0  0
  182.7910  175.0970  136.9580 C   0  0  0  0  0  2  0  0  0  0  0  0
  181.5900  174.1410  136.9080 C   0  0  0  0  0  2  0  0  0  0  0  0
  190.5620  177.2520  140.7650 C   0  0  0  0  0  2  0  0  0  0  0  0
  190.6110  176.7730  142.1760 C   0  0  0  0  0  0  0  0  0  0  0  0
  191.1540  177.5830  143.1650 O   0  0  0  0  0  1  0  0  0  0  0  0
  190.1800  175.6280  142.4680 O   0  0  0  0  0  0  0  0  0  0  0  0
  1  7  1  0  0  0  0
  2 23  1  1  0  0  0
  2 17  1  0  0  0  0
  2 16  1  0  0  0  0
  5 12  1  0  0  0  0
  6  3  1  6  0  0  0
  6 11  1  0  0  0  0
  7 29  1  1  0  0  0
  7 13  1  0  0  0  0
  8  4  1  0  0  0  0
  9 18  1  0  0  0  0
  9  3  1  0  0  0  0
 10  4  1  0  0  0  0
 10 20  2  0  0  0  0
 11 19  1  0  0  0  0
 11 21  2  0  0  0  0
 12  1  2  0  0  0  0
 13 15  1  0  0  0  0
 15 10  1  0  0  0  0
 17  6  1  0  0  0  0
 18 14  1  6  0  0  0
 18 12  1  0  0  0  0
 19 16  1  6  0  0  0
 19 22  1  0  0  0  0
 21 15  2  0  0  0  0
 22  8  1  0  0  0  0
 23 27  1  0  0  0  0
 23 25  1  0  0  0  0
 24 25  1  0  0  0  0
 26 28  1  0  0  0  0
 26 24  1  0  0  0  0
 28 27  1  0  0  0  0
 29 30  1  0  0  0  0
 30 32  2  0  0  0  0
 30 31  1  0  0  0  0
M  END
>  <MODEL>
5

>  <REMARK>
 VINA RESULT:      -6.8      3.237      5.301
  Name = 
  3 active torsions:
  status: ('A' for Active; 'I' for Inactive)
    1  A    between atoms: C_2  and  C_15
    2  A    between atoms: C_7  and  C_14
    3  A    between atoms: C_14  and  C_22
                            x       y       z     vdW  Elec       q    Type
                         _______ _______ _______ _____ _____    ______ ____

>  <TORSDO>
F 3

$$$$
=
 OpenBabel11062412443D

 32 35  0  0  1  0  0  0  0  0999 V2000
  188.3640  178.2210  139.6270 C   0  0  0  0  0  3  0  0  0  0  0  0
  182.4150  178.0470  139.4740 C   0  0  1  0  0  3  0  0  0  0  0  0
  185.2520  179.1780  138.6840 C   0  0  0  0  0  2  0  0  0  0  0  0
  185.5340  178.9770  144.5760 C   0  0  0  0  0  2  0  0  0  0  0  0
  187.6030  176.2130  138.3880 C   0  0  0  0  0  1  0  0  0  0  0  0
  184.9700  177.9840  139.5910 C   0  0  1  0  0  3  0  0  0  0  0  0
  188.7240  177.4360  140.8540 C   0  0  2  0  0  3  0  0  0  0  0  0
  184.2530  178.2510  144.1840 C   0  0  0  0  0  2  0  0  0  0  0  0
  185.8680  178.7030  137.3700 C   0  0  0  0  0  2  0  0  0  0  0  0
  186.7690  178.3250  144.0180 C   0  0  0  0  0  0  0  0  0  0  0  0
  184.9080  178.3870  141.0370 C   0  0  0  0  0  0  0  0  0  0  0  0
  187.8700  177.6850  138.5050 C   0  0  0  0  0  0  0  0  0  0  0  0
  188.4380  178.3060  142.0710 C   0  0  0  0  0  2  0  0  0  0  0  0
  187.9590  178.2520  136.0850 C   0  0  0  0  0  1  0  0  0  0  0  0
  187.0190  178.2190  142.5660 C   0  0  0  0  0  0  0  0  0  0  0  0
  182.4580  178.7530  140.8470 C   0  0  0  0  0  2  0  0  0  0  0  0
  183.6970  177.2480  139.1630 C   0  0  0  0  0  2  0  0  0  0  0  0
  187.3940  178.6310  137.4420 C   0  0  1  0  0  3  0  0  0  0  0  0
  183.5820  178.2610  141.7560 C   0  0  2  0  0  3  0  0  0  0  0  0
  187.6430  177.9120  144.8250 O   0  0  0  0  0  0  0  0  0  0  0  0
  186.0040  178.3110  141.7450 C   0  0  0  0  0  0  0  0  0  0  0  0
  183.5310  179.0200  143.0830 C   0  0  0  0  0  2  0  0  0  0  0  0
  181.1730  177.1590  139.3450 C   0  0  0  0  0  3  0  0  0  0  0  0
  179.1380  176.2660  140.5880 C   0  0  0  0  0  2  0  0  0  0  0  0
  180.2020  177.3730  140.5180 C   0  0  0  0  0  2  0  0  0  0  0  0
  179.1320  175.4870  139.4170 O   0  0  0  0  0  0  0  0  0  0  0  0
  181.5480  175.6740  139.2140 C   0  0  0  0  0  2  0  0  0  0  0  0
  180.3340  174.7580  139.4290 C   0  0  0  0  0  2  0  0  0  0  0  0
  190.2090  177.1000  140.8450 C   0  0  0  0  0  2  0  0  0  0  0  0
  190.6650  176.6220  142.1820 C   0  0  0  0  0  0  0  0  0  0  0  0
  190.1180  175.4690  142.7300 O   0  0  0  0  0  0  0  0  0  0  0  0
  191.5300  177.2730  142.8220 O   0  0  0  0  0  1  0  0  0  0  0  0
  1  7  1  0  0  0  0
  2 23  1  1  0  0  0
  2 16  1  0  0  0  0
  5 12  1  0  0  0  0
  6  3  1  6  0  0  0
  6 11  1  0  0  0  0
  7 29  1  6  0  0  0
  7 13  1  0  0  0  0
  8  4  1  0  0  0  0
  9 18  1  0  0  0  0
  9  3  1  0  0  0  0
 10  4  1  0  0  0  0
 10 20  2  0  0  0  0
 11 21  2  0  0  0  0
 11 19  1  0  0  0  0
 12  1  2  0  0  0  0
 13 15  1  0  0  0  0
 15 10  1  0  0  0  0
 17  2  1  0  0  0  0
 17  6  1  0  0  0  0
 18 14  1  6  0  0  0
 18 12  1  0  0  0  0
 19 16  1  6  0  0  0
 19 22  1  0  0  0  0
 21 15  2  0  0  0  0
 22  8  1  0  0  0  0
 23 25  1  0  0  0  0
 25 24  1  0  0  0  0
 26 28  1  0  0  0  0
 26 24  1  0  0  0  0
 27 23  1  0  0  0  0
 27 28  1  0  0  0  0
 29 30  1  0  0  0  0
 30 31  2  0  0  0  0
 30 32  1  0  0  0  0
M  END
>  <MODEL>
6

>  <REMARK>
 VINA RESULT:      -6.7      2.648      4.476
  Name = 
  3 active torsions:
  status: ('A' for Active; 'I' for Inactive)
    1  A    between atoms: C_2  and  C_15
    2  A    between atoms: C_7  and  C_14
    3  A    between atoms: C_14  and  C_22
                            x       y       z     vdW  Elec       q    Type
                         _______ _______ _______ _____ _____    ______ ____

>  <TORSDO>
F 3

$$$$
=
 OpenBabel11062412443D

 32 35  0  0  1  0  0  0  0  0999 V2000
  188.0710  178.0160  144.3080 C   0  0  0  0  0  3  0  0  0  0  0  0
  187.7350  177.9870  138.3640 C   0  0  1  0  0  3  0  0  0  0  0  0
  188.8710  178.9440  141.1470 C   0  0  0  0  0  2  0  0  0  0  0  0
  183.0360  179.4060  141.9020 C   0  0  0  0  0  2  0  0  0  0  0  0
  189.0070  175.9020  143.4130 C   0  0  0  0  0  1  0  0  0  0  0  0
  187.8120  177.8690  140.9180 C   0  0  1  0  0  3  0  0  0  0  0  0
  186.7930  177.3660  144.7520 C   0  0  2  0  0  3  0  0  0  0  0  0
  183.2390  178.6750  140.5810 C   0  0  0  0  0  2  0  0  0  0  0  0
  190.1650  178.3060  141.6450 C   0  0  0  0  0  2  0  0  0  0  0  0
  183.6090  178.6610  143.0760 C   0  0  0  0  0  0  0  0  0  0  0  0
  186.4220  178.4350  140.9820 C   0  0  0  0  0  0  0  0  0  0  0  0
  189.0820  177.3700  143.7150 C   0  0  0  0  0  0  0  0  0  0  0  0
  185.6660  178.3770  144.5820 C   0  0  0  0  0  2  0  0  0  0  0  0
  191.5500  177.6550  143.6180 C   0  0  0  0  0  1  0  0  0  0  0  0
  185.0550  178.3850  143.2060 C   0  0  0  0  0  0  0  0  0  0  0  0
  186.4600  178.8430  138.5310 C   0  0  0  0  0  2  0  0  0  0  0  0
  188.0520  177.1230  139.6020 C   0  0  0  0  0  2  0  0  0  0  0  0
  190.2060  178.2020  143.1710 C   0  0  1  0  0  3  0  0  0  0  0  0
  185.5920  178.4270  139.7160 C   0  0  2  0  0  3  0  0  0  0  0  0
  182.8310  178.3190  144.0060 O   0  0  0  0  0  0  0  0  0  0  0  0
  185.7990  178.4100  142.1290 C   0  0  0  0  0  0  0  0  0  0  0  0
  184.3610  179.3330  139.7860 C   0  0  0  0  0  2  0  0  0  0  0  0
  187.6620  177.1240  137.1000 C   0  0  0  0  0  3  0  0  0  0  0  0
  186.0750  175.9460  135.4950 C   0  0  0  0  0  2  0  0  0  0  0  0
  186.2320  177.0620  136.5390 C   0  0  0  0  0  2  0  0  0  0  0  0
  187.3250  175.4370  135.0970 O   0  0  0  0  0  0  0  0  0  0  0  0
  188.2120  175.7100  137.3460 C   0  0  0  0  0  2  0  0  0  0  0  0
  187.8350  174.7460  136.2110 C   0  0  0  0  0  2  0  0  0  0  0  0
  186.8800  176.9910  146.2250 C   0  0  0  0  0  2  0  0  0  0  0  0
  187.3080  178.1520  147.0560 C   0  0  0  0  0  0  0  0  0  0  0  0
  188.6370  178.2770  147.4420 O   0  0  0  0  0  1  0  0  0  0  0  0
  186.4640  179.0090  147.4250 O   0  0  0  0  0  0  0  0  0  0  0  0
  1  7  1  0  0  0  0
  2 23  1  6  0  0  0
  2 16  1  0  0  0  0
  2 17  1  0  0  0  0
  3  9  1  0  0  0  0
  4 10  1  0  0  0  0
  5 12  1  0  0  0  0
  6 17  1  6  0  0  0
  6 11  1  0  0  0  0
  6  3  1  0  0  0  0
  7 29  1  1  0  0  0
  8  4  1  0  0  0  0
  9 18  1  0  0  0  0
 10 15  1  0  0  0  0
 10 20  2  0  0  0  0
 11 21  2  0  0  0  0
 12  1  2  0  0  0  0
 13  7  1  0  0  0  0
 15 13  1  0  0  0  0
 18 14  1  6  0  0  0
 18 12  1  0  0  0  0
 19 16  1  6  0  0  0
 19 22  1  0  0  0  0
 19 11  1  0  0  0  0
 21 15  2  0  0  0  0
 22  8  1  0  0  0  0
 23 27  1  0  0  0  0
 24 25  1  0  0  0  0
 25 23  1  0  0  0  0
 26 24  1  0  0  0  0
 26 28  1  0  0  0  0
 28 27  1  0  0  0  0
 29 30  1  0  0  0  0
 30 32  2  0  0  0  0
 30 31  1  0  0  0  0
M  END
>  <MODEL>
7

>  <REMARK>
 VINA RESULT:      -6.6      2.894      4.999
  Name = 
  3 active torsions:
  status: ('A' for Active; 'I' for Inactive)
    1  A    between atoms: C_2  and  C_15
    2  A    between atoms: C_7  and  C_14
    3  A    between atoms: C_14  and  C_22
                            x       y       z     vdW  Elec       q    Type
                         _______ _______ _______ _____ _____    ______ ____

>  <TORSDO>
F 3

$$$$
=
 OpenBabel11062412443D

 32 35  0  0  1  0  0  0  0  0999 V2000
  188.6690  178.1050  142.4120 C   0  0  0  0  0  3  0  0  0  0  0  0
  191.6470  176.1810  137.6290 C   0  0  1  0  0  3  0  0  0  0  0  0
  191.2480  177.9380  140.2180 C   0  0  0  0  0  2  0  0  0  0  0  0
  186.2210  178.8340  137.2600 C   0  0  0  0  0  2  0  0  0  0  0  0
  189.4560  175.7830  142.7760 C   0  0  0  0  0  1  0  0  0  0  0  0
  190.2850  176.8870  139.6760 C   0  0  1  0  0  3  0  0  0  0  0  0
  187.2520  177.6800  142.1590 C   0  0  2  0  0  3  0  0  0  0  0  0
  186.9500  177.7110  136.5330 C   0  0  0  0  0  2  0  0  0  0  0  0
  191.8830  177.4470  141.5170 C   0  0  0  0  0  2  0  0  0  0  0  0
  185.8790  178.4850  138.6820 C   0  0  0  0  0  0  0  0  0  0  0  0
  189.2500  177.4950  138.7720 C   0  0  0  0  0  0  0  0  0  0  0  0
  189.6700  177.2660  142.7020 C   0  0  0  0  0  0  0  0  0  0  0  0
  186.6550  178.6230  141.1230 C   0  0  0  0  0  2  0  0  0  0  0  0
  191.7790  177.4130  144.0110 C   0  0  0  0  0  1  0  0  0  0  0  0
  186.9170  178.2120  139.6990 C   0  0  0  0  0  0  0  0  0  0  0  0
  190.7120  177.0930  136.8030 C   0  0  0  0  0  2  0  0  0  0  0  0
  191.0370  175.7500  138.9780 C   0  0  0  0  0  2  0  0  0  0  0  0
  191.0570  177.8360  142.7440 C   0  0  1  0  0  3  0  0  0  0  0  0
  189.2700  177.1120  137.3080 C   0  0  2  0  0  3  0  0  0  0  0  0
  184.6670  178.4890  139.0240 O   0  0  0  0  0  0  0  0  0  0  0  0
  188.1120  177.8630  139.2980 C   0  0  0  0  0  0  0  0  0  0  0  0
  188.4350  178.0370  136.4220 C   0  0  0  0  0  2  0  0  0  0  0  0
  192.0930  174.9620  136.8160 C   0  0  0  0  0  3  0  0  0  0  0  0
  191.4200  172.6240  136.0650 C   0  0  0  0  0  2  0  0  0  0  0  0
  190.9270  173.9900  136.5690 C   0  0  0  0  0  2  0  0  0  0  0  0
  192.7730  172.6750  135.6860 O   0  0  0  0  0  0  0  0  0  0  0  0
  193.2730  174.2370  137.4820 C   0  0  0  0  0  2  0  0  0  0  0  0
  193.5040  172.8450  136.8760 C   0  0  0  0  0  2  0  0  0  0  0  0
  186.4340  177.7950  143.4380 C   0  0  0  0  0  2  0  0  0  0  0  0
  185.1220  178.4550  143.1850 C   0  0  0  0  0  0  0  0  0  0  0  0
  184.8200  179.6600  143.8060 O   0  0  0  0  0  1  0  0  0  0  0  0
  184.2790  177.9120  142.4250 O   0  0  0  0  0  0  0  0  0  0  0  0
  1 12  2  0  0  0  0
  2 23  1  6  0  0  0
  2 17  1  0  0  0  0
  3  9  1  0  0  0  0
  4 10  1  0  0  0  0
  6 17  1  6  0  0  0
  6  3  1  0  0  0  0
  7  1  1  0  0  0  0
  7 29  1  1  0  0  0
  8  4  1  0  0  0  0
  9 18  1  0  0  0  0
 10 20  2  0  0  0  0
 10 15  1  0  0  0  0
 11 21  2  0  0  0  0
 11  6  1  0  0  0  0
 12 18  1  0  0  0  0
 12  5  1  0  0  0  0
 13  7  1  0  0  0  0
 15 13  1  0  0  0  0
 16 19  1  0  0  0  0
 16  2  1  0  0  0  0
 18 14  1  1  0  0  0
 19 22  1  6  0  0  0
 19 11  1  0  0  0  0
 21 15  2  0  0  0  0
 22  8  1  0  0  0  0
 23 27  1  0  0  0  0
 24 25  1  0  0  0  0
 25 23  1  0  0  0  0
 26 24  1  0  0  0  0
 26 28  1  0  0  0  0
 28 27  1  0  0  0  0
 30 29  1  0  0  0  0
 30 31  1  0  0  0  0
 32 30  2  0  0  0  0
M  END
>  <MODEL>
8

>  <REMARK>
 VINA RESULT:      -6.4      3.999      8.057
  Name = 
  3 active torsions:
  status: ('A' for Active; 'I' for Inactive)
    1  A    between atoms: C_2  and  C_15
    2  A    between atoms: C_7  and  C_14
    3  A    between atoms: C_14  and  C_22
                            x       y       z     vdW  Elec       q    Type
                         _______ _______ _______ _____ _____    ______ ____

>  <TORSDO>
F 3

$$$$
=
 OpenBabel11062412443D

 32 35  0  0  1  0  0  0  0  0999 V2000
  183.0650  177.5630  136.9510 C   0  0  0  0  0  3  0  0  0  0  0  0
  185.4600  179.3330  142.1060 C   0  0  1  0  0  3  0  0  0  0  0  0
  183.8060  179.7310  139.4490 C   0  0  0  0  0  2  0  0  0  0  0  0
  188.7770  177.2070  137.5130 C   0  0  0  0  0  2  0  0  0  0  0  0
  181.8520  176.5330  138.8510 C   0  0  0  0  0  1  0  0  0  0  0  0
  184.4450  178.4340  139.9370 C   0  0  1  0  0  3  0  0  0  0  0  0
  183.8000  176.2970  136.6190 C   0  0  2  0  0  3  0  0  0  0  0  0
  188.8220  177.1280  139.0340 C   0  0  0  0  0  2  0  0  0  0  0  0
  182.2850  179.6300  139.5360 C   0  0  0  0  0  2  0  0  0  0  0  0
  187.6080  176.4670  136.9240 C   0  0  0  0  0  0  0  0  0  0  0  0
  185.8260  178.2480  139.3740 C   0  0  0  0  0  0  0  0  0  0  0  0
  182.1770  177.6830  137.9440 C   0  0  0  0  0  0  0  0  0  0  0  0
  185.1850  176.6760  136.1100 C   0  0  0  0  0  2  0  0  0  0  0  0
  180.1580  179.0760  138.3530 C   0  0  0  0  0  1  0  0  0  0  0  0
  186.2090  176.8550  137.1990 C   0  0  0  0  0  0  0  0  0  0  0  0
  186.8020  179.4070  141.3430 C   0  0  0  0  0  2  0  0  0  0  0  0
  184.4520  178.3580  141.4670 C   0  0  0  0  0  2  0  0  0  0  0  0
  181.6720  179.0620  138.2540 C   0  0  1  0  0  3  0  0  0  0  0  0
  186.9960  178.2780  140.3330 C   0  0  2  0  0  3  0  0  0  0  0  0
  187.8400  175.5250  136.1210 O   0  0  0  0  0  0  0  0  0  0  0  0
  185.9530  177.5680  138.2660 C   0  0  0  0  0  0  0  0  0  0  0  0
  188.3500  178.4440  139.6410 C   0  0  0  0  0  2  0  0  0  0  0  0
  185.6800  179.0000  143.5850 C   0  0  0  0  0  3  0  0  0  0  0  0
  186.4300  177.1810  145.2010 C   0  0  0  0  0  2  0  0  0  0  0  0
  186.4950  177.7070  143.7590 C   0  0  0  0  0  2  0  0  0  0  0  0
  185.8850  178.1410  146.0730 O   0  0  0  0  0  0  0  0  0  0  0  0
  184.3500  178.9130  144.3500 C   0  0  0  0  0  2  0  0  0  0  0  0
  184.5260  178.2530  145.7270 C   0  0  0  0  0  2  0  0  0  0  0  0
  183.0740  175.5440  135.5130 C   0  0  0  0  0  2  0  0  0  0  0  0
  183.0280  174.0800  135.7930 C   0  0  0  0  0  0  0  0  0  0  0  0
  183.9560  173.2320  135.2040 O   0  0  0  0  0  0  0  0  0  0  0  0
  182.1360  173.6110  136.5470 O   0  0  0  0  0  1  0  0  0  0  0  0
  1 12  2  0  0  0  0
  2 23  1  1  0  0  0
  3  9  1  0  0  0  0
  4  8  1  0  0  0  0
  6  3  1  1  0  0  0
  6 17  1  0  0  0  0
  7 29  1  6  0  0  0
  7  1  1  0  0  0  0
  8 22  1  0  0  0  0
 10 15  1  0  0  0  0
 10  4  1  0  0  0  0
 11  6  1  0  0  0  0
 11 19  1  0  0  0  0
 12 18  1  0  0  0  0
 12  5  1  0  0  0  0
 13  7  1  0  0  0  0
 13 15  1  0  0  0  0
 15 21  2  0  0  0  0
 16  2  1  0  0  0  0
 17  2  1  0  0  0  0
 18 14  1  1  0  0  0
 18  9  1  0  0  0  0
 19 22  1  6  0  0  0
 19 16  1  0  0  0  0
 20 10  2  0  0  0  0
 21 11  2  0  0  0  0
 23 25  1  0  0  0  0
 23 27  1  0  0  0  0
 24 26  1  0  0  0  0
 25 24  1  0  0  0  0
 27 28  1  0  0  0  0
 28 26  1  0  0  0  0
 29 30  1  0  0  0  0
 30 32  1  0  0  0  0
 31 30  2  0  0  0  0
M  END
>  <MODEL>
9

>  <REMARK>
 VINA RESULT:      -6.3      3.350      9.083
  Name = 
  3 active torsions:
  status: ('A' for Active; 'I' for Inactive)
    1  A    between atoms: C_2  and  C_15
    2  A    between atoms: C_7  and  C_14
    3  A    between atoms: C_14  and  C_22
                            x       y       z     vdW  Elec       q    Type
                         _______ _______ _______ _____ _____    ______ ____

>  <TORSDO>
F 3

$$$$
