=
 OpenBabel11062417163D

 26 30  0  0  1  0  0  0  0  0999 V2000
  185.8840  178.4010  139.2330 C   0  0  1  0  0  0  0  0  0  0  0  0
  183.1200  178.2250  143.6700 O   0  0  0  0  0  0  0  0  0  0  0  0
  186.9230  178.3430  140.1620 O   0  0  0  0  0  1  0  0  0  0  0  0
  181.4530  179.7490  143.1630 O   0  0  0  0  0  1  0  0  0  0  0  0
  184.9250  179.4990  141.9490 O   0  0  0  0  0  0  0  0  0  0  0  0
  183.2940  178.2050  138.8760 C   0  0  0  0  0  2  0  0  0  0  0  0
  184.1860  178.5510  141.2310 C   0  0  1  0  0  3  0  0  0  0  0  0
  181.8740  177.9480  139.9990 S   0  0  0  0  0  0  0  0  0  0  0  0
  184.2330  180.5470  144.2570 O   0  0  0  0  0  0  0  0  0  0  0  0
  182.7160  178.8950  141.3000 C   0  0  1  0  0  3  0  0  0  0  0  0
  182.1590  178.6340  142.7070 C   0  0  1  0  0  3  0  0  0  0  0  0
  184.4990  178.5040  139.7490 C   0  0  1  0  0  0  0  0  0  0  0  0
  184.5120  179.2240  143.5780 P   0  0  1  0  0  0  0  0  0  0  0  0
  185.2060  179.6370  139.2920 O   0  0  0  0  0  0  0  0  0  0  0  0
  186.8670  177.8550  135.7920 C   0  0  0  0  0  0  0  0  0  0  0  0
  187.4250  178.1490  134.5940 F   0  0  0  0  0  0  0  0  0  0  0  0
  186.1660  177.9660  137.8310 C   0  0  0  0  0  0  0  0  0  0  0  0
  186.2950  176.7060  136.0660 O   0  0  0  0  0  0  0  0  0  0  0  0
  186.8300  178.7080  136.8740 C   0  0  0  0  0  3  0  0  0  0  0  0
  185.8570  176.7280  137.3020 C   0  0  0  0  0  3  0  0  0  0  0  0
  187.1090  177.8740  146.4060 C   0  0  0  0  0  3  0  0  0  0  0  0
  187.9470  177.1520  144.2520 C   0  0  0  0  0  3  0  0  0  0  0  0
  188.0740  177.2090  145.6420 C   0  0  0  0  0  3  0  0  0  0  0  0
  185.8800  178.4080  144.3870 C   0  0  0  0  0  0  0  0  0  0  0  0
  186.8530  177.7560  143.6230 C   0  0  0  0  0  3  0  0  0  0  0  0
  186.0160  178.4770  145.7780 C   0  0  0  0  0  3  0  0  0  0  0  0
  1 14  1  0  0  0  0
  1 12  1  0  0  0  0
  1  3  1  1  0  0  0
  5 13  1  0  0  0  0
  6  8  1  0  0  0  0
  7 10  1  0  0  0  0
  7  5  1  1  0  0  0
 10  8  1  6  0  0  0
 10 11  1  0  0  0  0
 11  4  1  1  0  0  0
 11  2  1  0  0  0  0
 12  6  1  6  0  0  0
 12  7  1  0  0  0  0
 13  2  1  0  0  0  0
 13  9  2  1  0  0  0
 13 24  1  0  0  0  0
 14 12  1  0  0  0  0
 15 18  1  0  0  0  0
 15 19  2  0  0  0  0
 16 15  1  0  0  0  0
 17  1  1  0  0  0  0
 18 20  1  0  0  0  0
 19 17  1  0  0  0  0
 20 17  2  0  0  0  0
 22 23  1  0  0  0  0
 23 21  2  0  0  0  0
 24 26  2  0  0  0  0
 25 22  2  0  0  0  0
 25 24  1  0  0  0  0
 26 21  1  0  0  0  0
M  END
>  <MODEL>
1

>  <REMARK>
 VINA RESULT:      -7.3      0.000      0.000
  Name = 
  2 active torsions:
  status: ('A' for Active; 'I' for Inactive)
    1  A    between atoms: C_2  and  C_8
    2  A    between atoms: C_13  and  P_23
                            x       y       z     vdW  Elec       q    Type
                         _______ _______ _______ _____ _____    ______ ____

>  <TORSDO>
F 2

$$$$
=
 OpenBabel11062417163D

 26 30  0  0  1  0  0  0  0  0999 V2000
  188.2610  178.0720  142.1440 C   0  0  1  0  0  0  0  0  0  0  0  0
  187.7420  176.7160  137.1190 O   0  0  0  0  0  0  0  0  0  0  0  0
  186.8850  178.2460  141.9880 O   0  0  0  0  0  1  0  0  0  0  0  0
  189.6340  177.7170  136.2380 O   0  0  0  0  0  1  0  0  0  0  0  0
  187.5990  178.6060  139.1810 O   0  0  0  0  0  0  0  0  0  0  0  0
  190.4580  177.1520  141.0490 C   0  0  0  0  0  2  0  0  0  0  0  0
  188.4240  177.5460  139.5760 C   0  0  1  0  0  3  0  0  0  0  0  0
  190.8480  176.3940  139.4320 S   0  0  0  0  0  0  0  0  0  0  0  0
  186.9630  179.2060  136.7030 O   0  0  0  0  0  0  0  0  0  0  0  0
  189.5950  177.4340  138.6280 C   0  0  1  0  0  3  0  0  0  0  0  0
  189.1430  176.9030  137.2600 C   0  0  1  0  0  3  0  0  0  0  0  0
  189.0530  177.7180  140.9430 C   0  0  1  0  0  0  0  0  0  0  0  0
  186.8990  178.0860  137.7180 P   0  0  1  0  0  0  0  0  0  0  0  0
  188.9880  179.0440  141.4250 O   0  0  0  0  0  0  0  0  0  0  0  0
  189.1300  177.1430  145.5330 C   0  0  0  0  0  0  0  0  0  0  0  0
  189.0130  176.4940  146.7160 F   0  0  0  0  0  0  0  0  0  0  0  0
  188.7930  177.8590  143.5240 C   0  0  0  0  0  0  0  0  0  0  0  0
  190.1010  177.9800  145.2550 O   0  0  0  0  0  0  0  0  0  0  0  0
  188.2590  177.0080  144.4720 C   0  0  0  0  0  3  0  0  0  0  0  0
  189.9380  178.4370  144.0360 C   0  0  0  0  0  3  0  0  0  0  0  0
  183.1510  177.9190  139.2950 C   0  0  0  0  0  3  0  0  0  0  0  0
  183.2830  176.2290  137.5650 C   0  0  0  0  0  3  0  0  0  0  0  0
  182.5560  176.8870  138.5610 C   0  0  0  0  0  3  0  0  0  0  0  0
  185.1950  177.6450  138.0230 C   0  0  0  0  0  0  0  0  0  0  0  0
  184.6040  176.6040  137.3000 C   0  0  0  0  0  3  0  0  0  0  0  0
  184.4710  178.2940  139.0290 C   0  0  0  0  0  3  0  0  0  0  0  0
  1  3  1  6  0  0  0
  1 17  1  0  0  0  0
  2 11  1  0  0  0  0
  2 13  1  0  0  0  0
  7  5  1  6  0  0  0
  7 12  1  0  0  0  0
  8  6  1  0  0  0  0
 10  8  1  1  0  0  0
 10  7  1  0  0  0  0
 11  4  1  6  0  0  0
 11 10  1  0  0  0  0
 12  6  1  1  0  0  0
 12 14  1  0  0  0  0
 12  1  1  0  0  0  0
 13  9  2  6  0  0  0
 13 24  1  0  0  0  0
 13  5  1  0  0  0  0
 14  1  1  0  0  0  0
 15 16  1  0  0  0  0
 17 20  2  0  0  0  0
 17 19  1  0  0  0  0
 18 15  1  0  0  0  0
 19 15  2  0  0  0  0
 20 18  1  0  0  0  0
 22 23  1  0  0  0  0
 23 21  2  0  0  0  0
 24 26  2  0  0  0  0
 25 22  2  0  0  0  0
 25 24  1  0  0  0  0
 26 21  1  0  0  0  0
M  END
>  <MODEL>
2

>  <REMARK>
 VINA RESULT:      -7.2      4.065      7.693
  Name = 
  2 active torsions:
  status: ('A' for Active; 'I' for Inactive)
    1  A    between atoms: C_2  and  C_8
    2  A    between atoms: C_13  and  P_23
                            x       y       z     vdW  Elec       q    Type
                         _______ _______ _______ _____ _____    ______ ____

>  <TORSDO>
F 2

$$$$
=
 OpenBabel11062417163D

 26 30  0  0  1  0  0  0  0  0999 V2000
  189.1660  177.1400  141.1040 C   0  0  1  0  0  0  0  0  0  0  0  0
  188.4820  178.6170  146.0750 O   0  0  0  0  0  0  0  0  0  0  0  0
  187.7730  177.2230  141.1410 O   0  0  0  0  0  1  0  0  0  0  0  0
  190.0770  177.2950  147.1070 O   0  0  0  0  0  1  0  0  0  0  0  0
  188.1690  176.7650  143.9970 O   0  0  0  0  0  0  0  0  0  0  0  0
  191.3940  177.6510  142.3860 C   0  0  0  0  0  2  0  0  0  0  0  0
  189.2060  177.6520  143.6790 C   0  0  1  0  0  3  0  0  0  0  0  0
  191.7790  178.3410  144.0350 S   0  0  0  0  0  0  0  0  0  0  0  0
  187.2270  176.3170  146.4080 O   0  0  0  0  0  0  0  0  0  0  0  0
  190.2930  177.5570  144.7230 C   0  0  1  0  0  3  0  0  0  0  0  0
  189.8320  178.1750  146.0520 C   0  0  1  0  0  3  0  0  0  0  0  0
  189.9050  177.3540  142.3690 C   0  0  1  0  0  0  0  0  0  0  0  0
  187.4560  177.4200  145.3980 P   0  0  1  0  0  0  0  0  0  0  0  0
  189.6390  176.0580  141.8770 O   0  0  0  0  0  0  0  0  0  0  0  0
  191.0610  176.8640  138.0320 C   0  0  0  0  0  0  0  0  0  0  0  0
  191.9540  176.3350  137.1620 F   0  0  0  0  0  0  0  0  0  0  0  0
  189.8430  177.2380  139.7750 C   0  0  0  0  0  0  0  0  0  0  0  0
  190.3270  177.9200  137.7700 O   0  0  0  0  0  0  0  0  0  0  0  0
  190.8010  176.3680  139.2920 C   0  0  0  0  0  3  0  0  0  0  0  0
  189.5640  178.1800  138.8050 C   0  0  0  0  0  3  0  0  0  0  0  0
  183.7310  179.0490  145.5950 C   0  0  0  0  0  3  0  0  0  0  0  0
  184.3260  178.8850  143.2530 C   0  0  0  0  0  3  0  0  0  0  0  0
  183.4100  179.2410  144.2470 C   0  0  0  0  0  3  0  0  0  0  0  0
  185.8940  178.1630  144.9530 C   0  0  0  0  0  0  0  0  0  0  0  0
  185.5650  178.3410  143.6050 C   0  0  0  0  0  3  0  0  0  0  0  0
  184.9700  178.5060  145.9470 C   0  0  0  0  0  3  0  0  0  0  0  0
  1  3  1  1  0  0  0
  1 14  1  0  0  0  0
  1 12  1  0  0  0  0
  5 13  1  0  0  0  0
  6  8  1  0  0  0  0
  7  5  1  1  0  0  0
  7 10  1  0  0  0  0
 10  8  1  6  0  0  0
 10 11  1  0  0  0  0
 11  2  1  0  0  0  0
 11  4  1  1  0  0  0
 12  6  1  6  0  0  0
 12  7  1  0  0  0  0
 13  2  1  0  0  0  0
 13  9  2  1  0  0  0
 14 12  1  0  0  0  0
 15 19  2  0  0  0  0
 16 15  1  0  0  0  0
 17  1  1  0  0  0  0
 18 15  1  0  0  0  0
 18 20  1  0  0  0  0
 19 17  1  0  0  0  0
 20 17  2  0  0  0  0
 21 26  1  0  0  0  0
 22 25  2  0  0  0  0
 22 23  1  0  0  0  0
 23 21  2  0  0  0  0
 24 13  1  0  0  0  0
 24 26  2  0  0  0  0
 25 24  1  0  0  0  0
M  END
>  <MODEL>
3

>  <REMARK>
 VINA RESULT:      -7.2      4.211      5.753
  Name = 
  2 active torsions:
  status: ('A' for Active; 'I' for Inactive)
    1  A    between atoms: C_2  and  C_8
    2  A    between atoms: C_13  and  P_23
                            x       y       z     vdW  Elec       q    Type
                         _______ _______ _______ _____ _____    ______ ____

>  <TORSDO>
F 2

$$$$
=
 OpenBabel11062417163D

 26 30  0  0  1  0  0  0  0  0999 V2000
  185.0080  178.7500  142.1970 C   0  0  1  0  0  0  0  0  0  0  0  0
  187.8110  176.9240  138.1760 O   0  0  0  0  0  0  0  0  0  0  0  0
  183.9970  178.6010  141.2470 O   0  0  0  0  0  1  0  0  0  0  0  0
  189.6990  178.2480  138.3720 O   0  0  0  0  0  1  0  0  0  0  0  0
  186.2060  178.8900  139.3610 O   0  0  0  0  0  0  0  0  0  0  0  0
  187.5170  178.2580  142.7750 C   0  0  0  0  0  2  0  0  0  0  0  0
  186.7560  178.0740  140.3570 C   0  0  1  0  0  3  0  0  0  0  0  0
  188.9000  177.4810  141.8650 S   0  0  0  0  0  0  0  0  0  0  0  0
  187.1220  179.1380  136.9110 O   0  0  0  0  0  0  0  0  0  0  0  0
  188.2630  178.1510  140.3020 C   0  0  1  0  0  3  0  0  0  0  0  0
  188.8030  177.4280  139.0590 C   0  0  1  0  0  3  0  0  0  0  0  0
  186.4020  178.4880  141.7710 C   0  0  1  0  0  0  0  0  0  0  0  0
  186.6070  178.1140  137.8980 P   0  0  1  0  0  0  0  0  0  0  0  0
  185.8870  179.7990  141.8560 O   0  0  0  0  0  0  0  0  0  0  0  0
  184.6250  178.6090  145.7940 C   0  0  0  0  0  0  0  0  0  0  0  0
  184.9780  178.3520  147.0760 F   0  0  0  0  0  0  0  0  0  0  0  0
  184.6220  178.7690  143.6410 C   0  0  0  0  0  0  0  0  0  0  0  0
  183.4820  179.1540  145.4500 O   0  0  0  0  0  0  0  0  0  0  0  0
  185.4100  178.3420  144.6930 C   0  0  0  0  0  3  0  0  0  0  0  0
  183.4400  179.2750  144.1440 C   0  0  0  0  0  3  0  0  0  0  0  0
  182.7350  177.0320  137.2590 C   0  0  0  0  0  3  0  0  0  0  0  0
  184.1150  175.6820  135.7960 C   0  0  0  0  0  3  0  0  0  0  0  0
  182.8530  176.0360  136.2840 C   0  0  0  0  0  3  0  0  0  0  0  0
  185.1400  177.3310  137.2440 C   0  0  0  0  0  0  0  0  0  0  0  0
  185.2580  176.3250  136.2800 C   0  0  0  0  0  3  0  0  0  0  0  0
  183.8780  177.6750  137.7420 C   0  0  0  0  0  3  0  0  0  0  0  0
  1  3  1  6  0  0  0
  1 17  1  0  0  0  0
  2 11  1  0  0  0  0
  7  5  1  6  0  0  0
  7 12  1  0  0  0  0
  8  6  1  0  0  0  0
 10  7  1  0  0  0  0
 10  8  1  1  0  0  0
 11  4  1  6  0  0  0
 11 10  1  0  0  0  0
 12 14  1  0  0  0  0
 12  1  1  0  0  0  0
 12  6  1  1  0  0  0
 13  9  2  6  0  0  0
 13  2  1  0  0  0  0
 13  5  1  0  0  0  0
 14  1  1  0  0  0  0
 15 16  1  0  0  0  0
 17 20  2  0  0  0  0
 17 19  1  0  0  0  0
 18 15  1  0  0  0  0
 19 15  2  0  0  0  0
 20 18  1  0  0  0  0
 21 26  1  0  0  0  0
 22 25  2  0  0  0  0
 22 23  1  0  0  0  0
 23 21  2  0  0  0  0
 24 26  2  0  0  0  0
 24 13  1  0  0  0  0
 25 24  1  0  0  0  0
M  END
>  <MODEL>
4

>  <REMARK>
 VINA RESULT:      -7.2      3.646      7.583
  Name = 
  2 active torsions:
  status: ('A' for Active; 'I' for Inactive)
    1  A    between atoms: C_2  and  C_8
    2  A    between atoms: C_13  and  P_23
                            x       y       z     vdW  Elec       q    Type
                         _______ _______ _______ _____ _____    ______ ____

>  <TORSDO>
F 2

$$$$
=
 OpenBabel11062417163D

 26 30  0  0  1  0  0  0  0  0999 V2000
  186.1740  177.7110  144.2750 C   0  0  1  0  0  0  0  0  0  0  0  0
  191.1480  177.4030  142.6890 O   0  0  0  0  0  0  0  0  0  0  0  0
  186.7740  177.2580  145.4510 O   0  0  0  0  0  1  0  0  0  0  0  0
  190.8370  176.5380  140.5640 O   0  0  0  0  0  1  0  0  0  0  0  0
  188.7850  176.2150  143.6110 O   0  0  0  0  0  0  0  0  0  0  0  0
  186.5880  178.6400  141.8590 C   0  0  0  0  0  2  0  0  0  0  0  0
  188.4950  177.4730  143.0690 C   0  0  1  0  0  3  0  0  0  0  0  0
  188.0870  178.9420  140.8550 S   0  0  0  0  0  0  0  0  0  0  0  0
  190.9490  174.8060  143.1240 O   0  0  0  0  0  0  0  0  0  0  0  0
  188.8980  177.5050  141.6140 C   0  0  1  0  0  3  0  0  0  0  0  0
  190.4270  177.5180  141.4700 C   0  0  1  0  0  3  0  0  0  0  0  0
  187.0220  177.8280  143.0660 C   0  0  1  0  0  0  0  0  0  0  0  0
  190.4870  176.1460  143.6510 P   0  0  1  0  0  0  0  0  0  0  0  0
  186.1790  176.7150  143.2760 O   0  0  0  0  0  0  0  0  0  0  0  0
  182.8970  179.2210  143.9770 C   0  0  0  0  0  0  0  0  0  0  0  0
  181.7450  179.5880  143.3680 F   0  0  0  0  0  0  0  0  0  0  0  0
  184.8590  178.4140  144.3800 C   0  0  0  0  0  0  0  0  0  0  0  0
  183.1630  179.4650  145.2390 O   0  0  0  0  0  0  0  0  0  0  0  0
  183.9310  178.5450  143.3640 C   0  0  0  0  0  3  0  0  0  0  0  0
  184.3490  178.9850  145.5290 C   0  0  0  0  0  3  0  0  0  0  0  0
  192.4890  175.7120  147.1680 C   0  0  0  0  0  3  0  0  0  0  0  0
  190.7420  177.3510  147.5280 C   0  0  0  0  0  3  0  0  0  0  0  0
  191.8140  176.5980  148.0160 C   0  0  0  0  0  3  0  0  0  0  0  0
  191.0280  176.3480  145.3410 C   0  0  0  0  0  0  0  0  0  0  0  0
  190.3450  177.2220  146.1930 C   0  0  0  0  0  3  0  0  0  0  0  0
  192.0930  175.5840  145.8340 C   0  0  0  0  0  3  0  0  0  0  0  0
  1 17  1  0  0  0  0
  1  3  1  1  0  0  0
  2 13  1  0  0  0  0
  5 13  1  0  0  0  0
  7  5  1  6  0  0  0
  8  6  1  0  0  0  0
 10  8  1  1  0  0  0
 10  7  1  0  0  0  0
 11  4  1  6  0  0  0
 11 10  1  0  0  0  0
 11  2  1  0  0  0  0
 12  6  1  6  0  0  0
 12  7  1  0  0  0  0
 12 14  1  0  0  0  0
 12  1  1  0  0  0  0
 13  9  2  6  0  0  0
 13 24  1  0  0  0  0
 14  1  1  0  0  0  0
 15 18  1  0  0  0  0
 16 15  1  0  0  0  0
 17 20  2  0  0  0  0
 18 20  1  0  0  0  0
 19 15  2  0  0  0  0
 19 17  1  0  0  0  0
 21 23  1  0  0  0  0
 22 23  2  0  0  0  0
 24 26  1  0  0  0  0
 24 25  2  0  0  0  0
 25 22  1  0  0  0  0
 26 21  2  0  0  0  0
M  END
>  <MODEL>
5

>  <REMARK>
 VINA RESULT:      -7.2      4.259      6.945
  Name = 
  2 active torsions:
  status: ('A' for Active; 'I' for Inactive)
    1  A    between atoms: C_2  and  C_8
    2  A    between atoms: C_13  and  P_23
                            x       y       z     vdW  Elec       q    Type
                         _______ _______ _______ _____ _____    ______ ____

>  <TORSDO>
F 2

$$$$
=
 OpenBabel11062417163D

 26 30  0  0  1  0  0  0  0  0999 V2000
  185.4130  179.0360  141.6250 C   0  0  1  0  0  0  0  0  0  0  0  0
  189.2640  176.5800  139.0770 O   0  0  0  0  0  0  0  0  0  0  0  0
  184.9710  179.1940  140.3100 O   0  0  0  0  0  1  0  0  0  0  0  0
  191.0860  177.3190  140.2980 O   0  0  0  0  0  1  0  0  0  0  0  0
  187.8070  178.8920  139.6890 O   0  0  0  0  0  0  0  0  0  0  0  0
  187.1490  177.8520  143.1910 C   0  0  0  0  0  2  0  0  0  0  0  0
  187.6070  177.9350  140.6920 C   0  0  1  0  0  3  0  0  0  0  0  0
  188.5690  176.7370  142.8970 S   0  0  0  0  0  0  0  0  0  0  0  0
  189.8050  178.9220  137.9830 O   0  0  0  0  0  0  0  0  0  0  0  0
  188.9300  177.5890  141.3350 C   0  0  1  0  0  3  0  0  0  0  0  0
  189.8060  176.7690  140.3760 C   0  0  1  0  0  3  0  0  0  0  0  0
  186.7350  178.4030  141.8390 C   0  0  1  0  0  0  0  0  0  0  0  0
  188.6570  178.0640  138.4670 P   0  0  1  0  0  0  0  0  0  0  0  0
  186.5680  179.8050  141.8770 O   0  0  0  0  0  0  0  0  0  0  0  0
  182.6350  178.9280  143.9430 C   0  0  0  0  0  0  0  0  0  0  0  0
  181.3920  178.6210  144.3860 F   0  0  0  0  0  0  0  0  0  0  0  0
  184.4050  179.1340  142.7240 C   0  0  0  0  0  0  0  0  0  0  0  0
  183.5270  179.5660  144.6630 O   0  0  0  0  0  0  0  0  0  0  0  0
  183.1260  178.6120  142.6940 C   0  0  0  0  0  3  0  0  0  0  0  0
  184.6250  179.7090  143.9600 C   0  0  0  0  0  3  0  0  0  0  0  0
  187.0880  177.6610  134.7330 C   0  0  0  0  0  3  0  0  0  0  0  0
  185.3190  177.1810  136.3170 C   0  0  0  0  0  3  0  0  0  0  0  0
  185.7590  177.3100  134.9960 C   0  0  0  0  0  3  0  0  0  0  0  0
  187.5390  177.7350  137.1140 C   0  0  0  0  0  0  0  0  0  0  0  0
  186.2070  177.3990  137.3750 C   0  0  0  0  0  3  0  0  0  0  0  0
  187.9750  177.8780  135.7910 C   0  0  0  0  0  3  0  0  0  0  0  0
  1  3  1  6  0  0  0
  1 12  1  0  0  0  0
  1 14  1  0  0  0  0
  1 17  1  0  0  0  0
  2 11  1  0  0  0  0
  7  5  1  6  0  0  0
  7 10  1  0  0  0  0
  7 12  1  0  0  0  0
  8  6  1  0  0  0  0
 10  8  1  1  0  0  0
 11  4  1  6  0  0  0
 11 10  1  0  0  0  0
 12 14  1  0  0  0  0
 12  6  1  1  0  0  0
 13  9  2  6  0  0  0
 13  2  1  0  0  0  0
 13  5  1  0  0  0  0
 15 16  1  0  0  0  0
 15 18  1  0  0  0  0
 17 20  2  0  0  0  0
 19 17  1  0  0  0  0
 19 15  2  0  0  0  0
 20 18  1  0  0  0  0
 21 23  2  0  0  0  0
 21 26  1  0  0  0  0
 22 25  2  0  0  0  0
 23 22  1  0  0  0  0
 24 25  1  0  0  0  0
 24 13  1  0  0  0  0
 26 24  2  0  0  0  0
M  END
>  <MODEL>
6

>  <REMARK>
 VINA RESULT:      -7.0      3.598      7.596
  Name = 
  2 active torsions:
  status: ('A' for Active; 'I' for Inactive)
    1  A    between atoms: C_2  and  C_8
    2  A    between atoms: C_13  and  P_23
                            x       y       z     vdW  Elec       q    Type
                         _______ _______ _______ _____ _____    ______ ____

>  <TORSDO>
F 2

$$$$
=
 OpenBabel11062417163D

 26 30  0  0  1  0  0  0  0  0999 V2000
  188.1430  177.8930  138.9660 C   0  0  1  0  0  0  0  0  0  0  0  0
  182.9230  177.5580  139.0050 O   0  0  0  0  0  0  0  0  0  0  0  0
  187.8750  178.4460  140.2200 O   0  0  0  0  0  1  0  0  0  0  0  0
  182.4680  178.1550  136.8160 O   0  0  0  0  0  1  0  0  0  0  0  0
  185.2890  179.0570  139.0120 O   0  0  0  0  0  0  0  0  0  0  0  0
  187.1350  176.6180  136.9100 C   0  0  0  0  0  2  0  0  0  0  0  0
  185.5550  177.7680  138.5350 C   0  0  1  0  0  3  0  0  0  0  0  0
  185.4520  176.0580  136.4650 S   0  0  0  0  0  0  0  0  0  0  0  0
  182.9230  180.1980  139.0930 O   0  0  0  0  0  0  0  0  0  0  0  0
  184.7370  177.5070  137.2920 C   0  0  1  0  0  3  0  0  0  0  0  0
  183.2500  177.3440  137.6400 C   0  0  1  0  0  3  0  0  0  0  0  0
  186.9900  177.5430  138.1040 C   0  0  1  0  0  0  0  0  0  0  0  0
  183.6850  178.9840  139.5790 P   0  0  1  0  0  0  0  0  0  0  0  0
  187.7120  178.7430  137.9250 O   0  0  0  0  0  0  0  0  0  0  0  0
  191.3860  176.7530  137.8320 C   0  0  0  0  0  0  0  0  0  0  0  0
  192.3970  176.5440  136.9560 F   0  0  0  0  0  0  0  0  0  0  0  0
  189.5040  177.3260  138.7210 C   0  0  0  0  0  0  0  0  0  0  0  0
  191.4370  176.4090  139.0970 O   0  0  0  0  0  0  0  0  0  0  0  0
  190.1840  177.3510  137.5190 C   0  0  0  0  0  3  0  0  0  0  0  0
  190.3110  176.7460  139.6800 C   0  0  0  0  0  3  0  0  0  0  0  0
  182.5280  179.0020  143.4820 C   0  0  0  0  0  3  0  0  0  0  0  0
  184.9490  179.0290  143.4460 C   0  0  0  0  0  3  0  0  0  0  0  0
  183.7500  179.0270  144.1630 C   0  0  0  0  0  3  0  0  0  0  0  0
  183.7090  178.9640  141.3660 C   0  0  0  0  0  0  0  0  0  0  0  0
  184.9290  179.0030  142.0470 C   0  0  0  0  0  3  0  0  0  0  0  0
  182.5080  178.9760  142.0850 C   0  0  0  0  0  3  0  0  0  0  0  0
  1  3  1  1  0  0  0
  2 13  1  0  0  0  0
  5 13  1  0  0  0  0
  7  5  1  6  0  0  0
  8  6  1  0  0  0  0
 10  8  1  1  0  0  0
 10 11  1  0  0  0  0
 10  7  1  0  0  0  0
 11  4  1  6  0  0  0
 11  2  1  0  0  0  0
 12  6  1  6  0  0  0
 12  7  1  0  0  0  0
 12  1  1  0  0  0  0
 13  9  2  6  0  0  0
 13 24  1  0  0  0  0
 14 12  1  0  0  0  0
 14  1  1  0  0  0  0
 15 18  1  0  0  0  0
 16 15  1  0  0  0  0
 17  1  1  0  0  0  0
 17 20  2  0  0  0  0
 18 20  1  0  0  0  0
 19 15  2  0  0  0  0
 19 17  1  0  0  0  0
 21 23  1  0  0  0  0
 22 23  2  0  0  0  0
 24 25  2  0  0  0  0
 24 26  1  0  0  0  0
 25 22  1  0  0  0  0
 26 21  2  0  0  0  0
M  END
>  <MODEL>
7

>  <REMARK>
 VINA RESULT:      -7.0      3.068      4.462
  Name = 
  2 active torsions:
  status: ('A' for Active; 'I' for Inactive)
    1  A    between atoms: C_2  and  C_8
    2  A    between atoms: C_13  and  P_23
                            x       y       z     vdW  Elec       q    Type
                         _______ _______ _______ _____ _____    ______ ____

>  <TORSDO>
F 2

$$$$
=
 OpenBabel11062417163D

 26 30  0  0  1  0  0  0  0  0999 V2000
  185.8350  178.6670  142.3340 C   0  0  1  0  0  0  0  0  0  0  0  0
  189.1680  176.4840  138.9450 O   0  0  0  0  0  0  0  0  0  0  0  0
  185.0570  178.7010  141.1750 O   0  0  0  0  0  1  0  0  0  0  0  0
  191.1420  177.4800  139.6290 O   0  0  0  0  0  1  0  0  0  0  0  0
  187.6560  178.6630  139.8470 O   0  0  0  0  0  0  0  0  0  0  0  0
  188.0380  177.7640  143.4280 C   0  0  0  0  0  2  0  0  0  0  0  0
  187.8310  177.7500  140.8950 C   0  0  1  0  0  3  0  0  0  0  0  0
  189.4560  176.7900  142.8090 S   0  0  0  0  0  0  0  0  0  0  0  0
  189.1360  178.8030  137.6810 O   0  0  0  0  0  0  0  0  0  0  0  0
  189.3050  177.5830  141.1820 C   0  0  1  0  0  3  0  0  0  0  0  0
  189.9970  176.8040  140.0530 C   0  0  1  0  0  3  0  0  0  0  0  0
  187.2320  178.1900  142.2150 C   0  0  1  0  0  0  0  0  0  0  0  0
  188.2570  177.8590  138.4710 P   0  0  1  0  0  0  0  0  0  0  0  0
  186.9190  179.5660  142.2550 O   0  0  0  0  0  0  0  0  0  0  0  0
  184.6130  178.5100  145.7380 C   0  0  0  0  0  0  0  0  0  0  0  0
  184.6100  178.1570  147.0460 F   0  0  0  0  0  0  0  0  0  0  0  0
  185.1360  178.7220  143.6540 C   0  0  0  0  0  0  0  0  0  0  0  0
  183.6980  179.2710  145.1870 O   0  0  0  0  0  0  0  0  0  0  0  0
  185.5700  178.1260  144.8220 C   0  0  0  0  0  3  0  0  0  0  0  0
  183.9810  179.4320  143.9160 C   0  0  0  0  0  3  0  0  0  0  0  0
  184.4940  177.3020  137.0230 C   0  0  0  0  0  3  0  0  0  0  0  0
  186.0030  176.0180  135.6290 C   0  0  0  0  0  3  0  0  0  0  0  0
  184.7070  176.4390  135.9430 C   0  0  0  0  0  3  0  0  0  0  0  0
  186.8770  177.3360  137.4650 C   0  0  0  0  0  0  0  0  0  0  0  0
  187.0870  176.4620  136.3940 C   0  0  0  0  0  3  0  0  0  0  0  0
  185.5780  177.7460  137.7860 C   0  0  0  0  0  3  0  0  0  0  0  0
  1  3  1  6  0  0  0
  1 17  1  0  0  0  0
  2 11  1  0  0  0  0
  7  5  1  6  0  0  0
  7 10  1  0  0  0  0
  7 12  1  0  0  0  0
  8  6  1  0  0  0  0
 10  8  1  1  0  0  0
 11  4  1  6  0  0  0
 11 10  1  0  0  0  0
 12 14  1  0  0  0  0
 12  1  1  0  0  0  0
 12  6  1  1  0  0  0
 13  9  2  6  0  0  0
 13  2  1  0  0  0  0
 13  5  1  0  0  0  0
 14  1  1  0  0  0  0
 15 16  1  0  0  0  0
 17 20  2  0  0  0  0
 17 19  1  0  0  0  0
 18 15  1  0  0  0  0
 19 15  2  0  0  0  0
 20 18  1  0  0  0  0
 21 26  1  0  0  0  0
 22 23  1  0  0  0  0
 22 25  2  0  0  0  0
 23 21  2  0  0  0  0
 24 26  2  0  0  0  0
 24 13  1  0  0  0  0
 25 24  1  0  0  0  0
M  END
>  <MODEL>
8

>  <REMARK>
 VINA RESULT:      -6.8      3.859      7.715
  Name = 
  2 active torsions:
  status: ('A' for Active; 'I' for Inactive)
    1  A    between atoms: C_2  and  C_8
    2  A    between atoms: C_13  and  P_23
                            x       y       z     vdW  Elec       q    Type
                         _______ _______ _______ _____ _____    ______ ____

>  <TORSDO>
F 2

$$$$
=
 OpenBabel11062417163D

 26 30  0  0  1  0  0  0  0  0999 V2000
  185.0090  178.5150  143.8200 C   0  0  1  0  0  0  0  0  0  0  0  0
  184.3280  177.6400  138.7090 O   0  0  0  0  0  0  0  0  0  0  0  0
  183.6380  178.2530  143.8010 O   0  0  0  0  0  1  0  0  0  0  0  0
  185.6960  179.2890  137.8350 O   0  0  0  0  0  1  0  0  0  0  0  0
  183.8600  179.1380  141.0290 O   0  0  0  0  0  0  0  0  0  0  0  0
  187.2320  178.4820  142.4320 C   0  0  0  0  0  2  0  0  0  0  0  0
  185.0140  178.3630  141.1980 C   0  0  1  0  0  3  0  0  0  0  0  0
  187.6380  178.0770  140.6960 S   0  0  0  0  0  0  0  0  0  0  0  0
  182.7730  179.7750  138.7230 O   0  0  0  0  0  0  0  0  0  0  0  0
  186.0380  178.7420  140.1540 C   0  0  1  0  0  3  0  0  0  0  0  0
  185.6090  178.2510  138.7640 C   0  0  1  0  0  3  0  0  0  0  0  0
  185.7200  178.5730  142.5220 C   0  0  1  0  0  0  0  0  0  0  0  0
  183.1830  178.5880  139.5660 P   0  0  1  0  0  0  0  0  0  0  0  0
  185.3080  179.7440  143.1940 O   0  0  0  0  0  0  0  0  0  0  0  0
  187.0710  177.6290  146.6610 C   0  0  0  0  0  0  0  0  0  0  0  0
  187.9740  176.9100  147.3690 F   0  0  0  0  0  0  0  0  0  0  0  0
  185.7450  178.3310  145.1080 C   0  0  0  0  0  0  0  0  0  0  0  0
  186.4840  178.7110  147.1150 O   0  0  0  0  0  0  0  0  0  0  0  0
  186.6550  177.3280  145.3810 C   0  0  0  0  0  3  0  0  0  0  0  0
  185.6700  179.1760  146.1980 C   0  0  0  0  0  3  0  0  0  0  0  0
  179.6040  177.3220  141.0340 C   0  0  0  0  0  3  0  0  0  0  0  0
  180.5930  175.4630  139.8380 C   0  0  0  0  0  3  0  0  0  0  0  0
  179.5460  175.9950  140.5970 C   0  0  0  0  0  3  0  0  0  0  0  0
  181.7480  177.5900  139.9370 C   0  0  0  0  0  0  0  0  0  0  0  0
  181.6960  176.2580  139.5140 C   0  0  0  0  0  3  0  0  0  0  0  0
  180.7060  178.1170  140.7090 C   0  0  0  0  0  3  0  0  0  0  0  0
  1  3  1  6  0  0  0
  1 17  1  0  0  0  0
  2 11  1  0  0  0  0
  2 13  1  0  0  0  0
  7  5  1  1  0  0  0
  7 12  1  0  0  0  0
  8  6  1  0  0  0  0
 10  8  1  1  0  0  0
 10  7  1  0  0  0  0
 11  4  1  6  0  0  0
 11 10  1  0  0  0  0
 12  6  1  1  0  0  0
 12 14  1  0  0  0  0
 12  1  1  0  0  0  0
 13  9  2  6  0  0  0
 13 24  1  0  0  0  0
 13  5  1  0  0  0  0
 14  1  1  0  0  0  0
 15 18  1  0  0  0  0
 15 16  1  0  0  0  0
 17 19  1  0  0  0  0
 17 20  2  0  0  0  0
 19 15  2  0  0  0  0
 20 18  1  0  0  0  0
 22 23  1  0  0  0  0
 23 21  2  0  0  0  0
 24 26  2  0  0  0  0
 25 22  2  0  0  0  0
 25 24  1  0  0  0  0
 26 21  1  0  0  0  0
M  END
>  <MODEL>
9

>  <REMARK>
 VINA RESULT:      -6.7      3.529      7.127
  Name = 
  2 active torsions:
  status: ('A' for Active; 'I' for Inactive)
    1  A    between atoms: C_2  and  C_8
    2  A    between atoms: C_13  and  P_23
                            x       y       z     vdW  Elec       q    Type
                         _______ _______ _______ _____ _____    ______ ____

>  <TORSDO>
F 2

$$$$
