=
 OpenBabel11062416013D

 36 38  0  0  1  0  0  0  0  0999 V2000
  193.1820  177.3710  140.1590 O   0  0  0  0  0  0  0  0  0  0  0  0
  190.5970  175.9510  140.1210 O   0  0  0  0  0  0  0  0  0  0  0  0
  191.0720  176.6390  138.9960 C   0  0  1  0  0  3  0  0  0  0  0  0
  191.4880  177.2810  141.9280 C   0  0  2  0  0  3  0  0  0  0  0  0
  192.4660  178.1350  141.1260 C   0  0  0  0  0  2  0  0  0  0  0  0
  190.2650  176.9330  141.0650 C   0  0  2  0  0  3  0  0  0  0  0  0
  192.5700  176.7660  139.0570 C   0  0  0  0  0  0  0  0  0  0  0  0
  193.2940  176.3060  138.1380 O   0  0  0  0  0  0  0  0  0  0  0  0
  191.0970  178.0080  143.0530 O   0  0  0  0  0  1  0  0  0  0  0  0
  190.4990  176.1000  137.6630 C   0  0  1  0  0  0  0  0  0  0  0  0
  189.3800  176.7230  136.8780 C   0  0  2  0  0  3  0  0  0  0  0  0
  190.7370  177.0160  136.6150 O   0  0  0  0  0  0  0  0  0  0  0  0
  188.6520  177.8600  137.5580 C   0  0  0  0  0  0  0  0  0  0  0  0
  188.9120  179.1290  137.2670 C   0  0  0  0  0  2  0  0  0  0  0  0
  187.6050  177.5930  138.4480 O   0  0  0  0  0  0  0  0  0  0  0  0
  186.2950  178.1270  138.2840 C   0  0  0  0  0  2  0  0  0  0  0  0
  185.8300  178.6800  139.5060 O   0  0  0  0  0  0  0  0  0  0  0  0
  184.5570  179.2370  139.6270 C   0  0  0  0  0  0  0  0  0  0  0  0
  183.6690  178.6720  140.3200 O   0  0  0  0  0  1  0  0  0  0  0  0
  184.2680  180.4290  138.9800 O   0  0  0  0  0  0  0  0  0  0  0  0
  190.9410  174.6750  137.2870 C   0  0  1  0  0  3  0  0  0  0  0  0
  189.9420  173.7600  137.6260 O   0  0  0  0  0  1  0  0  0  0  0  0
  192.6320  174.8190  135.4530 O   0  0  0  0  0  1  0  0  0  0  0  0
  190.5080  174.0900  134.9990 O   0  0  0  0  0  0  0  0  0  0  0  0
  191.3430  174.4940  135.8520 C   0  0  0  0  0  0  0  0  0  0  0  0
  189.0850  176.4530  141.9110 C   0  0  0  0  0  2  0  0  0  0  0  0
  188.0300  177.4090  141.9040 O   0  0  0  0  0  0  0  0  0  0  0  0
  187.8330  177.5040  144.3040 C   0  0  0  0  0  3  0  0  0  0  0  0
  187.2700  177.7020  143.0400 C   0  0  0  0  0  0  0  0  0  0  0  0
  187.0970  177.7810  145.4610 C   0  0  0  0  0  0  0  0  0  0  0  0
  185.0350  178.5470  146.4910 O   0  0  0  0  0  1  0  0  0  0  0  0
  185.2200  178.4740  144.0920 C   0  0  0  0  0  3  0  0  0  0  0  0
  185.9570  178.1930  142.9400 C   0  0  0  0  0  3  0  0  0  0  0  0
  185.7840  178.2670  145.3540 C   0  0  0  0  0  0  0  0  0  0  0  0
  188.1860  177.3700  147.7820 N   0  0  0  0  0  0  0  0  0  0  0  0
  187.7000  177.5540  146.7470 C   0  0  0  0  0  0  0  0  0  0  0  0
  1  5  1  0  0  0  0
  2  6  1  0  0  0  0
  3  7  1  6  0  0  0
  3  2  1  0  0  0  0
  4  9  1  1  0  0  0
  5  4  1  0  0  0  0
  6 26  1  1  0  0  0
  6  4  1  0  0  0  0
  7  1  1  0  0  0  0
  8  7  2  0  0  0  0
 10 21  1  6  0  0  0
 10  3  1  0  0  0  0
 11 13  1  1  0  0  0
 11 10  1  0  0  0  0
 12 11  1  0  0  0  0
 12 10  1  0  0  0  0
 13 15  1  0  0  0  0
 14 13  2  0  0  0  0
 16 15  1  0  0  0  0
 16 17  1  0  0  0  0
 17 18  1  0  0  0  0
 18 19  1  0  0  0  0
 20 18  2  0  0  0  0
 21 22  1  6  0  0  0
 23 25  1  0  0  0  0
 24 25  2  0  0  0  0
 25 21  1  0  0  0  0
 27 26  1  0  0  0  0
 27 29  1  0  0  0  0
 28 30  1  0  0  0  0
 29 28  2  0  0  0  0
 30 36  1  0  0  0  0
 32 34  1  0  0  0  0
 33 29  1  0  0  0  0
 33 32  2  0  0  0  0
 34 30  2  0  0  0  0
 34 31  1  0  0  0  0
 36 35  3  0  0  0  0
M  END
>  <MODEL>
1

>  <REMARK>
 VINA RESULT:      -7.0      0.000      0.000
  Name = 
  12 active torsions:
  status: ('A' for Active; 'I' for Inactive)
    1  A    between atoms: C_3  and  C_9
    2  A    between atoms: C_3  and  C_13
    3  A    between atoms: C_4  and  O_35
    4  A    between atoms: C_7  and  O_30
    5  A    between atoms: C_10  and  O_12
    6  A    between atoms: C_10  and  C_24
    7  A    between atoms: C_11  and  C_28
    8  A    between atoms: O_12  and  C_36
    9  A    between atoms: C_13  and  C_25
   10  A    between atoms: C_20  and  C_23
   11  A    between atoms: C_23  and  O_30
   12  A    between atoms: O_35  and  C_36
                            x       y       z     vdW  Elec       q    Type
                         _______ _______ _______ _____ _____    ______ ____

>  <TORSDO>
F 12

$$$$
=
 OpenBabel11062416013D

 36 38  0  0  1  0  0  0  0  0999 V2000
  193.1170  176.9410  139.2900 O   0  0  0  0  0  0  0  0  0  0  0  0
  190.3920  175.9120  139.7600 O   0  0  0  0  0  0  0  0  0  0  0  0
  190.7370  176.5510  138.5620 C   0  0  1  0  0  3  0  0  0  0  0  0
  191.8000  177.0540  141.3550 C   0  0  2  0  0  3  0  0  0  0  0  0
  192.7200  177.7770  140.3750 C   0  0  0  0  0  2  0  0  0  0  0  0
  190.3960  176.9080  140.7470 C   0  0  2  0  0  3  0  0  0  0  0  0
  192.2210  176.4590  138.3310 C   0  0  0  0  0  0  0  0  0  0  0  0
  192.6790  175.9210  137.2900 O   0  0  0  0  0  0  0  0  0  0  0  0
  191.7450  177.8010  142.5320 O   0  0  0  0  0  1  0  0  0  0  0  0
  189.8450  176.1340  137.3680 C   0  0  1  0  0  0  0  0  0  0  0  0
  188.7150  176.9430  136.7980 C   0  0  2  0  0  3  0  0  0  0  0  0
  190.0280  177.0170  136.2810 O   0  0  0  0  0  0  0  0  0  0  0  0
  188.3200  178.1710  137.5870 C   0  0  0  0  0  0  0  0  0  0  0  0
  188.8880  179.3510  137.3700 C   0  0  0  0  0  2  0  0  0  0  0  0
  187.2660  178.1090  138.5040 O   0  0  0  0  0  0  0  0  0  0  0  0
  185.9050  178.3140  138.1350 C   0  0  0  0  0  2  0  0  0  0  0  0
  185.2950  179.2570  139.0030 O   0  0  0  0  0  0  0  0  0  0  0  0
  184.9490  178.9350  140.3150 C   0  0  0  0  0  0  0  0  0  0  0  0
  184.0610  178.0750  140.5570 O   0  0  0  0  0  0  0  0  0  0  0  0
  185.5950  179.5700  141.3670 O   0  0  0  0  0  1  0  0  0  0  0  0
  189.9730  174.6630  136.9360 C   0  0  1  0  0  3  0  0  0  0  0  0
  188.9710  173.9000  137.5390 O   0  0  0  0  0  1  0  0  0  0  0  0
  191.1650  174.5160  134.7450 O   0  0  0  0  0  0  0  0  0  0  0  0
  188.8960  174.2150  134.8370 O   0  0  0  0  0  1  0  0  0  0  0  0
  189.9740  174.4360  135.4520 C   0  0  0  0  0  0  0  0  0  0  0  0
  189.3440  176.5820  141.8080 C   0  0  0  0  0  2  0  0  0  0  0  0
  188.9400  177.7570  142.5030 O   0  0  0  0  0  0  0  0  0  0  0  0
  187.2290  178.0690  144.1710 C   0  0  0  0  0  3  0  0  0  0  0  0
  188.5490  177.7440  143.8450 C   0  0  0  0  0  0  0  0  0  0  0  0
  186.8060  178.0720  145.5040 C   0  0  0  0  0  0  0  0  0  0  0  0
  187.3130  177.7390  147.8560 O   0  0  0  0  0  1  0  0  0  0  0  0
  189.0310  177.4080  146.2030 C   0  0  0  0  0  3  0  0  0  0  0  0
  189.4490  177.4100  144.8710 C   0  0  0  0  0  3  0  0  0  0  0  0
  187.7120  177.7410  146.5250 C   0  0  0  0  0  0  0  0  0  0  0  0
  184.3490  178.7070  146.0510 N   0  0  0  0  0  0  0  0  0  0  0  0
  185.4450  178.4230  145.8080 C   0  0  0  0  0  0  0  0  0  0  0  0
  1  5  1  0  0  0  0
  2  6  1  0  0  0  0
  3  7  1  6  0  0  0
  3  2  1  0  0  0  0
  4  9  1  1  0  0  0
  5  4  1  0  0  0  0
  6  4  1  0  0  0  0
  6 26  1  1  0  0  0
  7  1  1  0  0  0  0
  8  7  2  0  0  0  0
 10 21  1  6  0  0  0
 10  3  1  0  0  0  0
 11 10  1  0  0  0  0
 11 13  1  1  0  0  0
 12 11  1  0  0  0  0
 12 10  1  0  0  0  0
 13 15  1  0  0  0  0
 14 13  2  0  0  0  0
 16 15  1  0  0  0  0
 16 17  1  0  0  0  0
 17 18  1  0  0  0  0
 18 19  2  0  0  0  0
 18 20  1  0  0  0  0
 21 22  1  1  0  0  0
 23 25  2  0  0  0  0
 24 25  1  0  0  0  0
 25 21  1  0  0  0  0
 26 27  1  0  0  0  0
 27 29  1  0  0  0  0
 28 30  1  0  0  0  0
 29 28  2  0  0  0  0
 29 33  1  0  0  0  0
 30 36  1  0  0  0  0
 30 34  2  0  0  0  0
 32 34  1  0  0  0  0
 33 32  2  0  0  0  0
 34 31  1  0  0  0  0
 36 35  3  0  0  0  0
M  END
>  <MODEL>
2

>  <REMARK>
 VINA RESULT:      -6.8      1.265      1.735
  Name = 
  12 active torsions:
  status: ('A' for Active; 'I' for Inactive)
    1  A    between atoms: C_3  and  C_9
    2  A    between atoms: C_3  and  C_13
    3  A    between atoms: C_4  and  O_35
    4  A    between atoms: C_7  and  O_30
    5  A    between atoms: C_10  and  O_12
    6  A    between atoms: C_10  and  C_24
    7  A    between atoms: C_11  and  C_28
    8  A    between atoms: O_12  and  C_36
    9  A    between atoms: C_13  and  C_25
   10  A    between atoms: C_20  and  C_23
   11  A    between atoms: C_23  and  O_30
   12  A    between atoms: O_35  and  C_36
                            x       y       z     vdW  Elec       q    Type
                         _______ _______ _______ _____ _____    ______ ____

>  <TORSDO>
F 12

$$$$
=
 OpenBabel11062416013D

 36 38  0  0  1  0  0  0  0  0999 V2000
  184.0710  176.9220  136.5150 O   0  0  0  0  0  0  0  0  0  0  0  0
  183.1320  177.8140  139.1650 O   0  0  0  0  0  0  0  0  0  0  0  0
  182.3960  178.0750  138.0020 C   0  0  1  0  0  3  0  0  0  0  0  0
  185.4000  177.8730  138.3410 C   0  0  2  0  0  3  0  0  0  0  0  0
  185.1040  177.8480  136.8450 C   0  0  0  0  0  2  0  0  0  0  0  0
  184.2800  178.6150  139.0870 C   0  0  2  0  0  3  0  0  0  0  0  0
  182.7450  177.0770  136.9310 C   0  0  0  0  0  0  0  0  0  0  0  0
  181.8590  176.3480  136.4150 O   0  0  0  0  0  0  0  0  0  0  0  0
  186.6220  178.5210  138.5330 O   0  0  0  0  0  1  0  0  0  0  0  0
  180.8840  178.2730  138.2660 C   0  0  1  0  0  0  0  0  0  0  0  0
  180.0070  179.2930  137.5960 C   0  0  2  0  0  3  0  0  0  0  0  0
  180.1350  177.9730  137.1060 O   0  0  0  0  0  0  0  0  0  0  0  0
  180.7200  180.3130  136.7390 C   0  0  0  0  0  0  0  0  0  0  0  0
  180.8470  180.1550  135.4260 C   0  0  0  0  0  2  0  0  0  0  0  0
  181.1800  181.5090  137.3020 O   0  0  0  0  0  0  0  0  0  0  0  0
  180.4180  182.2670  138.2360 C   0  0  0  0  0  2  0  0  0  0  0  0
  180.3050  183.6140  137.8040 O   0  0  0  0  0  0  0  0  0  0  0  0
  181.2850  184.2220  137.0200 C   0  0  0  0  0  0  0  0  0  0  0  0
  181.1170  184.3790  135.7820 O   0  0  0  0  0  0  0  0  0  0  0  0
  182.4590  184.6640  137.6150 O   0  0  0  0  0  1  0  0  0  0  0  0
  180.3330  177.5460  139.5040 C   0  0  1  0  0  3  0  0  0  0  0  0
  180.9190  176.2840  139.6170 O   0  0  0  0  0  1  0  0  0  0  0  0
  181.0280  179.5720  140.7920 O   0  0  0  0  0  0  0  0  0  0  0  0
  180.1350  177.7680  141.8870 O   0  0  0  0  0  1  0  0  0  0  0  0
  180.4750  178.2990  140.7960 C   0  0  0  0  0  0  0  0  0  0  0  0
  184.7080  179.0360  140.4930 C   0  0  0  0  0  2  0  0  0  0  0  0
  184.0880  178.2190  141.4810 O   0  0  0  0  0  0  0  0  0  0  0  0
  185.5680  178.0970  143.3790 C   0  0  0  0  0  3  0  0  0  0  0  0
  184.3070  178.3920  142.8510 C   0  0  0  0  0  0  0  0  0  0  0  0
  185.8190  178.2530  144.7460 C   0  0  0  0  0  0  0  0  0  0  0  0
  185.0270  178.8740  146.9570 O   0  0  0  0  0  1  0  0  0  0  0  0
  183.5400  179.0170  145.0700 C   0  0  0  0  0  3  0  0  0  0  0  0
  183.2930  178.8570  143.7040 C   0  0  0  0  0  3  0  0  0  0  0  0
  184.8000  178.7140  145.5950 C   0  0  0  0  0  0  0  0  0  0  0  0
  188.1700  177.6680  145.6780 N   0  0  0  0  0  0  0  0  0  0  0  0
  187.1220  177.9290  145.2620 C   0  0  0  0  0  0  0  0  0  0  0  0
  1  5  1  0  0  0  0
  1  7  1  0  0  0  0
  3  7  1  6  0  0  0
  3 10  1  0  0  0  0
  3  2  1  0  0  0  0
  4  9  1  6  0  0  0
  4  6  1  0  0  0  0
  5  4  1  0  0  0  0
  6  2  1  0  0  0  0
  6 26  1  1  0  0  0
  8  7  2  0  0  0  0
 10 21  1  1  0  0  0
 11 13  1  6  0  0  0
 11 10  1  0  0  0  0
 12 11  1  0  0  0  0
 12 10  1  0  0  0  0
 13 15  1  0  0  0  0
 14 13  2  0  0  0  0
 15 16  1  0  0  0  0
 17 16  1  0  0  0  0
 18 20  1  0  0  0  0
 18 17  1  0  0  0  0
 19 18  2  0  0  0  0
 21 22  1  1  0  0  0
 21 25  1  0  0  0  0
 23 25  2  0  0  0  0
 25 24  1  0  0  0  0
 26 27  1  0  0  0  0
 27 29  1  0  0  0  0
 28 30  1  0  0  0  0
 29 28  2  0  0  0  0
 29 33  1  0  0  0  0
 30 36  1  0  0  0  0
 30 34  2  0  0  0  0
 32 34  1  0  0  0  0
 33 32  2  0  0  0  0
 34 31  1  0  0  0  0
 36 35  3  0  0  0  0
M  END
>  <MODEL>
3

>  <REMARK>
 VINA RESULT:      -6.4      4.556      7.863
  Name = 
  12 active torsions:
  status: ('A' for Active; 'I' for Inactive)
    1  A    between atoms: C_3  and  C_9
    2  A    between atoms: C_3  and  C_13
    3  A    between atoms: C_4  and  O_35
    4  A    between atoms: C_7  and  O_30
    5  A    between atoms: C_10  and  O_12
    6  A    between atoms: C_10  and  C_24
    7  A    between atoms: C_11  and  C_28
    8  A    between atoms: O_12  and  C_36
    9  A    between atoms: C_13  and  C_25
   10  A    between atoms: C_20  and  C_23
   11  A    between atoms: C_23  and  O_30
   12  A    between atoms: O_35  and  C_36
                            x       y       z     vdW  Elec       q    Type
                         _______ _______ _______ _____ _____    ______ ____

>  <TORSDO>
F 12

$$$$
=
 OpenBabel11062416013D

 36 38  0  0  1  0  0  0  0  0999 V2000
  192.6160  175.5780  136.2900 O   0  0  0  0  0  0  0  0  0  0  0  0
  190.6280  175.7230  138.4650 O   0  0  0  0  0  0  0  0  0  0  0  0
  190.2900  176.0350  137.1420 C   0  0  1  0  0  3  0  0  0  0  0  0
  192.9350  176.4280  138.5660 C   0  0  2  0  0  3  0  0  0  0  0  0
  193.1830  176.6250  137.0740 C   0  0  0  0  0  2  0  0  0  0  0  0
  191.4720  176.7540  138.9040 C   0  0  2  0  0  3  0  0  0  0  0  0
  191.2380  175.3600  136.1890 C   0  0  0  0  0  0  0  0  0  0  0  0
  190.8130  174.5680  135.3090 O   0  0  0  0  0  0  0  0  0  0  0  0
  193.7940  177.2770  139.2660 O   0  0  0  0  0  1  0  0  0  0  0  0
  188.7840  175.8470  136.8350 C   0  0  1  0  0  0  0  0  0  0  0  0
  187.7180  176.8880  137.0250 C   0  0  2  0  0  3  0  0  0  0  0  0
  188.3800  176.7060  135.7900 O   0  0  0  0  0  0  0  0  0  0  0  0
  188.1460  178.1450  137.7460 C   0  0  0  0  0  0  0  0  0  0  0  0
  188.9910  179.0100  137.1980 C   0  0  0  0  0  2  0  0  0  0  0  0
  187.5770  178.4780  138.9800 O   0  0  0  0  0  0  0  0  0  0  0  0
  186.2060  178.2450  139.2880 C   0  0  0  0  0  2  0  0  0  0  0  0
  185.6990  179.2870  140.1070 O   0  0  0  0  0  0  0  0  0  0  0  0
  185.1150  179.0330  141.3480 C   0  0  0  0  0  0  0  0  0  0  0  0
  185.4020  179.7380  142.3530 O   0  0  0  0  0  1  0  0  0  0  0  0
  184.2050  177.9940  141.4760 O   0  0  0  0  0  0  0  0  0  0  0  0
  188.3430  174.3950  136.5840 C   0  0  1  0  0  3  0  0  0  0  0  0
  188.8680  173.5580  137.5700 O   0  0  0  0  0  1  0  0  0  0  0  0
  186.2370  174.3310  135.2390 O   0  0  0  0  0  0  0  0  0  0  0  0
  186.1680  173.9450  137.4960 O   0  0  0  0  0  1  0  0  0  0  0  0
  186.8580  174.1940  136.4730 C   0  0  0  0  0  0  0  0  0  0  0  0
  191.2660  176.9810  140.4020 C   0  0  0  0  0  2  0  0  0  0  0  0
  189.9100  176.7510  140.7710 O   0  0  0  0  0  0  0  0  0  0  0  0
  190.3820  176.8660  143.1320 C   0  0  0  0  0  3  0  0  0  0  0  0
  189.4540  176.8800  142.0860 C   0  0  0  0  0  0  0  0  0  0  0  0
  189.9580  176.9860  144.4600 C   0  0  0  0  0  0  0  0  0  0  0  0
  188.1480  177.2440  146.0580 O   0  0  0  0  0  1  0  0  0  0  0  0
  187.6600  177.1470  143.7030 C   0  0  0  0  0  3  0  0  0  0  0  0
  188.0880  177.0250  142.3800 C   0  0  0  0  0  3  0  0  0  0  0  0
  188.5910  177.1260  144.7460 C   0  0  0  0  0  0  0  0  0  0  0  0
  191.7230  176.9310  146.3630 N   0  0  0  0  0  0  0  0  0  0  0  0
  190.9360  176.9550  145.5140 C   0  0  0  0  0  0  0  0  0  0  0  0
  1  5  1  0  0  0  0
  2  6  1  0  0  0  0
  3  7  1  6  0  0  0
  3  2  1  0  0  0  0
  4  6  1  0  0  0  0
  4  9  1  1  0  0  0
  5  4  1  0  0  0  0
  6 26  1  1  0  0  0
  7  1  1  0  0  0  0
  8  7  2  0  0  0  0
 10 21  1  6  0  0  0
 10 11  1  0  0  0  0
 10  3  1  0  0  0  0
 11 13  1  1  0  0  0
 12 10  1  0  0  0  0
 12 11  1  0  0  0  0
 13 15  1  0  0  0  0
 14 13  2  0  0  0  0
 15 16  1  0  0  0  0
 16 17  1  0  0  0  0
 17 18  1  0  0  0  0
 18 20  2  0  0  0  0
 18 19  1  0  0  0  0
 21 22  1  1  0  0  0
 23 25  2  0  0  0  0
 25 21  1  0  0  0  0
 25 24  1  0  0  0  0
 26 27  1  0  0  0  0
 27 29  1  0  0  0  0
 28 30  1  0  0  0  0
 29 33  1  0  0  0  0
 29 28  2  0  0  0  0
 30 34  2  0  0  0  0
 30 36  1  0  0  0  0
 32 34  1  0  0  0  0
 33 32  2  0  0  0  0
 34 31  1  0  0  0  0
 36 35  3  0  0  0  0
M  END
>  <MODEL>
4

>  <REMARK>
 VINA RESULT:      -6.3      1.995      3.123
  Name = 
  12 active torsions:
  status: ('A' for Active; 'I' for Inactive)
    1  A    between atoms: C_3  and  C_9
    2  A    between atoms: C_3  and  C_13
    3  A    between atoms: C_4  and  O_35
    4  A    between atoms: C_7  and  O_30
    5  A    between atoms: C_10  and  O_12
    6  A    between atoms: C_10  and  C_24
    7  A    between atoms: C_11  and  C_28
    8  A    between atoms: O_12  and  C_36
    9  A    between atoms: C_13  and  C_25
   10  A    between atoms: C_20  and  C_23
   11  A    between atoms: C_23  and  O_30
   12  A    between atoms: O_35  and  C_36
                            x       y       z     vdW  Elec       q    Type
                         _______ _______ _______ _____ _____    ______ ____

>  <TORSDO>
F 12

$$$$
=
 OpenBabel11062416013D

 36 38  0  0  1  0  0  0  0  0999 V2000
  187.3620  176.3080  144.2270 O   0  0  0  0  0  0  0  0  0  0  0  0
  187.3480  177.6000  141.5750 O   0  0  0  0  0  0  0  0  0  0  0  0
  188.5390  177.3940  142.2830 C   0  0  1  0  0  3  0  0  0  0  0  0
  185.7640  177.9530  143.3630 C   0  0  2  0  0  3  0  0  0  0  0  0
  186.6290  177.4920  144.5330 C   0  0  0  0  0  2  0  0  0  0  0  0
  186.6460  178.5900  142.2770 C   0  0  2  0  0  3  0  0  0  0  0  0
  188.3740  176.2640  143.2630 C   0  0  0  0  0  0  0  0  0  0  0  0
  189.1200  175.2530  143.2120 O   0  0  0  0  0  0  0  0  0  0  0  0
  184.8400  178.8820  143.8450 O   0  0  0  0  0  1  0  0  0  0  0  0
  189.7860  177.3110  141.3700 C   0  0  1  0  0  0  0  0  0  0  0  0
  191.2100  177.4780  141.8200 C   0  0  2  0  0  3  0  0  0  0  0  0
  190.5930  176.2100  141.7300 O   0  0  0  0  0  0  0  0  0  0  0  0
  191.4010  177.9430  143.2450 C   0  0  0  0  0  0  0  0  0  0  0  0
  191.2360  179.2150  143.5920 C   0  0  0  0  0  2  0  0  0  0  0  0
  191.6600  177.0160  144.2600 O   0  0  0  0  0  0  0  0  0  0  0  0
  191.0010  177.0460  145.5230 C   0  0  0  0  0  2  0  0  0  0  0  0
  191.9510  177.1310  146.5740 O   0  0  0  0  0  0  0  0  0  0  0  0
  192.4280  175.9970  147.2320 C   0  0  0  0  0  0  0  0  0  0  0  0
  192.4310  174.8740  146.6620 O   0  0  0  0  0  0  0  0  0  0  0  0
  192.9090  176.1110  148.5290 O   0  0  0  0  0  1  0  0  0  0  0  0
  189.4970  177.3370  139.8600 C   0  0  1  0  0  3  0  0  0  0  0  0
  189.4190  178.6560  139.4100 O   0  0  0  0  0  1  0  0  0  0  0  0
  191.6930  177.1170  138.6880 O   0  0  0  0  0  1  0  0  0  0  0  0
  190.1550  175.4240  138.5660 O   0  0  0  0  0  0  0  0  0  0  0  0
  190.4650  176.5590  139.0150 C   0  0  0  0  0  0  0  0  0  0  0  0
  185.8280  179.4310  141.2970 C   0  0  0  0  0  2  0  0  0  0  0  0
  184.9800  178.6080  140.5020 O   0  0  0  0  0  0  0  0  0  0  0  0
  182.6280  178.4830  141.0080 C   0  0  0  0  0  3  0  0  0  0  0  0
  183.6620  178.9560  140.1950 C   0  0  0  0  0  0  0  0  0  0  0  0
  181.2960  178.8070  140.7240 C   0  0  0  0  0  0  0  0  0  0  0  0
  179.6800  179.9500  139.3170 O   0  0  0  0  0  1  0  0  0  0  0  0
  182.0270  180.0980  138.8060 C   0  0  0  0  0  3  0  0  0  0  0  0
  183.3540  179.7700  139.0920 C   0  0  0  0  0  3  0  0  0  0  0  0
  180.9960  179.6180  139.6180 C   0  0  0  0  0  0  0  0  0  0  0  0
  179.4130  177.8830  142.2540 N   0  0  0  0  0  0  0  0  0  0  0  0
  180.2540  178.2950  141.5720 C   0  0  0  0  0  0  0  0  0  0  0  0
  1  5  1  0  0  0  0
  2  6  1  0  0  0  0
  3  2  1  6  0  0  0
  3  7  1  0  0  0  0
  4  9  1  1  0  0  0
  4  5  1  0  0  0  0
  6 26  1  6  0  0  0
  6  4  1  0  0  0  0
  7  1  1  0  0  0  0
  8  7  2  0  0  0  0
 10 21  1  6  0  0  0
 10 12  1  0  0  0  0
 10 11  1  0  0  0  0
 10  3  1  0  0  0  0
 11 13  1  1  0  0  0
 12 11  1  0  0  0  0
 13 14  2  0  0  0  0
 13 15  1  0  0  0  0
 15 16  1  0  0  0  0
 16 17  1  0  0  0  0
 17 18  1  0  0  0  0
 18 20  1  0  0  0  0
 19 18  2  0  0  0  0
 21 22  1  6  0  0  0
 23 25  1  0  0  0  0
 24 25  2  0  0  0  0
 25 21  1  0  0  0  0
 27 26  1  0  0  0  0
 29 27  1  0  0  0  0
 29 28  2  0  0  0  0
 30 28  1  0  0  0  0
 30 36  1  0  0  0  0
 31 34  1  0  0  0  0
 32 33  2  0  0  0  0
 32 34  1  0  0  0  0
 33 29  1  0  0  0  0
 34 30  2  0  0  0  0
 36 35  3  0  0  0  0
M  END
>  <MODEL>
5

>  <REMARK>
 VINA RESULT:      -6.1      3.194      6.989
  Name = 
  12 active torsions:
  status: ('A' for Active; 'I' for Inactive)
    1  A    between atoms: C_3  and  C_9
    2  A    between atoms: C_3  and  C_13
    3  A    between atoms: C_4  and  O_35
    4  A    between atoms: C_7  and  O_30
    5  A    between atoms: C_10  and  O_12
    6  A    between atoms: C_10  and  C_24
    7  A    between atoms: C_11  and  C_28
    8  A    between atoms: O_12  and  C_36
    9  A    between atoms: C_13  and  C_25
   10  A    between atoms: C_20  and  C_23
   11  A    between atoms: C_23  and  O_30
   12  A    between atoms: O_35  and  C_36
                            x       y       z     vdW  Elec       q    Type
                         _______ _______ _______ _____ _____    ______ ____

>  <TORSDO>
F 12

$$$$
=
 OpenBabel11062416013D

 36 38  0  0  1  0  0  0  0  0999 V2000
  187.1810  178.1300  135.3840 O   0  0  0  0  0  0  0  0  0  0  0  0
  187.7330  176.2080  137.5530 O   0  0  0  0  0  0  0  0  0  0  0  0
  186.4570  176.3270  136.9880 C   0  0  1  0  0  3  0  0  0  0  0  0
  188.5640  178.4680  137.3780 C   0  0  2  0  0  3  0  0  0  0  0  0
  187.5040  179.0330  136.4390 C   0  0  0  0  0  2  0  0  0  0  0  0
  187.9470  177.3890  138.2800 C   0  0  2  0  0  3  0  0  0  0  0  0
  186.5540  176.8980  135.5990 C   0  0  0  0  0  0  0  0  0  0  0  0
  186.1030  176.2670  134.6090 O   0  0  0  0  0  0  0  0  0  0  0  0
  189.0650  179.5180  138.1510 O   0  0  0  0  0  1  0  0  0  0  0  0
  185.6060  175.0410  137.1250 C   0  0  1  0  0  0  0  0  0  0  0  0
  184.1320  174.9980  137.4160 C   0  0  2  0  0  3  0  0  0  0  0  0
  184.6400  174.9740  136.0980 O   0  0  0  0  0  0  0  0  0  0  0  0
  183.4930  176.3180  137.7810 C   0  0  0  0  0  0  0  0  0  0  0  0
  183.0360  177.1510  136.8530 C   0  0  0  0  0  2  0  0  0  0  0  0
  183.2770  176.6490  139.1230 O   0  0  0  0  0  0  0  0  0  0  0  0
  183.1950  177.9940  139.5840 C   0  0  0  0  0  2  0  0  0  0  0  0
  184.4930  178.5130  139.8290 O   0  0  0  0  0  0  0  0  0  0  0  0
  184.9620  178.7470  141.1220 C   0  0  0  0  0  0  0  0  0  0  0  0
  184.5590  178.0510  142.0910 O   0  0  0  0  0  1  0  0  0  0  0  0
  185.8880  179.7580  141.3400 O   0  0  0  0  0  0  0  0  0  0  0  0
  186.4060  173.7340  137.2420 C   0  0  1  0  0  3  0  0  0  0  0  0
  185.7170  172.8210  138.0430 O   0  0  0  0  0  1  0  0  0  0  0  0
  187.9130  173.5190  135.2600 O   0  0  0  0  0  0  0  0  0  0  0  0
  186.0380  172.2130  135.4210 O   0  0  0  0  0  1  0  0  0  0  0  0
  186.7750  173.0970  135.9330 C   0  0  0  0  0  0  0  0  0  0  0  0
  188.8220  177.0890  139.4980 C   0  0  0  0  0  2  0  0  0  0  0  0
  188.2240  177.5870  140.6910 O   0  0  0  0  0  0  0  0  0  0  0  0
  188.0080  177.5270  143.0900 C   0  0  0  0  0  3  0  0  0  0  0  0
  188.8120  177.4350  141.9500 C   0  0  0  0  0  0  0  0  0  0  0  0
  188.5660  177.3870  144.3660 C   0  0  0  0  0  0  0  0  0  0  0  0
  190.5180  177.0090  145.7610 O   0  0  0  0  0  1  0  0  0  0  0  0
  190.7490  177.0500  143.3650 C   0  0  0  0  0  3  0  0  0  0  0  0
  190.1880  177.1930  142.0940 C   0  0  0  0  0  3  0  0  0  0  0  0
  189.9430  177.1480  144.5030 C   0  0  0  0  0  0  0  0  0  0  0  0
  187.0300  177.5900  146.4490 N   0  0  0  0  0  0  0  0  0  0  0  0
  187.7140  177.4990  145.5190 C   0  0  0  0  0  0  0  0  0  0  0  0
  1  7  1  0  0  0  0
  1  5  1  0  0  0  0
  2  6  1  0  0  0  0
  3  7  1  6  0  0  0
  3 10  1  0  0  0  0
  3  2  1  0  0  0  0
  4  9  1  1  0  0  0
  4  6  1  0  0  0  0
  5  4  1  0  0  0  0
  6 26  1  1  0  0  0
  8  7  2  0  0  0  0
 10 21  1  1  0  0  0
 10 11  1  0  0  0  0
 11 13  1  6  0  0  0
 12 10  1  0  0  0  0
 12 11  1  0  0  0  0
 13 15  1  0  0  0  0
 14 13  2  0  0  0  0
 15 16  1  0  0  0  0
 16 17  1  0  0  0  0
 17 18  1  0  0  0  0
 18 20  2  0  0  0  0
 18 19  1  0  0  0  0
 21 22  1  1  0  0  0
 23 25  2  0  0  0  0
 24 25  1  0  0  0  0
 25 21  1  0  0  0  0
 26 27  1  0  0  0  0
 27 29  1  0  0  0  0
 28 30  1  0  0  0  0
 29 33  1  0  0  0  0
 29 28  2  0  0  0  0
 30 34  2  0  0  0  0
 30 36  1  0  0  0  0
 32 34  1  0  0  0  0
 33 32  2  0  0  0  0
 34 31  1  0  0  0  0
 36 35  3  0  0  0  0
M  END
>  <MODEL>
6

>  <REMARK>
 VINA RESULT:      -6.0      2.716      4.670
  Name = 
  12 active torsions:
  status: ('A' for Active; 'I' for Inactive)
    1  A    between atoms: C_3  and  C_9
    2  A    between atoms: C_3  and  C_13
    3  A    between atoms: C_4  and  O_35
    4  A    between atoms: C_7  and  O_30
    5  A    between atoms: C_10  and  O_12
    6  A    between atoms: C_10  and  C_24
    7  A    between atoms: C_11  and  C_28
    8  A    between atoms: O_12  and  C_36
    9  A    between atoms: C_13  and  C_25
   10  A    between atoms: C_20  and  C_23
   11  A    between atoms: C_23  and  O_30
   12  A    between atoms: O_35  and  C_36
                            x       y       z     vdW  Elec       q    Type
                         _______ _______ _______ _____ _____    ______ ____

>  <TORSDO>
F 12

$$$$
=
 OpenBabel11062416013D

 36 38  0  0  1  0  0  0  0  0999 V2000
  180.0750  179.3680  142.9250 O   0  0  0  0  0  0  0  0  0  0  0  0
  182.5520  179.7260  141.3640 O   0  0  0  0  0  0  0  0  0  0  0  0
  181.4490  179.0400  140.8390 C   0  0  1  0  0  3  0  0  0  0  0  0
  182.3890  179.2020  143.7150 C   0  0  2  0  0  3  0  0  0  0  0  0
  180.9820  178.6120  143.7240 C   0  0  0  0  0  2  0  0  0  0  0  0
  183.0760  178.9040  142.3730 C   0  0  2  0  0  3  0  0  0  0  0  0
  180.1870  179.4750  141.5350 C   0  0  0  0  0  0  0  0  0  0  0  0
  179.2300  179.9670  140.8850 O   0  0  0  0  0  0  0  0  0  0  0  0
  183.1080  178.6290  144.7650 O   0  0  0  0  0  1  0  0  0  0  0  0
  181.3990  179.0540  139.2920 C   0  0  1  0  0  0  0  0  0  0  0  0
  182.0350  178.0350  138.3890 C   0  0  2  0  0  3  0  0  0  0  0  0
  180.6890  177.9330  138.8090 O   0  0  0  0  0  0  0  0  0  0  0  0
  182.9420  177.0320  139.0640 C   0  0  0  0  0  0  0  0  0  0  0  0
  182.5180  175.8150  139.3880 C   0  0  0  0  0  2  0  0  0  0  0  0
  184.2920  177.3330  139.2740 O   0  0  0  0  0  0  0  0  0  0  0  0
  184.9040  178.5230  138.7880 C   0  0  0  0  0  2  0  0  0  0  0  0
  186.2240  178.6430  139.2970 O   0  0  0  0  0  0  0  0  0  0  0  0
  187.3380  178.2310  138.5650 C   0  0  0  0  0  0  0  0  0  0  0  0
  187.2750  177.2310  137.8020 O   0  0  0  0  0  0  0  0  0  0  0  0
  188.5280  178.9360  138.6780 O   0  0  0  0  0  1  0  0  0  0  0  0
  180.8950  180.3640  138.6630 C   0  0  1  0  0  3  0  0  0  0  0  0
  181.9540  181.2620  138.5150 O   0  0  0  0  0  1  0  0  0  0  0  0
  180.8180  180.4950  136.1690 O   0  0  0  0  0  0  0  0  0  0  0  0
  178.9590  179.8450  137.3410 O   0  0  0  0  0  1  0  0  0  0  0  0
  180.1670  180.2020  137.3590 C   0  0  0  0  0  0  0  0  0  0  0  0
  184.5910  179.0910  142.4510 C   0  0  0  0  0  2  0  0  0  0  0  0
  185.2470  177.8480  142.6800 O   0  0  0  0  0  0  0  0  0  0  0  0
  186.4390  177.8390  144.7750 C   0  0  0  0  0  3  0  0  0  0  0  0
  186.4540  177.7490  143.3800 C   0  0  0  0  0  0  0  0  0  0  0  0
  187.6290  177.7500  145.5050 C   0  0  0  0  0  0  0  0  0  0  0  0
  190.0420  177.4760  145.5380 O   0  0  0  0  0  1  0  0  0  0  0  0
  188.8660  177.4670  143.4390 C   0  0  0  0  0  3  0  0  0  0  0  0
  187.6760  177.5590  142.7140 C   0  0  0  0  0  3  0  0  0  0  0  0
  188.8480  177.5640  144.8330 C   0  0  0  0  0  0  0  0  0  0  0  0
  187.5440  177.9490  148.0920 N   0  0  0  0  0  0  0  0  0  0  0  0
  187.5830  177.8600  146.9380 C   0  0  0  0  0  0  0  0  0  0  0  0
  1  5  1  0  0  0  0
  2  6  1  0  0  0  0
  3  2  1  6  0  0  0
  3  7  1  0  0  0  0
  4  5  1  0  0  0  0
  4  9  1  1  0  0  0
  6 26  1  1  0  0  0
  6  4  1  0  0  0  0
  7  1  1  0  0  0  0
  8  7  2  0  0  0  0
 10 21  1  6  0  0  0
 10  3  1  0  0  0  0
 11 12  1  0  0  0  0
 11 13  1  1  0  0  0
 11 10  1  0  0  0  0
 12 10  1  0  0  0  0
 13 15  1  0  0  0  0
 13 14  2  0  0  0  0
 16 15  1  0  0  0  0
 16 17  1  0  0  0  0
 18 20  1  0  0  0  0
 18 17  1  0  0  0  0
 19 18  2  0  0  0  0
 21 22  1  6  0  0  0
 23 25  2  0  0  0  0
 24 25  1  0  0  0  0
 25 21  1  0  0  0  0
 26 27  1  0  0  0  0
 27 29  1  0  0  0  0
 28 30  1  0  0  0  0
 29 28  2  0  0  0  0
 30 36  1  0  0  0  0
 32 34  1  0  0  0  0
 33 29  1  0  0  0  0
 33 32  2  0  0  0  0
 34 30  2  0  0  0  0
 34 31  1  0  0  0  0
 36 35  3  0  0  0  0
M  END
>  <MODEL>
7

>  <REMARK>
 VINA RESULT:      -5.9      3.321      8.125
  Name = 
  12 active torsions:
  status: ('A' for Active; 'I' for Inactive)
    1  A    between atoms: C_3  and  C_9
    2  A    between atoms: C_3  and  C_13
    3  A    between atoms: C_4  and  O_35
    4  A    between atoms: C_7  and  O_30
    5  A    between atoms: C_10  and  O_12
    6  A    between atoms: C_10  and  C_24
    7  A    between atoms: C_11  and  C_28
    8  A    between atoms: O_12  and  C_36
    9  A    between atoms: C_13  and  C_25
   10  A    between atoms: C_20  and  C_23
   11  A    between atoms: C_23  and  O_30
   12  A    between atoms: O_35  and  C_36
                            x       y       z     vdW  Elec       q    Type
                         _______ _______ _______ _____ _____    ______ ____

>  <TORSDO>
F 12

$$$$
=
 OpenBabel11062416013D

 36 38  0  0  1  0  0  0  0  0999 V2000
  187.5460  173.4660  136.7140 O   0  0  0  0  0  0  0  0  0  0  0  0
  188.1770  176.3450  136.5880 O   0  0  0  0  0  0  0  0  0  0  0  0
  188.8810  175.4770  137.4330 C   0  0  1  0  0  3  0  0  0  0  0  0
  185.9790  175.3460  136.5710 C   0  0  2  0  0  3  0  0  0  0  0  0
  186.3280  174.0080  137.2180 C   0  0  0  0  0  2  0  0  0  0  0  0
  186.8880  176.4520  137.1290 C   0  0  2  0  0  3  0  0  0  0  0  0
  188.7920  174.0650  136.9200 C   0  0  0  0  0  0  0  0  0  0  0  0
  189.8320  173.4140  136.6420 O   0  0  0  0  0  0  0  0  0  0  0  0
  184.6420  175.6290  136.8500 O   0  0  0  0  0  1  0  0  0  0  0  0
  190.3050  175.9780  137.7750 C   0  0  1  0  0  0  0  0  0  0  0  0
  190.6420  177.0120  138.8110 C   0  0  2  0  0  3  0  0  0  0  0  0
  190.6490  175.6280  139.0990 O   0  0  0  0  0  0  0  0  0  0  0  0
  189.4660  177.7370  139.4250 C   0  0  0  0  0  0  0  0  0  0  0  0
  189.0570  178.9150  138.9670 C   0  0  0  0  0  2  0  0  0  0  0  0
  188.7120  177.1290  140.4350 O   0  0  0  0  0  0  0  0  0  0  0  0
  188.6660  177.6230  141.7700 C   0  0  0  0  0  2  0  0  0  0  0  0
  189.9780  177.8670  142.2520 O   0  0  0  0  0  0  0  0  0  0  0  0
  190.7280  176.8770  142.8880 C   0  0  0  0  0  0  0  0  0  0  0  0
  191.6830  177.1810  143.6500 O   0  0  0  0  0  1  0  0  0  0  0  0
  190.4120  175.5420  142.6800 O   0  0  0  0  0  0  0  0  0  0  0  0
  191.4010  175.5720  136.7740 C   0  0  1  0  0  3  0  0  0  0  0  0
  191.3300  176.3770  135.6360 O   0  0  0  0  0  1  0  0  0  0  0  0
  193.5580  176.7370  137.2580 O   0  0  0  0  0  0  0  0  0  0  0  0
  193.2990  174.5290  137.8120 O   0  0  0  0  0  1  0  0  0  0  0  0
  192.7980  175.5780  137.3270 C   0  0  0  0  0  0  0  0  0  0  0  0
  186.3290  177.8480  136.8490 C   0  0  0  0  0  2  0  0  0  0  0  0
  186.2820  178.6270  138.0390 O   0  0  0  0  0  0  0  0  0  0  0  0
  185.3940  178.6300  140.2790 C   0  0  0  0  0  3  0  0  0  0  0  0
  185.1790  178.6290  138.8980 C   0  0  0  0  0  0  0  0  0  0  0  0
  184.3120  178.6250  141.1670 C   0  0  0  0  0  0  0  0  0  0  0  0
  181.9100  178.6170  141.5310 O   0  0  0  0  0  1  0  0  0  0  0  0
  182.7800  178.6300  139.2860 C   0  0  0  0  0  3  0  0  0  0  0  0
  183.8630  178.6320  138.4050 C   0  0  0  0  0  3  0  0  0  0  0  0
  182.9990  178.6240  140.6670 C   0  0  0  0  0  0  0  0  0  0  0  0
  184.7680  178.6050  143.7220 N   0  0  0  0  0  0  0  0  0  0  0  0
  184.5650  178.6130  142.5820 C   0  0  0  0  0  0  0  0  0  0  0  0
  1  7  1  0  0  0  0
  1  5  1  0  0  0  0
  2  6  1  0  0  0  0
  3  2  1  6  0  0  0
  3 10  1  0  0  0  0
  4  9  1  1  0  0  0
  4  6  1  0  0  0  0
  4  5  1  0  0  0  0
  6 26  1  6  0  0  0
  7  3  1  0  0  0  0
  8  7  2  0  0  0  0
 10 21  1  6  0  0  0
 10 11  1  0  0  0  0
 10 12  1  0  0  0  0
 11 12  1  0  0  0  0
 11 13  1  1  0  0  0
 13 15  1  0  0  0  0
 14 13  2  0  0  0  0
 15 16  1  0  0  0  0
 16 17  1  0  0  0  0
 17 18  1  0  0  0  0
 18 19  1  0  0  0  0
 20 18  2  0  0  0  0
 21 22  1  6  0  0  0
 21 25  1  0  0  0  0
 23 25  2  0  0  0  0
 25 24  1  0  0  0  0
 26 27  1  0  0  0  0
 27 29  1  0  0  0  0
 28 30  1  0  0  0  0
 29 28  2  0  0  0  0
 30 36  1  0  0  0  0
 32 34  1  0  0  0  0
 33 29  1  0  0  0  0
 33 32  2  0  0  0  0
 34 30  2  0  0  0  0
 34 31  1  0  0  0  0
 36 35  3  0  0  0  0
M  END
>  <MODEL>
8

>  <REMARK>
 VINA RESULT:      -5.9      2.394      5.281
  Name = 
  12 active torsions:
  status: ('A' for Active; 'I' for Inactive)
    1  A    between atoms: C_3  and  C_9
    2  A    between atoms: C_3  and  C_13
    3  A    between atoms: C_4  and  O_35
    4  A    between atoms: C_7  and  O_30
    5  A    between atoms: C_10  and  O_12
    6  A    between atoms: C_10  and  C_24
    7  A    between atoms: C_11  and  C_28
    8  A    between atoms: O_12  and  C_36
    9  A    between atoms: C_13  and  C_25
   10  A    between atoms: C_20  and  C_23
   11  A    between atoms: C_23  and  O_30
   12  A    between atoms: O_35  and  C_36
                            x       y       z     vdW  Elec       q    Type
                         _______ _______ _______ _____ _____    ______ ____

>  <TORSDO>
F 12

$$$$
=
 OpenBabel11062416013D

 36 38  0  0  1  0  0  0  0  0999 V2000
  179.0630  180.6410  142.1930 O   0  0  0  0  0  0  0  0  0  0  0  0
  181.5670  179.9120  140.8160 O   0  0  0  0  0  0  0  0  0  0  0  0
  180.3530  180.0160  140.1230 C   0  0  1  0  0  3  0  0  0  0  0  0
  180.8350  179.1450  142.9850 C   0  0  2  0  0  3  0  0  0  0  0  0
  179.3380  179.3930  142.8260 C   0  0  0  0  0  2  0  0  0  0  0  0
  181.4540  178.7740  141.6280 C   0  0  2  0  0  3  0  0  0  0  0  0
  179.4050  180.9170  140.8660 C   0  0  0  0  0  0  0  0  0  0  0  0
  178.9320  181.9460  140.3190 O   0  0  0  0  0  0  0  0  0  0  0  0
  181.0090  178.1040  143.8980 O   0  0  0  0  0  1  0  0  0  0  0  0
  180.5330  180.3280  138.6180 C   0  0  1  0  0  0  0  0  0  0  0  0
  180.6560  179.3060  137.5230 C   0  0  2  0  0  3  0  0  0  0  0  0
  179.4150  179.8790  137.8810 O   0  0  0  0  0  0  0  0  0  0  0  0
  180.7970  177.8700  137.9750 C   0  0  0  0  0  0  0  0  0  0  0  0
  179.7580  177.0440  138.0050 C   0  0  0  0  0  2  0  0  0  0  0  0
  182.0590  177.3480  138.2790 O   0  0  0  0  0  0  0  0  0  0  0  0
  183.2430  177.7350  137.5890 C   0  0  0  0  0  2  0  0  0  0  0  0
  183.9590  178.7020  138.3410 O   0  0  0  0  0  0  0  0  0  0  0  0
  185.2970  178.5230  138.6910 C   0  0  0  0  0  0  0  0  0  0  0  0
  185.7650  179.0360  139.7420 O   0  0  0  0  0  1  0  0  0  0  0  0
  186.1220  177.7660  137.8710 O   0  0  0  0  0  0  0  0  0  0  0  0
  180.8860  181.7880  138.2880 C   0  0  1  0  0  3  0  0  0  0  0  0
  182.2720  181.9470  138.2410 O   0  0  0  0  0  1  0  0  0  0  0  0
  179.0220  182.9440  137.0890 O   0  0  0  0  0  1  0  0  0  0  0  0
  180.8340  182.1730  135.9180 O   0  0  0  0  0  0  0  0  0  0  0  0
  180.2620  182.3220  137.0300 C   0  0  0  0  0  0  0  0  0  0  0  0
  182.8260  178.1180  141.7840 C   0  0  0  0  0  2  0  0  0  0  0  0
  183.7690  179.0320  142.3340 O   0  0  0  0  0  0  0  0  0  0  0  0
  185.8110  177.9640  143.0380 C   0  0  0  0  0  3  0  0  0  0  0  0
  184.6540  178.6800  143.3580 C   0  0  0  0  0  0  0  0  0  0  0  0
  186.7140  177.5900  144.0390 C   0  0  0  0  0  0  0  0  0  0  0  0
  187.3430  177.5770  146.3860 O   0  0  0  0  0  1  0  0  0  0  0  0
  185.3070  178.6620  145.6980 C   0  0  0  0  0  3  0  0  0  0  0  0
  184.4080  179.0310  144.6960 C   0  0  0  0  0  3  0  0  0  0  0  0
  186.4600  177.9400  145.3750 C   0  0  0  0  0  0  0  0  0  0  0  0
  188.8350  176.2400  143.3910 N   0  0  0  0  0  0  0  0  0  0  0  0
  187.8900  176.8430  143.6800 C   0  0  0  0  0  0  0  0  0  0  0  0
  1  5  1  0  0  0  0
  2  6  1  0  0  0  0
  3  2  1  1  0  0  0
  3  7  1  0  0  0  0
  4  9  1  1  0  0  0
  5  4  1  0  0  0  0
  6 26  1  1  0  0  0
  6  4  1  0  0  0  0
  7  1  1  0  0  0  0
  8  7  2  0  0  0  0
 10 21  1  6  0  0  0
 10  3  1  0  0  0  0
 11 12  1  0  0  0  0
 11 13  1  1  0  0  0
 11 10  1  0  0  0  0
 12 10  1  0  0  0  0
 13 14  2  0  0  0  0
 13 15  1  0  0  0  0
 16 15  1  0  0  0  0
 16 17  1  0  0  0  0
 17 18  1  0  0  0  0
 18 19  1  0  0  0  0
 20 18  2  0  0  0  0
 21 22  1  6  0  0  0
 24 25  2  0  0  0  0
 25 23  1  0  0  0  0
 25 21  1  0  0  0  0
 26 27  1  0  0  0  0
 27 29  1  0  0  0  0
 28 29  2  0  0  0  0
 28 30  1  0  0  0  0
 29 33  1  0  0  0  0
 30 34  2  0  0  0  0
 33 32  2  0  0  0  0
 34 32  1  0  0  0  0
 34 31  1  0  0  0  0
 35 36  3  0  0  0  0
 36 30  1  0  0  0  0
M  END
>  <MODEL>
9

>  <REMARK>
 VINA RESULT:      -5.9      4.436      8.995
  Name = 
  12 active torsions:
  status: ('A' for Active; 'I' for Inactive)
    1  A    between atoms: C_3  and  C_9
    2  A    between atoms: C_3  and  C_13
    3  A    between atoms: C_4  and  O_35
    4  A    between atoms: C_7  and  O_30
    5  A    between atoms: C_10  and  O_12
    6  A    between atoms: C_10  and  C_24
    7  A    between atoms: C_11  and  C_28
    8  A    between atoms: O_12  and  C_36
    9  A    between atoms: C_13  and  C_25
   10  A    between atoms: C_20  and  C_23
   11  A    between atoms: C_23  and  O_30
   12  A    between atoms: O_35  and  C_36
                            x       y       z     vdW  Elec       q    Type
                         _______ _______ _______ _____ _____    ______ ____

>  <TORSDO>
F 12

$$$$
