=
 OpenBabel11062417113D

 36 40  0  0  1  0  0  0  0  0999 V2000
  184.7750  178.8220  145.4580 C   0  0  0  0  0  2  0  0  0  0  0  0
  187.9480  177.1340  147.5240 C   0  0  0  0  0  2  0  0  0  0  0  0
  190.0900  177.4900  145.5440 O   0  0  0  0  0  0  0  0  0  0  0  0
  184.5520  178.7980  142.5740 C   0  0  0  0  0  3  0  0  0  0  0  0
  185.7950  178.1170  144.5960 C   0  0  0  0  0  0  0  0  0  0  0  0
  187.6140  176.5570  143.0590 O   0  0  0  0  0  0  0  0  0  0  0  0
  185.8260  178.8980  139.2280 O   0  0  0  0  0  0  0  0  0  0  0  0
  186.9840  177.9560  141.0990 C   0  0  2  0  0  3  0  0  0  0  0  0
  187.5230  178.1660  146.4940 C   0  0  1  0  0  3  0  0  0  0  0  0
  185.6270  178.0610  143.2650 C   0  0  0  0  0  0  0  0  0  0  0  0
  187.0180  177.4580  145.2130 C   0  0  2  0  0  3  0  0  0  0  0  0
  185.1160  178.7270  146.9370 C   0  0  0  0  0  2  0  0  0  0  0  0
  190.2930  176.7480  146.7210 C   0  0  2  0  0  3  0  0  0  0  0  0
  189.4250  177.2970  147.8460 C   0  0  0  0  0  2  0  0  0  0  0  0
  188.1240  177.3120  144.1390 C   0  0  1  0  0  3  0  0  0  0  0  0
  185.7990  178.6350  140.4600 C   0  0  0  0  0  0  0  0  0  0  0  0
  184.6260  179.0430  141.2620 C   0  0  0  0  0  3  0  0  0  0  0  0
  186.5710  177.2530  142.4010 C   0  0  2  0  0  3  0  0  0  0  0  0
  189.4000  176.6320  144.6760 C   0  0  1  0  0  3  0  0  0  0  0  0
  186.5560  179.1690  147.1300 C   0  0  0  0  0  2  0  0  0  0  0  0
  191.7610  176.7450  147.1730 C   0  0  1  0  0  3  0  0  0  0  0  0
  191.9880  175.7080  148.1020 O   0  0  0  0  0  0  0  0  0  0  0  0
  192.4890  175.5060  146.7970 C   0  0  0  0  0  2  0  0  0  0  0  0
  190.3140  176.1950  143.5640 C   0  0  0  0  0  0  0  0  0  0  0  0
  190.0450  175.0150  142.8850 O   0  0  0  0  0  1  0  0  0  0  0  0
  191.3650  176.9240  143.2070 C   0  0  0  0  0  2  0  0  0  0  0  0
  188.1300  178.9130  141.2870 C   0  0  0  0  0  0  0  0  0  0  0  0
  187.9550  179.9860  141.9280 O   0  0  0  0  0  0  0  0  0  0  0  0
  189.3930  178.6340  140.7500 O   0  0  0  0  0  0  0  0  0  0  0  0
  189.7160  177.4000  140.1180 C   0  0  0  0  0  2  0  0  0  0  0  0
  190.0810  177.6290  138.6580 C   0  0  0  0  0  2  0  0  0  0  0  0
  188.5140  178.7390  137.1300 C   0  0  0  0  0  0  0  0  0  0  0  0
  187.3740  178.7630  136.3960 F   0  0  0  0  0  0  0  0  0  0  0  0
  188.8510  177.6460  137.8160 C   0  0  0  0  0  0  0  0  0  0  0  0
  189.2900  179.8560  137.1790 F   0  0  0  0  0  0  0  0  0  0  0  0
  188.0050  176.4970  137.7940 N   0  0  0  0  0  1  0  0  0  0  0  0
  1 12  1  0  0  0  0
  2 14  1  0  0  0  0
  3 13  1  0  0  0  0
  4 10  1  0  0  0  0
  5  1  1  0  0  0  0
  7 16  2  0  0  0  0
  8 27  1  1  0  0  0
  8 18  1  0  0  0  0
  9 20  1  1  0  0  0
  9  2  1  0  0  0  0
 10  5  2  0  0  0  0
 11  5  1  6  0  0  0
 11  9  1  0  0  0  0
 12 20  1  0  0  0  0
 13 21  1  0  0  0  0
 13 14  1  1  0  0  0
 15  6  1  6  0  0  0
 15 19  1  0  0  0  0
 15 11  1  0  0  0  0
 16  8  1  0  0  0  0
 16 17  1  0  0  0  0
 17  4  2  0  0  0  0
 18  6  1  1  0  0  0
 18 10  1  0  0  0  0
 19 24  1  6  0  0  0
 19  3  1  0  0  0  0
 21 23  1  6  0  0  0
 21 22  1  0  0  0  0
 23 22  1  0  0  0  0
 25 24  1  0  0  0  0
 26 24  2  0  0  0  0
 27 28  2  0  0  0  0
 29 27  1  0  0  0  0
 30 29  1  0  0  0  0
 31 30  1  0  0  0  0
 32 35  1  0  0  0  0
 32 34  2  0  0  0  0
 33 32  1  0  0  0  0
 34 31  1  0  0  0  0
 36 34  1  0  0  0  0
M  END
>  <MODEL>
1

>  <REMARK>
 VINA RESULT:      -8.3      0.000      0.000
  Name = 
  7 active torsions:
  status: ('A' for Active; 'I' for Inactive)
    1  A    between atoms: C_1  and  C_21
    2  A    between atoms: C_2  and  C_24
    3  A    between atoms: C_2  and  C_36
    4  A    between atoms: O_7  and  C_23
    5  A    between atoms: O_7  and  C_36
    6  A    between atoms: C_14  and  C_34
    7  A    between atoms: C_15  and  C_23
                            x       y       z     vdW  Elec       q    Type
                         _______ _______ _______ _____ _____    ______ ____

>  <TORSDO>
F 7

$$$$
=
 OpenBabel11062417113D

 36 40  0  0  1  0  0  0  0  0999 V2000
  190.8770  176.9210  140.6030 C   0  0  0  0  0  2  0  0  0  0  0  0
  188.1270  178.2790  143.3920 C   0  0  0  0  0  2  0  0  0  0  0  0
  185.6250  177.6720  141.9750 O   0  0  0  0  0  0  0  0  0  0  0  0
  190.4010  176.9370  137.7500 C   0  0  0  0  0  3  0  0  0  0  0  0
  189.6110  177.5020  140.0210 C   0  0  0  0  0  0  0  0  0  0  0  0
  187.3210  178.8390  138.9850 O   0  0  0  0  0  0  0  0  0  0  0  0
  188.3840  176.6630  134.8030 O   0  0  0  0  0  0  0  0  0  0  0  0
  187.6120  177.4950  136.9110 C   0  0  2  0  0  3  0  0  0  0  0  0
  188.4020  177.2880  142.2750 C   0  0  1  0  0  3  0  0  0  0  0  0
  189.4500  177.5610  138.6890 C   0  0  0  0  0  0  0  0  0  0  0  0
  188.5070  178.0320  140.9210 C   0  0  2  0  0  3  0  0  0  0  0  0
  190.8920  176.9950  142.1220 C   0  0  0  0  0  2  0  0  0  0  0  0
  185.6300  178.4000  143.1770 C   0  0  2  0  0  3  0  0  0  0  0  0
  186.7960  177.9610  144.0550 C   0  0  0  0  0  2  0  0  0  0  0  0
  187.1680  178.0450  140.1440 C   0  0  1  0  0  3  0  0  0  0  0  0
  188.6760  176.9410  135.9980 C   0  0  0  0  0  0  0  0  0  0  0  0
  190.0430  176.6700  136.4900 C   0  0  0  0  0  3  0  0  0  0  0  0
  188.2460  178.2530  138.0870 C   0  0  2  0  0  3  0  0  0  0  0  0
  185.9910  178.5900  140.9800 C   0  0  1  0  0  3  0  0  0  0  0  0
  189.5950  176.4020  142.6460 C   0  0  0  0  0  2  0  0  0  0  0  0
  184.3210  178.2500  143.9670 C   0  0  1  0  0  3  0  0  0  0  0  0
  184.3190  179.1080  145.0860 O   0  0  0  0  0  0  0  0  0  0  0  0
  183.5070  179.4920  143.9960 C   0  0  0  0  0  2  0  0  0  0  0  0
  184.7970  178.9130  140.1260 C   0  0  0  0  0  0  0  0  0  0  0  0
  184.8090  180.0580  139.3420 O   0  0  0  0  0  1  0  0  0  0  0  0
  183.7350  178.1150  140.0920 C   0  0  0  0  0  2  0  0  0  0  0  0
  186.6540  176.4220  137.3520 C   0  0  0  0  0  0  0  0  0  0  0  0
  187.0790  175.2580  137.5910 O   0  0  0  0  0  0  0  0  0  0  0  0
  185.2870  176.6940  137.4950 O   0  0  0  0  0  0  0  0  0  0  0  0
  184.2740  175.9870  136.7860 C   0  0  0  0  0  2  0  0  0  0  0  0
  183.5830  174.9860  137.7010 C   0  0  0  0  0  2  0  0  0  0  0  0
  184.3480  172.6770  137.3740 C   0  0  0  0  0  0  0  0  0  0  0  0
  184.2970  171.4780  136.7420 F   0  0  0  0  0  0  0  0  0  0  0  0
  183.5030  173.6530  137.0380 C   0  0  0  0  0  0  0  0  0  0  0  0
  185.2940  172.8770  138.3320 F   0  0  0  0  0  0  0  0  0  0  0  0
  182.5470  173.4470  136.0000 N   0  0  0  0  0  1  0  0  0  0  0  0
  1 12  1  0  0  0  0
  2 14  1  0  0  0  0
  3 13  1  0  0  0  0
  4 10  1  0  0  0  0
  5  1  1  0  0  0  0
  7 16  2  0  0  0  0
  8 27  1  1  0  0  0
  8 18  1  0  0  0  0
  9 20  1  1  0  0  0
  9  2  1  0  0  0  0
 10  5  2  0  0  0  0
 11  5  1  6  0  0  0
 11  9  1  0  0  0  0
 12 20  1  0  0  0  0
 13 21  1  0  0  0  0
 13 14  1  1  0  0  0
 15  6  1  6  0  0  0
 15 11  1  0  0  0  0
 15 19  1  0  0  0  0
 16 17  1  0  0  0  0
 16  8  1  0  0  0  0
 17  4  2  0  0  0  0
 18 10  1  1  0  0  0
 18  6  1  0  0  0  0
 19 24  1  6  0  0  0
 19  3  1  0  0  0  0
 21 23  1  6  0  0  0
 21 22  1  0  0  0  0
 23 22  1  0  0  0  0
 25 24  1  0  0  0  0
 26 24  2  0  0  0  0
 27 29  1  0  0  0  0
 27 28  2  0  0  0  0
 30 29  1  0  0  0  0
 30 31  1  0  0  0  0
 32 35  1  0  0  0  0
 33 32  1  0  0  0  0
 34 32  2  0  0  0  0
 34 31  1  0  0  0  0
 36 34  1  0  0  0  0
M  END
>  <MODEL>
2

>  <REMARK>
 VINA RESULT:      -7.1      3.628      6.602
  Name = 
  7 active torsions:
  status: ('A' for Active; 'I' for Inactive)
    1  A    between atoms: C_1  and  C_21
    2  A    between atoms: C_2  and  C_24
    3  A    between atoms: C_2  and  C_36
    4  A    between atoms: O_7  and  C_23
    5  A    between atoms: O_7  and  C_36
    6  A    between atoms: C_14  and  C_34
    7  A    between atoms: C_15  and  C_23
                            x       y       z     vdW  Elec       q    Type
                         _______ _______ _______ _____ _____    ______ ____

>  <TORSDO>
F 7

$$$$
=
 OpenBabel11062417113D

 36 40  0  0  1  0  0  0  0  0999 V2000
  183.2840  178.5430  142.7540 C   0  0  0  0  0  2  0  0  0  0  0  0
  183.9890  178.7010  138.6720 C   0  0  0  0  0  2  0  0  0  0  0  0
  186.5290  177.2290  138.5390 O   0  0  0  0  0  0  0  0  0  0  0  0
  185.3870  178.4440  144.7370 C   0  0  0  0  0  3  0  0  0  0  0  0
  184.7390  178.6180  142.3600 C   0  0  0  0  0  0  0  0  0  0  0  0
  187.4430  179.0180  141.5620 O   0  0  0  0  0  0  0  0  0  0  0  0
  188.6030  177.4990  146.0010 O   0  0  0  0  0  0  0  0  0  0  0  0
  188.1180  177.9310  143.6970 C   0  0  2  0  0  3  0  0  0  0  0  0
  184.1880  177.9130  139.9550 C   0  0  1  0  0  3  0  0  0  0  0  0
  185.6910  178.6430  143.3070 C   0  0  0  0  0  0  0  0  0  0  0  0
  185.1520  178.6720  140.8980 C   0  0  2  0  0  3  0  0  0  0  0  0
  182.3630  178.5820  141.5440 C   0  0  0  0  0  2  0  0  0  0  0  0
  185.9950  177.8780  137.4110 C   0  0  2  0  0  3  0  0  0  0  0  0
  184.4740  177.8900  137.4810 C   0  0  0  0  0  2  0  0  0  0  0  0
  186.6200  178.1990  140.7580 C   0  0  1  0  0  3  0  0  0  0  0  0
  187.7350  177.8390  145.1520 C   0  0  0  0  0  0  0  0  0  0  0  0
  186.3480  178.0920  145.5970 C   0  0  0  0  0  3  0  0  0  0  0  0
  187.1450  178.8440  142.9350 C   0  0  2  0  0  3  0  0  0  0  0  0
  187.1300  178.2400  139.3020 C   0  0  1  0  0  3  0  0  0  0  0  0
  182.8290  177.5330  140.5500 C   0  0  0  0  0  2  0  0  0  0  0  0
  186.4340  177.2280  136.0900 C   0  0  1  0  0  3  0  0  0  0  0  0
  186.4160  178.1740  135.0450 O   0  0  0  0  0  0  0  0  0  0  0  0
  187.6860  177.8060  135.5380 C   0  0  0  0  0  2  0  0  0  0  0  0
  188.6260  178.1100  139.2270 C   0  0  0  0  0  0  0  0  0  0  0  0
  189.3990  179.2410  139.0070 O   0  0  0  0  0  1  0  0  0  0  0  0
  189.2260  176.9350  139.3840 C   0  0  0  0  0  2  0  0  0  0  0  0
  188.2480  176.5660  143.0770 C   0  0  0  0  0  0  0  0  0  0  0  0
  187.3210  175.7210  143.2130 O   0  0  0  0  0  0  0  0  0  0  0  0
  189.3940  176.2130  142.3530 O   0  0  0  0  0  0  0  0  0  0  0  0
  190.6830  176.7530  142.6240 C   0  0  0  0  0  2  0  0  0  0  0  0
  191.3890  175.9360  143.6970 C   0  0  0  0  0  2  0  0  0  0  0  0
  191.9180  176.1980  146.0780 C   0  0  0  0  0  0  0  0  0  0  0  0
  192.0860  176.9570  147.1900 F   0  0  0  0  0  0  0  0  0  0  0  0
  191.6150  176.7700  144.9120 C   0  0  0  0  0  0  0  0  0  0  0  0
  192.0340  174.8460  146.1810 F   0  0  0  0  0  0  0  0  0  0  0  0
  191.4500  178.1840  144.8280 N   0  0  0  0  0  1  0  0  0  0  0  0
  3 19  1  0  0  0  0
  4 17  2  0  0  0  0
  5  1  1  0  0  0  0
  5 10  2  0  0  0  0
  8 27  1  6  0  0  0
  8 16  1  0  0  0  0
  9  2  1  6  0  0  0
  9 20  1  0  0  0  0
  9 11  1  0  0  0  0
 10  4  1  0  0  0  0
 11  5  1  1  0  0  0
 12  1  1  0  0  0  0
 13 14  1  1  0  0  0
 13  3  1  0  0  0  0
 14  2  1  0  0  0  0
 15 11  1  0  0  0  0
 15  6  1  1  0  0  0
 16 17  1  0  0  0  0
 16  7  2  0  0  0  0
 18  6  1  6  0  0  0
 18 10  1  0  0  0  0
 18  8  1  0  0  0  0
 19 24  1  1  0  0  0
 19 15  1  0  0  0  0
 20 12  1  0  0  0  0
 21 23  1  1  0  0  0
 21 13  1  0  0  0  0
 22 23  1  0  0  0  0
 22 21  1  0  0  0  0
 24 26  2  0  0  0  0
 25 24  1  0  0  0  0
 27 28  2  0  0  0  0
 29 30  1  0  0  0  0
 29 27  1  0  0  0  0
 30 31  1  0  0  0  0
 31 34  1  0  0  0  0
 32 35  1  0  0  0  0
 32 33  1  0  0  0  0
 34 32  2  0  0  0  0
 36 34  1  0  0  0  0
M  END
>  <MODEL>
3

>  <REMARK>
 VINA RESULT:      -7.0      3.339      7.287
  Name = 
  7 active torsions:
  status: ('A' for Active; 'I' for Inactive)
    1  A    between atoms: C_1  and  C_21
    2  A    between atoms: C_2  and  C_24
    3  A    between atoms: C_2  and  C_36
    4  A    between atoms: O_7  and  C_23
    5  A    between atoms: O_7  and  C_36
    6  A    between atoms: C_14  and  C_34
    7  A    between atoms: C_15  and  C_23
                            x       y       z     vdW  Elec       q    Type
                         _______ _______ _______ _____ _____    ______ ____

>  <TORSDO>
F 7

$$$$
=
 OpenBabel11062417113D

 36 40  0  0  1  0  0  0  0  0999 V2000
  189.7190  177.1790  142.5370 C   0  0  0  0  0  2  0  0  0  0  0  0
  185.9990  178.5240  143.7780 C   0  0  0  0  0  2  0  0  0  0  0  0
  184.4140  177.9130  141.3800 O   0  0  0  0  0  0  0  0  0  0  0  0
  190.5880  177.1990  139.7780 C   0  0  0  0  0  3  0  0  0  0  0  0
  188.8530  177.7580  141.4450 C   0  0  0  0  0  0  0  0  0  0  0  0
  187.2760  179.0910  139.4840 O   0  0  0  0  0  0  0  0  0  0  0  0
  190.1260  176.9260  136.2370 O   0  0  0  0  0  0  0  0  0  0  0  0
  188.4800  177.7520  137.7660 C   0  0  2  0  0  3  0  0  0  0  0  0
  186.7540  177.5360  142.9060 C   0  0  1  0  0  3  0  0  0  0  0  0
  189.3130  177.8200  140.1840 C   0  0  0  0  0  0  0  0  0  0  0  0
  187.4590  178.2830  141.7470 C   0  0  2  0  0  3  0  0  0  0  0  0
  189.0440  177.2500  143.8980 C   0  0  0  0  0  2  0  0  0  0  0  0
  183.8710  178.6390  142.4550 C   0  0  2  0  0  3  0  0  0  0  0  0
  184.5140  178.2010  143.7650 C   0  0  0  0  0  2  0  0  0  0  0  0
  186.6170  178.2950  140.4470 C   0  0  1  0  0  3  0  0  0  0  0  0
  189.8440  177.2020  137.4340 C   0  0  0  0  0  0  0  0  0  0  0  0
  190.8410  176.9350  138.4920 C   0  0  0  0  0  3  0  0  0  0  0  0
  188.5090  178.5090  139.1030 C   0  0  2  0  0  3  0  0  0  0  0  0
  185.1880  178.8340  140.6600 C   0  0  1  0  0  3  0  0  0  0  0  0
  187.6520  176.6530  143.7770 C   0  0  0  0  0  2  0  0  0  0  0  0
  182.3460  178.4840  142.5650 C   0  0  1  0  0  3  0  0  0  0  0  0
  181.7530  179.7050  142.9470 O   0  0  0  0  0  0  0  0  0  0  0  0
  181.5980  179.3240  141.5960 C   0  0  0  0  0  2  0  0  0  0  0  0
  184.5090  179.1560  139.3570 C   0  0  0  0  0  0  0  0  0  0  0  0
  184.5110  180.4630  138.8920 O   0  0  0  0  0  1  0  0  0  0  0  0
  183.9210  178.2100  138.6320 C   0  0  0  0  0  2  0  0  0  0  0  0
  187.4300  176.6750  137.7250 C   0  0  0  0  0  0  0  0  0  0  0  0
  187.6920  175.5220  138.1660 O   0  0  0  0  0  0  0  0  0  0  0  0
  186.1590  176.9310  137.1930 O   0  0  0  0  0  0  0  0  0  0  0  0
  185.7760  176.5540  135.8750 C   0  0  0  0  0  2  0  0  0  0  0  0
  184.5640  175.6330  135.9150 C   0  0  0  0  0  2  0  0  0  0  0  0
  184.5390  173.8920  137.6450 C   0  0  0  0  0  0  0  0  0  0  0  0
  184.9270  172.6890  138.1370 F   0  0  0  0  0  0  0  0  0  0  0  0
  184.9530  174.2930  136.4420 C   0  0  0  0  0  0  0  0  0  0  0  0
  183.7490  174.6930  138.4110 F   0  0  0  0  0  0  0  0  0  0  0  0
  185.8190  173.4650  135.6690 N   0  0  0  0  0  1  0  0  0  0  0  0
  1 12  1  0  0  0  0
  3 13  1  0  0  0  0
  4 10  1  0  0  0  0
  5  1  1  0  0  0  0
  7 16  2  0  0  0  0
  8 27  1  1  0  0  0
  8 18  1  0  0  0  0
  9 20  1  1  0  0  0
  9  2  1  0  0  0  0
 10  5  2  0  0  0  0
 11  5  1  6  0  0  0
 11  9  1  0  0  0  0
 13 21  1  0  0  0  0
 13 14  1  1  0  0  0
 14  2  1  0  0  0  0
 15  6  1  6  0  0  0
 15 19  1  0  0  0  0
 15 11  1  0  0  0  0
 16  8  1  0  0  0  0
 16 17  1  0  0  0  0
 17  4  2  0  0  0  0
 18  6  1  1  0  0  0
 18 10  1  0  0  0  0
 19 24  1  6  0  0  0
 19  3  1  0  0  0  0
 20 12  1  0  0  0  0
 21 23  1  6  0  0  0
 21 22  1  0  0  0  0
 23 22  1  0  0  0  0
 25 24  1  0  0  0  0
 26 24  2  0  0  0  0
 27 28  2  0  0  0  0
 29 27  1  0  0  0  0
 30 31  1  0  0  0  0
 30 29  1  0  0  0  0
 31 34  1  0  0  0  0
 32 33  1  0  0  0  0
 32 35  1  0  0  0  0
 34 32  2  0  0  0  0
 36 34  1  0  0  0  0
M  END
>  <MODEL>
4

>  <REMARK>
 VINA RESULT:      -6.9      3.577      6.596
  Name = 
  7 active torsions:
  status: ('A' for Active; 'I' for Inactive)
    1  A    between atoms: C_1  and  C_21
    2  A    between atoms: C_2  and  C_24
    3  A    between atoms: C_2  and  C_36
    4  A    between atoms: O_7  and  C_23
    5  A    between atoms: O_7  and  C_36
    6  A    between atoms: C_14  and  C_34
    7  A    between atoms: C_15  and  C_23
                            x       y       z     vdW  Elec       q    Type
                         _______ _______ _______ _____ _____    ______ ____

>  <TORSDO>
F 7

$$$$
=
 OpenBabel11062417113D

 36 40  0  0  1  0  0  0  0  0999 V2000
  190.6720  176.7730  140.8340 C   0  0  0  0  0  2  0  0  0  0  0  0
  187.9820  178.0960  143.6970 C   0  0  0  0  0  2  0  0  0  0  0  0
  185.4620  177.7360  142.2300 O   0  0  0  0  0  0  0  0  0  0  0  0
  190.2230  177.0120  137.9870 C   0  0  0  0  0  3  0  0  0  0  0  0
  189.4480  177.4660  140.2870 C   0  0  0  0  0  0  0  0  0  0  0  0
  187.2490  179.0030  139.3360 O   0  0  0  0  0  0  0  0  0  0  0  0
  188.2190  177.0600  135.0190 O   0  0  0  0  0  0  0  0  0  0  0  0
  187.4780  177.7900  137.1750 C   0  0  2  0  0  3  0  0  0  0  0  0
  188.2090  177.1700  142.5160 C   0  0  1  0  0  3  0  0  0  0  0  0
  189.3020  177.6260  138.9620 C   0  0  0  0  0  0  0  0  0  0  0  0
  188.3690  177.9970  141.2170 C   0  0  2  0  0  3  0  0  0  0  0  0
  190.6780  176.7420  142.3550 C   0  0  0  0  0  2  0  0  0  0  0  0
  185.4990  178.3790  143.4800 C   0  0  2  0  0  3  0  0  0  0  0  0
  186.6290  177.8130  144.3300 C   0  0  0  0  0  2  0  0  0  0  0  0
  187.0390  178.1430  140.4360 C   0  0  1  0  0  3  0  0  0  0  0  0
  188.5160  177.2380  136.2310 C   0  0  0  0  0  0  0  0  0  0  0  0
  189.8610  176.8540  136.7100 C   0  0  0  0  0  3  0  0  0  0  0  0
  188.1460  178.4270  138.4040 C   0  0  2  0  0  3  0  0  0  0  0  0
  185.8900  178.6970  141.3020 C   0  0  1  0  0  3  0  0  0  0  0  0
  189.3450  176.1920  142.8310 C   0  0  0  0  0  2  0  0  0  0  0  0
  184.1770  178.2520  144.2510 C   0  0  1  0  0  3  0  0  0  0  0  0
  184.2100  179.0410  145.4190 O   0  0  0  0  0  0  0  0  0  0  0  0
  183.4290  179.5320  144.3500 C   0  0  0  0  0  2  0  0  0  0  0  0
  184.7230  179.1480  140.4670 C   0  0  0  0  0  0  0  0  0  0  0  0
  184.9250  180.0880  139.4670 O   0  0  0  0  0  1  0  0  0  0  0  0
  183.5060  178.6510  140.6540 C   0  0  0  0  0  2  0  0  0  0  0  0
  186.4560  176.7470  137.5370 C   0  0  0  0  0  0  0  0  0  0  0  0
  186.7940  175.5340  137.6150 O   0  0  0  0  0  0  0  0  0  0  0  0
  185.1230  177.1030  137.7820 O   0  0  0  0  0  0  0  0  0  0  0  0
  184.0890  176.9610  136.8140 C   0  0  0  0  0  2  0  0  0  0  0  0
  183.2560  175.7190  137.1020 C   0  0  0  0  0  2  0  0  0  0  0  0
  181.7120  176.0390  138.9820 C   0  0  0  0  0  0  0  0  0  0  0  0
  180.4940  176.3570  139.4890 F   0  0  0  0  0  0  0  0  0  0  0  0
  181.9330  176.1080  137.6690 C   0  0  0  0  0  0  0  0  0  0  0  0
  182.6900  175.6210  139.8310 F   0  0  0  0  0  0  0  0  0  0  0  0
  180.8850  176.5030  136.7850 N   0  0  0  0  0  1  0  0  0  0  0  0
  1 12  1  0  0  0  0
  2 14  1  0  0  0  0
  3 13  1  0  0  0  0
  4 10  1  0  0  0  0
  5  1  1  0  0  0  0
  7 16  2  0  0  0  0
  8 27  1  1  0  0  0
  8 18  1  0  0  0  0
  9 20  1  1  0  0  0
  9  2  1  0  0  0  0
 10  5  2  0  0  0  0
 11  5  1  6  0  0  0
 11  9  1  0  0  0  0
 12 20  1  0  0  0  0
 13 21  1  0  0  0  0
 13 14  1  1  0  0  0
 15  6  1  6  0  0  0
 15 11  1  0  0  0  0
 15 19  1  0  0  0  0
 16 17  1  0  0  0  0
 16  8  1  0  0  0  0
 17  4  2  0  0  0  0
 18 10  1  1  0  0  0
 18  6  1  0  0  0  0
 19 24  1  6  0  0  0
 19  3  1  0  0  0  0
 21 23  1  6  0  0  0
 21 22  1  0  0  0  0
 23 22  1  0  0  0  0
 24 26  2  0  0  0  0
 25 24  1  0  0  0  0
 27 28  2  0  0  0  0
 27 29  1  0  0  0  0
 30 31  1  0  0  0  0
 30 29  1  0  0  0  0
 31 34  1  0  0  0  0
 32 33  1  0  0  0  0
 32 35  1  0  0  0  0
 34 32  2  0  0  0  0
 36 34  1  0  0  0  0
M  END
>  <MODEL>
5

>  <REMARK>
 VINA RESULT:      -6.7      3.620      6.520
  Name = 
  7 active torsions:
  status: ('A' for Active; 'I' for Inactive)
    1  A    between atoms: C_1  and  C_21
    2  A    between atoms: C_2  and  C_24
    3  A    between atoms: C_2  and  C_36
    4  A    between atoms: O_7  and  C_23
    5  A    between atoms: O_7  and  C_36
    6  A    between atoms: C_14  and  C_34
    7  A    between atoms: C_15  and  C_23
                            x       y       z     vdW  Elec       q    Type
                         _______ _______ _______ _____ _____    ______ ____

>  <TORSDO>
F 7

$$$$
=
 OpenBabel11062417113D

 36 40  0  0  1  0  0  0  0  0999 V2000
  188.4860  177.6880  146.2570 C   0  0  0  0  0  2  0  0  0  0  0  0
  191.4440  176.8990  143.4610 C   0  0  0  0  0  2  0  0  0  0  0  0
  190.2750  178.2070  141.1030 O   0  0  0  0  0  0  0  0  0  0  0  0
  185.6870  177.9710  145.5850 C   0  0  0  0  0  3  0  0  0  0  0  0
  187.9920  177.4840  144.8450 C   0  0  0  0  0  0  0  0  0  0  0  0
  187.1030  176.8370  142.2180 O   0  0  0  0  0  0  0  0  0  0  0  0
  182.9390  178.9300  143.4970 O   0  0  0  0  0  0  0  0  0  0  0  0
  185.0690  178.1900  142.6920 C   0  0  2  0  0  3  0  0  0  0  0  0
  190.3490  177.8560  143.9000 C   0  0  1  0  0  3  0  0  0  0  0  0
  186.6770  177.5500  144.5770 C   0  0  0  0  0  0  0  0  0  0  0  0
  188.9610  177.1950  143.7110 C   0  0  2  0  0  3  0  0  0  0  0  0
  189.9930  177.5180  146.3630 C   0  0  0  0  0  2  0  0  0  0  0  0
  191.4410  177.4270  141.0090 C   0  0  2  0  0  3  0  0  0  0  0  0
  192.2310  177.5010  142.3090 C   0  0  0  0  0  2  0  0  0  0  0  0
  188.3030  177.5700  142.3600 C   0  0  1  0  0  3  0  0  0  0  0  0
  184.0910  178.5130  143.7940 C   0  0  0  0  0  0  0  0  0  0  0  0
  184.4740  178.3970  145.2170 C   0  0  0  0  0  3  0  0  0  0  0  0
  186.1540  177.2250  143.1940 C   0  0  2  0  0  3  0  0  0  0  0  0
  189.2150  177.2900  141.1470 C   0  0  1  0  0  3  0  0  0  0  0  0
  190.6520  178.3850  145.3040 C   0  0  0  0  0  2  0  0  0  0  0  0
  192.3470  177.8540  139.8440 C   0  0  1  0  0  3  0  0  0  0  0  0
  193.5520  177.1230  139.8630 O   0  0  0  0  0  0  0  0  0  0  0  0
  192.6120  176.7600  138.8740 C   0  0  0  0  0  2  0  0  0  0  0  0
  188.4540  177.3330  139.8500 C   0  0  0  0  0  0  0  0  0  0  0  0
  187.6610  178.4350  139.5630 O   0  0  0  0  0  1  0  0  0  0  0  0
  188.5390  176.3470  138.9650 C   0  0  0  0  0  2  0  0  0  0  0  0
  185.6370  179.4420  142.0780 C   0  0  0  0  0  0  0  0  0  0  0  0
  186.3300  180.2290  142.7790 O   0  0  0  0  0  0  0  0  0  0  0  0
  185.3970  179.7530  140.7340 O   0  0  0  0  0  0  0  0  0  0  0  0
  184.2400  179.3170  140.0270 C   0  0  0  0  0  2  0  0  0  0  0  0
  184.5620  179.1120  138.5540 C   0  0  0  0  0  2  0  0  0  0  0  0
  185.2660  177.1280  137.2930 C   0  0  0  0  0  0  0  0  0  0  0  0
  185.1370  175.8230  136.9460 F   0  0  0  0  0  0  0  0  0  0  0  0
  184.4510  177.6670  138.2000 C   0  0  0  0  0  0  0  0  0  0  0  0
  186.2180  177.8820  136.6770 F   0  0  0  0  0  0  0  0  0  0  0  0
  183.4270  176.8780  138.8030 N   0  0  0  0  0  1  0  0  0  0  0  0
  1 12  1  0  0  0  0
  3 19  1  0  0  0  0
  5  1  1  0  0  0  0
  7 16  2  0  0  0  0
  8 27  1  1  0  0  0
  8 18  1  0  0  0  0
  8 16  1  0  0  0  0
  9  2  1  1  0  0  0
  9 20  1  0  0  0  0
 10  5  2  0  0  0  0
 10  4  1  0  0  0  0
 11  9  1  0  0  0  0
 11  5  1  1  0  0  0
 13  3  1  0  0  0  0
 13 14  1  1  0  0  0
 14  2  1  0  0  0  0
 15  6  1  6  0  0  0
 15 11  1  0  0  0  0
 16 17  1  0  0  0  0
 17  4  2  0  0  0  0
 18  6  1  6  0  0  0
 18 10  1  0  0  0  0
 19 24  1  6  0  0  0
 19 15  1  0  0  0  0
 20 12  1  0  0  0  0
 21 23  1  6  0  0  0
 21 22  1  0  0  0  0
 21 13  1  0  0  0  0
 23 22  1  0  0  0  0
 25 24  1  0  0  0  0
 26 24  2  0  0  0  0
 27 28  2  0  0  0  0
 29 27  1  0  0  0  0
 30 29  1  0  0  0  0
 31 30  1  0  0  0  0
 32 34  2  0  0  0  0
 33 32  1  0  0  0  0
 34 31  1  0  0  0  0
 34 36  1  0  0  0  0
 35 32  1  0  0  0  0
M  END
>  <MODEL>
6

>  <REMARK>
 VINA RESULT:      -6.4      2.376      4.555
  Name = 
  7 active torsions:
  status: ('A' for Active; 'I' for Inactive)
    1  A    between atoms: C_1  and  C_21
    2  A    between atoms: C_2  and  C_24
    3  A    between atoms: C_2  and  C_36
    4  A    between atoms: O_7  and  C_23
    5  A    between atoms: O_7  and  C_36
    6  A    between atoms: C_14  and  C_34
    7  A    between atoms: C_15  and  C_23
                            x       y       z     vdW  Elec       q    Type
                         _______ _______ _______ _____ _____    ______ ____

>  <TORSDO>
F 7

$$$$
=
 OpenBabel11062417113D

 36 40  0  0  1  0  0  0  0  0999 V2000
  188.5210  177.7540  146.0640 C   0  0  0  0  0  2  0  0  0  0  0  0
  191.4840  176.8870  143.2960 C   0  0  0  0  0  2  0  0  0  0  0  0
  190.3310  178.1510  140.9070 O   0  0  0  0  0  0  0  0  0  0  0  0
  185.7270  178.0410  145.3770 C   0  0  0  0  0  3  0  0  0  0  0  0
  188.0310  177.5230  144.6550 C   0  0  0  0  0  0  0  0  0  0  0  0
  187.1470  176.8260  142.0400 O   0  0  0  0  0  0  0  0  0  0  0  0
  182.9920  178.9720  143.2590 O   0  0  0  0  0  0  0  0  0  0  0  0
  185.1200  178.2020  142.4780 C   0  0  2  0  0  3  0  0  0  0  0  0
  190.3930  177.8600  143.7110 C   0  0  1  0  0  3  0  0  0  0  0  0
  186.7180  177.5920  144.3820 C   0  0  0  0  0  0  0  0  0  0  0  0
  189.0020  177.2040  143.5310 C   0  0  2  0  0  3  0  0  0  0  0  0
  190.0280  177.5770  146.1790 C   0  0  0  0  0  2  0  0  0  0  0  0
  191.4920  177.3630  140.8330 C   0  0  2  0  0  3  0  0  0  0  0  0
  192.2790  177.4590  142.1340 C   0  0  0  0  0  2  0  0  0  0  0  0
  188.3510  177.5540  142.1700 C   0  0  1  0  0  3  0  0  0  0  0  0
  184.1410  178.5540  143.5690 C   0  0  0  0  0  0  0  0  0  0  0  0
  184.5180  178.4660  144.9950 C   0  0  0  0  0  3  0  0  0  0  0  0
  186.1970  177.2400  143.0050 C   0  0  2  0  0  3  0  0  0  0  0  0
  189.2650  177.2420  140.9670 C   0  0  1  0  0  3  0  0  0  0  0  0
  190.6950  178.4170  145.1050 C   0  0  0  0  0  2  0  0  0  0  0  0
  192.4050  177.7590  139.6630 C   0  0  1  0  0  3  0  0  0  0  0  0
  193.6250  177.0560  139.7290 O   0  0  0  0  0  0  0  0  0  0  0  0
  192.7070  176.6300  138.7450 C   0  0  0  0  0  2  0  0  0  0  0  0
  188.5090  177.2630  139.6670 C   0  0  0  0  0  0  0  0  0  0  0  0
  187.7830  178.3930  139.3190 O   0  0  0  0  0  1  0  0  0  0  0  0
  188.5360  176.2280  138.8350 C   0  0  0  0  0  2  0  0  0  0  0  0
  185.6970  179.4360  141.8390 C   0  0  0  0  0  0  0  0  0  0  0  0
  186.3720  180.2470  142.5310 O   0  0  0  0  0  0  0  0  0  0  0  0
  185.4890  179.7050  140.4810 O   0  0  0  0  0  0  0  0  0  0  0  0
  184.6520  178.9090  139.6480 C   0  0  0  0  0  2  0  0  0  0  0  0
  183.3280  179.6150  139.3920 C   0  0  0  0  0  2  0  0  0  0  0  0
  181.0090  179.3450  140.1470 C   0  0  0  0  0  0  0  0  0  0  0  0
  179.9930  178.5980  140.6480 F   0  0  0  0  0  0  0  0  0  0  0  0
  182.1970  178.7890  139.9030 C   0  0  0  0  0  0  0  0  0  0  0  0
  180.8040  180.6720  139.9280 F   0  0  0  0  0  0  0  0  0  0  0  0
  182.4120  177.4070  140.1810 N   0  0  0  0  0  1  0  0  0  0  0  0
  1 12  1  0  0  0  0
  3 19  1  0  0  0  0
  5  1  1  0  0  0  0
  7 16  2  0  0  0  0
  8 27  1  1  0  0  0
  8 18  1  0  0  0  0
  8 16  1  0  0  0  0
  9  2  1  1  0  0  0
  9 20  1  0  0  0  0
 10  5  2  0  0  0  0
 10  4  1  0  0  0  0
 11  9  1  0  0  0  0
 11  5  1  1  0  0  0
 13  3  1  0  0  0  0
 13 14  1  1  0  0  0
 14  2  1  0  0  0  0
 15  6  1  6  0  0  0
 15 11  1  0  0  0  0
 16 17  1  0  0  0  0
 17  4  2  0  0  0  0
 18  6  1  6  0  0  0
 18 10  1  0  0  0  0
 19 24  1  6  0  0  0
 19 15  1  0  0  0  0
 20 12  1  0  0  0  0
 21 23  1  6  0  0  0
 21 22  1  0  0  0  0
 21 13  1  0  0  0  0
 23 22  1  0  0  0  0
 25 24  1  0  0  0  0
 26 24  2  0  0  0  0
 27 28  2  0  0  0  0
 29 27  1  0  0  0  0
 30 29  1  0  0  0  0
 31 30  1  0  0  0  0
 31 34  1  0  0  0  0
 32 33  1  0  0  0  0
 34 32  2  0  0  0  0
 34 36  1  0  0  0  0
 35 32  1  0  0  0  0
M  END
>  <MODEL>
7

>  <REMARK>
 VINA RESULT:      -6.4      3.097      5.259
  Name = 
  7 active torsions:
  status: ('A' for Active; 'I' for Inactive)
    1  A    between atoms: C_1  and  C_21
    2  A    between atoms: C_2  and  C_24
    3  A    between atoms: C_2  and  C_36
    4  A    between atoms: O_7  and  C_23
    5  A    between atoms: O_7  and  C_36
    6  A    between atoms: C_14  and  C_34
    7  A    between atoms: C_15  and  C_23
                            x       y       z     vdW  Elec       q    Type
                         _______ _______ _______ _____ _____    ______ ____

>  <TORSDO>
F 7

$$$$
=
 OpenBabel11062417113D

 36 40  0  0  1  0  0  0  0  0999 V2000
  183.2240  174.0830  137.2680 C   0  0  0  0  0  2  0  0  0  0  0  0
  187.2440  173.8110  136.2950 C   0  0  0  0  0  2  0  0  0  0  0  0
  188.3200  175.9650  137.9790 O   0  0  0  0  0  0  0  0  0  0  0  0
  181.9290  176.5510  138.0390 C   0  0  0  0  0  3  0  0  0  0  0  0
  183.9720  175.3940  137.2730 C   0  0  0  0  0  0  0  0  0  0  0  0
  185.3760  177.8570  137.0170 O   0  0  0  0  0  0  0  0  0  0  0  0
  181.7670  179.7720  139.5980 O   0  0  0  0  0  0  0  0  0  0  0  0
  183.7380  178.8310  138.6170 C   0  0  2  0  0  3  0  0  0  0  0  0
  186.2300  174.1760  137.3640 C   0  0  1  0  0  3  0  0  0  0  0  0
  183.3260  176.5340  137.5650 C   0  0  0  0  0  0  0  0  0  0  0  0
  185.4550  175.4500  136.9450 C   0  0  2  0  0  3  0  0  0  0  0  0
  184.1150  172.9200  136.8590 C   0  0  0  0  0  2  0  0  0  0  0  0
  189.1250  175.2940  137.0410 C   0  0  2  0  0  3  0  0  0  0  0  0
  188.6500  173.8560  136.8720 C   0  0  0  0  0  2  0  0  0  0  0  0
  186.0680  176.7420  137.5390 C   0  0  1  0  0  3  0  0  0  0  0  0
  182.2750  178.7960  138.9830 C   0  0  0  0  0  0  0  0  0  0  0  0
  181.4370  177.6170  138.6790 C   0  0  0  0  0  3  0  0  0  0  0  0
  184.0290  177.8700  137.4540 C   0  0  2  0  0  3  0  0  0  0  0  0
  187.5730  176.8900  137.2360 C   0  0  1  0  0  3  0  0  0  0  0  0
  185.3730  172.9550  137.7080 C   0  0  0  0  0  2  0  0  0  0  0  0
  190.6110  175.2910  137.4300 C   0  0  1  0  0  3  0  0  0  0  0  0
  191.3830  174.6840  136.4180 O   0  0  0  0  0  0  0  0  0  0  0  0
  191.4600  176.0910  136.5100 C   0  0  0  0  0  2  0  0  0  0  0  0
  188.0680  178.2820  137.5160 C   0  0  0  0  0  0  0  0  0  0  0  0
  187.6350  179.3320  136.7180 O   0  0  0  0  0  1  0  0  0  0  0  0
  188.8990  178.5310  138.5220 C   0  0  0  0  0  2  0  0  0  0  0  0
  184.6100  178.5810  139.8170 C   0  0  0  0  0  0  0  0  0  0  0  0
  185.7760  179.0600  139.8600 O   0  0  0  0  0  0  0  0  0  0  0  0
  184.1480  177.8100  140.8920 O   0  0  0  0  0  0  0  0  0  0  0  0
  183.8530  178.3580  142.1730 C   0  0  0  0  0  2  0  0  0  0  0  0
  185.0720  178.2780  143.0800 C   0  0  0  0  0  2  0  0  0  0  0  0
  185.6170  178.6490  145.4440 C   0  0  0  0  0  0  0  0  0  0  0  0
  185.2660  178.9410  146.7210 F   0  0  0  0  0  0  0  0  0  0  0  0
  184.6980  178.6390  144.4780 C   0  0  0  0  0  0  0  0  0  0  0  0
  186.9140  178.3390  145.1730 F   0  0  0  0  0  0  0  0  0  0  0  0
  183.3330  178.9200  144.7840 N   0  0  0  0  0  1  0  0  0  0  0  0
  1  5  1  0  0  0  0
  2 14  1  0  0  0  0
  4 17  2  0  0  0  0
  5 10  2  0  0  0  0
  8 16  1  0  0  0  0
  8 27  1  1  0  0  0
  9  2  1  6  0  0  0
  9 20  1  0  0  0  0
 10  4  1  0  0  0  0
 11  5  1  1  0  0  0
 11  9  1  0  0  0  0
 11 15  1  0  0  0  0
 12  1  1  0  0  0  0
 12 20  1  0  0  0  0
 13 14  1  1  0  0  0
 13 21  1  0  0  0  0
 13  3  1  0  0  0  0
 15  6  1  6  0  0  0
 16  7  2  0  0  0  0
 17 16  1  0  0  0  0
 18  6  1  1  0  0  0
 18 10  1  0  0  0  0
 18  8  1  0  0  0  0
 19 24  1  1  0  0  0
 19 15  1  0  0  0  0
 19  3  1  0  0  0  0
 21 23  1  6  0  0  0
 22 23  1  0  0  0  0
 22 21  1  0  0  0  0
 24 26  2  0  0  0  0
 25 24  1  0  0  0  0
 27 28  2  0  0  0  0
 27 29  1  0  0  0  0
 29 30  1  0  0  0  0
 30 31  1  0  0  0  0
 31 34  1  0  0  0  0
 32 33  1  0  0  0  0
 34 36  1  0  0  0  0
 34 32  2  0  0  0  0
 35 32  1  0  0  0  0
M  END
>  <MODEL>
8

>  <REMARK>
 VINA RESULT:      -6.3      4.628      8.113
  Name = 
  7 active torsions:
  status: ('A' for Active; 'I' for Inactive)
    1  A    between atoms: C_1  and  C_21
    2  A    between atoms: C_2  and  C_24
    3  A    between atoms: C_2  and  C_36
    4  A    between atoms: O_7  and  C_23
    5  A    between atoms: O_7  and  C_36
    6  A    between atoms: C_14  and  C_34
    7  A    between atoms: C_15  and  C_23
                            x       y       z     vdW  Elec       q    Type
                         _______ _______ _______ _____ _____    ______ ____

>  <TORSDO>
F 7

$$$$
=
 OpenBabel11062417113D

 36 40  0  0  1  0  0  0  0  0999 V2000
  182.0760  178.5060  141.8940 C   0  0  0  0  0  2  0  0  0  0  0  0
  183.8820  178.2600  138.1700 C   0  0  0  0  0  2  0  0  0  0  0  0
  186.5230  177.2380  138.9550 O   0  0  0  0  0  0  0  0  0  0  0  0
  183.5260  179.0210  144.3430 C   0  0  0  0  0  3  0  0  0  0  0  0
  183.5610  178.7770  141.8850 C   0  0  0  0  0  0  0  0  0  0  0  0
  186.3050  179.5270  141.7630 O   0  0  0  0  0  0  0  0  0  0  0  0
  186.3450  178.8070  146.5420 O   0  0  0  0  0  0  0  0  0  0  0  0
  186.4810  178.8520  144.1520 C   0  0  2  0  0  3  0  0  0  0  0  0
  183.8100  177.6870  139.5750 C   0  0  1  0  0  3  0  0  0  0  0  0
  184.1940  179.0850  143.0290 C   0  0  0  0  0  0  0  0  0  0  0  0
  184.3610  178.7140  140.5940 C   0  0  2  0  0  3  0  0  0  0  0  0
  181.5390  178.2330  140.4970 C   0  0  0  0  0  2  0  0  0  0  0  0
  186.2520  177.6370  137.6340 C   0  0  2  0  0  3  0  0  0  0  0  0
  184.7850  177.3980  137.3020 C   0  0  0  0  0  2  0  0  0  0  0  0
  185.8560  178.4840  140.9230 C   0  0  1  0  0  3  0  0  0  0  0  0
  185.7170  178.8830  145.4510 C   0  0  0  0  0  0  0  0  0  0  0  0
  184.2400  178.9510  145.4700 C   0  0  0  0  0  3  0  0  0  0  0  0
  185.6550  179.4820  143.0200 C   0  0  2  0  0  3  0  0  0  0  0  0
  186.7480  178.4260  139.6650 C   0  0  1  0  0  3  0  0  0  0  0  0
  182.3990  177.1610  139.8510 C   0  0  0  0  0  2  0  0  0  0  0  0
  187.1270  176.9080  136.6030 C   0  0  1  0  0  3  0  0  0  0  0  0
  187.2510  177.6790  135.4290 O   0  0  0  0  0  0  0  0  0  0  0  0
  188.3800  177.6360  136.2760 C   0  0  0  0  0  2  0  0  0  0  0  0
  188.2080  178.5430  140.0060 C   0  0  0  0  0  0  0  0  0  0  0  0
  189.0190  179.3760  139.2480 O   0  0  0  0  0  1  0  0  0  0  0  0
  188.7350  177.8800  141.0280 C   0  0  0  0  0  2  0  0  0  0  0  0
  186.9560  177.4620  143.8280 C   0  0  0  0  0  0  0  0  0  0  0  0
  186.2120  176.6770  143.1790 O   0  0  0  0  0  0  0  0  0  0  0  0
  188.2170  177.0190  144.2470 O   0  0  0  0  0  0  0  0  0  0  0  0
  189.3310  177.8890  144.4210 C   0  0  0  0  0  2  0  0  0  0  0  0
  189.9310  177.7150  145.8090 C   0  0  0  0  0  2  0  0  0  0  0  0
  191.6780  176.3650  146.8790 C   0  0  0  0  0  0  0  0  0  0  0  0
  192.7490  175.5330  146.8260 F   0  0  0  0  0  0  0  0  0  0  0  0
  191.0820  176.7680  145.7570 C   0  0  0  0  0  0  0  0  0  0  0  0
  191.2460  176.8040  148.0930 F   0  0  0  0  0  0  0  0  0  0  0  0
  191.5740  176.3380  144.4890 N   0  0  0  0  0  1  0  0  0  0  0  0
  3 19  1  0  0  0  0
  4 17  2  0  0  0  0
  5  1  1  0  0  0  0
  5 10  2  0  0  0  0
  8 27  1  6  0  0  0
  8 16  1  0  0  0  0
  9  2  1  6  0  0  0
  9 20  1  0  0  0  0
  9 11  1  0  0  0  0
 10  4  1  0  0  0  0
 11 15  1  0  0  0  0
 11  5  1  1  0  0  0
 12  1  1  0  0  0  0
 13 14  1  6  0  0  0
 13  3  1  0  0  0  0
 14  2  1  0  0  0  0
 15  6  1  1  0  0  0
 16 17  1  0  0  0  0
 16  7  2  0  0  0  0
 18  6  1  6  0  0  0
 18 10  1  0  0  0  0
 18  8  1  0  0  0  0
 19 24  1  1  0  0  0
 19 15  1  0  0  0  0
 20 12  1  0  0  0  0
 21 23  1  1  0  0  0
 21 13  1  0  0  0  0
 22 23  1  0  0  0  0
 22 21  1  0  0  0  0
 24 26  2  0  0  0  0
 25 24  1  0  0  0  0
 27 29  1  0  0  0  0
 28 27  2  0  0  0  0
 29 30  1  0  0  0  0
 30 31  1  0  0  0  0
 32 35  1  0  0  0  0
 33 32  1  0  0  0  0
 34 31  1  0  0  0  0
 34 32  2  0  0  0  0
 36 34  1  0  0  0  0
M  END
>  <MODEL>
9

>  <REMARK>
 VINA RESULT:      -6.1      3.541      7.421
  Name = 
  7 active torsions:
  status: ('A' for Active; 'I' for Inactive)
    1  A    between atoms: C_1  and  C_21
    2  A    between atoms: C_2  and  C_24
    3  A    between atoms: C_2  and  C_36
    4  A    between atoms: O_7  and  C_23
    5  A    between atoms: O_7  and  C_36
    6  A    between atoms: C_14  and  C_34
    7  A    between atoms: C_15  and  C_23
                            x       y       z     vdW  Elec       q    Type
                         _______ _______ _______ _____ _____    ______ ____

>  <TORSDO>
F 7

$$$$
