=
 OpenBabel11062413353D

 42 45  0  0  1  0  0  0  0  0999 V2000
  189.8100  177.5940  138.5980 C   0  0  2  0  0  3  0  0  0  0  0  0
  189.5510  177.4200  140.1090 C   0  0  1  0  0  3  0  0  0  0  0  0
  188.6940  176.8710  144.2690 C   0  0  0  0  0  3  0  0  0  0  0  0
  188.9520  176.8940  142.7810 C   0  0  1  0  0  3  0  0  0  0  0  0
  189.6380  177.1360  145.1830 C   0  0  0  0  0  3  0  0  0  0  0  0
  190.7830  177.0240  140.9390 C   0  0  2  0  0  3  0  0  0  0  0  0
  188.1730  178.0560  142.1340 C   0  0  1  0  0  3  0  0  0  0  0  0
  188.7100  178.5080  140.7710 C   0  0  0  0  0  2  0  0  0  0  0  0
  190.4620  176.9050  142.4500 C   0  0  1  0  0  3  0  0  0  0  0  0
  191.2530  177.8460  143.3700 C   0  0  1  0  0  3  0  0  0  0  0  0
  190.8330  179.1700  143.2200 O   0  0  0  0  0  1  0  0  0  0  0  0
  191.0780  177.3940  144.8170 C   0  0  0  0  0  2  0  0  0  0  0  0
  186.7690  177.6930  142.0060 N   0  0  0  0  0  2  0  0  0  0  0  0
  186.0170  179.9010  142.1390 O   0  0  0  0  0  0  0  0  0  0  0  0
  185.7350  178.6780  142.0190 C   0  0  0  0  0  0  0  0  0  0  0  0
  184.3100  178.2530  141.9290 C   0  0  0  0  0  2  0  0  0  0  0  0
  182.4110  179.0760  143.1110 O   0  0  0  0  0  0  0  0  0  0  0  0
  184.2120  178.5030  144.4090 O   0  0  0  0  0  1  0  0  0  0  0  0
  183.5850  178.6270  143.1760 C   0  0  0  0  0  0  0  0  0  0  0  0
  191.8660  177.8780  140.7030 O   0  0  0  0  0  0  0  0  0  0  0  0
  192.9700  177.0310  140.5680 C   0  0  0  0  0  1  0  0  0  0  0  0
  188.5630  177.9610  137.7640 C   0  0  2  0  0  3  0  0  0  0  0  0
  188.6820  179.3780  137.2180 C   0  0  0  0  0  1  0  0  0  0  0  0
  187.2910  177.8770  138.5920 C   0  0  0  0  0  2  0  0  0  0  0  0
  184.7950  176.0480  136.6700 C   0  0  2  0  0  3  0  0  0  0  0  0
  186.0790  177.6440  137.7030 C   0  0  1  0  0  3  0  0  0  0  0  0
  182.3500  178.1690  138.7410 C   0  0  0  0  0  2  0  0  0  0  0  0
  181.2220  179.9380  137.6680 O   0  0  0  0  0  0  0  0  0  0  0  0
  183.0840  177.5020  135.9880 C   0  0  0  0  0  2  0  0  0  0  0  0
  181.7500  178.8440  137.5520 C   0  0  0  0  0  0  0  0  0  0  0  0
  184.8790  179.4340  138.7190 O   0  0  0  0  0  0  0  0  0  0  0  0
  183.6380  177.4250  138.3510 C   0  0  1  0  0  3  0  0  0  0  0  0
  183.5050  176.6380  137.0990 N   0  0  2  0  0  0  0  0  0  0  0  0
  184.6140  174.5580  136.4520 C   0  0  0  0  0  1  0  0  0  0  0  0
  185.8500  176.2550  137.5930 O   0  0  0  0  0  0  0  0  0  0  0  0
  184.8700  178.2830  138.3110 C   0  0  0  0  0  0  0  0  0  0  0  0
  181.7150  178.1210  136.2500 C   0  0  0  0  0  2  0  0  0  0  0  0
  190.4940  176.3360  138.0320 C   0  0  2  0  0  3  0  0  0  0  0  0
  191.7910  176.6350  137.5930 O   0  0  0  0  0  1  0  0  0  0  0  0
  189.9980  175.9300  135.7020 N   0  0  0  0  0  2  0  0  0  0  0  0
  188.7980  174.6110  137.2240 N   0  0  0  0  0  1  0  0  0  0  0  0
  189.7130  175.6660  136.9340 C   0  0  0  0  0  0  0  0  0  0  0  0
  1 22  1  6  0  0  0
  2  1  1  6  0  0  0
  2  8  1  0  0  0  0
  2  6  1  0  0  0  0
  3  5  2  0  0  0  0
  4  3  1  1  0  0  0
  6 20  1  1  0  0  0
  6  9  1  0  0  0  0
  7 13  1  6  0  0  0
  7  4  1  0  0  0  0
  8  7  1  0  0  0  0
  9  4  1  0  0  0  0
  9 10  1  0  0  0  0
 10 12  1  0  0  0  0
 11 10  1  0  0  0  0
 12  5  1  0  0  0  0
 13 15  1  0  0  0  0
 15 14  2  0  0  0  0
 16 15  1  0  0  0  0
 16 19  1  0  0  0  0
 17 19  2  0  0  0  0
 19 18  1  0  0  0  0
 21 20  1  0  0  0  0
 22 24  1  0  0  0  0
 23 22  1  0  0  0  0
 25 33  1  0  0  0  0
 25 35  1  0  0  0  0
 26 36  1  0  0  0  0
 26 24  1  0  0  0  0
 29 37  1  0  0  0  0
 29 33  1  0  0  0  0
 30 28  2  0  0  0  0
 30 27  1  0  0  0  0
 32 27  1  0  0  0  0
 33 32  1  0  0  0  0
 34 25  1  0  0  0  0
 35 26  1  0  0  0  0
 36 32  1  0  0  0  0
 36 31  2  0  0  0  0
 37 30  1  0  0  0  0
 38  1  1  0  0  0  0
 39 38  1  0  0  0  0
 40 42  2  0  0  0  0
 42 41  1  0  0  0  0
 42 38  1  0  0  0  0
M  END
>  <MODEL>
1

>  <REMARK>
 VINA RESULT:      -7.4      0.000      0.000
  Name = 
  10 active torsions:
  status: ('A' for Active; 'I' for Inactive)
    1  A    between atoms: C_3  and  C_23
    2  A    between atoms: C_4  and  C_13
    3  A    between atoms: C_4  and  C_23
    4  A    between atoms: C_5  and  C_13
    5  A    between atoms: N_9  and  C_24
    6  A    between atoms: C_11  and  C_16
    7  A    between atoms: C_11  and  C_33
    8  A    between atoms: C_13  and  C_35
    9  A    between atoms: O_19  and  C_22
   10  A    between atoms: C_29  and  C_35
                            x       y       z     vdW  Elec       q    Type
                         _______ _______ _______ _____ _____    ______ ____

>  <TORSDO>
F 10

$$$$
=
 OpenBabel11062413353D

 42 45  0  0  1  0  0  0  0  0999 V2000
  189.0400  176.4950  137.0570 C   0  0  2  0  0  3  0  0  0  0  0  0
  187.6680  175.8880  136.6970 C   0  0  1  0  0  3  0  0  0  0  0  0
  183.8100  174.3460  135.6560 C   0  0  0  0  0  3  0  0  0  0  0  0
  185.1710  174.9680  135.8640 C   0  0  1  0  0  3  0  0  0  0  0  0
  183.5960  173.0230  135.6740 C   0  0  0  0  0  3  0  0  0  0  0  0
  187.7220  174.4980  136.0440 C   0  0  2  0  0  3  0  0  0  0  0  0
  185.1900  175.7530  137.1900 C   0  0  1  0  0  3  0  0  0  0  0  0
  186.5870  176.0020  137.7690 C   0  0  0  0  0  2  0  0  0  0  0  0
  186.3120  173.9310  135.7460 C   0  0  1  0  0  3  0  0  0  0  0  0
  185.9700  172.6080  136.4450 C   0  0  1  0  0  3  0  0  0  0  0  0
  185.7820  172.7940  137.8170 O   0  0  0  0  0  1  0  0  0  0  0  0
  184.7120  172.0170  135.8120 C   0  0  0  0  0  2  0  0  0  0  0  0
  184.5020  177.0240  137.0160 N   0  0  0  0  0  2  0  0  0  0  0  0
  183.2020  176.7710  138.9410 O   0  0  0  0  0  0  0  0  0  0  0  0
  183.5080  177.4720  137.9390 C   0  0  0  0  0  0  0  0  0  0  0  0
  182.8020  178.7610  137.6940 C   0  0  0  0  0  2  0  0  0  0  0  0
  184.0840  180.2260  139.0700 O   0  0  0  0  0  0  0  0  0  0  0  0
  181.9170  179.8820  139.7400 O   0  0  0  0  0  1  0  0  0  0  0  0
  182.9740  179.6690  138.8640 C   0  0  0  0  0  0  0  0  0  0  0  0
  188.4960  173.6020  136.7900 O   0  0  0  0  0  0  0  0  0  0  0  0
  189.2300  172.8840  135.8430 C   0  0  0  0  0  1  0  0  0  0  0  0
  188.9790  177.7460  137.9610 C   0  0  2  0  0  3  0  0  0  0  0  0
  188.9620  179.0150  137.1180 C   0  0  0  0  0  1  0  0  0  0  0  0
  190.1720  177.8170  138.9000 C   0  0  0  0  0  2  0  0  0  0  0  0
  187.9050  178.2610  141.7180 C   0  0  2  0  0  3  0  0  0  0  0  0
  189.7230  178.0900  140.3270 C   0  0  1  0  0  3  0  0  0  0  0  0
  190.2540  175.7170  143.3840 C   0  0  0  0  0  2  0  0  0  0  0  0
  191.7410  176.4900  145.0410 O   0  0  0  0  0  0  0  0  0  0  0  0
  189.1280  178.3970  143.7170 C   0  0  0  0  0  2  0  0  0  0  0  0
  190.6710  176.6450  144.4770 C   0  0  0  0  0  0  0  0  0  0  0  0
  191.6110  176.9540  141.2340 O   0  0  0  0  0  0  0  0  0  0  0  0
  189.5130  176.4810  142.2750 C   0  0  1  0  0  3  0  0  0  0  0  0
  188.5040  177.4380  142.7960 N   0  0  2  0  0  0  0  0  0  0  0  0
  186.3940  178.1610  141.7950 C   0  0  0  0  0  1  0  0  0  0  0  0
  188.3280  177.8880  140.4180 O   0  0  0  0  0  0  0  0  0  0  0  0
  190.4050  177.1460  141.2670 C   0  0  0  0  0  0  0  0  0  0  0  0
  189.7190  177.6960  144.9350 C   0  0  0  0  0  2  0  0  0  0  0  0
  189.8400  176.7870  135.7730 C   0  0  2  0  0  3  0  0  0  0  0  0
  189.0440  176.5790  134.6390 O   0  0  0  0  0  1  0  0  0  0  0  0
  191.8320  176.0940  134.5940 N   0  0  0  0  0  2  0  0  0  0  0  0
  191.6460  175.3030  136.7930 N   0  0  0  0  0  1  0  0  0  0  0  0
  191.1180  176.0000  135.6660 C   0  0  0  0  0  0  0  0  0  0  0  0
  1 38  1  6  0  0  0
  1 22  1  0  0  0  0
  2  1  1  1  0  0  0
  2  8  1  0  0  0  0
  3  5  2  0  0  0  0
  4  3  1  1  0  0  0
  4  7  1  0  0  0  0
  5 12  1  0  0  0  0
  6  2  1  0  0  0  0
  6 20  1  1  0  0  0
  7 13  1  6  0  0  0
  7  8  1  0  0  0  0
  9  4  1  0  0  0  0
  9  6  1  0  0  0  0
  9 10  1  0  0  0  0
 10 11  1  0  0  0  0
 12 10  1  0  0  0  0
 13 15  1  0  0  0  0
 15 14  2  0  0  0  0
 16 15  1  0  0  0  0
 16 19  1  0  0  0  0
 19 17  2  0  0  0  0
 19 18  1  0  0  0  0
 21 20  1  0  0  0  0
 22 24  1  0  0  0  0
 23 22  1  0  0  0  0
 24 26  1  0  0  0  0
 25 34  1  0  0  0  0
 25 33  1  0  0  0  0
 26 35  1  0  0  0  0
 26 36  1  0  0  0  0
 27 30  1  0  0  0  0
 29 37  1  0  0  0  0
 30 37  1  0  0  0  0
 30 28  2  0  0  0  0
 31 36  2  0  0  0  0
 32 33  1  0  0  0  0
 32 27  1  0  0  0  0
 33 29  1  0  0  0  0
 35 25  1  0  0  0  0
 36 32  1  0  0  0  0
 39 38  1  0  0  0  0
 40 42  2  0  0  0  0
 42 38  1  0  0  0  0
 42 41  1  0  0  0  0
M  END
>  <MODEL>
2

>  <REMARK>
 VINA RESULT:      -6.7      2.009      7.134
  Name = 
  10 active torsions:
  status: ('A' for Active; 'I' for Inactive)
    1  A    between atoms: C_3  and  C_23
    2  A    between atoms: C_4  and  C_13
    3  A    between atoms: C_4  and  C_23
    4  A    between atoms: C_5  and  C_13
    5  A    between atoms: N_9  and  C_24
    6  A    between atoms: C_11  and  C_16
    7  A    between atoms: C_11  and  C_33
    8  A    between atoms: C_13  and  C_35
    9  A    between atoms: O_19  and  C_22
   10  A    between atoms: C_29  and  C_35
                            x       y       z     vdW  Elec       q    Type
                         _______ _______ _______ _____ _____    ______ ____

>  <TORSDO>
F 10

$$$$
=
 OpenBabel11062413353D

 42 45  0  0  1  0  0  0  0  0999 V2000
  183.0840  177.9660  138.8200 C   0  0  2  0  0  3  0  0  0  0  0  0
  184.2340  177.1520  138.1930 C   0  0  1  0  0  3  0  0  0  0  0  0
  187.5030  174.8990  136.5860 C   0  0  0  0  0  3  0  0  0  0  0  0
  186.3520  175.5790  137.2880 C   0  0  1  0  0  3  0  0  0  0  0  0
  187.4050  174.3680  135.3590 C   0  0  0  0  0  3  0  0  0  0  0  0
  183.7930  176.0390  137.2280 C   0  0  2  0  0  3  0  0  0  0  0  0
  186.6510  177.0830  137.4440 C   0  0  1  0  0  3  0  0  0  0  0  0
  185.4150  177.9630  137.6660 C   0  0  0  0  0  2  0  0  0  0  0  0
  184.9960  175.2880  136.6050 C   0  0  1  0  0  3  0  0  0  0  0  0
  185.0920  175.3490  135.0740 C   0  0  1  0  0  3  0  0  0  0  0  0
  185.4560  176.6270  134.6410 O   0  0  0  0  0  1  0  0  0  0  0  0
  186.1070  174.3160  134.5940 C   0  0  0  0  0  2  0  0  0  0  0  0
  187.5920  177.2840  138.5360 N   0  0  0  0  0  2  0  0  0  0  0  0
  188.9720  178.7090  137.3000 O   0  0  0  0  0  0  0  0  0  0  0  0
  188.7440  178.1180  138.3900 C   0  0  0  0  0  0  0  0  0  0  0  0
  189.7010  178.2580  139.5230 C   0  0  0  0  0  2  0  0  0  0  0  0
  190.1220  176.6460  141.2270 O   0  0  0  0  0  1  0  0  0  0  0  0
  190.5620  175.9580  139.0850 O   0  0  0  0  0  0  0  0  0  0  0  0
  190.1310  176.9110  139.9980 C   0  0  0  0  0  0  0  0  0  0  0  0
  182.9130  176.5150  136.2500 O   0  0  0  0  0  0  0  0  0  0  0  0
  181.9050  175.5500  136.1720 C   0  0  0  0  0  1  0  0  0  0  0  0
  183.5320  179.1920  139.6460 C   0  0  2  0  0  3  0  0  0  0  0  0
  183.5350  180.4470  138.7830 C   0  0  0  0  0  1  0  0  0  0  0  0
  184.9290  179.0040  140.2140 C   0  0  0  0  0  2  0  0  0  0  0  0
  183.6630  179.0140  143.6300 C   0  0  2  0  0  3  0  0  0  0  0  0
  184.9300  179.1830  141.7240 C   0  0  1  0  0  3  0  0  0  0  0  0
  186.8200  176.9250  144.2910 C   0  0  0  0  0  2  0  0  0  0  0  0
  188.6120  177.9430  145.4330 O   0  0  0  0  0  0  0  0  0  0  0  0
  185.4280  179.3560  145.1380 C   0  0  0  0  0  2  0  0  0  0  0  0
  187.4070  177.9070  145.2510 C   0  0  0  0  0  0  0  0  0  0  0  0
  187.1730  178.4010  141.9050 O   0  0  0  0  0  0  0  0  0  0  0  0
  185.6400  177.5500  143.5280 C   0  0  1  0  0  3  0  0  0  0  0  0
  184.7100  178.3060  144.4050 N   0  0  2  0  0  0  0  0  0  0  0  0
  182.2990  178.6430  144.1790 C   0  0  0  0  0  1  0  0  0  0  0  0
  183.6960  178.7320  142.2410 O   0  0  0  0  0  0  0  0  0  0  0  0
  186.0300  178.3710  142.3340 C   0  0  0  0  0  0  0  0  0  0  0  0
  186.4940  178.7660  146.0560 C   0  0  0  0  0  2  0  0  0  0  0  0
  182.1820  177.0430  139.6590 C   0  0  2  0  0  3  0  0  0  0  0  0
  182.7040  175.7430  139.6940 O   0  0  0  0  0  1  0  0  0  0  0  0
  179.9630  176.0850  139.6250 N   0  0  0  0  0  1  0  0  0  0  0  0
  180.1980  178.1050  138.4580 N   0  0  0  0  0  2  0  0  0  0  0  0
  180.7490  177.0170  139.2000 C   0  0  0  0  0  0  0  0  0  0  0  0
  1 22  1  1  0  0  0
  1 38  1  0  0  0  0
  2  1  1  6  0  0  0
  4  3  1  6  0  0  0
  4  7  1  0  0  0  0
  5  3  2  0  0  0  0
  6 20  1  6  0  0  0
  6  2  1  0  0  0  0
  7  8  1  0  0  0  0
  7 13  1  1  0  0  0
  8  2  1  0  0  0  0
  9  6  1  0  0  0  0
  9  4  1  0  0  0  0
 10  9  1  0  0  0  0
 11 10  1  0  0  0  0
 12 10  1  0  0  0  0
 12  5  1  0  0  0  0
 14 15  2  0  0  0  0
 15 13  1  0  0  0  0
 15 16  1  0  0  0  0
 16 19  1  0  0  0  0
 18 19  2  0  0  0  0
 19 17  1  0  0  0  0
 21 20  1  0  0  0  0
 22 24  1  0  0  0  0
 23 22  1  0  0  0  0
 24 26  1  0  0  0  0
 25 34  1  0  0  0  0
 25 33  1  0  0  0  0
 26 35  1  0  0  0  0
 26 36  1  0  0  0  0
 27 30  1  0  0  0  0
 29 37  1  0  0  0  0
 30 28  2  0  0  0  0
 30 37  1  0  0  0  0
 31 36  2  0  0  0  0
 32 27  1  0  0  0  0
 32 33  1  0  0  0  0
 33 29  1  0  0  0  0
 35 25  1  0  0  0  0
 36 32  1  0  0  0  0
 38 39  1  0  0  0  0
 41 42  2  0  0  0  0
 42 40  1  0  0  0  0
 42 38  1  0  0  0  0
M  END
>  <MODEL>
3

>  <REMARK>
 VINA RESULT:      -6.7      2.324      8.000
  Name = 
  10 active torsions:
  status: ('A' for Active; 'I' for Inactive)
    1  A    between atoms: C_3  and  C_23
    2  A    between atoms: C_4  and  C_13
    3  A    between atoms: C_4  and  C_23
    4  A    between atoms: C_5  and  C_13
    5  A    between atoms: N_9  and  C_24
    6  A    between atoms: C_11  and  C_16
    7  A    between atoms: C_11  and  C_33
    8  A    between atoms: C_13  and  C_35
    9  A    between atoms: O_19  and  C_22
   10  A    between atoms: C_29  and  C_35
                            x       y       z     vdW  Elec       q    Type
                         _______ _______ _______ _____ _____    ______ ____

>  <TORSDO>
F 10

$$$$
=
 OpenBabel11062413353D

 42 45  0  0  1  0  0  0  0  0999 V2000
  186.1410  177.0720  136.9770 C   0  0  2  0  0  3  0  0  0  0  0  0
  184.6170  177.1510  137.2030 C   0  0  1  0  0  3  0  0  0  0  0  0
  180.3850  177.5050  137.7590 C   0  0  0  0  0  3  0  0  0  0  0  0
  181.8480  177.4190  137.3920 C   0  0  1  0  0  3  0  0  0  0  0  0
  179.6920  176.4750  138.2660 C   0  0  0  0  0  3  0  0  0  0  0  0
  183.8670  175.8170  137.0540 C   0  0  2  0  0  3  0  0  0  0  0  0
  182.6760  178.3150  138.3350 C   0  0  1  0  0  3  0  0  0  0  0  0
  184.1640  177.9560  138.4180 C   0  0  0  0  0  2  0  0  0  0  0  0
  182.3500  175.9580  137.3330 C   0  0  1  0  0  3  0  0  0  0  0  0
  181.8090  175.1090  138.4910 C   0  0  1  0  0  3  0  0  0  0  0  0
  182.2470  175.5990  139.7240 O   0  0  0  0  0  1  0  0  0  0  0  0
  180.2840  175.0980  138.4340 C   0  0  0  0  0  2  0  0  0  0  0  0
  182.5340  179.7070  137.9350 N   0  0  0  0  0  2  0  0  0  0  0  0
  181.1800  180.2630  139.7570 O   0  0  0  0  0  0  0  0  0  0  0  0
  181.7610  180.6330  138.7010 C   0  0  0  0  0  0  0  0  0  0  0  0
  181.6110  182.0380  138.2280 C   0  0  0  0  0  2  0  0  0  0  0  0
  179.3130  181.9730  137.5960 O   0  0  0  0  0  1  0  0  0  0  0  0
  180.7980  182.3510  135.8900 O   0  0  0  0  0  0  0  0  0  0  0  0
  180.5070  182.1250  137.2290 C   0  0  0  0  0  0  0  0  0  0  0  0
  184.4460  174.8040  137.8270 O   0  0  0  0  0  0  0  0  0  0  0  0
  184.5490  173.7080  136.9680 C   0  0  0  0  0  1  0  0  0  0  0  0
  186.9690  178.1010  137.7780 C   0  0  2  0  0  3  0  0  0  0  0  0
  187.4570  179.2200  136.8680 C   0  0  0  0  0  1  0  0  0  0  0  0
  188.1820  177.4570  138.4300 C   0  0  0  0  0  2  0  0  0  0  0  0
  187.2990  178.6560  141.7560 C   0  0  2  0  0  3  0  0  0  0  0  0
  188.3760  177.9770  139.8470 C   0  0  1  0  0  3  0  0  0  0  0  0
  189.7560  175.9190  142.8660 C   0  0  0  0  0  2  0  0  0  0  0  0
  191.8660  176.5780  143.6830 O   0  0  0  0  0  0  0  0  0  0  0  0
  189.2200  178.7860  143.0980 C   0  0  0  0  0  2  0  0  0  0  0  0
  190.6910  176.8700  143.5370 C   0  0  0  0  0  0  0  0  0  0  0  0
  190.3000  176.6120  140.1790 O   0  0  0  0  0  0  0  0  0  0  0  0
  188.7440  176.6760  141.9910 C   0  0  1  0  0  3  0  0  0  0  0  0
  188.1610  177.8640  142.6660 N   0  0  2  0  0  0  0  0  0  0  0  0
  185.9430  178.8600  142.4040 C   0  0  0  0  0  1  0  0  0  0  0  0
  187.1180  178.0600  140.4830 O   0  0  0  0  0  0  0  0  0  0  0  0
  189.2430  177.0350  140.6220 C   0  0  0  0  0  0  0  0  0  0  0  0
  190.1470  178.1310  144.1160 C   0  0  0  0  0  2  0  0  0  0  0  0
  186.4560  177.1710  135.4730 C   0  0  2  0  0  3  0  0  0  0  0  0
  185.2730  177.2580  134.7260 O   0  0  0  0  0  1  0  0  0  0  0  0
  186.7580  174.9390  134.5950 N   0  0  0  0  0  2  0  0  0  0  0  0
  188.7020  176.2450  134.6950 N   0  0  0  0  0  1  0  0  0  0  0  0
  187.3150  176.0460  134.9610 C   0  0  0  0  0  0  0  0  0  0  0  0
  1 38  1  6  0  0  0
  1 22  1  0  0  0  0
  2  1  1  1  0  0  0
  2  8  1  0  0  0  0
  3  5  2  0  0  0  0
  4  3  1  1  0  0  0
  4  7  1  0  0  0  0
  5 12  1  0  0  0  0
  6  2  1  0  0  0  0
  6  9  1  0  0  0  0
  6 20  1  1  0  0  0
  7 13  1  6  0  0  0
  7  8  1  0  0  0  0
  9  4  1  0  0  0  0
  9 10  1  0  0  0  0
 10 11  1  0  0  0  0
 12 10  1  0  0  0  0
 13 15  1  0  0  0  0
 15 14  2  0  0  0  0
 16 15  1  0  0  0  0
 18 19  2  0  0  0  0
 19 17  1  0  0  0  0
 19 16  1  0  0  0  0
 21 20  1  0  0  0  0
 22 24  1  0  0  0  0
 23 22  1  0  0  0  0
 24 26  1  0  0  0  0
 25 34  1  0  0  0  0
 25 33  1  0  0  0  0
 26 35  1  0  0  0  0
 26 36  1  0  0  0  0
 27 30  1  0  0  0  0
 29 37  1  0  0  0  0
 30 28  2  0  0  0  0
 30 37  1  0  0  0  0
 31 36  2  0  0  0  0
 32 33  1  0  0  0  0
 32 27  1  0  0  0  0
 33 29  1  0  0  0  0
 35 25  1  0  0  0  0
 36 32  1  0  0  0  0
 39 38  1  0  0  0  0
 40 42  2  0  0  0  0
 41 42  1  0  0  0  0
 42 38  1  0  0  0  0
M  END
>  <MODEL>
4

>  <REMARK>
 VINA RESULT:      -6.4      2.210      7.673
  Name = 
  10 active torsions:
  status: ('A' for Active; 'I' for Inactive)
    1  A    between atoms: C_3  and  C_23
    2  A    between atoms: C_4  and  C_13
    3  A    between atoms: C_4  and  C_23
    4  A    between atoms: C_5  and  C_13
    5  A    between atoms: N_9  and  C_24
    6  A    between atoms: C_11  and  C_16
    7  A    between atoms: C_11  and  C_33
    8  A    between atoms: C_13  and  C_35
    9  A    between atoms: O_19  and  C_22
   10  A    between atoms: C_29  and  C_35
                            x       y       z     vdW  Elec       q    Type
                         _______ _______ _______ _____ _____    ______ ____

>  <TORSDO>
F 10

$$$$
=
 OpenBabel11062413353D

 42 45  0  0  1  0  0  0  0  0999 V2000
  185.0190  178.1780  142.7830 C   0  0  2  0  0  3  0  0  0  0  0  0
  186.5550  178.2690  142.9040 C   0  0  1  0  0  3  0  0  0  0  0  0
  190.8170  178.6280  143.1260 C   0  0  0  0  0  3  0  0  0  0  0  0
  189.3090  178.6790  143.0560 C   0  0  1  0  0  3  0  0  0  0  0  0
  191.4870  178.0040  144.1060 C   0  0  0  0  0  3  0  0  0  0  0  0
  187.1000  178.1940  144.3390 C   0  0  2  0  0  3  0  0  0  0  0  0
  188.8160  177.8730  141.8390 C   0  0  1  0  0  3  0  0  0  0  0  0
  187.3530  177.4200  141.9180 C   0  0  0  0  0  2  0  0  0  0  0  0
  188.6470  178.2520  144.3870 C   0  0  1  0  0  3  0  0  0  0  0  0
  189.3350  177.0310  145.0130 C   0  0  1  0  0  3  0  0  0  0  0  0
  189.2400  175.9140  144.1790 O   0  0  0  0  0  1  0  0  0  0  0  0
  190.7990  177.3660  145.2870 C   0  0  0  0  0  2  0  0  0  0  0  0
  189.0180  178.6480  140.6240 N   0  0  0  0  0  2  0  0  0  0  0  0
  189.1510  176.7640  139.2470 O   0  0  0  0  0  0  0  0  0  0  0  0
  189.1820  178.0210  139.3510 C   0  0  0  0  0  0  0  0  0  0  0  0
  189.4300  178.8570  138.1430 C   0  0  0  0  0  2  0  0  0  0  0  0
  187.2050  179.0000  137.3010 O   0  0  0  0  0  1  0  0  0  0  0  0
  188.6980  177.8830  135.9660 O   0  0  0  0  0  0  0  0  0  0  0  0
  188.3810  178.5940  137.1160 C   0  0  0  0  0  0  0  0  0  0  0  0
  186.5990  177.0850  145.0300 O   0  0  0  0  0  0  0  0  0  0  0  0
  186.4360  177.5230  146.3470 C   0  0  0  0  0  1  0  0  0  0  0  0
  184.4880  178.0770  141.3360 C   0  0  2  0  0  3  0  0  0  0  0  0
  185.2690  179.0030  140.4130 C   0  0  0  0  0  1  0  0  0  0  0  0
  183.0180  178.4530  141.2520 C   0  0  0  0  0  2  0  0  0  0  0  0
  180.9400  176.5950  138.9050 C   0  0  2  0  0  3  0  0  0  0  0  0
  182.4230  178.0230  139.9200 C   0  0  1  0  0  3  0  0  0  0  0  0
  179.9570  180.1210  137.7340 C   0  0  0  0  0  2  0  0  0  0  0  0
  180.8060  180.8900  135.6750 O   0  0  0  0  0  0  0  0  0  0  0  0
  181.0530  177.5820  136.7790 C   0  0  0  0  0  2  0  0  0  0  0  0
  180.4720  179.9280  136.3470 C   0  0  0  0  0  0  0  0  0  0  0  0
  182.4340  180.2570  139.0920 O   0  0  0  0  0  0  0  0  0  0  0  0
  180.4510  178.9960  138.6590 C   0  0  1  0  0  3  0  0  0  0  0  0
  180.3290  177.6450  138.0550 N   0  0  2  0  0  0  0  0  0  0  0  0
  179.9260  175.4930  139.1420 C   0  0  0  0  0  1  0  0  0  0  0  0
  181.4030  177.0750  140.1560 O   0  0  0  0  0  0  0  0  0  0  0  0
  181.8270  179.2050  139.2210 C   0  0  0  0  0  0  0  0  0  0  0  0
  180.4750  178.5580  135.7600 C   0  0  0  0  0  2  0  0  0  0  0  0
  184.3610  179.3560  143.5250 C   0  0  2  0  0  3  0  0  0  0  0  0
  185.3360  180.2270  144.0300 O   0  0  0  0  0  1  0  0  0  0  0  0
  183.8120  179.0030  145.8510 N   0  0  0  0  0  1  0  0  0  0  0  0
  182.0570  178.6290  144.3420 N   0  0  0  0  0  2  0  0  0  0  0  0
  183.4240  178.9300  144.6220 C   0  0  0  0  0  0  0  0  0  0  0  0
  1 22  1  6  0  0  0
  1 38  1  0  0  0  0
  2  1  1  1  0  0  0
  2  6  1  0  0  0  0
  3  5  2  0  0  0  0
  4  3  1  1  0  0  0
  4  9  1  0  0  0  0
  5 12  1  0  0  0  0
  6  9  1  0  0  0  0
  6 20  1  6  0  0  0
  7 13  1  6  0  0  0
  7  8  1  0  0  0  0
  7  4  1  0  0  0  0
  8  2  1  0  0  0  0
  9 10  1  0  0  0  0
 10 12  1  0  0  0  0
 11 10  1  0  0  0  0
 14 15  2  0  0  0  0
 15 13  1  0  0  0  0
 16 15  1  0  0  0  0
 18 19  2  0  0  0  0
 19 17  1  0  0  0  0
 19 16  1  0  0  0  0
 20 21  1  0  0  0  0
 23 22  1  0  0  0  0
 24 22  1  0  0  0  0
 25 34  1  0  0  0  0
 25 35  1  0  0  0  0
 26 35  1  0  0  0  0
 26 24  1  0  0  0  0
 27 32  1  0  0  0  0
 28 30  2  0  0  0  0
 29 33  1  0  0  0  0
 30 27  1  0  0  0  0
 31 36  2  0  0  0  0
 32 36  1  0  0  0  0
 33 32  1  0  0  0  0
 33 25  1  0  0  0  0
 36 26  1  0  0  0  0
 37 30  1  0  0  0  0
 37 29  1  0  0  0  0
 38 39  1  0  0  0  0
 38 42  1  0  0  0  0
 41 42  2  0  0  0  0
 42 40  1  0  0  0  0
M  END
>  <MODEL>
5

>  <REMARK>
 VINA RESULT:      -6.3      2.555      5.675
  Name = 
  10 active torsions:
  status: ('A' for Active; 'I' for Inactive)
    1  A    between atoms: C_3  and  C_23
    2  A    between atoms: C_4  and  C_13
    3  A    between atoms: C_4  and  C_23
    4  A    between atoms: C_5  and  C_13
    5  A    between atoms: N_9  and  C_24
    6  A    between atoms: C_11  and  C_16
    7  A    between atoms: C_11  and  C_33
    8  A    between atoms: C_13  and  C_35
    9  A    between atoms: O_19  and  C_22
   10  A    between atoms: C_29  and  C_35
                            x       y       z     vdW  Elec       q    Type
                         _______ _______ _______ _____ _____    ______ ____

>  <TORSDO>
F 10

$$$$
=
 OpenBabel11062413353D

 42 45  0  0  1  0  0  0  0  0999 V2000
  188.5740  177.6690  139.0680 C   0  0  2  0  0  3  0  0  0  0  0  0
  187.1220  178.1880  139.1310 C   0  0  1  0  0  3  0  0  0  0  0  0
  183.1390  179.7390  139.4040 C   0  0  0  0  0  3  0  0  0  0  0  0
  184.5950  179.3590  139.2750 C   0  0  1  0  0  3  0  0  0  0  0  0
  182.1770  179.2450  138.6120 C   0  0  0  0  0  3  0  0  0  0  0  0
  186.3540  178.1380  137.8000 C   0  0  2  0  0  3  0  0  0  0  0  0
  185.0390  178.5640  140.5190 C   0  0  1  0  0  3  0  0  0  0  0  0
  186.2910  177.7030  140.3160 C   0  0  0  0  0  2  0  0  0  0  0  0
  184.8940  178.6350  137.9420 C   0  0  1  0  0  3  0  0  0  0  0  0
  183.8090  177.6110  137.5800 C   0  0  1  0  0  3  0  0  0  0  0  0
  183.7300  176.5980  138.5400 O   0  0  0  0  0  1  0  0  0  0  0  0
  182.4680  178.3270  137.4510 C   0  0  0  0  0  2  0  0  0  0  0  0
  185.2520  179.4760  141.6320 N   0  0  0  0  0  2  0  0  0  0  0  0
  184.5370  177.9400  143.2420 O   0  0  0  0  0  0  0  0  0  0  0  0
  184.9750  179.0930  142.9810 C   0  0  0  0  0  0  0  0  0  0  0  0
  185.1680  180.0770  144.0820 C   0  0  0  0  0  2  0  0  0  0  0  0
  185.5370  179.4030  146.3380 O   0  0  0  0  0  1  0  0  0  0  0  0
  183.4310  179.0110  145.5190 O   0  0  0  0  0  0  0  0  0  0  0  0
  184.7270  179.4870  145.3780 C   0  0  0  0  0  0  0  0  0  0  0  0
  186.4180  176.8710  137.2090 O   0  0  0  0  0  0  0  0  0  0  0  0
  186.1950  177.0960  135.8480 C   0  0  0  0  0  1  0  0  0  0  0  0
  189.3610  177.7820  140.3920 C   0  0  2  0  0  3  0  0  0  0  0  0
  190.6900  177.0460  140.2890 C   0  0  0  0  0  1  0  0  0  0  0  0
  188.5820  177.1940  141.5580 C   0  0  0  0  0  2  0  0  0  0  0  0
  191.1230  178.1910  143.9720 C   0  0  2  0  0  3  0  0  0  0  0  0
  189.4390  177.1470  142.8140 C   0  0  1  0  0  3  0  0  0  0  0  0
  188.2050  177.8640  146.4500 C   0  0  0  0  0  2  0  0  0  0  0  0
  188.1860  176.0170  147.9130 O   0  0  0  0  0  0  0  0  0  0  0  0
  190.9200  176.9080  145.9260 C   0  0  0  0  0  2  0  0  0  0  0  0
  188.8600  176.7930  147.2570 C   0  0  0  0  0  0  0  0  0  0  0  0
  187.6210  176.3530  144.1320 O   0  0  0  0  0  0  0  0  0  0  0  0
  188.9480  178.0760  145.1210 C   0  0  1  0  0  3  0  0  0  0  0  0
  190.4240  178.1290  145.2780 N   0  0  2  0  0  0  0  0  0  0  0  0
  192.0770  179.3710  143.9710 C   0  0  0  0  0  1  0  0  0  0  0  0
  190.2470  178.3050  142.8630 O   0  0  0  0  0  0  0  0  0  0  0  0
  188.5640  177.1210  144.0280 C   0  0  0  0  0  0  0  0  0  0  0  0
  190.3480  176.7510  147.3310 C   0  0  0  0  0  2  0  0  0  0  0  0
  189.3320  178.3630  137.9210 C   0  0  2  0  0  3  0  0  0  0  0  0
  188.6410  179.5050  137.4950 O   0  0  0  0  0  1  0  0  0  0  0  0
  189.8140  176.2000  136.9580 N   0  0  0  0  0  1  0  0  0  0  0  0
  189.4920  177.9330  135.4120 N   0  0  0  0  0  2  0  0  0  0  0  0
  189.6180  177.4600  136.7520 C   0  0  0  0  0  0  0  0  0  0  0  0
  1 38  1  6  0  0  0
  1 22  1  0  0  0  0
  2  1  1  6  0  0  0
  2  8  1  0  0  0  0
  4  3  1  1  0  0  0
  4  7  1  0  0  0  0
  5  3  2  0  0  0  0
  6 20  1  1  0  0  0
  6  9  1  0  0  0  0
  6  2  1  0  0  0  0
  7 13  1  1  0  0  0
  8  7  1  0  0  0  0
  9  4  1  0  0  0  0
 10  9  1  0  0  0  0
 10 11  1  0  0  0  0
 12 10  1  0  0  0  0
 12  5  1  0  0  0  0
 13 15  1  0  0  0  0
 15 14  2  0  0  0  0
 15 16  1  0  0  0  0
 16 19  1  0  0  0  0
 19 18  2  0  0  0  0
 19 17  1  0  0  0  0
 21 20  1  0  0  0  0
 22 24  1  0  0  0  0
 23 22  1  0  0  0  0
 24 26  1  0  0  0  0
 25 33  1  0  0  0  0
 26 35  1  0  0  0  0
 26 36  1  0  0  0  0
 27 30  1  0  0  0  0
 29 37  1  0  0  0  0
 30 37  1  0  0  0  0
 30 28  2  0  0  0  0
 32 33  1  0  0  0  0
 32 27  1  0  0  0  0
 33 29  1  0  0  0  0
 34 25  1  0  0  0  0
 35 25  1  0  0  0  0
 36 31  2  0  0  0  0
 36 32  1  0  0  0  0
 39 38  1  0  0  0  0
 41 42  2  0  0  0  0
 42 40  1  0  0  0  0
 42 38  1  0  0  0  0
M  END
>  <MODEL>
6

>  <REMARK>
 VINA RESULT:      -6.1      2.082      7.299
  Name = 
  10 active torsions:
  status: ('A' for Active; 'I' for Inactive)
    1  A    between atoms: C_3  and  C_23
    2  A    between atoms: C_4  and  C_13
    3  A    between atoms: C_4  and  C_23
    4  A    between atoms: C_5  and  C_13
    5  A    between atoms: N_9  and  C_24
    6  A    between atoms: C_11  and  C_16
    7  A    between atoms: C_11  and  C_33
    8  A    between atoms: C_13  and  C_35
    9  A    between atoms: O_19  and  C_22
   10  A    between atoms: C_29  and  C_35
                            x       y       z     vdW  Elec       q    Type
                         _______ _______ _______ _____ _____    ______ ____

>  <TORSDO>
F 10

$$$$
=
 OpenBabel11062413353D

 42 45  0  0  1  0  0  0  0  0999 V2000
  188.0220  177.1030  137.3020 C   0  0  2  0  0  3  0  0  0  0  0  0
  186.5050  176.9590  137.0540 C   0  0  1  0  0  3  0  0  0  0  0  0
  182.2880  176.7140  136.3490 C   0  0  0  0  0  3  0  0  0  0  0  0
  183.7840  176.8970  136.4490 C   0  0  1  0  0  3  0  0  0  0  0  0
  181.7000  175.5130  136.2440 C   0  0  0  0  0  3  0  0  0  0  0  0
  186.0920  175.7170  136.2480 C   0  0  2  0  0  3  0  0  0  0  0  0
  184.1500  177.4450  137.8420 C   0  0  1  0  0  3  0  0  0  0  0  0
  185.6060  177.2110  138.2620 C   0  0  0  0  0  2  0  0  0  0  0  0
  184.5570  175.6130  136.0700 C   0  0  1  0  0  3  0  0  0  0  0  0
  183.9090  174.3500  136.6530 C   0  0  1  0  0  3  0  0  0  0  0  0
  183.9080  174.3810  138.0500 O   0  0  0  0  0  1  0  0  0  0  0  0
  182.4820  174.2290  136.1240 C   0  0  0  0  0  2  0  0  0  0  0  0
  183.8510  178.8680  137.9020 N   0  0  0  0  0  2  0  0  0  0  0  0
  182.0490  178.5950  139.3650 O   0  0  0  0  0  0  0  0  0  0  0  0
  182.7730  179.3770  138.6910 C   0  0  0  0  0  0  0  0  0  0  0  0
  182.4800  180.8370  138.6850 C   0  0  0  0  0  2  0  0  0  0  0  0
  181.0560  180.4360  136.8160 O   0  0  0  0  0  0  0  0  0  0  0  0
  180.3980  182.1300  138.2160 O   0  0  0  0  0  1  0  0  0  0  0  0
  181.2720  181.1120  137.8550 C   0  0  0  0  0  0  0  0  0  0  0  0
  186.6350  174.5440  136.7830 O   0  0  0  0  0  0  0  0  0  0  0  0
  187.1180  173.8340  135.6800 C   0  0  0  0  0  1  0  0  0  0  0  0
  188.4110  178.1940  138.3240 C   0  0  2  0  0  3  0  0  0  0  0  0
  188.8210  179.4740  137.6090 C   0  0  0  0  0  1  0  0  0  0  0  0
  189.5690  177.7490  139.2030 C   0  0  0  0  0  2  0  0  0  0  0  0
  187.6200  178.1390  142.2570 C   0  0  2  0  0  3  0  0  0  0  0  0
  189.2740  178.0240  140.6690 C   0  0  1  0  0  3  0  0  0  0  0  0
  190.2530  175.7210  143.6680 C   0  0  0  0  0  2  0  0  0  0  0  0
  191.8830  176.5810  145.1370 O   0  0  0  0  0  0  0  0  0  0  0  0
  189.0550  178.3560  144.1010 C   0  0  0  0  0  2  0  0  0  0  0  0
  190.7500  176.6820  144.6970 C   0  0  0  0  0  0  0  0  0  0  0  0
  191.3000  176.9830  141.3650 O   0  0  0  0  0  0  0  0  0  0  0  0
  189.3570  176.4370  142.6430 C   0  0  1  0  0  3  0  0  0  0  0  0
  188.3730  177.3570  143.2670 N   0  0  2  0  0  0  0  0  0  0  0  0
  186.1330  177.9760  142.5070 C   0  0  0  0  0  1  0  0  0  0  0  0
  187.9080  177.7650  140.9200 O   0  0  0  0  0  0  0  0  0  0  0  0
  190.0990  177.1240  141.5340 C   0  0  0  0  0  0  0  0  0  0  0  0
  189.8120  177.6990  145.2510 C   0  0  0  0  0  2  0  0  0  0  0  0
  188.7550  177.3200  135.9650 C   0  0  2  0  0  3  0  0  0  0  0  0
  187.8630  177.2090  134.8900 O   0  0  0  0  0  1  0  0  0  0  0  0
  190.1060  175.4110  136.5750 N   0  0  0  0  0  1  0  0  0  0  0  0
  190.7400  176.4910  134.5940 N   0  0  0  0  0  2  0  0  0  0  0  0
  189.9300  176.4010  135.7650 C   0  0  0  0  0  0  0  0  0  0  0  0
  1 38  1  6  0  0  0
  1 22  1  0  0  0  0
  2  1  1  1  0  0  0
  2  8  1  0  0  0  0
  4  3  1  1  0  0  0
  4  7  1  0  0  0  0
  5  3  2  0  0  0  0
  6 20  1  1  0  0  0
  6  2  1  0  0  0  0
  7 13  1  6  0  0  0
  7  8  1  0  0  0  0
  9  6  1  0  0  0  0
  9  4  1  0  0  0  0
  9 10  1  0  0  0  0
 10 11  1  0  0  0  0
 12  5  1  0  0  0  0
 12 10  1  0  0  0  0
 13 15  1  0  0  0  0
 15 14  2  0  0  0  0
 16 15  1  0  0  0  0
 17 19  2  0  0  0  0
 19 18  1  0  0  0  0
 19 16  1  0  0  0  0
 21 20  1  0  0  0  0
 22 24  1  0  0  0  0
 23 22  1  0  0  0  0
 24 26  1  0  0  0  0
 25 34  1  0  0  0  0
 25 33  1  0  0  0  0
 26 35  1  0  0  0  0
 26 36  1  0  0  0  0
 27 30  1  0  0  0  0
 29 37  1  0  0  0  0
 30 28  2  0  0  0  0
 30 37  1  0  0  0  0
 31 36  2  0  0  0  0
 32 33  1  0  0  0  0
 32 27  1  0  0  0  0
 33 29  1  0  0  0  0
 35 25  1  0  0  0  0
 36 32  1  0  0  0  0
 39 38  1  0  0  0  0
 41 42  2  0  0  0  0
 42 38  1  0  0  0  0
 42 40  1  0  0  0  0
M  END
>  <MODEL>
7

>  <REMARK>
 VINA RESULT:      -6.1      1.921      7.401
  Name = 
  10 active torsions:
  status: ('A' for Active; 'I' for Inactive)
    1  A    between atoms: C_3  and  C_23
    2  A    between atoms: C_4  and  C_13
    3  A    between atoms: C_4  and  C_23
    4  A    between atoms: C_5  and  C_13
    5  A    between atoms: N_9  and  C_24
    6  A    between atoms: C_11  and  C_16
    7  A    between atoms: C_11  and  C_33
    8  A    between atoms: C_13  and  C_35
    9  A    between atoms: O_19  and  C_22
   10  A    between atoms: C_29  and  C_35
                            x       y       z     vdW  Elec       q    Type
                         _______ _______ _______ _____ _____    ______ ____

>  <TORSDO>
F 10

$$$$
=
 OpenBabel11062413353D

 42 45  0  0  1  0  0  0  0  0999 V2000
  188.4300  177.6400  142.6940 C   0  0  2  0  0  3  0  0  0  0  0  0
  186.9030  177.8540  142.6400 C   0  0  1  0  0  3  0  0  0  0  0  0
  182.6590  178.3570  142.3670 C   0  0  0  0  0  3  0  0  0  0  0  0
  184.1250  178.0050  142.4500 C   0  0  1  0  0  3  0  0  0  0  0  0
  182.0020  179.0040  143.3400 C   0  0  0  0  0  3  0  0  0  0  0  0
  186.2030  177.8960  144.0090 C   0  0  2  0  0  3  0  0  0  0  0  0
  184.9150  178.8100  141.4000 C   0  0  1  0  0  3  0  0  0  0  0  0
  186.4150  178.9430  141.6880 C   0  0  0  0  0  2  0  0  0  0  0  0
  184.6810  178.1520  143.8850 C   0  0  1  0  0  3  0  0  0  0  0  0
  184.1660  179.4200  144.5810 C   0  0  1  0  0  3  0  0  0  0  0  0
  184.5790  180.5710  143.9060 O   0  0  0  0  0  1  0  0  0  0  0  0
  182.6420  179.3660  144.6560 C   0  0  0  0  0  2  0  0  0  0  0  0
  184.7250  178.2180  140.0840 N   0  0  0  0  0  2  0  0  0  0  0  0
  183.9580  180.2040  139.1200 O   0  0  0  0  0  0  0  0  0  0  0  0
  184.2360  178.9820  138.9800 C   0  0  0  0  0  0  0  0  0  0  0  0
  184.0170  178.3190  137.6640 C   0  0  0  0  0  2  0  0  0  0  0  0
  183.7880  175.9560  137.8700 O   0  0  0  0  0  0  0  0  0  0  0  0
  181.8330  177.1510  137.9650 O   0  0  0  0  0  1  0  0  0  0  0  0
  183.2140  177.0760  137.8460 C   0  0  0  0  0  0  0  0  0  0  0  0
  186.8150  178.8040  144.8800 O   0  0  0  0  0  0  0  0  0  0  0  0
  186.3850  178.4280  146.1540 C   0  0  0  0  0  1  0  0  0  0  0  0
  189.0720  177.2120  141.3560 C   0  0  2  0  0  3  0  0  0  0  0  0
  190.3200  176.3760  141.6040 C   0  0  0  0  0  1  0  0  0  0  0  0
  189.4660  178.4140  140.5140 C   0  0  0  0  0  2  0  0  0  0  0  0
  190.7600  176.4830  137.7070 C   0  0  2  0  0  3  0  0  0  0  0  0
  189.7160  178.0070  139.0700 C   0  0  1  0  0  3  0  0  0  0  0  0
  187.0700  176.4790  136.6360 C   0  0  0  0  0  2  0  0  0  0  0  0
  186.4340  177.8400  134.8210 O   0  0  0  0  0  0  0  0  0  0  0  0
  189.7520  177.1950  135.7120 C   0  0  0  0  0  2  0  0  0  0  0  0
  187.3230  177.1970  135.3520 C   0  0  0  0  0  0  0  0  0  0  0  0
  187.5100  178.6290  138.4190 O   0  0  0  0  0  0  0  0  0  0  0  0
  188.3030  176.5490  137.5510 C   0  0  1  0  0  3  0  0  0  0  0  0
  189.5770  176.2710  136.8390 N   0  0  2  0  0  0  0  0  0  0  0  0
  191.6280  175.2390  137.6810 C   0  0  0  0  0  1  0  0  0  0  0  0
  190.4310  176.7890  139.0520 O   0  0  0  0  0  0  0  0  0  0  0  0
  188.4120  177.8070  138.3620 C   0  0  0  0  0  0  0  0  0  0  0  0
  188.6420  177.0310  134.6780 C   0  0  0  0  0  2  0  0  0  0  0  0
  188.7840  176.6430  143.8130 C   0  0  2  0  0  3  0  0  0  0  0  0
  187.6290  176.0080  144.2890 O   0  0  0  0  0  1  0  0  0  0  0  0
  190.1910  178.3630  144.7610 N   0  0  0  0  0  2  0  0  0  0  0  0
  189.4210  176.7530  146.2800 N   0  0  0  0  0  1  0  0  0  0  0  0
  189.5480  177.2600  144.9530 C   0  0  0  0  0  0  0  0  0  0  0  0
  1 22  1  6  0  0  0
  1 38  1  0  0  0  0
  2  1  1  1  0  0  0
  2  6  1  0  0  0  0
  3  5  2  0  0  0  0
  4  3  1  1  0  0  0
  4  9  1  0  0  0  0
  5 12  1  0  0  0  0
  6 20  1  1  0  0  0
  7 13  1  6  0  0  0
  7  8  1  0  0  0  0
  7  4  1  0  0  0  0
  8  2  1  0  0  0  0
  9  6  1  0  0  0  0
  9 10  1  0  0  0  0
 10 12  1  0  0  0  0
 11 10  1  0  0  0  0
 15 14  2  0  0  0  0
 15 13  1  0  0  0  0
 16 19  1  0  0  0  0
 16 15  1  0  0  0  0
 19 17  2  0  0  0  0
 19 18  1  0  0  0  0
 20 21  1  0  0  0  0
 22 23  1  0  0  0  0
 24 22  1  0  0  0  0
 25 35  1  0  0  0  0
 26 24  1  0  0  0  0
 27 32  1  0  0  0  0
 28 30  2  0  0  0  0
 29 33  1  0  0  0  0
 30 27  1  0  0  0  0
 32 36  1  0  0  0  0
 33 32  1  0  0  0  0
 33 25  1  0  0  0  0
 34 25  1  0  0  0  0
 35 26  1  0  0  0  0
 36 31  2  0  0  0  0
 36 26  1  0  0  0  0
 37 30  1  0  0  0  0
 37 29  1  0  0  0  0
 38 39  1  0  0  0  0
 38 42  1  0  0  0  0
 40 42  2  0  0  0  0
 42 41  1  0  0  0  0
M  END
>  <MODEL>
8

>  <REMARK>
 VINA RESULT:      -5.9      2.129      6.012
  Name = 
  10 active torsions:
  status: ('A' for Active; 'I' for Inactive)
    1  A    between atoms: C_3  and  C_23
    2  A    between atoms: C_4  and  C_13
    3  A    between atoms: C_4  and  C_23
    4  A    between atoms: C_5  and  C_13
    5  A    between atoms: N_9  and  C_24
    6  A    between atoms: C_11  and  C_16
    7  A    between atoms: C_11  and  C_33
    8  A    between atoms: C_13  and  C_35
    9  A    between atoms: O_19  and  C_22
   10  A    between atoms: C_29  and  C_35
                            x       y       z     vdW  Elec       q    Type
                         _______ _______ _______ _____ _____    ______ ____

>  <TORSDO>
F 10

$$$$
=
 OpenBabel11062413353D

 42 45  0  0  1  0  0  0  0  0999 V2000
  181.5080  176.9650  136.9390 C   0  0  2  0  0  3  0  0  0  0  0  0
  181.0310  177.8880  138.0800 C   0  0  1  0  0  3  0  0  0  0  0  0
  179.6160  180.5210  141.1470 C   0  0  0  0  0  3  0  0  0  0  0  0
  179.9440  179.5650  140.0250 C   0  0  1  0  0  3  0  0  0  0  0  0
  179.9710  180.3090  142.4220 C   0  0  0  0  0  3  0  0  0  0  0  0
  180.8480  177.1980  139.4410 C   0  0  2  0  0  3  0  0  0  0  0  0
  180.9470  180.2210  139.0560 C   0  0  1  0  0  3  0  0  0  0  0  0
  181.7380  179.2370  138.1860 C   0  0  0  0  0  2  0  0  0  0  0  0
  180.4080  178.1860  140.5500 C   0  0  1  0  0  3  0  0  0  0  0  0
  181.3640  178.3090  141.7440 C   0  0  1  0  0  3  0  0  0  0  0  0
  182.5360  178.9800  141.3850 O   0  0  0  0  0  1  0  0  0  0  0  0
  180.6560  179.0450  142.8790 C   0  0  0  0  0  2  0  0  0  0  0  0
  180.2510  181.1720  138.2020 N   0  0  0  0  0  2  0  0  0  0  0  0
  181.9230  182.7960  138.3680 O   0  0  0  0  0  0  0  0  0  0  0  0
  180.8030  182.4550  137.9000 C   0  0  0  0  0  0  0  0  0  0  0  0
  180.0320  183.4100  137.0560 C   0  0  0  0  0  2  0  0  0  0  0  0
  181.3620  184.9510  135.8160 O   0  0  0  0  0  1  0  0  0  0  0  0
  180.9950  182.9250  134.8060 O   0  0  0  0  0  0  0  0  0  0  0  0
  180.8390  183.8080  135.8670 C   0  0  0  0  0  0  0  0  0  0  0  0
  181.9840  176.4710  139.8140 O   0  0  0  0  0  0  0  0  0  0  0  0
  181.6010  175.1300  139.7250 C   0  0  0  0  0  1  0  0  0  0  0  0
  182.5070  177.6140  135.9550 C   0  0  2  0  0  3  0  0  0  0  0  0
  181.8500  177.8480  134.6020 C   0  0  0  0  0  1  0  0  0  0  0  0
  183.7320  176.7390  135.7430 C   0  0  0  0  0  2  0  0  0  0  0  0
  185.9010  178.2800  138.2320 C   0  0  2  0  0  3  0  0  0  0  0  0
  184.9740  177.3920  136.3300 C   0  0  1  0  0  3  0  0  0  0  0  0
  188.3850  175.6160  137.0100 C   0  0  0  0  0  2  0  0  0  0  0  0
  190.1920  176.3080  135.6660 O   0  0  0  0  0  0  0  0  0  0  0  0
  188.0740  178.5020  137.3750 C   0  0  0  0  0  2  0  0  0  0  0  0
  189.3950  176.6090  136.5380 C   0  0  0  0  0  0  0  0  0  0  0  0
  186.4200  176.0270  135.0190 O   0  0  0  0  0  0  0  0  0  0  0  0
  187.0430  176.3040  137.3090 C   0  0  1  0  0  3  0  0  0  0  0  0
  187.1900  177.5640  138.0800 N   0  0  2  0  0  0  0  0  0  0  0  0
  185.6640  178.5750  139.7010 C   0  0  0  0  0  1  0  0  0  0  0  0
  184.7900  177.5640  137.7200 O   0  0  0  0  0  0  0  0  0  0  0  0
  186.1650  176.5140  136.1100 C   0  0  0  0  0  0  0  0  0  0  0  0
  189.4800  177.9330  137.2180 C   0  0  0  0  0  2  0  0  0  0  0  0
  180.2950  176.3910  136.1850 C   0  0  2  0  0  3  0  0  0  0  0  0
  179.1230  177.0660  136.5500 O   0  0  0  0  0  1  0  0  0  0  0  0
  178.9310  174.4040  136.3600 N   0  0  0  0  0  1  0  0  0  0  0  0
  181.2450  174.0290  136.3480 N   0  0  0  0  0  2  0  0  0  0  0  0
  180.1200  174.9070  136.3640 C   0  0  0  0  0  0  0  0  0  0  0  0
  1 22  1  6  0  0  0
  2  1  1  6  0  0  0
  2  8  1  0  0  0  0
  2  6  1  0  0  0  0
  3  5  2  0  0  0  0
  4  9  1  0  0  0  0
  4  3  1  1  0  0  0
  5 12  1  0  0  0  0
  6 20  1  1  0  0  0
  6  9  1  0  0  0  0
  7 13  1  6  0  0  0
  7  4  1  0  0  0  0
  8  7  1  0  0  0  0
  9 10  1  0  0  0  0
 10 12  1  0  0  0  0
 11 10  1  0  0  0  0
 15 13  1  0  0  0  0
 15 14  2  0  0  0  0
 16 15  1  0  0  0  0
 17 19  1  0  0  0  0
 18 19  2  0  0  0  0
 19 16  1  0  0  0  0
 21 20  1  0  0  0  0
 23 22  1  0  0  0  0
 24 22  1  0  0  0  0
 24 26  1  0  0  0  0
 25 34  1  0  0  0  0
 26 35  1  0  0  0  0
 27 32  1  0  0  0  0
 28 30  2  0  0  0  0
 29 33  1  0  0  0  0
 30 27  1  0  0  0  0
 30 37  1  0  0  0  0
 31 36  2  0  0  0  0
 32 33  1  0  0  0  0
 33 25  1  0  0  0  0
 35 25  1  0  0  0  0
 36 26  1  0  0  0  0
 36 32  1  0  0  0  0
 37 29  1  0  0  0  0
 38 42  1  0  0  0  0
 38 39  1  0  0  0  0
 38  1  1  0  0  0  0
 40 42  1  0  0  0  0
 41 42  2  0  0  0  0
M  END
>  <MODEL>
9

>  <REMARK>
 VINA RESULT:      -5.9      3.642      8.330
  Name = 
  10 active torsions:
  status: ('A' for Active; 'I' for Inactive)
    1  A    between atoms: C_3  and  C_23
    2  A    between atoms: C_4  and  C_13
    3  A    between atoms: C_4  and  C_23
    4  A    between atoms: C_5  and  C_13
    5  A    between atoms: N_9  and  C_24
    6  A    between atoms: C_11  and  C_16
    7  A    between atoms: C_11  and  C_33
    8  A    between atoms: C_13  and  C_35
    9  A    between atoms: O_19  and  C_22
   10  A    between atoms: C_29  and  C_35
                            x       y       z     vdW  Elec       q    Type
                         _______ _______ _______ _____ _____    ______ ____

>  <TORSDO>
F 10

$$$$
