=
 OpenBabel11062414013D

 49 53  0  0  1  0  0  0  0  0999 V2000
  186.1800  177.5420  135.3250 C   0  0  0  0  0  2  0  0  0  0  0  0
  184.3830  176.7880  137.5600 C   0  0  0  0  0  2  0  0  0  0  0  0
  188.0060  177.3730  136.9120 C   0  0  0  0  0  3  0  0  0  0  0  0
  183.8580  177.1520  136.1740 C   0  0  1  0  0  3  0  0  0  0  0  0
  186.6800  177.4000  136.7330 C   0  0  0  0  0  0  0  0  0  0  0  0
  185.6970  177.5180  137.8710 C   0  0  1  0  0  3  0  0  0  0  0  0
  184.8940  176.7480  135.1280 C   0  0  0  0  0  2  0  0  0  0  0  0
  184.8080  172.6120  136.5820 C   0  0  2  0  0  3  0  0  0  0  0  0
  182.1480  173.3640  136.5550 C   0  0  2  0  0  3  0  0  0  0  0  0
  183.7000  171.5510  136.7430 C   0  0  1  0  0  3  0  0  0  0  0  0
  185.0870  173.1980  137.8150 O   0  0  0  0  0  1  0  0  0  0  0  0
  181.6500  175.4820  137.3490 C   0  0  1  0  0  3  0  0  0  0  0  0
  182.9470  173.7100  135.2800 C   0  0  1  0  0  3  0  0  0  0  0  0
  182.5010  175.0100  134.6190 C   0  0  0  0  0  2  0  0  0  0  0  0
  182.3710  174.2940  137.5970 O   0  0  0  0  0  0  0  0  0  0  0  0
  184.4440  173.6920  135.5620 C   0  0  0  0  0  2  0  0  0  0  0  0
  182.2570  176.3300  135.8510 P   0  0  2  0  0  4  0  0  0  0  0  0
  182.3950  172.0490  137.0360 O   0  0  0  0  0  0  0  0  0  0  0  0
  183.6550  170.7190  135.6200 O   0  0  0  0  0  0  0  0  0  0  0  0
  184.9180  170.1210  135.5720 C   0  0  0  0  0  1  0  0  0  0  0  0
  181.3980  178.6520  135.9230 C   0  0  0  0  0  1  0  0  0  0  0  0
  181.0820  177.4360  135.3200 O   0  0  0  0  0  0  0  0  0  0  0  0
  180.1330  175.2750  137.3230 C   0  0  0  0  0  2  0  0  0  0  0  0
  180.3990  176.9090  139.0490 O   0  0  0  0  0  1  0  0  0  0  0  0
  179.4490  176.1880  138.3270 C   0  0  0  0  0  2  0  0  0  0  0  0
  189.9020  176.5290  138.2380 C   0  0  0  0  0  3  0  0  0  0  0  0
  188.3800  178.0610  139.3220 C   0  0  0  0  0  3  0  0  0  0  0  0
  188.7610  177.3370  138.1820 C   0  0  0  0  0  0  0  0  0  0  0  0
  190.2820  177.1740  140.5420 C   0  0  0  0  0  0  0  0  0  0  0  0
  190.6620  176.4500  139.4080 C   0  0  0  0  0  3  0  0  0  0  0  0
  189.1370  177.9810  140.4960 C   0  0  0  0  0  3  0  0  0  0  0  0
  191.0740  177.0790  141.7290 N   0  0  0  0  0  2  0  0  0  0  0  0
  190.5100  177.2320  143.0030 N   0  0  0  0  0  2  0  0  0  0  0  0
  191.2670  176.3870  143.9020 C   0  0  0  0  0  1  0  0  0  0  0  0
  185.4540  178.8890  138.1560 O   0  0  0  0  0  0  0  0  0  0  0  0
  184.6010  179.2930  139.1870 C   0  0  0  0  0  0  0  0  0  0  0  0
  184.0010  180.4000  139.1310 O   0  0  0  0  0  0  0  0  0  0  0  0
  184.3970  178.4130  140.3700 C   0  0  0  0  0  2  0  0  0  0  0  0
  185.0600  179.0270  141.5920 C   0  0  0  0  0  2  0  0  0  0  0  0
  184.6010  178.3330  142.8710 C   0  0  2  0  0  3  0  0  0  0  0  0
  183.2100  178.8070  143.2870 C   0  0  0  0  0  1  0  0  0  0  0  0
  186.5300  177.3140  144.1710 C   0  0  1  0  0  3  0  0  0  0  0  0
  184.9850  178.9840  145.3020 C   0  0  0  0  0  2  0  0  0  0  0  0
  187.6600  177.6680  145.1260 C   0  0  0  0  0  2  0  0  0  0  0  0
  185.6100  179.4930  147.5460 O   0  0  0  0  0  0  0  0  0  0  0  0
  185.6380  178.5450  143.9810 C   0  0  2  0  0  3  0  0  0  0  0  0
  187.0730  176.9220  142.9620 F   0  0  0  0  0  0  0  0  0  0  0  0
  187.1310  178.1570  146.3950 N   0  0  0  0  0  2  0  0  0  0  0  0
  185.9280  178.9280  146.4660 C   0  0  0  0  0  0  0  0  0  0  0  0
  1  5  1  0  0  0  0
  2  6  1  0  0  0  0
  3 28  1  0  0  0  0
  4  7  1  6  0  0  0
  4  2  1  0  0  0  0
  5  3  2  0  0  0  0
  5  6  1  0  0  0  0
  6 35  1  6  0  0  0
  7  1  1  0  0  0  0
  8 10  1  0  0  0  0
  8 11  1  1  0  0  0
  9 18  1  1  0  0  0
  9 15  1  0  0  0  0
 10 19  1  6  0  0  0
 10 18  1  0  0  0  0
 12 23  1  6  0  0  0
 12 15  1  0  0  0  0
 13 14  1  1  0  0  0
 13 16  1  0  0  0  0
 13  9  1  0  0  0  0
 14 17  1  0  0  0  0
 16  8  1  0  0  0  0
 17 22  1  6  0  0  0
 17  4  1  0  0  0  0
 17 12  1  0  0  0  0
 20 19  1  0  0  0  0
 22 21  1  0  0  0  0
 23 25  1  0  0  0  0
 25 24  1  0  0  0  0
 26 30  1  0  0  0  0
 27 31  2  0  0  0  0
 28 26  2  0  0  0  0
 28 27  1  0  0  0  0
 29 32  1  0  0  0  0
 30 29  2  0  0  0  0
 31 29  1  0  0  0  0
 32 33  1  0  0  0  0
 33 34  1  0  0  0  0
 35 36  1  0  0  0  0
 36 38  1  0  0  0  0
 37 36  2  0  0  0  0
 38 39  1  0  0  0  0
 39 40  1  0  0  0  0
 40 41  1  1  0  0  0
 42 47  1  6  0  0  0
 42 44  1  0  0  0  0
 43 49  1  0  0  0  0
 44 48  1  0  0  0  0
 46 40  1  6  0  0  0
 46 42  1  0  0  0  0
 46 43  1  0  0  0  0
 48 49  1  0  0  0  0
 49 45  2  0  0  0  0
M  END
>  <MODEL>
1

>  <REMARK>
 VINA RESULT:      -7.8      0.000      0.000
  Name = 
  14 active torsions:
  status: ('A' for Active; 'I' for Inactive)
    1  A    between atoms: C_4  and  C_10
    2  A    between atoms: C_4  and  C_20
    3  A    between atoms: C_5  and  C_22
    4  A    between atoms: C_5  and  C_44
    5  A    between atoms: O_7  and  C_16
    6  A    between atoms: C_10  and  O_46
    7  A    between atoms: N_11  and  N_14
    8  A    between atoms: N_11  and  C_28
    9  A    between atoms: C_13  and  C_20
   10  A    between atoms: C_13  and  C_30
   11  A    between atoms: C_27  and  C_29
   12  A    between atoms: C_32  and  P_41
   13  A    between atoms: P_41  and  O_42
   14  A    between atoms: C_43  and  O_46
                            x       y       z     vdW  Elec       q    Type
                         _______ _______ _______ _____ _____    ______ ____

>  <TORSDO>
F 14

$$$$
=
 OpenBabel11062414013D

 49 53  0  0  1  0  0  0  0  0999 V2000
  192.9160  177.4850  139.1560 C   0  0  0  0  0  2  0  0  0  0  0  0
  190.4330  176.0020  138.5020 C   0  0  0  0  0  2  0  0  0  0  0  0
  192.1670  177.4570  141.4630 C   0  0  0  0  0  3  0  0  0  0  0  0
  191.4160  176.4680  137.4310 C   0  0  1  0  0  3  0  0  0  0  0  0
  191.8520  177.2250  140.1830 C   0  0  0  0  0  0  0  0  0  0  0  0
  190.4460  176.9380  139.7180 C   0  0  1  0  0  3  0  0  0  0  0  0
  192.8250  176.4750  138.0190 C   0  0  0  0  0  2  0  0  0  0  0  0
  195.5000  174.2290  137.4390 C   0  0  2  0  0  3  0  0  0  0  0  0
  193.5080  173.2500  135.7890 C   0  0  2  0  0  3  0  0  0  0  0  0
  195.7430  172.9600  136.5960 C   0  0  1  0  0  3  0  0  0  0  0  0
  194.8490  173.8940  138.6250 O   0  0  0  0  0  1  0  0  0  0  0  0
  191.3200  173.6250  136.4520 C   0  0  1  0  0  3  0  0  0  0  0  0
  193.9720  174.6920  135.4840 C   0  0  1  0  0  3  0  0  0  0  0  0
  192.8530  175.5940  134.9770 C   0  0  0  0  0  2  0  0  0  0  0  0
  192.5980  173.1980  136.8710 O   0  0  0  0  0  0  0  0  0  0  0  0
  194.6940  175.2890  136.6850 C   0  0  0  0  0  2  0  0  0  0  0  0
  191.3330  175.3830  135.9610 P   0  0  2  0  0  4  0  0  0  0  0  0
  194.5820  172.3510  136.0320 O   0  0  0  0  0  0  0  0  0  0  0  0
  196.6860  173.2140  135.5960 O   0  0  0  0  0  0  0  0  0  0  0  0
  197.9190  173.1750  136.2530 C   0  0  0  0  0  1  0  0  0  0  0  0
  189.6940  177.0690  135.1820 C   0  0  0  0  0  1  0  0  0  0  0  0
  189.9590  175.7100  135.0190 O   0  0  0  0  0  0  0  0  0  0  0  0
  190.7050  172.7280  135.3750 C   0  0  0  0  0  2  0  0  0  0  0  0
  188.8630  172.8770  136.8940 O   0  0  0  0  0  1  0  0  0  0  0  0
  189.2020  172.6110  135.5680 C   0  0  0  0  0  2  0  0  0  0  0  0
  191.1880  178.5130  143.4610 C   0  0  0  0  0  3  0  0  0  0  0  0
  190.5810  176.2190  143.0040 C   0  0  0  0  0  3  0  0  0  0  0  0
  191.2930  177.3760  142.6520 C   0  0  0  0  0  0  0  0  0  0  0  0
  189.6680  177.3510  144.9470 C   0  0  0  0  0  0  0  0  0  0  0  0
  190.3780  178.5040  144.6000 C   0  0  0  0  0  3  0  0  0  0  0  0
  189.7710  176.2070  144.1450 C   0  0  0  0  0  3  0  0  0  0  0  0
  188.8450  177.3640  146.1160 N   0  0  0  0  0  2  0  0  0  0  0  0
  189.3180  177.8440  147.3450 N   0  0  0  0  0  2  0  0  0  0  0  0
  188.1590  178.0850  148.1780 C   0  0  0  0  0  1  0  0  0  0  0  0
  189.7800  178.1580  139.4210 O   0  0  0  0  0  0  0  0  0  0  0  0
  188.4410  178.3740  139.7590 C   0  0  0  0  0  0  0  0  0  0  0  0
  187.5860  178.6390  138.8700 O   0  0  0  0  0  0  0  0  0  0  0  0
  188.0120  178.2960  141.1820 C   0  0  0  0  0  2  0  0  0  0  0  0
  186.6710  178.9890  141.3570 C   0  0  0  0  0  2  0  0  0  0  0  0
  186.1310  178.7890  142.7700 C   0  0  2  0  0  3  0  0  0  0  0  0
  186.4240  177.3790  143.2770 C   0  0  0  0  0  1  0  0  0  0  0  0
  183.9990  178.7270  144.1470 C   0  0  1  0  0  3  0  0  0  0  0  0
  183.8790  178.4980  141.6190 C   0  0  0  0  0  2  0  0  0  0  0  0
  182.5780  179.2710  144.1950 C   0  0  0  0  0  2  0  0  0  0  0  0
  181.6530  178.3300  140.7820 O   0  0  0  0  0  0  0  0  0  0  0  0
  184.6340  179.1170  142.8080 C   0  0  2  0  0  3  0  0  0  0  0  0
  184.7190  179.2660  145.1960 F   0  0  0  0  0  0  0  0  0  0  0  0
  181.8000  178.7830  143.0620 N   0  0  0  0  0  2  0  0  0  0  0  0
  182.3900  178.5620  141.7780 C   0  0  0  0  0  0  0  0  0  0  0  0
  1  5  1  0  0  0  0
  2  6  1  0  0  0  0
  3 28  1  0  0  0  0
  4  7  1  1  0  0  0
  4  2  1  0  0  0  0
  5  3  2  0  0  0  0
  6 35  1  6  0  0  0
  6  5  1  0  0  0  0
  7  1  1  0  0  0  0
  8 11  1  1  0  0  0
  9 18  1  1  0  0  0
  9 15  1  0  0  0  0
 10 19  1  6  0  0  0
 10  8  1  0  0  0  0
 12 23  1  6  0  0  0
 12 15  1  0  0  0  0
 13 14  1  1  0  0  0
 13  9  1  0  0  0  0
 13 16  1  0  0  0  0
 14 17  1  0  0  0  0
 16  8  1  0  0  0  0
 17 22  1  6  0  0  0
 17 12  1  0  0  0  0
 17  4  1  0  0  0  0
 18 10  1  0  0  0  0
 19 20  1  0  0  0  0
 22 21  1  0  0  0  0
 23 25  1  0  0  0  0
 25 24  1  0  0  0  0
 26 30  1  0  0  0  0
 27 31  2  0  0  0  0
 28 27  1  0  0  0  0
 28 26  2  0  0  0  0
 29 32  1  0  0  0  0
 30 29  2  0  0  0  0
 31 29  1  0  0  0  0
 32 33  1  0  0  0  0
 33 34  1  0  0  0  0
 35 36  1  0  0  0  0
 36 38  1  0  0  0  0
 37 36  2  0  0  0  0
 38 39  1  0  0  0  0
 39 40  1  0  0  0  0
 40 41  1  6  0  0  0
 42 44  1  0  0  0  0
 42 47  1  1  0  0  0
 43 49  1  0  0  0  0
 43 46  1  0  0  0  0
 45 49  2  0  0  0  0
 46 40  1  1  0  0  0
 46 42  1  0  0  0  0
 48 44  1  0  0  0  0
 49 48  1  0  0  0  0
M  END
>  <MODEL>
2

>  <REMARK>
 VINA RESULT:      -7.5      4.534      7.766
  Name = 
  14 active torsions:
  status: ('A' for Active; 'I' for Inactive)
    1  A    between atoms: C_4  and  C_10
    2  A    between atoms: C_4  and  C_20
    3  A    between atoms: C_5  and  C_22
    4  A    between atoms: C_5  and  C_44
    5  A    between atoms: O_7  and  C_16
    6  A    between atoms: C_10  and  O_46
    7  A    between atoms: N_11  and  N_14
    8  A    between atoms: N_11  and  C_28
    9  A    between atoms: C_13  and  C_20
   10  A    between atoms: C_13  and  C_30
   11  A    between atoms: C_27  and  C_29
   12  A    between atoms: C_32  and  P_41
   13  A    between atoms: P_41  and  O_42
   14  A    between atoms: C_43  and  O_46
                            x       y       z     vdW  Elec       q    Type
                         _______ _______ _______ _____ _____    ______ ____

>  <TORSDO>
F 14

$$$$
=
 OpenBabel11062414013D

 49 53  0  0  1  0  0  0  0  0999 V2000
  187.2990  177.6110  134.8840 C   0  0  0  0  0  2  0  0  0  0  0  0
  186.3310  176.0470  137.2090 C   0  0  0  0  0  2  0  0  0  0  0  0
  189.5110  176.7590  135.4000 C   0  0  0  0  0  3  0  0  0  0  0  0
  185.4170  176.9630  136.4000 C   0  0  1  0  0  3  0  0  0  0  0  0
  188.2410  176.8890  135.8030 C   0  0  0  0  0  0  0  0  0  0  0  0
  187.7810  176.5510  137.1990 C   0  0  1  0  0  3  0  0  0  0  0  0
  185.9050  177.0000  134.9540 C   0  0  0  0  0  2  0  0  0  0  0  0
  183.7170  179.0230  140.2150 C   0  0  2  0  0  3  0  0  0  0  0  0
  181.9080  177.8770  138.4660 C   0  0  2  0  0  3  0  0  0  0  0  0
  182.2030  179.1160  140.4930 C   0  0  1  0  0  3  0  0  0  0  0  0
  184.1030  180.0390  139.3410 O   0  0  0  0  0  1  0  0  0  0  0  0
  182.5260  177.7750  136.2360 C   0  0  1  0  0  3  0  0  0  0  0  0
  182.9270  176.9030  139.0970 C   0  0  1  0  0  3  0  0  0  0  0  0
  183.3400  175.7700  138.1640 C   0  0  0  0  0  2  0  0  0  0  0  0
  182.4560  178.5990  137.3800 O   0  0  0  0  0  0  0  0  0  0  0  0
  184.1280  177.6640  139.6460 C   0  0  0  0  0  2  0  0  0  0  0  0
  183.6840  176.3860  136.4840 P   0  0  2  0  0  4  0  0  0  0  0  0
  181.3440  178.7880  139.4010 O   0  0  0  0  0  0  0  0  0  0  0  0
  181.8660  178.3520  141.6150 O   0  0  0  0  0  0  0  0  0  0  0  0
  182.4460  179.0300  142.6910 C   0  0  0  0  0  1  0  0  0  0  0  0
  183.2950  173.9830  136.0320 C   0  0  0  0  0  1  0  0  0  0  0  0
  183.3690  175.1830  135.3280 O   0  0  0  0  0  0  0  0  0  0  0  0
  181.1540  177.3040  135.7440 C   0  0  0  0  0  2  0  0  0  0  0  0
  179.3620  178.8770  135.9420 O   0  0  0  0  0  1  0  0  0  0  0  0
  180.3910  178.4510  135.1020 C   0  0  0  0  0  2  0  0  0  0  0  0
  191.0840  174.9010  135.7770 C   0  0  0  0  0  3  0  0  0  0  0  0
  191.3120  176.8550  137.1800 C   0  0  0  0  0  3  0  0  0  0  0  0
  190.6540  176.1830  136.1390 C   0  0  0  0  0  0  0  0  0  0  0  0
  192.8150  174.9720  137.4690 C   0  0  0  0  0  0  0  0  0  0  0  0
  192.1600  174.3000  136.4340 C   0  0  0  0  0  3  0  0  0  0  0  0
  192.3880  176.2540  137.8410 C   0  0  0  0  0  3  0  0  0  0  0  0
  193.9140  174.3380  138.1290 N   0  0  0  0  0  2  0  0  0  0  0  0
  195.1510  174.9790  138.2790 N   0  0  0  0  0  2  0  0  0  0  0  0
  196.0230  174.0550  138.9740 C   0  0  0  0  0  1  0  0  0  0  0  0
  187.9230  177.6880  138.0400 O   0  0  0  0  0  0  0  0  0  0  0  0
  188.3480  177.5810  139.3670 C   0  0  0  0  0  0  0  0  0  0  0  0
  189.2950  176.8100  139.6810 O   0  0  0  0  0  0  0  0  0  0  0  0
  187.6780  178.3820  140.4290 C   0  0  0  0  0  2  0  0  0  0  0  0
  188.4690  178.2890  141.7240 C   0  0  0  0  0  2  0  0  0  0  0  0
  187.6800  177.5430  142.7950 C   0  0  2  0  0  3  0  0  0  0  0  0
  186.2140  177.9720  142.7970 C   0  0  0  0  0  1  0  0  0  0  0  0
  189.4210  176.6900  144.4340 C   0  0  1  0  0  3  0  0  0  0  0  0
  187.3050  177.7990  145.3000 C   0  0  0  0  0  2  0  0  0  0  0  0
  190.1750  177.0720  145.7000 C   0  0  0  0  0  2  0  0  0  0  0  0
  187.2380  177.9990  147.6750 O   0  0  0  0  0  0  0  0  0  0  0  0
  188.3410  177.7420  144.1640 C   0  0  2  0  0  3  0  0  0  0  0  0
  190.3140  176.6360  143.3810 F   0  0  0  0  0  0  0  0  0  0  0  0
  189.2580  177.2110  146.8250 N   0  0  0  0  0  2  0  0  0  0  0  0
  187.9280  177.7110  146.6610 C   0  0  0  0  0  0  0  0  0  0  0  0
  1  7  1  0  0  0  0
  1  5  1  0  0  0  0
  3  5  2  0  0  0  0
  3 28  1  0  0  0  0
  4  7  1  6  0  0  0
  4 17  1  0  0  0  0
  4  2  1  0  0  0  0
  5  6  1  0  0  0  0
  6  2  1  0  0  0  0
  6 35  1  1  0  0  0
  8 11  1  6  0  0  0
  8 10  1  0  0  0  0
  9 15  1  6  0  0  0
  9 13  1  0  0  0  0
  9 18  1  0  0  0  0
 10 19  1  1  0  0  0
 12 23  1  1  0  0  0
 12 17  1  0  0  0  0
 12 15  1  0  0  0  0
 13 14  1  6  0  0  0
 13 16  1  0  0  0  0
 16  8  1  0  0  0  0
 17 22  1  6  0  0  0
 17 14  1  0  0  0  0
 18 10  1  0  0  0  0
 19 20  1  0  0  0  0
 22 21  1  0  0  0  0
 25 23  1  0  0  0  0
 25 24  1  0  0  0  0
 26 28  2  0  0  0  0
 26 30  1  0  0  0  0
 27 31  2  0  0  0  0
 28 27  1  0  0  0  0
 29 31  1  0  0  0  0
 29 32  1  0  0  0  0
 30 29  2  0  0  0  0
 32 33  1  0  0  0  0
 33 34  1  0  0  0  0
 35 36  1  0  0  0  0
 36 37  2  0  0  0  0
 36 38  1  0  0  0  0
 38 39  1  0  0  0  0
 39 40  1  0  0  0  0
 40 41  1  1  0  0  0
 42 47  1  6  0  0  0
 42 44  1  0  0  0  0
 43 49  1  0  0  0  0
 44 48  1  0  0  0  0
 46 40  1  6  0  0  0
 46 42  1  0  0  0  0
 46 43  1  0  0  0  0
 49 48  1  0  0  0  0
 49 45  2  0  0  0  0
M  END
>  <MODEL>
3

>  <REMARK>
 VINA RESULT:      -7.3      2.459      4.680
  Name = 
  14 active torsions:
  status: ('A' for Active; 'I' for Inactive)
    1  A    between atoms: C_4  and  C_10
    2  A    between atoms: C_4  and  C_20
    3  A    between atoms: C_5  and  C_22
    4  A    between atoms: C_5  and  C_44
    5  A    between atoms: O_7  and  C_16
    6  A    between atoms: C_10  and  O_46
    7  A    between atoms: N_11  and  N_14
    8  A    between atoms: N_11  and  C_28
    9  A    between atoms: C_13  and  C_20
   10  A    between atoms: C_13  and  C_30
   11  A    between atoms: C_27  and  C_29
   12  A    between atoms: C_32  and  P_41
   13  A    between atoms: P_41  and  O_42
   14  A    between atoms: C_43  and  O_46
                            x       y       z     vdW  Elec       q    Type
                         _______ _______ _______ _____ _____    ______ ____

>  <TORSDO>
F 14

$$$$
=
 OpenBabel11062414013D

 49 53  0  0  1  0  0  0  0  0999 V2000
  187.5070  177.5320  134.8170 C   0  0  0  0  0  2  0  0  0  0  0  0
  186.5160  176.2530  137.3020 C   0  0  0  0  0  2  0  0  0  0  0  0
  189.6910  176.6470  135.3910 C   0  0  0  0  0  3  0  0  0  0  0  0
  185.6250  177.1180  136.4140 C   0  0  1  0  0  3  0  0  0  0  0  0
  188.4350  176.8690  135.7940 C   0  0  0  0  0  0  0  0  0  0  0  0
  187.9830  176.6940  137.2230 C   0  0  1  0  0  3  0  0  0  0  0  0
  186.0910  176.9890  134.9660 C   0  0  0  0  0  2  0  0  0  0  0  0
  185.6980  172.4880  135.9270 C   0  0  2  0  0  3  0  0  0  0  0  0
  183.3860  173.6320  136.9200 C   0  0  2  0  0  3  0  0  0  0  0  0
  184.5070  171.5980  136.3390 C   0  0  1  0  0  3  0  0  0  0  0  0
  186.4740  172.7920  137.0440 O   0  0  0  0  0  1  0  0  0  0  0  0
  183.6180  175.6230  138.0820 C   0  0  1  0  0  3  0  0  0  0  0  0
  183.7860  174.0770  135.4960 C   0  0  1  0  0  3  0  0  0  0  0  0
  183.4300  175.5270  135.1910 C   0  0  0  0  0  2  0  0  0  0  0  0
  184.1190  174.3130  137.9200 O   0  0  0  0  0  0  0  0  0  0  0  0
  185.2570  173.7770  135.2330 C   0  0  0  0  0  2  0  0  0  0  0  0
  183.8720  176.6240  136.5770 P   0  0  2  0  0  4  0  0  0  0  0  0
  183.4980  172.2300  137.1260 O   0  0  0  0  0  0  0  0  0  0  0  0
  183.9330  171.0010  135.2130 O   0  0  0  0  0  0  0  0  0  0  0  0
  183.0080  170.0890  135.7290 C   0  0  0  0  0  1  0  0  0  0  0  0
  181.9320  177.8020  135.5850 C   0  0  0  0  0  1  0  0  0  0  0  0
  182.8440  177.9750  136.6250 O   0  0  0  0  0  0  0  0  0  0  0  0
  182.1650  175.6600  138.5630 C   0  0  0  0  0  2  0  0  0  0  0  0
  183.2420  177.1610  140.0830 O   0  0  0  0  0  1  0  0  0  0  0  0
  182.0330  176.5200  139.8090 C   0  0  0  0  0  2  0  0  0  0  0  0
  191.4290  174.9310  135.7070 C   0  0  0  0  0  3  0  0  0  0  0  0
  191.3010  176.7010  137.3470 C   0  0  0  0  0  3  0  0  0  0  0  0
  190.8230  176.1030  136.1710 C   0  0  0  0  0  0  0  0  0  0  0  0
  192.9820  174.9630  137.5660 C   0  0  0  0  0  0  0  0  0  0  0  0
  192.5050  174.3650  136.3960 C   0  0  0  0  0  3  0  0  0  0  0  0
  192.3760  176.1340  138.0410 C   0  0  0  0  0  3  0  0  0  0  0  0
  194.0830  174.3670  138.2560 N   0  0  0  0  0  2  0  0  0  0  0  0
  195.2820  175.0620  138.4660 N   0  0  0  0  0  2  0  0  0  0  0  0
  196.2680  174.0850  138.8800 C   0  0  0  0  0  1  0  0  0  0  0  0
  188.1830  177.9040  137.9420 O   0  0  0  0  0  0  0  0  0  0  0  0
  187.9500  177.9980  139.3170 C   0  0  0  0  0  0  0  0  0  0  0  0
  186.9140  178.5660  139.7580 O   0  0  0  0  0  0  0  0  0  0  0  0
  188.9320  177.4260  140.2770 C   0  0  0  0  0  2  0  0  0  0  0  0
  188.4430  177.6310  141.7020 C   0  0  0  0  0  2  0  0  0  0  0  0
  189.5580  177.3660  142.7080 C   0  0  2  0  0  3  0  0  0  0  0  0
  190.0270  175.9140  142.6400 C   0  0  0  0  0  1  0  0  0  0  0  0
  189.9570  177.1050  145.2020 C   0  0  1  0  0  3  0  0  0  0  0  0
  187.5990  177.4700  144.3310 C   0  0  0  0  0  2  0  0  0  0  0  0
  189.5830  177.7000  146.5520 C   0  0  0  0  0  2  0  0  0  0  0  0
  185.9580  177.6200  146.0550 O   0  0  0  0  0  0  0  0  0  0  0  0
  189.0950  177.7570  144.1160 C   0  0  2  0  0  3  0  0  0  0  0  0
  191.2970  177.3490  144.9630 F   0  0  0  0  0  0  0  0  0  0  0  0
  188.1580  177.5290  146.8140 N   0  0  0  0  0  2  0  0  0  0  0  0
  187.1850  177.5770  145.7670 C   0  0  0  0  0  0  0  0  0  0  0  0
  1  7  1  0  0  0  0
  1  5  1  0  0  0  0
  3  5  2  0  0  0  0
  3 28  1  0  0  0  0
  4  7  1  6  0  0  0
  4 17  1  0  0  0  0
  4  2  1  0  0  0  0
  5  6  1  0  0  0  0
  6  2  1  0  0  0  0
  6 35  1  1  0  0  0
  8 10  1  0  0  0  0
  8 11  1  1  0  0  0
  9 18  1  6  0  0  0
  9 15  1  0  0  0  0
 10 19  1  6  0  0  0
 10 18  1  0  0  0  0
 12 23  1  6  0  0  0
 13 14  1  1  0  0  0
 13  9  1  0  0  0  0
 14 17  1  0  0  0  0
 15 12  1  0  0  0  0
 16 13  1  0  0  0  0
 16  8  1  0  0  0  0
 17 22  1  1  0  0  0
 17 12  1  0  0  0  0
 19 20  1  0  0  0  0
 21 22  1  0  0  0  0
 23 25  1  0  0  0  0
 25 24  1  0  0  0  0
 26 28  2  0  0  0  0
 26 30  1  0  0  0  0
 27 31  2  0  0  0  0
 28 27  1  0  0  0  0
 29 31  1  0  0  0  0
 29 32  1  0  0  0  0
 30 29  2  0  0  0  0
 32 33  1  0  0  0  0
 33 34  1  0  0  0  0
 35 36  1  0  0  0  0
 36 37  2  0  0  0  0
 36 38  1  0  0  0  0
 38 39  1  0  0  0  0
 39 40  1  0  0  0  0
 40 41  1  1  0  0  0
 42 47  1  6  0  0  0
 42 44  1  0  0  0  0
 43 49  1  0  0  0  0
 44 48  1  0  0  0  0
 46 40  1  6  0  0  0
 46 43  1  0  0  0  0
 46 42  1  0  0  0  0
 49 45  2  0  0  0  0
 49 48  1  0  0  0  0
M  END
>  <MODEL>
4

>  <REMARK>
 VINA RESULT:      -7.3      2.375      3.298
  Name = 
  14 active torsions:
  status: ('A' for Active; 'I' for Inactive)
    1  A    between atoms: C_4  and  C_10
    2  A    between atoms: C_4  and  C_20
    3  A    between atoms: C_5  and  C_22
    4  A    between atoms: C_5  and  C_44
    5  A    between atoms: O_7  and  C_16
    6  A    between atoms: C_10  and  O_46
    7  A    between atoms: N_11  and  N_14
    8  A    between atoms: N_11  and  C_28
    9  A    between atoms: C_13  and  C_20
   10  A    between atoms: C_13  and  C_30
   11  A    between atoms: C_27  and  C_29
   12  A    between atoms: C_32  and  P_41
   13  A    between atoms: P_41  and  O_42
   14  A    between atoms: C_43  and  O_46
                            x       y       z     vdW  Elec       q    Type
                         _______ _______ _______ _____ _____    ______ ____

>  <TORSDO>
F 14

$$$$
=
 OpenBabel11062414013D

 49 53  0  0  1  0  0  0  0  0999 V2000
  184.9160  175.4580  137.2150 C   0  0  0  0  0  2  0  0  0  0  0  0
  186.4390  177.9860  137.5090 C   0  0  0  0  0  2  0  0  0  0  0  0
  182.9110  176.8230  137.2110 C   0  0  0  0  0  3  0  0  0  0  0  0
  187.1130  176.6160  137.5230 C   0  0  1  0  0  3  0  0  0  0  0  0
  184.2320  176.7790  137.4200 C   0  0  0  0  0  0  0  0  0  0  0  0
  185.0060  177.9100  138.0510 C   0  0  1  0  0  3  0  0  0  0  0  0
  186.3130  175.6590  136.6420 C   0  0  0  0  0  2  0  0  0  0  0  0
  189.5810  177.2280  141.4250 C   0  0  2  0  0  3  0  0  0  0  0  0
  190.9670  176.5670  139.1260 C   0  0  2  0  0  3  0  0  0  0  0  0
  191.1100  177.0320  141.4700 C   0  0  1  0  0  3  0  0  0  0  0  0
  188.9390  175.9960  141.5380 O   0  0  0  0  0  1  0  0  0  0  0  0
  189.8290  175.3230  137.5370 C   0  0  1  0  0  3  0  0  0  0  0  0
  190.1870  177.8980  139.0680 C   0  0  1  0  0  3  0  0  0  0  0  0
  189.6190  178.2090  137.6880 C   0  0  0  0  0  2  0  0  0  0  0  0
  190.1320  175.4460  138.9110 O   0  0  0  0  0  0  0  0  0  0  0  0
  189.1180  177.9410  140.1540 C   0  0  0  0  0  2  0  0  0  0  0  0
  188.8430  176.7390  136.9430 P   0  0  2  0  0  4  0  0  0  0  0  0
  191.6920  176.3890  140.3360 O   0  0  0  0  0  0  0  0  0  0  0  0
  191.7510  178.2500  141.7130 O   0  0  0  0  0  0  0  0  0  0  0  0
  191.6680  178.4240  143.0970 C   0  0  0  0  0  1  0  0  0  0  0  0
  189.0080  178.1610  134.9220 C   0  0  0  0  0  1  0  0  0  0  0  0
  188.9300  176.8080  135.2490 O   0  0  0  0  0  0  0  0  0  0  0  0
  191.0620  175.0690  136.6650 C   0  0  0  0  0  2  0  0  0  0  0  0
  189.7800  173.1630  135.9990 O   0  0  0  0  0  1  0  0  0  0  0  0
  191.0820  173.6340  136.1680 C   0  0  0  0  0  2  0  0  0  0  0  0
  181.3780  178.0680  138.6830 C   0  0  0  0  0  3  0  0  0  0  0  0
  181.6850  178.9020  136.4360 C   0  0  0  0  0  3  0  0  0  0  0  0
  181.9850  177.9550  137.4270 C   0  0  0  0  0  0  0  0  0  0  0  0
  180.1980  180.0590  137.9670 C   0  0  0  0  0  0  0  0  0  0  0  0
  180.4930  179.1150  138.9540 C   0  0  0  0  0  3  0  0  0  0  0  0
  180.7980  179.9500  136.7040 C   0  0  0  0  0  3  0  0  0  0  0  0
  179.2900  181.1220  138.2650 N   0  0  0  0  0  2  0  0  0  0  0  0
  179.7380  182.3540  138.7620 N   0  0  0  0  0  2  0  0  0  0  0  0
  179.2830  183.3710  137.8370 C   0  0  0  0  0  1  0  0  0  0  0  0
  185.0110  177.7580  139.4640 O   0  0  0  0  0  0  0  0  0  0  0  0
  184.5010  178.7400  140.3180 C   0  0  0  0  0  0  0  0  0  0  0  0
  184.5340  179.9580  139.9930 O   0  0  0  0  0  0  0  0  0  0  0  0
  183.9160  178.3520  141.6310 C   0  0  0  0  0  2  0  0  0  0  0  0
  184.5610  179.1610  142.7440 C   0  0  0  0  0  2  0  0  0  0  0  0
  184.4950  178.4150  144.0730 C   0  0  2  0  0  3  0  0  0  0  0  0
  183.4220  179.0060  144.9850 C   0  0  0  0  0  1  0  0  0  0  0  0
  186.7370  177.2360  144.2550 C   0  0  1  0  0  3  0  0  0  0  0  0
  185.7780  178.4470  146.2720 C   0  0  0  0  0  2  0  0  0  0  0  0
  188.1520  177.4130  144.7840 C   0  0  0  0  0  2  0  0  0  0  0  0
  187.2100  178.4080  148.1770 O   0  0  0  0  0  0  0  0  0  0  0  0
  185.8770  178.4090  144.7380 C   0  0  2  0  0  3  0  0  0  0  0  0
  186.7770  177.2060  142.8730 F   0  0  0  0  0  0  0  0  0  0  0  0
  188.1500  177.5220  146.2390 N   0  0  0  0  0  2  0  0  0  0  0  0
  187.0850  178.1620  146.9480 C   0  0  0  0  0  0  0  0  0  0  0  0
  1  5  1  0  0  0  0
  2  4  1  0  0  0  0
  2  6  1  0  0  0  0
  3  5  2  0  0  0  0
  3 28  1  0  0  0  0
  4  7  1  6  0  0  0
  5  6  1  0  0  0  0
  6 35  1  1  0  0  0
  7  1  1  0  0  0  0
  8 10  1  0  0  0  0
  8 11  1  6  0  0  0
  9 15  1  1  0  0  0
  9 18  1  0  0  0  0
 10 19  1  6  0  0  0
 12 23  1  6  0  0  0
 12 15  1  0  0  0  0
 13 14  1  6  0  0  0
 13  9  1  0  0  0  0
 13 16  1  0  0  0  0
 16  8  1  0  0  0  0
 17 22  1  6  0  0  0
 17  4  1  0  0  0  0
 17 12  1  0  0  0  0
 17 14  1  0  0  0  0
 18 10  1  0  0  0  0
 19 20  1  0  0  0  0
 21 22  1  0  0  0  0
 24 25  1  0  0  0  0
 25 23  1  0  0  0  0
 26 30  1  0  0  0  0
 27 31  2  0  0  0  0
 27 28  1  0  0  0  0
 28 26  2  0  0  0  0
 29 32  1  0  0  0  0
 29 30  2  0  0  0  0
 31 29  1  0  0  0  0
 32 33  1  0  0  0  0
 34 33  1  0  0  0  0
 35 36  1  0  0  0  0
 36 38  1  0  0  0  0
 37 36  2  0  0  0  0
 38 39  1  0  0  0  0
 39 40  1  0  0  0  0
 40 41  1  1  0  0  0
 42 47  1  6  0  0  0
 42 46  1  0  0  0  0
 42 44  1  0  0  0  0
 43 49  1  0  0  0  0
 44 48  1  0  0  0  0
 46 40  1  6  0  0  0
 46 43  1  0  0  0  0
 48 49  1  0  0  0  0
 49 45  2  0  0  0  0
M  END
>  <MODEL>
5

>  <REMARK>
 VINA RESULT:      -7.1      3.671      7.535
  Name = 
  14 active torsions:
  status: ('A' for Active; 'I' for Inactive)
    1  A    between atoms: C_4  and  C_10
    2  A    between atoms: C_4  and  C_20
    3  A    between atoms: C_5  and  C_22
    4  A    between atoms: C_5  and  C_44
    5  A    between atoms: O_7  and  C_16
    6  A    between atoms: C_10  and  O_46
    7  A    between atoms: N_11  and  N_14
    8  A    between atoms: N_11  and  C_28
    9  A    between atoms: C_13  and  C_20
   10  A    between atoms: C_13  and  C_30
   11  A    between atoms: C_27  and  C_29
   12  A    between atoms: C_32  and  P_41
   13  A    between atoms: P_41  and  O_42
   14  A    between atoms: C_43  and  O_46
                            x       y       z     vdW  Elec       q    Type
                         _______ _______ _______ _____ _____    ______ ____

>  <TORSDO>
F 14

$$$$
=
 OpenBabel11062414013D

 49 53  0  0  1  0  0  0  0  0999 V2000
  192.6870  177.1250  139.3860 C   0  0  0  0  0  2  0  0  0  0  0  0
  190.0930  176.1830  138.3010 C   0  0  0  0  0  2  0  0  0  0  0  0
  191.5920  177.2300  141.5480 C   0  0  0  0  0  3  0  0  0  0  0  0
  191.3060  176.4480  137.4120 C   0  0  1  0  0  3  0  0  0  0  0  0
  191.4440  177.0780  140.2270 C   0  0  0  0  0  0  0  0  0  0  0  0
  190.1000  177.0860  139.5410 C   0  0  1  0  0  3  0  0  0  0  0  0
  192.5770  176.1640  138.2090 C   0  0  0  0  0  2  0  0  0  0  0  0
  195.5260  174.4920  137.1940 C   0  0  2  0  0  3  0  0  0  0  0  0
  193.5450  173.4420  135.5760 C   0  0  2  0  0  3  0  0  0  0  0  0
  195.8230  173.2750  136.2940 C   0  0  1  0  0  3  0  0  0  0  0  0
  194.9440  174.0710  138.3880 O   0  0  0  0  0  1  0  0  0  0  0  0
  191.3630  173.6430  136.3270 C   0  0  1  0  0  3  0  0  0  0  0  0
  193.9010  174.9220  135.3120 C   0  0  1  0  0  3  0  0  0  0  0  0
  192.7070  175.7640  134.8790 C   0  0  0  0  0  2  0  0  0  0  0  0
  192.6810  173.2880  136.6850 O   0  0  0  0  0  0  0  0  0  0  0  0
  194.6260  175.5220  136.5100 C   0  0  0  0  0  2  0  0  0  0  0  0
  191.2420  175.4150  135.9050 P   0  0  2  0  0  4  0  0  0  0  0  0
  194.6850  172.6090  135.7470 O   0  0  0  0  0  0  0  0  0  0  0  0
  196.7100  173.6280  135.2730 O   0  0  0  0  0  0  0  0  0  0  0  0
  197.9780  173.3700  135.8010 C   0  0  0  0  0  1  0  0  0  0  0  0
  189.7570  177.0550  134.7920 C   0  0  0  0  0  1  0  0  0  0  0  0
  189.8150  175.6820  135.0230 O   0  0  0  0  0  0  0  0  0  0  0  0
  190.7700  172.7460  135.2370 C   0  0  0  0  0  2  0  0  0  0  0  0
  189.0340  171.1260  134.9460 O   0  0  0  0  0  1  0  0  0  0  0  0
  189.3620  172.3100  135.6080 C   0  0  0  0  0  2  0  0  0  0  0  0
  190.7960  178.1260  143.7000 C   0  0  0  0  0  3  0  0  0  0  0  0
  189.3240  176.6280  142.5050 C   0  0  0  0  0  3  0  0  0  0  0  0
  190.5430  177.3180  142.5860 C   0  0  0  0  0  0  0  0  0  0  0  0
  188.6320  177.5680  144.6330 C   0  0  0  0  0  0  0  0  0  0  0  0
  189.8460  178.2540  144.7160 C   0  0  0  0  0  3  0  0  0  0  0  0
  188.3720  176.7530  143.5230 C   0  0  0  0  0  3  0  0  0  0  0  0
  187.6740  177.7130  145.6850 N   0  0  0  0  0  2  0  0  0  0  0  0
  186.2980  177.5840  145.4490 N   0  0  0  0  0  2  0  0  0  0  0  0
  185.6480  178.6800  146.1370 C   0  0  0  0  0  1  0  0  0  0  0  0
  189.7460  178.4180  139.1950 O   0  0  0  0  0  0  0  0  0  0  0  0
  188.6450  178.7060  138.3830 C   0  0  0  0  0  0  0  0  0  0  0  0
  188.7690  179.4380  137.3640 O   0  0  0  0  0  0  0  0  0  0  0  0
  187.3070  178.1500  138.7210 C   0  0  0  0  0  2  0  0  0  0  0  0
  186.3810  178.2630  137.5210 C   0  0  0  0  0  2  0  0  0  0  0  0
  186.4940  177.0350  136.6230 C   0  0  2  0  0  3  0  0  0  0  0  0
  186.0360  177.3490  135.2010 C   0  0  0  0  0  1  0  0  0  0  0  0
  185.7920  174.6090  136.3640 C   0  0  1  0  0  3  0  0  0  0  0  0
  184.2580  176.2490  137.5530 C   0  0  0  0  0  2  0  0  0  0  0  0
  185.1850  173.4410  137.1280 C   0  0  0  0  0  2  0  0  0  0  0  0
  182.2710  175.2470  138.4080 O   0  0  0  0  0  0  0  0  0  0  0  0
  185.7140  175.8660  137.2360 C   0  0  2  0  0  3  0  0  0  0  0  0
  187.1080  174.3110  136.0670 F   0  0  0  0  0  0  0  0  0  0  0  0
  183.8140  173.7420  137.5270 N   0  0  0  0  0  2  0  0  0  0  0  0
  183.4030  175.0640  137.8860 C   0  0  0  0  0  0  0  0  0  0  0  0
  1  5  1  0  0  0  0
  2  6  1  0  0  0  0
  3 28  1  0  0  0  0
  4  7  1  1  0  0  0
  4  2  1  0  0  0  0
  5  3  2  0  0  0  0
  6 35  1  6  0  0  0
  6  5  1  0  0  0  0
  7  1  1  0  0  0  0
  8 11  1  1  0  0  0
  9 18  1  1  0  0  0
  9 15  1  0  0  0  0
 10 19  1  6  0  0  0
 10  8  1  0  0  0  0
 12 23  1  6  0  0  0
 12 15  1  0  0  0  0
 13 14  1  1  0  0  0
 13  9  1  0  0  0  0
 13 16  1  0  0  0  0
 14 17  1  0  0  0  0
 16  8  1  0  0  0  0
 17 22  1  6  0  0  0
 17 12  1  0  0  0  0
 17  4  1  0  0  0  0
 18 10  1  0  0  0  0
 19 20  1  0  0  0  0
 21 22  1  0  0  0  0
 23 25  1  0  0  0  0
 24 25  1  0  0  0  0
 26 30  1  0  0  0  0
 27 28  1  0  0  0  0
 27 31  2  0  0  0  0
 28 26  2  0  0  0  0
 29 30  2  0  0  0  0
 29 32  1  0  0  0  0
 31 29  1  0  0  0  0
 33 32  1  0  0  0  0
 33 34  1  0  0  0  0
 36 38  1  0  0  0  0
 36 35  1  0  0  0  0
 37 36  2  0  0  0  0
 39 38  1  0  0  0  0
 40 41  1  6  0  0  0
 40 39  1  0  0  0  0
 42 47  1  1  0  0  0
 42 44  1  0  0  0  0
 42 46  1  0  0  0  0
 43 49  1  0  0  0  0
 44 48  1  0  0  0  0
 46 40  1  6  0  0  0
 46 43  1  0  0  0  0
 48 49  1  0  0  0  0
 49 45  2  0  0  0  0
M  END
>  <MODEL>
6

>  <REMARK>
 VINA RESULT:      -6.5      4.722      8.517
  Name = 
  14 active torsions:
  status: ('A' for Active; 'I' for Inactive)
    1  A    between atoms: C_4  and  C_10
    2  A    between atoms: C_4  and  C_20
    3  A    between atoms: C_5  and  C_22
    4  A    between atoms: C_5  and  C_44
    5  A    between atoms: O_7  and  C_16
    6  A    between atoms: C_10  and  O_46
    7  A    between atoms: N_11  and  N_14
    8  A    between atoms: N_11  and  C_28
    9  A    between atoms: C_13  and  C_20
   10  A    between atoms: C_13  and  C_30
   11  A    between atoms: C_27  and  C_29
   12  A    between atoms: C_32  and  P_41
   13  A    between atoms: P_41  and  O_42
   14  A    between atoms: C_43  and  O_46
                            x       y       z     vdW  Elec       q    Type
                         _______ _______ _______ _____ _____    ______ ____

>  <TORSDO>
F 14

$$$$
=
 OpenBabel11062414013D

 49 53  0  0  1  0  0  0  0  0999 V2000
  184.9050  179.4860  144.7460 C   0  0  0  0  0  2  0  0  0  0  0  0
  186.1110  177.5110  142.8910 C   0  0  0  0  0  2  0  0  0  0  0  0
  182.7920  179.0300  143.6460 C   0  0  0  0  0  3  0  0  0  0  0  0
  186.9430  178.3160  143.8860 C   0  0  1  0  0  3  0  0  0  0  0  0
  184.1200  178.8630  143.6280 C   0  0  0  0  0  0  0  0  0  0  0  0
  184.8630  178.2870  142.4490 C   0  0  1  0  0  3  0  0  0  0  0  0
  186.0940  178.6100  145.1210 C   0  0  0  0  0  2  0  0  0  0  0  0
  189.2380  177.8270  139.8640 C   0  0  2  0  0  3  0  0  0  0  0  0
  190.6260  177.3100  142.1990 C   0  0  2  0  0  3  0  0  0  0  0  0
  190.7290  177.4360  139.8100 C   0  0  1  0  0  3  0  0  0  0  0  0
  189.1130  179.1950  140.0980 O   0  0  0  0  0  1  0  0  0  0  0  0
  189.9410  178.4450  144.0980 C   0  0  1  0  0  3  0  0  0  0  0  0
  189.4010  176.4040  141.9420 C   0  0  1  0  0  3  0  0  0  0  0  0
  188.6750  175.9920  143.2170 C   0  0  0  0  0  2  0  0  0  0  0  0
  190.2600  178.5690  142.7290 O   0  0  0  0  0  0  0  0  0  0  0  0
  188.4640  177.0450  140.9260 C   0  0  0  0  0  2  0  0  0  0  0  0
  188.4610  177.4060  144.3460 P   0  0  2  0  0  4  0  0  0  0  0  0
  191.4380  177.5000  141.0470 O   0  0  0  0  0  0  0  0  0  0  0  0
  190.8800  176.1700  139.2360 O   0  0  0  0  0  0  0  0  0  0  0  0
  190.8480  176.4010  137.8580 C   0  0  0  0  0  1  0  0  0  0  0  0
  188.4020  178.0360  146.7400 C   0  0  0  0  0  1  0  0  0  0  0  0
  188.4110  176.8810  145.9600 O   0  0  0  0  0  0  0  0  0  0  0  0
  191.1230  177.9840  144.9560 C   0  0  0  0  0  2  0  0  0  0  0  0
  192.0080  176.0470  146.0450 O   0  0  0  0  0  1  0  0  0  0  0  0
  191.2080  176.4670  144.9820 C   0  0  0  0  0  2  0  0  0  0  0  0
  182.2820  178.1590  141.4000 C   0  0  0  0  0  3  0  0  0  0  0  0
  180.4150  178.6530  142.8520 C   0  0  0  0  0  3  0  0  0  0  0  0
  181.8010  178.6100  142.6330 C   0  0  0  0  0  0  0  0  0  0  0  0
  180.0190  177.7870  140.6190 C   0  0  0  0  0  0  0  0  0  0  0  0
  181.3990  177.7460  140.3990 C   0  0  0  0  0  3  0  0  0  0  0  0
  179.5290  178.2420  141.8510 C   0  0  0  0  0  3  0  0  0  0  0  0
  179.1330  177.3600  139.5820 N   0  0  0  0  0  2  0  0  0  0  0  0
  179.6110  176.9250  138.3380 N   0  0  0  0  0  2  0  0  0  0  0  0
  179.2400  175.5310  138.2080 C   0  0  0  0  0  1  0  0  0  0  0  0
  185.2130  179.3280  141.5460 O   0  0  0  0  0  0  0  0  0  0  0  0
  185.0330  179.2060  140.1660 C   0  0  0  0  0  0  0  0  0  0  0  0
  184.4920  180.1300  139.5010 O   0  0  0  0  0  0  0  0  0  0  0  0
  185.4800  177.9700  139.4650 C   0  0  0  0  0  2  0  0  0  0  0  0
  185.8360  178.2930  138.0230 C   0  0  0  0  0  2  0  0  0  0  0  0
  185.1890  177.3000  137.0640 C   0  0  2  0  0  3  0  0  0  0  0  0
  183.6720  177.2720  137.2390 C   0  0  0  0  0  1  0  0  0  0  0  0
  186.9340  175.6530  136.2320 C   0  0  1  0  0  3  0  0  0  0  0  0
  184.7580  174.7960  137.2260 C   0  0  0  0  0  2  0  0  0  0  0  0
  187.6480  174.3620  136.6050 C   0  0  0  0  0  2  0  0  0  0  0  0
  184.6380  172.4180  137.3500 O   0  0  0  0  0  0  0  0  0  0  0  0
  185.8160  175.9130  137.2470 C   0  0  2  0  0  3  0  0  0  0  0  0
  187.8480  176.6890  136.2470 F   0  0  0  0  0  0  0  0  0  0  0  0
  186.7050  173.2510  136.6710 N   0  0  0  0  0  2  0  0  0  0  0  0
  185.3590  173.4260  137.1220 C   0  0  0  0  0  0  0  0  0  0  0  0
  1  7  1  0  0  0  0
  4  2  1  6  0  0  0
  4 17  1  0  0  0  0
  4  7  1  0  0  0  0
  5  3  2  0  0  0  0
  5  1  1  0  0  0  0
  6 35  1  6  0  0  0
  6  2  1  0  0  0  0
  6  5  1  0  0  0  0
  8 11  1  1  0  0  0
  8 16  1  0  0  0  0
  9 18  1  6  0  0  0
  9 15  1  0  0  0  0
 10 19  1  1  0  0  0
 10  8  1  0  0  0  0
 10 18  1  0  0  0  0
 12 17  1  0  0  0  0
 12 23  1  1  0  0  0
 13 16  1  6  0  0  0
 13  9  1  0  0  0  0
 13 14  1  0  0  0  0
 14 17  1  0  0  0  0
 15 12  1  0  0  0  0
 17 22  1  1  0  0  0
 20 19  1  0  0  0  0
 22 21  1  0  0  0  0
 23 25  1  0  0  0  0
 25 24  1  0  0  0  0
 26 28  1  0  0  0  0
 28 27  2  0  0  0  0
 28  3  1  0  0  0  0
 29 31  2  0  0  0  0
 30 29  1  0  0  0  0
 30 26  2  0  0  0  0
 31 27  1  0  0  0  0
 32 29  1  0  0  0  0
 33 32  1  0  0  0  0
 34 33  1  0  0  0  0
 36 35  1  0  0  0  0
 37 36  2  0  0  0  0
 38 36  1  0  0  0  0
 39 38  1  0  0  0  0
 40 41  1  1  0  0  0
 40 39  1  0  0  0  0
 42 47  1  1  0  0  0
 42 44  1  0  0  0  0
 42 46  1  0  0  0  0
 43 46  1  0  0  0  0
 44 48  1  0  0  0  0
 46 40  1  6  0  0  0
 48 49  1  0  0  0  0
 49 43  1  0  0  0  0
 49 45  2  0  0  0  0
M  END
>  <MODEL>
7

>  <REMARK>
 VINA RESULT:      -6.1      4.022      9.447
  Name = 
  14 active torsions:
  status: ('A' for Active; 'I' for Inactive)
    1  A    between atoms: C_4  and  C_10
    2  A    between atoms: C_4  and  C_20
    3  A    between atoms: C_5  and  C_22
    4  A    between atoms: C_5  and  C_44
    5  A    between atoms: O_7  and  C_16
    6  A    between atoms: C_10  and  O_46
    7  A    between atoms: N_11  and  N_14
    8  A    between atoms: N_11  and  C_28
    9  A    between atoms: C_13  and  C_20
   10  A    between atoms: C_13  and  C_30
   11  A    between atoms: C_27  and  C_29
   12  A    between atoms: C_32  and  P_41
   13  A    between atoms: P_41  and  O_42
   14  A    between atoms: C_43  and  O_46
                            x       y       z     vdW  Elec       q    Type
                         _______ _______ _______ _____ _____    ______ ____

>  <TORSDO>
F 14

$$$$
=
 OpenBabel11062414013D

 49 53  0  0  1  0  0  0  0  0999 V2000
  185.0860  179.4690  145.0520 C   0  0  0  0  0  2  0  0  0  0  0  0
  186.1960  177.5060  143.1270 C   0  0  0  0  0  2  0  0  0  0  0  0
  182.9240  179.0390  144.0400 C   0  0  0  0  0  3  0  0  0  0  0  0
  187.0760  178.2940  144.0930 C   0  0  1  0  0  3  0  0  0  0  0  0
  184.2480  178.8630  143.9630 C   0  0  0  0  0  0  0  0  0  0  0  0
  184.9360  178.2950  142.7460 C   0  0  1  0  0  3  0  0  0  0  0  0
  186.2830  178.5810  145.3660 C   0  0  0  0  0  2  0  0  0  0  0  0
  189.2040  177.8550  139.9740 C   0  0  2  0  0  3  0  0  0  0  0  0
  190.6820  177.2940  142.2430 C   0  0  2  0  0  3  0  0  0  0  0  0
  190.6900  177.4560  139.8550 C   0  0  1  0  0  3  0  0  0  0  0  0
  189.0970  179.2200  140.2340 O   0  0  0  0  0  1  0  0  0  0  0  0
  190.0810  178.4040  144.1860 C   0  0  1  0  0  3  0  0  0  0  0  0
  189.4430  176.3990  142.0220 C   0  0  1  0  0  3  0  0  0  0  0  0
  188.7650  175.9710  143.3190 C   0  0  0  0  0  2  0  0  0  0  0  0
  190.3450  178.5470  142.8070 O   0  0  0  0  0  0  0  0  0  0  0  0
  188.4680  177.0600  141.0550 C   0  0  0  0  0  2  0  0  0  0  0  0
  188.6060  177.3690  144.4770 P   0  0  2  0  0  4  0  0  0  0  0  0
  191.4480  177.4980  141.0630 O   0  0  0  0  0  0  0  0  0  0  0  0
  190.8100  176.1990  139.2560 O   0  0  0  0  0  0  0  0  0  0  0  0
  191.7770  176.3720  138.2610 C   0  0  0  0  0  1  0  0  0  0  0  0
  188.7260  177.9590  146.8800 C   0  0  0  0  0  1  0  0  0  0  0  0
  188.6180  176.8200  146.0840 O   0  0  0  0  0  0  0  0  0  0  0  0
  191.2930  177.9230  144.9880 C   0  0  0  0  0  2  0  0  0  0  0  0
  192.0450  175.9550  146.1210 O   0  0  0  0  0  1  0  0  0  0  0  0
  191.3720  176.4060  144.9860 C   0  0  0  0  0  2  0  0  0  0  0  0
  182.3060  178.2700  141.7830 C   0  0  0  0  0  3  0  0  0  0  0  0
  180.5170  178.6160  143.3690 C   0  0  0  0  0  3  0  0  0  0  0  0
  181.8870  178.6360  143.0660 C   0  0  0  0  0  0  0  0  0  0  0  0
  180.0140  177.8560  141.1190 C   0  0  0  0  0  0  0  0  0  0  0  0
  181.3770  177.8780  140.8150 C   0  0  0  0  0  3  0  0  0  0  0  0
  179.5850  178.2260  142.4020 C   0  0  0  0  0  3  0  0  0  0  0  0
  179.0800  177.4510  140.1150 N   0  0  0  0  0  2  0  0  0  0  0  0
  179.2700  176.2860  139.3600 N   0  0  0  0  0  2  0  0  0  0  0  0
  179.1380  175.1680  140.2710 C   0  0  0  0  0  1  0  0  0  0  0  0
  185.2540  179.3430  141.8410 O   0  0  0  0  0  0  0  0  0  0  0  0
  185.0230  179.2330  140.4670 C   0  0  0  0  0  0  0  0  0  0  0  0
  184.3900  180.1290  139.8450 O   0  0  0  0  0  0  0  0  0  0  0  0
  185.5240  178.0460  139.7220 C   0  0  0  0  0  2  0  0  0  0  0  0
  185.3850  178.2760  138.2260 C   0  0  0  0  0  2  0  0  0  0  0  0
  185.2440  176.9540  137.4790 C   0  0  2  0  0  3  0  0  0  0  0  0
  185.7350  177.0810  136.0380 C   0  0  0  0  0  1  0  0  0  0  0  0
  183.6730  174.9770  137.2060 C   0  0  1  0  0  3  0  0  0  0  0  0
  182.8510  177.3250  136.6910 C   0  0  0  0  0  2  0  0  0  0  0  0
  182.2550  174.5140  137.5050 C   0  0  0  0  0  2  0  0  0  0  0  0
  180.5530  177.4140  136.0620 O   0  0  0  0  0  0  0  0  0  0  0  0
  183.7920  176.4650  137.5510 C   0  0  2  0  0  3  0  0  0  0  0  0
  184.5560  174.2350  137.9680 F   0  0  0  0  0  0  0  0  0  0  0  0
  181.2840  175.3210  136.7750 N   0  0  0  0  0  2  0  0  0  0  0  0
  181.4940  176.7120  136.5200 C   0  0  0  0  0  0  0  0  0  0  0  0
  1  7  1  0  0  0  0
  4  2  1  6  0  0  0
  4 17  1  0  0  0  0
  4  7  1  0  0  0  0
  5  3  2  0  0  0  0
  5  1  1  0  0  0  0
  6 35  1  6  0  0  0
  6  2  1  0  0  0  0
  6  5  1  0  0  0  0
  8 11  1  1  0  0  0
  8 16  1  0  0  0  0
  9 18  1  6  0  0  0
  9 15  1  0  0  0  0
 10 19  1  1  0  0  0
 10  8  1  0  0  0  0
 10 18  1  0  0  0  0
 12 17  1  0  0  0  0
 12 23  1  1  0  0  0
 13 16  1  6  0  0  0
 13  9  1  0  0  0  0
 13 14  1  0  0  0  0
 14 17  1  0  0  0  0
 15 12  1  0  0  0  0
 17 22  1  1  0  0  0
 20 19  1  0  0  0  0
 22 21  1  0  0  0  0
 25 23  1  0  0  0  0
 25 24  1  0  0  0  0
 26 28  1  0  0  0  0
 28 27  2  0  0  0  0
 28  3  1  0  0  0  0
 29 31  2  0  0  0  0
 30 29  1  0  0  0  0
 30 26  2  0  0  0  0
 31 27  1  0  0  0  0
 32 29  1  0  0  0  0
 33 32  1  0  0  0  0
 33 34  1  0  0  0  0
 36 35  1  0  0  0  0
 37 36  2  0  0  0  0
 38 36  1  0  0  0  0
 39 38  1  0  0  0  0
 40 41  1  6  0  0  0
 40 39  1  0  0  0  0
 42 44  1  0  0  0  0
 42 46  1  0  0  0  0
 42 47  1  1  0  0  0
 43 46  1  0  0  0  0
 45 49  2  0  0  0  0
 46 40  1  6  0  0  0
 48 44  1  0  0  0  0
 49 43  1  0  0  0  0
 49 48  1  0  0  0  0
M  END
>  <MODEL>
8

>  <REMARK>
 VINA RESULT:      -6.0      4.132      9.580
  Name = 
  14 active torsions:
  status: ('A' for Active; 'I' for Inactive)
    1  A    between atoms: C_4  and  C_10
    2  A    between atoms: C_4  and  C_20
    3  A    between atoms: C_5  and  C_22
    4  A    between atoms: C_5  and  C_44
    5  A    between atoms: O_7  and  C_16
    6  A    between atoms: C_10  and  O_46
    7  A    between atoms: N_11  and  N_14
    8  A    between atoms: N_11  and  C_28
    9  A    between atoms: C_13  and  C_20
   10  A    between atoms: C_13  and  C_30
   11  A    between atoms: C_27  and  C_29
   12  A    between atoms: C_32  and  P_41
   13  A    between atoms: P_41  and  O_42
   14  A    between atoms: C_43  and  O_46
                            x       y       z     vdW  Elec       q    Type
                         _______ _______ _______ _____ _____    ______ ____

>  <TORSDO>
F 14

$$$$
=
 OpenBabel11062414013D

 49 53  0  0  1  0  0  0  0  0999 V2000
  185.2130  175.3860  137.1370 C   0  0  0  0  0  2  0  0  0  0  0  0
  186.5370  178.0310  137.3440 C   0  0  0  0  0  2  0  0  0  0  0  0
  183.1540  176.5970  136.7190 C   0  0  0  0  0  3  0  0  0  0  0  0
  187.2780  176.7210  137.5990 C   0  0  1  0  0  3  0  0  0  0  0  0
  184.4340  176.6690  137.1020 C   0  0  0  0  0  0  0  0  0  0  0  0
  185.0490  177.9100  137.6990 C   0  0  1  0  0  3  0  0  0  0  0  0
  186.6620  175.6250  136.7330 C   0  0  0  0  0  2  0  0  0  0  0  0
  189.2080  177.4640  141.7720 C   0  0  2  0  0  3  0  0  0  0  0  0
  190.8980  176.8360  139.6750 C   0  0  2  0  0  3  0  0  0  0  0  0
  190.7260  177.3270  142.0120 C   0  0  1  0  0  3  0  0  0  0  0  0
  188.6040  176.2080  141.8200 O   0  0  0  0  0  1  0  0  0  0  0  0
  190.0170  175.5350  137.9730 C   0  0  1  0  0  3  0  0  0  0  0  0
  190.0820  178.1360  139.5010 C   0  0  1  0  0  3  0  0  0  0  0  0
  189.6820  178.4120  138.0560 C   0  0  0  0  0  2  0  0  0  0  0  0
  190.1380  175.6810  139.3720 O   0  0  0  0  0  0  0  0  0  0  0  0
  188.8830  178.1470  140.4430 C   0  0  0  0  0  2  0  0  0  0  0  0
  189.0610  176.9060  137.2400 P   0  0  2  0  0  4  0  0  0  0  0  0
  191.4700  176.6970  140.9690 O   0  0  0  0  0  0  0  0  0  0  0  0
  191.2850  178.5710  142.3170 O   0  0  0  0  0  0  0  0  0  0  0  0
  190.8230  178.8610  143.6040 C   0  0  0  0  0  1  0  0  0  0  0  0
  189.3170  178.3120  135.2170 C   0  0  0  0  0  1  0  0  0  0  0  0
  189.3600  176.9640  135.5690 O   0  0  0  0  0  0  0  0  0  0  0  0
  191.3590  175.3210  137.2670 C   0  0  0  0  0  2  0  0  0  0  0  0
  192.7610  173.6510  136.2860 O   0  0  0  0  0  1  0  0  0  0  0  0
  191.4630  173.9050  136.7280 C   0  0  0  0  0  2  0  0  0  0  0  0
  182.0830  178.4740  135.5370 C   0  0  0  0  0  3  0  0  0  0  0  0
  181.2630  177.9370  137.7450 C   0  0  0  0  0  3  0  0  0  0  0  0
  182.1440  177.6770  136.6850 C   0  0  0  0  0  0  0  0  0  0  0  0
  180.2730  179.7670  136.4950 C   0  0  0  0  0  0  0  0  0  0  0  0
  181.1510  179.5100  135.4390 C   0  0  0  0  0  3  0  0  0  0  0  0
  180.3310  178.9760  137.6510 C   0  0  0  0  0  3  0  0  0  0  0  0
  179.3270  180.8320  136.3740 N   0  0  0  0  0  2  0  0  0  0  0  0
  179.0830  181.4640  135.1470 N   0  0  0  0  0  2  0  0  0  0  0  0
  179.1530  182.8910  135.3860 C   0  0  0  0  0  1  0  0  0  0  0  0
  184.8670  177.9060  139.1090 O   0  0  0  0  0  0  0  0  0  0  0  0
  184.6890  179.0850  139.8380 C   0  0  0  0  0  0  0  0  0  0  0  0
  184.3040  180.1430  139.2710 O   0  0  0  0  0  0  0  0  0  0  0  0
  184.9580  179.1000  141.3020 C   0  0  0  0  0  2  0  0  0  0  0  0
  183.9310  178.2440  142.0260 C   0  0  0  0  0  2  0  0  0  0  0  0
  182.8140  179.1040  142.6100 C   0  0  2  0  0  3  0  0  0  0  0  0
  182.7160  178.9260  144.1230 C   0  0  0  0  0  1  0  0  0  0  0  0
  180.2830  179.0660  142.8080 C   0  0  1  0  0  3  0  0  0  0  0  0
  181.4630  177.3560  141.3440 C   0  0  0  0  0  2  0  0  0  0  0  0
  179.0110  178.9390  141.9820 C   0  0  0  0  0  2  0  0  0  0  0  0
  179.9710  175.8920  140.1970 O   0  0  0  0  0  0  0  0  0  0  0  0
  181.4900  178.7880  141.9050 C   0  0  2  0  0  3  0  0  0  0  0  0
  180.3540  180.3450  143.3250 F   0  0  0  0  0  0  0  0  0  0  0  0
  178.9310  177.6240  141.3560 N   0  0  0  0  0  2  0  0  0  0  0  0
  180.0960  176.9290  140.9030 C   0  0  0  0  0  0  0  0  0  0  0  0
  2  4  1  0  0  0  0
  2  6  1  0  0  0  0
  3  5  2  0  0  0  0
  4  7  1  6  0  0  0
  5  1  1  0  0  0  0
  5  6  1  0  0  0  0
  6 35  1  1  0  0  0
  7  1  1  0  0  0  0
  8 11  1  6  0  0  0
  8 10  1  0  0  0  0
  9 15  1  1  0  0  0
  9 18  1  0  0  0  0
 10 19  1  6  0  0  0
 12 23  1  6  0  0  0
 12 15  1  0  0  0  0
 13 14  1  6  0  0  0
 13  9  1  0  0  0  0
 13 16  1  0  0  0  0
 16  8  1  0  0  0  0
 17 22  1  6  0  0  0
 17  4  1  0  0  0  0
 17 12  1  0  0  0  0
 17 14  1  0  0  0  0
 18 10  1  0  0  0  0
 19 20  1  0  0  0  0
 21 22  1  0  0  0  0
 24 25  1  0  0  0  0
 25 23  1  0  0  0  0
 26 28  1  0  0  0  0
 28  3  1  0  0  0  0
 28 27  2  0  0  0  0
 29 31  2  0  0  0  0
 30 26  2  0  0  0  0
 30 29  1  0  0  0  0
 31 27  1  0  0  0  0
 32 29  1  0  0  0  0
 33 34  1  0  0  0  0
 33 32  1  0  0  0  0
 35 36  1  0  0  0  0
 36 38  1  0  0  0  0
 37 36  2  0  0  0  0
 38 39  1  0  0  0  0
 39 40  1  0  0  0  0
 40 41  1  1  0  0  0
 42 47  1  6  0  0  0
 43 46  1  0  0  0  0
 44 42  1  0  0  0  0
 45 49  2  0  0  0  0
 46 40  1  1  0  0  0
 46 42  1  0  0  0  0
 48 44  1  0  0  0  0
 49 43  1  0  0  0  0
 49 48  1  0  0  0  0
M  END
>  <MODEL>
9

>  <REMARK>
 VINA RESULT:      -5.8      4.437      8.447
  Name = 
  14 active torsions:
  status: ('A' for Active; 'I' for Inactive)
    1  A    between atoms: C_4  and  C_10
    2  A    between atoms: C_4  and  C_20
    3  A    between atoms: C_5  and  C_22
    4  A    between atoms: C_5  and  C_44
    5  A    between atoms: O_7  and  C_16
    6  A    between atoms: C_10  and  O_46
    7  A    between atoms: N_11  and  N_14
    8  A    between atoms: N_11  and  C_28
    9  A    between atoms: C_13  and  C_20
   10  A    between atoms: C_13  and  C_30
   11  A    between atoms: C_27  and  C_29
   12  A    between atoms: C_32  and  P_41
   13  A    between atoms: P_41  and  O_42
   14  A    between atoms: C_43  and  O_46
                            x       y       z     vdW  Elec       q    Type
                         _______ _______ _______ _____ _____    ______ ____

>  <TORSDO>
F 14

$$$$
