=
 OpenBabel11062413343D

 28 29  0  0  1  0  0  0  0  0999 V2000
  185.9250  178.4670  145.2170 C   0  0  0  0  0  2  0  0  0  0  0  0
  183.3350  178.8660  144.3850 C   0  0  0  0  0  0  0  0  0  0  0  0
  182.3340  178.7450  142.4880 N   0  0  0  0  0  0  0  0  0  0  0  0
  183.6230  178.3790  142.2650 C   0  0  0  0  0  0  0  0  0  0  0  0
  182.1540  179.0400  143.7750 N   0  0  0  0  0  0  0  0  0  0  0  0
  183.6250  179.0920  145.6870 N   0  0  0  0  0  0  0  0  0  0  0  0
  184.9110  178.8930  146.1110 C   0  0  0  0  0  3  0  0  0  0  0  0
  185.6360  178.2350  143.8570 C   0  0  0  0  0  0  0  0  0  0  0  0
  184.3230  178.4420  143.4510 C   0  0  0  0  0  0  0  0  0  0  0  0
  186.6950  177.7640  142.9140 C   0  0  0  0  0  2  0  0  0  0  0  0
  189.1000  178.2680  143.4710 N   0  0  0  0  0  2  0  0  0  0  0  0
  190.4350  178.0820  143.9730 C   0  0  0  0  0  0  0  0  0  0  0  0
  187.9520  177.4290  143.6480 C   0  0  0  0  0  0  0  0  0  0  0  0
  191.2730  179.0040  143.7970 O   0  0  0  0  0  0  0  0  0  0  0  0
  187.9770  176.4310  144.4130 O   0  0  0  0  0  0  0  0  0  0  0  0
  190.8970  176.8450  144.6860 C   0  0  1  0  0  3  0  0  0  0  0  0
  190.6570  175.2640  142.9130 O   0  0  0  0  0  1  0  0  0  0  0  0
  191.5950  175.8850  143.7360 C   0  0  0  0  0  2  0  0  0  0  0  0
  191.7430  177.1700  145.8250 N   0  0  0  0  0  2  0  0  0  0  0  0
  191.1750  176.5090  146.9880 C   0  0  0  0  0  2  0  0  0  0  0  0
  189.9050  177.1440  147.3400 C   0  0  0  0  0  0  0  0  0  0  0  0
  188.8580  177.6670  147.6280 C   0  0  0  0  0  3  0  0  0  0  0  0
  184.1770  178.0620  140.9140 C   0  0  0  0  0  2  0  0  0  0  0  0
  184.4690  179.3380  140.1400 C   0  0  0  0  0  2  0  0  0  0  0  0
  184.4640  179.0740  138.6430 C   0  0  0  0  0  2  0  0  0  0  0  0
  186.7850  178.5280  138.5420 O   0  0  0  0  0  1  0  0  0  0  0  0
  185.3640  177.0050  137.5860 O   0  0  0  0  0  0  0  0  0  0  0  0
  185.6030  178.1880  138.2710 C   0  0  0  0  0  0  0  0  0  0  0  0
  1  7  1  0  0  0  0
  2  6  1  0  0  0  0
  3  5  1  0  0  0  0
  4  3  2  0  0  0  0
  4  9  1  0  0  0  0
  5  2  2  0  0  0  0
  6  7  2  0  0  0  0
  8  1  1  0  0  0  0
  9  8  2  0  0  0  0
  9  2  1  0  0  0  0
 10 13  1  0  0  0  0
 10  8  1  0  0  0  0
 11 13  1  0  0  0  0
 11 12  1  0  0  0  0
 12 16  1  0  0  0  0
 13 15  2  0  0  0  0
 14 12  2  0  0  0  0
 16 18  1  6  0  0  0
 16 19  1  0  0  0  0
 17 18  1  0  0  0  0
 19 20  1  0  0  0  0
 20 21  1  0  0  0  0
 21 22  3  0  0  0  0
 23  4  1  0  0  0  0
 24 23  1  0  0  0  0
 25 24  1  0  0  0  0
 27 28  2  0  0  0  0
 28 26  1  0  0  0  0
 28 25  1  0  0  0  0
M  END
>  <MODEL>
1

>  <REMARK>
 VINA RESULT:      -7.5      0.000      0.000
  Name = 
  11 active torsions:
  status: ('A' for Active; 'I' for Inactive)
    1  A    between atoms: C_1  and  C_23
    2  A    between atoms: C_1  and  C_28
    3  A    between atoms: N_2  and  C_3
    4  A    between atoms: N_2  and  CA_24
    5  A    between atoms: C_3  and  C_17
    6  A    between atoms: C_11  and  CA_24
    7  A    between atoms: C_12  and  C_26
    8  A    between atoms: C_16  and  C_22
    9  A    between atoms: C_18  and  CA_24
   10  A    between atoms: C_19  and  C_22
   11  A    between atoms: C_23  and  C_26
                            x       y       z     vdW  Elec       q    Type
                         _______ _______ _______ _____ _____    ______ ____

>  <TORSDO>
F 11

$$$$
=
 OpenBabel11062413343D

 28 29  0  0  1  0  0  0  0  0999 V2000
  185.9480  178.3580  145.2960 C   0  0  0  0  0  2  0  0  0  0  0  0
  183.3870  178.8280  144.4130 C   0  0  0  0  0  0  0  0  0  0  0  0
  182.4540  178.8840  142.4800 N   0  0  0  0  0  0  0  0  0  0  0  0
  183.7520  178.5430  142.2690 C   0  0  0  0  0  0  0  0  0  0  0  0
  182.2270  179.0570  143.7810 N   0  0  0  0  0  0  0  0  0  0  0  0
  183.6300  178.9320  145.7410 N   0  0  0  0  0  0  0  0  0  0  0  0
  184.9010  178.6960  146.1890 C   0  0  0  0  0  3  0  0  0  0  0  0
  185.7090  178.2540  143.9100 C   0  0  0  0  0  0  0  0  0  0  0  0
  184.4090  178.4950  143.4790 C   0  0  0  0  0  0  0  0  0  0  0  0
  186.8030  177.8760  142.9660 C   0  0  0  0  0  2  0  0  0  0  0  0
  189.2110  178.3060  143.5700 N   0  0  0  0  0  2  0  0  0  0  0  0
  190.5330  178.0750  144.0870 C   0  0  0  0  0  0  0  0  0  0  0  0
  188.0400  177.4920  143.7090 C   0  0  0  0  0  0  0  0  0  0  0  0
  191.3960  178.9800  143.9460 O   0  0  0  0  0  0  0  0  0  0  0  0
  188.0290  176.4740  144.4490 O   0  0  0  0  0  0  0  0  0  0  0  0
  190.9540  176.8090  144.7740 C   0  0  1  0  0  3  0  0  0  0  0  0
  190.7130  175.2760  142.9600 O   0  0  0  0  0  1  0  0  0  0  0  0
  191.6490  175.8590  143.8120 C   0  0  0  0  0  2  0  0  0  0  0  0
  191.7840  177.0850  145.9370 N   0  0  0  0  0  2  0  0  0  0  0  0
  191.1670  176.4260  147.0760 C   0  0  0  0  0  2  0  0  0  0  0  0
  189.9570  177.1510  147.4630 C   0  0  0  0  0  0  0  0  0  0  0  0
  188.9580  177.7460  147.7810 C   0  0  0  0  0  3  0  0  0  0  0  0
  184.3540  178.3550  140.9150 C   0  0  0  0  0  2  0  0  0  0  0  0
  183.2790  178.3810  139.8400 C   0  0  0  0  0  2  0  0  0  0  0  0
  183.3600  179.6620  139.0270 C   0  0  0  0  0  2  0  0  0  0  0  0
  180.9860  179.6460  139.2670 O   0  0  0  0  0  1  0  0  0  0  0  0
  181.8730  181.5260  138.3050 O   0  0  0  0  0  0  0  0  0  0  0  0
  182.0080  180.2750  138.8890 C   0  0  0  0  0  0  0  0  0  0  0  0
  1  7  1  0  0  0  0
  2  6  1  0  0  0  0
  3  5  1  0  0  0  0
  4  3  2  0  0  0  0
  4  9  1  0  0  0  0
  5  2  2  0  0  0  0
  6  7  2  0  0  0  0
  8  1  1  0  0  0  0
  9  8  2  0  0  0  0
  9  2  1  0  0  0  0
 10 13  1  0  0  0  0
 10  8  1  0  0  0  0
 11 13  1  0  0  0  0
 11 12  1  0  0  0  0
 12 16  1  0  0  0  0
 13 15  2  0  0  0  0
 14 12  2  0  0  0  0
 16 18  1  6  0  0  0
 16 19  1  0  0  0  0
 17 18  1  0  0  0  0
 19 20  1  0  0  0  0
 20 21  1  0  0  0  0
 21 22  3  0  0  0  0
 23  4  1  0  0  0  0
 24 23  1  0  0  0  0
 25 24  1  0  0  0  0
 27 28  2  0  0  0  0
 28 25  1  0  0  0  0
 28 26  1  0  0  0  0
M  END
>  <MODEL>
2

>  <REMARK>
 VINA RESULT:      -7.3      1.625      1.802
  Name = 
  11 active torsions:
  status: ('A' for Active; 'I' for Inactive)
    1  A    between atoms: C_1  and  C_23
    2  A    between atoms: C_1  and  C_28
    3  A    between atoms: N_2  and  C_3
    4  A    between atoms: N_2  and  CA_24
    5  A    between atoms: C_3  and  C_17
    6  A    between atoms: C_11  and  CA_24
    7  A    between atoms: C_12  and  C_26
    8  A    between atoms: C_16  and  C_22
    9  A    between atoms: C_18  and  CA_24
   10  A    between atoms: C_19  and  C_22
   11  A    between atoms: C_23  and  C_26
                            x       y       z     vdW  Elec       q    Type
                         _______ _______ _______ _____ _____    ______ ____

>  <TORSDO>
F 11

$$$$
=
 OpenBabel11062413343D

 28 29  0  0  1  0  0  0  0  0999 V2000
  188.6400  176.9680  145.5800 C   0  0  0  0  0  2  0  0  0  0  0  0
  186.7560  178.4660  146.9090 C   0  0  0  0  0  0  0  0  0  0  0  0
  184.7930  179.1870  146.4170 N   0  0  0  0  0  0  0  0  0  0  0  0
  185.2080  178.4480  145.3550 C   0  0  0  0  0  0  0  0  0  0  0  0
  185.7300  179.1990  147.3640 N   0  0  0  0  0  0  0  0  0  0  0  0
  187.9400  178.2440  147.5250 N   0  0  0  0  0  0  0  0  0  0  0  0
  188.8830  177.4970  146.8730 C   0  0  0  0  0  3  0  0  0  0  0  0
  187.4130  177.2000  144.9250 C   0  0  0  0  0  0  0  0  0  0  0  0
  186.4710  177.9590  145.6090 C   0  0  0  0  0  0  0  0  0  0  0  0
  187.1420  176.6270  143.5720 C   0  0  0  0  0  2  0  0  0  0  0  0
  188.3390  177.6030  141.5820 N   0  0  0  0  0  2  0  0  0  0  0  0
  189.3290  177.7680  140.5520 C   0  0  0  0  0  0  0  0  0  0  0  0
  188.3540  176.7130  142.7040 C   0  0  0  0  0  0  0  0  0  0  0  0
  189.1730  178.6950  139.7150 O   0  0  0  0  0  0  0  0  0  0  0  0
  189.3650  176.0150  142.9790 O   0  0  0  0  0  0  0  0  0  0  0  0
  190.5370  176.8890  140.4030 C   0  0  1  0  0  3  0  0  0  0  0  0
  191.9550  176.4550  138.5310 O   0  0  0  0  0  1  0  0  0  0  0  0
  190.6460  176.3280  138.9940 C   0  0  0  0  0  2  0  0  0  0  0  0
  191.7540  177.5870  140.7890 N   0  0  0  0  0  2  0  0  0  0  0  0
  192.0820  177.1690  142.1410 C   0  0  0  0  0  2  0  0  0  0  0  0
  191.6610  178.2000  143.0880 C   0  0  0  0  0  0  0  0  0  0  0  0
  191.3150  179.0520  143.8680 C   0  0  0  0  0  3  0  0  0  0  0  0
  184.4260  178.2970  144.0910 C   0  0  0  0  0  2  0  0  0  0  0  0
  183.3590  179.3750  143.9870 C   0  0  0  0  0  2  0  0  0  0  0  0
  181.9690  178.7580  143.9800 C   0  0  0  0  0  2  0  0  0  0  0  0
  181.2960  178.6570  141.6930 O   0  0  0  0  0  0  0  0  0  0  0  0
  180.3890  180.3660  142.9210 O   0  0  0  0  0  1  0  0  0  0  0  0
  181.1940  179.2420  142.8030 C   0  0  0  0  0  0  0  0  0  0  0  0
  1  7  1  0  0  0  0
  2  5  2  0  0  0  0
  2  6  1  0  0  0  0
  3  5  1  0  0  0  0
  4  9  1  0  0  0  0
  4  3  2  0  0  0  0
  7  6  2  0  0  0  0
  8  1  1  0  0  0  0
  8  9  2  0  0  0  0
  9  2  1  0  0  0  0
 10  8  1  0  0  0  0
 11 13  1  0  0  0  0
 12 11  1  0  0  0  0
 13 15  2  0  0  0  0
 13 10  1  0  0  0  0
 14 12  2  0  0  0  0
 16 18  1  6  0  0  0
 16 12  1  0  0  0  0
 16 19  1  0  0  0  0
 17 18  1  0  0  0  0
 19 20  1  0  0  0  0
 20 21  1  0  0  0  0
 21 22  3  0  0  0  0
 23  4  1  0  0  0  0
 24 23  1  0  0  0  0
 25 24  1  0  0  0  0
 26 28  2  0  0  0  0
 28 27  1  0  0  0  0
 28 25  1  0  0  0  0
M  END
>  <MODEL>
3

>  <REMARK>
 VINA RESULT:      -7.2      3.041      4.454
  Name = 
  11 active torsions:
  status: ('A' for Active; 'I' for Inactive)
    1  A    between atoms: C_1  and  C_23
    2  A    between atoms: C_1  and  C_28
    3  A    between atoms: N_2  and  C_3
    4  A    between atoms: N_2  and  CA_24
    5  A    between atoms: C_3  and  C_17
    6  A    between atoms: C_11  and  CA_24
    7  A    between atoms: C_12  and  C_26
    8  A    between atoms: C_16  and  C_22
    9  A    between atoms: C_18  and  CA_24
   10  A    between atoms: C_19  and  C_22
   11  A    between atoms: C_23  and  C_26
                            x       y       z     vdW  Elec       q    Type
                         _______ _______ _______ _____ _____    ______ ____

>  <TORSDO>
F 11

$$$$
=
 OpenBabel11062413343D

 28 29  0  0  1  0  0  0  0  0999 V2000
  190.7360  178.1340  143.3070 C   0  0  0  0  0  2  0  0  0  0  0  0
  190.2480  177.4250  145.9180 C   0  0  0  0  0  0  0  0  0  0  0  0
  188.4690  177.0690  147.0690 N   0  0  0  0  0  0  0  0  0  0  0  0
  188.0590  177.3390  145.8010 C   0  0  0  0  0  0  0  0  0  0  0  0
  189.7980  177.1180  147.1430 N   0  0  0  0  0  0  0  0  0  0  0  0
  191.5340  177.6200  145.5420 N   0  0  0  0  0  0  0  0  0  0  0  0
  191.7860  177.9700  144.2440 C   0  0  0  0  0  3  0  0  0  0  0  0
  189.3920  177.9400  143.6870 C   0  0  0  0  0  0  0  0  0  0  0  0
  189.1610  177.5820  145.0110 C   0  0  0  0  0  0  0  0  0  0  0  0
  188.2820  178.0890  142.6990 C   0  0  0  0  0  2  0  0  0  0  0  0
  188.6760  178.6330  140.2710 N   0  0  0  0  0  2  0  0  0  0  0  0
  188.9360  178.4370  138.8700 C   0  0  0  0  0  0  0  0  0  0  0  0
  188.7230  177.6750  141.3350 C   0  0  0  0  0  0  0  0  0  0  0  0
  188.9510  179.4450  138.1180 O   0  0  0  0  0  0  0  0  0  0  0  0
  189.1390  176.5020  141.1460 O   0  0  0  0  0  0  0  0  0  0  0  0
  189.1770  177.0930  138.2440 C   0  0  1  0  0  3  0  0  0  0  0  0
  186.8190  177.2410  137.8990 O   0  0  0  0  0  1  0  0  0  0  0  0
  187.9830  176.6440  137.4170 C   0  0  0  0  0  2  0  0  0  0  0  0
  190.3990  177.0860  137.4550 N   0  0  0  0  0  2  0  0  0  0  0  0
  191.3300  176.1810  138.1090 C   0  0  0  0  0  2  0  0  0  0  0  0
  191.9660  176.8650  139.2350 C   0  0  0  0  0  0  0  0  0  0  0  0
  192.4900  177.4260  140.1640 C   0  0  0  0  0  3  0  0  0  0  0  0
  186.6250  177.4430  145.3950 C   0  0  0  0  0  2  0  0  0  0  0  0
  186.0020  178.7170  145.9440 C   0  0  0  0  0  2  0  0  0  0  0  0
  184.4880  178.5960  145.9980 C   0  0  0  0  0  2  0  0  0  0  0  0
  182.7260  178.7190  144.3940 O   0  0  0  0  0  1  0  0  0  0  0  0
  184.6150  179.9120  143.8870 O   0  0  0  0  0  0  0  0  0  0  0  0
  183.8840  179.0840  144.7270 C   0  0  0  0  0  0  0  0  0  0  0  0
  1  8  1  0  0  0  0
  1  7  1  0  0  0  0
  2  5  2  0  0  0  0
  3  5  1  0  0  0  0
  4  3  2  0  0  0  0
  6  2  1  0  0  0  0
  7  6  2  0  0  0  0
  8  9  2  0  0  0  0
  9  4  1  0  0  0  0
  9  2  1  0  0  0  0
 10  8  1  0  0  0  0
 11 13  1  0  0  0  0
 12 11  1  0  0  0  0
 13 10  1  0  0  0  0
 14 12  2  0  0  0  0
 15 13  2  0  0  0  0
 16 18  1  6  0  0  0
 16 12  1  0  0  0  0
 18 17  1  0  0  0  0
 19 20  1  0  0  0  0
 19 16  1  0  0  0  0
 20 21  1  0  0  0  0
 21 22  3  0  0  0  0
 23  4  1  0  0  0  0
 23 24  1  0  0  0  0
 24 25  1  0  0  0  0
 26 28  1  0  0  0  0
 27 28  2  0  0  0  0
 28 25  1  0  0  0  0
M  END
>  <MODEL>
4

>  <REMARK>
 VINA RESULT:      -7.1      3.173      6.535
  Name = 
  11 active torsions:
  status: ('A' for Active; 'I' for Inactive)
    1  A    between atoms: C_1  and  C_23
    2  A    between atoms: C_1  and  C_28
    3  A    between atoms: N_2  and  C_3
    4  A    between atoms: N_2  and  CA_24
    5  A    between atoms: C_3  and  C_17
    6  A    between atoms: C_11  and  CA_24
    7  A    between atoms: C_12  and  C_26
    8  A    between atoms: C_16  and  C_22
    9  A    between atoms: C_18  and  CA_24
   10  A    between atoms: C_19  and  C_22
   11  A    between atoms: C_23  and  C_26
                            x       y       z     vdW  Elec       q    Type
                         _______ _______ _______ _____ _____    ______ ____

>  <TORSDO>
F 11

$$$$
=
 OpenBabel11062413343D

 28 29  0  0  1  0  0  0  0  0999 V2000
  184.9900  178.0670  143.3950 C   0  0  0  0  0  2  0  0  0  0  0  0
  185.3160  179.3160  145.8220 C   0  0  0  0  0  0  0  0  0  0  0  0
  186.5690  178.9670  147.5320 N   0  0  0  0  0  0  0  0  0  0  0  0
  186.9090  178.0290  146.6090 C   0  0  0  0  0  0  0  0  0  0  0  0
  185.6040  179.7520  147.0570 N   0  0  0  0  0  0  0  0  0  0  0  0
  184.3660  179.7930  144.9860 N   0  0  0  0  0  0  0  0  0  0  0  0
  184.1980  179.1800  143.7740 C   0  0  0  0  0  3  0  0  0  0  0  0
  185.9780  177.5560  144.2600 C   0  0  0  0  0  0  0  0  0  0  0  0
  186.1310  178.1980  145.4850 C   0  0  0  0  0  0  0  0  0  0  0  0
  186.8320  176.3980  143.8580 C   0  0  0  0  0  2  0  0  0  0  0  0
  189.2900  176.1280  143.3750 N   0  0  0  0  0  2  0  0  0  0  0  0
  190.6180  176.4460  142.9260 C   0  0  0  0  0  0  0  0  0  0  0  0
  188.0770  176.8640  143.1780 C   0  0  0  0  0  0  0  0  0  0  0  0
  191.5300  175.5980  143.1100 O   0  0  0  0  0  0  0  0  0  0  0  0
  188.0370  177.8820  142.4380 O   0  0  0  0  0  0  0  0  0  0  0  0
  190.9900  177.7390  142.2610 C   0  0  1  0  0  3  0  0  0  0  0  0
  190.9290  179.4080  143.9670 O   0  0  0  0  0  1  0  0  0  0  0  0
  191.7910  178.6330  143.1930 C   0  0  0  0  0  2  0  0  0  0  0  0
  191.6980  177.5100  141.0100 N   0  0  0  0  0  2  0  0  0  0  0  0
  190.7760  176.8400  140.1080 C   0  0  0  0  0  2  0  0  0  0  0  0
  189.8400  177.8170  139.5520 C   0  0  0  0  0  0  0  0  0  0  0  0
  189.0670  178.6200  139.0940 C   0  0  0  0  0  3  0  0  0  0  0  0
  187.9050  176.9420  146.8550 C   0  0  0  0  0  2  0  0  0  0  0  0
  189.3190  177.4420  146.6050 C   0  0  0  0  0  2  0  0  0  0  0  0
  190.2510  177.0020  147.7230 C   0  0  0  0  0  2  0  0  0  0  0  0
  191.9770  175.3550  147.7300 O   0  0  0  0  0  1  0  0  0  0  0  0
  192.0610  176.8720  146.0160 O   0  0  0  0  0  0  0  0  0  0  0  0
  191.4660  176.3520  147.1570 C   0  0  0  0  0  0  0  0  0  0  0  0
  1  7  1  0  0  0  0
  1  8  1  0  0  0  0
  2  5  2  0  0  0  0
  4 23  1  0  0  0  0
  4  3  2  0  0  0  0
  5  3  1  0  0  0  0
  6  2  1  0  0  0  0
  7  6  2  0  0  0  0
  8  9  2  0  0  0  0
  9  2  1  0  0  0  0
  9  4  1  0  0  0  0
 10  8  1  0  0  0  0
 12 14  2  0  0  0  0
 12 11  1  0  0  0  0
 13 11  1  0  0  0  0
 13 10  1  0  0  0  0
 15 13  2  0  0  0  0
 16 12  1  0  0  0  0
 16 18  1  1  0  0  0
 18 17  1  0  0  0  0
 19 16  1  0  0  0  0
 20 19  1  0  0  0  0
 21 20  1  0  0  0  0
 22 21  3  0  0  0  0
 24 23  1  0  0  0  0
 24 25  1  0  0  0  0
 27 28  2  0  0  0  0
 28 25  1  0  0  0  0
 28 26  1  0  0  0  0
M  END
>  <MODEL>
5

>  <REMARK>
 VINA RESULT:      -6.9      2.437      5.931
  Name = 
  11 active torsions:
  status: ('A' for Active; 'I' for Inactive)
    1  A    between atoms: C_1  and  C_23
    2  A    between atoms: C_1  and  C_28
    3  A    between atoms: N_2  and  C_3
    4  A    between atoms: N_2  and  CA_24
    5  A    between atoms: C_3  and  C_17
    6  A    between atoms: C_11  and  CA_24
    7  A    between atoms: C_12  and  C_26
    8  A    between atoms: C_16  and  C_22
    9  A    between atoms: C_18  and  CA_24
   10  A    between atoms: C_19  and  C_22
   11  A    between atoms: C_23  and  C_26
                            x       y       z     vdW  Elec       q    Type
                         _______ _______ _______ _____ _____    ______ ____

>  <TORSDO>
F 11

$$$$
=
 OpenBabel11062413343D

 28 29  0  0  1  0  0  0  0  0999 V2000
  184.4070  178.6810  144.2840 C   0  0  0  0  0  2  0  0  0  0  0  0
  185.9350  178.3990  146.5520 C   0  0  0  0  0  0  0  0  0  0  0  0
  187.9590  177.7850  146.9310 N   0  0  0  0  0  0  0  0  0  0  0  0
  187.8000  177.7710  145.5820 C   0  0  0  0  0  0  0  0  0  0  0  0
  186.8290  178.1680  147.5250 N   0  0  0  0  0  0  0  0  0  0  0  0
  184.6410  178.7650  146.7010 N   0  0  0  0  0  0  0  0  0  0  0  0
  183.8740  178.9110  145.5770 C   0  0  0  0  0  3  0  0  0  0  0  0
  185.7520  178.2910  144.1180 C   0  0  0  0  0  0  0  0  0  0  0  0
  186.5120  178.1520  145.2740 C   0  0  0  0  0  0  0  0  0  0  0  0
  186.3270  178.0690  142.7570 C   0  0  0  0  0  2  0  0  0  0  0  0
  184.1610  177.8850  141.4840 N   0  0  0  0  0  2  0  0  0  0  0  0
  183.1760  178.1080  140.4610 C   0  0  0  0  0  0  0  0  0  0  0  0
  185.4010  178.5700  141.6990 C   0  0  0  0  0  0  0  0  0  0  0  0
  182.0950  177.4670  140.5220 O   0  0  0  0  0  0  0  0  0  0  0  0
  185.7180  179.5850  141.0260 O   0  0  0  0  0  0  0  0  0  0  0  0
  183.3640  179.0520  139.3090 C   0  0  1  0  0  3  0  0  0  0  0  0
  185.0540  177.8750  138.1020 O   0  0  0  0  0  1  0  0  0  0  0  0
  183.7310  178.3090  138.0350 C   0  0  0  0  0  2  0  0  0  0  0  0
  182.1910  179.8920  139.1110 N   0  0  0  0  0  2  0  0  0  0  0  0
  181.6770  179.6100  137.7820 C   0  0  0  0  0  2  0  0  0  0  0  0
  181.0360  180.8090  137.2410 C   0  0  0  0  0  0  0  0  0  0  0  0
  180.5100  181.7980  136.7970 C   0  0  0  0  0  3  0  0  0  0  0  0
  188.8510  177.3120  144.6250 C   0  0  0  0  0  2  0  0  0  0  0  0
  190.2130  177.8610  145.0190 C   0  0  0  0  0  2  0  0  0  0  0  0
  191.2550  176.7540  145.0370 C   0  0  0  0  0  2  0  0  0  0  0  0
  191.1870  177.1000  147.3970 O   0  0  0  0  0  1  0  0  0  0  0  0
  192.4380  175.3150  146.6920 O   0  0  0  0  0  0  0  0  0  0  0  0
  191.6080  176.3990  146.4410 C   0  0  0  0  0  0  0  0  0  0  0  0
  1  7  1  0  0  0  0
  2  6  1  0  0  0  0
  2  5  2  0  0  0  0
  3  5  1  0  0  0  0
  4  3  2  0  0  0  0
  7  6  2  0  0  0  0
  8  1  1  0  0  0  0
  8  9  2  0  0  0  0
  9  4  1  0  0  0  0
  9  2  1  0  0  0  0
 10  8  1  0  0  0  0
 11 13  1  0  0  0  0
 12 14  2  0  0  0  0
 12 11  1  0  0  0  0
 13 10  1  0  0  0  0
 15 13  2  0  0  0  0
 16 18  1  6  0  0  0
 16 12  1  0  0  0  0
 18 17  1  0  0  0  0
 19 16  1  0  0  0  0
 20 19  1  0  0  0  0
 21 20  1  0  0  0  0
 22 21  3  0  0  0  0
 23 24  1  0  0  0  0
 23  4  1  0  0  0  0
 24 25  1  0  0  0  0
 25 28  1  0  0  0  0
 28 27  2  0  0  0  0
 28 26  1  0  0  0  0
M  END
>  <MODEL>
6

>  <REMARK>
 VINA RESULT:      -6.9      2.548      8.197
  Name = 
  11 active torsions:
  status: ('A' for Active; 'I' for Inactive)
    1  A    between atoms: C_1  and  C_23
    2  A    between atoms: C_1  and  C_28
    3  A    between atoms: N_2  and  C_3
    4  A    between atoms: N_2  and  CA_24
    5  A    between atoms: C_3  and  C_17
    6  A    between atoms: C_11  and  CA_24
    7  A    between atoms: C_12  and  C_26
    8  A    between atoms: C_16  and  C_22
    9  A    between atoms: C_18  and  CA_24
   10  A    between atoms: C_19  and  C_22
   11  A    between atoms: C_23  and  C_26
                            x       y       z     vdW  Elec       q    Type
                         _______ _______ _______ _____ _____    ______ ____

>  <TORSDO>
F 11

$$$$
=
 OpenBabel11062413343D

 28 29  0  0  1  0  0  0  0  0999 V2000
  190.7720  176.9420  144.3970 C   0  0  0  0  0  2  0  0  0  0  0  0
  189.8250  177.3680  146.9420 C   0  0  0  0  0  0  0  0  0  0  0  0
  187.8740  177.6860  147.7840 N   0  0  0  0  0  0  0  0  0  0  0  0
  187.6890  177.4810  146.4530 C   0  0  0  0  0  0  0  0  0  0  0  0
  189.1690  177.6170  148.0850 N   0  0  0  0  0  0  0  0  0  0  0  0
  191.1630  177.2610  146.7730 N   0  0  0  0  0  0  0  0  0  0  0  0
  191.6430  177.0460  145.5100 C   0  0  0  0  0  3  0  0  0  0  0  0
  189.3760  177.0590  144.5600 C   0  0  0  0  0  0  0  0  0  0  0  0
  188.9120  177.2750  145.8530 C   0  0  0  0  0  0  0  0  0  0  0  0
  188.4500  176.9280  143.3950 C   0  0  0  0  0  2  0  0  0  0  0  0
  189.0700  177.7250  141.0860 N   0  0  0  0  0  2  0  0  0  0  0  0
  189.6050  177.7040  139.7520 C   0  0  0  0  0  0  0  0  0  0  0  0
  189.2140  176.7480  142.1250 C   0  0  0  0  0  0  0  0  0  0  0  0
  189.4540  178.7250  139.0320 O   0  0  0  0  0  0  0  0  0  0  0  0
  189.9750  175.7550  141.9940 O   0  0  0  0  0  0  0  0  0  0  0  0
  190.3240  176.5290  139.1560 C   0  0  1  0  0  3  0  0  0  0  0  0
  188.4020  175.9430  137.8660 O   0  0  0  0  0  1  0  0  0  0  0  0
  189.7730  176.1790  137.7830 C   0  0  0  0  0  2  0  0  0  0  0  0
  191.7610  176.7520  139.1080 N   0  0  0  0  0  2  0  0  0  0  0  0
  192.2120  176.3840  137.7760 C   0  0  0  0  0  2  0  0  0  0  0  0
  193.3900  175.5240  137.8790 C   0  0  0  0  0  0  0  0  0  0  0  0
  194.3610  174.8140  137.9620 C   0  0  0  0  0  3  0  0  0  0  0  0
  186.3620  177.5720  145.7740 C   0  0  0  0  0  2  0  0  0  0  0  0
  185.7150  178.9230  146.0370 C   0  0  0  0  0  2  0  0  0  0  0  0
  185.2700  179.5690  144.7350 C   0  0  0  0  0  2  0  0  0  0  0  0
  184.3750  178.2370  142.9690 O   0  0  0  0  0  0  0  0  0  0  0  0
  182.9660  178.6210  144.7340 O   0  0  0  0  0  1  0  0  0  0  0  0
  184.1920  178.7610  144.0980 C   0  0  0  0  0  0  0  0  0  0  0  0
  1  8  1  0  0  0  0
  1  7  1  0  0  0  0
  2  5  2  0  0  0  0
  3  5  1  0  0  0  0
  4  3  2  0  0  0  0
  6  2  1  0  0  0  0
  7  6  2  0  0  0  0
  8  9  2  0  0  0  0
  9  4  1  0  0  0  0
  9  2  1  0  0  0  0
 10  8  1  0  0  0  0
 11 13  1  0  0  0  0
 12 11  1  0  0  0  0
 13 10  1  0  0  0  0
 14 12  2  0  0  0  0
 15 13  2  0  0  0  0
 16 18  1  6  0  0  0
 16 12  1  0  0  0  0
 18 17  1  0  0  0  0
 19 16  1  0  0  0  0
 20 21  1  0  0  0  0
 20 19  1  0  0  0  0
 21 22  3  0  0  0  0
 23 24  1  0  0  0  0
 23  4  1  0  0  0  0
 25 24  1  0  0  0  0
 26 28  2  0  0  0  0
 28 27  1  0  0  0  0
 28 25  1  0  0  0  0
M  END
>  <MODEL>
7

>  <REMARK>
 VINA RESULT:      -6.8      3.441      6.432
  Name = 
  11 active torsions:
  status: ('A' for Active; 'I' for Inactive)
    1  A    between atoms: C_1  and  C_23
    2  A    between atoms: C_1  and  C_28
    3  A    between atoms: N_2  and  C_3
    4  A    between atoms: N_2  and  CA_24
    5  A    between atoms: C_3  and  C_17
    6  A    between atoms: C_11  and  CA_24
    7  A    between atoms: C_12  and  C_26
    8  A    between atoms: C_16  and  C_22
    9  A    between atoms: C_18  and  CA_24
   10  A    between atoms: C_19  and  C_22
   11  A    between atoms: C_23  and  C_26
                            x       y       z     vdW  Elec       q    Type
                         _______ _______ _______ _____ _____    ______ ____

>  <TORSDO>
F 11

$$$$
=
 OpenBabel11062413343D

 28 29  0  0  1  0  0  0  0  0999 V2000
  184.2860  178.8740  144.1070 C   0  0  0  0  0  2  0  0  0  0  0  0
  185.8750  178.3020  146.2760 C   0  0  0  0  0  0  0  0  0  0  0  0
  187.8790  177.5670  146.5150 N   0  0  0  0  0  0  0  0  0  0  0  0
  187.6740  177.6940  145.1770 C   0  0  0  0  0  0  0  0  0  0  0  0
  186.7900  177.9380  147.1860 N   0  0  0  0  0  0  0  0  0  0  0  0
  184.6050  178.7080  146.5090 N   0  0  0  0  0  0  0  0  0  0  0  0
  183.8080  178.9980  145.4360 C   0  0  0  0  0  3  0  0  0  0  0  0
  185.6040  178.4450  143.8510 C   0  0  0  0  0  0  0  0  0  0  0  0
  186.3960  178.1590  144.9580 C   0  0  0  0  0  0  0  0  0  0  0  0
  186.1210  178.3340  142.4540 C   0  0  0  0  0  2  0  0  0  0  0  0
  184.9600  179.4340  140.5080 N   0  0  0  0  0  2  0  0  0  0  0  0
  183.9330  179.7400  139.5480 C   0  0  0  0  0  0  0  0  0  0  0  0
  185.0020  178.3710  141.4670 C   0  0  0  0  0  0  0  0  0  0  0  0
  184.1490  180.6570  138.7150 O   0  0  0  0  0  0  0  0  0  0  0  0
  184.1270  177.4670  141.4870 O   0  0  0  0  0  0  0  0  0  0  0  0
  182.6070  179.0390  139.4890 C   0  0  1  0  0  3  0  0  0  0  0  0
  180.5560  179.3040  140.6820 O   0  0  0  0  0  1  0  0  0  0  0  0
  181.4680  179.9720  139.8650 C   0  0  0  0  0  2  0  0  0  0  0  0
  182.3840  178.4320  138.1850 N   0  0  0  0  0  2  0  0  0  0  0  0
  182.8090  177.0450  138.2760 C   0  0  0  0  0  2  0  0  0  0  0  0
  181.8590  176.2960  139.0980 C   0  0  0  0  0  0  0  0  0  0  0  0
  181.0760  175.6770  139.7740 C   0  0  0  0  0  3  0  0  0  0  0  0
  188.6690  177.2860  144.1400 C   0  0  0  0  0  2  0  0  0  0  0  0
  189.8290  178.2690  144.0940 C   0  0  0  0  0  2  0  0  0  0  0  0
  191.0720  177.6070  143.5190 C   0  0  0  0  0  2  0  0  0  0  0  0
  191.8250  175.3880  143.9680 O   0  0  0  0  0  0  0  0  0  0  0  0
  191.6510  176.7650  145.7910 O   0  0  0  0  0  1  0  0  0  0  0  0
  191.5500  176.5270  144.4270 C   0  0  0  0  0  0  0  0  0  0  0  0
  1  7  1  0  0  0  0
  2  6  1  0  0  0  0
  2  5  2  0  0  0  0
  3  5  1  0  0  0  0
  4  3  2  0  0  0  0
  7  6  2  0  0  0  0
  8  1  1  0  0  0  0
  8  9  2  0  0  0  0
  9  4  1  0  0  0  0
  9  2  1  0  0  0  0
 10  8  1  0  0  0  0
 11 13  1  0  0  0  0
 12 11  1  0  0  0  0
 13 15  2  0  0  0  0
 13 10  1  0  0  0  0
 14 12  2  0  0  0  0
 16 12  1  0  0  0  0
 16 18  1  6  0  0  0
 18 17  1  0  0  0  0
 19 20  1  0  0  0  0
 19 16  1  0  0  0  0
 20 21  1  0  0  0  0
 21 22  3  0  0  0  0
 23  4  1  0  0  0  0
 24 23  1  0  0  0  0
 25 24  1  0  0  0  0
 25 28  1  0  0  0  0
 26 28  2  0  0  0  0
 28 27  1  0  0  0  0
M  END
>  <MODEL>
8

>  <REMARK>
 VINA RESULT:      -6.8      2.638      7.674
  Name = 
  11 active torsions:
  status: ('A' for Active; 'I' for Inactive)
    1  A    between atoms: C_1  and  C_23
    2  A    between atoms: C_1  and  C_28
    3  A    between atoms: N_2  and  C_3
    4  A    between atoms: N_2  and  CA_24
    5  A    between atoms: C_3  and  C_17
    6  A    between atoms: C_11  and  CA_24
    7  A    between atoms: C_12  and  C_26
    8  A    between atoms: C_16  and  C_22
    9  A    between atoms: C_18  and  CA_24
   10  A    between atoms: C_19  and  C_22
   11  A    between atoms: C_23  and  C_26
                            x       y       z     vdW  Elec       q    Type
                         _______ _______ _______ _____ _____    ______ ____

>  <TORSDO>
F 11

$$$$
=
 OpenBabel11062413343D

 28 29  0  0  1  0  0  0  0  0999 V2000
  184.6850  178.7460  144.5620 C   0  0  0  0  0  2  0  0  0  0  0  0
  186.2190  178.2770  146.7940 C   0  0  0  0  0  0  0  0  0  0  0  0
  188.1840  177.4710  147.1220 N   0  0  0  0  0  0  0  0  0  0  0  0
  188.0000  177.5000  145.7760 C   0  0  0  0  0  0  0  0  0  0  0  0
  187.1050  177.9450  147.7440 N   0  0  0  0  0  0  0  0  0  0  0  0
  184.9680  178.7590  146.9750 N   0  0  0  0  0  0  0  0  0  0  0  0
  184.1980  178.9980  145.8690 C   0  0  0  0  0  3  0  0  0  0  0  0
  185.9850  178.2370  144.3620 C   0  0  0  0  0  0  0  0  0  0  0  0
  186.7480  178.0050  145.5010 C   0  0  0  0  0  0  0  0  0  0  0  0
  186.5120  177.9910  142.9860 C   0  0  0  0  0  2  0  0  0  0  0  0
  184.3810  177.8990  141.6460 N   0  0  0  0  0  2  0  0  0  0  0  0
  183.4180  178.2040  140.6220 C   0  0  0  0  0  0  0  0  0  0  0  0
  185.6060  178.5760  141.9550 C   0  0  0  0  0  0  0  0  0  0  0  0
  182.3450  177.5470  140.5970 O   0  0  0  0  0  0  0  0  0  0  0  0
  185.9240  179.6520  141.3860 O   0  0  0  0  0  0  0  0  0  0  0  0
  183.6210  179.2520  139.5670 C   0  0  1  0  0  3  0  0  0  0  0  0
  185.6240  178.8300  138.3370 O   0  0  0  0  0  1  0  0  0  0  0  0
  184.2400  178.6630  138.3100 C   0  0  0  0  0  2  0  0  0  0  0  0
  182.3820  179.9530  139.2680 N   0  0  0  0  0  2  0  0  0  0  0  0
  182.0040  179.6020  137.9100 C   0  0  0  0  0  2  0  0  0  0  0  0
  181.1620  180.6580  137.3480 C   0  0  0  0  0  0  0  0  0  0  0  0
  180.4700  181.5290  136.8840 C   0  0  0  0  0  3  0  0  0  0  0  0
  188.9870  176.9650  144.7900 C   0  0  0  0  0  2  0  0  0  0  0  0
  190.2660  177.7870  144.8100 C   0  0  0  0  0  2  0  0  0  0  0  0
  190.4020  178.6020  143.5350 C   0  0  0  0  0  2  0  0  0  0  0  0
  190.0010  177.4940  141.4600 O   0  0  0  0  0  0  0  0  0  0  0  0
  192.0580  177.1270  142.4000 O   0  0  0  0  0  1  0  0  0  0  0  0
  190.8050  177.7250  142.4000 C   0  0  0  0  0  0  0  0  0  0  0  0
  1  7  1  0  0  0  0
  2  6  1  0  0  0  0
  2  5  2  0  0  0  0
  3  5  1  0  0  0  0
  4  3  2  0  0  0  0
  7  6  2  0  0  0  0
  8  1  1  0  0  0  0
  8  9  2  0  0  0  0
  9  4  1  0  0  0  0
  9  2  1  0  0  0  0
 10  8  1  0  0  0  0
 11 13  1  0  0  0  0
 12 11  1  0  0  0  0
 13 10  1  0  0  0  0
 14 12  2  0  0  0  0
 15 13  2  0  0  0  0
 16 18  1  6  0  0  0
 16 12  1  0  0  0  0
 18 17  1  0  0  0  0
 19 16  1  0  0  0  0
 20 19  1  0  0  0  0
 21 20  1  0  0  0  0
 22 21  3  0  0  0  0
 23 24  1  0  0  0  0
 23  4  1  0  0  0  0
 25 24  1  0  0  0  0
 26 28  2  0  0  0  0
 28 27  1  0  0  0  0
 28 25  1  0  0  0  0
M  END
>  <MODEL>
9

>  <REMARK>
 VINA RESULT:      -6.7      2.428      7.564
  Name = 
  11 active torsions:
  status: ('A' for Active; 'I' for Inactive)
    1  A    between atoms: C_1  and  C_23
    2  A    between atoms: C_1  and  C_28
    3  A    between atoms: N_2  and  C_3
    4  A    between atoms: N_2  and  CA_24
    5  A    between atoms: C_3  and  C_17
    6  A    between atoms: C_11  and  CA_24
    7  A    between atoms: C_12  and  C_26
    8  A    between atoms: C_16  and  C_22
    9  A    between atoms: C_18  and  CA_24
   10  A    between atoms: C_19  and  C_22
   11  A    between atoms: C_23  and  C_26
                            x       y       z     vdW  Elec       q    Type
                         _______ _______ _______ _____ _____    ______ ____

>  <TORSDO>
F 11

$$$$
