=
 OpenBabel11062414473D

 33 37  0  0  1  0  0  0  0  0999 V2000
  187.4180  178.2050  144.6510 C   0  0  0  0  0  0  0  0  0  0  0  0
  188.2640  178.0720  143.6340 C   0  0  0  0  0  2  0  0  0  0  0  0
  191.1810  176.0090  144.6010 C   0  0  0  0  0  0  0  0  0  0  0  0
  190.3560  177.2190  146.5190 C   0  0  0  0  0  3  0  0  0  0  0  0
  190.3650  176.6520  143.7260 C   0  0  0  0  0  0  0  0  0  0  0  0
  192.0490  174.8780  144.1610 C   0  0  0  0  0  1  0  0  0  0  0  0
  189.3850  177.8490  145.6320 C   0  0  1  0  0  3  0  0  0  0  0  0
  189.6480  177.9060  144.1720 C   0  0  2  0  0  3  0  0  0  0  0  0
  191.2030  176.3760  146.0000 N   0  0  0  0  0  0  0  0  0  0  0  0
  188.1090  178.0250  145.9250 C   0  0  0  0  0  3  0  0  0  0  0  0
  181.7950  178.9020  144.1820 N   0  0  0  0  0  1  0  0  0  0  0  0
  183.9700  178.4680  143.1180 C   0  0  0  0  0  0  0  0  0  0  0  0
  183.2060  178.7220  144.2690 C   0  0  0  0  0  0  0  0  0  0  0  0
  185.9610  178.3830  144.5030 C   0  0  0  0  0  0  0  0  0  0  0  0
  185.1580  178.6330  145.6220 C   0  0  0  0  0  3  0  0  0  0  0  0
  185.3500  178.3040  143.2450 C   0  0  0  0  0  3  0  0  0  0  0  0
  183.8150  178.7960  145.4830 N   0  0  0  0  0  0  0  0  0  0  0  0
  184.3600  178.7480  140.6970 C   0  0  0  0  0  1  0  0  0  0  0  0
  183.3430  178.3940  141.7650 C   0  0  0  0  0  2  0  0  0  0  0  0
  190.3110  176.2790  142.2770 C   0  0  0  0  0  2  0  0  0  0  0  0
  191.0630  177.3120  141.4450 C   0  0  0  0  0  2  0  0  0  0  0  0
  188.5450  176.1430  138.3040 C   0  0  2  0  0  3  0  0  0  0  0  0
  188.1920  177.5260  138.8210 C   0  0  1  0  0  3  0  0  0  0  0  0
  189.9310  177.7110  137.1290 C   0  0  0  0  0  2  0  0  0  0  0  0
  192.3230  176.5250  138.6960 C   0  0  0  0  0  1  0  0  0  0  0  0
  190.8570  176.3880  139.0760 C   0  0  2  0  0  3  0  0  0  0  0  0
  189.9670  176.3440  137.8170 C   0  0  1  0  0  3  0  0  0  0  0  0
  190.4330  177.5020  140.0680 C   0  0  1  0  0  3  0  0  0  0  0  0
  188.9000  177.6850  140.1760 C   0  0  0  0  0  2  0  0  0  0  0  0
  188.8130  178.4930  137.8120 C   0  0  1  0  0  3  0  0  0  0  0  0
  187.7810  178.9160  136.7840 C   0  0  0  0  0  1  0  0  0  0  0  0
  187.7100  175.7850  137.2410 O   0  0  0  0  0  0  0  0  0  0  0  0
  188.2020  174.5550  136.8020 C   0  0  0  0  0  1  0  0  0  0  0  0
  1 10  2  0  0  0  0
  2  1  1  0  0  0  0
  3  9  1  0  0  0  0
  5  8  1  0  0  0  0
  5  3  2  0  0  0  0
  6  3  1  0  0  0  0
  7 10  1  6  0  0  0
  7  4  1  0  0  0  0
  8  2  1  6  0  0  0
  8  7  1  0  0  0  0
  9  4  2  0  0  0  0
 11 13  1  0  0  0  0
 12 16  2  0  0  0  0
 12 13  1  0  0  0  0
 13 17  2  0  0  0  0
 14  1  1  0  0  0  0
 14 15  2  0  0  0  0
 16 14  1  0  0  0  0
 17 15  1  0  0  0  0
 18 19  1  0  0  0  0
 19 12  1  0  0  0  0
 20  5  1  0  0  0  0
 21 20  1  0  0  0  0
 22 32  1  6  0  0  0
 22 23  1  0  0  0  0
 23 29  1  1  0  0  0
 24 30  1  0  0  0  0
 26 25  1  6  0  0  0
 26 28  1  0  0  0  0
 27 24  1  1  0  0  0
 27 22  1  0  0  0  0
 27 26  1  0  0  0  0
 28 29  1  0  0  0  0
 28 21  1  1  0  0  0
 30 31  1  6  0  0  0
 30 23  1  0  0  0  0
 33 32  1  0  0  0  0
M  END
>  <MODEL>
1

>  <REMARK>
 VINA RESULT:      -9.1      0.000      0.000
  Name = 
  6 active torsions:
  status: ('A' for Active; 'I' for Inactive)
    1  A    between atoms: C_1  and  C_7
    2  A    between atoms: C_3  and  O_10
    3  A    between atoms: C_5  and  C_20
    4  A    between atoms: C_17  and  C_32
    5  A    between atoms: C_19  and  C_25
    6  A    between atoms: C_19  and  C_32
                            x       y       z     vdW  Elec       q    Type
                         _______ _______ _______ _____ _____    ______ ____

>  <TORSDO>
F 6

$$$$
=
 OpenBabel11062414473D

 33 37  0  0  1  0  0  0  0  0999 V2000
  188.7130  177.0360  142.8070 C   0  0  0  0  0  0  0  0  0  0  0  0
  187.4500  176.8260  143.1650 C   0  0  0  0  0  2  0  0  0  0  0  0
  186.7080  178.4380  146.4120 C   0  0  0  0  0  0  0  0  0  0  0  0
  189.0240  177.7640  146.3390 C   0  0  0  0  0  3  0  0  0  0  0  0
  186.3910  177.8170  145.2470 C   0  0  0  0  0  0  0  0  0  0  0  0
  185.7140  179.2900  147.1300 C   0  0  0  0  0  1  0  0  0  0  0  0
  188.7530  177.1820  145.0290 C   0  0  1  0  0  3  0  0  0  0  0  0
  187.3610  176.8200  144.6560 C   0  0  2  0  0  3  0  0  0  0  0  0
  188.0360  178.3270  146.9750 N   0  0  0  0  0  0  0  0  0  0  0  0
  189.5440  177.3040  143.9780 C   0  0  0  0  0  3  0  0  0  0  0  0
  190.6020  177.2940  137.4520 N   0  0  0  0  0  1  0  0  0  0  0  0
  188.8140  177.7120  139.0870 C   0  0  0  0  0  0  0  0  0  0  0  0
  190.1020  177.2430  138.7850 C   0  0  0  0  0  0  0  0  0  0  0  0
  189.1800  177.1130  141.4100 C   0  0  0  0  0  0  0  0  0  0  0  0
  190.4580  176.6630  141.0620 C   0  0  0  0  0  3  0  0  0  0  0  0
  188.3590  177.6380  140.4040 C   0  0  0  0  0  3  0  0  0  0  0  0
  190.8870  176.7360  139.7740 N   0  0  0  0  0  0  0  0  0  0  0  0
  186.9550  177.1910  137.5490 C   0  0  0  0  0  1  0  0  0  0  0  0
  187.9150  178.2620  138.0290 C   0  0  0  0  0  2  0  0  0  0  0  0
  185.0290  177.9310  144.6360 C   0  0  0  0  0  2  0  0  0  0  0  0
  185.0550  178.9340  143.4880 C   0  0  0  0  0  2  0  0  0  0  0  0
  183.1200  179.5230  139.8150 C   0  0  2  0  0  3  0  0  0  0  0  0
  184.1570  178.4160  139.7320 C   0  0  1  0  0  3  0  0  0  0  0  0
  182.0420  177.4920  140.5030 C   0  0  0  0  0  2  0  0  0  0  0  0
  181.9420  178.6990  143.3510 C   0  0  0  0  0  1  0  0  0  0  0  0
  182.8510  179.1600  142.2230 C   0  0  2  0  0  3  0  0  0  0  0  0
  182.1620  178.9770  140.8550 C   0  0  1  0  0  3  0  0  0  0  0  0
  184.2300  178.4550  142.2960 C   0  0  1  0  0  3  0  0  0  0  0  0
  185.0430  178.5460  140.9820 C   0  0  0  0  0  2  0  0  0  0  0  0
  183.3530  177.1170  139.8180 C   0  0  1  0  0  3  0  0  0  0  0  0
  183.0710  176.5800  138.4280 C   0  0  0  0  0  1  0  0  0  0  0  0
  182.4710  179.6840  138.5870 O   0  0  0  0  0  0  0  0  0  0  0  0
  182.0750  181.0220  138.5680 C   0  0  0  0  0  1  0  0  0  0  0  0
  1  2  1  0  0  0  0
  1 10  2  0  0  0  0
  3  9  1  0  0  0  0
  3  6  1  0  0  0  0
  4  9  2  0  0  0  0
  5  3  2  0  0  0  0
  7 10  1  6  0  0  0
  7  4  1  0  0  0  0
  8  2  1  6  0  0  0
  8  7  1  0  0  0  0
  8  5  1  0  0  0  0
 11 13  1  0  0  0  0
 12 16  1  0  0  0  0
 13 12  2  0  0  0  0
 13 17  1  0  0  0  0
 14  1  1  0  0  0  0
 15 14  1  0  0  0  0
 16 14  2  0  0  0  0
 17 15  2  0  0  0  0
 18 19  1  0  0  0  0
 19 12  1  0  0  0  0
 20  5  1  0  0  0  0
 21 20  1  0  0  0  0
 22 32  1  6  0  0  0
 22 27  1  0  0  0  0
 23 22  1  0  0  0  0
 23 30  1  0  0  0  0
 23 29  1  1  0  0  0
 26 28  1  0  0  0  0
 26 25  1  1  0  0  0
 27 24  1  6  0  0  0
 27 26  1  0  0  0  0
 28 21  1  1  0  0  0
 29 28  1  0  0  0  0
 30 31  1  6  0  0  0
 30 24  1  0  0  0  0
 33 32  1  0  0  0  0
M  END
>  <MODEL>
2

>  <REMARK>
 VINA RESULT:      -8.5      2.724      6.503
  Name = 
  6 active torsions:
  status: ('A' for Active; 'I' for Inactive)
    1  A    between atoms: C_1  and  C_7
    2  A    between atoms: C_3  and  O_10
    3  A    between atoms: C_5  and  C_20
    4  A    between atoms: C_17  and  C_32
    5  A    between atoms: C_19  and  C_25
    6  A    between atoms: C_19  and  C_32
                            x       y       z     vdW  Elec       q    Type
                         _______ _______ _______ _____ _____    ______ ____

>  <TORSDO>
F 6

$$$$
=
 OpenBabel11062414473D

 33 37  0  0  1  0  0  0  0  0999 V2000
  188.6900  177.3040  142.5060 C   0  0  0  0  0  0  0  0  0  0  0  0
  187.4980  176.9740  142.9950 C   0  0  0  0  0  2  0  0  0  0  0  0
  187.0640  178.2930  146.4250 C   0  0  0  0  0  0  0  0  0  0  0  0
  189.3920  177.8010  146.0210 C   0  0  0  0  0  3  0  0  0  0  0  0
  186.6460  177.7340  145.2600 C   0  0  0  0  0  0  0  0  0  0  0  0
  186.1140  179.0140  147.3220 C   0  0  0  0  0  1  0  0  0  0  0  0
  188.9980  177.2940  144.7110 C   0  0  1  0  0  3  0  0  0  0  0  0
  187.5980  176.8560  144.4800 C   0  0  2  0  0  3  0  0  0  0  0  0
  188.4570  178.2410  146.8140 N   0  0  0  0  0  0  0  0  0  0  0  0
  189.6410  177.5500  143.5870 C   0  0  0  0  0  3  0  0  0  0  0  0
  189.7010  178.1810  136.9810 N   0  0  0  0  0  1  0  0  0  0  0  0
  190.2400  176.9990  139.0690 C   0  0  0  0  0  0  0  0  0  0  0  0
  189.4700  177.9400  138.3660 C   0  0  0  0  0  0  0  0  0  0  0  0
  188.9720  177.5140  141.0730 C   0  0  0  0  0  0  0  0  0  0  0  0
  188.2270  178.4370  140.3300 C   0  0  0  0  0  3  0  0  0  0  0  0
  189.9860  176.7960  140.4270 C   0  0  0  0  0  3  0  0  0  0  0  0
  188.4890  178.6280  139.0090 N   0  0  0  0  0  0  0  0  0  0  0  0
  192.6870  176.7530  138.8570 C   0  0  0  0  0  1  0  0  0  0  0  0
  191.3360  176.2330  138.4050 C   0  0  0  0  0  2  0  0  0  0  0  0
  185.2130  177.7890  144.8280 C   0  0  0  0  0  2  0  0  0  0  0  0
  185.0300  178.8660  143.7660 C   0  0  0  0  0  2  0  0  0  0  0  0
  182.8220  179.4970  140.2590 C   0  0  2  0  0  3  0  0  0  0  0  0
  183.8490  178.3920  140.0830 C   0  0  1  0  0  3  0  0  0  0  0  0
  181.8000  177.4560  141.0010 C   0  0  0  0  0  2  0  0  0  0  0  0
  181.9160  178.6280  143.8630 C   0  0  0  0  0  1  0  0  0  0  0  0
  182.7360  179.1050  142.6750 C   0  0  2  0  0  3  0  0  0  0  0  0
  181.9460  178.9370  141.3610 C   0  0  1  0  0  3  0  0  0  0  0  0
  184.1180  178.4010  142.6340 C   0  0  1  0  0  3  0  0  0  0  0  0
  184.8280  178.5090  141.2630 C   0  0  0  0  0  2  0  0  0  0  0  0
  183.0550  177.0920  140.2140 C   0  0  1  0  0  3  0  0  0  0  0  0
  182.6690  176.5710  138.8430 C   0  0  0  0  0  1  0  0  0  0  0  0
  182.0800  179.6720  139.0860 O   0  0  0  0  0  0  0  0  0  0  0  0
  182.3060  180.9990  138.7180 C   0  0  0  0  0  1  0  0  0  0  0  0
  1  2  1  0  0  0  0
  1 10  2  0  0  0  0
  3  9  1  0  0  0  0
  3  6  1  0  0  0  0
  4  9  2  0  0  0  0
  5  3  2  0  0  0  0
  7 10  1  6  0  0  0
  7  4  1  0  0  0  0
  8  2  1  6  0  0  0
  8  7  1  0  0  0  0
  8  5  1  0  0  0  0
 11 13  1  0  0  0  0
 12 16  1  0  0  0  0
 13 17  1  0  0  0  0
 13 12  2  0  0  0  0
 14  1  1  0  0  0  0
 15 14  1  0  0  0  0
 16 14  2  0  0  0  0
 17 15  2  0  0  0  0
 19 18  1  0  0  0  0
 19 12  1  0  0  0  0
 20  5  1  0  0  0  0
 21 20  1  0  0  0  0
 22 32  1  6  0  0  0
 22 27  1  0  0  0  0
 23 30  1  0  0  0  0
 23 22  1  0  0  0  0
 23 29  1  1  0  0  0
 26 25  1  1  0  0  0
 27 24  1  6  0  0  0
 27 26  1  0  0  0  0
 28 26  1  0  0  0  0
 28 21  1  1  0  0  0
 29 28  1  0  0  0  0
 30 31  1  6  0  0  0
 30 24  1  0  0  0  0
 33 32  1  0  0  0  0
M  END
>  <MODEL>
3

>  <REMARK>
 VINA RESULT:      -8.3      2.884      6.769
  Name = 
  6 active torsions:
  status: ('A' for Active; 'I' for Inactive)
    1  A    between atoms: C_1  and  C_7
    2  A    between atoms: C_3  and  O_10
    3  A    between atoms: C_5  and  C_20
    4  A    between atoms: C_17  and  C_32
    5  A    between atoms: C_19  and  C_25
    6  A    between atoms: C_19  and  C_32
                            x       y       z     vdW  Elec       q    Type
                         _______ _______ _______ _____ _____    ______ ____

>  <TORSDO>
F 6

$$$$
=
 OpenBabel11062414473D

 33 37  0  0  1  0  0  0  0  0999 V2000
  183.4600  178.5290  142.9760 C   0  0  0  0  0  0  0  0  0  0  0  0
  183.7710  178.2520  141.7130 C   0  0  0  0  0  2  0  0  0  0  0  0
  181.6380  180.1670  139.3730 C   0  0  0  0  0  0  0  0  0  0  0  0
  180.4170  179.6950  141.4000 C   0  0  0  0  0  3  0  0  0  0  0  0
  182.6960  179.3870  139.7150 C   0  0  0  0  0  0  0  0  0  0  0  0
  181.6640  181.0080  138.1400 C   0  0  0  0  0  1  0  0  0  0  0  0
  181.5800  178.9400  141.8560 C   0  0  1  0  0  3  0  0  0  0  0  0
  182.5540  178.4150  140.8640 C   0  0  2  0  0  3  0  0  0  0  0  0
  180.4670  180.2400  140.2180 N   0  0  0  0  0  0  0  0  0  0  0  0
  182.0830  179.0060  143.0750 C   0  0  0  0  0  3  0  0  0  0  0  0
  187.0750  178.3880  147.3610 N   0  0  0  0  0  1  0  0  0  0  0  0
  186.5860  177.8830  145.0040 C   0  0  0  0  0  0  0  0  0  0  0  0
  186.1900  178.4100  146.2440 C   0  0  0  0  0  0  0  0  0  0  0  0
  184.4150  178.4790  144.0980 C   0  0  0  0  0  0  0  0  0  0  0  0
  184.0670  178.9980  145.3500 C   0  0  0  0  0  3  0  0  0  0  0  0
  185.6880  177.9180  143.9360 C   0  0  0  0  0  3  0  0  0  0  0  0
  184.9500  178.9530  146.3840 N   0  0  0  0  0  0  0  0  0  0  0  0
  188.0690  176.7390  143.3960 C   0  0  0  0  0  1  0  0  0  0  0  0
  187.9320  177.2650  144.8120 C   0  0  0  0  0  2  0  0  0  0  0  0
  183.9270  179.3080  138.8650 C   0  0  0  0  0  2  0  0  0  0  0  0
  183.9740  177.9690  138.1400 C   0  0  0  0  0  2  0  0  0  0  0  0
  187.8160  178.1040  136.4680 C   0  0  2  0  0  3  0  0  0  0  0  0
  187.8600  178.1960  137.9830 C   0  0  1  0  0  3  0  0  0  0  0  0
  187.8370  175.8570  137.3110 C   0  0  0  0  0  2  0  0  0  0  0  0
  184.9200  175.6240  136.3040 C   0  0  0  0  0  1  0  0  0  0  0  0
  185.6720  176.9220  136.5500 C   0  0  2  0  0  3  0  0  0  0  0  0
  187.1760  176.7470  136.2540 C   0  0  1  0  0  3  0  0  0  0  0  0
  185.4040  177.4580  137.9800 C   0  0  1  0  0  3  0  0  0  0  0  0
  186.4300  178.5180  138.4480 C   0  0  0  0  0  2  0  0  0  0  0  0
  188.2370  176.7890  138.4510 C   0  0  1  0  0  3  0  0  0  0  0  0
  189.7320  176.6970  138.6880 C   0  0  0  0  0  1  0  0  0  0  0  0
  189.1080  178.1260  135.9340 O   0  0  0  0  0  0  0  0  0  0  0  0
  188.9800  177.5450  134.6710 C   0  0  0  0  0  1  0  0  0  0  0  0
  1 10  2  0  0  0  0
  1 14  1  0  0  0  0
  2  1  1  0  0  0  0
  3  5  2  0  0  0  0
  3  9  1  0  0  0  0
  5  8  1  0  0  0  0
  6  3  1  0  0  0  0
  7  4  1  6  0  0  0
  7 10  1  0  0  0  0
  8  2  1  1  0  0  0
  8  7  1  0  0  0  0
  9  4  2  0  0  0  0
 12 13  1  0  0  0  0
 13 17  2  0  0  0  0
 13 11  1  0  0  0  0
 14 15  2  0  0  0  0
 15 17  1  0  0  0  0
 16 14  1  0  0  0  0
 16 12  2  0  0  0  0
 18 19  1  0  0  0  0
 19 12  1  0  0  0  0
 20  5  1  0  0  0  0
 21 20  1  0  0  0  0
 22 32  1  6  0  0  0
 22 23  1  0  0  0  0
 23 29  1  1  0  0  0
 23 30  1  0  0  0  0
 24 30  1  0  0  0  0
 26 25  1  1  0  0  0
 26 28  1  0  0  0  0
 27 22  1  0  0  0  0
 27 26  1  0  0  0  0
 27 24  1  1  0  0  0
 28 21  1  6  0  0  0
 28 29  1  0  0  0  0
 30 31  1  6  0  0  0
 33 32  1  0  0  0  0
M  END
>  <MODEL>
4

>  <REMARK>
 VINA RESULT:      -8.2      2.255      6.443
  Name = 
  6 active torsions:
  status: ('A' for Active; 'I' for Inactive)
    1  A    between atoms: C_1  and  C_7
    2  A    between atoms: C_3  and  O_10
    3  A    between atoms: C_5  and  C_20
    4  A    between atoms: C_17  and  C_32
    5  A    between atoms: C_19  and  C_25
    6  A    between atoms: C_19  and  C_32
                            x       y       z     vdW  Elec       q    Type
                         _______ _______ _______ _____ _____    ______ ____

>  <TORSDO>
F 6

$$$$
=
 OpenBabel11062414473D

 33 37  0  0  1  0  0  0  0  0999 V2000
  187.9680  178.0010  141.8950 C   0  0  0  0  0  0  0  0  0  0  0  0
  187.6500  178.6080  140.7560 C   0  0  0  0  0  2  0  0  0  0  0  0
  188.9630  176.7370  137.8450 C   0  0  0  0  0  0  0  0  0  0  0  0
  190.4230  176.4370  139.7430 C   0  0  0  0  0  3  0  0  0  0  0  0
  188.2000  177.6770  138.4610 C   0  0  0  0  0  0  0  0  0  0  0  0
  188.6040  176.2120  136.4950 C   0  0  0  0  0  1  0  0  0  0  0  0
  189.5610  177.3570  140.4790 C   0  0  1  0  0  3  0  0  0  0  0  0
  188.7010  178.3140  139.7370 C   0  0  2  0  0  3  0  0  0  0  0  0
  190.1280  176.1840  138.5000 N   0  0  0  0  0  0  0  0  0  0  0  0
  189.1570  177.1700  141.7220 C   0  0  0  0  0  3  0  0  0  0  0  0
  184.7610  178.2630  146.5810 N   0  0  0  0  0  1  0  0  0  0  0  0
  186.9500  177.8630  145.5350 C   0  0  0  0  0  0  0  0  0  0  0  0
  185.5900  178.1910  145.4240 C   0  0  0  0  0  0  0  0  0  0  0  0
  187.1570  178.0620  143.1250 C   0  0  0  0  0  0  0  0  0  0  0  0
  185.7980  178.3900  143.0650 C   0  0  0  0  0  3  0  0  0  0  0  0
  187.7270  177.7960  144.3770 C   0  0  0  0  0  3  0  0  0  0  0  0
  185.0520  178.4460  144.2000 N   0  0  0  0  0  0  0  0  0  0  0  0
  189.0500  177.2500  146.6790 C   0  0  0  0  0  1  0  0  0  0  0  0
  187.5760  177.5610  146.8570 C   0  0  0  0  0  2  0  0  0  0  0  0
  186.9790  178.2530  137.8110 C   0  0  0  0  0  2  0  0  0  0  0  0
  185.8650  177.2130  137.7850 C   0  0  0  0  0  2  0  0  0  0  0  0
  182.5470  178.1950  140.1520 C   0  0  2  0  0  3  0  0  0  0  0  0
  183.1820  179.4300  139.5370 C   0  0  1  0  0  3  0  0  0  0  0  0
  181.5720  178.4810  137.9780 C   0  0  0  0  0  2  0  0  0  0  0  0
  183.0940  175.9210  137.1370 C   0  0  0  0  0  1  0  0  0  0  0  0
  183.4130  176.7860  138.3460 C   0  0  2  0  0  3  0  0  0  0  0  0
  182.1280  177.4130  138.9240 C   0  0  1  0  0  3  0  0  0  0  0  0
  184.4920  177.8450  138.0040 C   0  0  1  0  0  3  0  0  0  0  0  0
  184.5680  179.0060  139.0250 C   0  0  0  0  0  2  0  0  0  0  0  0
  182.2900  179.7770  138.3440 C   0  0  1  0  0  3  0  0  0  0  0  0
  181.2740  180.8330  138.7350 C   0  0  0  0  0  1  0  0  0  0  0  0
  181.4280  178.5440  140.9160 O   0  0  0  0  0  0  0  0  0  0  0  0
  181.9530  179.0030  142.1250 C   0  0  0  0  0  1  0  0  0  0  0  0
  1 14  1  0  0  0  0
  2  1  1  0  0  0  0
  3  5  2  0  0  0  0
  3  9  1  0  0  0  0
  5  8  1  0  0  0  0
  6  3  1  0  0  0  0
  7  4  1  6  0  0  0
  7 10  1  0  0  0  0
  8  7  1  0  0  0  0
  8  2  1  1  0  0  0
  9  4  2  0  0  0  0
 10  1  2  0  0  0  0
 12 19  1  0  0  0  0
 13 12  1  0  0  0  0
 13 11  1  0  0  0  0
 14 16  1  0  0  0  0
 15 14  2  0  0  0  0
 15 17  1  0  0  0  0
 16 12  2  0  0  0  0
 17 13  2  0  0  0  0
 18 19  1  0  0  0  0
 20  5  1  0  0  0  0
 21 20  1  0  0  0  0
 22 32  1  1  0  0  0
 23 29  1  6  0  0  0
 23 22  1  0  0  0  0
 24 30  1  0  0  0  0
 26 25  1  6  0  0  0
 26 27  1  0  0  0  0
 27 24  1  6  0  0  0
 27 22  1  0  0  0  0
 28 21  1  1  0  0  0
 28 26  1  0  0  0  0
 28 29  1  0  0  0  0
 30 31  1  1  0  0  0
 30 23  1  0  0  0  0
 32 33  1  0  0  0  0
M  END
>  <MODEL>
5

>  <REMARK>
 VINA RESULT:      -8.1      2.803      6.126
  Name = 
  6 active torsions:
  status: ('A' for Active; 'I' for Inactive)
    1  A    between atoms: C_1  and  C_7
    2  A    between atoms: C_3  and  O_10
    3  A    between atoms: C_5  and  C_20
    4  A    between atoms: C_17  and  C_32
    5  A    between atoms: C_19  and  C_25
    6  A    between atoms: C_19  and  C_32
                            x       y       z     vdW  Elec       q    Type
                         _______ _______ _______ _____ _____    ______ ____

>  <TORSDO>
F 6

$$$$
=
 OpenBabel11062414473D

 33 37  0  0  1  0  0  0  0  0999 V2000
  188.0130  177.9630  145.2170 C   0  0  0  0  0  0  0  0  0  0  0  0
  188.8470  177.7830  144.1970 C   0  0  0  0  0  2  0  0  0  0  0  0
  191.6710  175.5970  145.1670 C   0  0  0  0  0  0  0  0  0  0  0  0
  190.9130  176.8600  147.0790 C   0  0  0  0  0  3  0  0  0  0  0  0
  190.8800  176.2680  144.2910 C   0  0  0  0  0  0  0  0  0  0  0  0
  192.4840  174.4230  144.7330 C   0  0  0  0  0  1  0  0  0  0  0  0
  189.9670  177.5260  146.1910 C   0  0  1  0  0  3  0  0  0  0  0  0
  190.2240  177.5580  144.7290 C   0  0  2  0  0  3  0  0  0  0  0  0
  191.7170  175.9750  146.5630 N   0  0  0  0  0  0  0  0  0  0  0  0
  188.7020  177.7630  146.4890 C   0  0  0  0  0  3  0  0  0  0  0  0
  182.4250  178.9080  144.7700 N   0  0  0  0  0  1  0  0  0  0  0  0
  184.5820  178.4270  143.6930 C   0  0  0  0  0  0  0  0  0  0  0  0
  183.8270  178.6680  144.8510 C   0  0  0  0  0  0  0  0  0  0  0  0
  186.5650  178.2070  145.0750 C   0  0  0  0  0  0  0  0  0  0  0  0
  185.7710  178.4460  146.2020 C   0  0  0  0  0  3  0  0  0  0  0  0
  185.9550  178.2010  143.8140 C   0  0  0  0  0  3  0  0  0  0  0  0
  184.4360  178.6690  146.0680 N   0  0  0  0  0  0  0  0  0  0  0  0
  184.8980  179.0590  141.3280 C   0  0  0  0  0  1  0  0  0  0  0  0
  183.9570  178.4310  142.3370 C   0  0  0  0  0  2  0  0  0  0  0  0
  190.8020  175.8860  142.8450 C   0  0  0  0  0  2  0  0  0  0  0  0
  190.8760  177.1320  141.9720 C   0  0  0  0  0  2  0  0  0  0  0  0
  189.8120  178.3350  138.0990 C   0  0  2  0  0  3  0  0  0  0  0  0
  190.4970  176.9790  138.0970 C   0  0  1  0  0  3  0  0  0  0  0  0
  188.1120  176.6820  138.4750 C   0  0  0  0  0  2  0  0  0  0  0  0
  187.8870  177.8010  141.3520 C   0  0  0  0  0  1  0  0  0  0  0  0
  189.0610  178.0090  140.4080 C   0  0  2  0  0  3  0  0  0  0  0  0
  188.5820  178.0620  138.9430 C   0  0  1  0  0  3  0  0  0  0  0  0
  190.1580  176.9370  140.6390 C   0  0  1  0  0  3  0  0  0  0  0  0
  191.1680  176.8220  139.4720 C   0  0  0  0  0  2  0  0  0  0  0  0
  189.3610  175.9640  137.9710 C   0  0  1  0  0  3  0  0  0  0  0  0
  189.1720  175.5620  136.5220 C   0  0  0  0  0  1  0  0  0  0  0  0
  189.4430  178.7030  136.8010 O   0  0  0  0  0  0  0  0  0  0  0  0
  188.2160  179.3500  136.9510 C   0  0  0  0  0  1  0  0  0  0  0  0
  1 10  2  0  0  0  0
  2  1  1  0  0  0  0
  3  9  1  0  0  0  0
  5  8  1  0  0  0  0
  5  3  2  0  0  0  0
  6  3  1  0  0  0  0
  7 10  1  6  0  0  0
  7  4  1  0  0  0  0
  8  2  1  6  0  0  0
  8  7  1  0  0  0  0
  9  4  2  0  0  0  0
 11 13  1  0  0  0  0
 12 16  2  0  0  0  0
 12 13  1  0  0  0  0
 13 17  2  0  0  0  0
 14  1  1  0  0  0  0
 14 15  2  0  0  0  0
 16 14  1  0  0  0  0
 17 15  1  0  0  0  0
 18 19  1  0  0  0  0
 19 12  1  0  0  0  0
 20  5  1  0  0  0  0
 21 20  1  0  0  0  0
 22 32  1  6  0  0  0
 22 27  1  0  0  0  0
 23 22  1  0  0  0  0
 23 29  1  1  0  0  0
 26 28  1  0  0  0  0
 26 25  1  1  0  0  0
 27 24  1  6  0  0  0
 27 26  1  0  0  0  0
 28 21  1  1  0  0  0
 29 28  1  0  0  0  0
 30 31  1  6  0  0  0
 30 23  1  0  0  0  0
 30 24  1  0  0  0  0
 32 33  1  0  0  0  0
M  END
>  <MODEL>
6

>  <REMARK>
 VINA RESULT:      -8.1      1.030      2.043
  Name = 
  6 active torsions:
  status: ('A' for Active; 'I' for Inactive)
    1  A    between atoms: C_1  and  C_7
    2  A    between atoms: C_3  and  O_10
    3  A    between atoms: C_5  and  C_20
    4  A    between atoms: C_17  and  C_32
    5  A    between atoms: C_19  and  C_25
    6  A    between atoms: C_19  and  C_32
                            x       y       z     vdW  Elec       q    Type
                         _______ _______ _______ _____ _____    ______ ____

>  <TORSDO>
F 6

$$$$
=
 OpenBabel11062414473D

 33 37  0  0  1  0  0  0  0  0999 V2000
  188.1860  177.4210  142.4570 C   0  0  0  0  0  0  0  0  0  0  0  0
  186.9550  177.1870  142.9010 C   0  0  0  0  0  2  0  0  0  0  0  0
  186.5570  178.3680  146.3860 C   0  0  0  0  0  0  0  0  0  0  0  0
  188.8350  177.6680  146.0090 C   0  0  0  0  0  3  0  0  0  0  0  0
  186.1180  177.9130  145.1840 C   0  0  0  0  0  0  0  0  0  0  0  0
  185.6580  179.1350  147.2970 C   0  0  0  0  0  1  0  0  0  0  0  0
  188.4300  177.2700  144.6650 C   0  0  1  0  0  3  0  0  0  0  0  0
  187.0000  176.9850  144.3800 C   0  0  2  0  0  3  0  0  0  0  0  0
  187.9260  178.1600  146.8020 N   0  0  0  0  0  0  0  0  0  0  0  0
  189.1270  177.5160  143.5710 C   0  0  0  0  0  3  0  0  0  0  0  0
  189.4130  178.4420  137.0020 N   0  0  0  0  0  1  0  0  0  0  0  0
  190.0270  177.4230  139.1530 C   0  0  0  0  0  0  0  0  0  0  0  0
  189.1320  178.1700  138.3720 C   0  0  0  0  0  0  0  0  0  0  0  0
  188.5280  177.6730  141.0450 C   0  0  0  0  0  0  0  0  0  0  0  0
  187.6640  178.4080  140.2250 C   0  0  0  0  0  3  0  0  0  0  0  0
  189.7180  177.1830  140.4930 C   0  0  0  0  0  3  0  0  0  0  0  0
  187.9800  178.6380  138.9230 N   0  0  0  0  0  0  0  0  0  0  0  0
  191.1220  175.4850  138.0860 C   0  0  0  0  0  1  0  0  0  0  0  0
  191.3090  176.9020  138.5910 C   0  0  0  0  0  2  0  0  0  0  0  0
  184.7100  178.1320  144.7230 C   0  0  0  0  0  2  0  0  0  0  0  0
  184.7070  178.8870  143.3990 C   0  0  0  0  0  2  0  0  0  0  0  0
  180.8290  177.6560  142.3870 C   0  0  2  0  0  3  0  0  0  0  0  0
  180.8130  178.7540  143.4370 C   0  0  1  0  0  3  0  0  0  0  0  0
  180.8900  179.7520  141.2190 C   0  0  0  0  0  2  0  0  0  0  0  0
  183.7910  179.0340  140.4150 C   0  0  0  0  0  1  0  0  0  0  0  0
  183.0070  178.4090  141.5570 C   0  0  2  0  0  3  0  0  0  0  0  0
  181.5030  178.3490  141.2200 C   0  0  1  0  0  3  0  0  0  0  0  0
  183.2900  179.1440  142.8940 C   0  0  1  0  0  3  0  0  0  0  0  0
  182.2420  178.8510  143.9950 C   0  0  0  0  0  2  0  0  0  0  0  0
  180.4870  180.0320  142.6630 C   0  0  1  0  0  3  0  0  0  0  0  0
  179.0000  180.3250  142.7330 C   0  0  0  0  0  1  0  0  0  0  0  0
  179.5260  177.2800  142.0470 O   0  0  0  0  0  0  0  0  0  0  0  0
  179.6770  176.4250  140.9550 C   0  0  0  0  0  1  0  0  0  0  0  0
  1  2  1  0  0  0  0
  1 10  2  0  0  0  0
  3  9  1  0  0  0  0
  3  6  1  0  0  0  0
  4  9  2  0  0  0  0
  5  3  2  0  0  0  0
  7 10  1  6  0  0  0
  7  4  1  0  0  0  0
  8  2  1  6  0  0  0
  8  7  1  0  0  0  0
  8  5  1  0  0  0  0
 11 13  1  0  0  0  0
 12 16  1  0  0  0  0
 13 17  1  0  0  0  0
 13 12  2  0  0  0  0
 14  1  1  0  0  0  0
 15 14  1  0  0  0  0
 16 14  2  0  0  0  0
 17 15  2  0  0  0  0
 18 19  1  0  0  0  0
 19 12  1  0  0  0  0
 20  5  1  0  0  0  0
 21 20  1  0  0  0  0
 22 32  1  6  0  0  0
 22 23  1  0  0  0  0
 23 29  1  6  0  0  0
 24 30  1  0  0  0  0
 26 25  1  6  0  0  0
 26 28  1  0  0  0  0
 27 24  1  1  0  0  0
 27 26  1  0  0  0  0
 27 22  1  0  0  0  0
 28 21  1  1  0  0  0
 28 29  1  0  0  0  0
 30 31  1  6  0  0  0
 30 23  1  0  0  0  0
 33 32  1  0  0  0  0
M  END
>  <MODEL>
7

>  <REMARK>
 VINA RESULT:      -8.0      3.313      7.352
  Name = 
  6 active torsions:
  status: ('A' for Active; 'I' for Inactive)
    1  A    between atoms: C_1  and  C_7
    2  A    between atoms: C_3  and  O_10
    3  A    between atoms: C_5  and  C_20
    4  A    between atoms: C_17  and  C_32
    5  A    between atoms: C_19  and  C_25
    6  A    between atoms: C_19  and  C_32
                            x       y       z     vdW  Elec       q    Type
                         _______ _______ _______ _____ _____    ______ ____

>  <TORSDO>
F 6

$$$$
=
 OpenBabel11062414473D

 33 37  0  0  1  0  0  0  0  0999 V2000
  189.7240  177.5020  141.7570 C   0  0  0  0  0  0  0  0  0  0  0  0
  188.8220  177.7860  140.8220 C   0  0  0  0  0  2  0  0  0  0  0  0
  189.7100  176.1960  137.6000 C   0  0  0  0  0  0  0  0  0  0  0  0
  191.7140  176.7290  138.8340 C   0  0  0  0  0  3  0  0  0  0  0  0
  188.8900  176.8450  138.4670 C   0  0  0  0  0  0  0  0  0  0  0  0
  189.1600  175.4010  136.4630 C   0  0  0  0  0  1  0  0  0  0  0  0
  190.8590  177.3370  139.8490 C   0  0  1  0  0  3  0  0  0  0  0  0
  189.4900  177.7860  139.4860 C   0  0  2  0  0  3  0  0  0  0  0  0
  191.1450  176.2220  137.7780 N   0  0  0  0  0  0  0  0  0  0  0  0
  191.0110  177.1740  141.1500 C   0  0  0  0  0  3  0  0  0  0  0  0
  188.6750  177.1230  147.3310 N   0  0  0  0  0  1  0  0  0  0  0  0
  187.8410  177.4070  145.0360 C   0  0  0  0  0  0  0  0  0  0  0  0
  188.9080  177.2210  145.9290 C   0  0  0  0  0  0  0  0  0  0  0  0
  189.4260  177.4080  143.1990 C   0  0  0  0  0  0  0  0  0  0  0  0
  190.4560  177.2170  144.1260 C   0  0  0  0  0  3  0  0  0  0  0  0
  188.1100  177.5030  143.6700 C   0  0  0  0  0  3  0  0  0  0  0  0
  190.1790  177.1290  145.4540 N   0  0  0  0  0  0  0  0  0  0  0  0
  185.5880  178.2540  144.4860 C   0  0  0  0  0  1  0  0  0  0  0  0
  186.4320  177.5270  145.5160 C   0  0  0  0  0  2  0  0  0  0  0  0
  187.4000  176.8180  138.3140 C   0  0  0  0  0  2  0  0  0  0  0  0
  186.9160  178.1260  137.7000 C   0  0  0  0  0  2  0  0  0  0  0  0
  183.2220  177.1390  139.4180 C   0  0  2  0  0  3  0  0  0  0  0  0
  183.6200  178.5720  139.7280 C   0  0  1  0  0  3  0  0  0  0  0  0
  182.4530  178.4970  137.5940 C   0  0  0  0  0  2  0  0  0  0  0  0
  184.6060  177.1030  135.8610 C   0  0  0  0  0  1  0  0  0  0  0  0
  184.5820  177.1470  137.3810 C   0  0  2  0  0  3  0  0  0  0  0  0
  183.1310  177.1600  137.9050 C   0  0  1  0  0  3  0  0  0  0  0  0
  185.4200  178.3380  137.9160 C   0  0  1  0  0  3  0  0  0  0  0  0
  185.1140  178.6980  139.3900 C   0  0  0  0  0  2  0  0  0  0  0  0
  182.8090  179.4250  138.7520 C   0  0  1  0  0  3  0  0  0  0  0  0
  181.5410  179.9250  139.4170 C   0  0  0  0  0  1  0  0  0  0  0  0
  181.9760  176.8400  139.9790 O   0  0  0  0  0  0  0  0  0  0  0  0
  181.6480  175.5840  139.4670 C   0  0  0  0  0  1  0  0  0  0  0  0
  1 14  1  0  0  0  0
  2  1  1  0  0  0  0
  3  9  1  0  0  0  0
  3  5  2  0  0  0  0
  5  8  1  0  0  0  0
  6  3  1  0  0  0  0
  7  4  1  6  0  0  0
  7 10  1  0  0  0  0
  8  7  1  0  0  0  0
  8  2  1  1  0  0  0
  9  4  2  0  0  0  0
 10  1  2  0  0  0  0
 12 19  1  0  0  0  0
 12 13  1  0  0  0  0
 13 11  1  0  0  0  0
 14 16  1  0  0  0  0
 14 15  2  0  0  0  0
 15 17  1  0  0  0  0
 16 12  2  0  0  0  0
 17 13  2  0  0  0  0
 18 19  1  0  0  0  0
 20  5  1  0  0  0  0
 21 20  1  0  0  0  0
 22 23  1  0  0  0  0
 22 32  1  1  0  0  0
 23 29  1  6  0  0  0
 24 30  1  0  0  0  0
 26 25  1  6  0  0  0
 26 27  1  0  0  0  0
 26 28  1  0  0  0  0
 27 24  1  1  0  0  0
 27 22  1  0  0  0  0
 28 21  1  1  0  0  0
 28 29  1  0  0  0  0
 30 31  1  1  0  0  0
 30 23  1  0  0  0  0
 33 32  1  0  0  0  0
M  END
>  <MODEL>
8

>  <REMARK>
 VINA RESULT:      -8.0      2.691      6.018
  Name = 
  6 active torsions:
  status: ('A' for Active; 'I' for Inactive)
    1  A    between atoms: C_1  and  C_7
    2  A    between atoms: C_3  and  O_10
    3  A    between atoms: C_5  and  C_20
    4  A    between atoms: C_17  and  C_32
    5  A    between atoms: C_19  and  C_25
    6  A    between atoms: C_19  and  C_32
                            x       y       z     vdW  Elec       q    Type
                         _______ _______ _______ _____ _____    ______ ____

>  <TORSDO>
F 6

$$$$
=
 OpenBabel11062414473D

 33 37  0  0  1  0  0  0  0  0999 V2000
  188.8150  177.8480  141.2960 C   0  0  0  0  0  0  0  0  0  0  0  0
  188.2910  178.4910  140.2580 C   0  0  0  0  0  2  0  0  0  0  0  0
  189.3100  176.9130  137.0690 C   0  0  0  0  0  0  0  0  0  0  0  0
  191.0470  176.6280  138.7210 C   0  0  0  0  0  3  0  0  0  0  0  0
  188.5750  177.7470  137.8490 C   0  0  0  0  0  0  0  0  0  0  0  0
  188.8020  176.4390  135.7490 C   0  0  0  0  0  1  0  0  0  0  0  0
  190.2320  177.4260  139.6310 C   0  0  1  0  0  3  0  0  0  0  0  0
  189.2040  178.3480  139.0850 C   0  0  2  0  0  3  0  0  0  0  0  0
  190.5970  176.4250  137.5160 N   0  0  0  0  0  0  0  0  0  0  0  0
  190.0270  177.1330  140.9020 C   0  0  0  0  0  3  0  0  0  0  0  0
  186.4830  177.5030  146.4690 N   0  0  0  0  0  1  0  0  0  0  0  0
  186.2410  177.9600  144.0650 C   0  0  0  0  0  0  0  0  0  0  0  0
  187.0400  177.5970  145.1610 C   0  0  0  0  0  0  0  0  0  0  0  0
  188.1870  177.7660  142.6290 C   0  0  0  0  0  0  0  0  0  0  0  0
  188.9420  177.4030  143.7490 C   0  0  0  0  0  3  0  0  0  0  0  0
  186.8260  178.0470  142.8010 C   0  0  0  0  0  3  0  0  0  0  0  0
  188.3610  177.3270  144.9760 N   0  0  0  0  0  0  0  0  0  0  0  0
  184.5460  179.7530  143.9680 C   0  0  0  0  0  1  0  0  0  0  0  0
  184.7910  178.2780  144.2270 C   0  0  0  0  0  2  0  0  0  0  0  0
  187.2330  178.2530  137.4170 C   0  0  0  0  0  2  0  0  0  0  0  0
  186.1480  177.2590  137.8160 C   0  0  0  0  0  2  0  0  0  0  0  0
  182.5460  178.0030  139.8280 C   0  0  2  0  0  3  0  0  0  0  0  0
  183.3150  179.2850  139.5630 C   0  0  1  0  0  3  0  0  0  0  0  0
  181.9300  178.7570  137.6340 C   0  0  0  0  0  2  0  0  0  0  0  0
  183.4630  176.3020  136.5360 C   0  0  0  0  0  1  0  0  0  0  0  0
  183.6250  176.9010  137.9240 C   0  0  2  0  0  3  0  0  0  0  0  0
  182.2910  177.4950  138.4230 C   0  0  1  0  0  3  0  0  0  0  0  0
  184.7840  177.9300  137.9550 C   0  0  1  0  0  3  0  0  0  0  0  0
  184.7470  178.8700  139.1840 C   0  0  0  0  0  2  0  0  0  0  0  0
  182.6320  179.9090  138.3460 C   0  0  1  0  0  3  0  0  0  0  0  0
  181.6100  180.9390  138.7860 C   0  0  0  0  0  1  0  0  0  0  0  0
  181.3370  178.2770  140.4760 O   0  0  0  0  0  0  0  0  0  0  0  0
  181.7030  178.6280  141.7760 C   0  0  0  0  0  1  0  0  0  0  0  0
  1 14  1  0  0  0  0
  2  1  1  0  0  0  0
  3  9  1  0  0  0  0
  3  5  2  0  0  0  0
  5  8  1  0  0  0  0
  6  3  1  0  0  0  0
  7  4  1  6  0  0  0
  7 10  1  0  0  0  0
  8  7  1  0  0  0  0
  8  2  1  1  0  0  0
  9  4  2  0  0  0  0
 10  1  2  0  0  0  0
 12 19  1  0  0  0  0
 12 13  1  0  0  0  0
 13 11  1  0  0  0  0
 14 16  1  0  0  0  0
 14 15  2  0  0  0  0
 15 17  1  0  0  0  0
 16 12  2  0  0  0  0
 17 13  2  0  0  0  0
 18 19  1  0  0  0  0
 20 21  1  0  0  0  0
 20  5  1  0  0  0  0
 22 32  1  6  0  0  0
 23 29  1  6  0  0  0
 23 22  1  0  0  0  0
 24 30  1  0  0  0  0
 26 25  1  6  0  0  0
 26 28  1  0  0  0  0
 26 27  1  0  0  0  0
 27 24  1  6  0  0  0
 27 22  1  0  0  0  0
 28 21  1  1  0  0  0
 28 29  1  0  0  0  0
 30 31  1  1  0  0  0
 30 23  1  0  0  0  0
 32 33  1  0  0  0  0
M  END
>  <MODEL>
9

>  <REMARK>
 VINA RESULT:      -8.0      2.945      6.159
  Name = 
  6 active torsions:
  status: ('A' for Active; 'I' for Inactive)
    1  A    between atoms: C_1  and  C_7
    2  A    between atoms: C_3  and  O_10
    3  A    between atoms: C_5  and  C_20
    4  A    between atoms: C_17  and  C_32
    5  A    between atoms: C_19  and  C_25
    6  A    between atoms: C_19  and  C_32
                            x       y       z     vdW  Elec       q    Type
                         _______ _______ _______ _____ _____    ______ ____

>  <TORSDO>
F 6

$$$$
