=
 OpenBabel11062411003D

 49 54  0  0  1  0  0  0  0  0999 V2000
  188.2010  176.6160  142.2950 C   0  0  0  0  0  2  0  0  0  0  0  0
  187.4320  177.0090  144.6380 C   0  0  1  0  0  0  0  0  0  0  0  0
  187.8120  177.6620  145.9440 C   0  0  1  0  0  0  0  0  0  0  0  0
  185.8680  178.8590  145.0920 C   0  0  1  0  0  3  0  0  0  0  0  0
  188.7100  177.8990  144.7710 C   0  0  2  0  0  3  0  0  0  0  0  0
  186.7590  178.6960  146.3070 C   0  0  0  0  0  2  0  0  0  0  0  0
  188.0080  175.9640  143.6920 C   0  0  0  0  0  2  0  0  0  0  0  0
  188.9120  178.0040  142.3300 C   0  0  1  0  0  3  0  0  0  0  0  0
  188.5960  178.8480  143.5880 C   0  0  0  0  0  2  0  0  0  0  0  0
  186.1110  177.6560  144.1920 C   0  0  0  0  0  2  0  0  0  0  0  0
  188.2880  176.6730  146.9910 C   0  0  0  0  0  2  0  0  0  0  0  0
  188.7690  177.3600  148.1060 O   0  0  0  0  0  1  0  0  0  0  0  0
  191.1550  178.3520  142.9380 O   0  0  0  0  0  0  0  0  0  0  0  0
  190.3960  177.9490  142.0710 C   0  0  0  0  0  0  0  0  0  0  0  0
  192.5490  177.6540  140.4940 O   0  0  0  0  0  0  0  0  0  0  0  0
  190.8790  175.8550  140.4840 O   0  0  0  0  0  0  0  0  0  0  0  0
  191.0810  177.3400  140.5600 S   0  0  0  0  0  0  0  0  0  0  0  0
  190.2720  178.0820  139.2200 N   0  0  0  0  0  2  0  0  0  0  0  0
  190.0340  177.0510  138.2200 C   0  0  0  0  0  2  0  0  0  0  0  0
  187.9190  175.8350  137.1280 C   0  0  2  0  0  3  0  0  0  0  0  0
  187.1940  178.0360  136.2370 C   0  0  0  0  0  2  0  0  0  0  0  0
  187.0860  178.8180  137.3990 O   0  0  0  0  0  0  0  0  0  0  0  0
  188.3600  177.0870  136.3840 C   0  0  1  0  0  3  0  0  0  0  0  0
  188.5550  177.0090  137.8650 C   0  0  2  0  0  0  0  0  0  0  0  0
  187.6290  178.0530  138.4440 C   0  0  0  0  0  2  0  0  0  0  0  0
  188.9130  174.7080  136.8640 C   0  0  0  0  0  2  0  0  0  0  0  0
  188.6780  174.0210  135.5170 C   0  0  1  0  0  3  0  0  0  0  0  0
  189.8390  174.0140  134.7410 O   0  0  0  0  0  1  0  0  0  0  0  0
  187.9820  172.2850  135.6660 P   0  0  0  0  0  0  0  0  0  0  0  0
  187.8540  172.2170  137.3950 O   0  0  0  0  0  1  0  0  0  0  0  0
  186.3170  172.6910  135.3850 O   0  0  0  0  0  1  0  0  0  0  0  0
  184.4060  178.9690  145.4990 C   0  0  0  0  0  2  0  0  0  0  0  0
  183.5000  178.3860  144.4260 C   0  0  0  0  0  2  0  0  0  0  0  0
  182.7350  179.4910  143.7080 C   0  0  0  0  0  2  0  0  0  0  0  0
  181.8490  178.9630  142.5780 C   0  0  1  0  0  3  0  0  0  0  0  0
  180.3960  179.4430  142.7280 C   0  0  2  0  0  3  0  0  0  0  0  0
  179.4670  178.2770  143.0650 C   0  0  0  0  0  3  0  0  0  0  0  0
  179.5690  177.2910  142.0840 O   0  0  0  0  0  1  0  0  0  0  0  0
  179.8040  177.7240  144.3020 O   0  0  0  0  0  1  0  0  0  0  0  0
  179.9140  180.2120  141.4970 C   0  0  0  0  0  2  0  0  0  0  0  0
  179.2980  181.4010  141.8850 O   0  0  0  0  0  1  0  0  0  0  0  0
  182.4380  179.2150  141.1780 C   0  0  0  0  0  2  0  0  0  0  0  0
  183.2420  178.0420  140.5830 C   0  0  2  0  0  3  0  0  0  0  0  0
  184.5160  178.4170  139.8340 C   0  0  2  0  0  3  0  0  0  0  0  0
  184.6150  179.7920  139.6040 O   0  0  0  0  0  1  0  0  0  0  0  0
  183.8340  177.7600  138.6520 C   0  0  0  0  0  2  0  0  0  0  0  0
  182.6160  177.4620  139.4010 N   0  0  0  0  0  0  0  0  0  0  0  0
  181.3910  175.5180  139.0400 O   0  0  0  0  0  1  0  0  0  0  0  0
  182.5690  176.0210  139.5900 C   0  0  0  0  0  2  0  0  0  0  0  0
  1  8  1  0  0  0  0
  1  7  1  0  0  0  0
  2  7  1  6  0  0  0
  2  5  1  0  0  0  0
  2  3  1  0  0  0  0
  3  6  1  0  0  0  0
  3 11  1  1  0  0  0
  4 32  1  1  0  0  0
  4  6  1  0  0  0  0
  5  9  1  6  0  0  0
  5  3  1  0  0  0  0
  8 14  1  1  0  0  0
  8  9  1  0  0  0  0
 10  2  1  0  0  0  0
 10  4  1  0  0  0  0
 11 12  1  0  0  0  0
 14 13  2  0  0  0  0
 15 17  2  0  0  0  0
 16 17  2  0  0  0  0
 17 14  1  0  0  0  0
 18 17  1  0  0  0  0
 19 18  1  0  0  0  0
 20 26  1  6  0  0  0
 20 24  1  0  0  0  0
 21 22  1  0  0  0  0
 22 25  1  0  0  0  0
 23 21  1  1  0  0  0
 23 20  1  0  0  0  0
 23 24  1  0  0  0  0
 24 19  1  1  0  0  0
 24 25  1  0  0  0  0
 27 28  1  1  0  0  0
 27 29  1  0  0  0  0
 27 26  1  0  0  0  0
 29 30  1  0  0  0  0
 31 29  1  0  0  0  0
 33 32  1  0  0  0  0
 34 33  1  0  0  0  0
 35 42  1  6  0  0  0
 35 36  1  0  0  0  0
 35 34  1  0  0  0  0
 36 40  1  6  0  0  0
 36 37  1  0  0  0  0
 37 39  1  0  0  0  0
 38 37  1  0  0  0  0
 40 41  1  0  0  0  0
 43 42  1  6  0  0  0
 44 45  1  6  0  0  0
 44 43  1  0  0  0  0
 46 47  1  0  0  0  0
 46 44  1  0  0  0  0
 47 49  1  0  0  0  0
 47 43  1  0  0  0  0
 48 49  1  0  0  0  0
M  END
>  <MODEL>
1

>  <REMARK>
 VINA RESULT:      -6.6      0.000      0.000
  Name = 
  19 active torsions:
  status: ('A' for Active; 'I' for Inactive)
    1  A    between atoms: C_3  and  C_43
    2  A    between atoms: C_4  and  C_8
    3  A    between atoms: P_5  and  C_25
    4  A    between atoms: C_6  and  C_21
    5  A    between atoms: C_9  and  C_27
    6  A    between atoms: C_14  and  C_43
    7  A    between atoms: C_17  and  C_30
    8  A    between atoms: C_17  and  C_39
    9  A    between atoms: C_17  and  C_43
   10  A    between atoms: N_20  and  C_33
   11  A    between atoms: N_20  and  S_45
   12  A    between atoms: C_21  and  C_25
   13  A    between atoms: C_23  and  C_27
   14  A    between atoms: C_23  and  C_30
   15  A    between atoms: C_24  and  C_39
   16  A    between atoms: C_28  and  C_40
   17  A    between atoms: C_33  and  C_46
   18  A    between atoms: C_40  and  S_45
   19  A    between atoms: C_41  and  N_47
                            x       y       z     vdW  Elec       q    Type
                         _______ _______ _______ _____ _____    ______ ____

>  <TORSDO>
F 19

$$$$
=
 OpenBabel11062411003D

 49 54  0  0  1  0  0  0  0  0999 V2000
  188.9860  179.0320  138.3480 C   0  0  0  0  0  2  0  0  0  0  0  0
  188.5630  177.5130  136.4120 C   0  0  1  0  0  0  0  0  0  0  0  0
  188.5200  176.0620  135.9970 C   0  0  1  0  0  0  0  0  0  0  0  0
  186.2400  176.9110  135.8450 C   0  0  1  0  0  3  0  0  0  0  0  0
  188.7350  176.3560  137.4480 C   0  0  2  0  0  3  0  0  0  0  0  0
  187.1240  175.7310  135.4950 C   0  0  0  0  0  2  0  0  0  0  0  0
  189.5690  178.4820  137.0170 C   0  0  0  0  0  2  0  0  0  0  0  0
  188.4060  177.9360  139.2940 C   0  0  1  0  0  3  0  0  0  0  0  0
  187.7650  176.7360  138.5560 C   0  0  0  0  0  2  0  0  0  0  0  0
  187.1590  178.0840  136.1530 C   0  0  0  0  0  2  0  0  0  0  0  0
  189.7310  175.6350  135.1910 C   0  0  0  0  0  2  0  0  0  0  0  0
  190.7340  175.1800  136.0470 O   0  0  0  0  0  1  0  0  0  0  0  0
  190.4720  177.0950  140.0310 O   0  0  0  0  0  0  0  0  0  0  0  0
  189.3590  177.4710  140.3650 C   0  0  0  0  0  0  0  0  0  0  0  0
  189.2030  176.0690  142.6490 O   0  0  0  0  0  0  0  0  0  0  0  0
  189.7320  178.4600  142.8180 O   0  0  0  0  0  0  0  0  0  0  0  0
  188.9280  177.4310  142.0780 S   0  0  0  0  0  0  0  0  0  0  0  0
  187.2460  177.8040  142.2580 N   0  0  0  0  0  2  0  0  0  0  0  0
  186.7640  177.1190  143.4480 C   0  0  0  0  0  2  0  0  0  0  0  0
  187.2140  178.1530  145.8710 C   0  0  2  0  0  3  0  0  0  0  0  0
  184.7610  178.4160  146.1440 C   0  0  0  0  0  2  0  0  0  0  0  0
  184.4130  179.2190  145.0450 O   0  0  0  0  0  0  0  0  0  0  0  0
  185.8630  177.4670  145.7380 C   0  0  1  0  0  3  0  0  0  0  0  0
  186.4660  178.1330  144.5420 C   0  0  2  0  0  0  0  0  0  0  0  0
  185.5590  179.3020  144.2360 C   0  0  0  0  0  2  0  0  0  0  0  0
  188.3170  177.0990  145.9320 C   0  0  0  0  0  2  0  0  0  0  0  0
  189.6110  177.6390  146.5440 C   0  0  1  0  0  3  0  0  0  0  0  0
  189.5330  177.6860  147.9390 O   0  0  0  0  0  1  0  0  0  0  0  0
  191.1470  176.7050  146.0080 P   0  0  0  0  0  0  0  0  0  0  0  0
  191.9290  177.9890  145.1410 O   0  0  0  0  0  1  0  0  0  0  0  0
  192.0520  176.9110  147.4760 O   0  0  0  0  0  1  0  0  0  0  0  0
  185.2830  177.2320  134.7070 C   0  0  0  0  0  2  0  0  0  0  0  0
  183.9340  176.5670  134.9300 C   0  0  0  0  0  2  0  0  0  0  0  0
  182.9370  177.5570  135.5200 C   0  0  0  0  0  2  0  0  0  0  0  0
  182.4230  177.1330  136.8980 C   0  0  1  0  0  3  0  0  0  0  0  0
  181.9130  175.6820  136.8880 C   0  0  2  0  0  3  0  0  0  0  0  0
  180.3920  175.6360  137.0330 C   0  0  0  0  0  3  0  0  0  0  0  0
  179.9030  176.9130  137.3050 O   0  0  0  0  0  1  0  0  0  0  0  0
  179.8020  175.1650  135.8580 O   0  0  0  0  0  1  0  0  0  0  0  0
  182.6080  174.8210  137.9430 C   0  0  0  0  0  2  0  0  0  0  0  0
  183.6650  174.1170  137.3680 O   0  0  0  0  0  1  0  0  0  0  0  0
  183.4190  177.4260  138.0330 C   0  0  0  0  0  2  0  0  0  0  0  0
  182.9430  178.4600  139.0740 C   0  0  2  0  0  3  0  0  0  0  0  0
  183.9340  179.5660  139.4200 C   0  0  2  0  0  3  0  0  0  0  0  0
  185.2120  179.3170  138.9090 O   0  0  0  0  0  1  0  0  0  0  0  0
  183.8390  179.0040  140.8230 C   0  0  0  0  0  2  0  0  0  0  0  0
  182.9250  177.9340  140.4340 N   0  0  0  0  0  0  0  0  0  0  0  0
  180.6850  177.3170  140.5670 O   0  0  0  0  0  1  0  0  0  0  0  0
  181.6260  178.2470  141.0080 C   0  0  0  0  0  2  0  0  0  0  0  0
  1  8  1  0  0  0  0
  2 10  1  1  0  0  0
  2  7  1  0  0  0  0
  2  5  1  0  0  0  0
  3 11  1  6  0  0  0
  3  2  1  0  0  0  0
  3  5  1  0  0  0  0
  4 32  1  6  0  0  0
  4 10  1  0  0  0  0
  5  9  1  1  0  0  0
  6  4  1  0  0  0  0
  6  3  1  0  0  0  0
  7  1  1  0  0  0  0
  8 14  1  6  0  0  0
  9  8  1  0  0  0  0
 11 12  1  0  0  0  0
 13 14  2  0  0  0  0
 14 17  1  0  0  0  0
 17 18  1  0  0  0  0
 17 15  2  0  0  0  0
 17 16  2  0  0  0  0
 18 19  1  0  0  0  0
 20 26  1  6  0  0  0
 22 21  1  0  0  0  0
 23 20  1  0  0  0  0
 23 21  1  1  0  0  0
 24 19  1  6  0  0  0
 24 23  1  0  0  0  0
 24 20  1  0  0  0  0
 25 24  1  0  0  0  0
 25 22  1  0  0  0  0
 26 27  1  0  0  0  0
 27 28  1  1  0  0  0
 29 27  1  0  0  0  0
 29 31  1  0  0  0  0
 30 29  1  0  0  0  0
 32 33  1  0  0  0  0
 33 34  1  0  0  0  0
 35 34  1  6  0  0  0
 35 42  1  0  0  0  0
 36 35  1  0  0  0  0
 36 37  1  0  0  0  0
 36 40  1  1  0  0  0
 37 38  1  0  0  0  0
 39 37  1  0  0  0  0
 41 40  1  0  0  0  0
 43 42  1  6  0  0  0
 43 44  1  0  0  0  0
 43 47  1  0  0  0  0
 44 45  1  6  0  0  0
 44 46  1  0  0  0  0
 47 46  1  0  0  0  0
 47 49  1  0  0  0  0
 48 49  1  0  0  0  0
M  END
>  <MODEL>
2

>  <REMARK>
 VINA RESULT:      -6.5      2.700      7.850
  Name = 
  19 active torsions:
  status: ('A' for Active; 'I' for Inactive)
    1  A    between atoms: C_3  and  C_43
    2  A    between atoms: C_4  and  C_8
    3  A    between atoms: P_5  and  C_25
    4  A    between atoms: C_6  and  C_21
    5  A    between atoms: C_9  and  C_27
    6  A    between atoms: C_14  and  C_43
    7  A    between atoms: C_17  and  C_30
    8  A    between atoms: C_17  and  C_39
    9  A    between atoms: C_17  and  C_43
   10  A    between atoms: N_20  and  C_33
   11  A    between atoms: N_20  and  S_45
   12  A    between atoms: C_21  and  C_25
   13  A    between atoms: C_23  and  C_27
   14  A    between atoms: C_23  and  C_30
   15  A    between atoms: C_24  and  C_39
   16  A    between atoms: C_28  and  C_40
   17  A    between atoms: C_33  and  C_46
   18  A    between atoms: C_40  and  S_45
   19  A    between atoms: C_41  and  N_47
                            x       y       z     vdW  Elec       q    Type
                         _______ _______ _______ _____ _____    ______ ____

>  <TORSDO>
F 19

$$$$
=
 OpenBabel11062411003D

 49 54  0  0  1  0  0  0  0  0999 V2000
  188.8390  179.1180  138.5410 C   0  0  0  0  0  2  0  0  0  0  0  0
  188.6160  177.7870  136.4410 C   0  0  1  0  0  0  0  0  0  0  0  0
  188.8480  176.4210  135.8420 C   0  0  1  0  0  0  0  0  0  0  0  0
  186.4360  176.7770  135.8870 C   0  0  1  0  0  3  0  0  0  0  0  0
  189.0900  176.5770  137.3100 C   0  0  2  0  0  3  0  0  0  0  0  0
  187.5210  175.8630  135.3530 C   0  0  0  0  0  2  0  0  0  0  0  0
  189.4370  178.8680  137.1300 C   0  0  0  0  0  2  0  0  0  0  0  0
  188.5590  177.8180  139.3570 C   0  0  1  0  0  3  0  0  0  0  0  0
  188.1340  176.6060  138.4930 C   0  0  0  0  0  2  0  0  0  0  0  0
  187.1110  178.0730  136.3110 C   0  0  0  0  0  2  0  0  0  0  0  0
  190.0660  176.3610  134.9420 C   0  0  0  0  0  2  0  0  0  0  0  0
  191.1500  175.8380  135.6470 O   0  0  0  0  0  1  0  0  0  0  0  0
  190.7630  177.1940  139.8760 O   0  0  0  0  0  0  0  0  0  0  0  0
  189.6540  177.4420  140.3220 C   0  0  0  0  0  0  0  0  0  0  0  0
  188.1280  178.0410  142.4480 O   0  0  0  0  0  0  0  0  0  0  0  0
  189.3010  175.8840  142.4630 O   0  0  0  0  0  0  0  0  0  0  0  0
  189.3950  177.3290  142.0660 S   0  0  0  0  0  0  0  0  0  0  0  0
  190.7350  178.0480  142.8960 N   0  0  0  0  0  2  0  0  0  0  0  0
  190.2730  178.4580  144.2140 C   0  0  0  0  0  2  0  0  0  0  0  0
  189.1290  176.8430  146.0100 C   0  0  2  0  0  3  0  0  0  0  0  0
  191.2470  176.8870  147.3040 C   0  0  0  0  0  2  0  0  0  0  0  0
  192.1870  176.4170  146.3720 O   0  0  0  0  0  0  0  0  0  0  0  0
  190.2180  177.7320  146.5900 C   0  0  1  0  0  3  0  0  0  0  0  0
  190.3260  177.2750  145.1700 C   0  0  2  0  0  0  0  0  0  0  0  0
  191.5230  176.3540  145.1360 C   0  0  0  0  0  2  0  0  0  0  0  0
  187.8850  177.6800  145.7240 C   0  0  0  0  0  2  0  0  0  0  0  0
  186.8240  177.5480  146.8180 C   0  0  1  0  0  3  0  0  0  0  0  0
  187.3460  177.8730  148.0730 O   0  0  0  0  0  1  0  0  0  0  0  0
  185.2660  178.5380  146.4830 P   0  0  0  0  0  0  0  0  0  0  0  0
  185.7330  180.0110  147.2730 O   0  0  0  0  0  1  0  0  0  0  0  0
  185.6810  179.0620  144.8800 O   0  0  0  0  0  1  0  0  0  0  0  0
  185.3630  177.0210  134.8370 C   0  0  0  0  0  2  0  0  0  0  0  0
  183.9740  176.8410  135.4300 C   0  0  0  0  0  2  0  0  0  0  0  0
  184.0320  175.9760  136.6830 C   0  0  0  0  0  2  0  0  0  0  0  0
  183.0020  174.8440  136.6720 C   0  0  1  0  0  3  0  0  0  0  0  0
  183.6240  173.5100  137.1150 C   0  0  2  0  0  3  0  0  0  0  0  0
  185.1480  173.5540  137.0070 C   0  0  0  0  0  3  0  0  0  0  0  0
  185.7200  172.9530  138.1280 O   0  0  0  0  0  1  0  0  0  0  0  0
  185.5790  172.8820  135.8620 O   0  0  0  0  0  1  0  0  0  0  0  0
  183.0380  172.3200  136.3530 C   0  0  0  0  0  2  0  0  0  0  0  0
  183.0090  171.1930  137.1720 O   0  0  0  0  0  1  0  0  0  0  0  0
  181.7060  175.1970  137.4230 C   0  0  0  0  0  2  0  0  0  0  0  0
  181.7670  176.4860  138.2680 C   0  0  2  0  0  3  0  0  0  0  0  0
  181.1900  176.3910  139.6760 C   0  0  2  0  0  3  0  0  0  0  0  0
  180.4770  175.2060  139.8820 O   0  0  0  0  0  1  0  0  0  0  0  0
  180.2400  177.4680  139.1960 C   0  0  0  0  0  2  0  0  0  0  0  0
  180.7990  177.4910  137.8470 N   0  0  0  0  0  0  0  0  0  0  0  0
  181.4650  179.1550  136.3630 O   0  0  0  0  0  1  0  0  0  0  0  0
  181.5090  178.7510  137.6970 C   0  0  0  0  0  2  0  0  0  0  0  0
  1  8  1  0  0  0  0
  2 10  1  1  0  0  0
  2  7  1  0  0  0  0
  2  5  1  0  0  0  0
  3 11  1  6  0  0  0
  3  2  1  0  0  0  0
  3  5  1  0  0  0  0
  4 32  1  6  0  0  0
  4 10  1  0  0  0  0
  5  9  1  1  0  0  0
  6  3  1  0  0  0  0
  6  4  1  0  0  0  0
  7  1  1  0  0  0  0
  8 14  1  6  0  0  0
  9  8  1  0  0  0  0
 11 12  1  0  0  0  0
 13 14  2  0  0  0  0
 14 17  1  0  0  0  0
 17 15  2  0  0  0  0
 17 16  2  0  0  0  0
 17 18  1  0  0  0  0
 18 19  1  0  0  0  0
 20 26  1  6  0  0  0
 20 23  1  0  0  0  0
 22 21  1  0  0  0  0
 23 21  1  1  0  0  0
 24 19  1  6  0  0  0
 24 20  1  0  0  0  0
 24 23  1  0  0  0  0
 25 24  1  0  0  0  0
 25 22  1  0  0  0  0
 26 27  1  0  0  0  0
 27 28  1  1  0  0  0
 29 27  1  0  0  0  0
 29 30  1  0  0  0  0
 31 29  1  0  0  0  0
 32 33  1  0  0  0  0
 33 34  1  0  0  0  0
 35 34  1  1  0  0  0
 35 36  1  0  0  0  0
 35 42  1  0  0  0  0
 36 40  1  6  0  0  0
 37 36  1  0  0  0  0
 37 38  1  0  0  0  0
 39 37  1  0  0  0  0
 40 41  1  0  0  0  0
 43 42  1  6  0  0  0
 43 44  1  0  0  0  0
 44 45  1  6  0  0  0
 46 44  1  0  0  0  0
 47 43  1  0  0  0  0
 47 46  1  0  0  0  0
 48 49  1  0  0  0  0
 49 47  1  0  0  0  0
M  END
>  <MODEL>
3

>  <REMARK>
 VINA RESULT:      -6.3      3.370      8.526
  Name = 
  19 active torsions:
  status: ('A' for Active; 'I' for Inactive)
    1  A    between atoms: C_3  and  C_43
    2  A    between atoms: C_4  and  C_8
    3  A    between atoms: P_5  and  C_25
    4  A    between atoms: C_6  and  C_21
    5  A    between atoms: C_9  and  C_27
    6  A    between atoms: C_14  and  C_43
    7  A    between atoms: C_17  and  C_30
    8  A    between atoms: C_17  and  C_39
    9  A    between atoms: C_17  and  C_43
   10  A    between atoms: N_20  and  C_33
   11  A    between atoms: N_20  and  S_45
   12  A    between atoms: C_21  and  C_25
   13  A    between atoms: C_23  and  C_27
   14  A    between atoms: C_23  and  C_30
   15  A    between atoms: C_24  and  C_39
   16  A    between atoms: C_28  and  C_40
   17  A    between atoms: C_33  and  C_46
   18  A    between atoms: C_40  and  S_45
   19  A    between atoms: C_41  and  N_47
                            x       y       z     vdW  Elec       q    Type
                         _______ _______ _______ _____ _____    ______ ____

>  <TORSDO>
F 19

$$$$
=
 OpenBabel11062411003D

 49 54  0  0  1  0  0  0  0  0999 V2000
  189.1010  178.9650  137.6220 C   0  0  0  0  0  2  0  0  0  0  0  0
  188.2720  177.2300  136.0300 C   0  0  1  0  0  0  0  0  0  0  0  0
  188.0750  175.7440  135.8520 C   0  0  1  0  0  0  0  0  0  0  0  0
  185.8560  176.7490  135.9330 C   0  0  1  0  0  3  0  0  0  0  0  0
  188.5470  176.2190  137.1900 C   0  0  2  0  0  3  0  0  0  0  0  0
  186.5980  175.4620  135.6310 C   0  0  0  0  0  2  0  0  0  0  0  0
  189.4210  178.1870  136.3160 C   0  0  0  0  0  2  0  0  0  0  0  0
  188.6240  178.0640  138.8030 C   0  0  1  0  0  3  0  0  0  0  0  0
  187.8000  176.8300  138.3660 C   0  0  0  0  0  2  0  0  0  0  0  0
  186.8810  177.8730  135.9110 C   0  0  0  0  0  2  0  0  0  0  0  0
  189.1070  175.1090  134.9400 C   0  0  0  0  0  2  0  0  0  0  0  0
  189.9470  174.2780  135.6820 O   0  0  0  0  0  1  0  0  0  0  0  0
  190.8300  177.4510  139.3290 O   0  0  0  0  0  0  0  0  0  0  0  0
  189.7140  177.6770  139.7690 C   0  0  0  0  0  0  0  0  0  0  0  0
  188.4440  178.5440  141.9690 O   0  0  0  0  0  0  0  0  0  0  0  0
  188.9210  176.1420  141.8070 O   0  0  0  0  0  0  0  0  0  0  0  0
  189.4400  177.5190  141.5070 S   0  0  0  0  0  0  0  0  0  0  0  0
  190.9360  177.7460  142.3510 N   0  0  0  0  0  2  0  0  0  0  0  0
  190.6250  178.2610  143.6760 C   0  0  0  0  0  2  0  0  0  0  0  0
  189.2970  177.0280  145.6410 C   0  0  2  0  0  3  0  0  0  0  0  0
  191.4820  176.4520  146.6690 C   0  0  0  0  0  2  0  0  0  0  0  0
  192.1260  175.7390  145.6440 O   0  0  0  0  0  0  0  0  0  0  0  0
  190.6580  177.5620  146.0610 C   0  0  1  0  0  3  0  0  0  0  0  0
  190.4540  177.1050  144.6510 C   0  0  2  0  0  0  0  0  0  0  0  0
  191.3240  175.8790  144.4990 C   0  0  0  0  0  2  0  0  0  0  0  0
  188.3190  178.1900  145.4830 C   0  0  0  0  0  2  0  0  0  0  0  0
  187.0250  177.9790  146.2720 C   0  0  1  0  0  3  0  0  0  0  0  0
  187.2160  178.2220  147.6350 O   0  0  0  0  0  1  0  0  0  0  0  0
  185.5770  178.9810  145.6270 P   0  0  0  0  0  0  0  0  0  0  0  0
  185.2380  178.0430  144.2070 O   0  0  0  0  0  1  0  0  0  0  0  0
  184.3480  178.2510  146.6130 O   0  0  0  0  0  1  0  0  0  0  0  0
  184.7420  176.9850  134.9240 C   0  0  0  0  0  2  0  0  0  0  0  0
  183.4350  176.3760  135.4060 C   0  0  0  0  0  2  0  0  0  0  0  0
  182.3300  177.4240  135.4300 C   0  0  0  0  0  2  0  0  0  0  0  0
  181.8380  177.7370  136.8450 C   0  0  1  0  0  3  0  0  0  0  0  0
  180.6340  176.8640  137.2310 C   0  0  2  0  0  3  0  0  0  0  0  0
  181.0880  175.5890  137.9410 C   0  0  0  0  0  3  0  0  0  0  0  0
  180.3780  175.4290  139.1300 O   0  0  0  0  0  1  0  0  0  0  0  0
  180.8730  174.4720  137.1310 O   0  0  0  0  0  1  0  0  0  0  0  0
  179.7390  176.5530  136.0300 C   0  0  0  0  0  2  0  0  0  0  0  0
  179.0320  177.6930  135.6520 O   0  0  0  0  0  1  0  0  0  0  0  0
  182.9650  177.7280  137.8930 C   0  0  0  0  0  2  0  0  0  0  0  0
  182.8120  178.7570  139.0310 C   0  0  2  0  0  3  0  0  0  0  0  0
  184.0460  179.5980  139.3420 C   0  0  2  0  0  3  0  0  0  0  0  0
  185.1920  179.1230  138.6980 O   0  0  0  0  0  1  0  0  0  0  0  0
  183.9440  178.9650  140.7140 C   0  0  0  0  0  2  0  0  0  0  0  0
  182.7900  178.1470  140.3550 N   0  0  0  0  0  0  0  0  0  0  0  0
  181.9070  178.6940  142.4370 O   0  0  0  0  0  1  0  0  0  0  0  0
  181.6420  178.6840  141.0680 C   0  0  0  0  0  2  0  0  0  0  0  0
  1  8  1  0  0  0  0
  2 10  1  1  0  0  0
  2  7  1  0  0  0  0
  2  5  1  0  0  0  0
  3 11  1  6  0  0  0
  3  2  1  0  0  0  0
  3  5  1  0  0  0  0
  4 32  1  6  0  0  0
  5  9  1  1  0  0  0
  6  3  1  0  0  0  0
  6  4  1  0  0  0  0
  7  1  1  0  0  0  0
  8 14  1  6  0  0  0
  9  8  1  0  0  0  0
 10  4  1  0  0  0  0
 11 12  1  0  0  0  0
 13 14  2  0  0  0  0
 14 17  1  0  0  0  0
 17 16  2  0  0  0  0
 17 15  2  0  0  0  0
 17 18  1  0  0  0  0
 18 19  1  0  0  0  0
 20 26  1  6  0  0  0
 20 23  1  0  0  0  0
 22 21  1  0  0  0  0
 23 21  1  1  0  0  0
 24 19  1  6  0  0  0
 24 20  1  0  0  0  0
 24 23  1  0  0  0  0
 25 24  1  0  0  0  0
 25 22  1  0  0  0  0
 26 27  1  0  0  0  0
 27 28  1  1  0  0  0
 29 27  1  0  0  0  0
 29 31  1  0  0  0  0
 30 29  1  0  0  0  0
 32 33  1  0  0  0  0
 33 34  1  0  0  0  0
 35 34  1  6  0  0  0
 35 36  1  0  0  0  0
 35 42  1  0  0  0  0
 36 40  1  6  0  0  0
 36 37  1  0  0  0  0
 37 38  1  0  0  0  0
 39 37  1  0  0  0  0
 41 40  1  0  0  0  0
 43 42  1  6  0  0  0
 43 44  1  0  0  0  0
 43 47  1  0  0  0  0
 44 45  1  6  0  0  0
 44 46  1  0  0  0  0
 47 46  1  0  0  0  0
 47 49  1  0  0  0  0
 49 48  1  0  0  0  0
M  END
>  <MODEL>
4

>  <REMARK>
 VINA RESULT:      -6.1      2.967      7.819
  Name = 
  19 active torsions:
  status: ('A' for Active; 'I' for Inactive)
    1  A    between atoms: C_3  and  C_43
    2  A    between atoms: C_4  and  C_8
    3  A    between atoms: P_5  and  C_25
    4  A    between atoms: C_6  and  C_21
    5  A    between atoms: C_9  and  C_27
    6  A    between atoms: C_14  and  C_43
    7  A    between atoms: C_17  and  C_30
    8  A    between atoms: C_17  and  C_39
    9  A    between atoms: C_17  and  C_43
   10  A    between atoms: N_20  and  C_33
   11  A    between atoms: N_20  and  S_45
   12  A    between atoms: C_21  and  C_25
   13  A    between atoms: C_23  and  C_27
   14  A    between atoms: C_23  and  C_30
   15  A    between atoms: C_24  and  C_39
   16  A    between atoms: C_28  and  C_40
   17  A    between atoms: C_33  and  C_46
   18  A    between atoms: C_40  and  S_45
   19  A    between atoms: C_41  and  N_47
                            x       y       z     vdW  Elec       q    Type
                         _______ _______ _______ _____ _____    ______ ____

>  <TORSDO>
F 19

$$$$
=
 OpenBabel11062411003D

 49 54  0  0  1  0  0  0  0  0999 V2000
  188.8660  178.6370  139.3850 C   0  0  0  0  0  2  0  0  0  0  0  0
  189.1430  177.5150  137.1710 C   0  0  1  0  0  0  0  0  0  0  0  0
  189.7910  176.3390  136.4810 C   0  0  1  0  0  0  0  0  0  0  0  0
  187.3810  175.9870  136.3730 C   0  0  1  0  0  3  0  0  0  0  0  0
  189.9050  176.4100  137.9710 C   0  0  2  0  0  3  0  0  0  0  0  0
  188.7100  175.4780  135.8490 C   0  0  0  0  0  2  0  0  0  0  0  0
  189.5800  178.7110  138.0070 C   0  0  0  0  0  2  0  0  0  0  0  0
  188.9370  177.2360  140.0670 C   0  0  1  0  0  3  0  0  0  0  0  0
  188.9260  176.0470  139.0770 C   0  0  0  0  0  2  0  0  0  0  0  0
  187.6280  177.3720  136.9510 C   0  0  0  0  0  2  0  0  0  0  0  0
  191.0170  176.7200  135.6750 C   0  0  0  0  0  2  0  0  0  0  0  0
  191.9360  175.6700  135.6860 O   0  0  0  0  0  1  0  0  0  0  0  0
  191.1690  177.4570  140.7670 O   0  0  0  0  0  0  0  0  0  0  0  0
  190.0460  177.0930  141.0780 C   0  0  0  0  0  0  0  0  0  0  0  0
  188.3210  176.2590  142.9590 O   0  0  0  0  0  0  0  0  0  0  0  0
  190.4540  175.0600  142.7630 O   0  0  0  0  0  0  0  0  0  0  0  0
  189.7910  176.4050  142.6860 S   0  0  0  0  0  0  0  0  0  0  0  0
  190.5010  177.4440  143.8770 N   0  0  0  0  0  2  0  0  0  0  0  0
  189.4330  178.2370  144.4660 C   0  0  0  0  0  2  0  0  0  0  0  0
  187.4490  177.5910  146.1370 C   0  0  2  0  0  3  0  0  0  0  0  0
  188.9940  178.0140  148.0340 C   0  0  0  0  0  2  0  0  0  0  0  0
  190.0570  177.1370  147.7660 O   0  0  0  0  0  0  0  0  0  0  0  0
  188.4600  178.5600  146.7300 C   0  0  1  0  0  3  0  0  0  0  0  0
  188.9160  177.5530  145.7240 C   0  0  2  0  0  0  0  0  0  0  0  0
  189.8290  176.6170  146.4810 C   0  0  0  0  0  2  0  0  0  0  0  0
  186.5770  178.3220  145.1190 C   0  0  0  0  0  2  0  0  0  0  0  0
  185.1160  178.4220  145.5620 C   0  0  1  0  0  3  0  0  0  0  0  0
  185.0170  178.8080  146.9010 O   0  0  0  0  0  1  0  0  0  0  0  0
  184.0750  179.5460  144.4800 P   0  0  0  0  0  0  0  0  0  0  0  0
  184.9680  179.3660  143.0030 O   0  0  0  0  0  1  0  0  0  0  0  0
  182.8440  178.3870  144.0800 O   0  0  0  0  0  1  0  0  0  0  0  0
  186.3360  176.0190  135.2680 C   0  0  0  0  0  2  0  0  0  0  0  0
  185.3660  177.1710  135.4730 C   0  0  0  0  0  2  0  0  0  0  0  0
  183.9570  176.7700  135.0510 C   0  0  0  0  0  2  0  0  0  0  0  0
  182.9090  177.0630  136.1260 C   0  0  1  0  0  3  0  0  0  0  0  0
  181.8230  175.9750  136.1670 C   0  0  2  0  0  3  0  0  0  0  0  0
  180.4430  176.5700  135.8860 C   0  0  0  0  0  3  0  0  0  0  0  0
  179.7140  175.7100  135.0650 O   0  0  0  0  0  1  0  0  0  0  0  0
  179.7410  176.7630  137.0780 O   0  0  0  0  0  1  0  0  0  0  0  0
  181.8430  175.1890  137.4780 C   0  0  0  0  0  2  0  0  0  0  0  0
  182.4240  173.9370  137.2770 O   0  0  0  0  0  1  0  0  0  0  0  0
  183.5230  177.3680  137.5040 C   0  0  0  0  0  2  0  0  0  0  0  0
  182.9440  178.6040  138.2220 C   0  0  2  0  0  3  0  0  0  0  0  0
  183.9490  179.4800  138.9620 C   0  0  2  0  0  3  0  0  0  0  0  0
  185.2060  178.8770  139.0670 O   0  0  0  0  0  1  0  0  0  0  0  0
  183.1240  179.1320  140.1830 C   0  0  0  0  0  2  0  0  0  0  0  0
  182.2130  178.2680  139.4380 N   0  0  0  0  0  0  0  0  0  0  0  0
  179.9880  178.2250  140.1170 O   0  0  0  0  0  1  0  0  0  0  0  0
  180.9280  178.9450  139.3800 C   0  0  0  0  0  2  0  0  0  0  0  0
  1  8  1  0  0  0  0
  2 10  1  1  0  0  0
  2  5  1  0  0  0  0
  2  7  1  0  0  0  0
  3 11  1  6  0  0  0
  3  2  1  0  0  0  0
  3  5  1  0  0  0  0
  4 32  1  6  0  0  0
  4 10  1  0  0  0  0
  5  9  1  1  0  0  0
  6  4  1  0  0  0  0
  6  3  1  0  0  0  0
  7  1  1  0  0  0  0
  8 14  1  6  0  0  0
  9  8  1  0  0  0  0
 11 12  1  0  0  0  0
 13 14  2  0  0  0  0
 14 17  1  0  0  0  0
 17 16  2  0  0  0  0
 17 15  2  0  0  0  0
 17 18  1  0  0  0  0
 18 19  1  0  0  0  0
 20 26  1  6  0  0  0
 20 23  1  0  0  0  0
 22 21  1  0  0  0  0
 23 21  1  1  0  0  0
 24 19  1  6  0  0  0
 24 20  1  0  0  0  0
 24 25  1  0  0  0  0
 24 23  1  0  0  0  0
 25 22  1  0  0  0  0
 26 27  1  0  0  0  0
 27 28  1  1  0  0  0
 29 27  1  0  0  0  0
 30 29  1  0  0  0  0
 31 29  1  0  0  0  0
 32 33  1  0  0  0  0
 34 33  1  0  0  0  0
 35 34  1  6  0  0  0
 35 36  1  0  0  0  0
 35 42  1  0  0  0  0
 36 40  1  1  0  0  0
 37 36  1  0  0  0  0
 37 39  1  0  0  0  0
 38 37  1  0  0  0  0
 41 40  1  0  0  0  0
 43 42  1  1  0  0  0
 43 44  1  0  0  0  0
 43 47  1  0  0  0  0
 44 45  1  1  0  0  0
 44 46  1  0  0  0  0
 47 46  1  0  0  0  0
 49 47  1  0  0  0  0
 49 48  1  0  0  0  0
M  END
>  <MODEL>
5

>  <REMARK>
 VINA RESULT:      -5.9      2.882      7.910
  Name = 
  19 active torsions:
  status: ('A' for Active; 'I' for Inactive)
    1  A    between atoms: C_3  and  C_43
    2  A    between atoms: C_4  and  C_8
    3  A    between atoms: P_5  and  C_25
    4  A    between atoms: C_6  and  C_21
    5  A    between atoms: C_9  and  C_27
    6  A    between atoms: C_14  and  C_43
    7  A    between atoms: C_17  and  C_30
    8  A    between atoms: C_17  and  C_39
    9  A    between atoms: C_17  and  C_43
   10  A    between atoms: N_20  and  C_33
   11  A    between atoms: N_20  and  S_45
   12  A    between atoms: C_21  and  C_25
   13  A    between atoms: C_23  and  C_27
   14  A    between atoms: C_23  and  C_30
   15  A    between atoms: C_24  and  C_39
   16  A    between atoms: C_28  and  C_40
   17  A    between atoms: C_33  and  C_46
   18  A    between atoms: C_40  and  S_45
   19  A    between atoms: C_41  and  N_47
                            x       y       z     vdW  Elec       q    Type
                         _______ _______ _______ _____ _____    ______ ____

>  <TORSDO>
F 19

$$$$
=
 OpenBabel11062411003D

 49 54  0  0  1  0  0  0  0  0999 V2000
  188.1550  176.5300  143.0730 C   0  0  0  0  0  2  0  0  0  0  0  0
  186.9070  177.1860  145.1340 C   0  0  1  0  0  0  0  0  0  0  0  0
  186.9320  178.1200  146.3200 C   0  0  1  0  0  0  0  0  0  0  0  0
  185.0270  178.7680  144.9450 C   0  0  1  0  0  3  0  0  0  0  0  0
  187.9900  178.3050  145.2780 C   0  0  2  0  0  3  0  0  0  0  0  0
  185.6860  178.9910  146.2920 C   0  0  0  0  0  2  0  0  0  0  0  0
  187.8010  176.1130  144.5270 C   0  0  0  0  0  2  0  0  0  0  0  0
  188.6310  178.0090  142.9300 C   0  0  1  0  0  3  0  0  0  0  0  0
  187.9600  178.9900  143.9200 C   0  0  0  0  0  2  0  0  0  0  0  0
  185.6120  177.4900  144.3640 C   0  0  0  0  0  2  0  0  0  0  0  0
  187.3440  177.4380  147.6100 C   0  0  0  0  0  2  0  0  0  0  0  0
  188.0660  178.3280  148.4060 O   0  0  0  0  0  1  0  0  0  0  0  0
  190.6100  179.1200  143.5360 O   0  0  0  0  0  0  0  0  0  0  0  0
  190.1280  178.1820  142.9220 C   0  0  0  0  0  0  0  0  0  0  0  0
  192.3900  177.8580  141.5120 O   0  0  0  0  0  0  0  0  0  0  0  0
  191.6910  176.0160  142.9770 O   0  0  0  0  0  0  0  0  0  0  0  0
  191.2120  177.0940  142.0480 S   0  0  0  0  0  0  0  0  0  0  0  0
  190.3550  176.3580  140.7350 N   0  0  0  0  0  2  0  0  0  0  0  0
  190.4440  177.2520  139.5900 C   0  0  0  0  0  2  0  0  0  0  0  0
  190.5130  175.6490  137.4530 C   0  0  2  0  0  3  0  0  0  0  0  0
  189.1680  177.3360  136.2240 C   0  0  0  0  0  2  0  0  0  0  0  0
  188.0210  177.4580  137.0260 O   0  0  0  0  0  0  0  0  0  0  0  0
  190.3740  177.1240  137.1090 C   0  0  1  0  0  3  0  0  0  0  0  0
  189.7790  176.6100  138.3820 C   0  0  2  0  0  0  0  0  0  0  0  0
  188.2840  176.7440  138.2060 C   0  0  0  0  0  2  0  0  0  0  0  0
  191.9390  175.3660  137.9180 C   0  0  0  0  0  2  0  0  0  0  0  0
  192.9880  176.0790  137.0630 C   0  0  1  0  0  3  0  0  0  0  0  0
  193.6330  177.0860  137.7850 O   0  0  0  0  0  1  0  0  0  0  0  0
  194.2470  174.9210  136.2920 P   0  0  0  0  0  0  0  0  0  0  0  0
  195.5680  176.0390  136.1670 O   0  0  0  0  0  1  0  0  0  0  0  0
  194.7900  174.1760  137.7640 O   0  0  0  0  0  1  0  0  0  0  0  0
  183.5150  178.6790  145.0870 C   0  0  0  0  0  2  0  0  0  0  0  0
  182.8190  179.4350  143.9670 C   0  0  0  0  0  2  0  0  0  0  0  0
  182.9250  178.6690  142.6540 C   0  0  0  0  0  2  0  0  0  0  0  0
  181.5660  178.4430  141.9860 C   0  0  1  0  0  3  0  0  0  0  0  0
  180.5220  179.4610  142.4740 C   0  0  2  0  0  3  0  0  0  0  0  0
  179.4240  178.7720  143.2840 C   0  0  0  0  0  3  0  0  0  0  0  0
  179.8520  177.5060  143.6810 O   0  0  0  0  0  1  0  0  0  0  0  0
  179.1090  179.5210  144.4190 O   0  0  0  0  0  1  0  0  0  0  0  0
  179.9430  180.2870  141.3240 C   0  0  0  0  0  2  0  0  0  0  0  0
  179.4500  181.4990  141.8050 O   0  0  0  0  0  1  0  0  0  0  0  0
  181.6540  178.3400  140.4530 C   0  0  0  0  0  2  0  0  0  0  0  0
  182.8910  177.5930  139.9150 C   0  0  2  0  0  3  0  0  0  0  0  0
  184.0540  178.4660  139.4590 C   0  0  2  0  0  3  0  0  0  0  0  0
  183.7070  179.8180  139.3790 O   0  0  0  0  0  1  0  0  0  0  0  0
  183.8210  177.8110  138.1140 C   0  0  0  0  0  2  0  0  0  0  0  0
  182.6840  177.0270  138.5880 N   0  0  0  0  0  0  0  0  0  0  0  0
  182.1160  174.8290  138.0750 O   0  0  0  0  0  1  0  0  0  0  0  0
  183.1080  175.6360  138.6320 C   0  0  0  0  0  2  0  0  0  0  0  0
  1  7  1  0  0  0  0
  2 10  1  6  0  0  0
  2  5  1  0  0  0  0
  2  3  1  0  0  0  0
  3 11  1  1  0  0  0
  4 32  1  1  0  0  0
  4  6  1  0  0  0  0
  5  9  1  6  0  0  0
  5  3  1  0  0  0  0
  6  3  1  0  0  0  0
  7  2  1  0  0  0  0
  8 14  1  1  0  0  0
  8  1  1  0  0  0  0
  8  9  1  0  0  0  0
 10  4  1  0  0  0  0
 11 12  1  0  0  0  0
 14 13  2  0  0  0  0
 15 17  2  0  0  0  0
 17 14  1  0  0  0  0
 17 16  2  0  0  0  0
 18 17  1  0  0  0  0
 19 18  1  0  0  0  0
 20 26  1  1  0  0  0
 20 24  1  0  0  0  0
 21 22  1  0  0  0  0
 22 25  1  0  0  0  0
 23 21  1  6  0  0  0
 23 20  1  0  0  0  0
 23 24  1  0  0  0  0
 24 19  1  1  0  0  0
 25 24  1  0  0  0  0
 27 28  1  1  0  0  0
 27 26  1  0  0  0  0
 29 27  1  0  0  0  0
 29 31  1  0  0  0  0
 30 29  1  0  0  0  0
 33 32  1  0  0  0  0
 34 33  1  0  0  0  0
 35 42  1  6  0  0  0
 35 36  1  0  0  0  0
 35 34  1  0  0  0  0
 36 40  1  6  0  0  0
 36 37  1  0  0  0  0
 37 38  1  0  0  0  0
 37 39  1  0  0  0  0
 40 41  1  0  0  0  0
 43 42  1  6  0  0  0
 44 45  1  6  0  0  0
 44 43  1  0  0  0  0
 46 47  1  0  0  0  0
 46 44  1  0  0  0  0
 47 49  1  0  0  0  0
 47 43  1  0  0  0  0
 48 49  1  0  0  0  0
M  END
>  <MODEL>
6

>  <REMARK>
 VINA RESULT:      -5.9      1.971      2.652
  Name = 
  19 active torsions:
  status: ('A' for Active; 'I' for Inactive)
    1  A    between atoms: C_3  and  C_43
    2  A    between atoms: C_4  and  C_8
    3  A    between atoms: P_5  and  C_25
    4  A    between atoms: C_6  and  C_21
    5  A    between atoms: C_9  and  C_27
    6  A    between atoms: C_14  and  C_43
    7  A    between atoms: C_17  and  C_30
    8  A    between atoms: C_17  and  C_39
    9  A    between atoms: C_17  and  C_43
   10  A    between atoms: N_20  and  C_33
   11  A    between atoms: N_20  and  S_45
   12  A    between atoms: C_21  and  C_25
   13  A    between atoms: C_23  and  C_27
   14  A    between atoms: C_23  and  C_30
   15  A    between atoms: C_24  and  C_39
   16  A    between atoms: C_28  and  C_40
   17  A    between atoms: C_33  and  C_46
   18  A    between atoms: C_40  and  S_45
   19  A    between atoms: C_41  and  N_47
                            x       y       z     vdW  Elec       q    Type
                         _______ _______ _______ _____ _____    ______ ____

>  <TORSDO>
F 19

$$$$
=
 OpenBabel11062411003D

 49 54  0  0  1  0  0  0  0  0999 V2000
  188.1070  176.5770  142.8670 C   0  0  0  0  0  2  0  0  0  0  0  0
  186.9420  177.1750  144.9930 C   0  0  1  0  0  0  0  0  0  0  0  0
  187.0690  177.9920  146.2550 C   0  0  1  0  0  0  0  0  0  0  0  0
  185.2370  178.9550  144.9670 C   0  0  1  0  0  3  0  0  0  0  0  0
  188.1360  178.1570  145.2200 C   0  0  2  0  0  3  0  0  0  0  0  0
  185.9210  178.9870  146.3190 C   0  0  0  0  0  2  0  0  0  0  0  0
  187.7160  176.0730  144.2830 C   0  0  0  0  0  2  0  0  0  0  0  0
  188.7350  178.0050  142.8480 C   0  0  1  0  0  3  0  0  0  0  0  0
  188.1740  178.9600  143.9290 C   0  0  0  0  0  2  0  0  0  0  0  0
  185.6830  177.6790  144.2690 C   0  0  0  0  0  2  0  0  0  0  0  0
  187.4110  177.1600  147.4760 C   0  0  0  0  0  2  0  0  0  0  0  0
  188.2220  177.8970  148.3390 O   0  0  0  0  0  1  0  0  0  0  0  0
  190.8180  179.0020  143.2780 O   0  0  0  0  0  0  0  0  0  0  0  0
  190.2420  178.0200  142.8370 C   0  0  0  0  0  0  0  0  0  0  0  0
  192.6340  177.1230  142.0080 O   0  0  0  0  0  0  0  0  0  0  0  0
  191.1580  175.5310  143.1530 O   0  0  0  0  0  0  0  0  0  0  0  0
  191.2080  176.6870  142.1960 S   0  0  0  0  0  0  0  0  0  0  0  0
  190.5540  176.1790  140.6750 N   0  0  0  0  0  2  0  0  0  0  0  0
  190.5990  177.3180  139.7700 C   0  0  0  0  0  2  0  0  0  0  0  0
  190.7250  176.6810  137.1780 C   0  0  2  0  0  3  0  0  0  0  0  0
  192.4830  175.0200  137.7370 C   0  0  0  0  0  2  0  0  0  0  0  0
  193.4650  175.8100  138.3590 O   0  0  0  0  0  0  0  0  0  0  0  0
  191.1160  175.5440  138.1090 C   0  0  1  0  0  3  0  0  0  0  0  0
  191.3900  176.9550  138.5220 C   0  0  2  0  0  0  0  0  0  0  0  0
  192.8950  177.0800  138.5430 C   0  0  0  0  0  2  0  0  0  0  0  0
  189.2120  176.8820  137.2260 C   0  0  0  0  0  2  0  0  0  0  0  0
  188.4990  176.2550  136.0270 C   0  0  1  0  0  3  0  0  0  0  0  0
  188.4940  174.8600  136.1110 O   0  0  0  0  0  1  0  0  0  0  0  0
  186.7560  176.8980  135.7640 P   0  0  0  0  0  0  0  0  0  0  0  0
  186.0860  176.4320  137.2960 O   0  0  0  0  0  1  0  0  0  0  0  0
  187.0630  178.5500  136.2050 O   0  0  0  0  0  1  0  0  0  0  0  0
  183.7240  179.0110  145.1190 C   0  0  0  0  0  2  0  0  0  0  0  0
  183.0660  179.4710  143.8280 C   0  0  0  0  0  2  0  0  0  0  0  0
  181.7210  178.7820  143.6350 C   0  0  0  0  0  2  0  0  0  0  0  0
  181.3560  178.5920  142.1610 C   0  0  1  0  0  3  0  0  0  0  0  0
  179.9630  179.1620  141.8460 C   0  0  2  0  0  3  0  0  0  0  0  0
  179.0600  178.0900  141.2360 C   0  0  0  0  0  3  0  0  0  0  0  0
  179.2750  178.0140  139.8610 O   0  0  0  0  0  1  0  0  0  0  0  0
  179.3240  176.8430  141.8060 O   0  0  0  0  0  1  0  0  0  0  0  0
  180.0370  180.4080  140.9620 C   0  0  0  0  0  2  0  0  0  0  0  0
  179.2230  181.4130  141.4820 O   0  0  0  0  0  1  0  0  0  0  0  0
  182.4520  179.0820  141.1980 C   0  0  0  0  0  2  0  0  0  0  0  0
  183.2300  177.9700  140.4670 C   0  0  2  0  0  3  0  0  0  0  0  0
  184.4320  178.4230  139.6450 C   0  0  2  0  0  3  0  0  0  0  0  0
  184.4840  179.8120  139.4970 O   0  0  0  0  0  1  0  0  0  0  0  0
  183.6700  177.8240  138.4810 C   0  0  0  0  0  2  0  0  0  0  0  0
  182.5240  177.4490  139.3030 N   0  0  0  0  0  0  0  0  0  0  0  0
  181.9520  175.4530  138.2530 O   0  0  0  0  0  1  0  0  0  0  0  0
  182.5210  175.9980  139.4030 C   0  0  0  0  0  2  0  0  0  0  0  0
  1  7  1  0  0  0  0
  2 10  1  6  0  0  0
  2  5  1  0  0  0  0
  2  3  1  0  0  0  0
  3  6  1  0  0  0  0
  3 11  1  1  0  0  0
  4 32  1  1  0  0  0
  4  6  1  0  0  0  0
  5  9  1  6  0  0  0
  5  3  1  0  0  0  0
  7  2  1  0  0  0  0
  8 14  1  1  0  0  0
  8  1  1  0  0  0  0
  8  9  1  0  0  0  0
 10  4  1  0  0  0  0
 11 12  1  0  0  0  0
 14 13  2  0  0  0  0
 15 17  2  0  0  0  0
 17 14  1  0  0  0  0
 17 16  2  0  0  0  0
 18 17  1  0  0  0  0
 19 18  1  0  0  0  0
 20 26  1  1  0  0  0
 20 23  1  0  0  0  0
 20 24  1  0  0  0  0
 21 22  1  0  0  0  0
 22 25  1  0  0  0  0
 23 21  1  6  0  0  0
 23 24  1  0  0  0  0
 24 25  1  0  0  0  0
 24 19  1  1  0  0  0
 27 28  1  1  0  0  0
 27 26  1  0  0  0  0
 29 27  1  0  0  0  0
 29 31  1  0  0  0  0
 29 30  1  0  0  0  0
 33 32  1  0  0  0  0
 34 33  1  0  0  0  0
 35 42  1  6  0  0  0
 35 34  1  0  0  0  0
 36 40  1  6  0  0  0
 36 35  1  0  0  0  0
 37 39  1  0  0  0  0
 37 36  1  0  0  0  0
 38 37  1  0  0  0  0
 40 41  1  0  0  0  0
 43 42  1  6  0  0  0
 44 45  1  6  0  0  0
 44 43  1  0  0  0  0
 46 47  1  0  0  0  0
 46 44  1  0  0  0  0
 47 49  1  0  0  0  0
 47 43  1  0  0  0  0
 48 49  1  0  0  0  0
M  END
>  <MODEL>
7

>  <REMARK>
 VINA RESULT:      -5.8      1.535      2.455
  Name = 
  19 active torsions:
  status: ('A' for Active; 'I' for Inactive)
    1  A    between atoms: C_3  and  C_43
    2  A    between atoms: C_4  and  C_8
    3  A    between atoms: P_5  and  C_25
    4  A    between atoms: C_6  and  C_21
    5  A    between atoms: C_9  and  C_27
    6  A    between atoms: C_14  and  C_43
    7  A    between atoms: C_17  and  C_30
    8  A    between atoms: C_17  and  C_39
    9  A    between atoms: C_17  and  C_43
   10  A    between atoms: N_20  and  C_33
   11  A    between atoms: N_20  and  S_45
   12  A    between atoms: C_21  and  C_25
   13  A    between atoms: C_23  and  C_27
   14  A    between atoms: C_23  and  C_30
   15  A    between atoms: C_24  and  C_39
   16  A    between atoms: C_28  and  C_40
   17  A    between atoms: C_33  and  C_46
   18  A    between atoms: C_40  and  S_45
   19  A    between atoms: C_41  and  N_47
                            x       y       z     vdW  Elec       q    Type
                         _______ _______ _______ _____ _____    ______ ____

>  <TORSDO>
F 19

$$$$
=
 OpenBabel11062411003D

 49 54  0  0  1  0  0  0  0  0999 V2000
  188.8020  178.6020  139.7000 C   0  0  0  0  0  2  0  0  0  0  0  0
  188.9690  177.4840  137.4730 C   0  0  1  0  0  0  0  0  0  0  0  0
  189.5530  176.2890  136.7590 C   0  0  1  0  0  0  0  0  0  0  0  0
  187.1300  176.0250  136.7230 C   0  0  1  0  0  3  0  0  0  0  0  0
  189.7140  176.3470  138.2450 C   0  0  2  0  0  3  0  0  0  0  0  0
  188.4220  175.4710  136.1560 C   0  0  0  0  0  2  0  0  0  0  0  0
  189.4750  178.6570  138.3010 C   0  0  0  0  0  2  0  0  0  0  0  0
  188.8410  177.1960  140.3740 C   0  0  1  0  0  3  0  0  0  0  0  0
  188.7560  176.0130  139.3790 C   0  0  0  0  0  2  0  0  0  0  0  0
  187.4450  177.3970  137.3000 C   0  0  0  0  0  2  0  0  0  0  0  0
  190.7670  176.6280  135.9170 C   0  0  0  0  0  2  0  0  0  0  0  0
  190.3640  176.9990  134.6340 O   0  0  0  0  0  1  0  0  0  0  0  0
  191.0840  177.4110  141.0410 O   0  0  0  0  0  0  0  0  0  0  0  0
  189.9740  177.0070  141.3500 C   0  0  0  0  0  0  0  0  0  0  0  0
  188.3140  175.9060  143.1500 O   0  0  0  0  0  0  0  0  0  0  0  0
  190.5560  174.9310  142.9280 O   0  0  0  0  0  0  0  0  0  0  0  0
  189.7670  176.2080  142.9120 S   0  0  0  0  0  0  0  0  0  0  0  0
  190.3560  177.2420  144.1710 N   0  0  0  0  0  2  0  0  0  0  0  0
  189.2540  178.0890  144.6020 C   0  0  0  0  0  2  0  0  0  0  0  0
  187.1460  177.5550  146.1570 C   0  0  2  0  0  3  0  0  0  0  0  0
  188.4960  178.2560  148.1190 C   0  0  0  0  0  2  0  0  0  0  0  0
  189.6070  177.3980  148.0500 O   0  0  0  0  0  0  0  0  0  0  0  0
  188.0670  178.6270  146.7190 C   0  0  1  0  0  3  0  0  0  0  0  0
  188.6450  177.5310  145.8810 C   0  0  2  0  0  0  0  0  0  0  0  0
  189.5140  176.7270  146.8200 C   0  0  0  0  0  2  0  0  0  0  0  0
  186.3490  178.1290  144.9880 C   0  0  0  0  0  2  0  0  0  0  0  0
  184.8760  178.3530  145.3350 C   0  0  1  0  0  3  0  0  0  0  0  0
  184.7350  178.9180  146.6060 O   0  0  0  0  0  1  0  0  0  0  0  0
  183.9460  179.3690  144.0620 P   0  0  0  0  0  0  0  0  0  0  0  0
  184.3860  178.4610  142.6500 O   0  0  0  0  0  1  0  0  0  0  0  0
  182.3940  178.6180  144.2740 O   0  0  0  0  0  1  0  0  0  0  0  0
  186.0530  176.1020  135.6500 C   0  0  0  0  0  2  0  0  0  0  0  0
  184.6660  176.0600  136.2710 C   0  0  0  0  0  2  0  0  0  0  0  0
  184.5710  177.0310  137.4420 C   0  0  0  0  0  2  0  0  0  0  0  0
  183.1270  177.3520  137.8330 C   0  0  1  0  0  3  0  0  0  0  0  0
  183.0640  178.2260  139.0960 C   0  0  2  0  0  3  0  0  0  0  0  0
  182.0610  177.6610  140.1020 C   0  0  0  0  0  3  0  0  0  0  0  0
  180.7980  178.2030  139.8660 O   0  0  0  0  0  1  0  0  0  0  0  0
  181.9850  176.2710  139.9920 O   0  0  0  0  0  1  0  0  0  0  0  0
  182.7740  179.6910  138.7700 C   0  0  0  0  0  2  0  0  0  0  0  0
  183.8720  180.4830  139.0990 O   0  0  0  0  0  1  0  0  0  0  0  0
  182.2920  177.9040  136.6630 C   0  0  0  0  0  2  0  0  0  0  0  0
  181.2310  176.9360  136.1000 C   0  0  2  0  0  3  0  0  0  0  0  0
  180.1790  177.5560  135.1870 C   0  0  2  0  0  3  0  0  0  0  0  0
  180.2110  178.9530  135.2070 O   0  0  0  0  0  1  0  0  0  0  0  0
  179.2010  177.0630  136.2330 C   0  0  0  0  0  2  0  0  0  0  0  0
  180.2480  176.5240  137.0940 N   0  0  0  0  0  0  0  0  0  0  0  0
  179.4680  174.6110  138.1640 O   0  0  0  0  0  1  0  0  0  0  0  0
  180.1480  175.0740  137.0390 C   0  0  0  0  0  2  0  0  0  0  0  0
  1  8  1  0  0  0  0
  2 10  1  1  0  0  0
  2  5  1  0  0  0  0
  2  7  1  0  0  0  0
  3 11  1  6  0  0  0
  3  2  1  0  0  0  0
  3  5  1  0  0  0  0
  4 32  1  6  0  0  0
  4 10  1  0  0  0  0
  5  9  1  1  0  0  0
  6  4  1  0  0  0  0
  6  3  1  0  0  0  0
  7  1  1  0  0  0  0
  8 14  1  6  0  0  0
  9  8  1  0  0  0  0
 12 11  1  0  0  0  0
 13 14  2  0  0  0  0
 14 17  1  0  0  0  0
 17 16  2  0  0  0  0
 17 15  2  0  0  0  0
 17 18  1  0  0  0  0
 18 19  1  0  0  0  0
 20 26  1  6  0  0  0
 20 23  1  0  0  0  0
 22 21  1  0  0  0  0
 23 21  1  1  0  0  0
 24 19  1  6  0  0  0
 24 20  1  0  0  0  0
 24 23  1  0  0  0  0
 24 25  1  0  0  0  0
 25 22  1  0  0  0  0
 26 27  1  0  0  0  0
 27 28  1  1  0  0  0
 29 31  1  0  0  0  0
 29 27  1  0  0  0  0
 30 29  1  0  0  0  0
 32 33  1  0  0  0  0
 33 34  1  0  0  0  0
 34 35  1  0  0  0  0
 35 42  1  6  0  0  0
 35 36  1  0  0  0  0
 36 40  1  6  0  0  0
 36 37  1  0  0  0  0
 38 37  1  0  0  0  0
 39 37  1  0  0  0  0
 40 41  1  0  0  0  0
 43 42  1  1  0  0  0
 43 47  1  0  0  0  0
 44 45  1  1  0  0  0
 44 43  1  0  0  0  0
 44 46  1  0  0  0  0
 46 47  1  0  0  0  0
 49 47  1  0  0  0  0
 49 48  1  0  0  0  0
M  END
>  <MODEL>
8

>  <REMARK>
 VINA RESULT:      -5.6      3.017      7.629
  Name = 
  19 active torsions:
  status: ('A' for Active; 'I' for Inactive)
    1  A    between atoms: C_3  and  C_43
    2  A    between atoms: C_4  and  C_8
    3  A    between atoms: P_5  and  C_25
    4  A    between atoms: C_6  and  C_21
    5  A    between atoms: C_9  and  C_27
    6  A    between atoms: C_14  and  C_43
    7  A    between atoms: C_17  and  C_30
    8  A    between atoms: C_17  and  C_39
    9  A    between atoms: C_17  and  C_43
   10  A    between atoms: N_20  and  C_33
   11  A    between atoms: N_20  and  S_45
   12  A    between atoms: C_21  and  C_25
   13  A    between atoms: C_23  and  C_27
   14  A    between atoms: C_23  and  C_30
   15  A    between atoms: C_24  and  C_39
   16  A    between atoms: C_28  and  C_40
   17  A    between atoms: C_33  and  C_46
   18  A    between atoms: C_40  and  S_45
   19  A    between atoms: C_41  and  N_47
                            x       y       z     vdW  Elec       q    Type
                         _______ _______ _______ _____ _____    ______ ____

>  <TORSDO>
F 19

$$$$
=
 OpenBabel11062411003D

 49 54  0  0  1  0  0  0  0  0999 V2000
  184.6380  180.2770  143.5740 C   0  0  0  0  0  2  0  0  0  0  0  0
  186.5000  178.6760  144.0280 C   0  0  1  0  0  0  0  0  0  0  0  0
  186.8150  177.2180  144.2570 C   0  0  1  0  0  0  0  0  0  0  0  0
  187.8510  177.8440  142.1420 C   0  0  1  0  0  3  0  0  0  0  0  0
  185.4080  177.5660  143.8890 C   0  0  2  0  0  3  0  0  0  0  0  0
  187.7790  176.7440  143.1820 C   0  0  0  0  0  2  0  0  0  0  0  0
  185.6220  179.7500  144.6550 C   0  0  0  0  0  2  0  0  0  0  0  0
  183.9120  179.1540  142.7690 C   0  0  1  0  0  3  0  0  0  0  0  0
  184.7630  177.8810  142.5480 C   0  0  0  0  0  2  0  0  0  0  0  0
  187.2940  179.1060  142.7840 C   0  0  0  0  0  2  0  0  0  0  0  0
  187.0880  176.8870  145.7110 C   0  0  0  0  0  2  0  0  0  0  0  0
  188.4580  176.9650  145.9650 O   0  0  0  0  0  1  0  0  0  0  0  0
  182.3940  178.6300  144.4840 O   0  0  0  0  0  0  0  0  0  0  0  0
  182.5390  178.8080  143.2850 C   0  0  0  0  0  0  0  0  0  0  0  0
  180.0450  177.8780  142.9310 O   0  0  0  0  0  0  0  0  0  0  0  0
  180.6340  179.9940  141.8360 O   0  0  0  0  0  0  0  0  0  0  0  0
  181.1350  178.6340  142.2260 S   0  0  0  0  0  0  0  0  0  0  0  0
  181.5970  177.7790  140.7920 N   0  0  0  0  0  2  0  0  0  0  0  0
  181.1970  178.5830  139.6470 C   0  0  0  0  0  2  0  0  0  0  0  0
  182.9010  178.0420  137.6610 C   0  0  2  0  0  3  0  0  0  0  0  0
  184.7510  178.8240  139.1210 C   0  0  0  0  0  2  0  0  0  0  0  0
  184.3630  180.1380  139.4320 O   0  0  0  0  0  0  0  0  0  0  0  0
  183.5230  177.9480  139.0460 C   0  0  1  0  0  3  0  0  0  0  0  0
  182.4170  178.9260  138.8050 C   0  0  2  0  0  0  0  0  0  0  0  0
  183.0520  180.2890  138.9500 C   0  0  0  0  0  2  0  0  0  0  0  0
  181.9890  176.8410  137.4280 C   0  0  0  0  0  2  0  0  0  0  0  0
  182.3690  176.0480  136.1760 C   0  0  1  0  0  3  0  0  0  0  0  0
  183.2500  176.7710  135.3660 O   0  0  0  0  0  1  0  0  0  0  0  0
  183.0670  174.3460  136.5420 P   0  0  0  0  0  0  0  0  0  0  0  0
  183.6920  174.6700  138.1280 O   0  0  0  0  0  1  0  0  0  0  0  0
  181.5880  173.6150  137.0860 O   0  0  0  0  0  1  0  0  0  0  0  0
  189.2800  178.0440  141.6590 C   0  0  0  0  0  2  0  0  0  0  0  0
  189.8100  176.7820  140.9960 C   0  0  0  0  0  2  0  0  0  0  0  0
  190.2180  177.0630  139.5550 C   0  0  0  0  0  2  0  0  0  0  0  0
  189.3140  176.3650  138.5360 C   0  0  1  0  0  3  0  0  0  0  0  0
  188.4380  177.3730  137.7740 C   0  0  2  0  0  3  0  0  0  0  0  0
  187.6280  176.6770  136.6810 C   0  0  0  0  0  3  0  0  0  0  0  0
  186.3000  176.5430  137.0870 O   0  0  0  0  0  1  0  0  0  0  0  0
  187.6670  177.4140  135.4960 O   0  0  0  0  0  1  0  0  0  0  0  0
  189.2540  178.5390  137.2170 C   0  0  0  0  0  2  0  0  0  0  0  0
  188.6830  179.7520  137.6010 O   0  0  0  0  0  1  0  0  0  0  0  0
  190.0750  175.3940  137.6150 C   0  0  0  0  0  2  0  0  0  0  0  0
  191.3190  175.9860  136.9230 C   0  0  2  0  0  3  0  0  0  0  0  0
  191.3410  175.9020  135.4000 C   0  0  2  0  0  3  0  0  0  0  0  0
  190.3300  175.0780  134.8970 O   0  0  0  0  0  1  0  0  0  0  0  0
  192.5950  175.0800  135.6150 C   0  0  0  0  0  2  0  0  0  0  0  0
  192.5060  175.1530  137.0700 N   0  0  0  0  0  0  0  0  0  0  0  0
  194.4880  175.2580  138.2850 O   0  0  0  0  0  1  0  0  0  0  0  0
  193.5900  176.0080  137.5260 C   0  0  0  0  0  2  0  0  0  0  0  0
  1  7  1  0  0  0  0
  2 10  1  6  0  0  0
  2  3  1  0  0  0  0
  2  7  1  0  0  0  0
  3 11  1  1  0  0  0
  4 32  1  1  0  0  0
  4 10  1  0  0  0  0
  4  6  1  0  0  0  0
  5  9  1  6  0  0  0
  5  2  1  0  0  0  0
  5  3  1  0  0  0  0
  6  3  1  0  0  0  0
  8 14  1  1  0  0  0
  8  1  1  0  0  0  0
  9  8  1  0  0  0  0
 11 12  1  0  0  0  0
 14 13  2  0  0  0  0
 16 17  2  0  0  0  0
 17 15  2  0  0  0  0
 17 14  1  0  0  0  0
 18 17  1  0  0  0  0
 19 18  1  0  0  0  0
 20 26  1  1  0  0  0
 20 24  1  0  0  0  0
 20 23  1  0  0  0  0
 21 22  1  0  0  0  0
 23 21  1  6  0  0  0
 24 25  1  0  0  0  0
 24 23  1  0  0  0  0
 24 19  1  1  0  0  0
 25 22  1  0  0  0  0
 27 28  1  1  0  0  0
 27 29  1  0  0  0  0
 27 26  1  0  0  0  0
 29 31  1  0  0  0  0
 29 30  1  0  0  0  0
 33 32  1  0  0  0  0
 34 33  1  0  0  0  0
 35 42  1  6  0  0  0
 35 34  1  0  0  0  0
 36 40  1  6  0  0  0
 36 35  1  0  0  0  0
 37 38  1  0  0  0  0
 37 36  1  0  0  0  0
 39 37  1  0  0  0  0
 40 41  1  0  0  0  0
 43 47  1  0  0  0  0
 43 42  1  1  0  0  0
 44 45  1  1  0  0  0
 44 46  1  0  0  0  0
 44 43  1  0  0  0  0
 46 47  1  0  0  0  0
 47 49  1  0  0  0  0
 49 48  1  0  0  0  0
M  END
>  <MODEL>
9

>  <REMARK>
 VINA RESULT:      -5.4      2.663      7.737
  Name = 
  19 active torsions:
  status: ('A' for Active; 'I' for Inactive)
    1  A    between atoms: C_3  and  C_43
    2  A    between atoms: C_4  and  C_8
    3  A    between atoms: P_5  and  C_25
    4  A    between atoms: C_6  and  C_21
    5  A    between atoms: C_9  and  C_27
    6  A    between atoms: C_14  and  C_43
    7  A    between atoms: C_17  and  C_30
    8  A    between atoms: C_17  and  C_39
    9  A    between atoms: C_17  and  C_43
   10  A    between atoms: N_20  and  C_33
   11  A    between atoms: N_20  and  S_45
   12  A    between atoms: C_21  and  C_25
   13  A    between atoms: C_23  and  C_27
   14  A    between atoms: C_23  and  C_30
   15  A    between atoms: C_24  and  C_39
   16  A    between atoms: C_28  and  C_40
   17  A    between atoms: C_33  and  C_46
   18  A    between atoms: C_40  and  S_45
   19  A    between atoms: C_41  and  N_47
                            x       y       z     vdW  Elec       q    Type
                         _______ _______ _______ _____ _____    ______ ____

>  <TORSDO>
F 19

$$$$
