=
 OpenBabel11062413153D

 42 46  0  0  1  0  0  0  0  0999 V2000
  186.7710  176.4460  144.6850 O   0  0  0  0  0  0  0  0  0  0  0  0
  187.1550  176.9650  143.4300 C   0  0  0  0  0  2  0  0  0  0  0  0
  185.1730  178.4590  143.9490 C   0  0  1  0  0  3  0  0  0  0  0  0
  186.0600  177.8680  142.8330 C   0  0  1  0  0  3  0  0  0  0  0  0
  186.0020  178.7670  145.1870 C   0  0  0  0  0  2  0  0  0  0  0  0
  186.7400  177.4940  145.6450 C   0  0  2  0  0  3  0  0  0  0  0  0
  188.8070  176.6100  146.4730 F   0  0  0  0  0  0  0  0  0  0  0  0
  188.1150  177.7870  146.2500 C   0  0  0  0  0  0  0  0  0  0  0  0
  188.8420  178.5810  145.3830 F   0  0  0  0  0  0  0  0  0  0  0  0
  187.9610  178.4590  147.4470 F   0  0  0  0  0  0  0  0  0  0  0  0
  186.6620  178.9190  141.8870 C   0  0  2  0  0  3  0  0  0  0  0  0
  185.8640  179.0450  140.7490 O   0  0  0  0  0  1  0  0  0  0  0  0
  188.0960  178.5850  141.4880 C   0  0  0  0  0  2  0  0  0  0  0  0
  188.1370  178.0670  140.1310 N   0  0  0  0  0  2  0  0  0  0  0  0
  189.5060  178.2000  139.6480 C   0  0  0  0  0  2  0  0  0  0  0  0
  191.5090  177.4210  140.9270 C   0  0  2  0  0  3  0  0  0  0  0  0
  190.3460  176.9920  140.0420 C   0  0  2  0  0  3  0  0  0  0  0  0
  191.0050  176.4340  138.8210 C   0  0  0  0  0  2  0  0  0  0  0  0
  193.3750  176.0060  138.2700 C   0  0  0  0  0  1  0  0  0  0  0  0
  192.7230  177.1410  140.2680 O   0  0  0  0  0  0  0  0  0  0  0  0
  192.4050  176.9770  138.9120 C   0  0  2  0  0  3  0  0  0  0  0  0
  191.4580  176.6810  142.2640 C   0  0  2  0  0  3  0  0  0  0  0  0
  190.3410  175.8440  142.3140 O   0  0  0  0  0  1  0  0  0  0  0  0
  191.4180  177.6400  143.4100 C   0  0  0  0  0  0  0  0  0  0  0  0
  191.1940  178.8650  143.2150 O   0  0  0  0  0  0  0  0  0  0  0  0
  191.6640  177.1790  144.6970 O   0  0  0  0  0  1  0  0  0  0  0  0
  184.3280  179.6530  143.5310 C   0  0  0  0  0  2  0  0  0  0  0  0
  182.1370  178.7290  142.6400 C   0  0  0  0  0  0  0  0  0  0  0  0
  180.8960  178.5980  142.8150 O   0  0  0  0  0  0  0  0  0  0  0  0
  182.9160  179.3330  143.6770 N   0  0  0  0  0  2  0  0  0  0  0  0
  178.9310  178.8160  140.1480 S   0  0  0  0  0  0  0  0  0  0  0  0
  180.2250  179.7810  137.5710 O   0  0  0  0  0  1  0  0  0  0  0  0
  182.7480  178.3660  141.3080 C   0  0  2  0  0  3  0  0  0  0  0  0
  179.7430  176.2960  140.8220 O   0  0  0  0  0  1  0  0  0  0  0  0
  179.8500  177.7770  138.9250 C   0  0  1  0  0  0  0  0  0  0  0  0
  182.1800  179.0990  140.0680 C   0  0  2  0  0  0  0  0  0  0  0  0
  178.9350  176.7780  138.2300 C   0  0  0  0  0  1  0  0  0  0  0  0
  180.8200  178.5920  137.9960 C   0  0  2  0  0  3  0  0  0  0  0  0
  181.3290  180.1490  140.4290 O   0  0  0  0  0  1  0  0  0  0  0  0
  181.7580  177.6620  140.4360 C   0  0  2  0  0  3  0  0  0  0  0  0
  182.2430  178.8710  138.5650 C   0  0  0  0  0  2  0  0  0  0  0  0
  180.2340  177.5120  140.3470 C   0  0  1  0  0  0  0  0  0  0  0  0
  1  6  1  0  0  0  0
  2  1  1  0  0  0  0
  3 27  1  6  0  0  0
  3  5  1  0  0  0  0
  4 11  1  1  0  0  0
  4  2  1  0  0  0  0
  4  3  1  0  0  0  0
  5  6  1  0  0  0  0
  6  8  1  6  0  0  0
  8  7  1  0  0  0  0
  8 10  1  0  0  0  0
  9  8  1  0  0  0  0
 11 12  1  6  0  0  0
 13 11  1  0  0  0  0
 14 13  1  0  0  0  0
 15 14  1  0  0  0  0
 16 22  1  1  0  0  0
 17 15  1  6  0  0  0
 17 16  1  0  0  0  0
 18 21  1  0  0  0  0
 18 17  1  0  0  0  0
 20 16  1  0  0  0  0
 21 19  1  1  0  0  0
 21 20  1  0  0  0  0
 22 23  1  6  0  0  0
 22 24  1  0  0  0  0
 24 26  1  0  0  0  0
 25 24  2  0  0  0  0
 27 30  1  0  0  0  0
 28 29  2  0  0  0  0
 28 30  1  0  0  0  0
 31 42  1  0  0  0  0
 33 28  1  1  0  0  0
 35 37  1  6  0  0  0
 35 31  1  0  0  0  0
 35 42  1  0  0  0  0
 36 39  1  1  0  0  0
 36 40  1  0  0  0  0
 36 33  1  0  0  0  0
 38 32  1  1  0  0  0
 38 41  1  0  0  0  0
 38 35  1  0  0  0  0
 40 33  1  0  0  0  0
 41 36  1  0  0  0  0
 42 40  1  0  0  0  0
 42 34  1  0  0  0  0
M  END
>  <MODEL>
1

>  <REMARK>
 VINA RESULT:      -7.9      0.000      0.000
  Name = 
  11 active torsions:
  status: ('A' for Active; 'I' for Inactive)
    1  A    between atoms: C_1  and  C_14
    2  A    between atoms: C_5  and  C_10
    3  A    between atoms: C_9  and  C_20
    4  A    between atoms: C_9  and  N_33
    5  A    between atoms: C_10  and  C_16
    6  A    between atoms: C_11  and  C_12
    7  A    between atoms: C_12  and  N_31
    8  A    between atoms: C_13  and  C_22
    9  A    between atoms: C_17  and  C_42
   10  A    between atoms: C_22  and  C_23
   11  A    between atoms: C_23  and  N_33
                            x       y       z     vdW  Elec       q    Type
                         _______ _______ _______ _____ _____    ______ ____

>  <TORSDO>
F 11

$$$$
=
 OpenBabel11062413153D

 42 46  0  0  1  0  0  0  0  0999 V2000
  186.8670  176.3720  145.0720 O   0  0  0  0  0  0  0  0  0  0  0  0
  187.4860  176.7390  143.8590 C   0  0  0  0  0  2  0  0  0  0  0  0
  185.5110  178.3310  143.8590 C   0  0  1  0  0  3  0  0  0  0  0  0
  186.5520  177.5980  142.9850 C   0  0  1  0  0  3  0  0  0  0  0  0
  186.1260  178.7540  145.1850 C   0  0  0  0  0  2  0  0  0  0  0  0
  186.7160  177.5200  145.8970 C   0  0  2  0  0  3  0  0  0  0  0  0
  188.5590  176.6820  147.1790 F   0  0  0  0  0  0  0  0  0  0  0  0
  187.9760  177.8440  146.7020 C   0  0  0  0  0  0  0  0  0  0  0  0
  188.8840  178.5060  145.8960 F   0  0  0  0  0  0  0  0  0  0  0  0
  187.6500  178.6600  147.7680 F   0  0  0  0  0  0  0  0  0  0  0  0
  187.3550  178.5230  142.0570 C   0  0  2  0  0  3  0  0  0  0  0  0
  186.7060  178.6380  140.8260 O   0  0  0  0  0  1  0  0  0  0  0  0
  188.7860  178.0360  141.8520 C   0  0  0  0  0  2  0  0  0  0  0  0
  188.9020  177.3160  140.5950 N   0  0  0  0  0  2  0  0  0  0  0  0
  190.3080  177.3190  140.2120 C   0  0  0  0  0  2  0  0  0  0  0  0
  189.1120  177.2250  138.0170 C   0  0  2  0  0  3  0  0  0  0  0  0
  190.4630  177.4020  138.6980 C   0  0  2  0  0  3  0  0  0  0  0  0
  191.2650  176.2330  138.2230 C   0  0  0  0  0  2  0  0  0  0  0  0
  190.7890  174.4650  136.5640 C   0  0  0  0  0  1  0  0  0  0  0  0
  189.1370  176.0560  137.2290 O   0  0  0  0  0  0  0  0  0  0  0  0
  190.2160  175.2920  137.6960 C   0  0  2  0  0  3  0  0  0  0  0  0
  188.7980  178.4380  137.1410 C   0  0  2  0  0  3  0  0  0  0  0  0
  189.1000  179.6200  137.8210 O   0  0  0  0  0  1  0  0  0  0  0  0
  187.3620  178.4490  136.7280 C   0  0  0  0  0  0  0  0  0  0  0  0
  186.4610  178.7800  137.5450 O   0  0  0  0  0  1  0  0  0  0  0  0
  187.0170  178.0580  135.4400 O   0  0  0  0  0  0  0  0  0  0  0  0
  184.8060  179.4930  143.1750 C   0  0  0  0  0  2  0  0  0  0  0  0
  182.6010  178.5950  142.2910 C   0  0  0  0  0  0  0  0  0  0  0  0
  181.3450  178.5930  142.3880 O   0  0  0  0  0  0  0  0  0  0  0  0
  183.3640  179.3140  143.2640 N   0  0  0  0  0  2  0  0  0  0  0  0
  179.7860  179.0270  139.3950 S   0  0  0  0  0  0  0  0  0  0  0  0
  181.5350  179.3750  136.9330 O   0  0  0  0  0  1  0  0  0  0  0  0
  183.2600  177.9500  141.0960 C   0  0  2  0  0  3  0  0  0  0  0  0
  179.9460  176.4970  140.4180 O   0  0  0  0  0  1  0  0  0  0  0  0
  180.5830  177.6760  138.4150 C   0  0  1  0  0  0  0  0  0  0  0  0
  183.0070  178.6230  139.7240 C   0  0  2  0  0  0  0  0  0  0  0  0
  179.5530  176.8070  137.7060 C   0  0  0  0  0  1  0  0  0  0  0  0
  181.8040  178.1510  137.5480 C   0  0  2  0  0  3  0  0  0  0  0  0
  182.3720  179.8620  139.8620 O   0  0  0  0  0  1  0  0  0  0  0  0
  182.2420  177.3610  140.1720 C   0  0  2  0  0  3  0  0  0  0  0  0
  183.1820  178.2010  138.2730 C   0  0  0  0  0  2  0  0  0  0  0  0
  180.7410  177.5180  139.8950 C   0  0  1  0  0  0  0  0  0  0  0  0
  1  6  1  0  0  0  0
  2  1  1  0  0  0  0
  3 27  1  6  0  0  0
  3  5  1  0  0  0  0
  4 11  1  1  0  0  0
  4  2  1  0  0  0  0
  4  3  1  0  0  0  0
  5  6  1  0  0  0  0
  6  8  1  6  0  0  0
  8  7  1  0  0  0  0
  8 10  1  0  0  0  0
  9  8  1  0  0  0  0
 11 12  1  6  0  0  0
 13 11  1  0  0  0  0
 14 13  1  0  0  0  0
 15 14  1  0  0  0  0
 16 22  1  6  0  0  0
 16 17  1  0  0  0  0
 17 15  1  1  0  0  0
 18 17  1  0  0  0  0
 20 21  1  0  0  0  0
 20 16  1  0  0  0  0
 21 19  1  6  0  0  0
 21 18  1  0  0  0  0
 22 23  1  1  0  0  0
 24 22  1  0  0  0  0
 24 25  1  0  0  0  0
 26 24  2  0  0  0  0
 27 30  1  0  0  0  0
 28 29  2  0  0  0  0
 28 30  1  0  0  0  0
 31 42  1  0  0  0  0
 33 28  1  1  0  0  0
 35 37  1  6  0  0  0
 35 31  1  0  0  0  0
 35 42  1  0  0  0  0
 36 39  1  1  0  0  0
 36 40  1  0  0  0  0
 36 33  1  0  0  0  0
 38 32  1  1  0  0  0
 38 41  1  0  0  0  0
 38 35  1  0  0  0  0
 40 33  1  0  0  0  0
 41 36  1  0  0  0  0
 42 40  1  0  0  0  0
 42 34  1  0  0  0  0
M  END
>  <MODEL>
2

>  <REMARK>
 VINA RESULT:      -7.6      1.834      3.005
  Name = 
  11 active torsions:
  status: ('A' for Active; 'I' for Inactive)
    1  A    between atoms: C_1  and  C_14
    2  A    between atoms: C_5  and  C_10
    3  A    between atoms: C_9  and  C_20
    4  A    between atoms: C_9  and  N_33
    5  A    between atoms: C_10  and  C_16
    6  A    between atoms: C_11  and  C_12
    7  A    between atoms: C_12  and  N_31
    8  A    between atoms: C_13  and  C_22
    9  A    between atoms: C_17  and  C_42
   10  A    between atoms: C_22  and  C_23
   11  A    between atoms: C_23  and  N_33
                            x       y       z     vdW  Elec       q    Type
                         _______ _______ _______ _____ _____    ______ ____

>  <TORSDO>
F 11

$$$$
=
 OpenBabel11062413153D

 42 46  0  0  1  0  0  0  0  0999 V2000
  188.4310  176.0520  143.7550 O   0  0  0  0  0  0  0  0  0  0  0  0
  189.0610  176.5050  142.5760 C   0  0  0  0  0  2  0  0  0  0  0  0
  186.9240  177.8690  142.5010 C   0  0  1  0  0  3  0  0  0  0  0  0
  188.0780  177.2710  141.6690 C   0  0  1  0  0  3  0  0  0  0  0  0
  187.4260  178.3350  143.8590 C   0  0  0  0  0  2  0  0  0  0  0  0
  188.1150  177.1620  144.5850 C   0  0  2  0  0  3  0  0  0  0  0  0
  188.8690  177.8910  146.7400 F   0  0  0  0  0  0  0  0  0  0  0  0
  189.2940  177.6090  145.4530 C   0  0  0  0  0  0  0  0  0  0  0  0
  190.2410  176.6040  145.5010 F   0  0  0  0  0  0  0  0  0  0  0  0
  189.8700  178.7390  144.9060 F   0  0  0  0  0  0  0  0  0  0  0  0
  188.8160  178.2940  140.7910 C   0  0  2  0  0  3  0  0  0  0  0  0
  188.0480  178.5920  139.6650 O   0  0  0  0  0  1  0  0  0  0  0  0
  190.1980  177.8050  140.3690 C   0  0  0  0  0  2  0  0  0  0  0  0
  190.2610  177.6440  138.9270 N   0  0  0  0  0  2  0  0  0  0  0  0
  190.3630  176.2180  138.6440 C   0  0  0  0  0  2  0  0  0  0  0  0
  188.4630  176.0730  137.0240 C   0  0  2  0  0  3  0  0  0  0  0  0
  189.9670  175.9160  137.2040 C   0  0  2  0  0  3  0  0  0  0  0  0
  190.2180  174.4700  136.9200 C   0  0  0  0  0  2  0  0  0  0  0  0
  188.7390  172.6620  136.1160 C   0  0  0  0  0  1  0  0  0  0  0  0
  187.9030  174.8270  136.6760 O   0  0  0  0  0  0  0  0  0  0  0  0
  188.8490  173.8570  137.0390 C   0  0  2  0  0  3  0  0  0  0  0  0
  188.1650  177.1020  135.9330 C   0  0  2  0  0  3  0  0  0  0  0  0
  189.3160  177.8300  135.6240 O   0  0  0  0  0  1  0  0  0  0  0  0
  187.0770  178.0370  136.3550 C   0  0  0  0  0  0  0  0  0  0  0  0
  185.8800  177.6440  136.4130 O   0  0  0  0  0  0  0  0  0  0  0  0
  187.3860  179.3580  136.6520 O   0  0  0  0  0  1  0  0  0  0  0  0
  186.1260  178.9580  141.7970 C   0  0  0  0  0  2  0  0  0  0  0  0
  183.6310  178.5600  142.0400 C   0  0  0  0  0  0  0  0  0  0  0  0
  182.5600  178.8820  142.6220 O   0  0  0  0  0  0  0  0  0  0  0  0
  184.8560  179.1550  142.4780 N   0  0  0  0  0  2  0  0  0  0  0  0
  180.5480  180.1230  139.9050 S   0  0  0  0  0  0  0  0  0  0  0  0
  181.4870  179.5990  137.0620 O   0  0  0  0  0  1  0  0  0  0  0  0
  183.5830  177.6610  140.8280 C   0  0  2  0  0  3  0  0  0  0  0  0
  179.9250  177.8100  141.2220 O   0  0  0  0  0  1  0  0  0  0  0  0
  180.3860  178.5350  138.9710 C   0  0  1  0  0  0  0  0  0  0  0  0
  183.2480  178.3430  139.4780 C   0  0  2  0  0  0  0  0  0  0  0  0
  178.9310  178.1950  138.6790 C   0  0  0  0  0  1  0  0  0  0  0  0
  181.3850  178.3990  137.7670 C   0  0  2  0  0  3  0  0  0  0  0  0
  183.2590  179.7370  139.5830 O   0  0  0  0  0  1  0  0  0  0  0  0
  182.1920  177.5610  140.2860 C   0  0  2  0  0  3  0  0  0  0  0  0
  182.8030  177.8500  138.1090 C   0  0  0  0  0  2  0  0  0  0  0  0
  180.8850  178.3600  140.3710 C   0  0  1  0  0  0  0  0  0  0  0  0
  1  6  1  0  0  0  0
  2  1  1  0  0  0  0
  3 27  1  6  0  0  0
  3  5  1  0  0  0  0
  4 11  1  1  0  0  0
  4  3  1  0  0  0  0
  4  2  1  0  0  0  0
  5  6  1  0  0  0  0
  6  8  1  6  0  0  0
  8  9  1  0  0  0  0
  8  7  1  0  0  0  0
 10  8  1  0  0  0  0
 11 12  1  6  0  0  0
 13 11  1  0  0  0  0
 14 13  1  0  0  0  0
 15 14  1  0  0  0  0
 16 22  1  6  0  0  0
 16 17  1  0  0  0  0
 17 15  1  1  0  0  0
 18 21  1  0  0  0  0
 18 17  1  0  0  0  0
 20 16  1  0  0  0  0
 20 21  1  0  0  0  0
 21 19  1  6  0  0  0
 22 23  1  1  0  0  0
 22 24  1  0  0  0  0
 24 25  2  0  0  0  0
 24 26  1  0  0  0  0
 27 30  1  0  0  0  0
 28 30  1  0  0  0  0
 28 29  2  0  0  0  0
 31 42  1  0  0  0  0
 33 28  1  1  0  0  0
 35 37  1  6  0  0  0
 35 31  1  0  0  0  0
 35 42  1  0  0  0  0
 36 39  1  1  0  0  0
 36 40  1  0  0  0  0
 36 33  1  0  0  0  0
 38 32  1  1  0  0  0
 38 41  1  0  0  0  0
 38 35  1  0  0  0  0
 40 42  1  0  0  0  0
 40 33  1  0  0  0  0
 41 36  1  0  0  0  0
 42 34  1  0  0  0  0
M  END
>  <MODEL>
3

>  <REMARK>
 VINA RESULT:      -7.2      2.576      3.779
  Name = 
  11 active torsions:
  status: ('A' for Active; 'I' for Inactive)
    1  A    between atoms: C_1  and  C_14
    2  A    between atoms: C_5  and  C_10
    3  A    between atoms: C_9  and  C_20
    4  A    between atoms: C_9  and  N_33
    5  A    between atoms: C_10  and  C_16
    6  A    between atoms: C_11  and  C_12
    7  A    between atoms: C_12  and  N_31
    8  A    between atoms: C_13  and  C_22
    9  A    between atoms: C_17  and  C_42
   10  A    between atoms: C_22  and  C_23
   11  A    between atoms: C_23  and  N_33
                            x       y       z     vdW  Elec       q    Type
                         _______ _______ _______ _____ _____    ______ ____

>  <TORSDO>
F 11

$$$$
=
 OpenBabel11062413153D

 42 46  0  0  1  0  0  0  0  0999 V2000
  190.7690  178.2410  145.9940 O   0  0  0  0  0  0  0  0  0  0  0  0
  189.4110  177.9620  145.7320 C   0  0  0  0  0  2  0  0  0  0  0  0
  190.4220  177.4550  143.4620 C   0  0  1  0  0  3  0  0  0  0  0  0
  189.1380  177.8520  144.2200 C   0  0  1  0  0  3  0  0  0  0  0  0
  191.2540  176.4850  144.2870 C   0  0  0  0  0  2  0  0  0  0  0  0
  191.5620  177.1080  145.6630 C   0  0  2  0  0  3  0  0  0  0  0  0
  192.3580  176.5520  147.8540 F   0  0  0  0  0  0  0  0  0  0  0  0
  191.6160  176.0720  146.7880 C   0  0  0  0  0  0  0  0  0  0  0  0
  190.3340  175.7910  147.2200 F   0  0  0  0  0  0  0  0  0  0  0  0
  192.1930  174.9080  146.3190 F   0  0  0  0  0  0  0  0  0  0  0  0
  187.9340  176.9390  143.9390 C   0  0  2  0  0  3  0  0  0  0  0  0
  187.5010  177.1180  142.6240 O   0  0  0  0  0  1  0  0  0  0  0  0
  186.7820  177.1840  144.9090 C   0  0  0  0  0  2  0  0  0  0  0  0
  186.1540  178.4660  144.6380 N   0  0  0  0  0  2  0  0  0  0  0  0
  184.7110  178.2730  144.7010 C   0  0  0  0  0  2  0  0  0  0  0  0
  182.8160  178.4580  143.0800 C   0  0  2  0  0  3  0  0  0  0  0  0
  183.9930  179.1860  143.7140 C   0  0  2  0  0  3  0  0  0  0  0  0
  184.9040  179.4750  142.5630 C   0  0  0  0  0  2  0  0  0  0  0  0
  184.6480  179.1470  140.1280 C   0  0  0  0  0  1  0  0  0  0  0  0
  183.0360  178.3350  141.6930 O   0  0  0  0  0  0  0  0  0  0  0  0
  184.4090  178.5380  141.4940 C   0  0  2  0  0  3  0  0  0  0  0  0
  181.5190  179.2260  143.3350 C   0  0  2  0  0  3  0  0  0  0  0  0
  180.8160  178.6530  144.3980 O   0  0  0  0  0  1  0  0  0  0  0  0
  180.6550  179.2490  142.1160 C   0  0  0  0  0  0  0  0  0  0  0  0
  180.4770  180.3200  141.4760 O   0  0  0  0  0  0  0  0  0  0  0  0
  180.0170  178.0850  141.7070 O   0  0  0  0  0  1  0  0  0  0  0  0
  190.1970  176.9360  142.0490 C   0  0  0  0  0  2  0  0  0  0  0  0
  191.4320  176.9650  139.8320 C   0  0  0  0  0  0  0  0  0  0  0  0
  192.4350  177.3720  139.1850 O   0  0  0  0  0  0  0  0  0  0  0  0
  191.2410  177.4370  141.1690 N   0  0  0  0  0  2  0  0  0  0  0  0
  189.1370  179.1090  137.2550 S   0  0  0  0  0  0  0  0  0  0  0  0
  188.6940  177.0720  135.0420 O   0  0  0  0  0  1  0  0  0  0  0  0
  190.5350  175.9080  139.2350 C   0  0  2  0  0  3  0  0  0  0  0  0
  187.8540  178.4090  139.5640 O   0  0  0  0  0  1  0  0  0  0  0  0
  187.8780  177.7540  137.2450 C   0  0  1  0  0  0  0  0  0  0  0  0
  190.1970  176.0600  137.7320 C   0  0  2  0  0  0  0  0  0  0  0  0
  186.4580  178.3020  137.1880 C   0  0  0  0  0  1  0  0  0  0  0  0
  188.2100  176.5810  136.2550 C   0  0  2  0  0  3  0  0  0  0  0  0
  190.9710  177.0540  137.1230 O   0  0  0  0  0  1  0  0  0  0  0  0
  189.2120  176.4840  138.8410 C   0  0  2  0  0  3  0  0  0  0  0  0
  189.1500  175.4660  136.8020 C   0  0  0  0  0  2  0  0  0  0  0  0
  188.6270  177.8690  138.5360 C   0  0  1  0  0  0  0  0  0  0  0  0
  2  1  1  0  0  0  0
  3 27  1  6  0  0  0
  3  4  1  0  0  0  0
  3  5  1  0  0  0  0
  4 11  1  1  0  0  0
  4  2  1  0  0  0  0
  5  6  1  0  0  0  0
  6  1  1  0  0  0  0
  6  8  1  1  0  0  0
  8  9  1  0  0  0  0
  8  7  1  0  0  0  0
 10  8  1  0  0  0  0
 11 12  1  6  0  0  0
 11 13  1  0  0  0  0
 14 15  1  0  0  0  0
 14 13  1  0  0  0  0
 16 22  1  6  0  0  0
 16 17  1  0  0  0  0
 17 15  1  1  0  0  0
 18 17  1  0  0  0  0
 20 16  1  0  0  0  0
 21 19  1  6  0  0  0
 21 20  1  0  0  0  0
 21 18  1  0  0  0  0
 22 23  1  1  0  0  0
 24 22  1  0  0  0  0
 25 24  2  0  0  0  0
 26 24  1  0  0  0  0
 28 30  1  0  0  0  0
 29 28  2  0  0  0  0
 30 27  1  0  0  0  0
 31 42  1  0  0  0  0
 33 28  1  1  0  0  0
 35 37  1  1  0  0  0
 35 31  1  0  0  0  0
 35 42  1  0  0  0  0
 36 39  1  6  0  0  0
 36 40  1  0  0  0  0
 36 33  1  0  0  0  0
 38 32  1  6  0  0  0
 38 41  1  0  0  0  0
 38 35  1  0  0  0  0
 40 33  1  0  0  0  0
 41 36  1  0  0  0  0
 42 40  1  0  0  0  0
 42 34  1  0  0  0  0
M  END
>  <MODEL>
4

>  <REMARK>
 VINA RESULT:      -7.2      2.917      7.950
  Name = 
  11 active torsions:
  status: ('A' for Active; 'I' for Inactive)
    1  A    between atoms: C_1  and  C_14
    2  A    between atoms: C_5  and  C_10
    3  A    between atoms: C_9  and  C_20
    4  A    between atoms: C_9  and  N_33
    5  A    between atoms: C_10  and  C_16
    6  A    between atoms: C_11  and  C_12
    7  A    between atoms: C_12  and  N_31
    8  A    between atoms: C_13  and  C_22
    9  A    between atoms: C_17  and  C_42
   10  A    between atoms: C_22  and  C_23
   11  A    between atoms: C_23  and  N_33
                            x       y       z     vdW  Elec       q    Type
                         _______ _______ _______ _____ _____    ______ ____

>  <TORSDO>
F 11

$$$$
=
 OpenBabel11062413153D

 42 46  0  0  1  0  0  0  0  0999 V2000
  186.9480  176.3620  145.0290 O   0  0  0  0  0  0  0  0  0  0  0  0
  187.6010  176.7260  143.8330 C   0  0  0  0  0  2  0  0  0  0  0  0
  185.6230  178.3130  143.7690 C   0  0  1  0  0  3  0  0  0  0  0  0
  186.6910  177.5800  142.9290 C   0  0  1  0  0  3  0  0  0  0  0  0
  186.1970  178.7420  145.1110 C   0  0  0  0  0  2  0  0  0  0  0  0
  186.7690  177.5130  145.8450 C   0  0  2  0  0  3  0  0  0  0  0  0
  188.9100  178.5840  145.9460 F   0  0  0  0  0  0  0  0  0  0  0  0
  188.0050  177.8420  146.6860 C   0  0  0  0  0  0  0  0  0  0  0  0
  187.6270  178.5700  147.7990 F   0  0  0  0  0  0  0  0  0  0  0  0
  188.6080  176.6720  147.1020 F   0  0  0  0  0  0  0  0  0  0  0  0
  187.5190  178.5030  142.0210 C   0  0  2  0  0  3  0  0  0  0  0  0
  186.9660  178.5280  140.7400 O   0  0  0  0  0  1  0  0  0  0  0  0
  188.9840  178.0840  141.9520 C   0  0  0  0  0  2  0  0  0  0  0  0
  189.1340  176.8960  141.1300 N   0  0  0  0  0  2  0  0  0  0  0  0
  190.1900  177.1580  140.1600 C   0  0  0  0  0  2  0  0  0  0  0  0
  190.9600  176.8100  137.8060 C   0  0  2  0  0  3  0  0  0  0  0  0
  189.9430  176.3990  138.8620 C   0  0  2  0  0  3  0  0  0  0  0  0
  188.6300  176.8250  138.2880 C   0  0  0  0  0  2  0  0  0  0  0  0
  188.0140  177.7670  136.0900 C   0  0  0  0  0  1  0  0  0  0  0  0
  190.2890  177.4230  136.7280 O   0  0  0  0  0  0  0  0  0  0  0  0
  189.0280  177.7990  137.2130 C   0  0  2  0  0  3  0  0  0  0  0  0
  191.7340  175.5880  137.3110 C   0  0  2  0  0  3  0  0  0  0  0  0
  191.2650  174.4300  137.9360 O   0  0  0  0  0  1  0  0  0  0  0  0
  193.1990  175.7380  137.5660 C   0  0  0  0  0  0  0  0  0  0  0  0
  193.8530  174.8110  138.1180 O   0  0  0  0  0  1  0  0  0  0  0  0
  193.8370  176.9220  137.2190 O   0  0  0  0  0  0  0  0  0  0  0  0
  184.9350  179.4700  143.0600 C   0  0  0  0  0  2  0  0  0  0  0  0
  182.7930  178.5340  142.0710 C   0  0  0  0  0  0  0  0  0  0  0  0
  181.5330  178.5140  142.1040 O   0  0  0  0  0  0  0  0  0  0  0  0
  183.4940  179.2710  143.0770 N   0  0  0  0  0  2  0  0  0  0  0  0
  180.0020  178.6100  139.1200 S   0  0  0  0  0  0  0  0  0  0  0  0
  181.7610  178.9880  136.6690 O   0  0  0  0  0  1  0  0  0  0  0  0
  183.5210  177.8920  140.9150 C   0  0  2  0  0  3  0  0  0  0  0  0
  180.3450  176.1500  140.2590 O   0  0  0  0  0  1  0  0  0  0  0  0
  180.9200  177.2860  138.2130 C   0  0  1  0  0  0  0  0  0  0  0  0
  183.2390  178.4810  139.5110 C   0  0  2  0  0  0  0  0  0  0  0  0
  179.9750  176.3070  137.5310 C   0  0  0  0  0  1  0  0  0  0  0  0
  182.1150  177.8180  137.3430 C   0  0  2  0  0  3  0  0  0  0  0  0
  182.5060  179.6700  139.5840 O   0  0  0  0  0  1  0  0  0  0  0  0
  182.5680  177.1820  140.0060 C   0  0  2  0  0  3  0  0  0  0  0  0
  183.4720  178.0100  138.0840 C   0  0  0  0  0  2  0  0  0  0  0  0
  181.0650  177.2060  139.7010 C   0  0  1  0  0  0  0  0  0  0  0  0
  1  6  1  0  0  0  0
  2  1  1  0  0  0  0
  3 27  1  6  0  0  0
  3  5  1  0  0  0  0
  4 11  1  1  0  0  0
  4  3  1  0  0  0  0
  4  2  1  0  0  0  0
  5  6  1  0  0  0  0
  6  8  1  6  0  0  0
  7  8  1  0  0  0  0
  8 10  1  0  0  0  0
  8  9  1  0  0  0  0
 11 12  1  6  0  0  0
 13 11  1  0  0  0  0
 14 13  1  0  0  0  0
 15 14  1  0  0  0  0
 16 22  1  6  0  0  0
 16 17  1  0  0  0  0
 17 15  1  1  0  0  0
 18 17  1  0  0  0  0
 20 21  1  0  0  0  0
 20 16  1  0  0  0  0
 21 19  1  6  0  0  0
 21 18  1  0  0  0  0
 22 24  1  0  0  0  0
 22 23  1  1  0  0  0
 24 25  1  0  0  0  0
 26 24  2  0  0  0  0
 27 30  1  0  0  0  0
 28 29  2  0  0  0  0
 28 30  1  0  0  0  0
 31 42  1  0  0  0  0
 33 28  1  1  0  0  0
 35 37  1  6  0  0  0
 35 31  1  0  0  0  0
 35 42  1  0  0  0  0
 36 39  1  1  0  0  0
 36 40  1  0  0  0  0
 36 33  1  0  0  0  0
 38 32  1  1  0  0  0
 38 41  1  0  0  0  0
 38 35  1  0  0  0  0
 40 33  1  0  0  0  0
 41 36  1  0  0  0  0
 42 40  1  0  0  0  0
 42 34  1  0  0  0  0
M  END
>  <MODEL>
5

>  <REMARK>
 VINA RESULT:      -7.1      1.787      2.842
  Name = 
  11 active torsions:
  status: ('A' for Active; 'I' for Inactive)
    1  A    between atoms: C_1  and  C_14
    2  A    between atoms: C_5  and  C_10
    3  A    between atoms: C_9  and  C_20
    4  A    between atoms: C_9  and  N_33
    5  A    between atoms: C_10  and  C_16
    6  A    between atoms: C_11  and  C_12
    7  A    between atoms: C_12  and  N_31
    8  A    between atoms: C_13  and  C_22
    9  A    between atoms: C_17  and  C_42
   10  A    between atoms: C_22  and  C_23
   11  A    between atoms: C_23  and  N_33
                            x       y       z     vdW  Elec       q    Type
                         _______ _______ _______ _____ _____    ______ ____

>  <TORSDO>
F 11

$$$$
=
 OpenBabel11062413153D

 42 46  0  0  1  0  0  0  0  0999 V2000
  189.7760  175.8910  135.1330 O   0  0  0  0  0  0  0  0  0  0  0  0
  189.6300  177.0700  135.8940 C   0  0  0  0  0  2  0  0  0  0  0  0
  187.1960  176.4260  135.5870 C   0  0  1  0  0  3  0  0  0  0  0  0
  188.1780  177.5830  135.8680 C   0  0  1  0  0  3  0  0  0  0  0  0
  187.6740  175.1440  136.2520 C   0  0  0  0  0  2  0  0  0  0  0  0
  189.1050  174.8180  135.7800 C   0  0  2  0  0  3  0  0  0  0  0  0
  191.2130  173.8500  136.3800 F   0  0  0  0  0  0  0  0  0  0  0  0
  189.9540  174.1550  136.8670 C   0  0  0  0  0  0  0  0  0  0  0  0
  190.0820  175.0140  137.9430 F   0  0  0  0  0  0  0  0  0  0  0  0
  189.3380  172.9950  137.2940 F   0  0  0  0  0  0  0  0  0  0  0  0
  187.8510  178.3900  137.1340 C   0  0  2  0  0  3  0  0  0  0  0  0
  187.4080  179.6660  136.7820 O   0  0  0  0  0  1  0  0  0  0  0  0
  189.0440  178.4910  138.0800 C   0  0  0  0  0  2  0  0  0  0  0  0
  188.5970  178.4850  139.4620 N   0  0  0  0  0  2  0  0  0  0  0  0
  189.3130  177.4210  140.1540 C   0  0  0  0  0  2  0  0  0  0  0  0
  189.8790  176.4960  142.4080 C   0  0  2  0  0  3  0  0  0  0  0  0
  189.4800  177.7450  141.6340 C   0  0  2  0  0  3  0  0  0  0  0  0
  188.1490  178.1170  142.2060 C   0  0  0  0  0  2  0  0  0  0  0  0
  186.8500  177.2050  144.0990 C   0  0  0  0  0  1  0  0  0  0  0  0
  188.8650  176.1780  143.3340 O   0  0  0  0  0  0  0  0  0  0  0  0
  187.7160  176.8570  142.9070 C   0  0  2  0  0  3  0  0  0  0  0  0
  191.2010  176.7270  143.1400 C   0  0  2  0  0  3  0  0  0  0  0  0
  191.6330  175.5460  143.7480 O   0  0  0  0  0  1  0  0  0  0  0  0
  191.0680  177.8020  144.1690 C   0  0  0  0  0  0  0  0  0  0  0  0
  190.3490  177.6290  145.1900 O   0  0  0  0  0  1  0  0  0  0  0  0
  191.7170  179.0160  143.9800 O   0  0  0  0  0  0  0  0  0  0  0  0
  185.7430  176.7230  135.9240 C   0  0  0  0  0  2  0  0  0  0  0  0
  183.9130  175.7220  137.3720 C   0  0  0  0  0  0  0  0  0  0  0  0
  183.6250  174.9810  138.3500 O   0  0  0  0  0  0  0  0  0  0  0  0
  185.2780  175.8040  136.9520 N   0  0  0  0  0  2  0  0  0  0  0  0
  182.4980  177.7930  140.5670 S   0  0  0  0  0  0  0  0  0  0  0  0
  181.7890  180.4490  139.2690 O   0  0  0  0  0  1  0  0  0  0  0  0
  182.8460  176.5910  136.7520 C   0  0  2  0  0  3  0  0  0  0  0  0
  180.8530  175.7740  139.7380 O   0  0  0  0  0  1  0  0  0  0  0  0
  180.9490  178.1800  139.6340 C   0  0  1  0  0  0  0  0  0  0  0  0
  182.7110  178.0260  137.3200 C   0  0  2  0  0  0  0  0  0  0  0  0
  179.7240  178.1590  140.5380 C   0  0  0  0  0  1  0  0  0  0  0  0
  181.0770  179.4110  138.6660 C   0  0  2  0  0  3  0  0  0  0  0  0
  183.7660  178.3450  138.1810 O   0  0  0  0  0  1  0  0  0  0  0  0
  181.7560  176.8870  137.7320 C   0  0  2  0  0  3  0  0  0  0  0  0
  181.6490  179.1120  137.2480 C   0  0  0  0  0  2  0  0  0  0  0  0
  181.5680  176.8710  139.2540 C   0  0  1  0  0  0  0  0  0  0  0  0
  1  6  1  0  0  0  0
  1  2  1  0  0  0  0
  3  4  1  0  0  0  0
  3 27  1  1  0  0  0
  3  5  1  0  0  0  0
  4  2  1  0  0  0  0
  4 11  1  1  0  0  0
  6  5  1  0  0  0  0
  6  8  1  1  0  0  0
  7  8  1  0  0  0  0
  8 10  1  0  0  0  0
  8  9  1  0  0  0  0
 11 12  1  6  0  0  0
 11 13  1  0  0  0  0
 13 14  1  0  0  0  0
 14 15  1  0  0  0  0
 16 22  1  1  0  0  0
 16 20  1  0  0  0  0
 17 15  1  6  0  0  0
 17 18  1  0  0  0  0
 17 16  1  0  0  0  0
 18 21  1  0  0  0  0
 21 20  1  0  0  0  0
 21 19  1  1  0  0  0
 22 23  1  1  0  0  0
 22 24  1  0  0  0  0
 24 25  1  0  0  0  0
 26 24  2  0  0  0  0
 27 30  1  0  0  0  0
 28 29  2  0  0  0  0
 30 28  1  0  0  0  0
 33 36  1  0  0  0  0
 33 28  1  1  0  0  0
 33 40  1  0  0  0  0
 35 37  1  1  0  0  0
 35 31  1  0  0  0  0
 36 40  1  0  0  0  0
 36 39  1  1  0  0  0
 38 32  1  1  0  0  0
 38 35  1  0  0  0  0
 40 42  1  0  0  0  0
 41 36  1  0  0  0  0
 41 38  1  0  0  0  0
 42 35  1  0  0  0  0
 42 34  1  0  0  0  0
 42 31  1  0  0  0  0
M  END
>  <MODEL>
6

>  <REMARK>
 VINA RESULT:      -7.0      3.768      5.929
  Name = 
  11 active torsions:
  status: ('A' for Active; 'I' for Inactive)
    1  A    between atoms: C_1  and  C_14
    2  A    between atoms: C_5  and  C_10
    3  A    between atoms: C_9  and  C_20
    4  A    between atoms: C_9  and  N_33
    5  A    between atoms: C_10  and  C_16
    6  A    between atoms: C_11  and  C_12
    7  A    between atoms: C_12  and  N_31
    8  A    between atoms: C_13  and  C_22
    9  A    between atoms: C_17  and  C_42
   10  A    between atoms: C_22  and  C_23
   11  A    between atoms: C_23  and  N_33
                            x       y       z     vdW  Elec       q    Type
                         _______ _______ _______ _____ _____    ______ ____

>  <TORSDO>
F 11

$$$$
=
 OpenBabel11062413153D

 42 46  0  0  1  0  0  0  0  0999 V2000
  188.4480  176.0250  143.7090 O   0  0  0  0  0  0  0  0  0  0  0  0
  189.0110  176.4760  142.4960 C   0  0  0  0  0  2  0  0  0  0  0  0
  186.9070  177.8900  142.5710 C   0  0  1  0  0  3  0  0  0  0  0  0
  187.9910  177.2740  141.6620 C   0  0  1  0  0  3  0  0  0  0  0  0
  187.5060  178.3300  143.8980 C   0  0  0  0  0  2  0  0  0  0  0  0
  188.2130  177.1340  144.5680 C   0  0  2  0  0  3  0  0  0  0  0  0
  190.3610  176.4990  145.4200 F   0  0  0  0  0  0  0  0  0  0  0  0
  189.4550  177.5450  145.3610 C   0  0  0  0  0  0  0  0  0  0  0  0
  190.0560  178.6300  144.7520 F   0  0  0  0  0  0  0  0  0  0  0  0
  189.0880  177.9010  146.6450 F   0  0  0  0  0  0  0  0  0  0  0  0
  188.6950  178.2880  140.7470 C   0  0  2  0  0  3  0  0  0  0  0  0
  187.8610  178.6220  139.6780 O   0  0  0  0  0  1  0  0  0  0  0  0
  190.0320  177.7690  140.2260 C   0  0  0  0  0  2  0  0  0  0  0  0
  189.8220  176.8430  139.1260 N   0  0  0  0  0  2  0  0  0  0  0  0
  190.5210  177.3730  137.9620 C   0  0  0  0  0  2  0  0  0  0  0  0
  190.1120  174.9780  137.3670 C   0  0  2  0  0  3  0  0  0  0  0  0
  190.7540  176.2850  136.9210 C   0  0  2  0  0  3  0  0  0  0  0  0
  192.2150  175.9700  136.8600 C   0  0  0  0  0  2  0  0  0  0  0  0
  193.4640  173.8580  137.1460 C   0  0  0  0  0  1  0  0  0  0  0  0
  191.1150  174.0060  137.5520 O   0  0  0  0  0  0  0  0  0  0  0  0
  192.3240  174.7060  137.6700 C   0  0  2  0  0  3  0  0  0  0  0  0
  189.1060  174.4980  136.3210 C   0  0  2  0  0  3  0  0  0  0  0  0
  189.2560  175.2210  135.1350 O   0  0  0  0  0  1  0  0  0  0  0  0
  187.7030  174.6320  136.8180 C   0  0  0  0  0  0  0  0  0  0  0  0
  186.9550  173.6210  136.9100 O   0  0  0  0  0  0  0  0  0  0  0  0
  187.2120  175.8880  137.1500 O   0  0  0  0  0  1  0  0  0  0  0  0
  186.0920  179.0040  141.9300 C   0  0  0  0  0  2  0  0  0  0  0  0
  183.6110  178.4850  142.0710 C   0  0  0  0  0  0  0  0  0  0  0  0
  182.5110  178.7230  142.6390 O   0  0  0  0  0  0  0  0  0  0  0  0
  184.7950  179.1030  142.5830 N   0  0  0  0  0  2  0  0  0  0  0  0
  180.5090  180.0320  139.9520 S   0  0  0  0  0  0  0  0  0  0  0  0
  181.5430  179.7330  137.1090 O   0  0  0  0  0  1  0  0  0  0  0  0
  183.6370  177.6620  140.8060 C   0  0  2  0  0  3  0  0  0  0  0  0
  179.9680  177.6140  141.1060 O   0  0  0  0  0  1  0  0  0  0  0  0
  180.4480  178.5000  138.9180 C   0  0  1  0  0  0  0  0  0  0  0  0
  183.3030  178.4110  139.4920 C   0  0  2  0  0  0  0  0  0  0  0  0
  179.0190  178.1110  138.5650 C   0  0  0  0  0  1  0  0  0  0  0  0
  181.4830  178.4870  137.7350 C   0  0  2  0  0  3  0  0  0  0  0  0
  183.2440  179.7950  139.6830 O   0  0  0  0  0  1  0  0  0  0  0  0
  182.2660  177.5310  140.2200 C   0  0  2  0  0  3  0  0  0  0  0  0
  182.9170  177.9850  138.0830 C   0  0  0  0  0  2  0  0  0  0  0  0
  180.9200  178.2600  140.3180 C   0  0  1  0  0  0  0  0  0  0  0  0
  1  6  1  0  0  0  0
  2  1  1  0  0  0  0
  3 27  1  6  0  0  0
  3  5  1  0  0  0  0
  4 11  1  1  0  0  0
  4  2  1  0  0  0  0
  4  3  1  0  0  0  0
  5  6  1  0  0  0  0
  6  8  1  6  0  0  0
  8  7  1  0  0  0  0
  8 10  1  0  0  0  0
  9  8  1  0  0  0  0
 11 12  1  6  0  0  0
 13 11  1  0  0  0  0
 14 13  1  0  0  0  0
 15 14  1  0  0  0  0
 16 22  1  6  0  0  0
 16 20  1  0  0  0  0
 17 16  1  0  0  0  0
 17 15  1  1  0  0  0
 18 17  1  0  0  0  0
 18 21  1  0  0  0  0
 20 21  1  0  0  0  0
 21 19  1  6  0  0  0
 22 23  1  6  0  0  0
 22 24  1  0  0  0  0
 24 25  2  0  0  0  0
 24 26  1  0  0  0  0
 27 30  1  0  0  0  0
 28 30  1  0  0  0  0
 28 29  2  0  0  0  0
 31 42  1  0  0  0  0
 33 28  1  1  0  0  0
 35 37  1  6  0  0  0
 35 31  1  0  0  0  0
 35 42  1  0  0  0  0
 36 39  1  1  0  0  0
 36 40  1  0  0  0  0
 36 33  1  0  0  0  0
 38 32  1  1  0  0  0
 38 41  1  0  0  0  0
 38 35  1  0  0  0  0
 40 42  1  0  0  0  0
 40 33  1  0  0  0  0
 41 36  1  0  0  0  0
 42 34  1  0  0  0  0
M  END
>  <MODEL>
7

>  <REMARK>
 VINA RESULT:      -7.0      2.462      3.449
  Name = 
  11 active torsions:
  status: ('A' for Active; 'I' for Inactive)
    1  A    between atoms: C_1  and  C_14
    2  A    between atoms: C_5  and  C_10
    3  A    between atoms: C_9  and  C_20
    4  A    between atoms: C_9  and  N_33
    5  A    between atoms: C_10  and  C_16
    6  A    between atoms: C_11  and  C_12
    7  A    between atoms: C_12  and  N_31
    8  A    between atoms: C_13  and  C_22
    9  A    between atoms: C_17  and  C_42
   10  A    between atoms: C_22  and  C_23
   11  A    between atoms: C_23  and  N_33
                            x       y       z     vdW  Elec       q    Type
                         _______ _______ _______ _____ _____    ______ ____

>  <TORSDO>
F 11

$$$$
=
 OpenBabel11062413153D

 42 46  0  0  1  0  0  0  0  0999 V2000
  190.3640  176.2540  135.2020 O   0  0  0  0  0  0  0  0  0  0  0  0
  189.8780  177.4210  135.8290 C   0  0  0  0  0  2  0  0  0  0  0  0
  187.8760  175.8880  136.1110 C   0  0  1  0  0  3  0  0  0  0  0  0
  188.3530  177.3540  136.0410 C   0  0  1  0  0  3  0  0  0  0  0  0
  188.9100  175.0210  136.8140 C   0  0  0  0  0  2  0  0  0  0  0  0
  190.2690  175.1550  136.1000 C   0  0  2  0  0  3  0  0  0  0  0  0
  191.5470  173.8000  137.6080 F   0  0  0  0  0  0  0  0  0  0  0  0
  191.4580  175.0680  137.0600 C   0  0  0  0  0  0  0  0  0  0  0  0
  192.6260  175.3480  136.3770 F   0  0  0  0  0  0  0  0  0  0  0  0
  191.3030  175.9920  138.0750 F   0  0  0  0  0  0  0  0  0  0  0  0
  187.9220  178.2130  137.2410 C   0  0  2  0  0  3  0  0  0  0  0  0
  187.2900  179.3730  136.7900 O   0  0  0  0  0  1  0  0  0  0  0  0
  189.0950  178.5730  138.1470 C   0  0  0  0  0  2  0  0  0  0  0  0
  188.9830  177.8810  139.4200 N   0  0  0  0  0  2  0  0  0  0  0  0
  187.7030  178.2470  140.0120 C   0  0  0  0  0  2  0  0  0  0  0  0
  188.1640  177.3640  142.3060 C   0  0  2  0  0  3  0  0  0  0  0  0
  187.8630  178.6090  141.4830 C   0  0  2  0  0  3  0  0  0  0  0  0
  186.5500  179.0880  142.0150 C   0  0  0  0  0  2  0  0  0  0  0  0
  185.1590  178.3300  143.9110 C   0  0  0  0  0  1  0  0  0  0  0  0
  187.1140  177.1460  143.2210 O   0  0  0  0  0  0  0  0  0  0  0  0
  186.0210  177.8850  142.7480 C   0  0  2  0  0  3  0  0  0  0  0  0
  189.4850  177.5320  143.0570 C   0  0  2  0  0  3  0  0  0  0  0  0
  189.9320  178.8520  142.9640 O   0  0  0  0  0  1  0  0  0  0  0  0
  190.5310  176.6080  142.5240 C   0  0  0  0  0  0  0  0  0  0  0  0
  191.4410  177.0380  141.7640 O   0  0  0  0  0  0  0  0  0  0  0  0
  190.4790  175.2570  142.8430 O   0  0  0  0  0  1  0  0  0  0  0  0
  186.4880  175.6940  136.7030 C   0  0  0  0  0  2  0  0  0  0  0  0
  184.4130  177.0240  136.0930 C   0  0  0  0  0  0  0  0  0  0  0  0
  183.5210  177.2560  135.2350 O   0  0  0  0  0  0  0  0  0  0  0  0
  185.4810  176.1350  135.7510 N   0  0  0  0  0  2  0  0  0  0  0  0
  180.5720  176.0920  137.0320 S   0  0  0  0  0  0  0  0  0  0  0  0
  180.8080  175.6080  140.0240 O   0  0  0  0  0  1  0  0  0  0  0  0
  184.2730  177.5830  137.4890 C   0  0  2  0  0  3  0  0  0  0  0  0
  180.9500  178.7210  136.3860 O   0  0  0  0  0  1  0  0  0  0  0  0
  180.5800  177.3840  138.3560 C   0  0  1  0  0  0  0  0  0  0  0  0
  183.4210  176.7520  138.4800 C   0  0  2  0  0  0  0  0  0  0  0  0
  179.2390  178.0980  138.4570 C   0  0  0  0  0  1  0  0  0  0  0  0
  181.2150  176.9050  139.7110 C   0  0  2  0  0  3  0  0  0  0  0  0
  183.0990  175.4940  137.9610 O   0  0  0  0  0  1  0  0  0  0  0  0
  182.8620  177.9980  137.7630 C   0  0  2  0  0  3  0  0  0  0  0  0
  182.7640  177.0300  139.8240 C   0  0  0  0  0  2  0  0  0  0  0  0
  181.4670  177.7090  137.1950 C   0  0  1  0  0  0  0  0  0  0  0  0
  1  2  1  0  0  0  0
  1  6  1  0  0  0  0
  2  4  1  0  0  0  0
  3 27  1  1  0  0  0
  3  5  1  0  0  0  0
  4  3  1  0  0  0  0
  4 11  1  1  0  0  0
  6  5  1  0  0  0  0
  6  8  1  1  0  0  0
  8  7  1  0  0  0  0
  8 10  1  0  0  0  0
  9  8  1  0  0  0  0
 11 12  1  6  0  0  0
 11 13  1  0  0  0  0
 13 14  1  0  0  0  0
 14 15  1  0  0  0  0
 16 22  1  1  0  0  0
 16 20  1  0  0  0  0
 17 15  1  6  0  0  0
 17 18  1  0  0  0  0
 17 16  1  0  0  0  0
 18 21  1  0  0  0  0
 21 20  1  0  0  0  0
 21 19  1  1  0  0  0
 22 23  1  6  0  0  0
 24 26  1  0  0  0  0
 24 22  1  0  0  0  0
 25 24  2  0  0  0  0
 29 28  2  0  0  0  0
 30 28  1  0  0  0  0
 30 27  1  0  0  0  0
 31 42  1  0  0  0  0
 31 35  1  0  0  0  0
 33 28  1  6  0  0  0
 33 40  1  0  0  0  0
 33 36  1  0  0  0  0
 34 42  1  0  0  0  0
 35 37  1  1  0  0  0
 35 38  1  0  0  0  0
 36 39  1  6  0  0  0
 36 41  1  0  0  0  0
 38 41  1  0  0  0  0
 38 32  1  6  0  0  0
 40 36  1  0  0  0  0
 42 40  1  0  0  0  0
 42 35  1  0  0  0  0
M  END
>  <MODEL>
8

>  <REMARK>
 VINA RESULT:      -7.0      3.679      6.331
  Name = 
  11 active torsions:
  status: ('A' for Active; 'I' for Inactive)
    1  A    between atoms: C_1  and  C_14
    2  A    between atoms: C_5  and  C_10
    3  A    between atoms: C_9  and  C_20
    4  A    between atoms: C_9  and  N_33
    5  A    between atoms: C_10  and  C_16
    6  A    between atoms: C_11  and  C_12
    7  A    between atoms: C_12  and  N_31
    8  A    between atoms: C_13  and  C_22
    9  A    between atoms: C_17  and  C_42
   10  A    between atoms: C_22  and  C_23
   11  A    between atoms: C_23  and  N_33
                            x       y       z     vdW  Elec       q    Type
                         _______ _______ _______ _____ _____    ______ ____

>  <TORSDO>
F 11

$$$$
=
 OpenBabel11062413153D

 42 46  0  0  1  0  0  0  0  0999 V2000
  181.4010  178.4980  139.7780 O   0  0  0  0  0  0  0  0  0  0  0  0
  182.0590  178.7140  141.0070 C   0  0  0  0  0  2  0  0  0  0  0  0
  184.0470  178.2310  139.5070 C   0  0  1  0  0  3  0  0  0  0  0  0
  183.5200  178.2270  140.9580 C   0  0  1  0  0  3  0  0  0  0  0  0
  183.4770  179.4090  138.7320 C   0  0  0  0  0  2  0  0  0  0  0  0
  181.9370  179.3690  138.7900 C   0  0  2  0  0  3  0  0  0  0  0  0
  182.2800  181.7390  138.7120 F   0  0  0  0  0  0  0  0  0  0  0  0
  181.3050  180.7620  138.8200 C   0  0  0  0  0  0  0  0  0  0  0  0
  180.4170  180.8920  137.7690 F   0  0  0  0  0  0  0  0  0  0  0  0
  180.6180  180.9340  140.0060 F   0  0  0  0  0  0  0  0  0  0  0  0
  184.3990  179.0090  141.9480 C   0  0  2  0  0  3  0  0  0  0  0  0
  185.4670  179.5990  141.2700 O   0  0  0  0  0  1  0  0  0  0  0  0
  184.9180  178.1300  143.0810 C   0  0  0  0  0  2  0  0  0  0  0  0
  186.3570  177.9600  142.9730 N   0  0  0  0  0  2  0  0  0  0  0  0
  186.7980  177.1740  144.1180 C   0  0  0  0  0  2  0  0  0  0  0  0
  189.0670  176.9090  145.1370 C   0  0  2  0  0  3  0  0  0  0  0  0
  187.9250  177.8790  144.8650 C   0  0  2  0  0  3  0  0  0  0  0  0
  187.4430  178.2650  146.2270 C   0  0  0  0  0  2  0  0  0  0  0  0
  188.2970  177.7550  148.4880 C   0  0  0  0  0  1  0  0  0  0  0  0
  189.2200  176.7490  146.5290 O   0  0  0  0  0  0  0  0  0  0  0  0
  188.0230  177.1920  147.1090 C   0  0  2  0  0  3  0  0  0  0  0  0
  190.3650  177.4360  144.5250 C   0  0  2  0  0  3  0  0  0  0  0  0
  190.2210  178.7760  144.1580 O   0  0  0  0  0  1  0  0  0  0  0  0
  190.7680  176.6280  143.3340 C   0  0  0  0  0  0  0  0  0  0  0  0
  189.9690  175.7990  142.8210 O   0  0  0  0  0  1  0  0  0  0  0  0
  192.0470  176.7710  142.8110 O   0  0  0  0  0  0  0  0  0  0  0  0
  185.5610  178.1570  139.3760 C   0  0  0  0  0  2  0  0  0  0  0  0
  187.3350  178.7590  137.6630 C   0  0  0  0  0  0  0  0  0  0  0  0
  187.6120  179.3780  136.6000 O   0  0  0  0  0  0  0  0  0  0  0  0
  185.9740  178.7270  138.1030 N   0  0  0  0  0  2  0  0  0  0  0  0
  188.6430  175.6660  135.3760 S   0  0  0  0  0  0  0  0  0  0  0  0
  191.6060  175.6560  136.0550 O   0  0  0  0  0  1  0  0  0  0  0  0
  188.4470  178.1780  138.5020 C   0  0  2  0  0  3  0  0  0  0  0  0
  187.1020  174.9010  137.4990 O   0  0  0  0  0  1  0  0  0  0  0  0
  189.4260  174.8940  136.8630 C   0  0  1  0  0  0  0  0  0  0  0  0
  189.6890  177.6610  137.7360 C   0  0  2  0  0  0  0  0  0  0  0  0
  189.3040  173.3770  136.8430 C   0  0  0  0  0  1  0  0  0  0  0  0
  190.8450  175.4720  137.2100 C   0  0  2  0  0  3  0  0  0  0  0  0
  189.6560  178.0240  136.3860 O   0  0  0  0  0  1  0  0  0  0  0  0
  188.5940  176.7090  138.2600 C   0  0  2  0  0  3  0  0  0  0  0  0
  190.8660  176.7610  138.0840 C   0  0  0  0  0  2  0  0  0  0  0  0
  188.2020  175.6970  137.1770 C   0  0  1  0  0  0  0  0  0  0  0  0
  1  2  1  0  0  0  0
  3 27  1  1  0  0  0
  3  4  1  0  0  0  0
  4  2  1  0  0  0  0
  4 11  1  1  0  0  0
  5  6  1  0  0  0  0
  5  3  1  0  0  0  0
  6  8  1  1  0  0  0
  6  1  1  0  0  0  0
  7  8  1  0  0  0  0
  8 10  1  0  0  0  0
  9  8  1  0  0  0  0
 11 12  1  6  0  0  0
 11 13  1  0  0  0  0
 14 13  1  0  0  0  0
 14 15  1  0  0  0  0
 16 22  1  1  0  0  0
 16 20  1  0  0  0  0
 17 15  1  6  0  0  0
 17 16  1  0  0  0  0
 17 18  1  0  0  0  0
 18 21  1  0  0  0  0
 20 21  1  0  0  0  0
 21 19  1  1  0  0  0
 22 23  1  6  0  0  0
 24 22  1  0  0  0  0
 25 24  1  0  0  0  0
 26 24  2  0  0  0  0
 28 30  1  0  0  0  0
 29 28  2  0  0  0  0
 30 27  1  0  0  0  0
 31 35  1  0  0  0  0
 31 42  1  0  0  0  0
 33 28  1  6  0  0  0
 35 37  1  1  0  0  0
 35 42  1  0  0  0  0
 35 38  1  0  0  0  0
 36 39  1  6  0  0  0
 36 41  1  0  0  0  0
 36 40  1  0  0  0  0
 36 33  1  0  0  0  0
 38 32  1  6  0  0  0
 38 41  1  0  0  0  0
 40 33  1  0  0  0  0
 42 34  1  0  0  0  0
 42 40  1  0  0  0  0
M  END
>  <MODEL>
9

>  <REMARK>
 VINA RESULT:      -6.9      4.078      7.721
  Name = 
  11 active torsions:
  status: ('A' for Active; 'I' for Inactive)
    1  A    between atoms: C_1  and  C_14
    2  A    between atoms: C_5  and  C_10
    3  A    between atoms: C_9  and  C_20
    4  A    between atoms: C_9  and  N_33
    5  A    between atoms: C_10  and  C_16
    6  A    between atoms: C_11  and  C_12
    7  A    between atoms: C_12  and  N_31
    8  A    between atoms: C_13  and  C_22
    9  A    between atoms: C_17  and  C_42
   10  A    between atoms: C_22  and  C_23
   11  A    between atoms: C_23  and  N_33
                            x       y       z     vdW  Elec       q    Type
                         _______ _______ _______ _____ _____    ______ ____

>  <TORSDO>
F 11

$$$$
