=
 OpenBabel11062414463D

 27 30  0  0  1  0  0  0  0  0999 V2000
  186.8460  177.6710  143.5380 C   0  0  0  0  0  2  0  0  0  0  0  0
  189.5410  176.4670  136.2370 O   0  0  0  0  0  0  0  0  0  0  0  0
  183.9300  179.2980  140.7610 C   0  0  0  0  0  2  0  0  0  0  0  0
  189.3530  177.3520  137.1110 C   0  0  0  0  0  0  0  0  0  0  0  0
  188.1130  177.1300  142.8710 C   0  0  1  0  0  3  0  0  0  0  0  0
  189.6870  177.5630  140.9660 C   0  0  0  0  0  0  0  0  0  0  0  0
  188.6920  178.1700  141.8970 C   0  0  1  0  0  3  0  0  0  0  0  0
  190.8190  177.1070  141.2760 O   0  0  0  0  0  0  0  0  0  0  0  0
  187.6530  178.5650  140.9470 N   0  0  0  0  0  0  0  0  0  0  0  0
  189.1470  177.6510  139.6240 C   0  0  0  0  0  0  0  0  0  0  0  0
  184.5550  177.8780  142.6900 C   0  0  0  0  0  3  0  0  0  0  0  0
  183.5980  178.3590  141.7850 O   0  0  0  0  0  0  0  0  0  0  0  0
  187.9810  178.1990  139.6330 N   0  0  0  0  0  0  0  0  0  0  0  0
  185.8540  178.1310  142.5150 C   0  0  0  0  0  0  0  0  0  0  0  0
  186.3230  179.0040  141.3740 C   0  0  2  0  0  3  0  0  0  0  0  0
  185.3220  179.0030  140.2140 C   0  0  0  0  0  2  0  0  0  0  0  0
  189.7630  177.0970  138.4580 N   0  0  0  0  0  2  0  0  0  0  0  0
  189.3100  179.7470  137.1290 F   0  0  0  0  0  0  0  0  0  0  0  0
  188.7950  178.5710  136.7280 O   0  0  0  0  0  0  0  0  0  0  0  0
  189.1170  176.7840  143.9560 C   0  0  0  0  0  2  0  0  0  0  0  0
  189.8360  177.9790  144.3580 N   0  0  0  0  0  2  0  0  0  0  0  0
  189.4540  178.2560  145.6260 O   0  0  0  0  0  0  0  0  0  0  0  0
  189.7990  177.1170  146.3540 C   0  0  0  0  0  2  0  0  0  0  0  0
  187.6270  178.6280  148.1030 C   0  0  0  0  0  2  0  0  0  0  0  0
  187.4740  177.4340  147.1800 C   0  0  0  0  0  2  0  0  0  0  0  0
  188.8710  176.9700  147.5460 C   0  0  0  0  0  3  0  0  0  0  0  0
  189.0220  178.1630  148.4680 C   0  0  0  0  0  2  0  0  0  0  0  0
  2  4  2  0  0  0  0
  3 12  1  0  0  0  0
  4 17  1  0  0  0  0
  5  1  1  0  0  0  0
  5 20  1  1  0  0  0
  6  8  2  0  0  0  0
  7  6  1  6  0  0  0
  7  5  1  0  0  0  0
  9 15  1  0  0  0  0
  9  7  1  0  0  0  0
 10 13  2  0  0  0  0
 10  6  1  0  0  0  0
 12 11  1  0  0  0  0
 13  9  1  0  0  0  0
 14 11  2  0  0  0  0
 14  1  1  0  0  0  0
 15 16  1  6  0  0  0
 15 14  1  0  0  0  0
 16  3  1  0  0  0  0
 17 10  1  0  0  0  0
 19  4  1  0  0  0  0
 19 18  1  0  0  0  0
 20 21  1  0  0  0  0
 21 22  1  0  0  0  0
 22 23  1  0  0  0  0
 23 26  1  0  0  0  0
 24 27  1  0  0  0  0
 25 26  1  0  0  0  0
 25 24  1  0  0  0  0
 26 27  1  0  0  0  0
M  END
>  <MODEL>
1

>  <REMARK>
 VINA RESULT:      -8.0      0.000      0.000
  Name = 
  6 active torsions:
  status: ('A' for Active; 'I' for Inactive)
    1  A    between atoms: C_2  and  C_7
    2  A    between atoms: C_2  and  N_26
    3  A    between atoms: C_6  and  O_27
    4  A    between atoms: C_12  and  C_13
    5  A    between atoms: C_12  and  O_22
    6  A    between atoms: O_22  and  N_26
                            x       y       z     vdW  Elec       q    Type
                         _______ _______ _______ _____ _____    ______ ____

>  <TORSDO>
F 6

$$$$
=
 OpenBabel11062414463D

 27 30  0  0  1  0  0  0  0  0999 V2000
  184.7890  178.6040  142.5650 C   0  0  0  0  0  2  0  0  0  0  0  0
  192.4080  179.2040  144.4660 O   0  0  0  0  0  0  0  0  0  0  0  0
  185.1240  178.1450  146.8700 C   0  0  0  0  0  2  0  0  0  0  0  0
  191.4570  178.3890  144.3510 C   0  0  0  0  0  0  0  0  0  0  0  0
  186.1320  178.7340  141.8420 C   0  0  1  0  0  3  0  0  0  0  0  0
  188.4980  177.9010  141.8960 C   0  0  0  0  0  0  0  0  0  0  0  0
  187.0860  177.6090  142.2760 C   0  0  1  0  0  3  0  0  0  0  0  0
  188.9620  177.9500  140.7260 O   0  0  0  0  0  0  0  0  0  0  0  0
  187.2020  177.6180  143.7350 N   0  0  0  0  0  0  0  0  0  0  0  0
  189.2630  178.0560  143.1170 C   0  0  0  0  0  0  0  0  0  0  0  0
  184.1410  179.1930  144.8540 C   0  0  0  0  0  3  0  0  0  0  0  0
  184.2540  179.0930  146.2480 O   0  0  0  0  0  0  0  0  0  0  0  0
  188.5080  177.9180  144.1520 N   0  0  0  0  0  0  0  0  0  0  0  0
  184.9810  178.5400  144.0480 C   0  0  0  0  0  0  0  0  0  0  0  0
  186.0330  177.6160  144.6160 C   0  0  2  0  0  3  0  0  0  0  0  0
  186.4020  177.9970  146.0530 C   0  0  0  0  0  2  0  0  0  0  0  0
  190.6410  178.4330  143.1760 N   0  0  0  0  0  2  0  0  0  0  0  0
  192.0330  176.3410  145.4520 F   0  0  0  0  0  0  0  0  0  0  0  0
  191.2590  177.4360  145.3500 O   0  0  0  0  0  0  0  0  0  0  0  0
  185.8800  178.6840  140.3460 C   0  0  0  0  0  2  0  0  0  0  0  0
  184.9140  179.7030  139.9770 N   0  0  0  0  0  2  0  0  0  0  0  0
  184.2820  179.2590  138.8660 O   0  0  0  0  0  0  0  0  0  0  0  0
  182.9460  179.6110  139.0570 C   0  0  0  0  0  2  0  0  0  0  0  0
  182.7170  176.5410  139.8190 C   0  0  0  0  0  2  0  0  0  0  0  0
  181.8850  177.7230  140.2800 C   0  0  0  0  0  2  0  0  0  0  0  0
  182.0660  178.3810  138.9260 C   0  0  0  0  0  3  0  0  0  0  0  0
  182.8980  177.2000  138.4670 C   0  0  0  0  0  2  0  0  0  0  0  0
  1 14  1  0  0  0  0
  4  2  2  0  0  0  0
  4 19  1  0  0  0  0
  5 20  1  6  0  0  0
  5  7  1  0  0  0  0
  5  1  1  0  0  0  0
  6 10  1  0  0  0  0
  7  6  1  6  0  0  0
  7  9  1  0  0  0  0
  8  6  2  0  0  0  0
  9 13  1  0  0  0  0
  9 15  1  0  0  0  0
 10 17  1  0  0  0  0
 10 13  2  0  0  0  0
 11 12  1  0  0  0  0
 12  3  1  0  0  0  0
 14 15  1  0  0  0  0
 14 11  2  0  0  0  0
 15 16  1  1  0  0  0
 16  3  1  0  0  0  0
 17  4  1  0  0  0  0
 19 18  1  0  0  0  0
 21 20  1  0  0  0  0
 22 23  1  0  0  0  0
 22 21  1  0  0  0  0
 24 25  1  0  0  0  0
 26 23  1  0  0  0  0
 26 25  1  0  0  0  0
 27 26  1  0  0  0  0
 27 24  1  0  0  0  0
M  END
>  <MODEL>
2

>  <REMARK>
 VINA RESULT:      -8.0      3.198      6.699
  Name = 
  6 active torsions:
  status: ('A' for Active; 'I' for Inactive)
    1  A    between atoms: C_2  and  C_7
    2  A    between atoms: C_2  and  N_26
    3  A    between atoms: C_6  and  O_27
    4  A    between atoms: C_12  and  C_13
    5  A    between atoms: C_12  and  O_22
    6  A    between atoms: O_22  and  N_26
                            x       y       z     vdW  Elec       q    Type
                         _______ _______ _______ _____ _____    ______ ____

>  <TORSDO>
F 6

$$$$
=
 OpenBabel11062414463D

 27 30  0  0  1  0  0  0  0  0999 V2000
  188.2680  177.9730  141.1410 C   0  0  0  0  0  2  0  0  0  0  0  0
  189.8040  178.4400  148.8510 O   0  0  0  0  0  0  0  0  0  0  0  0
  184.5150  178.7030  143.2010 C   0  0  0  0  0  2  0  0  0  0  0  0
  189.2920  177.7080  147.9660 C   0  0  0  0  0  0  0  0  0  0  0  0
  189.4680  177.7840  142.0730 C   0  0  1  0  0  3  0  0  0  0  0  0
  190.1190  176.8050  144.2890 C   0  0  0  0  0  0  0  0  0  0  0  0
  189.1440  176.7490  143.1630 C   0  0  1  0  0  3  0  0  0  0  0  0
  191.3370  176.4880  144.2390 O   0  0  0  0  0  0  0  0  0  0  0  0
  187.9200  177.1530  143.8560 N   0  0  0  0  0  0  0  0  0  0  0  0
  189.4020  177.2290  145.4750 C   0  0  0  0  0  0  0  0  0  0  0  0
  186.1850  179.2270  141.4500 C   0  0  0  0  0  3  0  0  0  0  0  0
  184.9850  179.5090  142.1190 O   0  0  0  0  0  0  0  0  0  0  0  0
  188.1610  177.4480  145.2070 N   0  0  0  0  0  0  0  0  0  0  0  0
  187.0320  178.3080  141.9180 C   0  0  0  0  0  0  0  0  0  0  0  0
  186.6890  177.4940  143.1430 C   0  0  2  0  0  3  0  0  0  0  0  0
  185.6910  178.2270  144.0460 C   0  0  0  0  0  2  0  0  0  0  0  0
  190.0050  177.4920  146.7440 N   0  0  0  0  0  2  0  0  0  0  0  0
  186.9010  177.7500  148.1130 F   0  0  0  0  0  0  0  0  0  0  0  0
  188.0680  177.0900  148.2240 O   0  0  0  0  0  0  0  0  0  0  0  0
  190.6580  177.3420  141.2400 C   0  0  0  0  0  2  0  0  0  0  0  0
  190.2540  176.2860  140.3300 N   0  0  0  0  0  2  0  0  0  0  0  0
  190.8230  176.5630  139.1340 O   0  0  0  0  0  0  0  0  0  0  0  0
  189.7940  176.3980  138.2070 C   0  0  0  0  0  2  0  0  0  0  0  0
  188.0050  178.5830  136.7640 C   0  0  0  0  0  2  0  0  0  0  0  0
  189.1310  178.7540  137.7660 C   0  0  0  0  0  2  0  0  0  0  0  0
  189.8250  177.5310  137.1980 C   0  0  0  0  0  3  0  0  0  0  0  0
  188.6990  177.3610  136.1970 C   0  0  0  0  0  2  0  0  0  0  0  0
  1 14  1  0  0  0  0
  1  5  1  0  0  0  0
  3 16  1  0  0  0  0
  4 19  1  0  0  0  0
  4  2  2  0  0  0  0
  5 20  1  6  0  0  0
  5  7  1  0  0  0  0
  6 10  1  0  0  0  0
  7  9  1  0  0  0  0
  7  6  1  1  0  0  0
  8  6  2  0  0  0  0
  9 13  1  0  0  0  0
 10 17  1  0  0  0  0
 11 14  2  0  0  0  0
 11 12  1  0  0  0  0
 12  3  1  0  0  0  0
 13 10  2  0  0  0  0
 14 15  1  0  0  0  0
 15  9  1  0  0  0  0
 15 16  1  1  0  0  0
 17  4  1  0  0  0  0
 18 19  1  0  0  0  0
 21 20  1  0  0  0  0
 22 21  1  0  0  0  0
 23 22  1  0  0  0  0
 24 25  1  0  0  0  0
 26 25  1  0  0  0  0
 26 23  1  0  0  0  0
 27 24  1  0  0  0  0
 27 26  1  0  0  0  0
M  END
>  <MODEL>
3

>  <REMARK>
 VINA RESULT:      -7.9      2.901      7.178
  Name = 
  6 active torsions:
  status: ('A' for Active; 'I' for Inactive)
    1  A    between atoms: C_2  and  C_7
    2  A    between atoms: C_2  and  N_26
    3  A    between atoms: C_6  and  O_27
    4  A    between atoms: C_12  and  C_13
    5  A    between atoms: C_12  and  O_22
    6  A    between atoms: O_22  and  N_26
                            x       y       z     vdW  Elec       q    Type
                         _______ _______ _______ _____ _____    ______ ____

>  <TORSDO>
F 6

$$$$
=
 OpenBabel11062414463D

 27 30  0  0  1  0  0  0  0  0999 V2000
  184.5500  178.1530  142.6550 C   0  0  0  0  0  2  0  0  0  0  0  0
  190.2780  176.8450  137.4100 O   0  0  0  0  0  0  0  0  0  0  0  0
  182.9160  178.8710  138.6960 C   0  0  0  0  0  2  0  0  0  0  0  0
  189.6030  177.7510  137.9640 C   0  0  0  0  0  0  0  0  0  0  0  0
  186.0450  177.8250  142.6650 C   0  0  1  0  0  3  0  0  0  0  0  0
  188.2050  178.3920  141.5210 C   0  0  0  0  0  0  0  0  0  0  0  0
  186.8290  178.8650  141.8470 C   0  0  1  0  0  3  0  0  0  0  0  0
  189.1460  178.2100  142.3380 O   0  0  0  0  0  0  0  0  0  0  0  0
  186.2560  178.9450  140.5030 N   0  0  0  0  0  0  0  0  0  0  0  0
  188.2910  178.2380  140.0830 C   0  0  0  0  0  0  0  0  0  0  0  0
  182.8470  177.8010  140.9270 C   0  0  0  0  0  3  0  0  0  0  0  0
  182.3160  177.9850  139.6430 O   0  0  0  0  0  0  0  0  0  0  0  0
  187.1690  178.5310  139.5210 N   0  0  0  0  0  0  0  0  0  0  0  0
  184.0420  178.2990  141.2540 C   0  0  0  0  0  0  0  0  0  0  0  0
  184.8240  179.1380  140.2700 C   0  0  2  0  0  3  0  0  0  0  0  0
  184.4340  178.8200  138.8220 C   0  0  0  0  0  2  0  0  0  0  0  0
  189.4240  177.7160  139.3830 N   0  0  0  0  0  2  0  0  0  0  0  0
  187.9850  178.6350  136.4340 F   0  0  0  0  0  0  0  0  0  0  0  0
  189.0930  178.7870  137.1820 O   0  0  0  0  0  0  0  0  0  0  0  0
  186.5210  177.7980  144.1070 C   0  0  0  0  0  2  0  0  0  0  0  0
  185.5770  178.5100  144.9480 N   0  0  0  0  0  2  0  0  0  0  0  0
  186.0440  178.4280  146.2150 O   0  0  0  0  0  0  0  0  0  0  0  0
  187.3210  177.8800  146.0850 C   0  0  0  0  0  2  0  0  0  0  0  0
  189.4450  178.1430  148.4250 C   0  0  0  0  0  2  0  0  0  0  0  0
  187.9470  178.3790  148.4390 C   0  0  0  0  0  2  0  0  0  0  0  0
  187.7620  177.2830  147.4080 C   0  0  0  0  0  3  0  0  0  0  0  0
  189.2590  177.0480  147.3950 C   0  0  0  0  0  2  0  0  0  0  0  0
  1  5  1  0  0  0  0
  2  4  2  0  0  0  0
  3 16  1  0  0  0  0
  3 12  1  0  0  0  0
  4 17  1  0  0  0  0
  5 20  1  1  0  0  0
  6  8  2  0  0  0  0
  7  6  1  6  0  0  0
  7  5  1  0  0  0  0
  9  7  1  0  0  0  0
 10  6  1  0  0  0  0
 11 14  2  0  0  0  0
 12 11  1  0  0  0  0
 13 10  2  0  0  0  0
 13  9  1  0  0  0  0
 14  1  1  0  0  0  0
 15 16  1  6  0  0  0
 15  9  1  0  0  0  0
 15 14  1  0  0  0  0
 17 10  1  0  0  0  0
 18 19  1  0  0  0  0
 19  4  1  0  0  0  0
 20 21  1  0  0  0  0
 21 22  1  0  0  0  0
 23 22  1  0  0  0  0
 23 26  1  0  0  0  0
 24 25  1  0  0  0  0
 26 25  1  0  0  0  0
 27 26  1  0  0  0  0
 27 24  1  0  0  0  0
M  END
>  <MODEL>
4

>  <REMARK>
 VINA RESULT:      -7.8      1.647      2.112
  Name = 
  6 active torsions:
  status: ('A' for Active; 'I' for Inactive)
    1  A    between atoms: C_2  and  C_7
    2  A    between atoms: C_2  and  N_26
    3  A    between atoms: C_6  and  O_27
    4  A    between atoms: C_12  and  C_13
    5  A    between atoms: C_12  and  O_22
    6  A    between atoms: O_22  and  N_26
                            x       y       z     vdW  Elec       q    Type
                         _______ _______ _______ _____ _____    ______ ____

>  <TORSDO>
F 6

$$$$
=
 OpenBabel11062414463D

 27 30  0  0  1  0  0  0  0  0999 V2000
  186.7480  178.5250  141.5000 C   0  0  0  0  0  2  0  0  0  0  0  0
  191.6750  177.2860  147.5180 O   0  0  0  0  0  0  0  0  0  0  0  0
  184.4490  178.7910  145.1740 C   0  0  0  0  0  2  0  0  0  0  0  0
  190.7420  176.7660  146.8520 C   0  0  0  0  0  0  0  0  0  0  0  0
  188.2140  178.1350  141.7040 C   0  0  1  0  0  3  0  0  0  0  0  0
  189.7000  176.6920  143.1200 C   0  0  0  0  0  0  0  0  0  0  0  0
  188.3170  176.8860  142.5950 C   0  0  1  0  0  3  0  0  0  0  0  0
  190.7200  176.3920  142.4460 O   0  0  0  0  0  0  0  0  0  0  0  0
  187.5960  177.1300  143.8450 N   0  0  0  0  0  0  0  0  0  0  0  0
  189.6520  176.8460  144.5600 C   0  0  0  0  0  0  0  0  0  0  0  0
  185.1790  179.6840  142.9840 C   0  0  0  0  0  3  0  0  0  0  0  0
  184.4540  179.8140  144.1770 O   0  0  0  0  0  0  0  0  0  0  0  0
  188.4560  177.1200  144.9540 N   0  0  0  0  0  0  0  0  0  0  0  0
  186.0460  178.6840  142.8130 C   0  0  0  0  0  0  0  0  0  0  0  0
  186.2170  177.6210  143.8730 C   0  0  2  0  0  3  0  0  0  0  0  0
  185.8240  178.1390  145.2600 C   0  0  0  0  0  2  0  0  0  0  0  0
  190.7920  176.8230  145.4230 N   0  0  0  0  0  2  0  0  0  0  0  0
  188.6910  176.7770  148.0900 F   0  0  0  0  0  0  0  0  0  0  0  0
  189.7140  176.1090  147.5290 O   0  0  0  0  0  0  0  0  0  0  0  0
  188.8390  177.8840  140.3440 C   0  0  0  0  0  2  0  0  0  0  0  0
  188.1080  178.6160  139.3260 N   0  0  0  0  0  2  0  0  0  0  0  0
  189.0300  179.1520  138.4920 O   0  0  0  0  0  0  0  0  0  0  0  0
  188.9880  178.3430  137.3560 C   0  0  0  0  0  2  0  0  0  0  0  0
  187.1370  176.7750  135.3130 C   0  0  0  0  0  2  0  0  0  0  0  0
  187.5110  176.4380  136.7440 C   0  0  0  0  0  2  0  0  0  0  0  0
  187.5580  177.9150  137.0820 C   0  0  0  0  0  3  0  0  0  0  0  0
  187.1830  178.2510  135.6520 C   0  0  0  0  0  2  0  0  0  0  0  0
  1  5  1  0  0  0  0
  1 14  1  0  0  0  0
  3 16  1  0  0  0  0
  4  2  2  0  0  0  0
  4 19  1  0  0  0  0
  5 20  1  6  0  0  0
  5  7  1  0  0  0  0
  6 10  1  0  0  0  0
  7  6  1  1  0  0  0
  7  9  1  0  0  0  0
  8  6  2  0  0  0  0
  9 15  1  0  0  0  0
  9 13  1  0  0  0  0
 10 13  2  0  0  0  0
 10 17  1  0  0  0  0
 11 12  1  0  0  0  0
 12  3  1  0  0  0  0
 14 11  2  0  0  0  0
 14 15  1  0  0  0  0
 15 16  1  1  0  0  0
 17  4  1  0  0  0  0
 19 18  1  0  0  0  0
 21 20  1  0  0  0  0
 22 21  1  0  0  0  0
 23 22  1  0  0  0  0
 24 27  1  0  0  0  0
 24 25  1  0  0  0  0
 25 26  1  0  0  0  0
 26 23  1  0  0  0  0
 27 26  1  0  0  0  0
M  END
>  <MODEL>
5

>  <REMARK>
 VINA RESULT:      -7.7      2.895      7.244
  Name = 
  6 active torsions:
  status: ('A' for Active; 'I' for Inactive)
    1  A    between atoms: C_2  and  C_7
    2  A    between atoms: C_2  and  N_26
    3  A    between atoms: C_6  and  O_27
    4  A    between atoms: C_12  and  C_13
    5  A    between atoms: C_12  and  O_22
    6  A    between atoms: O_22  and  N_26
                            x       y       z     vdW  Elec       q    Type
                         _______ _______ _______ _____ _____    ______ ____

>  <TORSDO>
F 6

$$$$
=
 OpenBabel11062414463D

 27 30  0  0  1  0  0  0  0  0999 V2000
  187.6870  178.2530  143.5060 C   0  0  0  0  0  2  0  0  0  0  0  0
  180.3840  177.5130  140.6520 O   0  0  0  0  0  0  0  0  0  0  0  0
  184.9300  178.4020  146.8580 C   0  0  0  0  0  2  0  0  0  0  0  0
  181.1940  178.3350  141.1520 C   0  0  0  0  0  0  0  0  0  0  0  0
  187.0060  178.1750  142.1370 C   0  0  1  0  0  3  0  0  0  0  0  0
  185.0020  178.9990  140.8720 C   0  0  0  0  0  0  0  0  0  0  0  0
  185.9290  179.2650  142.0100 C   0  0  1  0  0  3  0  0  0  0  0  0
  185.2940  179.0350  139.6470 O   0  0  0  0  0  0  0  0  0  0  0  0
  185.0000  179.1510  143.1350 N   0  0  0  0  0  0  0  0  0  0  0  0
  183.6840  178.7570  141.4220 C   0  0  0  0  0  0  0  0  0  0  0  0
  186.9320  177.5010  145.7130 C   0  0  0  0  0  3  0  0  0  0  0  0
  186.0380  177.5020  146.7930 O   0  0  0  0  0  0  0  0  0  0  0  0
  183.7040  178.8210  142.7090 N   0  0  0  0  0  0  0  0  0  0  0  0
  186.6780  178.2100  144.6110 C   0  0  0  0  0  0  0  0  0  0  0  0
  185.4530  179.0900  144.5250 C   0  0  2  0  0  3  0  0  0  0  0  0
  184.3440  178.6080  145.4660 C   0  0  0  0  0  2  0  0  0  0  0  0
  182.5370  178.3760  140.6580 N   0  0  0  0  0  2  0  0  0  0  0  0
  180.5860  178.8280  143.4160 F   0  0  0  0  0  0  0  0  0  0  0  0
  180.7450  179.2140  142.1370 O   0  0  0  0  0  0  0  0  0  0  0  0
  188.0670  178.3320  141.0630 C   0  0  0  0  0  2  0  0  0  0  0  0
  188.8750  177.1280  140.9920 N   0  0  0  0  0  2  0  0  0  0  0  0
  190.1310  177.4810  141.3510 O   0  0  0  0  0  0  0  0  0  0  0  0
  190.5790  176.4270  142.1480 C   0  0  0  0  0  2  0  0  0  0  0  0
  190.9830  177.8750  144.9410 C   0  0  0  0  0  2  0  0  0  0  0  0
  191.3050  176.4520  144.5270 C   0  0  0  0  0  2  0  0  0  0  0  0
  191.6270  176.9300  143.1240 C   0  0  0  0  0  3  0  0  0  0  0  0
  191.3050  178.3520  143.5390 C   0  0  0  0  0  2  0  0  0  0  0  0
  1 14  1  0  0  0  0
  2  4  2  0  0  0  0
  4 19  1  0  0  0  0
  5 20  1  6  0  0  0
  5  1  1  0  0  0  0
  6 10  1  0  0  0  0
  7  6  1  6  0  0  0
  7  5  1  0  0  0  0
  7  9  1  0  0  0  0
  8  6  2  0  0  0  0
  9 15  1  0  0  0  0
 10 13  2  0  0  0  0
 11 12  1  0  0  0  0
 12  3  1  0  0  0  0
 13  9  1  0  0  0  0
 14 11  2  0  0  0  0
 15 14  1  0  0  0  0
 15 16  1  1  0  0  0
 16  3  1  0  0  0  0
 17  4  1  0  0  0  0
 17 10  1  0  0  0  0
 19 18  1  0  0  0  0
 21 20  1  0  0  0  0
 21 22  1  0  0  0  0
 22 23  1  0  0  0  0
 23 26  1  0  0  0  0
 25 24  1  0  0  0  0
 26 27  1  0  0  0  0
 26 25  1  0  0  0  0
 27 24  1  0  0  0  0
M  END
>  <MODEL>
6

>  <REMARK>
 VINA RESULT:      -7.7      3.269      5.775
  Name = 
  6 active torsions:
  status: ('A' for Active; 'I' for Inactive)
    1  A    between atoms: C_2  and  C_7
    2  A    between atoms: C_2  and  N_26
    3  A    between atoms: C_6  and  O_27
    4  A    between atoms: C_12  and  C_13
    5  A    between atoms: C_12  and  O_22
    6  A    between atoms: O_22  and  N_26
                            x       y       z     vdW  Elec       q    Type
                         _______ _______ _______ _____ _____    ______ ____

>  <TORSDO>
F 6

$$$$
=
 OpenBabel11062414463D

 27 30  0  0  1  0  0  0  0  0999 V2000
  191.3810  175.9370  143.5980 C   0  0  0  0  0  2  0  0  0  0  0  0
  184.5870  178.0710  146.9630 O   0  0  0  0  0  0  0  0  0  0  0  0
  192.0740  176.3110  147.8690 C   0  0  0  0  0  2  0  0  0  0  0  0
  185.7290  178.4890  146.6390 C   0  0  0  0  0  0  0  0  0  0  0  0
  189.9700  176.3340  143.1550 C   0  0  1  0  0  3  0  0  0  0  0  0
  188.1280  177.9660  143.6400 C   0  0  0  0  0  0  0  0  0  0  0  0
  189.5950  177.7100  143.7290 C   0  0  1  0  0  3  0  0  0  0  0  0
  187.4620  178.1370  142.5850 O   0  0  0  0  0  0  0  0  0  0  0  0
  189.7670  177.6850  145.1820 N   0  0  0  0  0  0  0  0  0  0  0  0
  187.6110  178.0510  144.9910 C   0  0  0  0  0  0  0  0  0  0  0  0
  192.1990  175.0600  145.7360 C   0  0  0  0  0  3  0  0  0  0  0  0
  192.4020  175.1390  147.1220 O   0  0  0  0  0  0  0  0  0  0  0  0
  188.5490  177.8630  145.8550 N   0  0  0  0  0  0  0  0  0  0  0  0
  191.5150  176.0060  145.0880 C   0  0  0  0  0  0  0  0  0  0  0  0
  191.0030  177.2260  145.8180 C   0  0  2  0  0  3  0  0  0  0  0  0
  190.8060  176.9480  147.3120 C   0  0  0  0  0  2  0  0  0  0  0  0
  186.2290  178.1980  145.3300 N   0  0  0  0  0  2  0  0  0  0  0  0
  186.0710  180.5110  147.8760 F   0  0  0  0  0  0  0  0  0  0  0  0
  186.4490  179.2630  147.5480 O   0  0  0  0  0  0  0  0  0  0  0  0
  189.9300  176.3490  141.6380 C   0  0  0  0  0  2  0  0  0  0  0  0
  190.7530  177.4350  141.1360 N   0  0  0  0  0  2  0  0  0  0  0  0
  190.5020  177.5330  139.8100 O   0  0  0  0  0  0  0  0  0  0  0  0
  189.1390  177.2610  139.6880 C   0  0  0  0  0  2  0  0  0  0  0  0
  187.9920  178.2940  136.9180 C   0  0  0  0  0  2  0  0  0  0  0  0
  187.2630  177.9270  138.1970 C   0  0  0  0  0  2  0  0  0  0  0  0
  188.4400  178.4270  139.0130 C   0  0  0  0  0  3  0  0  0  0  0  0
  189.1680  178.7920  137.7340 C   0  0  0  0  0  2  0  0  0  0  0  0
  1 14  1  0  0  0  0
  4  2  2  0  0  0  0
  4 19  1  0  0  0  0
  5 20  1  6  0  0  0
  5  1  1  0  0  0  0
  5  7  1  0  0  0  0
  6 10  1  0  0  0  0
  7  6  1  1  0  0  0
  7  9  1  0  0  0  0
  8  6  2  0  0  0  0
  9 15  1  0  0  0  0
  9 13  1  0  0  0  0
 10 17  1  0  0  0  0
 10 13  2  0  0  0  0
 11 12  1  0  0  0  0
 12  3  1  0  0  0  0
 14 11  2  0  0  0  0
 14 15  1  0  0  0  0
 15 16  1  1  0  0  0
 16  3  1  0  0  0  0
 17  4  1  0  0  0  0
 19 18  1  0  0  0  0
 21 20  1  0  0  0  0
 22 21  1  0  0  0  0
 23 22  1  0  0  0  0
 24 27  1  0  0  0  0
 24 25  1  0  0  0  0
 25 26  1  0  0  0  0
 26 23  1  0  0  0  0
 27 26  1  0  0  0  0
M  END
>  <MODEL>
7

>  <REMARK>
 VINA RESULT:      -7.6      3.382      7.919
  Name = 
  6 active torsions:
  status: ('A' for Active; 'I' for Inactive)
    1  A    between atoms: C_2  and  C_7
    2  A    between atoms: C_2  and  N_26
    3  A    between atoms: C_6  and  O_27
    4  A    between atoms: C_12  and  C_13
    5  A    between atoms: C_12  and  O_22
    6  A    between atoms: O_22  and  N_26
                            x       y       z     vdW  Elec       q    Type
                         _______ _______ _______ _____ _____    ______ ____

>  <TORSDO>
F 6

$$$$
=
 OpenBabel11062414463D

 27 30  0  0  1  0  0  0  0  0999 V2000
  185.2950  178.9820  146.1770 C   0  0  0  0  0  2  0  0  0  0  0  0
  190.5720  177.8760  140.4360 O   0  0  0  0  0  0  0  0  0  0  0  0
  188.8380  177.2100  147.9540 C   0  0  0  0  0  2  0  0  0  0  0  0
  189.7680  177.2790  141.1980 C   0  0  0  0  0  0  0  0  0  0  0  0
  185.3630  179.1270  144.6540 C   0  0  1  0  0  3  0  0  0  0  0  0
  186.2220  177.9840  142.5930 C   0  0  0  0  0  0  0  0  0  0  0  0
  185.7860  177.7980  144.0070 C   0  0  1  0  0  3  0  0  0  0  0  0
  185.4890  178.3140  141.6230 O   0  0  0  0  0  0  0  0  0  0  0  0
  187.0420  177.3520  144.6100 N   0  0  0  0  0  0  0  0  0  0  0  0
  187.6300  177.6530  142.5170 C   0  0  0  0  0  0  0  0  0  0  0  0
  187.0750  178.9450  147.8610 C   0  0  0  0  0  3  0  0  0  0  0  0
  188.2400  178.4150  148.4340 O   0  0  0  0  0  0  0  0  0  0  0  0
  188.0880  177.3210  143.6740 N   0  0  0  0  0  0  0  0  0  0  0  0
  186.5830  178.4490  146.7240 C   0  0  0  0  0  0  0  0  0  0  0  0
  187.2270  177.2550  146.0590 C   0  0  2  0  0  3  0  0  0  0  0  0
  188.7070  177.1290  146.4380 C   0  0  0  0  0  2  0  0  0  0  0  0
  188.4400  177.7910  141.3460 N   0  0  0  0  0  2  0  0  0  0  0  0
  191.0020  176.1320  142.9020 F   0  0  0  0  0  0  0  0  0  0  0  0
  190.1820  176.1100  141.8350 O   0  0  0  0  0  0  0  0  0  0  0  0
  183.9990  179.5660  144.1520 C   0  0  0  0  0  2  0  0  0  0  0  0
  182.9800  178.6550  144.6400 N   0  0  0  0  0  2  0  0  0  0  0  0
  181.8220  179.0030  144.0330 O   0  0  0  0  0  0  0  0  0  0  0  0
  182.1250  179.0010  142.6710 C   0  0  0  0  0  2  0  0  0  0  0  0
  180.3570  177.7530  140.3530 C   0  0  0  0  0  2  0  0  0  0  0  0
  180.0550  177.9070  141.8310 C   0  0  0  0  0  2  0  0  0  0  0  0
  180.8550  179.1950  141.8630 C   0  0  0  0  0  3  0  0  0  0  0  0
  181.1560  179.0400  140.3850 C   0  0  0  0  0  2  0  0  0  0  0  0
  1 14  1  0  0  0  0
  2  4  2  0  0  0  0
  3 12  1  0  0  0  0
  4 17  1  0  0  0  0
  4 19  1  0  0  0  0
  5 20  1  6  0  0  0
  5  1  1  0  0  0  0
  7  6  1  6  0  0  0
  7  9  1  0  0  0  0
  7  5  1  0  0  0  0
  8  6  2  0  0  0  0
  9 15  1  0  0  0  0
 10  6  1  0  0  0  0
 10 13  2  0  0  0  0
 11 12  1  0  0  0  0
 13  9  1  0  0  0  0
 14 11  2  0  0  0  0
 15 16  1  6  0  0  0
 15 14  1  0  0  0  0
 16  3  1  0  0  0  0
 17 10  1  0  0  0  0
 19 18  1  0  0  0  0
 20 21  1  0  0  0  0
 22 21  1  0  0  0  0
 23 22  1  0  0  0  0
 24 27  1  0  0  0  0
 24 25  1  0  0  0  0
 25 26  1  0  0  0  0
 26 23  1  0  0  0  0
 27 26  1  0  0  0  0
M  END
>  <MODEL>
8

>  <REMARK>
 VINA RESULT:      -7.4      2.780      6.617
  Name = 
  6 active torsions:
  status: ('A' for Active; 'I' for Inactive)
    1  A    between atoms: C_2  and  C_7
    2  A    between atoms: C_2  and  N_26
    3  A    between atoms: C_6  and  O_27
    4  A    between atoms: C_12  and  C_13
    5  A    between atoms: C_12  and  O_22
    6  A    between atoms: O_22  and  N_26
                            x       y       z     vdW  Elec       q    Type
                         _______ _______ _______ _____ _____    ______ ____

>  <TORSDO>
F 6

$$$$
=
 OpenBabel11062414463D

 27 30  0  0  1  0  0  0  0  0999 V2000
  188.3400  177.8470  141.1500 C   0  0  0  0  0  2  0  0  0  0  0  0
  189.6740  178.5690  148.8780 O   0  0  0  0  0  0  0  0  0  0  0  0
  184.5540  178.7550  143.0720 C   0  0  0  0  0  2  0  0  0  0  0  0
  189.1670  177.8170  148.0070 C   0  0  0  0  0  0  0  0  0  0  0  0
  189.5080  177.6620  142.1220 C   0  0  1  0  0  3  0  0  0  0  0  0
  190.0710  176.7520  144.3910 C   0  0  0  0  0  0  0  0  0  0  0  0
  189.1250  176.6780  143.2400 C   0  0  1  0  0  3  0  0  0  0  0  0
  191.2800  176.4000  144.3890 O   0  0  0  0  0  0  0  0  0  0  0  0
  187.8950  177.1410  143.8830 N   0  0  0  0  0  0  0  0  0  0  0  0
  189.3330  177.2400  145.5390 C   0  0  0  0  0  0  0  0  0  0  0  0
  186.2850  179.1670  141.3510 C   0  0  0  0  0  3  0  0  0  0  0  0
  185.0760  179.5070  141.9750 O   0  0  0  0  0  0  0  0  0  0  0  0
  188.1060  177.4810  145.2280 N   0  0  0  0  0  0  0  0  0  0  0  0
  187.0940  178.2450  141.8770 C   0  0  0  0  0  0  0  0  0  0  0  0
  186.6940  177.4870  143.1220 C   0  0  2  0  0  3  0  0  0  0  0  0
  185.6920  178.2810  143.9680 C   0  0  0  0  0  2  0  0  0  0  0  0
  189.9080  177.5350  146.8150 N   0  0  0  0  0  2  0  0  0  0  0  0
  186.7730  177.8890  147.9780 F   0  0  0  0  0  0  0  0  0  0  0  0
  187.9200  177.2430  148.2520 O   0  0  0  0  0  0  0  0  0  0  0  0
  190.7080  177.1560  141.3420 C   0  0  0  0  0  2  0  0  0  0  0  0
  190.2640  176.5430  140.1030 N   0  0  0  0  0  2  0  0  0  0  0  0
  190.9520  177.1410  139.1030 O   0  0  0  0  0  0  0  0  0  0  0  0
  191.1550  176.1310  138.1620 C   0  0  0  0  0  2  0  0  0  0  0  0
  193.5610  174.6910  136.6810 C   0  0  0  0  0  2  0  0  0  0  0  0
  192.4710  175.5870  136.1230 C   0  0  0  0  0  2  0  0  0  0  0  0
  192.4550  176.3760  137.4180 C   0  0  0  0  0  3  0  0  0  0  0  0
  193.5440  175.4810  137.9750 C   0  0  0  0  0  2  0  0  0  0  0  0
  1 14  1  0  0  0  0
  1  5  1  0  0  0  0
  3 16  1  0  0  0  0
  4 19  1  0  0  0  0
  4  2  2  0  0  0  0
  5 20  1  6  0  0  0
  5  7  1  0  0  0  0
  6 10  1  0  0  0  0
  7  9  1  0  0  0  0
  7  6  1  1  0  0  0
  8  6  2  0  0  0  0
  9 13  1  0  0  0  0
 10 17  1  0  0  0  0
 11 14  2  0  0  0  0
 11 12  1  0  0  0  0
 12  3  1  0  0  0  0
 13 10  2  0  0  0  0
 14 15  1  0  0  0  0
 15  9  1  0  0  0  0
 15 16  1  1  0  0  0
 17  4  1  0  0  0  0
 18 19  1  0  0  0  0
 21 20  1  0  0  0  0
 22 21  1  0  0  0  0
 23 22  1  0  0  0  0
 24 27  1  0  0  0  0
 25 24  1  0  0  0  0
 25 26  1  0  0  0  0
 26 27  1  0  0  0  0
 26 23  1  0  0  0  0
M  END
>  <MODEL>
9

>  <REMARK>
 VINA RESULT:      -7.3      3.168      7.457
  Name = 
  6 active torsions:
  status: ('A' for Active; 'I' for Inactive)
    1  A    between atoms: C_2  and  C_7
    2  A    between atoms: C_2  and  N_26
    3  A    between atoms: C_6  and  O_27
    4  A    between atoms: C_12  and  C_13
    5  A    between atoms: C_12  and  O_22
    6  A    between atoms: O_22  and  N_26
                            x       y       z     vdW  Elec       q    Type
                         _______ _______ _______ _____ _____    ______ ____

>  <TORSDO>
F 6

$$$$
