=
 OpenBabel11062413463D

 35 37  0  0  1  0  0  0  0  0999 V2000
  188.2680  177.6870  145.0690 C   0  0  1  0  0  3  0  0  0  0  0  0
  187.5650  176.8300  147.3730 C   0  0  0  0  0  3  0  0  0  0  0  0
  189.2800  178.0720  148.3230 C   0  0  0  0  0  0  0  0  0  0  0  0
  188.7080  176.9240  146.3400 C   0  0  2  0  0  3  0  0  0  0  0  0
  189.8800  178.7980  149.1600 O   0  0  0  0  0  0  0  0  0  0  0  0
  187.9590  177.6260  148.5200 N   0  0  0  0  0  0  0  0  0  0  0  0
  189.8730  177.6310  147.0460 C   0  0  2  0  0  3  0  0  0  0  0  0
  190.9850  176.6320  147.3090 C   0  0  0  0  0  1  0  0  0  0  0  0
  190.0960  176.3410  143.9190 C   0  0  0  0  0  2  0  0  0  0  0  0
  189.3080  177.6440  143.9130 C   0  0  2  0  0  0  0  0  0  0  0  0
  189.4830  176.8470  141.6060 C   0  0  1  0  0  3  0  0  0  0  0  0
  190.3420  175.9460  142.4730 C   0  0  0  0  0  2  0  0  0  0  0  0
  190.2840  178.8110  144.0030 C   0  0  0  0  0  1  0  0  0  0  0  0
  188.6210  177.6580  142.5590 C   0  0  0  0  0  2  0  0  0  0  0  0
  190.3480  177.7360  140.8390 N   0  0  0  0  0  2  0  0  0  0  0  0
  191.3520  177.2890  139.9170 C   0  0  0  0  0  0  0  0  0  0  0  0
  192.6460  177.3890  140.2220 C   0  0  0  0  0  2  0  0  0  0  0  0
  191.8670  176.0730  137.8990 O   0  0  0  0  0  1  0  0  0  0  0  0
  190.9500  176.7120  138.6670 N   0  0  0  0  0  0  0  0  0  0  0  0
  189.6200  176.8050  138.2210 N   0  0  0  0  0  2  0  0  0  0  0  0
  189.6390  177.4010  136.8910 C   0  0  0  0  0  2  0  0  0  0  0  0
  188.9940  179.6120  137.4780 O   0  0  0  0  0  1  0  0  0  0  0  0
  188.5740  178.4850  136.7700 C   0  0  2  0  0  3  0  0  0  0  0  0
  186.4890  178.8020  137.8310 O   0  0  0  0  0  0  0  0  0  0  0  0
  187.2680  178.0120  137.3250 C   0  0  0  0  0  3  0  0  0  0  0  0
  186.8980  177.1960  144.5910 C   0  0  0  0  0  2  0  0  0  0  0  0
  185.8660  178.2830  144.8320 C   0  0  0  0  0  2  0  0  0  0  0  0
  182.9140  179.5050  143.3570 C   0  0  1  0  0  3  0  0  0  0  0  0
  184.8850  177.7980  142.6420 N   0  0  0  0  0  2  0  0  0  0  0  0
  184.3250  179.9390  143.7800 C   0  0  0  0  0  2  0  0  0  0  0  0
  185.3920  178.8640  143.5100 C   0  0  1  0  0  3  0  0  0  0  0  0
  184.2430  178.4030  141.5470 N   0  0  0  0  0  2  0  0  0  0  0  0
  182.9060  178.8310  141.9750 C   0  0  0  0  0  2  0  0  0  0  0  0
  182.2980  178.5690  144.3880 C   0  0  0  0  0  2  0  0  0  0  0  0
  180.8010  178.4480  144.1690 C   0  0  0  0  0  1  0  0  0  0  0  0
  1 26  1  6  0  0  0
  2  6  2  0  0  0  0
  3  6  1  0  0  0  0
  3  5  2  0  0  0  0
  4  1  1  6  0  0  0
  4  7  1  0  0  0  0
  4  2  1  0  0  0  0
  7  8  1  1  0  0  0
  7  3  1  0  0  0  0
 10  9  1  0  0  0  0
 10 13  1  1  0  0  0
 10  1  1  0  0  0  0
 11 15  1  1  0  0  0
 11 12  1  0  0  0  0
 11 14  1  0  0  0  0
 12  9  1  0  0  0  0
 14 10  1  0  0  0  0
 16 17  2  0  0  0  0
 16 15  1  0  0  0  0
 18 19  1  0  0  0  0
 19 16  1  0  0  0  0
 20 19  1  0  0  0  0
 21 20  1  0  0  0  0
 23 21  1  0  0  0  0
 23 25  1  0  0  0  0
 23 22  1  1  0  0  0
 25 24  2  0  0  0  0
 26 27  1  0  0  0  0
 28 30  1  0  0  0  0
 28 34  1  1  0  0  0
 29 31  1  0  0  0  0
 31 30  1  0  0  0  0
 31 27  1  1  0  0  0
 32 33  1  0  0  0  0
 32 29  1  0  0  0  0
 33 28  1  0  0  0  0
 35 34  1  0  0  0  0
M  END
>  <MODEL>
1

>  <REMARK>
 VINA RESULT:      -7.3      0.000      0.000
  Name = 
  13 active torsions:
  status: ('A' for Active; 'I' for Inactive)
    1  A    between atoms: C_4  and  N_24
    2  A    between atoms: C_4  and  C_32
    3  A    between atoms: C_5  and  N_8
    4  A    between atoms: C_5  and  N_10
    5  A    between atoms: C_6  and  C_12
    6  A    between atoms: N_8  and  C_21
    7  A    between atoms: C_9  and  C_17
    8  A    between atoms: C_9  and  C_26
    9  A    between atoms: N_10  and  N_24
   10  A    between atoms: C_13  and  C_28
   11  A    between atoms: C_17  and  C_28
   12  A    between atoms: C_20  and  C_28
   13  A    between atoms: C_30  and  C_32
                            x       y       z     vdW  Elec       q    Type
                         _______ _______ _______ _____ _____    ______ ____

>  <TORSDO>
F 13

$$$$
=
 OpenBabel11062413463D

 35 37  0  0  1  0  0  0  0  0999 V2000
  190.6540  176.8980  137.8540 C   0  0  1  0  0  3  0  0  0  0  0  0
  191.4550  174.5020  137.4630 C   0  0  0  0  0  3  0  0  0  0  0  0
  193.6270  175.2950  137.2540 C   0  0  0  0  0  0  0  0  0  0  0  0
  191.3820  175.9330  136.8890 C   0  0  2  0  0  3  0  0  0  0  0  0
  194.8810  175.3280  137.3650 O   0  0  0  0  0  0  0  0  0  0  0  0
  192.8530  174.2220  137.7350 N   0  0  0  0  0  0  0  0  0  0  0  0
  192.8300  176.3730  136.6370 C   0  0  2  0  0  3  0  0  0  0  0  0
  193.0900  176.4200  135.1420 C   0  0  0  0  0  1  0  0  0  0  0  0
  189.2170  177.2480  135.7820 C   0  0  0  0  0  2  0  0  0  0  0  0
  189.3330  177.4870  137.2820 C   0  0  2  0  0  0  0  0  0  0  0  0
  187.0430  176.7740  136.7950 C   0  0  1  0  0  3  0  0  0  0  0  0
  187.7570  176.9700  135.4720 C   0  0  0  0  0  2  0  0  0  0  0  0
  189.2310  178.9840  137.5520 C   0  0  0  0  0  1  0  0  0  0  0  0
  188.1220  176.7800  137.8660 C   0  0  0  0  0  2  0  0  0  0  0  0
  186.1220  177.8830  137.0110 N   0  0  0  0  0  2  0  0  0  0  0  0
  185.1300  177.9210  138.0470 C   0  0  0  0  0  0  0  0  0  0  0  0
  184.1250  177.0460  138.0560 C   0  0  0  0  0  2  0  0  0  0  0  0
  184.5280  180.0480  139.0090 O   0  0  0  0  0  1  0  0  0  0  0  0
  185.2430  178.8990  139.0900 N   0  0  0  0  0  0  0  0  0  0  0  0
  186.0900  178.6890  140.1920 N   0  0  0  0  0  2  0  0  0  0  0  0
  185.4400  179.2570  141.3660 C   0  0  0  0  0  2  0  0  0  0  0  0
  183.2350  178.4590  141.7500 O   0  0  0  0  0  1  0  0  0  0  0  0
  184.5730  178.2140  142.0600 C   0  0  2  0  0  3  0  0  0  0  0  0
  185.8720  178.3230  144.0290 O   0  0  0  0  0  0  0  0  0  0  0  0
  184.7540  178.2710  143.5440 C   0  0  0  0  0  3  0  0  0  0  0  0
  190.4120  176.2270  139.2090 C   0  0  0  0  0  2  0  0  0  0  0  0
  190.4950  177.2720  140.3060 C   0  0  0  0  0  2  0  0  0  0  0  0
  189.5990  178.3120  143.5470 C   0  0  1  0  0  3  0  0  0  0  0  0
  189.6980  175.9610  142.2140 N   0  0  0  0  0  2  0  0  0  0  0  0
  189.1420  178.3840  142.0830 C   0  0  0  0  0  2  0  0  0  0  0  0
  189.3750  177.0720  141.3130 C   0  0  1  0  0  3  0  0  0  0  0  0
  188.7610  175.9720  143.2630 N   0  0  0  0  0  2  0  0  0  0  0  0
  189.1600  177.0040  144.2270 C   0  0  0  0  0  2  0  0  0  0  0  0
  191.1110  178.4640  143.6540 C   0  0  0  0  0  2  0  0  0  0  0  0
  191.6440  177.6550  144.8230 C   0  0  0  0  0  1  0  0  0  0  0  0
  1 26  1  1  0  0  0
  2  6  2  0  0  0  0
  3  5  2  0  0  0  0
  3  6  1  0  0  0  0
  4  2  1  0  0  0  0
  4  1  1  1  0  0  0
  7  8  1  6  0  0  0
  7  4  1  0  0  0  0
  7  3  1  0  0  0  0
  9 10  1  0  0  0  0
 10 13  1  1  0  0  0
 10  1  1  0  0  0  0
 10 14  1  0  0  0  0
 11 15  1  1  0  0  0
 11 14  1  0  0  0  0
 12  9  1  0  0  0  0
 12 11  1  0  0  0  0
 15 16  1  0  0  0  0
 16 17  2  0  0  0  0
 16 19  1  0  0  0  0
 18 19  1  0  0  0  0
 19 20  1  0  0  0  0
 20 21  1  0  0  0  0
 21 23  1  0  0  0  0
 23 22  1  1  0  0  0
 23 25  1  0  0  0  0
 25 24  2  0  0  0  0
 26 27  1  0  0  0  0
 28 34  1  6  0  0  0
 28 33  1  0  0  0  0
 29 32  1  0  0  0  0
 30 28  1  0  0  0  0
 31 27  1  6  0  0  0
 31 30  1  0  0  0  0
 31 29  1  0  0  0  0
 32 33  1  0  0  0  0
 34 35  1  0  0  0  0
M  END
>  <MODEL>
2

>  <REMARK>
 VINA RESULT:      -7.2      2.776      8.059
  Name = 
  13 active torsions:
  status: ('A' for Active; 'I' for Inactive)
    1  A    between atoms: C_4  and  N_24
    2  A    between atoms: C_4  and  C_32
    3  A    between atoms: C_5  and  N_8
    4  A    between atoms: C_5  and  N_10
    5  A    between atoms: C_6  and  C_12
    6  A    between atoms: N_8  and  C_21
    7  A    between atoms: C_9  and  C_17
    8  A    between atoms: C_9  and  C_26
    9  A    between atoms: N_10  and  N_24
   10  A    between atoms: C_13  and  C_28
   11  A    between atoms: C_17  and  C_28
   12  A    between atoms: C_20  and  C_28
   13  A    between atoms: C_30  and  C_32
                            x       y       z     vdW  Elec       q    Type
                         _______ _______ _______ _____ _____    ______ ____

>  <TORSDO>
F 13

$$$$
=
 OpenBabel11062413463D

 35 37  0  0  1  0  0  0  0  0999 V2000
  188.7360  177.8940  144.8950 C   0  0  1  0  0  3  0  0  0  0  0  0
  187.6560  176.8480  146.9630 C   0  0  0  0  0  3  0  0  0  0  0  0
  189.1440  178.0280  148.2990 C   0  0  0  0  0  0  0  0  0  0  0  0
  188.9620  177.0360  146.1620 C   0  0  2  0  0  3  0  0  0  0  0  0
  189.5680  178.6910  149.2830 O   0  0  0  0  0  0  0  0  0  0  0  0
  187.8200  177.5540  148.2200 N   0  0  0  0  0  0  0  0  0  0  0  0
  189.9650  177.6960  147.1180 C   0  0  2  0  0  3  0  0  0  0  0  0
  191.0360  176.6900  147.4980 C   0  0  0  0  0  1  0  0  0  0  0  0
  190.6650  176.4740  144.0340 C   0  0  0  0  0  2  0  0  0  0  0  0
  189.8540  177.7460  143.8240 C   0  0  2  0  0  0  0  0  0  0  0  0
  190.2030  176.6930  141.6430 C   0  0  1  0  0  3  0  0  0  0  0  0
  191.0170  175.9220  142.6640 C   0  0  0  0  0  2  0  0  0  0  0  0
  190.8000  178.9420  143.8410 C   0  0  0  0  0  1  0  0  0  0  0  0
  189.2620  177.5840  142.4350 C   0  0  0  0  0  2  0  0  0  0  0  0
  191.1010  177.5100  140.8360 N   0  0  0  0  0  2  0  0  0  0  0  0
  191.7390  177.0620  139.6310 C   0  0  0  0  0  0  0  0  0  0  0  0
  193.0610  177.1580  139.4880 C   0  0  0  0  0  2  0  0  0  0  0  0
  190.9940  175.1510  138.3640 O   0  0  0  0  0  1  0  0  0  0  0  0
  190.9410  176.4870  138.5870 N   0  0  0  0  0  0  0  0  0  0  0  0
  190.1100  177.2890  137.7860 N   0  0  0  0  0  2  0  0  0  0  0  0
  188.7280  176.9840  138.1340 C   0  0  0  0  0  2  0  0  0  0  0  0
  187.6920  178.9590  137.3130 O   0  0  0  0  0  1  0  0  0  0  0  0
  187.7700  177.5800  137.1100 C   0  0  2  0  0  3  0  0  0  0  0  0
  185.4250  177.5770  136.8270 O   0  0  0  0  0  0  0  0  0  0  0  0
  186.4050  176.9840  137.2480 C   0  0  0  0  0  3  0  0  0  0  0  0
  187.3580  177.6120  144.2910 C   0  0  0  0  0  2  0  0  0  0  0  0
  186.4350  178.7800  144.5870 C   0  0  0  0  0  2  0  0  0  0  0  0
  184.2480  178.3450  141.8640 C   0  0  1  0  0  3  0  0  0  0  0  0
  184.1480  179.5930  144.2610 N   0  0  0  0  0  2  0  0  0  0  0  0
  184.9140  177.5790  143.0160 C   0  0  0  0  0  2  0  0  0  0  0  0
  184.9900  178.3940  144.3180 C   0  0  1  0  0  3  0  0  0  0  0  0
  182.8850  179.2100  143.7750 N   0  0  0  0  0  2  0  0  0  0  0  0
  182.9730  179.0760  142.3170 C   0  0  0  0  0  2  0  0  0  0  0  0
  185.2160  179.3410  141.2390 C   0  0  0  0  0  2  0  0  0  0  0  0
  186.4100  178.6190  140.6430 C   0  0  0  0  0  1  0  0  0  0  0  0
  1 26  1  6  0  0  0
  2  6  2  0  0  0  0
  3  5  2  0  0  0  0
  4  1  1  6  0  0  0
  4  2  1  0  0  0  0
  4  7  1  0  0  0  0
  6  3  1  0  0  0  0
  7  8  1  1  0  0  0
  7  3  1  0  0  0  0
 10 13  1  1  0  0  0
 10  9  1  0  0  0  0
 10  1  1  0  0  0  0
 11 15  1  1  0  0  0
 11 14  1  0  0  0  0
 11 12  1  0  0  0  0
 12  9  1  0  0  0  0
 14 10  1  0  0  0  0
 16 15  1  0  0  0  0
 17 16  2  0  0  0  0
 18 19  1  0  0  0  0
 19 16  1  0  0  0  0
 20 21  1  0  0  0  0
 20 19  1  0  0  0  0
 23 25  1  0  0  0  0
 23 22  1  1  0  0  0
 23 21  1  0  0  0  0
 24 25  2  0  0  0  0
 26 27  1  0  0  0  0
 28 34  1  1  0  0  0
 28 33  1  0  0  0  0
 28 30  1  0  0  0  0
 29 31  1  0  0  0  0
 30 31  1  0  0  0  0
 31 27  1  6  0  0  0
 32 29  1  0  0  0  0
 33 32  1  0  0  0  0
 35 34  1  0  0  0  0
M  END
>  <MODEL>
3

>  <REMARK>
 VINA RESULT:      -7.2      1.227      1.775
  Name = 
  13 active torsions:
  status: ('A' for Active; 'I' for Inactive)
    1  A    between atoms: C_4  and  N_24
    2  A    between atoms: C_4  and  C_32
    3  A    between atoms: C_5  and  N_8
    4  A    between atoms: C_5  and  N_10
    5  A    between atoms: C_6  and  C_12
    6  A    between atoms: N_8  and  C_21
    7  A    between atoms: C_9  and  C_17
    8  A    between atoms: C_9  and  C_26
    9  A    between atoms: N_10  and  N_24
   10  A    between atoms: C_13  and  C_28
   11  A    between atoms: C_17  and  C_28
   12  A    between atoms: C_20  and  C_28
   13  A    between atoms: C_30  and  C_32
                            x       y       z     vdW  Elec       q    Type
                         _______ _______ _______ _____ _____    ______ ____

>  <TORSDO>
F 13

$$$$
=
 OpenBabel11062413463D

 35 37  0  0  1  0  0  0  0  0999 V2000
  188.6180  177.5220  143.5510 C   0  0  1  0  0  3  0  0  0  0  0  0
  190.7320  178.8180  144.1750 C   0  0  0  0  0  3  0  0  0  0  0  0
  191.3430  177.0790  145.5880 C   0  0  0  0  0  0  0  0  0  0  0  0
  189.4380  178.1570  144.6990 C   0  0  2  0  0  3  0  0  0  0  0  0
  192.0890  176.2580  146.1840 O   0  0  0  0  0  0  0  0  0  0  0  0
  191.8450  178.0480  144.6980 N   0  0  0  0  0  0  0  0  0  0  0  0
  189.8740  177.1070  145.7290 C   0  0  2  0  0  3  0  0  0  0  0  0
  189.4960  177.5780  147.1210 C   0  0  0  0  0  1  0  0  0  0  0  0
  186.7220  178.5930  144.8700 C   0  0  0  0  0  2  0  0  0  0  0  0
  187.0780  177.6450  143.7320 C   0  0  2  0  0  0  0  0  0  0  0  0
  185.2340  179.0720  142.9900 C   0  0  1  0  0  3  0  0  0  0  0  0
  185.4740  179.3540  144.4610 C   0  0  0  0  0  2  0  0  0  0  0  0
  186.4420  176.2870  144.0050 C   0  0  0  0  0  1  0  0  0  0  0  0
  186.4330  178.2730  142.5090 C   0  0  0  0  0  2  0  0  0  0  0  0
  184.0190  178.2780  142.8490 N   0  0  0  0  0  2  0  0  0  0  0  0
  182.7200  178.7020  143.2870 C   0  0  0  0  0  0  0  0  0  0  0  0
  182.4560  178.8430  144.5860 C   0  0  0  0  0  2  0  0  0  0  0  0
  180.8470  180.0170  142.5290 O   0  0  0  0  0  1  0  0  0  0  0  0
  181.7110  178.9950  142.3110 N   0  0  0  0  0  0  0  0  0  0  0  0
  181.5990  178.2350  141.1350 N   0  0  0  0  0  2  0  0  0  0  0  0
  181.9990  179.0820  140.0180 C   0  0  0  0  0  2  0  0  0  0  0  0
  183.2440  177.0930  139.6420 O   0  0  0  0  0  1  0  0  0  0  0  0
  183.0720  178.3980  139.1790 C   0  0  2  0  0  3  0  0  0  0  0  0
  184.4120  180.3420  139.1330 O   0  0  0  0  0  0  0  0  0  0  0  0
  184.3720  179.1310  139.2760 C   0  0  0  0  0  3  0  0  0  0  0  0
  189.0580  178.0850  142.1970 C   0  0  0  0  0  2  0  0  0  0  0  0
  189.3310  176.9360  141.2440 C   0  0  0  0  0  2  0  0  0  0  0  0
  189.1310  177.5930  137.7920 C   0  0  1  0  0  3  0  0  0  0  0  0
  190.8090  176.2370  139.4210 N   0  0  0  0  0  2  0  0  0  0  0  0
  189.4090  178.2740  139.1400 C   0  0  0  0  0  2  0  0  0  0  0  0
  190.2240  177.3950  140.1030 C   0  0  1  0  0  3  0  0  0  0  0  0
  191.4220  176.6960  138.2420 N   0  0  0  0  0  2  0  0  0  0  0  0
  190.3810  176.8960  137.2280 C   0  0  0  0  0  2  0  0  0  0  0  0
  187.9930  176.5890  137.9120 C   0  0  0  0  0  2  0  0  0  0  0  0
  186.7300  177.1380  137.2740 C   0  0  0  0  0  1  0  0  0  0  0  0
  1 26  1  6  0  0  0
  1 10  1  0  0  0  0
  2  6  2  0  0  0  0
  2  4  1  0  0  0  0
  3  7  1  0  0  0  0
  3  5  2  0  0  0  0
  4  1  1  6  0  0  0
  4  7  1  0  0  0  0
  6  3  1  0  0  0  0
  7  8  1  1  0  0  0
 10 13  1  1  0  0  0
 10  9  1  0  0  0  0
 11 15  1  1  0  0  0
 11 12  1  0  0  0  0
 12  9  1  0  0  0  0
 14 11  1  0  0  0  0
 14 10  1  0  0  0  0
 15 16  1  0  0  0  0
 16 17  2  0  0  0  0
 19 18  1  0  0  0  0
 19 16  1  0  0  0  0
 20 19  1  0  0  0  0
 21 20  1  0  0  0  0
 23 25  1  0  0  0  0
 23 22  1  1  0  0  0
 23 21  1  0  0  0  0
 24 25  2  0  0  0  0
 27 26  1  0  0  0  0
 28 34  1  1  0  0  0
 28 30  1  0  0  0  0
 29 31  1  0  0  0  0
 30 31  1  0  0  0  0
 31 27  1  1  0  0  0
 32 29  1  0  0  0  0
 33 28  1  0  0  0  0
 33 32  1  0  0  0  0
 35 34  1  0  0  0  0
M  END
>  <MODEL>
4

>  <REMARK>
 VINA RESULT:      -7.1      2.420      6.625
  Name = 
  13 active torsions:
  status: ('A' for Active; 'I' for Inactive)
    1  A    between atoms: C_4  and  N_24
    2  A    between atoms: C_4  and  C_32
    3  A    between atoms: C_5  and  N_8
    4  A    between atoms: C_5  and  N_10
    5  A    between atoms: C_6  and  C_12
    6  A    between atoms: N_8  and  C_21
    7  A    between atoms: C_9  and  C_17
    8  A    between atoms: C_9  and  C_26
    9  A    between atoms: N_10  and  N_24
   10  A    between atoms: C_13  and  C_28
   11  A    between atoms: C_17  and  C_28
   12  A    between atoms: C_20  and  C_28
   13  A    between atoms: C_30  and  C_32
                            x       y       z     vdW  Elec       q    Type
                         _______ _______ _______ _____ _____    ______ ____

>  <TORSDO>
F 13

$$$$
=
 OpenBabel11062413463D

 35 37  0  0  1  0  0  0  0  0999 V2000
  188.2810  177.6920  145.0740 C   0  0  1  0  0  3  0  0  0  0  0  0
  187.5950  176.7820  147.3630 C   0  0  0  0  0  3  0  0  0  0  0  0
  189.2590  178.0720  148.3400 C   0  0  0  0  0  0  0  0  0  0  0  0
  188.7400  176.9290  146.3380 C   0  0  2  0  0  3  0  0  0  0  0  0
  189.8290  178.8080  149.1890 O   0  0  0  0  0  0  0  0  0  0  0  0
  187.9540  177.5770  148.5220 N   0  0  0  0  0  0  0  0  0  0  0  0
  189.8750  177.6670  147.0610 C   0  0  2  0  0  3  0  0  0  0  0  0
  191.0190  176.7040  147.3180 C   0  0  0  0  0  1  0  0  0  0  0  0
  190.0970  176.3330  143.9180 C   0  0  0  0  0  2  0  0  0  0  0  0
  189.2920  177.6260  143.8930 C   0  0  2  0  0  0  0  0  0  0  0  0
  189.4190  176.7600  141.6080 C   0  0  1  0  0  3  0  0  0  0  0  0
  190.3110  175.8970  142.4800 C   0  0  0  0  0  2  0  0  0  0  0  0
  190.2550  178.8070  143.9230 C   0  0  0  0  0  1  0  0  0  0  0  0
  188.5710  177.5900  142.5580 C   0  0  0  0  0  2  0  0  0  0  0  0
  190.2520  177.6360  140.7920 N   0  0  0  0  0  2  0  0  0  0  0  0
  190.5960  177.3790  139.4230 C   0  0  0  0  0  0  0  0  0  0  0  0
  189.7570  177.7080  138.4400 C   0  0  0  0  0  2  0  0  0  0  0  0
  192.9780  177.2150  139.7580 O   0  0  0  0  0  1  0  0  0  0  0  0
  191.8630  176.7820  139.1180 N   0  0  0  0  0  0  0  0  0  0  0  0
  191.9710  175.7600  138.1590 N   0  0  0  0  0  2  0  0  0  0  0  0
  193.1870  175.9980  137.3920 C   0  0  0  0  0  2  0  0  0  0  0  0
  192.9470  173.6850  136.9000 O   0  0  0  0  0  1  0  0  0  0  0  0
  193.9020  174.6850  137.0930 C   0  0  2  0  0  3  0  0  0  0  0  0
  195.3940  175.1510  138.8630 O   0  0  0  0  0  0  0  0  0  0  0  0
  194.8010  174.2980  138.2240 C   0  0  0  0  0  3  0  0  0  0  0  0
  186.8920  177.2200  144.6330 C   0  0  0  0  0  2  0  0  0  0  0  0
  185.8920  178.3390  144.8540 C   0  0  0  0  0  2  0  0  0  0  0  0
  182.9280  179.4940  143.3450 C   0  0  1  0  0  3  0  0  0  0  0  0
  184.9300  177.8080  142.6660 N   0  0  0  0  0  2  0  0  0  0  0  0
  184.3300  179.9560  143.7710 C   0  0  0  0  0  2  0  0  0  0  0  0
  185.4160  178.8950  143.5220 C   0  0  1  0  0  3  0  0  0  0  0  0
  184.2850  178.3880  141.5590 N   0  0  0  0  0  2  0  0  0  0  0  0
  182.9400  178.8010  141.9730 C   0  0  0  0  0  2  0  0  0  0  0  0
  182.3220  178.5620  144.3870 C   0  0  0  0  0  2  0  0  0  0  0  0
  180.8290  178.4080  144.1560 C   0  0  0  0  0  1  0  0  0  0  0  0
  1 26  1  6  0  0  0
  2  6  2  0  0  0  0
  3  6  1  0  0  0  0
  3  5  2  0  0  0  0
  4  1  1  6  0  0  0
  4  7  1  0  0  0  0
  4  2  1  0  0  0  0
  7  8  1  1  0  0  0
  7  3  1  0  0  0  0
 10  9  1  0  0  0  0
 10 13  1  1  0  0  0
 10  1  1  0  0  0  0
 11 15  1  6  0  0  0
 11 12  1  0  0  0  0
 11 14  1  0  0  0  0
 12  9  1  0  0  0  0
 14 10  1  0  0  0  0
 16 15  1  0  0  0  0
 17 16  2  0  0  0  0
 19 16  1  0  0  0  0
 19 18  1  0  0  0  0
 20 19  1  0  0  0  0
 21 20  1  0  0  0  0
 23 22  1  1  0  0  0
 23 21  1  0  0  0  0
 23 25  1  0  0  0  0
 25 24  2  0  0  0  0
 26 27  1  0  0  0  0
 28 30  1  0  0  0  0
 28 34  1  1  0  0  0
 29 31  1  0  0  0  0
 31 30  1  0  0  0  0
 31 27  1  1  0  0  0
 32 33  1  0  0  0  0
 32 29  1  0  0  0  0
 33 28  1  0  0  0  0
 35 34  1  0  0  0  0
M  END
>  <MODEL>
5

>  <REMARK>
 VINA RESULT:      -7.0      1.762      2.928
  Name = 
  13 active torsions:
  status: ('A' for Active; 'I' for Inactive)
    1  A    between atoms: C_4  and  N_24
    2  A    between atoms: C_4  and  C_32
    3  A    between atoms: C_5  and  N_8
    4  A    between atoms: C_5  and  N_10
    5  A    between atoms: C_6  and  C_12
    6  A    between atoms: N_8  and  C_21
    7  A    between atoms: C_9  and  C_17
    8  A    between atoms: C_9  and  C_26
    9  A    between atoms: N_10  and  N_24
   10  A    between atoms: C_13  and  C_28
   11  A    between atoms: C_17  and  C_28
   12  A    between atoms: C_20  and  C_28
   13  A    between atoms: C_30  and  C_32
                            x       y       z     vdW  Elec       q    Type
                         _______ _______ _______ _____ _____    ______ ____

>  <TORSDO>
F 13

$$$$
=
 OpenBabel11062413463D

 35 37  0  0  1  0  0  0  0  0999 V2000
  188.0720  177.7420  140.1870 C   0  0  1  0  0  3  0  0  0  0  0  0
  189.5480  178.2560  138.1630 C   0  0  0  0  0  3  0  0  0  0  0  0
  190.7470  176.3130  138.5830 C   0  0  0  0  0  0  0  0  0  0  0  0
  189.5130  178.0000  139.6850 C   0  0  2  0  0  3  0  0  0  0  0  0
  191.3910  175.2560  138.3480 O   0  0  0  0  0  0  0  0  0  0  0  0
  190.2470  177.1380  137.5580 N   0  0  0  0  0  0  0  0  0  0  0  0
  190.4230  176.7910  139.9420 C   0  0  2  0  0  3  0  0  0  0  0  0
  191.6870  177.2530  140.6440 C   0  0  0  0  0  1  0  0  0  0  0  0
  186.4180  178.7490  141.8380 C   0  0  0  0  0  2  0  0  0  0  0  0
  187.8240  178.1950  141.6540 C   0  0  2  0  0  0  0  0  0  0  0  0
  186.9170  177.2990  143.7420 C   0  0  1  0  0  3  0  0  0  0  0  0
  185.9320  178.3220  143.2120 C   0  0  0  0  0  2  0  0  0  0  0  0
  188.8320  179.2550  142.0840 C   0  0  0  0  0  1  0  0  0  0  0  0
  187.8880  177.0150  142.6080 C   0  0  0  0  0  2  0  0  0  0  0  0
  187.6330  177.8680  144.8780 N   0  0  0  0  0  2  0  0  0  0  0  0
  187.1030  177.9460  146.2100 C   0  0  0  0  0  0  0  0  0  0  0  0
  185.8040  178.1660  146.4110 C   0  0  0  0  0  2  0  0  0  0  0  0
  187.9260  178.6240  148.3720 O   0  0  0  0  0  1  0  0  0  0  0  0
  187.9840  177.7630  147.3270 N   0  0  0  0  0  0  0  0  0  0  0  0
  188.9140  176.7090  147.3510 N   0  0  0  0  0  2  0  0  0  0  0  0
  190.2440  177.2940  147.4720 C   0  0  0  0  0  2  0  0  0  0  0  0
  192.4280  176.3840  147.6980 O   0  0  0  0  0  1  0  0  0  0  0  0
  191.2970  176.3640  146.8810 C   0  0  2  0  0  3  0  0  0  0  0  0
  190.8420  176.8440  144.6140 O   0  0  0  0  0  0  0  0  0  0  0  0
  191.6780  176.7980  145.5010 C   0  0  0  0  0  3  0  0  0  0  0  0
  187.0490  178.3740  139.2380 C   0  0  0  0  0  2  0  0  0  0  0  0
  186.4130  177.2850  138.3940 C   0  0  0  0  0  2  0  0  0  0  0  0
  183.1630  178.5170  138.9520 C   0  0  1  0  0  3  0  0  0  0  0  0
  184.3150  176.7650  137.2440 N   0  0  0  0  0  2  0  0  0  0  0  0
  184.5460  178.9390  138.4330 C   0  0  0  0  0  2  0  0  0  0  0  0
  185.2400  177.8430  137.6060 C   0  0  1  0  0  3  0  0  0  0  0  0
  183.1430  177.3550  136.7370 N   0  0  0  0  0  2  0  0  0  0  0  0
  182.3300  177.8130  137.8690 C   0  0  0  0  0  2  0  0  0  0  0  0
  183.2910  177.6130  140.1710 C   0  0  0  0  0  2  0  0  0  0  0  0
  182.6820  178.2790  141.3910 C   0  0  0  0  0  1  0  0  0  0  0  0
  1 26  1  6  0  0  0
  1 10  1  0  0  0  0
  2  4  1  0  0  0  0
  3  7  1  0  0  0  0
  4  7  1  0  0  0  0
  4  1  1  6  0  0  0
  5  3  2  0  0  0  0
  6  2  2  0  0  0  0
  6  3  1  0  0  0  0
  7  8  1  6  0  0  0
  9 12  1  0  0  0  0
 10  9  1  0  0  0  0
 10 13  1  1  0  0  0
 10 14  1  0  0  0  0
 11 15  1  1  0  0  0
 12 11  1  0  0  0  0
 14 11  1  0  0  0  0
 15 16  1  0  0  0  0
 16 17  2  0  0  0  0
 16 19  1  0  0  0  0
 19 20  1  0  0  0  0
 19 18  1  0  0  0  0
 20 21  1  0  0  0  0
 23 21  1  0  0  0  0
 23 22  1  1  0  0  0
 24 25  2  0  0  0  0
 25 23  1  0  0  0  0
 27 26  1  0  0  0  0
 28 34  1  1  0  0  0
 29 31  1  0  0  0  0
 30 28  1  0  0  0  0
 31 27  1  1  0  0  0
 31 30  1  0  0  0  0
 32 29  1  0  0  0  0
 32 33  1  0  0  0  0
 33 28  1  0  0  0  0
 34 35  1  0  0  0  0
M  END
>  <MODEL>
6

>  <REMARK>
 VINA RESULT:      -6.7      2.400      7.430
  Name = 
  13 active torsions:
  status: ('A' for Active; 'I' for Inactive)
    1  A    between atoms: C_4  and  N_24
    2  A    between atoms: C_4  and  C_32
    3  A    between atoms: C_5  and  N_8
    4  A    between atoms: C_5  and  N_10
    5  A    between atoms: C_6  and  C_12
    6  A    between atoms: N_8  and  C_21
    7  A    between atoms: C_9  and  C_17
    8  A    between atoms: C_9  and  C_26
    9  A    between atoms: N_10  and  N_24
   10  A    between atoms: C_13  and  C_28
   11  A    between atoms: C_17  and  C_28
   12  A    between atoms: C_20  and  C_28
   13  A    between atoms: C_30  and  C_32
                            x       y       z     vdW  Elec       q    Type
                         _______ _______ _______ _____ _____    ______ ____

>  <TORSDO>
F 13

$$$$
=
 OpenBabel11062413463D

 35 37  0  0  1  0  0  0  0  0999 V2000
  190.4900  177.3430  139.5760 C   0  0  1  0  0  3  0  0  0  0  0  0
  189.0250  175.8470  138.1090 C   0  0  0  0  0  3  0  0  0  0  0  0
  189.5380  177.1870  136.2840 C   0  0  0  0  0  0  0  0  0  0  0  0
  189.2680  177.2800  138.6290 C   0  0  2  0  0  3  0  0  0  0  0  0
  189.8120  177.4950  135.0930 O   0  0  0  0  0  0  0  0  0  0  0  0
  189.2920  175.8590  136.6830 N   0  0  0  0  0  0  0  0  0  0  0  0
  189.4700  178.1620  137.3890 C   0  0  2  0  0  3  0  0  0  0  0  0
  188.2620  179.0640  137.2110 C   0  0  0  0  0  1  0  0  0  0  0  0
  190.1900  176.0040  141.7200 C   0  0  0  0  0  2  0  0  0  0  0  0
  190.1170  177.3870  141.0860 C   0  0  2  0  0  0  0  0  0  0  0  0
  191.2170  177.6000  143.2610 C   0  0  1  0  0  3  0  0  0  0  0  0
  190.7200  176.1740  143.1320 C   0  0  0  0  0  2  0  0  0  0  0  0
  188.7160  177.9510  141.2940 C   0  0  0  0  0  1  0  0  0  0  0  0
  191.1210  178.2110  141.8730 C   0  0  0  0  0  2  0  0  0  0  0  0
  190.3530  178.3260  144.1840 N   0  0  0  0  0  2  0  0  0  0  0  0
  189.6400  177.7190  145.2710 C   0  0  0  0  0  0  0  0  0  0  0  0
  190.2820  177.3440  146.3780 C   0  0  0  0  0  2  0  0  0  0  0  0
  187.7250  176.6780  144.2400 O   0  0  0  0  0  1  0  0  0  0  0  0
  188.2210  177.5370  145.1650 N   0  0  0  0  0  0  0  0  0  0  0  0
  187.3360  178.2410  145.9990 N   0  0  0  0  0  2  0  0  0  0  0  0
  185.9890  177.7520  145.7310 C   0  0  0  0  0  2  0  0  0  0  0  0
  184.0220  178.9980  146.2060 O   0  0  0  0  0  1  0  0  0  0  0  0
  185.0770  178.8940  145.2980 C   0  0  2  0  0  3  0  0  0  0  0  0
  185.2140  178.8500  142.9410 O   0  0  0  0  0  0  0  0  0  0  0  0
  184.5280  178.6470  143.9290 C   0  0  0  0  0  3  0  0  0  0  0  0
  191.4600  176.1950  139.2840 C   0  0  0  0  0  2  0  0  0  0  0  0
  192.7540  176.7630  138.7310 C   0  0  0  0  0  2  0  0  0  0  0  0
  194.1420  174.1620  136.8090 C   0  0  1  0  0  3  0  0  0  0  0  0
  194.2050  176.8650  136.7620 N   0  0  0  0  0  2  0  0  0  0  0  0
  192.8060  174.8430  137.1400 C   0  0  0  0  0  2  0  0  0  0  0  0
  192.9230  176.3700  137.2730 C   0  0  1  0  0  3  0  0  0  0  0  0
  194.4230  176.2780  135.5030 N   0  0  0  0  0  2  0  0  0  0  0  0
  194.9160  174.9110  135.7110 C   0  0  0  0  0  2  0  0  0  0  0  0
  195.0120  174.0340  138.0520 C   0  0  0  0  0  2  0  0  0  0  0  0
  195.3120  172.5740  138.3420 C   0  0  0  0  0  1  0  0  0  0  0  0
  1 26  1  1  0  0  0
  1 10  1  0  0  0  0
  2  4  1  0  0  0  0
  3  6  1  0  0  0  0
  3  7  1  0  0  0  0
  4  1  1  1  0  0  0
  5  3  2  0  0  0  0
  6  2  2  0  0  0  0
  7  8  1  6  0  0  0
  7  4  1  0  0  0  0
  9 12  1  0  0  0  0
 10 13  1  1  0  0  0
 10  9  1  0  0  0  0
 10 14  1  0  0  0  0
 11 15  1  1  0  0  0
 12 11  1  0  0  0  0
 14 11  1  0  0  0  0
 15 16  1  0  0  0  0
 16 17  2  0  0  0  0
 18 19  1  0  0  0  0
 19 16  1  0  0  0  0
 19 20  1  0  0  0  0
 21 20  1  0  0  0  0
 23 21  1  0  0  0  0
 23 22  1  1  0  0  0
 24 25  2  0  0  0  0
 25 23  1  0  0  0  0
 27 26  1  0  0  0  0
 28 30  1  0  0  0  0
 28 34  1  1  0  0  0
 29 31  1  0  0  0  0
 30 31  1  0  0  0  0
 31 27  1  1  0  0  0
 32 33  1  0  0  0  0
 32 29  1  0  0  0  0
 33 28  1  0  0  0  0
 34 35  1  0  0  0  0
M  END
>  <MODEL>
7

>  <REMARK>
 VINA RESULT:      -6.6      3.178      9.392
  Name = 
  13 active torsions:
  status: ('A' for Active; 'I' for Inactive)
    1  A    between atoms: C_4  and  N_24
    2  A    between atoms: C_4  and  C_32
    3  A    between atoms: C_5  and  N_8
    4  A    between atoms: C_5  and  N_10
    5  A    between atoms: C_6  and  C_12
    6  A    between atoms: N_8  and  C_21
    7  A    between atoms: C_9  and  C_17
    8  A    between atoms: C_9  and  C_26
    9  A    between atoms: N_10  and  N_24
   10  A    between atoms: C_13  and  C_28
   11  A    between atoms: C_17  and  C_28
   12  A    between atoms: C_20  and  C_28
   13  A    between atoms: C_30  and  C_32
                            x       y       z     vdW  Elec       q    Type
                         _______ _______ _______ _____ _____    ______ ____

>  <TORSDO>
F 13

$$$$
=
 OpenBabel11062413463D

 35 37  0  0  1  0  0  0  0  0999 V2000
  190.4730  177.0620  137.9460 C   0  0  1  0  0  3  0  0  0  0  0  0
  190.3990  174.6140  137.2120 C   0  0  0  0  0  3  0  0  0  0  0  0
  192.7170  174.5440  137.3190 C   0  0  0  0  0  0  0  0  0  0  0  0
  190.9290  176.0270  136.8900 C   0  0  2  0  0  3  0  0  0  0  0  0
  193.8700  174.0840  137.5350 O   0  0  0  0  0  0  0  0  0  0  0  0
  191.5480  173.7920  137.5440 N   0  0  0  0  0  0  0  0  0  0  0  0
  192.4590  175.9150  136.8350 C   0  0  2  0  0  3  0  0  0  0  0  0
  192.9230  176.0540  135.3980 C   0  0  0  0  0  1  0  0  0  0  0  0
  188.6980  177.4980  136.1740 C   0  0  0  0  0  2  0  0  0  0  0  0
  189.1100  177.7380  137.6210 C   0  0  2  0  0  0  0  0  0  0  0  0
  186.7280  177.1830  137.5870 C   0  0  1  0  0  3  0  0  0  0  0  0
  187.1900  177.3210  136.1500 C   0  0  0  0  0  2  0  0  0  0  0  0
  189.1630  179.2400  137.8760 C   0  0  0  0  0  1  0  0  0  0  0  0
  187.9870  177.1210  138.4350 C   0  0  0  0  0  2  0  0  0  0  0  0
  185.9400  178.3550  137.9500 N   0  0  0  0  0  2  0  0  0  0  0  0
  184.5610  178.3120  138.3460 C   0  0  0  0  0  0  0  0  0  0  0  0
  183.7330  177.4100  137.8200 C   0  0  0  0  0  2  0  0  0  0  0  0
  182.9760  179.9760  139.0760 O   0  0  0  0  0  1  0  0  0  0  0  0
  184.0850  179.2380  139.3320 N   0  0  0  0  0  0  0  0  0  0  0  0
  184.7550  179.4000  140.5570 N   0  0  0  0  0  2  0  0  0  0  0  0
  184.1640  178.4710  141.5120 C   0  0  0  0  0  2  0  0  0  0  0  0
  185.2770  177.8790  143.5270 O   0  0  0  0  0  1  0  0  0  0  0  0
  184.5010  178.8800  142.9410 C   0  0  2  0  0  3  0  0  0  0  0  0
  183.2950  179.0380  144.9660 O   0  0  0  0  0  0  0  0  0  0  0  0
  183.2560  179.0740  143.7470 C   0  0  0  0  0  3  0  0  0  0  0  0
  190.4540  176.4350  139.3430 C   0  0  0  0  0  2  0  0  0  0  0  0
  191.1960  177.3430  140.3070 C   0  0  0  0  0  2  0  0  0  0  0  0
  189.1460  177.3350  143.1680 C   0  0  1  0  0  3  0  0  0  0  0  0
  191.7770  177.6960  142.6590 N   0  0  0  0  0  2  0  0  0  0  0  0
  189.7260  176.4060  142.0920 C   0  0  0  0  0  2  0  0  0  0  0  0
  191.1740  176.7570  141.7090 C   0  0  1  0  0  3  0  0  0  0  0  0
  191.5170  177.2220  143.9570 N   0  0  0  0  0  2  0  0  0  0  0  0
  190.1400  177.5850  144.3140 C   0  0  0  0  0  2  0  0  0  0  0  0
  188.7130  178.6650  142.5650 C   0  0  0  0  0  2  0  0  0  0  0  0
  187.8540  178.4360  141.3350 C   0  0  0  0  0  1  0  0  0  0  0  0
  1 26  1  1  0  0  0
  2  6  2  0  0  0  0
  3  5  2  0  0  0  0
  3  6  1  0  0  0  0
  4  2  1  0  0  0  0
  4  1  1  1  0  0  0
  7  8  1  6  0  0  0
  7  4  1  0  0  0  0
  7  3  1  0  0  0  0
  9 10  1  0  0  0  0
 10 13  1  1  0  0  0
 10  1  1  0  0  0  0
 10 14  1  0  0  0  0
 11 15  1  1  0  0  0
 11 14  1  0  0  0  0
 12  9  1  0  0  0  0
 12 11  1  0  0  0  0
 15 16  1  0  0  0  0
 16 19  1  0  0  0  0
 17 16  2  0  0  0  0
 18 19  1  0  0  0  0
 19 20  1  0  0  0  0
 20 21  1  0  0  0  0
 21 23  1  0  0  0  0
 23 22  1  1  0  0  0
 23 25  1  0  0  0  0
 25 24  2  0  0  0  0
 26 27  1  0  0  0  0
 28 34  1  6  0  0  0
 28 33  1  0  0  0  0
 29 32  1  0  0  0  0
 30 28  1  0  0  0  0
 31 27  1  6  0  0  0
 31 30  1  0  0  0  0
 31 29  1  0  0  0  0
 32 33  1  0  0  0  0
 35 34  1  0  0  0  0
M  END
>  <MODEL>
8

>  <REMARK>
 VINA RESULT:      -6.6      2.869      8.189
  Name = 
  13 active torsions:
  status: ('A' for Active; 'I' for Inactive)
    1  A    between atoms: C_4  and  N_24
    2  A    between atoms: C_4  and  C_32
    3  A    between atoms: C_5  and  N_8
    4  A    between atoms: C_5  and  N_10
    5  A    between atoms: C_6  and  C_12
    6  A    between atoms: N_8  and  C_21
    7  A    between atoms: C_9  and  C_17
    8  A    between atoms: C_9  and  C_26
    9  A    between atoms: N_10  and  N_24
   10  A    between atoms: C_13  and  C_28
   11  A    between atoms: C_17  and  C_28
   12  A    between atoms: C_20  and  C_28
   13  A    between atoms: C_30  and  C_32
                            x       y       z     vdW  Elec       q    Type
                         _______ _______ _______ _____ _____    ______ ____

>  <TORSDO>
F 13

$$$$
=
 OpenBabel11062413463D

 35 37  0  0  1  0  0  0  0  0999 V2000
  188.7090  177.5160  140.5860 C   0  0  1  0  0  3  0  0  0  0  0  0
  189.2630  178.8860  138.4990 C   0  0  0  0  0  3  0  0  0  0  0  0
  189.4280  176.9130  137.2860 C   0  0  0  0  0  0  0  0  0  0  0  0
  189.7400  177.7780  139.4620 C   0  0  2  0  0  3  0  0  0  0  0  0
  189.3200  176.1200  136.3130 O   0  0  0  0  0  0  0  0  0  0  0  0
  189.0160  178.2570  137.2140 N   0  0  0  0  0  0  0  0  0  0  0  0
  189.9680  176.5260  138.6040 C   0  0  2  0  0  3  0  0  0  0  0  0
  191.4560  176.2530  138.4950 C   0  0  0  0  0  1  0  0  0  0  0  0
  189.2080  175.8850  142.4750 C   0  0  0  0  0  2  0  0  0  0  0  0
  189.3430  177.3240  141.9930 C   0  0  2  0  0  0  0  0  0  0  0  0
  191.4730  176.6480  142.9890 C   0  0  1  0  0  3  0  0  0  0  0  0
  190.4730  175.5360  143.2370 C   0  0  0  0  0  2  0  0  0  0  0  0
  188.7020  178.2500  143.0200 C   0  0  0  0  0  1  0  0  0  0  0  0
  190.8420  177.5640  141.9540 C   0  0  0  0  0  2  0  0  0  0  0  0
  191.6930  177.3790  144.2320 N   0  0  0  0  0  2  0  0  0  0  0  0
  191.2430  176.9360  145.5200 C   0  0  0  0  0  0  0  0  0  0  0  0
  191.9100  175.9900  146.1830 C   0  0  0  0  0  2  0  0  0  0  0  0
  189.8100  178.8440  145.8610 O   0  0  0  0  0  1  0  0  0  0  0  0
  190.0780  177.5370  146.1010 N   0  0  0  0  0  0  0  0  0  0  0  0
  189.2130  176.7950  146.9230 N   0  0  0  0  0  2  0  0  0  0  0  0
  188.3740  177.7380  147.6520 C   0  0  0  0  0  2  0  0  0  0  0  0
  186.8950  177.1740  145.8790 O   0  0  0  0  0  1  0  0  0  0  0  0
  186.9230  177.6330  147.1970 C   0  0  2  0  0  3  0  0  0  0  0  0
  185.6020  179.3840  146.3230 O   0  0  0  0  0  0  0  0  0  0  0  0
  186.2440  178.9630  147.2710 C   0  0  0  0  0  3  0  0  0  0  0  0
  187.6460  178.6190  140.6100 C   0  0  0  0  0  2  0  0  0  0  0  0
  186.3450  178.0700  140.0540 C   0  0  0  0  0  2  0  0  0  0  0  0
  182.8700  178.0210  140.6130 C   0  0  1  0  0  3  0  0  0  0  0  0
  184.5720  179.4320  139.0550 N   0  0  0  0  0  2  0  0  0  0  0  0
  184.2000  178.3930  141.2860 C   0  0  0  0  0  2  0  0  0  0  0  0
  185.2050  179.0400  140.3180 C   0  0  1  0  0  3  0  0  0  0  0  0
  183.3890  180.1260  139.3650 N   0  0  0  0  0  2  0  0  0  0  0  0
  182.3520  179.1440  139.6990 C   0  0  0  0  0  2  0  0  0  0  0  0
  183.0040  176.7300  139.8150 C   0  0  0  0  0  2  0  0  0  0  0  0
  181.7180  176.4320  139.0670 C   0  0  0  0  0  1  0  0  0  0  0  0
  1 26  1  1  0  0  0
  1 10  1  0  0  0  0
  2  4  1  0  0  0  0
  3  7  1  0  0  0  0
  4  1  1  1  0  0  0
  5  3  2  0  0  0  0
  6  3  1  0  0  0  0
  6  2  2  0  0  0  0
  7  8  1  6  0  0  0
  7  4  1  0  0  0  0
  9 12  1  0  0  0  0
 10  9  1  0  0  0  0
 10 13  1  1  0  0  0
 11 12  1  0  0  0  0
 11 15  1  1  0  0  0
 14 10  1  0  0  0  0
 14 11  1  0  0  0  0
 15 16  1  0  0  0  0
 16 19  1  0  0  0  0
 16 17  2  0  0  0  0
 18 19  1  0  0  0  0
 19 20  1  0  0  0  0
 20 21  1  0  0  0  0
 23 22  1  6  0  0  0
 23 25  1  0  0  0  0
 23 21  1  0  0  0  0
 24 25  2  0  0  0  0
 27 26  1  0  0  0  0
 28 34  1  6  0  0  0
 28 30  1  0  0  0  0
 29 32  1  0  0  0  0
 29 31  1  0  0  0  0
 31 27  1  6  0  0  0
 31 30  1  0  0  0  0
 32 33  1  0  0  0  0
 33 28  1  0  0  0  0
 35 34  1  0  0  0  0
M  END
>  <MODEL>
9

>  <REMARK>
 VINA RESULT:      -6.5      2.474      6.938
  Name = 
  13 active torsions:
  status: ('A' for Active; 'I' for Inactive)
    1  A    between atoms: C_4  and  N_24
    2  A    between atoms: C_4  and  C_32
    3  A    between atoms: C_5  and  N_8
    4  A    between atoms: C_5  and  N_10
    5  A    between atoms: C_6  and  C_12
    6  A    between atoms: N_8  and  C_21
    7  A    between atoms: C_9  and  C_17
    8  A    between atoms: C_9  and  C_26
    9  A    between atoms: N_10  and  N_24
   10  A    between atoms: C_13  and  C_28
   11  A    between atoms: C_17  and  C_28
   12  A    between atoms: C_20  and  C_28
   13  A    between atoms: C_30  and  C_32
                            x       y       z     vdW  Elec       q    Type
                         _______ _______ _______ _____ _____    ______ ____

>  <TORSDO>
F 13

$$$$
