=
 OpenBabel11062416323D

 29 32  0  0  1  0  0  0  0  0999 V2000
  187.8940  179.3350  140.9050 O   0  0  0  0  0  0  0  0  0  0  0  0
  189.4410  178.0000  142.9510 C   0  0  1  0  0  3  0  0  0  0  0  0
  191.1520  177.7520  140.9540 C   0  0  1  0  0  3  0  0  0  0  0  0
  188.4900  177.4320  142.0640 O   0  0  0  0  0  0  0  0  0  0  0  0
  189.5250  177.0410  139.1750 C   0  0  2  0  0  0  0  0  0  0  0  0
  190.6190  175.4830  145.2540 O   0  0  0  0  0  1  0  0  0  0  0  0
  190.7370  176.7250  144.6260 C   0  0  2  0  0  0  0  0  0  0  0  0
  192.5250  177.8160  140.7200 O   0  0  0  0  0  1  0  0  0  0  0  0
  190.5570  176.5650  140.1970 C   0  0  0  0  0  2  0  0  0  0  0  0
  191.5530  177.6590  145.5150 C   0  0  0  0  0  1  0  0  0  0  0  0
  189.5360  176.1690  137.9440 C   0  0  0  0  0  2  0  0  0  0  0  0
  190.0780  177.5900  137.8580 C   0  0  1  0  0  3  0  0  0  0  0  0
  189.3430  177.2810  144.2860 C   0  0  1  0  0  3  0  0  0  0  0  0
  191.4430  176.5890  143.2840 C   0  0  2  0  0  3  0  0  0  0  0  0
  190.8750  177.7440  142.4690 C   0  0  2  0  0  3  0  0  0  0  0  0
  191.1190  175.3760  142.6970 F   0  0  0  0  0  0  0  0  0  0  0  0
  188.1000  178.0920  140.9020 C   0  0  0  0  0  0  0  0  0  0  0  0
  188.0870  177.3310  139.6250 C   0  0  0  0  0  2  0  0  0  0  0  0
  189.1240  178.4880  137.1190 C   0  0  0  0  0  0  0  0  0  0  0  0
  188.9890  179.6530  137.4620 O   0  0  0  0  0  0  0  0  0  0  0  0
  186.8630  178.1560  136.3330 N   0  0  0  0  0  1  0  0  0  0  0  0
  188.2660  177.9350  136.0260 C   0  0  0  0  0  2  0  0  0  0  0  0
  188.7030  178.1680  145.3520 C   0  0  0  0  0  2  0  0  0  0  0  0
  187.1820  178.0960  145.2930 C   0  0  0  0  0  2  0  0  0  0  0  0
  186.5630  178.2870  146.6780 C   0  0  1  0  0  0  0  0  0  0  0  0
  184.3070  178.4640  145.5750 C   0  0  0  0  0  1  0  0  0  0  0  0
  187.3710  177.9170  147.9050 C   0  0  0  0  0  1  0  0  0  0  0  0
  186.0250  179.5780  146.8110 O   0  0  0  0  0  0  0  0  0  0  0  0
  185.1040  178.5090  146.8680 C   0  0  2  0  0  3  0  0  0  0  0  0
  2  4  1  6  0  0  0
  2 13  1  0  0  0  0
  3  8  1  1  0  0  0
  3 15  1  0  0  0  0
  5 11  1  6  0  0  0
  5 18  1  0  0  0  0
  5  9  1  0  0  0  0
  7  6  1  0  0  0  0
  7 10  1  1  0  0  0
  9  3  1  0  0  0  0
 12 19  1  6  0  0  0
 12 11  1  0  0  0  0
 12  5  1  0  0  0  0
 13  7  1  0  0  0  0
 13 23  1  1  0  0  0
 14 16  1  6  0  0  0
 14  7  1  0  0  0  0
 15  2  1  0  0  0  0
 15 14  1  0  0  0  0
 17  1  2  0  0  0  0
 17  4  1  0  0  0  0
 18 17  1  0  0  0  0
 19 20  2  0  0  0  0
 22 21  1  0  0  0  0
 22 19  1  0  0  0  0
 24 23  1  0  0  0  0
 24 25  1  0  0  0  0
 25 28  1  0  0  0  0
 25 29  1  0  0  0  0
 25 27  1  0  0  0  0
 26 29  1  0  0  0  0
 28 29  1  0  0  0  0
M  END
>  <MODEL>
1

>  <REMARK>
 VINA RESULT:      -7.2      0.000      0.000
  Name = 
  5 active torsions:
  status: ('A' for Active; 'I' for Inactive)
    1  A    between atoms: C_10  and  C_15
    2  A    between atoms: C_11  and  C_18
    3  A    between atoms: C_11  and  C_19
    4  A    between atoms: C_15  and  C_21
    5  A    between atoms: C_20  and  C_21
                            x       y       z     vdW  Elec       q    Type
                         _______ _______ _______ _____ _____    ______ ____

>  <TORSDO>
F 5

$$$$
=
 OpenBabel11062416323D

 29 32  0  0  1  0  0  0  0  0999 V2000
  187.2630  178.0380  142.2810 O   0  0  0  0  0  0  0  0  0  0  0  0
  188.6220  177.6170  144.7980 C   0  0  1  0  0  3  0  0  0  0  0  0
  190.6950  178.4230  143.3730 C   0  0  1  0  0  3  0  0  0  0  0  0
  188.4060  176.6800  143.7530 O   0  0  0  0  0  0  0  0  0  0  0  0
  190.2640  177.0560  141.3090 C   0  0  2  0  0  0  0  0  0  0  0  0
  190.2290  175.9850  147.5880 O   0  0  0  0  0  1  0  0  0  0  0  0
  189.8540  177.1330  146.8860 C   0  0  2  0  0  0  0  0  0  0  0  0
  191.8330  179.2180  143.5120 O   0  0  0  0  0  1  0  0  0  0  0  0
  191.0520  177.1450  142.6150 C   0  0  0  0  0  2  0  0  0  0  0  0
  189.7690  178.3070  147.8570 C   0  0  0  0  0  1  0  0  0  0  0  0
  191.0780  176.3920  140.2260 C   0  0  0  0  0  2  0  0  0  0  0  0
  190.7960  177.8860  140.1380 C   0  0  1  0  0  3  0  0  0  0  0  0
  188.5390  176.8820  146.1260 C   0  0  1  0  0  3  0  0  0  0  0  0
  190.8740  177.4650  145.8060 C   0  0  2  0  0  3  0  0  0  0  0  0
  190.0460  178.1860  144.7500 C   0  0  2  0  0  3  0  0  0  0  0  0
  191.4140  176.2990  145.2870 F   0  0  0  0  0  0  0  0  0  0  0  0
  188.0780  177.0950  142.4660 C   0  0  0  0  0  0  0  0  0  0  0  0
  188.8280  176.5150  141.3210 C   0  0  0  0  0  2  0  0  0  0  0  0
  189.7700  178.1810  139.0780 C   0  0  0  0  0  0  0  0  0  0  0  0
  188.9470  179.0680  139.2520 O   0  0  0  0  0  0  0  0  0  0  0  0
  188.3020  177.0470  137.5300 N   0  0  0  0  0  1  0  0  0  0  0  0
  189.6910  177.3290  137.8520 C   0  0  0  0  0  2  0  0  0  0  0  0
  187.2580  177.2350  146.8800 C   0  0  0  0  0  2  0  0  0  0  0  0
  186.0950  177.4560  145.9220 C   0  0  0  0  0  2  0  0  0  0  0  0
  185.4860  178.8480  146.0990 C   0  0  1  0  0  0  0  0  0  0  0  0
  183.9430  178.3480  144.1740 C   0  0  0  0  0  1  0  0  0  0  0  0
  185.7340  179.6030  147.3890 C   0  0  0  0  0  1  0  0  0  0  0  0
  185.7690  179.6610  144.9880 O   0  0  0  0  0  0  0  0  0  0  0  0
  184.4070  179.3580  145.2110 C   0  0  2  0  0  3  0  0  0  0  0  0
  1 17  2  0  0  0  0
  2  4  1  6  0  0  0
  2 13  1  0  0  0  0
  3  8  1  1  0  0  0
  3 15  1  0  0  0  0
  5 11  1  6  0  0  0
  5 18  1  0  0  0  0
  5  9  1  0  0  0  0
  7  6  1  0  0  0  0
  7 10  1  1  0  0  0
  9  3  1  0  0  0  0
 12 19  1  6  0  0  0
 12 11  1  0  0  0  0
 12  5  1  0  0  0  0
 13 23  1  1  0  0  0
 13  7  1  0  0  0  0
 14 16  1  6  0  0  0
 14  7  1  0  0  0  0
 15  2  1  0  0  0  0
 15 14  1  0  0  0  0
 17  4  1  0  0  0  0
 18 17  1  0  0  0  0
 19 20  2  0  0  0  0
 21 22  1  0  0  0  0
 22 19  1  0  0  0  0
 24 25  1  0  0  0  0
 24 23  1  0  0  0  0
 25 27  1  0  0  0  0
 26 29  1  0  0  0  0
 28 29  1  0  0  0  0
 28 25  1  0  0  0  0
 29 25  1  0  0  0  0
M  END
>  <MODEL>
2

>  <REMARK>
 VINA RESULT:      -6.9      1.631      2.274
  Name = 
  5 active torsions:
  status: ('A' for Active; 'I' for Inactive)
    1  A    between atoms: C_10  and  C_15
    2  A    between atoms: C_11  and  C_18
    3  A    between atoms: C_11  and  C_19
    4  A    between atoms: C_15  and  C_21
    5  A    between atoms: C_20  and  C_21
                            x       y       z     vdW  Elec       q    Type
                         _______ _______ _______ _____ _____    ______ ____

>  <TORSDO>
F 5

$$$$
=
 OpenBabel11062416323D

 29 32  0  0  1  0  0  0  0  0999 V2000
  191.7980  177.4330  142.1040 O   0  0  0  0  0  0  0  0  0  0  0  0
  190.4850  177.2770  139.5320 C   0  0  1  0  0  3  0  0  0  0  0  0
  188.5270  178.4140  140.8930 C   0  0  1  0  0  3  0  0  0  0  0  0
  190.4970  176.3070  140.5680 O   0  0  0  0  0  0  0  0  0  0  0  0
  188.6370  176.9720  142.9490 C   0  0  2  0  0  0  0  0  0  0  0  0
  188.7320  175.9740  136.6590 O   0  0  0  0  0  1  0  0  0  0  0  0
  189.2710  177.0330  137.3930 C   0  0  2  0  0  0  0  0  0  0  0  0
  187.5490  179.3930  140.7260 O   0  0  0  0  0  1  0  0  0  0  0  0
  187.9280  177.2080  141.6170 C   0  0  0  0  0  2  0  0  0  0  0  0
  189.5930  178.1850  136.4450 C   0  0  0  0  0  1  0  0  0  0  0  0
  187.6800  176.4470  143.9900 C   0  0  0  0  0  2  0  0  0  0  0  0
  188.2100  177.8700  144.1130 C   0  0  1  0  0  3  0  0  0  0  0  0
  190.4920  176.5530  138.1960 C   0  0  1  0  0  3  0  0  0  0  0  0
  188.2820  177.5250  138.4400 C   0  0  2  0  0  3  0  0  0  0  0  0
  189.1790  178.0820  139.5370 C   0  0  2  0  0  3  0  0  0  0  0  0
  187.5300  176.4640  138.9200 F   0  0  0  0  0  0  0  0  0  0  0  0
  190.8410  176.6470  141.8730 C   0  0  0  0  0  0  0  0  0  0  0  0
  189.9590  176.1920  142.9800 C   0  0  0  0  0  2  0  0  0  0  0  0
  189.2300  177.9730  145.2150 C   0  0  0  0  0  0  0  0  0  0  0  0
  190.2350  178.6510  145.0570 O   0  0  0  0  0  0  0  0  0  0  0  0
  190.3680  176.7720  146.9750 N   0  0  0  0  0  1  0  0  0  0  0  0
  189.0670  177.1720  146.4660 C   0  0  0  0  0  2  0  0  0  0  0  0
  191.8430  176.6870  137.4950 C   0  0  0  0  0  2  0  0  0  0  0  0
  192.7970  175.5760  137.9120 C   0  0  0  0  0  2  0  0  0  0  0  0
  193.6770  175.1310  136.7430 C   0  0  1  0  0  0  0  0  0  0  0  0
  194.9690  173.6840  138.3480 C   0  0  0  0  0  1  0  0  0  0  0  0
  193.1980  175.3730  135.3260 C   0  0  0  0  0  1  0  0  0  0  0  0
  194.9940  175.5920  136.9060 O   0  0  0  0  0  0  0  0  0  0  0  0
  194.8160  174.1910  136.9230 C   0  0  2  0  0  3  0  0  0  0  0  0
  2 15  1  0  0  0  0
  2  4  1  1  0  0  0
  3  8  1  6  0  0  0
  3  9  1  0  0  0  0
  4 17  1  0  0  0  0
  5  9  1  6  0  0  0
  5 18  1  0  0  0  0
  5 11  1  0  0  0  0
  5 12  1  0  0  0  0
  6  7  1  0  0  0  0
  7 10  1  6  0  0  0
  7 13  1  0  0  0  0
  7 14  1  0  0  0  0
 11 12  1  0  0  0  0
 12 19  1  1  0  0  0
 13 23  1  6  0  0  0
 13  2  1  0  0  0  0
 14 16  1  1  0  0  0
 14 15  1  0  0  0  0
 15  3  1  0  0  0  0
 17  1  2  0  0  0  0
 17 18  1  0  0  0  0
 19 22  1  0  0  0  0
 20 19  2  0  0  0  0
 22 21  1  0  0  0  0
 23 24  1  0  0  0  0
 25 28  1  0  0  0  0
 25 29  1  0  0  0  0
 25 24  1  0  0  0  0
 27 25  1  0  0  0  0
 28 29  1  0  0  0  0
 29 26  1  0  0  0  0
M  END
>  <MODEL>
3

>  <REMARK>
 VINA RESULT:      -6.6      3.507      8.355
  Name = 
  5 active torsions:
  status: ('A' for Active; 'I' for Inactive)
    1  A    between atoms: C_10  and  C_15
    2  A    between atoms: C_11  and  C_18
    3  A    between atoms: C_11  and  C_19
    4  A    between atoms: C_15  and  C_21
    5  A    between atoms: C_20  and  C_21
                            x       y       z     vdW  Elec       q    Type
                         _______ _______ _______ _____ _____    ______ ____

>  <TORSDO>
F 5

$$$$
=
 OpenBabel11062416323D

 29 32  0  0  1  0  0  0  0  0999 V2000
  186.8750  177.7970  140.1890 O   0  0  0  0  0  0  0  0  0  0  0  0
  189.0970  177.5160  142.0180 C   0  0  1  0  0  3  0  0  0  0  0  0
  187.1380  176.9940  143.7120 C   0  0  1  0  0  3  0  0  0  0  0  0
  188.3660  178.6920  141.7040 O   0  0  0  0  0  0  0  0  0  0  0  0
  185.5810  178.8500  143.0400 C   0  0  2  0  0  0  0  0  0  0  0  0
  191.8130  178.3270  144.2520 O   0  0  0  0  0  1  0  0  0  0  0  0
  190.9500  177.4090  143.6500 C   0  0  2  0  0  0  0  0  0  0  0  0
  186.8560  176.1390  144.7760 O   0  0  0  0  0  1  0  0  0  0  0  0
  186.6450  178.4030  144.0410 C   0  0  0  0  0  2  0  0  0  0  0  0
  191.6150  176.0350  143.6350 C   0  0  0  0  0  1  0  0  0  0  0  0
  184.5450  179.7250  143.7020 C   0  0  0  0  0  2  0  0  0  0  0  0
  184.1670  178.3140  143.2700 C   0  0  1  0  0  3  0  0  0  0  0  0
  190.5490  177.9000  142.2480 C   0  0  1  0  0  3  0  0  0  0  0  0
  189.6410  177.3080  144.4200 C   0  0  2  0  0  3  0  0  0  0  0  0
  188.6330  176.9110  143.3500 C   0  0  2  0  0  3  0  0  0  0  0  0
  189.3130  178.5400  144.9630 F   0  0  0  0  0  0  0  0  0  0  0  0
  187.1100  178.6250  141.1090 C   0  0  0  0  0  0  0  0  0  0  0  0
  186.0080  179.4370  141.6880 C   0  0  0  0  0  2  0  0  0  0  0  0
  183.2940  178.3390  142.0450 C   0  0  0  0  0  0  0  0  0  0  0  0
  183.6000  177.6820  141.0610 O   0  0  0  0  0  0  0  0  0  0  0  0
  181.0870  178.7870  142.9220 N   0  0  0  0  0  1  0  0  0  0  0  0
  182.1040  179.2430  141.9890 C   0  0  0  0  0  2  0  0  0  0  0  0
  191.4400  177.4310  141.0990 C   0  0  0  0  0  2  0  0  0  0  0  0
  190.6180  176.7950  139.9850 C   0  0  0  0  0  2  0  0  0  0  0  0
  191.4860  176.4730  138.7690 C   0  0  1  0  0  0  0  0  0  0  0  0
  189.3900  176.3720  137.3780 C   0  0  0  0  0  1  0  0  0  0  0  0
  192.9770  176.7400  138.8350 C   0  0  0  0  0  1  0  0  0  0  0  0
  191.2370  175.1700  138.3080 O   0  0  0  0  0  0  0  0  0  0  0  0
  190.9020  176.2190  137.4240 C   0  0  2  0  0  3  0  0  0  0  0  0
  1 17  2  0  0  0  0
  2  4  1  1  0  0  0
  2 13  1  0  0  0  0
  2 15  1  0  0  0  0
  3  9  1  0  0  0  0
  3  8  1  1  0  0  0
  5 18  1  6  0  0  0
  5 12  1  0  0  0  0
  5 11  1  0  0  0  0
  5  9  1  0  0  0  0
  7 10  1  6  0  0  0
  7  6  1  0  0  0  0
  7 14  1  0  0  0  0
 12 19  1  6  0  0  0
 12 11  1  0  0  0  0
 13 23  1  6  0  0  0
 13  7  1  0  0  0  0
 14 16  1  6  0  0  0
 15  3  1  0  0  0  0
 15 14  1  0  0  0  0
 17 18  1  0  0  0  0
 17  4  1  0  0  0  0
 20 19  2  0  0  0  0
 22 19  1  0  0  0  0
 22 21  1  0  0  0  0
 24 23  1  0  0  0  0
 25 27  1  0  0  0  0
 25 24  1  0  0  0  0
 26 29  1  0  0  0  0
 28 25  1  0  0  0  0
 29 28  1  0  0  0  0
 29 25  1  0  0  0  0
M  END
>  <MODEL>
4

>  <REMARK>
 VINA RESULT:      -6.6      2.883      6.506
  Name = 
  5 active torsions:
  status: ('A' for Active; 'I' for Inactive)
    1  A    between atoms: C_10  and  C_15
    2  A    between atoms: C_11  and  C_18
    3  A    between atoms: C_11  and  C_19
    4  A    between atoms: C_15  and  C_21
    5  A    between atoms: C_20  and  C_21
                            x       y       z     vdW  Elec       q    Type
                         _______ _______ _______ _____ _____    ______ ____

>  <TORSDO>
F 5

$$$$
=
 OpenBabel11062416323D

 29 32  0  0  1  0  0  0  0  0999 V2000
  186.8320  177.1660  146.9390 O   0  0  0  0  0  0  0  0  0  0  0  0
  185.9070  177.8510  144.2860 C   0  0  1  0  0  3  0  0  0  0  0  0
  188.1870  176.6990  143.6120 C   0  0  1  0  0  3  0  0  0  0  0  0
  186.6920  178.6390  145.1690 O   0  0  0  0  0  0  0  0  0  0  0  0
  189.6570  177.7780  145.3410 C   0  0  2  0  0  0  0  0  0  0  0  0
  185.1300  179.7520  141.3180 O   0  0  0  0  0  1  0  0  0  0  0  0
  185.2290  178.5440  142.0130 C   0  0  2  0  0  0  0  0  0  0  0  0
  188.6970  175.8540  142.6270 O   0  0  0  0  0  1  0  0  0  0  0  0
  189.1830  177.8240  143.8890 C   0  0  0  0  0  2  0  0  0  0  0  0
  184.2670  177.5330  141.3950 C   0  0  0  0  0  1  0  0  0  0  0  0
  191.0960  178.2180  145.4570 C   0  0  0  0  0  2  0  0  0  0  0  0
  190.7440  176.7500  145.6660 C   0  0  1  0  0  3  0  0  0  0  0  0
  184.9800  178.7750  143.5130 C   0  0  1  0  0  3  0  0  0  0  0  0
  186.6420  177.9850  141.9300 C   0  0  2  0  0  3  0  0  0  0  0  0
  186.7780  177.1800  143.2160 C   0  0  2  0  0  3  0  0  0  0  0  0
  187.5630  179.0220  141.9080 F   0  0  0  0  0  0  0  0  0  0  0  0
  187.3710  178.0650  146.2400 C   0  0  0  0  0  0  0  0  0  0  0  0
  188.8010  178.4170  146.4420 C   0  0  0  0  0  2  0  0  0  0  0  0
  190.8210  176.3790  147.1220 C   0  0  0  0  0  0  0  0  0  0  0  0
  189.8580  175.8660  147.6750 O   0  0  0  0  0  0  0  0  0  0  0  0
  192.9900  175.6290  147.8760 N   0  0  0  0  0  1  0  0  0  0  0  0
  192.0360  176.7230  147.9220 C   0  0  0  0  0  2  0  0  0  0  0  0
  183.5320  178.6280  143.9770 C   0  0  0  0  0  2  0  0  0  0  0  0
  182.6280  179.6510  143.3030 C   0  0  0  0  0  2  0  0  0  0  0  0
  181.1970  179.1270  143.1710 C   0  0  1  0  0  0  0  0  0  0  0  0
  181.3780  179.4420  140.6800 C   0  0  0  0  0  1  0  0  0  0  0  0
  180.5760  178.3790  144.3330 C   0  0  0  0  0  1  0  0  0  0  0  0
  180.3340  180.1380  142.7160 O   0  0  0  0  0  0  0  0  0  0  0  0
  180.5070  179.0310  141.8560 C   0  0  2  0  0  3  0  0  0  0  0  0
  2  4  1  1  0  0  0
  3  8  1  6  0  0  0
  3  9  1  0  0  0  0
  4 17  1  0  0  0  0
  5  9  1  6  0  0  0
  5 11  1  0  0  0  0
  5 12  1  0  0  0  0
  5 18  1  0  0  0  0
  6  7  1  0  0  0  0
  7 10  1  6  0  0  0
  7 13  1  0  0  0  0
 11 12  1  0  0  0  0
 12 19  1  1  0  0  0
 13 23  1  6  0  0  0
 13  2  1  0  0  0  0
 14 16  1  1  0  0  0
 14  7  1  0  0  0  0
 14 15  1  0  0  0  0
 15  3  1  0  0  0  0
 15  2  1  0  0  0  0
 17 18  1  0  0  0  0
 17  1  2  0  0  0  0
 19 20  2  0  0  0  0
 19 22  1  0  0  0  0
 21 22  1  0  0  0  0
 24 23  1  0  0  0  0
 25 24  1  0  0  0  0
 25 27  1  0  0  0  0
 26 29  1  0  0  0  0
 28 25  1  0  0  0  0
 29 28  1  0  0  0  0
 29 25  1  0  0  0  0
M  END
>  <MODEL>
5

>  <REMARK>
 VINA RESULT:      -6.4      4.095      7.151
  Name = 
  5 active torsions:
  status: ('A' for Active; 'I' for Inactive)
    1  A    between atoms: C_10  and  C_15
    2  A    between atoms: C_11  and  C_18
    3  A    between atoms: C_11  and  C_19
    4  A    between atoms: C_15  and  C_21
    5  A    between atoms: C_20  and  C_21
                            x       y       z     vdW  Elec       q    Type
                         _______ _______ _______ _____ _____    ______ ____

>  <TORSDO>
F 5

$$$$
=
 OpenBabel11062416323D

 29 32  0  0  1  0  0  0  0  0999 V2000
  189.0350  178.4570  141.8940 O   0  0  0  0  0  0  0  0  0  0  0  0
  186.4090  178.6470  140.6970 C   0  0  1  0  0  3  0  0  0  0  0  0
  185.7440  179.2590  143.1800 C   0  0  1  0  0  3  0  0  0  0  0  0
  187.0330  177.5030  141.2610 O   0  0  0  0  0  0  0  0  0  0  0  0
  187.0630  177.4700  144.3540 C   0  0  2  0  0  0  0  0  0  0  0  0
  183.2200  177.7250  139.2810 O   0  0  0  0  0  1  0  0  0  0  0  0
  184.1260  178.6790  139.7510 C   0  0  2  0  0  0  0  0  0  0  0  0
  184.8990  180.1290  143.8670 O   0  0  0  0  0  1  0  0  0  0  0  0
  185.6880  177.8730  143.8230 C   0  0  0  0  0  2  0  0  0  0  0  0
  183.8240  180.0220  139.0930 C   0  0  0  0  0  1  0  0  0  0  0  0
  186.9410  176.6430  145.6100 C   0  0  0  0  0  2  0  0  0  0  0  0
  187.4710  178.0680  145.7020 C   0  0  1  0  0  3  0  0  0  0  0  0
  185.5690  178.2010  139.5120 C   0  0  1  0  0  3  0  0  0  0  0  0
  184.0100  178.8380  141.2600 C   0  0  2  0  0  3  0  0  0  0  0  0
  185.4090  179.2750  141.6760 C   0  0  2  0  0  3  0  0  0  0  0  0
  183.6870  177.6230  141.8440 F   0  0  0  0  0  0  0  0  0  0  0  0
  188.1190  177.6220  142.1230 C   0  0  0  0  0  0  0  0  0  0  0  0
  188.0980  176.8610  143.3990 C   0  0  0  0  0  2  0  0  0  0  0  0
  188.9560  178.0770  145.9450 C   0  0  0  0  0  0  0  0  0  0  0  0
  189.7040  178.6280  145.1510 O   0  0  0  0  0  0  0  0  0  0  0  0
  189.0290  177.8780  148.3520 N   0  0  0  0  0  1  0  0  0  0  0  0
  189.5320  177.3290  147.1050 C   0  0  0  0  0  2  0  0  0  0  0  0
  186.2000  178.6280  138.1880 C   0  0  0  0  0  2  0  0  0  0  0  0
  186.9160  177.4640  137.5150 C   0  0  0  0  0  2  0  0  0  0  0  0
  188.4340  177.6000  137.6380 C   0  0  1  0  0  0  0  0  0  0  0  0
  188.6460  175.2110  136.8720 C   0  0  0  0  0  1  0  0  0  0  0  0
  189.0460  178.9830  137.7270 C   0  0  0  0  0  1  0  0  0  0  0  0
  188.9280  176.7740  138.6610 O   0  0  0  0  0  0  0  0  0  0  0  0
  189.3560  176.4680  137.3500 C   0  0  2  0  0  3  0  0  0  0  0  0
  1 17  2  0  0  0  0
  2  4  1  1  0  0  0
  2 15  1  0  0  0  0
  3  9  1  0  0  0  0
  3  8  1  1  0  0  0
  4 17  1  0  0  0  0
  5 18  1  6  0  0  0
  5 11  1  0  0  0  0
  5 12  1  0  0  0  0
  6  7  1  0  0  0  0
  7 10  1  6  0  0  0
  7 14  1  0  0  0  0
  9  5  1  0  0  0  0
 11 12  1  0  0  0  0
 12 19  1  6  0  0  0
 13 23  1  6  0  0  0
 13  7  1  0  0  0  0
 13  2  1  0  0  0  0
 14 15  1  0  0  0  0
 14 16  1  1  0  0  0
 15  3  1  0  0  0  0
 17 18  1  0  0  0  0
 19 22  1  0  0  0  0
 20 19  2  0  0  0  0
 22 21  1  0  0  0  0
 24 25  1  0  0  0  0
 24 23  1  0  0  0  0
 25 27  1  0  0  0  0
 25 28  1  0  0  0  0
 26 29  1  0  0  0  0
 29 25  1  0  0  0  0
 29 28  1  0  0  0  0
M  END
>  <MODEL>
6

>  <REMARK>
 VINA RESULT:      -6.4      3.687      7.981
  Name = 
  5 active torsions:
  status: ('A' for Active; 'I' for Inactive)
    1  A    between atoms: C_10  and  C_15
    2  A    between atoms: C_11  and  C_18
    3  A    between atoms: C_11  and  C_19
    4  A    between atoms: C_15  and  C_21
    5  A    between atoms: C_20  and  C_21
                            x       y       z     vdW  Elec       q    Type
                         _______ _______ _______ _____ _____    ______ ____

>  <TORSDO>
F 5

$$$$
=
 OpenBabel11062416323D

 29 32  0  0  1  0  0  0  0  0999 V2000
  191.5880  177.1260  142.3540 O   0  0  0  0  0  0  0  0  0  0  0  0
  190.2530  177.2770  139.7930 C   0  0  1  0  0  3  0  0  0  0  0  0
  188.4540  178.5620  141.2400 C   0  0  1  0  0  3  0  0  0  0  0  0
  190.1520  176.2540  140.7730 O   0  0  0  0  0  0  0  0  0  0  0  0
  188.3990  177.0020  143.2090 C   0  0  2  0  0  0  0  0  0  0  0  0
  188.3410  176.3620  136.8720 O   0  0  0  0  0  1  0  0  0  0  0  0
  189.0070  177.3040  137.6580 C   0  0  2  0  0  0  0  0  0  0  0  0
  187.6010  179.6600  141.1390 O   0  0  0  0  0  1  0  0  0  0  0  0
  187.7170  177.3970  141.9010 C   0  0  0  0  0  2  0  0  0  0  0  0
  189.4620  178.4620  136.7730 C   0  0  0  0  0  1  0  0  0  0  0  0
  187.3910  176.5360  144.2310 C   0  0  0  0  0  2  0  0  0  0  0  0
  188.0900  177.8760  144.4270 C   0  0  1  0  0  3  0  0  0  0  0  0
  190.1660  176.6350  138.4180 C   0  0  1  0  0  3  0  0  0  0  0  0
  188.0900  177.8510  138.7430 C   0  0  2  0  0  3  0  0  0  0  0  0
  189.0550  178.2320  139.8590 C   0  0  2  0  0  3  0  0  0  0  0  0
  187.2180  176.8630  139.1710 F   0  0  0  0  0  0  0  0  0  0  0  0
  190.5420  176.4750  142.0910 C   0  0  0  0  0  0  0  0  0  0  0  0
  189.6160  176.0670  143.1810 C   0  0  0  0  0  2  0  0  0  0  0  0
  189.1200  177.7920  145.5210 C   0  0  0  0  0  0  0  0  0  0  0  0
  190.2360  178.2600  145.3480 O   0  0  0  0  0  0  0  0  0  0  0  0
  189.6640  177.5330  147.8610 N   0  0  0  0  0  1  0  0  0  0  0  0
  188.8160  177.0510  146.7830 C   0  0  0  0  0  2  0  0  0  0  0  0
  191.5200  176.6460  137.7100 C   0  0  0  0  0  2  0  0  0  0  0  0
  191.9290  175.2450  137.2760 C   0  0  0  0  0  2  0  0  0  0  0  0
  191.4630  174.9460  135.8510 C   0  0  1  0  0  0  0  0  0  0  0  0
  189.8370  173.2760  136.8000 C   0  0  0  0  0  1  0  0  0  0  0  0
  191.8120  175.9190  134.7420 C   0  0  0  0  0  1  0  0  0  0  0  0
  191.7990  173.6330  135.4800 O   0  0  0  0  0  0  0  0  0  0  0  0
  190.4200  173.9270  135.5570 C   0  0  2  0  0  3  0  0  0  0  0  0
  2 15  1  0  0  0  0
  2  4  1  1  0  0  0
  3  8  1  6  0  0  0
  3  9  1  0  0  0  0
  4 17  1  0  0  0  0
  5  9  1  6  0  0  0
  5 11  1  0  0  0  0
  5 12  1  0  0  0  0
  6  7  1  0  0  0  0
  7 10  1  6  0  0  0
  7 13  1  0  0  0  0
  7 14  1  0  0  0  0
 11 12  1  0  0  0  0
 12 19  1  1  0  0  0
 13 23  1  6  0  0  0
 13  2  1  0  0  0  0
 14 16  1  1  0  0  0
 14 15  1  0  0  0  0
 15  3  1  0  0  0  0
 17  1  2  0  0  0  0
 17 18  1  0  0  0  0
 18  5  1  0  0  0  0
 19 22  1  0  0  0  0
 20 19  2  0  0  0  0
 22 21  1  0  0  0  0
 24 23  1  0  0  0  0
 25 24  1  0  0  0  0
 27 25  1  0  0  0  0
 28 29  1  0  0  0  0
 28 25  1  0  0  0  0
 29 25  1  0  0  0  0
 29 26  1  0  0  0  0
M  END
>  <MODEL>
7

>  <REMARK>
 VINA RESULT:      -6.3      3.352      8.212
  Name = 
  5 active torsions:
  status: ('A' for Active; 'I' for Inactive)
    1  A    between atoms: C_10  and  C_15
    2  A    between atoms: C_11  and  C_18
    3  A    between atoms: C_11  and  C_19
    4  A    between atoms: C_15  and  C_21
    5  A    between atoms: C_20  and  C_21
                            x       y       z     vdW  Elec       q    Type
                         _______ _______ _______ _____ _____    ______ ____

>  <TORSDO>
F 5

$$$$
=
 OpenBabel11062416323D

 29 32  0  0  1  0  0  0  0  0999 V2000
  184.5700  180.3290  139.1460 O   0  0  0  0  0  0  0  0  0  0  0  0
  185.8640  178.1430  137.7670 C   0  0  1  0  0  3  0  0  0  0  0  0
  183.3590  177.5170  137.2100 C   0  0  1  0  0  3  0  0  0  0  0  0
  185.4370  178.1920  139.1200 O   0  0  0  0  0  0  0  0  0  0  0  0
  182.3840  177.8780  139.4980 C   0  0  2  0  0  0  0  0  0  0  0  0
  187.5650  175.0220  137.1380 O   0  0  0  0  0  1  0  0  0  0  0  0
  186.9160  176.1780  136.6980 C   0  0  2  0  0  0  0  0  0  0  0  0
  182.6000  177.0230  136.1500 O   0  0  0  0  0  1  0  0  0  0  0  0
  182.9230  176.8440  138.5120 C   0  0  0  0  0  2  0  0  0  0  0  0
  187.3910  176.5100  135.2860 C   0  0  0  0  0  1  0  0  0  0  0  0
  181.2670  177.3020  140.3330 C   0  0  0  0  0  2  0  0  0  0  0  0
  180.9440  178.3450  139.2710 C   0  0  1  0  0  3  0  0  0  0  0  0
  187.1440  177.3250  137.6970 C   0  0  1  0  0  3  0  0  0  0  0  0
  185.4080  175.9750  136.6700 C   0  0  2  0  0  3  0  0  0  0  0  0
  184.8600  177.3790  136.8940 C   0  0  2  0  0  3  0  0  0  0  0  0
  185.0220  175.1330  137.7010 F   0  0  0  0  0  0  0  0  0  0  0  0
  184.5120  179.1380  139.5520 C   0  0  0  0  0  0  0  0  0  0  0  0
  183.3600  178.6780  140.3710 C   0  0  0  0  0  2  0  0  0  0  0  0
  180.6240  179.6740  139.8990 C   0  0  0  0  0  0  0  0  0  0  0  0
  180.9270  180.7110  139.3270 O   0  0  0  0  0  0  0  0  0  0  0  0
  179.6010  181.0900  141.5690 N   0  0  0  0  0  1  0  0  0  0  0  0
  180.0250  179.7330  141.2680 C   0  0  0  0  0  2  0  0  0  0  0  0
  188.3580  178.2120  137.4260 C   0  0  0  0  0  2  0  0  0  0  0  0
  189.0420  178.6270  138.7220 C   0  0  0  0  0  2  0  0  0  0  0  0
  189.6590  177.4230  139.4350 C   0  0  1  0  0  0  0  0  0  0  0  0
  188.1950  177.9290  141.4200 C   0  0  0  0  0  1  0  0  0  0  0  0
  190.4170  176.3930  138.6210 C   0  0  0  0  0  1  0  0  0  0  0  0
  190.4190  177.8340  140.5430 O   0  0  0  0  0  0  0  0  0  0  0  0
  189.2810  177.0470  140.8230 C   0  0  2  0  0  3  0  0  0  0  0  0
  1 17  2  0  0  0  0
  2  4  1  1  0  0  0
  3  8  1  6  0  0  0
  3  9  1  0  0  0  0
  4 17  1  0  0  0  0
  5  9  1  6  0  0  0
  5 11  1  0  0  0  0
  5 18  1  0  0  0  0
  7 10  1  6  0  0  0
  7  6  1  0  0  0  0
  7 13  1  0  0  0  0
 12  5  1  0  0  0  0
 12 19  1  1  0  0  0
 12 11  1  0  0  0  0
 13 23  1  6  0  0  0
 13  2  1  0  0  0  0
 14  7  1  0  0  0  0
 14 15  1  0  0  0  0
 14 16  1  1  0  0  0
 15  3  1  0  0  0  0
 15  2  1  0  0  0  0
 17 18  1  0  0  0  0
 19 22  1  0  0  0  0
 20 19  2  0  0  0  0
 22 21  1  0  0  0  0
 23 24  1  0  0  0  0
 24 25  1  0  0  0  0
 25 28  1  0  0  0  0
 25 29  1  0  0  0  0
 27 25  1  0  0  0  0
 28 29  1  0  0  0  0
 29 26  1  0  0  0  0
M  END
>  <MODEL>
8

>  <REMARK>
 VINA RESULT:      -6.2      4.777      8.045
  Name = 
  5 active torsions:
  status: ('A' for Active; 'I' for Inactive)
    1  A    between atoms: C_10  and  C_15
    2  A    between atoms: C_11  and  C_18
    3  A    between atoms: C_11  and  C_19
    4  A    between atoms: C_15  and  C_21
    5  A    between atoms: C_20  and  C_21
                            x       y       z     vdW  Elec       q    Type
                         _______ _______ _______ _____ _____    ______ ____

>  <TORSDO>
F 5

$$$$
=
 OpenBabel11062416323D

 29 32  0  0  1  0  0  0  0  0999 V2000
  187.5540  176.9050  142.6660 O   0  0  0  0  0  0  0  0  0  0  0  0
  187.5240  177.6320  139.8670 C   0  0  1  0  0  3  0  0  0  0  0  0
  189.9780  176.6600  139.9850 C   0  0  1  0  0  3  0  0  0  0  0  0
  187.9050  178.4340  140.9750 O   0  0  0  0  0  0  0  0  0  0  0  0
  190.6970  177.7640  142.1240 C   0  0  2  0  0  0  0  0  0  0  0  0
  187.6470  179.5950  136.8410 O   0  0  0  0  0  1  0  0  0  0  0  0
  187.5980  178.3690  137.5090 C   0  0  2  0  0  0  0  0  0  0  0  0
  190.8510  175.8900  139.2170 O   0  0  0  0  0  1  0  0  0  0  0  0
  190.7350  177.8370  140.5990 C   0  0  0  0  0  2  0  0  0  0  0  0
  186.9780  177.3220  136.5880 C   0  0  0  0  0  1  0  0  0  0  0  0
  191.9760  178.2930  142.7270 C   0  0  0  0  0  2  0  0  0  0  0  0
  191.6860  176.7980  142.7820 C   0  0  1  0  0  3  0  0  0  0  0  0
  186.8430  178.5230  138.8410 C   0  0  1  0  0  3  0  0  0  0  0  0
  188.9950  177.9080  137.9000 C   0  0  2  0  0  3  0  0  0  0  0  0
  188.7510  177.0630  139.1430 C   0  0  2  0  0  3  0  0  0  0  0  0
  189.7890  179.0030  138.2050 F   0  0  0  0  0  0  0  0  0  0  0  0
  188.2270  177.8640  142.2030 C   0  0  0  0  0  0  0  0  0  0  0  0
  189.4760  178.3020  142.8820 C   0  0  0  0  0  2  0  0  0  0  0  0
  191.2970  176.3750  144.1730 C   0  0  0  0  0  0  0  0  0  0  0  0
  190.5990  175.3850  144.3390 O   0  0  0  0  0  0  0  0  0  0  0  0
  192.0560  176.3670  146.4670 N   0  0  0  0  0  1  0  0  0  0  0  0
  191.6810  177.2150  145.3480 C   0  0  0  0  0  2  0  0  0  0  0  0
  185.3390  178.2640  138.7870 C   0  0  0  0  0  2  0  0  0  0  0  0
  184.5610  179.3620  139.5000 C   0  0  0  0  0  2  0  0  0  0  0  0
  183.3580  178.7930  140.2520 C   0  0  1  0  0  0  0  0  0  0  0  0
  184.6740  179.0030  142.3880 C   0  0  0  0  0  1  0  0  0  0  0  0
  182.0050  178.7680  139.5690 C   0  0  0  0  0  1  0  0  0  0  0  0
  183.6600  177.5330  140.7960 O   0  0  0  0  0  0  0  0  0  0  0  0
  183.3800  178.5630  141.7220 C   0  0  2  0  0  3  0  0  0  0  0  0
  2  4  1  1  0  0  0
  3  8  1  6  0  0  0
  3  9  1  0  0  0  0
  4 17  1  0  0  0  0
  5  9  1  6  0  0  0
  5 11  1  0  0  0  0
  5 12  1  0  0  0  0
  5 18  1  0  0  0  0
  6  7  1  0  0  0  0
  7 10  1  6  0  0  0
  7 14  1  0  0  0  0
  7 13  1  0  0  0  0
 11 12  1  0  0  0  0
 12 19  1  1  0  0  0
 13 23  1  6  0  0  0
 13  2  1  0  0  0  0
 14 16  1  1  0  0  0
 14 15  1  0  0  0  0
 15  2  1  0  0  0  0
 15  3  1  0  0  0  0
 17  1  2  0  0  0  0
 17 18  1  0  0  0  0
 19 20  2  0  0  0  0
 19 22  1  0  0  0  0
 22 21  1  0  0  0  0
 23 24  1  0  0  0  0
 24 25  1  0  0  0  0
 25 28  1  0  0  0  0
 25 29  1  0  0  0  0
 27 25  1  0  0  0  0
 28 29  1  0  0  0  0
 29 26  1  0  0  0  0
M  END
>  <MODEL>
9

>  <REMARK>
 VINA RESULT:      -5.9      3.390      6.443
  Name = 
  5 active torsions:
  status: ('A' for Active; 'I' for Inactive)
    1  A    between atoms: C_10  and  C_15
    2  A    between atoms: C_11  and  C_18
    3  A    between atoms: C_11  and  C_19
    4  A    between atoms: C_15  and  C_21
    5  A    between atoms: C_20  and  C_21
                            x       y       z     vdW  Elec       q    Type
                         _______ _______ _______ _____ _____    ______ ____

>  <TORSDO>
F 5

$$$$
