=
 OpenBabel11062412283D

 37 43  0  0  1  0  0  0  0  0999 V2000
  188.9730  177.6820  144.1210 C   0  0  0  0  0  2  0  0  0  0  0  0
  188.6860  177.9630  142.6270 C   0  0  2  0  0  3  0  0  0  0  0  0
  183.7640  179.1430  145.5200 N   0  0  0  0  0  2  0  0  0  0  0  0
  184.8550  179.2610  143.3980 C   0  0  2  0  0  3  0  0  0  0  0  0
  185.9300  178.3640  146.4970 C   0  0  0  0  0  2  0  0  0  0  0  0
  184.9190  179.0720  141.8730 C   0  0  0  0  0  2  0  0  0  0  0  0
  185.2460  177.9840  144.0310 C   0  0  1  0  0  3  0  0  0  0  0  0
  186.3220  178.5280  141.4260 C   0  0  0  0  0  2  0  0  0  0  0  0
  187.1830  177.9670  142.5630 C   0  0  2  0  0  3  0  0  0  0  0  0
  186.6910  177.8540  143.7820 C   0  0  1  0  0  3  0  0  0  0  0  0
  187.2460  177.6220  146.1440 C   0  0  1  0  0  3  0  0  0  0  0  0
  184.7950  178.0920  145.4790 C   0  0  2  0  0  3  0  0  0  0  0  0
  187.7000  178.1590  144.7940 C   0  0  1  0  0  3  0  0  0  0  0  0
  183.5890  179.6380  144.1410 C   0  0  1  0  0  3  0  0  0  0  0  0
  189.0410  177.0340  140.2300 C   0  0  2  0  0  3  0  0  0  0  0  0
  190.2590  177.2550  139.3970 C   0  0  1  0  0  0  0  0  0  0  0  0
  189.4530  178.3270  139.8210 O   0  0  0  0  0  0  0  0  0  0  0  0
  192.3300  176.1140  139.7480 F   0  0  0  0  0  0  0  0  0  0  0  0
  189.2880  176.8580  141.7450 C   0  0  1  0  0  3  0  0  0  0  0  0
  191.5530  177.3960  141.5770 C   0  0  2  0  0  3  0  0  0  0  0  0
  191.3290  178.7050  141.9740 F   0  0  0  0  0  0  0  0  0  0  0  0
  191.6420  177.2710  140.0630 C   0  0  2  0  0  3  0  0  0  0  0  0
  190.6080  176.4960  142.1150 O   0  0  0  0  0  0  0  0  0  0  0  0
  191.4650  176.9190  137.3570 O   0  0  0  0  0  1  0  0  0  0  0  0
  190.1700  177.0160  137.8730 C   0  0  0  0  0  0  0  0  0  0  0  0
  189.5000  175.8120  137.6480 O   0  0  0  0  0  1  0  0  0  0  0  0
  188.0840  177.6830  136.5980 C   0  0  0  0  0  1  0  0  0  0  0  0
  189.4260  178.1450  137.1430 C   0  0  0  0  0  2  0  0  0  0  0  0
  181.0130  178.4590  141.5810 C   0  0  0  0  0  3  0  0  0  0  0  0
  182.3360  179.0840  143.5200 C   0  0  0  0  0  0  0  0  0  0  0  0
  179.9610  178.0830  142.4180 C   0  0  0  0  0  3  0  0  0  0  0  0
  181.2750  178.7100  144.3540 C   0  0  0  0  0  3  0  0  0  0  0  0
  180.0920  178.2090  143.8050 C   0  0  0  0  0  3  0  0  0  0  0  0
  182.1980  178.9610  142.1280 C   0  0  0  0  0  3  0  0  0  0  0  0
  187.7560  178.2640  148.4190 O   0  0  0  0  0  1  0  0  0  0  0  0
  189.1340  176.5860  147.4290 C   0  0  0  0  0  1  0  0  0  0  0  0
  188.3210  177.8470  147.2100 C   0  0  1  0  0  3  0  0  0  0  0  0
  1 13  1  0  0  0  0
  2  1  1  1  0  0  0
  4  6  1  6  0  0  0
  4  7  1  0  0  0  0
  4 14  1  0  0  0  0
  7 12  1  0  0  0  0
  8  6  1  0  0  0  0
  8  9  1  0  0  0  0
  9  2  1  0  0  0  0
  9 10  1  0  0  0  0
 10  7  1  0  0  0  0
 10 13  1  0  0  0  0
 11  5  1  0  0  0  0
 11 37  1  0  0  0  0
 12  3  1  0  0  0  0
 12  5  1  0  0  0  0
 13 11  1  0  0  0  0
 14  3  1  0  0  0  0
 15 19  1  0  0  0  0
 16 17  1  0  0  0  0
 16 22  1  0  0  0  0
 16 15  1  0  0  0  0
 17 15  1  0  0  0  0
 18 22  1  0  0  0  0
 19 23  1  0  0  0  0
 19  2  1  0  0  0  0
 20 21  1  0  0  0  0
 20 23  1  0  0  0  0
 22 20  1  0  0  0  0
 24 25  1  0  0  0  0
 25 16  1  0  0  0  0
 26 25  1  0  0  0  0
 27 28  1  0  0  0  0
 28 25  1  0  0  0  0
 29 34  2  0  0  0  0
 29 31  1  0  0  0  0
 30 14  1  0  0  0  0
 30 32  2  0  0  0  0
 31 33  2  0  0  0  0
 33 32  1  0  0  0  0
 34 30  1  0  0  0  0
 37 36  1  0  0  0  0
 37 35  1  0  0  0  0
M  END
>  <MODEL>
1

>  <REMARK>
 VINA RESULT:     -10.4      0.000      0.000
  Name = 
  5 active torsions:
  status: ('A' for Active; 'I' for Inactive)
    1  A    between atoms: C_4  and  C_22
    2  A    between atoms: C_13  and  C_14
    3  A    between atoms: C_13  and  C_31
    4  A    between atoms: C_20  and  C_35
    5  A    between atoms: C_27  and  C_36
                            x       y       z     vdW  Elec       q    Type
                         _______ _______ _______ _____ _____    ______ ____

>  <TORSDO>
F 5

$$$$
=
 OpenBabel11062412283D

 37 43  0  0  1  0  0  0  0  0999 V2000
  183.7100  178.8650  144.8070 C   0  0  0  0  0  2  0  0  0  0  0  0
  185.2440  178.7260  144.6610 C   0  0  2  0  0  3  0  0  0  0  0  0
  183.0730  179.0100  139.2580 N   0  0  0  0  0  2  0  0  0  0  0  0
  185.0790  178.9880  140.5540 C   0  0  2  0  0  3  0  0  0  0  0  0
  181.7880  179.1200  141.4010 C   0  0  0  0  0  2  0  0  0  0  0  0
  186.5050  178.5070  140.8720 C   0  0  0  0  0  2  0  0  0  0  0  0
  184.1310  178.0440  141.1820 C   0  0  1  0  0  3  0  0  0  0  0  0
  186.7080  178.3130  142.4160 C   0  0  0  0  0  2  0  0  0  0  0  0
  185.4120  178.2790  143.2340 C   0  0  2  0  0  3  0  0  0  0  0  0
  184.2400  178.2900  142.6300 C   0  0  1  0  0  3  0  0  0  0  0  0
  181.8580  178.7350  142.9020 C   0  0  1  0  0  3  0  0  0  0  0  0
  182.7860  178.3210  140.5270 C   0  0  2  0  0  3  0  0  0  0  0  0
  183.2630  179.0820  143.3740 C   0  0  1  0  0  3  0  0  0  0  0  0
  184.5390  179.1290  139.1450 C   0  0  1  0  0  3  0  0  0  0  0  0
  187.3040  177.4040  145.5240 C   0  0  2  0  0  3  0  0  0  0  0  0
  188.1310  177.7840  146.7060 C   0  0  1  0  0  0  0  0  0  0  0  0
  188.0250  178.6240  145.5830 O   0  0  0  0  0  0  0  0  0  0  0  0
  187.4360  177.4580  148.9710 F   0  0  0  0  0  0  0  0  0  0  0  0
  185.7900  177.6830  145.6490 C   0  0  1  0  0  3  0  0  0  0  0  0
  186.0280  178.8370  147.6640 C   0  0  2  0  0  3  0  0  0  0  0  0
  185.9940  180.0680  147.0270 F   0  0  0  0  0  0  0  0  0  0  0  0
  187.4540  178.3860  147.9450 C   0  0  2  0  0  3  0  0  0  0  0  0
  185.3000  177.8470  146.9700 O   0  0  0  0  0  0  0  0  0  0  0  0
  190.2470  177.8920  147.8200 O   0  0  0  0  0  1  0  0  0  0  0  0
  189.5420  177.1710  146.8540 C   0  0  0  0  0  0  0  0  0  0  0  0
  189.4100  175.8480  147.2810 O   0  0  0  0  0  1  0  0  0  0  0  0
  191.6890  176.5150  145.6780 C   0  0  0  0  0  1  0  0  0  0  0  0
  190.3340  177.1930  145.5390 C   0  0  0  0  0  2  0  0  0  0  0  0
  186.8870  177.2630  136.7820 C   0  0  0  0  0  3  0  0  0  0  0  0
  185.0940  178.1170  138.1810 C   0  0  0  0  0  0  0  0  0  0  0  0
  186.0590  176.2230  136.3540 C   0  0  0  0  0  3  0  0  0  0  0  0
  184.2670  177.0750  137.7440 C   0  0  0  0  0  3  0  0  0  0  0  0
  184.7490  176.1290  136.8350 C   0  0  0  0  0  3  0  0  0  0  0  0
  186.4060  178.2100  137.6920 C   0  0  0  0  0  3  0  0  0  0  0  0
  180.2570  180.5440  142.9980 O   0  0  0  0  0  1  0  0  0  0  0  0
  179.7060  178.5420  144.1730 C   0  0  0  0  0  1  0  0  0  0  0  0
  180.8060  179.4830  143.7230 C   0  0  1  0  0  3  0  0  0  0  0  0
  2  1  1  1  0  0  0
  2 19  1  0  0  0  0
  3 12  1  0  0  0  0
  4  6  1  6  0  0  0
  4  7  1  0  0  0  0
  5 11  1  0  0  0  0
  6  8  1  0  0  0  0
  7 10  1  0  0  0  0
  8  9  1  0  0  0  0
  9  2  1  0  0  0  0
 10  9  1  0  0  0  0
 10 13  1  0  0  0  0
 11 13  1  0  0  0  0
 11 37  1  0  0  0  0
 12  7  1  0  0  0  0
 12  5  1  0  0  0  0
 13  1  1  0  0  0  0
 14  3  1  0  0  0  0
 14  4  1  0  0  0  0
 15 17  1  0  0  0  0
 15 19  1  0  0  0  0
 15 16  1  0  0  0  0
 16 25  1  0  0  0  0
 16 22  1  0  0  0  0
 17 16  1  0  0  0  0
 19 23  1  0  0  0  0
 20 22  1  0  0  0  0
 21 20  1  0  0  0  0
 22 18  1  0  0  0  0
 23 20  1  0  0  0  0
 25 26  1  0  0  0  0
 25 24  1  0  0  0  0
 28 27  1  0  0  0  0
 28 25  1  0  0  0  0
 29 34  1  0  0  0  0
 30 14  1  0  0  0  0
 31 29  2  0  0  0  0
 31 33  1  0  0  0  0
 32 30  1  0  0  0  0
 33 32  2  0  0  0  0
 34 30  2  0  0  0  0
 35 37  1  0  0  0  0
 37 36  1  0  0  0  0
M  END
>  <MODEL>
2

>  <REMARK>
 VINA RESULT:     -10.3      3.877      7.103
  Name = 
  5 active torsions:
  status: ('A' for Active; 'I' for Inactive)
    1  A    between atoms: C_4  and  C_22
    2  A    between atoms: C_13  and  C_14
    3  A    between atoms: C_13  and  C_31
    4  A    between atoms: C_20  and  C_35
    5  A    between atoms: C_27  and  C_36
                            x       y       z     vdW  Elec       q    Type
                         _______ _______ _______ _____ _____    ______ ____

>  <TORSDO>
F 5

$$$$
=
 OpenBabel11062412283D

 37 43  0  0  1  0  0  0  0  0999 V2000
  187.0920  178.1540  139.4090 C   0  0  0  0  0  2  0  0  0  0  0  0
  188.3680  177.3280  139.6990 C   0  0  2  0  0  3  0  0  0  0  0  0
  185.6340  178.0200  144.8010 N   0  0  0  0  0  2  0  0  0  0  0  0
  187.4410  176.9210  143.6910 C   0  0  2  0  0  3  0  0  0  0  0  0
  184.8850  178.8640  142.5700 C   0  0  0  0  0  2  0  0  0  0  0  0
  188.9050  176.4670  143.5670 C   0  0  0  0  0  2  0  0  0  0  0  0
  187.3420  178.2890  143.1390 C   0  0  1  0  0  3  0  0  0  0  0  0
  189.4220  176.6100  142.0910 C   0  0  0  0  0  2  0  0  0  0  0  0
  188.5410  177.4780  141.1860 C   0  0  2  0  0  3  0  0  0  0  0  0
  187.5100  178.1330  141.6840 C   0  0  1  0  0  3  0  0  0  0  0  0
  185.4010  179.2360  141.1550 C   0  0  1  0  0  3  0  0  0  0  0  0
  186.0110  178.8330  143.6320 C   0  0  2  0  0  3  0  0  0  0  0  0
  186.3860  178.1470  140.7510 C   0  0  1  0  0  3  0  0  0  0  0  0
  186.7100  177.0320  145.0140 C   0  0  1  0  0  3  0  0  0  0  0  0
  190.9200  177.2200  139.2410 C   0  0  2  0  0  3  0  0  0  0  0  0
  191.5570  176.4920  138.1060 C   0  0  1  0  0  0  0  0  0  0  0  0
  190.8020  175.8170  139.0820 O   0  0  0  0  0  0  0  0  0  0  0  0
  191.5610  177.2930  135.8530 F   0  0  0  0  0  0  0  0  0  0  0  0
  189.5680  177.9000  138.9280 C   0  0  1  0  0  3  0  0  0  0  0  0
  189.4230  176.9430  136.8040 C   0  0  2  0  0  3  0  0  0  0  0  0
  188.5810  175.9380  137.2530 F   0  0  0  0  0  0  0  0  0  0  0  0
  190.8710  176.4780  136.7320 C   0  0  2  0  0  3  0  0  0  0  0  0
  189.2990  178.1310  137.5550 O   0  0  0  0  0  0  0  0  0  0  0  0
  193.7380  176.8800  137.1990 O   0  0  0  0  0  1  0  0  0  0  0  0
  193.0630  176.1590  138.1880 C   0  0  0  0  0  0  0  0  0  0  0  0
  193.5390  176.5510  139.4410 O   0  0  0  0  0  1  0  0  0  0  0  0
  194.8330  174.3500  138.0580 C   0  0  0  0  0  1  0  0  0  0  0  0
  193.3460  174.6620  137.9930 C   0  0  0  0  0  2  0  0  0  0  0  0
  189.7440  177.4430  147.2940 C   0  0  0  0  0  3  0  0  0  0  0  0
  187.5960  177.4320  146.1620 C   0  0  0  0  0  0  0  0  0  0  0  0
  189.1860  178.1690  148.3490 C   0  0  0  0  0  3  0  0  0  0  0  0
  187.0410  178.1550  147.2240 C   0  0  0  0  0  3  0  0  0  0  0  0
  187.8350  178.5250  148.3140 C   0  0  0  0  0  3  0  0  0  0  0  0
  188.9520  177.0720  146.2030 C   0  0  0  0  0  3  0  0  0  0  0  0
  184.6310  180.0810  139.0250 O   0  0  0  0  0  1  0  0  0  0  0  0
  183.7920  177.9580  139.7180 C   0  0  0  0  0  1  0  0  0  0  0  0
  184.2550  179.3360  140.1470 C   0  0  1  0  0  3  0  0  0  0  0  0
  1 13  1  0  0  0  0
  2  1  1  6  0  0  0
  2  9  1  0  0  0  0
  3 14  1  0  0  0  0
  4  6  1  1  0  0  0
  4 14  1  0  0  0  0
  5 12  1  0  0  0  0
  7 12  1  0  0  0  0
  7  4  1  0  0  0  0
  8  6  1  0  0  0  0
  9 10  1  0  0  0  0
  9  8  1  0  0  0  0
 10  7  1  0  0  0  0
 11  5  1  0  0  0  0
 12  3  1  0  0  0  0
 13 11  1  0  0  0  0
 13 10  1  0  0  0  0
 14 30  1  0  0  0  0
 16 25  1  0  0  0  0
 16 17  1  0  0  0  0
 16 15  1  0  0  0  0
 17 15  1  0  0  0  0
 18 22  1  0  0  0  0
 19 15  1  0  0  0  0
 19  2  1  0  0  0  0
 20 21  1  0  0  0  0
 20 23  1  0  0  0  0
 22 20  1  0  0  0  0
 22 16  1  0  0  0  0
 23 19  1  0  0  0  0
 24 25  1  0  0  0  0
 25 26  1  0  0  0  0
 28 27  1  0  0  0  0
 28 25  1  0  0  0  0
 29 31  1  0  0  0  0
 30 34  1  0  0  0  0
 30 32  2  0  0  0  0
 32 33  1  0  0  0  0
 33 31  2  0  0  0  0
 34 29  2  0  0  0  0
 35 37  1  0  0  0  0
 36 37  1  0  0  0  0
 37 11  1  0  0  0  0
M  END
>  <MODEL>
3

>  <REMARK>
 VINA RESULT:      -9.4      2.911      5.641
  Name = 
  5 active torsions:
  status: ('A' for Active; 'I' for Inactive)
    1  A    between atoms: C_4  and  C_22
    2  A    between atoms: C_13  and  C_14
    3  A    between atoms: C_13  and  C_31
    4  A    between atoms: C_20  and  C_35
    5  A    between atoms: C_27  and  C_36
                            x       y       z     vdW  Elec       q    Type
                         _______ _______ _______ _____ _____    ______ ____

>  <TORSDO>
F 5

$$$$
=
 OpenBabel11062412283D

 37 43  0  0  1  0  0  0  0  0999 V2000
  186.3850  178.3790  142.1510 C   0  0  0  0  0  2  0  0  0  0  0  0
  187.8090  178.0740  142.6720 C   0  0  2  0  0  3  0  0  0  0  0  0
  188.1520  178.1950  136.8530 N   0  0  0  0  0  2  0  0  0  0  0  0
  189.4120  178.0600  138.8780 C   0  0  2  0  0  3  0  0  0  0  0  0
  186.1120  178.5870  138.2460 C   0  0  0  0  0  2  0  0  0  0  0  0
  190.5030  177.4590  139.7800 C   0  0  0  0  0  2  0  0  0  0  0  0
  188.1800  177.2650  139.0640 C   0  0  1  0  0  3  0  0  0  0  0  0
  190.0150  177.3560  141.2690 C   0  0  0  0  0  2  0  0  0  0  0  0
  188.5030  177.5130  141.4600 C   0  0  2  0  0  3  0  0  0  0  0  0
  187.7020  177.6000  140.4160 C   0  0  1  0  0  3  0  0  0  0  0  0
  185.5000  178.3050  139.6430 C   0  0  1  0  0  3  0  0  0  0  0  0
  187.2780  177.6300  137.8960 C   0  0  2  0  0  3  0  0  0  0  0  0
  186.6090  178.5390  140.6590 C   0  0  1  0  0  3  0  0  0  0  0  0
  189.5330  178.1560  137.3700 C   0  0  1  0  0  3  0  0  0  0  0  0
  189.0270  177.0080  144.7010 C   0  0  2  0  0  3  0  0  0  0  0  0
  188.8420  177.4170  146.1230 C   0  0  1  0  0  0  0  0  0  0  0  0
  189.3420  178.3120  145.1590 O   0  0  0  0  0  0  0  0  0  0  0  0
  186.9290  176.8320  147.4330 F   0  0  0  0  0  0  0  0  0  0  0  0
  187.7590  177.0540  143.8190 C   0  0  1  0  0  3  0  0  0  0  0  0
  186.4770  178.0830  145.4770 C   0  0  2  0  0  3  0  0  0  0  0  0
  186.6620  179.3380  144.9190 F   0  0  0  0  0  0  0  0  0  0  0  0
  187.4470  177.8240  146.6200 C   0  0  2  0  0  3  0  0  0  0  0  0
  186.5240  177.0490  144.5170 O   0  0  0  0  0  0  0  0  0  0  0  0
  189.8800  177.9150  148.2210 O   0  0  0  0  0  1  0  0  0  0  0  0
  189.9110  177.0070  147.1600 C   0  0  0  0  0  0  0  0  0  0  0  0
  189.5980  175.7340  147.6420 O   0  0  0  0  0  1  0  0  0  0  0  0
  192.1040  175.7470  146.9980 C   0  0  0  0  0  1  0  0  0  0  0  0
  191.3270  176.9810  146.5660 C   0  0  0  0  0  2  0  0  0  0  0  0
  192.2010  175.4990  136.7350 C   0  0  0  0  0  3  0  0  0  0  0  0
  190.3120  177.0260  136.7540 C   0  0  0  0  0  0  0  0  0  0  0  0
  191.7430  174.9460  135.5370 C   0  0  0  0  0  3  0  0  0  0  0  0
  189.8610  176.4710  135.5510 C   0  0  0  0  0  3  0  0  0  0  0  0
  190.5730  175.4320  134.9450 C   0  0  0  0  0  3  0  0  0  0  0  0
  191.4890  176.5380  137.3420 C   0  0  0  0  0  3  0  0  0  0  0  0
  184.2280  180.2580  139.0000 O   0  0  0  0  0  1  0  0  0  0  0  0
  183.0090  178.4190  139.9080 C   0  0  0  0  0  1  0  0  0  0  0  0
  184.3010  179.2120  139.9250 C   0  0  1  0  0  3  0  0  0  0  0  0
  2  1  1  6  0  0  0
  2 19  1  0  0  0  0
  3 14  1  0  0  0  0
  3 12  1  0  0  0  0
  4  7  1  0  0  0  0
  4  6  1  6  0  0  0
  5 11  1  0  0  0  0
  6  8  1  0  0  0  0
  7 10  1  0  0  0  0
  8  9  1  0  0  0  0
  9  2  1  0  0  0  0
 10 13  1  0  0  0  0
 10  9  1  0  0  0  0
 11 37  1  0  0  0  0
 11 13  1  0  0  0  0
 12  5  1  0  0  0  0
 12  7  1  0  0  0  0
 13  1  1  0  0  0  0
 14  4  1  0  0  0  0
 15 17  1  0  0  0  0
 15 16  1  0  0  0  0
 16 22  1  0  0  0  0
 16 25  1  0  0  0  0
 17 16  1  0  0  0  0
 19 23  1  0  0  0  0
 19 15  1  0  0  0  0
 20 22  1  0  0  0  0
 21 20  1  0  0  0  0
 22 18  1  0  0  0  0
 23 20  1  0  0  0  0
 25 26  1  0  0  0  0
 25 24  1  0  0  0  0
 28 27  1  0  0  0  0
 28 25  1  0  0  0  0
 29 34  1  0  0  0  0
 30 34  2  0  0  0  0
 30 14  1  0  0  0  0
 31 29  2  0  0  0  0
 32 30  1  0  0  0  0
 33 31  1  0  0  0  0
 33 32  2  0  0  0  0
 35 37  1  0  0  0  0
 36 37  1  0  0  0  0
M  END
>  <MODEL>
4

>  <REMARK>
 VINA RESULT:      -8.6      3.655      8.410
  Name = 
  5 active torsions:
  status: ('A' for Active; 'I' for Inactive)
    1  A    between atoms: C_4  and  C_22
    2  A    between atoms: C_13  and  C_14
    3  A    between atoms: C_13  and  C_31
    4  A    between atoms: C_20  and  C_35
    5  A    between atoms: C_27  and  C_36
                            x       y       z     vdW  Elec       q    Type
                         _______ _______ _______ _____ _____    ______ ____

>  <TORSDO>
F 5

$$$$
=
 OpenBabel11062412283D

 37 43  0  0  1  0  0  0  0  0999 V2000
  184.2160  178.6740  141.2080 C   0  0  0  0  0  2  0  0  0  0  0  0
  185.5600  178.0090  140.8270 C   0  0  2  0  0  3  0  0  0  0  0  0
  185.2410  177.9070  146.6470 N   0  0  0  0  0  2  0  0  0  0  0  0
  186.4840  177.1590  144.7490 C   0  0  2  0  0  3  0  0  0  0  0  0
  183.5320  178.8170  145.0650 C   0  0  0  0  0  2  0  0  0  0  0  0
  187.7860  176.9210  143.9660 C   0  0  0  0  0  2  0  0  0  0  0  0
  186.0350  178.5400  144.4740 C   0  0  1  0  0  3  0  0  0  0  0  0
  187.6020  177.2520  142.4420 C   0  0  0  0  0  2  0  0  0  0  0  0
  186.3430  178.0610  142.1110 C   0  0  2  0  0  3  0  0  0  0  0  0
  185.5730  178.5270  143.0750 C   0  0  1  0  0  3  0  0  0  0  0  0
  183.3530  179.3690  143.6260 C   0  0  1  0  0  3  0  0  0  0  0  0
  185.0040  178.8550  145.5450 C   0  0  2  0  0  3  0  0  0  0  0  0
  184.1600  178.4620  142.7090 C   0  0  1  0  0  3  0  0  0  0  0  0
  186.3870  177.0620  146.2580 C   0  0  1  0  0  3  0  0  0  0  0  0
  187.6440  178.2580  139.2990 C   0  0  2  0  0  3  0  0  0  0  0  0
  187.7510  177.7370  137.9050 C   0  0  1  0  0  0  0  0  0  0  0  0
  187.5520  176.8750  138.9990 O   0  0  0  0  0  0  0  0  0  0  0  0
  186.7030  178.7690  136.0200 F   0  0  0  0  0  0  0  0  0  0  0  0
  186.2560  178.8000  139.7070 C   0  0  1  0  0  3  0  0  0  0  0  0
  185.2380  178.0660  137.7380 C   0  0  2  0  0  3  0  0  0  0  0  0
  184.7460  176.9250  138.3520 F   0  0  0  0  0  0  0  0  0  0  0  0
  186.5270  177.7880  136.9790 C   0  0  2  0  0  3  0  0  0  0  0  0
  185.3900  179.1440  138.6370 O   0  0  0  0  0  0  0  0  0  0  0  0
  189.0720  176.6710  136.2190 O   0  0  0  0  0  1  0  0  0  0  0  0
  189.1530  177.5800  137.2760 C   0  0  0  0  0  0  0  0  0  0  0  0
  189.5600  178.8200  136.7790 O   0  0  0  0  0  1  0  0  0  0  0  0
  190.7010  175.6870  137.9410 C   0  0  0  0  0  1  0  0  0  0  0  0
  190.1980  177.0800  138.2850 C   0  0  0  0  0  2  0  0  0  0  0  0
  190.0590  177.5170  147.1990 C   0  0  0  0  0  3  0  0  0  0  0  0
  187.6410  177.4860  146.9730 C   0  0  0  0  0  0  0  0  0  0  0  0
  189.9410  178.2690  148.3700 C   0  0  0  0  0  3  0  0  0  0  0  0
  187.5290  178.2350  148.1500 C   0  0  0  0  0  3  0  0  0  0  0  0
  188.6760  178.6270  148.8460 C   0  0  0  0  0  3  0  0  0  0  0  0
  188.9130  177.1230  146.5020 C   0  0  0  0  0  3  0  0  0  0  0  0
  181.7060  178.8620  141.9310 O   0  0  0  0  0  1  0  0  0  0  0  0
  181.0290  178.6280  144.2070 C   0  0  0  0  0  1  0  0  0  0  0  0
  181.8800  179.3930  143.2120 C   0  0  1  0  0  3  0  0  0  0  0  0
  1 13  1  0  0  0  0
  2  1  1  1  0  0  0
  2  9  1  0  0  0  0
  4  6  1  1  0  0  0
  4 14  1  0  0  0  0
  5 12  1  0  0  0  0
  7  4  1  0  0  0  0
  7 12  1  0  0  0  0
  8  6  1  0  0  0  0
  9  8  1  0  0  0  0
  9 10  1  0  0  0  0
 10  7  1  0  0  0  0
 11  5  1  0  0  0  0
 12  3  1  0  0  0  0
 13 10  1  0  0  0  0
 13 11  1  0  0  0  0
 14  3  1  0  0  0  0
 14 30  1  0  0  0  0
 15 19  1  0  0  0  0
 16 17  1  0  0  0  0
 16 15  1  0  0  0  0
 17 15  1  0  0  0  0
 18 22  1  0  0  0  0
 19  2  1  0  0  0  0
 20 21  1  0  0  0  0
 20 23  1  0  0  0  0
 22 20  1  0  0  0  0
 22 16  1  0  0  0  0
 23 19  1  0  0  0  0
 24 25  1  0  0  0  0
 25 16  1  0  0  0  0
 25 28  1  0  0  0  0
 26 25  1  0  0  0  0
 27 28  1  0  0  0  0
 29 31  1  0  0  0  0
 30 32  2  0  0  0  0
 31 33  2  0  0  0  0
 32 33  1  0  0  0  0
 34 30  1  0  0  0  0
 34 29  2  0  0  0  0
 35 37  1  0  0  0  0
 37 11  1  0  0  0  0
 37 36  1  0  0  0  0
M  END
>  <MODEL>
5

>  <REMARK>
 VINA RESULT:      -8.5      2.792      5.709
  Name = 
  5 active torsions:
  status: ('A' for Active; 'I' for Inactive)
    1  A    between atoms: C_4  and  C_22
    2  A    between atoms: C_13  and  C_14
    3  A    between atoms: C_13  and  C_31
    4  A    between atoms: C_20  and  C_35
    5  A    between atoms: C_27  and  C_36
                            x       y       z     vdW  Elec       q    Type
                         _______ _______ _______ _____ _____    ______ ____

>  <TORSDO>
F 5

$$$$
=
 OpenBabel11062412283D

 37 43  0  0  1  0  0  0  0  0999 V2000
  188.3260  177.8440  140.7740 C   0  0  0  0  0  2  0  0  0  0  0  0
  187.8160  177.6300  142.2190 C   0  0  2  0  0  3  0  0  0  0  0  0
  183.1040  178.4950  138.8970 N   0  0  0  0  0  2  0  0  0  0  0  0
  183.8670  177.8910  141.0780 C   0  0  2  0  0  3  0  0  0  0  0  0
  185.4870  178.4470  138.1400 C   0  0  0  0  0  2  0  0  0  0  0  0
  183.8520  177.9800  142.6140 C   0  0  0  0  0  2  0  0  0  0  0  0
  184.7600  178.9540  140.5710 C   0  0  1  0  0  3  0  0  0  0  0  0
  185.3080  177.9410  143.2000 C   0  0  0  0  0  2  0  0  0  0  0  0
  186.4190  178.1860  142.1730 C   0  0  2  0  0  3  0  0  0  0  0  0
  186.1210  178.5240  140.9330 C   0  0  1  0  0  3  0  0  0  0  0  0
  186.9440  178.6280  138.6410 C   0  0  1  0  0  3  0  0  0  0  0  0
  184.4410  179.0820  139.0900 C   0  0  2  0  0  3  0  0  0  0  0  0
  187.0370  177.9060  139.9770 C   0  0  1  0  0  3  0  0  0  0  0  0
  182.6280  178.0460  140.2200 C   0  0  1  0  0  3  0  0  0  0  0  0
  188.4680  178.0150  144.7020 C   0  0  2  0  0  3  0  0  0  0  0  0
  189.6240  177.3750  145.3920 C   0  0  1  0  0  0  0  0  0  0  0  0
  188.5700  176.6100  144.8620 O   0  0  0  0  0  0  0  0  0  0  0  0
  191.8960  178.0490  145.0760 F   0  0  0  0  0  0  0  0  0  0  0  0
  188.6970  178.3930  143.2210 C   0  0  1  0  0  3  0  0  0  0  0  0
  190.7700  177.3250  143.1270 C   0  0  2  0  0  3  0  0  0  0  0  0
  190.2230  176.1940  142.5400 F   0  0  0  0  0  0  0  0  0  0  0  0
  190.9390  177.1570  144.6300 C   0  0  2  0  0  3  0  0  0  0  0  0
  190.0520  178.4990  142.8160 O   0  0  0  0  0  0  0  0  0  0  0  0
  190.5970  176.4210  147.3600 O   0  0  0  0  0  1  0  0  0  0  0  0
  189.6490  177.3550  146.9370 C   0  0  0  0  0  0  0  0  0  0  0  0
  190.0230  178.6210  147.3930 O   0  0  0  0  0  1  0  0  0  0  0  0
  187.9310  177.8780  148.7250 C   0  0  0  0  0  1  0  0  0  0  0  0
  188.2850  176.9900  147.5430 C   0  0  0  0  0  2  0  0  0  0  0  0
  180.2860  179.8530  142.6340 C   0  0  0  0  0  3  0  0  0  0  0  0
  181.6160  179.0020  140.7870 C   0  0  0  0  0  0  0  0  0  0  0  0
  179.6910  180.7830  141.7780 C   0  0  0  0  0  3  0  0  0  0  0  0
  181.0120  179.9340  139.9340 C   0  0  0  0  0  3  0  0  0  0  0  0
  180.0540  180.8240  140.4290 C   0  0  0  0  0  3  0  0  0  0  0  0
  181.2440  178.9620  142.1400 C   0  0  0  0  0  3  0  0  0  0  0  0
  187.3340  177.6910  136.4460 O   0  0  0  0  0  1  0  0  0  0  0  0
  189.0550  179.0660  137.3620 C   0  0  0  0  0  1  0  0  0  0  0  0
  187.9550  178.0620  137.6420 C   0  0  1  0  0  3  0  0  0  0  0  0
  2  1  1  6  0  0  0
  2 19  1  0  0  0  0
  3 12  1  0  0  0  0
  3 14  1  0  0  0  0
  4  6  1  1  0  0  0
  5 11  1  0  0  0  0
  5 12  1  0  0  0  0
  6  8  1  0  0  0  0
  7 10  1  0  0  0  0
  7  4  1  0  0  0  0
  9  2  1  0  0  0  0
  9  8  1  0  0  0  0
 10  9  1  0  0  0  0
 11 13  1  0  0  0  0
 12  7  1  0  0  0  0
 13  1  1  0  0  0  0
 13 10  1  0  0  0  0
 14 30  1  0  0  0  0
 14  4  1  0  0  0  0
 15 17  1  0  0  0  0
 15 16  1  0  0  0  0
 16 25  1  0  0  0  0
 17 16  1  0  0  0  0
 19 15  1  0  0  0  0
 20 22  1  0  0  0  0
 21 20  1  0  0  0  0
 22 18  1  0  0  0  0
 22 16  1  0  0  0  0
 23 20  1  0  0  0  0
 23 19  1  0  0  0  0
 25 24  1  0  0  0  0
 25 26  1  0  0  0  0
 25 28  1  0  0  0  0
 28 27  1  0  0  0  0
 30 34  2  0  0  0  0
 31 29  2  0  0  0  0
 32 33  2  0  0  0  0
 32 30  1  0  0  0  0
 33 31  1  0  0  0  0
 34 29  1  0  0  0  0
 35 37  1  0  0  0  0
 36 37  1  0  0  0  0
 37 11  1  0  0  0  0
M  END
>  <MODEL>
6

>  <REMARK>
 VINA RESULT:      -8.4      2.295      6.187
  Name = 
  5 active torsions:
  status: ('A' for Active; 'I' for Inactive)
    1  A    between atoms: C_4  and  C_22
    2  A    between atoms: C_13  and  C_14
    3  A    between atoms: C_13  and  C_31
    4  A    between atoms: C_20  and  C_35
    5  A    between atoms: C_27  and  C_36
                            x       y       z     vdW  Elec       q    Type
                         _______ _______ _______ _____ _____    ______ ____

>  <TORSDO>
F 5

$$$$
=
 OpenBabel11062412283D

 37 43  0  0  1  0  0  0  0  0999 V2000
  186.1740  178.3450  140.1880 C   0  0  0  0  0  2  0  0  0  0  0  0
  185.4260  178.5710  141.5240 C   0  0  2  0  0  3  0  0  0  0  0  0
  191.0500  177.8340  142.8670 N   0  0  0  0  0  2  0  0  0  0  0  0
  188.9000  178.4150  143.7290 C   0  0  2  0  0  3  0  0  0  0  0  0
  190.0380  177.8210  140.5800 C   0  0  0  0  0  2  0  0  0  0  0  0
  187.7620  178.3240  144.7600 C   0  0  0  0  0  2  0  0  0  0  0  0
  188.7090  177.3300  142.7450 C   0  0  1  0  0  3  0  0  0  0  0  0
  186.3580  178.3250  144.0580 C   0  0  0  0  0  2  0  0  0  0  0  0
  186.3960  178.0520  142.5500 C   0  0  2  0  0  3  0  0  0  0  0  0
  187.5280  177.7230  141.9580 C   0  0  1  0  0  3  0  0  0  0  0  0
  188.7020  177.6010  139.8250 C   0  0  1  0  0  3  0  0  0  0  0  0
  190.0320  177.2120  142.0050 C   0  0  2  0  0  3  0  0  0  0  0  0
  187.6250  178.3190  140.6270 C   0  0  1  0  0  3  0  0  0  0  0  0
  190.3670  178.2950  144.0910 C   0  0  1  0  0  3  0  0  0  0  0  0
  183.0850  178.2570  142.6020 C   0  0  2  0  0  3  0  0  0  0  0  0
  181.8140  178.8230  142.0680 C   0  0  1  0  0  0  0  0  0  0  0  0
  182.8730  179.6540  142.4760 O   0  0  0  0  0  0  0  0  0  0  0  0
  180.6540  177.9280  140.1780 F   0  0  0  0  0  0  0  0  0  0  0  0
  184.1060  177.7840  141.5430 C   0  0  1  0  0  3  0  0  0  0  0  0
  182.8680  178.6500  139.7640 C   0  0  2  0  0  3  0  0  0  0  0  0
  183.6490  179.7940  139.7060 F   0  0  0  0  0  0  0  0  0  0  0  0
  181.5860  178.8800  140.5500 C   0  0  2  0  0  3  0  0  0  0  0  0
  183.5790  177.5320  140.2510 O   0  0  0  0  0  0  0  0  0  0  0  0
  179.6570  177.9520  142.6320 O   0  0  0  0  0  1  0  0  0  0  0  0
  180.5910  178.9210  143.0070 C   0  0  0  0  0  0  0  0  0  0  0  0
  181.0110  178.6660  144.3140 O   0  0  0  0  0  1  0  0  0  0  0  0
  178.9310  180.4180  141.8130 C   0  0  0  0  0  1  0  0  0  0  0  0
  179.9210  180.3030  142.9600 C   0  0  0  0  0  2  0  0  0  0  0  0
  190.1090  176.5100  147.4570 C   0  0  0  0  0  3  0  0  0  0  0  0
  190.6300  177.3650  145.2430 C   0  0  0  0  0  0  0  0  0  0  0  0
  191.1960  175.6360  147.3770 C   0  0  0  0  0  3  0  0  0  0  0  0
  191.7210  176.4900  145.1710 C   0  0  0  0  0  3  0  0  0  0  0  0
  192.0020  175.6260  146.2340 C   0  0  0  0  0  3  0  0  0  0  0  0
  189.8270  177.3750  146.3940 C   0  0  0  0  0  3  0  0  0  0  0  0
  189.0700  179.5070  138.3840 O   0  0  0  0  0  1  0  0  0  0  0  0
  189.7950  177.3810  137.5790 C   0  0  0  0  0  1  0  0  0  0  0  0
  188.7690  178.1420  138.3950 C   0  0  1  0  0  3  0  0  0  0  0  0
  1 13  1  0  0  0  0
  2  1  1  6  0  0  0
  2 19  1  0  0  0  0
  2  9  1  0  0  0  0
  3 14  1  0  0  0  0
  4 14  1  0  0  0  0
  4  6  1  1  0  0  0
  5 12  1  0  0  0  0
  7  4  1  0  0  0  0
  8  6  1  0  0  0  0
  9  8  1  0  0  0  0
 10  9  1  0  0  0  0
 10  7  1  0  0  0  0
 11  5  1  0  0  0  0
 11 13  1  0  0  0  0
 12  7  1  0  0  0  0
 12  3  1  0  0  0  0
 13 10  1  0  0  0  0
 14 30  1  0  0  0  0
 16 17  1  0  0  0  0
 16 15  1  0  0  0  0
 16 25  1  0  0  0  0
 17 15  1  0  0  0  0
 18 22  1  0  0  0  0
 19 15  1  0  0  0  0
 20 23  1  0  0  0  0
 20 22  1  0  0  0  0
 21 20  1  0  0  0  0
 22 16  1  0  0  0  0
 23 19  1  0  0  0  0
 24 25  1  0  0  0  0
 25 26  1  0  0  0  0
 27 28  1  0  0  0  0
 28 25  1  0  0  0  0
 30 34  1  0  0  0  0
 31 29  1  0  0  0  0
 32 30  2  0  0  0  0
 32 33  1  0  0  0  0
 33 31  2  0  0  0  0
 34 29  2  0  0  0  0
 35 37  1  0  0  0  0
 36 37  1  0  0  0  0
 37 11  1  0  0  0  0
M  END
>  <MODEL>
7

>  <REMARK>
 VINA RESULT:      -8.4      3.928      8.458
  Name = 
  5 active torsions:
  status: ('A' for Active; 'I' for Inactive)
    1  A    between atoms: C_4  and  C_22
    2  A    between atoms: C_13  and  C_14
    3  A    between atoms: C_13  and  C_31
    4  A    between atoms: C_20  and  C_35
    5  A    between atoms: C_27  and  C_36
                            x       y       z     vdW  Elec       q    Type
                         _______ _______ _______ _____ _____    ______ ____

>  <TORSDO>
F 5

$$$$
=
 OpenBabel11062412283D

 37 43  0  0  1  0  0  0  0  0999 V2000
  188.9020  177.7300  141.7000 C   0  0  0  0  0  2  0  0  0  0  0  0
  188.1590  178.2000  140.4270 C   0  0  2  0  0  3  0  0  0  0  0  0
  184.4530  178.8970  144.8730 N   0  0  0  0  0  2  0  0  0  0  0  0
  184.8100  179.3150  142.5490 C   0  0  2  0  0  3  0  0  0  0  0  0
  186.7980  178.0350  144.9930 C   0  0  0  0  0  2  0  0  0  0  0  0
  184.3770  179.3300  141.0730 C   0  0  0  0  0  2  0  0  0  0  0  0
  185.3500  177.9730  142.8500 C   0  0  1  0  0  3  0  0  0  0  0  0
  185.5500  178.8760  140.1330 C   0  0  0  0  0  2  0  0  0  0  0  0
  186.7140  178.1840  140.8500 C   0  0  2  0  0  3  0  0  0  0  0  0
  186.6360  177.9030  142.1360 C   0  0  1  0  0  3  0  0  0  0  0  0
  187.9120  177.3710  144.1430 C   0  0  1  0  0  3  0  0  0  0  0  0
  185.3900  177.8790  144.3670 C   0  0  2  0  0  3  0  0  0  0  0  0
  187.9230  178.0900  142.8020 C   0  0  1  0  0  3  0  0  0  0  0  0
  183.8580  179.5670  143.7010 C   0  0  1  0  0  3  0  0  0  0  0  0
  187.2710  177.1390  138.2310 C   0  0  2  0  0  3  0  0  0  0  0  0
  187.5960  177.6190  136.8560 C   0  0  1  0  0  0  0  0  0  0  0  0
  186.9210  178.4370  137.7800 O   0  0  0  0  0  0  0  0  0  0  0  0
  189.6870  177.2160  135.7710 F   0  0  0  0  0  0  0  0  0  0  0  0
  188.4180  177.2330  139.2610 C   0  0  1  0  0  3  0  0  0  0  0  0
  189.8130  178.4120  137.8070 C   0  0  2  0  0  3  0  0  0  0  0  0
  189.4740  179.6280  138.3800 F   0  0  0  0  0  0  0  0  0  0  0  0
  189.0070  178.1370  136.5460 C   0  0  2  0  0  3  0  0  0  0  0  0
  189.7250  177.3390  138.7200 O   0  0  0  0  0  0  0  0  0  0  0  0
  185.3540  177.3180  136.0710 O   0  0  0  0  0  1  0  0  0  0  0  0
  186.6900  177.1810  135.6830 C   0  0  0  0  0  0  0  0  0  0  0  0
  186.9350  178.0200  134.5940 O   0  0  0  0  0  1  0  0  0  0  0  0
  185.6420  174.9920  134.9540 C   0  0  0  0  0  1  0  0  0  0  0  0
  186.9380  175.7270  135.2580 C   0  0  0  0  0  2  0  0  0  0  0  0
  180.3210  178.2300  144.2300 C   0  0  0  0  0  3  0  0  0  0  0  0
  182.4590  179.0770  143.4470 C   0  0  0  0  0  0  0  0  0  0  0  0
  179.8750  178.1310  142.9100 C   0  0  0  0  0  3  0  0  0  0  0  0
  182.0080  178.9700  142.1260 C   0  0  0  0  0  3  0  0  0  0  0  0
  180.7190  178.5010  141.8580 C   0  0  0  0  0  3  0  0  0  0  0  0
  181.6100  178.6990  144.5000 C   0  0  0  0  0  3  0  0  0  0  0  0
  189.9030  178.6860  144.5320 O   0  0  0  0  0  1  0  0  0  0  0  0
  189.1390  177.3160  146.3300 C   0  0  0  0  0  1  0  0  0  0  0  0
  189.2770  177.4720  144.8280 C   0  0  1  0  0  3  0  0  0  0  0  0
  1 13  1  0  0  0  0
  2  9  1  0  0  0  0
  2  1  1  1  0  0  0
  4  6  1  6  0  0  0
  4  7  1  0  0  0  0
  4 14  1  0  0  0  0
  7 12  1  0  0  0  0
  8  9  1  0  0  0  0
  8  6  1  0  0  0  0
  9 10  1  0  0  0  0
 10 13  1  0  0  0  0
 10  7  1  0  0  0  0
 11 37  1  0  0  0  0
 11  5  1  0  0  0  0
 12  3  1  0  0  0  0
 12  5  1  0  0  0  0
 13 11  1  0  0  0  0
 14  3  1  0  0  0  0
 15 19  1  0  0  0  0
 16 17  1  0  0  0  0
 16 15  1  0  0  0  0
 17 15  1  0  0  0  0
 18 22  1  0  0  0  0
 19  2  1  0  0  0  0
 20 21  1  0  0  0  0
 20 23  1  0  0  0  0
 22 16  1  0  0  0  0
 22 20  1  0  0  0  0
 23 19  1  0  0  0  0
 25 24  1  0  0  0  0
 25 16  1  0  0  0  0
 26 25  1  0  0  0  0
 27 28  1  0  0  0  0
 28 25  1  0  0  0  0
 29 34  1  0  0  0  0
 30 14  1  0  0  0  0
 30 34  2  0  0  0  0
 31 29  2  0  0  0  0
 32 30  1  0  0  0  0
 33 32  2  0  0  0  0
 33 31  1  0  0  0  0
 35 37  1  0  0  0  0
 37 36  1  0  0  0  0
M  END
>  <MODEL>
8

>  <REMARK>
 VINA RESULT:      -7.6      2.060      2.980
  Name = 
  5 active torsions:
  status: ('A' for Active; 'I' for Inactive)
    1  A    between atoms: C_4  and  C_22
    2  A    between atoms: C_13  and  C_14
    3  A    between atoms: C_13  and  C_31
    4  A    between atoms: C_20  and  C_35
    5  A    between atoms: C_27  and  C_36
                            x       y       z     vdW  Elec       q    Type
                         _______ _______ _______ _____ _____    ______ ____

>  <TORSDO>
F 5

$$$$
