=
 OpenBabel11062414243D

 45 49  0  0  1  0  0  0  0  0999 V2000
  185.8020  176.4690  145.6330 O   0  0  0  0  0  1  0  0  0  0  0  0
  187.3160  177.5250  138.5320 N   0  0  0  0  0  0  0  0  0  0  0  0
  184.6640  178.3210  140.2530 C   0  0  1  0  0  3  0  0  0  0  0  0
  187.5920  178.1080  145.7510 C   0  0  1  0  0  3  0  0  0  0  0  0
  188.0210  178.0990  141.9540 N   0  0  0  0  0  0  0  0  0  0  0  0
  182.9790  177.6050  141.7830 O   0  0  0  0  0  1  0  0  0  0  0  0
  183.5060  178.7370  141.1610 C   0  0  1  0  0  3  0  0  0  0  0  0
  185.5600  179.3780  142.2770 C   0  0  2  0  0  3  0  0  0  0  0  0
  185.3440  178.6220  144.6870 C   0  0  0  0  0  2  0  0  0  0  0  0
  185.8450  178.2550  143.2730 C   0  0  2  0  0  3  0  0  0  0  0  0
  188.1020  178.5570  144.3740 C   0  0  0  0  0  2  0  0  0  0  0  0
  187.3420  177.8590  143.2480 C   0  0  2  0  0  3  0  0  0  0  0  0
  184.4590  178.7770  138.7940 C   0  0  2  0  0  3  0  0  0  0  0  0
  187.8760  178.2780  139.5740 N   0  0  0  0  0  2  0  0  0  0  0  0
  184.0750  179.6720  142.2080 C   0  0  0  0  0  2  0  0  0  0  0  0
  186.0730  177.8330  145.7790 C   0  0  1  0  0  3  0  0  0  0  0  0
  185.9250  178.9410  140.8630 C   0  0  1  0  0  3  0  0  0  0  0  0
  186.5930  178.3850  137.7680 O   0  0  0  0  0  0  0  0  0  0  0  0
  183.0080  178.6620  138.3480 C   0  0  0  0  0  1  0  0  0  0  0  0
  185.2810  177.9140  137.8480 C   0  0  0  0  0  2  0  0  0  0  0  0
  187.1240  177.9770  140.7880 C   0  0  2  0  0  3  0  0  0  0  0  0
  188.9020  177.9520  136.6560 C   0  0  0  0  0  1  0  0  0  0  0  0
  188.4190  176.9780  137.7290 C   0  0  2  0  0  3  0  0  0  0  0  0
  188.2800  175.9510  135.7690 C   0  0  0  0  0  1  0  0  0  0  0  0
  188.0310  175.7740  137.1320 O   0  0  0  0  0  0  0  0  0  0  0  0
  188.3260  176.9760  146.2190 O   0  0  0  0  0  0  0  0  0  0  0  0
  191.7390  176.3430  147.5660 C   0  0  0  0  0  0  0  0  0  0  0  0
  190.6870  178.1400  148.8100 C   0  0  0  0  0  3  0  0  0  0  0  0
  192.8930  175.4370  147.3120 C   0  0  0  0  0  1  0  0  0  0  0  0
  189.5450  178.0250  148.0110 C   0  0  0  0  0  3  0  0  0  0  0  0
  189.4880  177.0720  146.9920 C   0  0  0  0  0  0  0  0  0  0  0  0
  190.5940  176.2320  146.7720 C   0  0  0  0  0  3  0  0  0  0  0  0
  191.7850  177.3000  148.5920 C   0  0  0  0  0  0  0  0  0  0  0  0
  192.9120  177.4250  149.3950 O   0  0  0  0  0  1  0  0  0  0  0  0
  189.1530  177.1600  141.7790 C   0  0  1  0  0  3  0  0  0  0  0  0
  191.3560  177.7300  140.7240 C   0  0  0  0  0  3  0  0  0  0  0  0
  190.4620  177.8990  141.7080 C   0  0  0  0  0  3  0  0  0  0  0  0
  191.1630  176.7820  139.5800 C   0  0  0  0  0  2  0  0  0  0  0  0
  192.4220  176.6870  138.7360 C   0  0  0  0  0  2  0  0  0  0  0  0
  190.9380  174.3680  137.9420 O   0  0  0  0  0  1  0  0  0  0  0  0
  193.6480  174.4530  137.4230 O   0  0  0  0  0  1  0  0  0  0  0  0
  191.9490  175.9800  136.1450 O   0  0  0  0  0  0  0  0  0  0  0  0
  192.2270  175.3700  137.5000 P   0  0  0  0  0  0  0  0  0  0  0  0
  190.3570  175.5780  143.2470 C   0  0  0  0  0  2  0  0  0  0  0  0
  189.1960  176.0400  142.7910 C   0  0  0  0  0  3  0  0  0  0  0  0
  1 16  1  0  0  0  0
  2 14  1  0  0  0  0
  3 17  1  0  0  0  0
  3  7  1  0  0  0  0
  4 16  1  0  0  0  0
  4 26  1  0  0  0  0
  5 12  1  0  0  0  0
  7  6  1  0  0  0  0
  7 15  1  0  0  0  0
  8 10  1  0  0  0  0
  9 16  1  0  0  0  0
 10  9  1  0  0  0  0
 11  4  1  0  0  0  0
 12 10  1  0  0  0  0
 12 11  1  0  0  0  0
 13  3  1  0  0  0  0
 14 21  1  0  0  0  0
 15  8  1  0  0  0  0
 17  8  1  0  0  0  0
 18 20  1  0  0  0  0
 18  2  1  0  0  0  0
 19 13  1  0  0  0  0
 20 13  1  0  0  0  0
 21 17  1  0  0  0  0
 21  5  1  0  0  0  0
 22 23  1  0  0  0  0
 23  2  1  0  0  0  0
 24 25  1  0  0  0  0
 25 23  1  0  0  0  0
 26 31  1  0  0  0  0
 27 33  1  0  0  0  0
 29 27  1  0  0  0  0
 30 28  1  0  0  0  0
 31 30  2  0  0  0  0
 32 31  1  0  0  0  0
 32 27  2  0  0  0  0
 33 28  2  0  0  0  0
 33 34  1  0  0  0  0
 35  5  1  0  0  0  0
 35 45  1  0  0  0  0
 36 37  2  0  0  0  0
 37 35  1  0  0  0  0
 38 36  1  0  0  0  0
 39 38  1  0  0  0  0
 41 43  1  0  0  0  0
 42 43  2  0  0  0  0
 43 40  1  0  0  0  0
 43 39  1  0  0  0  0
 45 44  2  0  0  0  0
M  END
>  <MODEL>
1

>  <REMARK>
 VINA RESULT:      -6.3      0.000      0.000
  Name = 
  10 active torsions:
  status: ('A' for Active; 'I' for Inactive)
    1  A    between atoms: O_5  and  C_9
    2  A    between atoms: O_5  and  C_24
    3  A    between atoms: N_7  and  C_26
    4  A    between atoms: C_10  and  N_11
    5  A    between atoms: C_10  and  C_40
    6  A    between atoms: C_10  and  C_44
    7  A    between atoms: C_21  and  C_43
    8  A    between atoms: C_26  and  O_31
    9  A    between atoms: P_30  and  C_42
   10  A    between atoms: C_42  and  C_43
                            x       y       z     vdW  Elec       q    Type
                         _______ _______ _______ _____ _____    ______ ____

>  <TORSDO>
F 10

$$$$
=
 OpenBabel11062414243D

 45 49  0  0  1  0  0  0  0  0999 V2000
  183.9950  180.6970  143.1910 O   0  0  0  0  0  1  0  0  0  0  0  0
  190.2010  177.4910  145.4350 N   0  0  0  0  0  0  0  0  0  0  0  0
  187.5330  178.3090  147.1210 C   0  0  1  0  0  3  0  0  0  0  0  0
  183.8530  178.5320  142.0960 C   0  0  1  0  0  3  0  0  0  0  0  0
  187.2670  177.4810  143.4540 N   0  0  0  0  0  0  0  0  0  0  0  0
  185.9350  180.0020  147.6450 O   0  0  0  0  0  1  0  0  0  0  0  0
  186.2070  178.6430  147.8060 C   0  0  1  0  0  3  0  0  0  0  0  0
  185.6800  177.4730  145.7500 C   0  0  2  0  0  3  0  0  0  0  0  0
  183.8250  178.7840  144.6230 C   0  0  0  0  0  2  0  0  0  0  0  0
  185.3500  178.5670  144.7360 C   0  0  2  0  0  3  0  0  0  0  0  0
  185.0340  177.6050  142.4190 C   0  0  0  0  0  2  0  0  0  0  0  0
  186.0210  178.2780  143.3710 C   0  0  2  0  0  3  0  0  0  0  0  0
  188.5460  177.6590  148.0860 C   0  0  2  0  0  3  0  0  0  0  0  0
  189.1990  176.8360  144.7060 N   0  0  0  0  0  2  0  0  0  0  0  0
  185.1330  177.8260  147.1190 C   0  0  0  0  0  2  0  0  0  0  0  0
  183.4320  179.4200  143.2860 C   0  0  1  0  0  3  0  0  0  0  0  0
  187.1860  177.3750  145.9580 C   0  0  1  0  0  3  0  0  0  0  0  0
  190.2870  176.8660  146.6390 O   0  0  0  0  0  0  0  0  0  0  0  0
  188.4920  178.2690  149.4800 C   0  0  0  0  0  1  0  0  0  0  0  0
  189.9650  177.8500  147.5750 C   0  0  0  0  0  2  0  0  0  0  0  0
  188.0210  177.6970  144.7040 C   0  0  2  0  0  3  0  0  0  0  0  0
  191.8940  178.5830  143.9650 C   0  0  0  0  0  1  0  0  0  0  0  0
  191.4690  177.3200  144.7120 C   0  0  2  0  0  3  0  0  0  0  0  0
  192.1130  175.2220  144.3960 C   0  0  0  0  0  1  0  0  0  0  0  0
  191.3700  176.2520  143.8130 O   0  0  0  0  0  0  0  0  0  0  0  0
  184.1310  179.3230  140.9400 O   0  0  0  0  0  0  0  0  0  0  0  0
  181.8820  179.6960  137.9960 C   0  0  0  0  0  0  0  0  0  0  0  0
  183.3840  177.8250  137.6470 C   0  0  0  0  0  3  0  0  0  0  0  0
  180.7700  180.5750  137.5410 C   0  0  0  0  0  1  0  0  0  0  0  0
  183.9760  178.0660  138.8920 C   0  0  0  0  0  3  0  0  0  0  0  0
  183.5250  179.1160  139.6960 C   0  0  0  0  0  0  0  0  0  0  0  0
  182.4760  179.9330  139.2390 C   0  0  0  0  0  3  0  0  0  0  0  0
  182.3370  178.6350  137.1970 C   0  0  0  0  0  0  0  0  0  0  0  0
  181.7580  178.3820  135.9600 O   0  0  0  0  0  1  0  0  0  0  0  0
  188.1550  177.7870  142.3080 C   0  0  1  0  0  3  0  0  0  0  0  0
  189.7910  176.4500  140.9540 C   0  0  0  0  0  3  0  0  0  0  0  0
  188.6520  176.5250  141.6570 C   0  0  0  0  0  3  0  0  0  0  0  0
  190.7030  177.6170  140.7270 C   0  0  0  0  0  2  0  0  0  0  0  0
  191.9710  177.1820  140.0130 C   0  0  0  0  0  2  0  0  0  0  0  0
  190.2800  177.4900  137.7220 O   0  0  0  0  0  1  0  0  0  0  0  0
  191.0930  174.9530  138.4410 O   0  0  0  0  0  1  0  0  0  0  0  0
  192.7620  176.7080  137.4470 O   0  0  0  0  0  0  0  0  0  0  0  0
  191.5570  176.5790  138.3510 P   0  0  0  0  0  0  0  0  0  0  0  0
  187.4650  178.4040  140.0160 C   0  0  0  0  0  2  0  0  0  0  0  0
  187.5650  178.7430  141.2990 C   0  0  0  0  0  3  0  0  0  0  0  0
  1 16  1  0  0  0  0
  2 18  1  0  0  0  0
  3  7  1  0  0  0  0
  3 13  1  0  0  0  0
  4 11  1  0  0  0  0
  4 16  1  0  0  0  0
  5 21  1  0  0  0  0
  6  7  1  0  0  0  0
  8 17  1  0  0  0  0
  8 15  1  0  0  0  0
  9 10  1  0  0  0  0
 10  8  1  0  0  0  0
 11 12  1  0  0  0  0
 12  5  1  0  0  0  0
 12 10  1  0  0  0  0
 13 19  1  0  0  0  0
 14  2  1  0  0  0  0
 15  7  1  0  0  0  0
 16  9  1  0  0  0  0
 17  3  1  0  0  0  0
 18 20  1  0  0  0  0
 20 13  1  0  0  0  0
 21 14  1  0  0  0  0
 21 17  1  0  0  0  0
 22 23  1  0  0  0  0
 23  2  1  0  0  0  0
 25 24  1  0  0  0  0
 25 23  1  0  0  0  0
 26  4  1  0  0  0  0
 27 32  1  0  0  0  0
 28 30  2  0  0  0  0
 29 27  1  0  0  0  0
 30 31  1  0  0  0  0
 31 26  1  0  0  0  0
 32 31  2  0  0  0  0
 33 28  1  0  0  0  0
 33 27  2  0  0  0  0
 34 33  1  0  0  0  0
 35  5  1  0  0  0  0
 36 37  2  0  0  0  0
 37 35  1  0  0  0  0
 38 36  1  0  0  0  0
 39 38  1  0  0  0  0
 40 43  1  0  0  0  0
 42 43  2  0  0  0  0
 43 41  1  0  0  0  0
 43 39  1  0  0  0  0
 44 45  2  0  0  0  0
 45 35  1  0  0  0  0
M  END
>  <MODEL>
2

>  <REMARK>
 VINA RESULT:      -6.3      2.225      7.901
  Name = 
  10 active torsions:
  status: ('A' for Active; 'I' for Inactive)
    1  A    between atoms: O_5  and  C_9
    2  A    between atoms: O_5  and  C_24
    3  A    between atoms: N_7  and  C_26
    4  A    between atoms: C_10  and  N_11
    5  A    between atoms: C_10  and  C_40
    6  A    between atoms: C_10  and  C_44
    7  A    between atoms: C_21  and  C_43
    8  A    between atoms: C_26  and  O_31
    9  A    between atoms: P_30  and  C_42
   10  A    between atoms: C_42  and  C_43
                            x       y       z     vdW  Elec       q    Type
                         _______ _______ _______ _____ _____    ______ ____

>  <TORSDO>
F 10

$$$$
=
 OpenBabel11062414243D

 45 49  0  0  1  0  0  0  0  0999 V2000
  190.3180  175.2940  138.9870 O   0  0  0  0  0  1  0  0  0  0  0  0
  184.0350  178.7050  140.6360 N   0  0  0  0  0  0  0  0  0  0  0  0
  186.5340  177.8660  142.5550 C   0  0  1  0  0  3  0  0  0  0  0  0
  190.6050  177.4250  137.8560 C   0  0  1  0  0  3  0  0  0  0  0  0
  187.1200  178.5930  138.9030 N   0  0  0  0  0  0  0  0  0  0  0  0
  188.0390  176.1500  143.2480 O   0  0  0  0  0  1  0  0  0  0  0  0
  187.7900  177.5180  143.3540 C   0  0  1  0  0  3  0  0  0  0  0  0
  188.5150  178.6220  141.3210 C   0  0  2  0  0  3  0  0  0  0  0  0
  190.4200  177.2380  140.3830 C   0  0  0  0  0  2  0  0  0  0  0  0
  188.8970  177.4940  140.3640 C   0  0  2  0  0  3  0  0  0  0  0  0
  189.4260  178.3890  138.0590 C   0  0  0  0  0  2  0  0  0  0  0  0
  188.3480  177.7650  138.9420 C   0  0  2  0  0  3  0  0  0  0  0  0
  185.4640  178.5650  143.4180 C   0  0  2  0  0  3  0  0  0  0  0  0
  185.1110  179.3170  139.9770 N   0  0  0  0  0  2  0  0  0  0  0  0
  188.9380  178.2910  142.7390 C   0  0  0  0  0  2  0  0  0  0  0  0
  190.9040  176.5580  139.0980 C   0  0  1  0  0  3  0  0  0  0  0  0
  186.9990  178.7620  141.4030 C   0  0  1  0  0  3  0  0  0  0  0  0
  183.8680  179.3630  141.8140 O   0  0  0  0  0  0  0  0  0  0  0  0
  185.3870  177.9910  144.8260 C   0  0  0  0  0  1  0  0  0  0  0  0
  184.0860  178.3960  142.7960 C   0  0  0  0  0  2  0  0  0  0  0  0
  186.2620  178.4270  140.0920 C   0  0  2  0  0  3  0  0  0  0  0  0
  182.9900  180.0220  138.7950 C   0  0  0  0  0  1  0  0  0  0  0  0
  182.8350  178.8890  139.8070 C   0  0  2  0  0  3  0  0  0  0  0  0
  180.8730  179.9190  139.8380 C   0  0  0  0  0  1  0  0  0  0  0  0
  181.7210  179.1300  140.6180 O   0  0  0  0  0  0  0  0  0  0  0  0
  190.4020  176.6110  136.7010 O   0  0  0  0  0  0  0  0  0  0  0  0
  193.6830  175.0600  135.8680 C   0  0  0  0  0  0  0  0  0  0  0  0
  191.8860  173.7290  134.9300 C   0  0  0  0  0  3  0  0  0  0  0  0
  195.1320  175.3150  136.0970 C   0  0  0  0  0  1  0  0  0  0  0  0
  190.9470  174.6190  135.4610 C   0  0  0  0  0  3  0  0  0  0  0  0
  191.3660  175.7340  136.1930 C   0  0  0  0  0  0  0  0  0  0  0  0
  192.7410  175.9470  136.3960 C   0  0  0  0  0  3  0  0  0  0  0  0
  193.2530  173.9460  135.1300 C   0  0  0  0  0  0  0  0  0  0  0  0
  194.1740  173.0540  134.5940 O   0  0  0  0  0  1  0  0  0  0  0  0
  186.3210  178.2800  137.6960 C   0  0  1  0  0  3  0  0  0  0  0  0
  187.0950  177.9450  135.3330 C   0  0  0  0  0  3  0  0  0  0  0  0
  187.0470  178.6930  136.4450 C   0  0  0  0  0  3  0  0  0  0  0  0
  186.4360  176.6060  135.2050 C   0  0  0  0  0  2  0  0  0  0  0  0
  187.3880  175.5890  134.6000 C   0  0  0  0  0  2  0  0  0  0  0  0
  188.0180  172.7940  134.5940 O   0  0  0  0  0  0  0  0  0  0  0  0
  185.5540  173.5980  135.5440 O   0  0  0  0  0  1  0  0  0  0  0  0
  187.7680  174.0960  136.8500 O   0  0  0  0  0  1  0  0  0  0  0  0
  187.1970  173.9970  135.4530 P   0  0  0  0  0  0  0  0  0  0  0  0
  184.5410  176.5670  137.6100 C   0  0  0  0  0  2  0  0  0  0  0  0
  185.8410  176.8500  137.6200 C   0  0  0  0  0  3  0  0  0  0  0  0
  1 16  1  0  0  0  0
  2 18  1  0  0  0  0
  3  7  1  0  0  0  0
  3 13  1  0  0  0  0
  4 11  1  0  0  0  0
  4 16  1  0  0  0  0
  5 12  1  0  0  0  0
  5 21  1  0  0  0  0
  6  7  1  0  0  0  0
  8 17  1  0  0  0  0
  8 15  1  0  0  0  0
 10  9  1  0  0  0  0
 10  8  1  0  0  0  0
 11 12  1  0  0  0  0
 12 10  1  0  0  0  0
 13 19  1  0  0  0  0
 14 21  1  0  0  0  0
 14  2  1  0  0  0  0
 15  7  1  0  0  0  0
 16  9  1  0  0  0  0
 17  3  1  0  0  0  0
 18 20  1  0  0  0  0
 20 13  1  0  0  0  0
 21 17  1  0  0  0  0
 22 23  1  0  0  0  0
 23 25  1  0  0  0  0
 23  2  1  0  0  0  0
 24 25  1  0  0  0  0
 26  4  1  0  0  0  0
 27 29  1  0  0  0  0
 27 32  1  0  0  0  0
 28 33  1  0  0  0  0
 28 30  2  0  0  0  0
 30 31  1  0  0  0  0
 31 32  2  0  0  0  0
 31 26  1  0  0  0  0
 33 27  2  0  0  0  0
 34 33  1  0  0  0  0
 35  5  1  0  0  0  0
 36 37  2  0  0  0  0
 37 35  1  0  0  0  0
 38 36  1  0  0  0  0
 39 38  1  0  0  0  0
 39 43  1  0  0  0  0
 40 43  2  0  0  0  0
 43 41  1  0  0  0  0
 43 42  1  0  0  0  0
 44 45  2  0  0  0  0
 45 35  1  0  0  0  0
M  END
>  <MODEL>
3

>  <REMARK>
 VINA RESULT:      -5.8      3.164      7.740
  Name = 
  10 active torsions:
  status: ('A' for Active; 'I' for Inactive)
    1  A    between atoms: O_5  and  C_9
    2  A    between atoms: O_5  and  C_24
    3  A    between atoms: N_7  and  C_26
    4  A    between atoms: C_10  and  N_11
    5  A    between atoms: C_10  and  C_40
    6  A    between atoms: C_10  and  C_44
    7  A    between atoms: C_21  and  C_43
    8  A    between atoms: C_26  and  O_31
    9  A    between atoms: P_30  and  C_42
   10  A    between atoms: C_42  and  C_43
                            x       y       z     vdW  Elec       q    Type
                         _______ _______ _______ _____ _____    ______ ____

>  <TORSDO>
F 10

$$$$
=
 OpenBabel11062414243D

 45 49  0  0  1  0  0  0  0  0999 V2000
  182.7870  175.9590  139.7330 O   0  0  0  0  0  1  0  0  0  0  0  0
  189.1490  175.0070  136.2050 N   0  0  0  0  0  0  0  0  0  0  0  0
  186.4030  173.2530  136.0900 C   0  0  1  0  0  3  0  0  0  0  0  0
  182.8090  177.8720  138.2340 C   0  0  1  0  0  3  0  0  0  0  0  0
  186.2590  176.9350  136.8850 N   0  0  0  0  0  0  0  0  0  0  0  0
  184.6870  172.1350  137.3140 O   0  0  0  0  0  1  0  0  0  0  0  0
  185.0460  172.5510  136.0320 C   0  0  1  0  0  3  0  0  0  0  0  0
  184.6340  174.9300  135.8200 C   0  0  2  0  0  3  0  0  0  0  0  0
  182.7180  175.4790  137.3870 C   0  0  0  0  0  2  0  0  0  0  0  0
  184.2510  175.4000  137.2220 C   0  0  2  0  0  3  0  0  0  0  0  0
  184.0420  177.9190  137.3200 C   0  0  0  0  0  2  0  0  0  0  0  0
  184.9650  176.7290  137.5750 C   0  0  2  0  0  3  0  0  0  0  0  0
  187.4380  172.6090  135.1450 C   0  0  2  0  0  3  0  0  0  0  0  0
  188.2050  175.9880  135.8700 N   0  0  0  0  0  2  0  0  0  0  0  0
  184.0400  173.5660  135.5290 C   0  0  0  0  0  2  0  0  0  0  0  0
  182.3080  176.4370  138.5090 C   0  0  1  0  0  3  0  0  0  0  0  0
  186.1400  174.7160  135.7210 C   0  0  1  0  0  3  0  0  0  0  0  0
  189.2540  174.1780  135.1330 O   0  0  0  0  0  0  0  0  0  0  0  0
  187.3190  171.0920  135.1010 C   0  0  0  0  0  1  0  0  0  0  0  0
  188.8510  172.9280  135.6080 C   0  0  0  0  0  2  0  0  0  0  0  0
  186.9740  175.6780  136.5880 C   0  0  2  0  0  3  0  0  0  0  0  0
  191.2340  175.8530  135.1300 C   0  0  0  0  0  1  0  0  0  0  0  0
  190.4390  175.6780  136.4220 C   0  0  2  0  0  3  0  0  0  0  0  0
  191.8470  175.9430  138.1140 C   0  0  0  0  0  1  0  0  0  0  0  0
  191.2020  174.9650  137.3530 O   0  0  0  0  0  0  0  0  0  0  0  0
  183.0550  178.5710  139.4540 O   0  0  0  0  0  0  0  0  0  0  0  0
  180.9200  179.1610  142.4480 C   0  0  0  0  0  0  0  0  0  0  0  0
  180.0560  180.4210  140.5650 C   0  0  0  0  0  3  0  0  0  0  0  0
  180.8490  178.7370  143.8740 C   0  0  0  0  0  1  0  0  0  0  0  0
  181.0900  179.9300  139.7610 C   0  0  0  0  0  3  0  0  0  0  0  0
  182.0400  179.0520  140.2890 C   0  0  0  0  0  0  0  0  0  0  0  0
  181.9510  178.6720  141.6390 C   0  0  0  0  0  3  0  0  0  0  0  0
  179.9670  180.0380  141.9070 C   0  0  0  0  0  0  0  0  0  0  0  0
  178.9330  180.5320  142.6930 O   0  0  0  0  0  1  0  0  0  0  0  0
  187.1450  177.8030  137.6930 C   0  0  1  0  0  3  0  0  0  0  0  0
  188.4810  177.2050  139.7320 C   0  0  0  0  0  3  0  0  0  0  0  0
  188.1590  176.9880  138.4490 C   0  0  0  0  0  3  0  0  0  0  0  0
  187.8730  178.2920  140.5660 C   0  0  0  0  0  2  0  0  0  0  0  0
  188.5930  178.4200  141.8970 C   0  0  0  0  0  2  0  0  0  0  0  0
  186.0340  177.7300  142.9860 O   0  0  0  0  0  0  0  0  0  0  0  0
  188.1790  178.0000  144.7020 O   0  0  0  0  0  1  0  0  0  0  0  0
  188.0020  176.0050  143.0160 O   0  0  0  0  0  1  0  0  0  0  0  0
  187.6970  177.4780  143.1650 P   0  0  0  0  0  0  0  0  0  0  0  0
  189.1000  179.1560  137.0180 C   0  0  0  0  0  2  0  0  0  0  0  0
  187.7940  178.9260  136.9190 C   0  0  0  0  0  3  0  0  0  0  0  0
  2 23  1  0  0  0  0
  4 16  1  0  0  0  0
  4 26  1  0  0  0  0
  5 12  1  0  0  0  0
  5 35  1  0  0  0  0
  7  3  1  0  0  0  0
  7  6  1  0  0  0  0
  8 10  1  0  0  0  0
  9 16  1  0  0  0  0
 10  9  1  0  0  0  0
 10 12  1  0  0  0  0
 11 12  1  0  0  0  0
 11  4  1  0  0  0  0
 13 20  1  0  0  0  0
 13  3  1  0  0  0  0
 14  2  1  0  0  0  0
 14 21  1  0  0  0  0
 15  8  1  0  0  0  0
 15  7  1  0  0  0  0
 16  1  1  0  0  0  0
 17  8  1  0  0  0  0
 17  3  1  0  0  0  0
 17 21  1  0  0  0  0
 18 20  1  0  0  0  0
 18  2  1  0  0  0  0
 19 13  1  0  0  0  0
 21  5  1  0  0  0  0
 22 23  1  0  0  0  0
 23 25  1  0  0  0  0
 25 24  1  0  0  0  0
 26 31  1  0  0  0  0
 27 29  1  0  0  0  0
 28 33  2  0  0  0  0
 30 31  2  0  0  0  0
 30 28  1  0  0  0  0
 31 32  1  0  0  0  0
 32 27  2  0  0  0  0
 33 27  1  0  0  0  0
 33 34  1  0  0  0  0
 35 37  1  0  0  0  0
 36 38  1  0  0  0  0
 37 36  2  0  0  0  0
 38 39  1  0  0  0  0
 39 43  1  0  0  0  0
 40 43  2  0  0  0  0
 42 43  1  0  0  0  0
 43 41  1  0  0  0  0
 45 44  2  0  0  0  0
 45 35  1  0  0  0  0
M  END
>  <MODEL>
4

>  <REMARK>
 VINA RESULT:      -5.6      3.848      8.121
  Name = 
  10 active torsions:
  status: ('A' for Active; 'I' for Inactive)
    1  A    between atoms: O_5  and  C_9
    2  A    between atoms: O_5  and  C_24
    3  A    between atoms: N_7  and  C_26
    4  A    between atoms: C_10  and  N_11
    5  A    between atoms: C_10  and  C_40
    6  A    between atoms: C_10  and  C_44
    7  A    between atoms: C_21  and  C_43
    8  A    between atoms: C_26  and  O_31
    9  A    between atoms: P_30  and  C_42
   10  A    between atoms: C_42  and  C_43
                            x       y       z     vdW  Elec       q    Type
                         _______ _______ _______ _____ _____    ______ ____

>  <TORSDO>
F 10

$$$$
=
 OpenBabel11062414243D

 45 49  0  0  1  0  0  0  0  0999 V2000
  184.3340  176.2200  138.0100 O   0  0  0  0  0  1  0  0  0  0  0  0
  190.6250  177.4640  141.5750 N   0  0  0  0  0  0  0  0  0  0  0  0
  190.0740  176.9720  138.3980 C   0  0  1  0  0  3  0  0  0  0  0  0
  184.0470  178.5260  138.7230 C   0  0  1  0  0  3  0  0  0  0  0  0
  187.3960  178.5050  140.5630 N   0  0  0  0  0  0  0  0  0  0  0  0
  189.0330  175.6190  136.7320 O   0  0  0  0  0  1  0  0  0  0  0  0
  189.7060  176.8260  136.9220 C   0  0  1  0  0  3  0  0  0  0  0  0
  188.1820  178.4460  137.8850 C   0  0  2  0  0  3  0  0  0  0  0  0
  185.8580  177.8220  137.0870 C   0  0  0  0  0  2  0  0  0  0  0  0
  186.9100  177.6630  138.2060 C   0  0  2  0  0  3  0  0  0  0  0  0
  185.2560  179.0850  139.4860 C   0  0  0  0  0  2  0  0  0  0  0  0
  186.3650  178.0410  139.6060 C   0  0  2  0  0  3  0  0  0  0  0  0
  191.5870  177.1860  138.6090 C   0  0  2  0  0  3  0  0  0  0  0  0
  189.6690  178.4530  141.3010 N   0  0  0  0  0  2  0  0  0  0  0  0
  188.7860  177.9780  136.5760 C   0  0  0  0  0  2  0  0  0  0  0  0
  184.4370  177.5510  137.5920 C   0  0  1  0  0  3  0  0  0  0  0  0
  189.2620  178.1600  138.9230 C   0  0  1  0  0  3  0  0  0  0  0  0
  191.7600  177.8190  140.9170 O   0  0  0  0  0  0  0  0  0  0  0  0
  192.4290  176.3560  137.6490 C   0  0  0  0  0  1  0  0  0  0  0  0
  191.9910  176.7770  140.0170 C   0  0  0  0  0  2  0  0  0  0  0  0
  188.7210  177.8960  140.3410 C   0  0  2  0  0  3  0  0  0  0  0  0
  191.5650  178.7610  143.4850 C   0  0  0  0  0  1  0  0  0  0  0  0
  190.8830  177.4750  143.0210 C   0  0  2  0  0  3  0  0  0  0  0  0
  191.4490  176.2100  144.7520 C   0  0  0  0  0  1  0  0  0  0  0  0
  191.6640  176.3710  143.3810 O   0  0  0  0  0  0  0  0  0  0  0  0
  183.1160  177.9210  139.6210 O   0  0  0  0  0  0  0  0  0  0  0  0
  180.6440  179.0450  142.1680 C   0  0  0  0  0  0  0  0  0  0  0  0
  180.3650  180.3330  140.1330 C   0  0  0  0  0  3  0  0  0  0  0  0
  180.2510  178.7190  143.5680 C   0  0  0  0  0  1  0  0  0  0  0  0
  181.4130  179.6220  139.5390 C   0  0  0  0  0  3  0  0  0  0  0  0
  182.0790  178.6200  140.2490 C   0  0  0  0  0  0  0  0  0  0  0  0
  181.6900  178.3370  141.5700 C   0  0  0  0  0  3  0  0  0  0  0  0
  179.9770  180.0460  141.4460 C   0  0  0  0  0  0  0  0  0  0  0  0
  178.9320  180.7590  142.0220 O   0  0  0  0  0  1  0  0  0  0  0  0
  186.9740  178.2250  141.9550 C   0  0  1  0  0  3  0  0  0  0  0  0
  184.6690  178.6530  142.8490 C   0  0  0  0  0  3  0  0  0  0  0  0
  185.4920  177.9800  142.0320 C   0  0  0  0  0  3  0  0  0  0  0  0
  185.1280  179.7270  143.7880 C   0  0  0  0  0  2  0  0  0  0  0  0
  184.4350  179.6030  145.1330 C   0  0  0  0  0  2  0  0  0  0  0  0
  184.9490  177.3040  146.7640 O   0  0  0  0  0  1  0  0  0  0  0  0
  185.6860  179.7910  147.7050 O   0  0  0  0  0  1  0  0  0  0  0  0
  186.9250  178.6500  145.7020 O   0  0  0  0  0  0  0  0  0  0  0  0
  185.5580  178.8190  146.3250 P   0  0  0  0  0  0  0  0  0  0  0  0
  187.3670  176.6370  143.8080 C   0  0  0  0  0  2  0  0  0  0  0  0
  187.7590  177.1300  142.6360 C   0  0  0  0  0  3  0  0  0  0  0  0
  2 23  1  0  0  0  0
  3 13  1  0  0  0  0
  3 17  1  0  0  0  0
  4 11  1  0  0  0  0
  4 26  1  0  0  0  0
  5 35  1  0  0  0  0
  6  7  1  0  0  0  0
  7  3  1  0  0  0  0
  8 10  1  0  0  0  0
  8 17  1  0  0  0  0
  9 16  1  0  0  0  0
  9 10  1  0  0  0  0
 10 12  1  0  0  0  0
 11 12  1  0  0  0  0
 12  5  1  0  0  0  0
 13 20  1  0  0  0  0
 14  2  1  0  0  0  0
 15  7  1  0  0  0  0
 15  8  1  0  0  0  0
 16  1  1  0  0  0  0
 16  4  1  0  0  0  0
 17 21  1  0  0  0  0
 18  2  1  0  0  0  0
 19 13  1  0  0  0  0
 20 18  1  0  0  0  0
 21  5  1  0  0  0  0
 21 14  1  0  0  0  0
 23 25  1  0  0  0  0
 23 22  1  0  0  0  0
 25 24  1  0  0  0  0
 26 31  1  0  0  0  0
 27 29  1  0  0  0  0
 28 33  1  0  0  0  0
 30 28  2  0  0  0  0
 30 31  1  0  0  0  0
 31 32  2  0  0  0  0
 32 27  1  0  0  0  0
 33 34  1  0  0  0  0
 33 27  2  0  0  0  0
 35 37  1  0  0  0  0
 35 45  1  0  0  0  0
 36 38  1  0  0  0  0
 37 36  2  0  0  0  0
 38 39  1  0  0  0  0
 39 43  1  0  0  0  0
 42 43  2  0  0  0  0
 43 40  1  0  0  0  0
 43 41  1  0  0  0  0
 45 44  2  0  0  0  0
M  END
>  <MODEL>
5

>  <REMARK>
 VINA RESULT:      -5.5      2.936      8.626
  Name = 
  10 active torsions:
  status: ('A' for Active; 'I' for Inactive)
    1  A    between atoms: O_5  and  C_9
    2  A    between atoms: O_5  and  C_24
    3  A    between atoms: N_7  and  C_26
    4  A    between atoms: C_10  and  N_11
    5  A    between atoms: C_10  and  C_40
    6  A    between atoms: C_10  and  C_44
    7  A    between atoms: C_21  and  C_43
    8  A    between atoms: C_26  and  O_31
    9  A    between atoms: P_30  and  C_42
   10  A    between atoms: C_42  and  C_43
                            x       y       z     vdW  Elec       q    Type
                         _______ _______ _______ _____ _____    ______ ____

>  <TORSDO>
F 10

$$$$
=
 OpenBabel11062414243D

 45 49  0  0  1  0  0  0  0  0999 V2000
  186.9840  176.4590  143.2740 O   0  0  0  0  0  1  0  0  0  0  0  0
  185.9420  177.3160  136.0620 N   0  0  0  0  0  0  0  0  0  0  0  0
  183.8130  177.4930  138.5260 C   0  0  1  0  0  3  0  0  0  0  0  0
  188.1840  178.5290  142.8470 C   0  0  1  0  0  3  0  0  0  0  0  0
  187.4420  178.3340  139.1040 N   0  0  0  0  0  0  0  0  0  0  0  0
  182.9390  176.4680  140.4950 O   0  0  0  0  0  1  0  0  0  0  0  0
  182.9120  177.6480  139.7510 C   0  0  1  0  0  3  0  0  0  0  0  0
  184.9340  178.9130  140.1830 C   0  0  2  0  0  3  0  0  0  0  0  0
  185.6710  178.3220  142.5350 C   0  0  0  0  0  2  0  0  0  0  0  0
  185.8100  177.9940  141.0330 C   0  0  2  0  0  3  0  0  0  0  0  0
  188.1090  178.9890  141.3840 C   0  0  0  0  0  2  0  0  0  0  0  0
  187.2790  178.0210  140.5420 C   0  0  2  0  0  3  0  0  0  0  0  0
  183.0610  177.7570  137.2060 C   0  0  2  0  0  3  0  0  0  0  0  0
  186.5480  178.2750  136.8870 N   0  0  0  0  0  2  0  0  0  0  0  0
  183.4760  178.7830  140.5790 C   0  0  0  0  0  2  0  0  0  0  0  0
  186.8870  177.8530  143.3410 C   0  0  1  0  0  3  0  0  0  0  0  0
  184.9670  178.4810  138.7210 C   0  0  1  0  0  3  0  0  0  0  0  0
  184.8100  177.8820  135.5670 O   0  0  0  0  0  0  0  0  0  0  0  0
  181.6390  177.2140  137.2300 C   0  0  0  0  0  1  0  0  0  0  0  0
  183.7720  177.0790  136.0450 C   0  0  0  0  0  2  0  0  0  0  0  0
  186.3120  177.8780  138.2710 C   0  0  2  0  0  3  0  0  0  0  0  0
  187.3150  175.5710  134.9290 C   0  0  0  0  0  1  0  0  0  0  0  0
  186.8620  177.0300  134.9530 C   0  0  2  0  0  3  0  0  0  0  0  0
  189.0510  177.0790  134.6010 C   0  0  0  0  0  1  0  0  0  0  0  0
  187.9790  177.8690  135.0240 O   0  0  0  0  0  0  0  0  0  0  0  0
  189.3140  177.6820  143.0550 O   0  0  0  0  0  0  0  0  0  0  0  0
  189.7740  177.5160  146.7460 C   0  0  0  0  0  0  0  0  0  0  0  0
  191.6780  176.5020  145.6380 C   0  0  0  0  0  3  0  0  0  0  0  0
  189.0530  177.9210  147.9840 C   0  0  0  0  0  1  0  0  0  0  0  0
  191.0980  176.7720  144.3940 C   0  0  0  0  0  3  0  0  0  0  0  0
  189.8610  177.4160  144.3160 C   0  0  0  0  0  0  0  0  0  0  0  0
  189.2000  177.7840  145.5010 C   0  0  0  0  0  3  0  0  0  0  0  0
  191.0210  176.8740  146.8150 C   0  0  0  0  0  0  0  0  0  0  0  0
  191.6100  176.6000  148.0440 O   0  0  0  0  0  1  0  0  0  0  0  0
  188.6890  177.7290  138.5800 C   0  0  1  0  0  3  0  0  0  0  0  0
  189.3930  175.4060  137.9440 C   0  0  0  0  0  3  0  0  0  0  0  0
  188.4380  176.3410  138.0580 C   0  0  0  0  0  3  0  0  0  0  0  0
  190.8260  175.6350  138.3180 C   0  0  0  0  0  2  0  0  0  0  0  0
  191.7210  175.5850  137.0920 C   0  0  0  0  0  2  0  0  0  0  0  0
  194.0820  174.2220  137.9750 O   0  0  0  0  0  1  0  0  0  0  0  0
  193.5540  176.7420  138.9670 O   0  0  0  0  0  1  0  0  0  0  0  0
  194.2620  176.3590  136.4760 O   0  0  0  0  0  0  0  0  0  0  0  0
  193.4570  175.7480  137.6010 P   0  0  0  0  0  0  0  0  0  0  0  0
  189.1950  179.8920  137.4970 C   0  0  0  0  0  2  0  0  0  0  0  0
  189.4210  178.5830  137.5730 C   0  0  0  0  0  3  0  0  0  0  0  0
  1 16  1  0  0  0  0
  2 14  1  0  0  0  0
  3 17  1  0  0  0  0
  3  7  1  0  0  0  0
  4 26  1  0  0  0  0
  4 16  1  0  0  0  0
  5 12  1  0  0  0  0
  7  6  1  0  0  0  0
  7 15  1  0  0  0  0
  8 15  1  0  0  0  0
  8 10  1  0  0  0  0
  9 16  1  0  0  0  0
 10  9  1  0  0  0  0
 11  4  1  0  0  0  0
 12 10  1  0  0  0  0
 12 11  1  0  0  0  0
 13 19  1  0  0  0  0
 13  3  1  0  0  0  0
 14 21  1  0  0  0  0
 17  8  1  0  0  0  0
 18 20  1  0  0  0  0
 18  2  1  0  0  0  0
 20 13  1  0  0  0  0
 21 17  1  0  0  0  0
 21  5  1  0  0  0  0
 22 23  1  0  0  0  0
 23 25  1  0  0  0  0
 23  2  1  0  0  0  0
 24 25  1  0  0  0  0
 26 31  1  0  0  0  0
 27 33  1  0  0  0  0
 27 29  1  0  0  0  0
 28 33  2  0  0  0  0
 30 28  1  0  0  0  0
 31 30  2  0  0  0  0
 31 32  1  0  0  0  0
 32 27  2  0  0  0  0
 33 34  1  0  0  0  0
 35  5  1  0  0  0  0
 36 37  2  0  0  0  0
 36 38  1  0  0  0  0
 37 35  1  0  0  0  0
 39 43  1  0  0  0  0
 39 38  1  0  0  0  0
 42 43  2  0  0  0  0
 43 40  1  0  0  0  0
 43 41  1  0  0  0  0
 44 45  2  0  0  0  0
 45 35  1  0  0  0  0
M  END
>  <MODEL>
6

>  <REMARK>
 VINA RESULT:      -5.5      1.840      3.066
  Name = 
  10 active torsions:
  status: ('A' for Active; 'I' for Inactive)
    1  A    between atoms: O_5  and  C_9
    2  A    between atoms: O_5  and  C_24
    3  A    between atoms: N_7  and  C_26
    4  A    between atoms: C_10  and  N_11
    5  A    between atoms: C_10  and  C_40
    6  A    between atoms: C_10  and  C_44
    7  A    between atoms: C_21  and  C_43
    8  A    between atoms: C_26  and  O_31
    9  A    between atoms: P_30  and  C_42
   10  A    between atoms: C_42  and  C_43
                            x       y       z     vdW  Elec       q    Type
                         _______ _______ _______ _____ _____    ______ ____

>  <TORSDO>
F 10

$$$$
=
 OpenBabel11062414243D

 45 49  0  0  1  0  0  0  0  0999 V2000
  182.6060  175.8420  139.1490 O   0  0  0  0  0  1  0  0  0  0  0  0
  189.4210  174.9340  136.5850 N   0  0  0  0  0  0  0  0  0  0  0  0
  186.7720  173.0700  136.2120 C   0  0  1  0  0  3  0  0  0  0  0  0
  182.7740  177.6610  137.5470 C   0  0  1  0  0  3  0  0  0  0  0  0
  186.4050  176.7840  136.7420 N   0  0  0  0  0  0  0  0  0  0  0  0
  184.9400  171.9590  137.2620 O   0  0  0  0  0  1  0  0  0  0  0  0
  185.4590  172.3120  136.0160 C   0  0  1  0  0  3  0  0  0  0  0  0
  185.0060  174.6560  135.5970 C   0  0  2  0  0  3  0  0  0  0  0  0
  182.8760  175.2200  136.8510 C   0  0  0  0  0  2  0  0  0  0  0  0
  184.4190  175.1930  136.9020 C   0  0  2  0  0  3  0  0  0  0  0  0
  184.1200  177.7030  136.8080 C   0  0  0  0  0  2  0  0  0  0  0  0
  185.0350  176.5680  137.2620 C   0  0  2  0  0  3  0  0  0  0  0  0
  187.9470  172.4130  135.4590 C   0  0  2  0  0  3  0  0  0  0  0  0
  188.5020  175.8560  136.0630 N   0  0  0  0  0  2  0  0  0  0  0  0
  184.5010  173.2550  135.3170 C   0  0  0  0  0  2  0  0  0  0  0  0
  182.2860  176.2270  137.8440 C   0  0  1  0  0  3  0  0  0  0  0  0
  186.5170  174.4970  135.7170 C   0  0  1  0  0  3  0  0  0  0  0  0
  189.6980  174.0480  135.5930 O   0  0  0  0  0  0  0  0  0  0  0  0
  187.8830  170.8920  135.4980 C   0  0  0  0  0  1  0  0  0  0  0  0
  189.2720  172.8140  136.0890 C   0  0  0  0  0  2  0  0  0  0  0  0
  187.1930  175.5410  136.6260 C   0  0  2  0  0  3  0  0  0  0  0  0
  191.7780  175.4220  135.9360 C   0  0  0  0  0  1  0  0  0  0  0  0
  190.6460  175.6680  136.9320 C   0  0  2  0  0  3  0  0  0  0  0  0
  191.7440  176.4470  138.6930 C   0  0  0  0  0  1  0  0  0  0  0  0
  191.0670  175.3200  138.2200 O   0  0  0  0  0  0  0  0  0  0  0  0
  182.8280  178.4410  138.7420 O   0  0  0  0  0  0  0  0  0  0  0  0
  180.6940  181.4920  138.7320 C   0  0  0  0  0  0  0  0  0  0  0  0
  180.0900  180.0760  140.6070 C   0  0  0  0  0  3  0  0  0  0  0  0
  180.5160  182.7320  137.9270 C   0  0  0  0  0  1  0  0  0  0  0  0
  181.0620  179.1480  140.2200 C   0  0  0  0  0  3  0  0  0  0  0  0
  181.8570  179.3850  139.0950 C   0  0  0  0  0  0  0  0  0  0  0  0
  181.6650  180.5610  138.3510 C   0  0  0  0  0  3  0  0  0  0  0  0
  179.9040  181.2490  139.8670 C   0  0  0  0  0  0  0  0  0  0  0  0
  178.9360  182.1630  140.2650 O   0  0  0  0  0  1  0  0  0  0  0  0
  187.1440  177.7330  137.6050 C   0  0  1  0  0  3  0  0  0  0  0  0
  188.2720  177.4010  139.8220 C   0  0  0  0  0  3  0  0  0  0  0  0
  188.0480  177.0030  138.5620 C   0  0  0  0  0  3  0  0  0  0  0  0
  187.6540  178.6250  140.4280 C   0  0  0  0  0  2  0  0  0  0  0  0
  187.0210  178.3050  141.7700 C   0  0  0  0  0  2  0  0  0  0  0  0
  184.9770  179.7550  140.3810 O   0  0  0  0  0  0  0  0  0  0  0  0
  184.9630  179.7540  143.1410 O   0  0  0  0  0  1  0  0  0  0  0  0
  184.3850  177.6090  141.7570 O   0  0  0  0  0  1  0  0  0  0  0  0
  185.2810  178.8260  141.7610 P   0  0  0  0  0  0  0  0  0  0  0  0
  189.1000  179.1970  137.2280 C   0  0  0  0  0  2  0  0  0  0  0  0
  187.8810  178.8160  136.8540 C   0  0  0  0  0  3  0  0  0  0  0  0
  2 23  1  0  0  0  0
  4 16  1  0  0  0  0
  4 26  1  0  0  0  0
  5 12  1  0  0  0  0
  5 35  1  0  0  0  0
  7  3  1  0  0  0  0
  7  6  1  0  0  0  0
  8 17  1  0  0  0  0
  8 10  1  0  0  0  0
  9 10  1  0  0  0  0
  9 16  1  0  0  0  0
 10 12  1  0  0  0  0
 11 12  1  0  0  0  0
 11  4  1  0  0  0  0
 13 19  1  0  0  0  0
 13 20  1  0  0  0  0
 13  3  1  0  0  0  0
 14  2  1  0  0  0  0
 14 21  1  0  0  0  0
 15  8  1  0  0  0  0
 15  7  1  0  0  0  0
 16  1  1  0  0  0  0
 17  3  1  0  0  0  0
 17 21  1  0  0  0  0
 18 20  1  0  0  0  0
 18  2  1  0  0  0  0
 21  5  1  0  0  0  0
 22 23  1  0  0  0  0
 23 25  1  0  0  0  0
 25 24  1  0  0  0  0
 26 31  1  0  0  0  0
 27 33  1  0  0  0  0
 29 27  1  0  0  0  0
 30 28  1  0  0  0  0
 31 30  2  0  0  0  0
 32 27  2  0  0  0  0
 32 31  1  0  0  0  0
 33 34  1  0  0  0  0
 33 28  2  0  0  0  0
 35 37  1  0  0  0  0
 36 38  1  0  0  0  0
 37 36  2  0  0  0  0
 38 39  1  0  0  0  0
 40 43  2  0  0  0  0
 42 43  1  0  0  0  0
 43 39  1  0  0  0  0
 43 41  1  0  0  0  0
 45 44  2  0  0  0  0
 45 35  1  0  0  0  0
M  END
>  <MODEL>
7

>  <REMARK>
 VINA RESULT:      -5.5      4.377      8.895
  Name = 
  10 active torsions:
  status: ('A' for Active; 'I' for Inactive)
    1  A    between atoms: O_5  and  C_9
    2  A    between atoms: O_5  and  C_24
    3  A    between atoms: N_7  and  C_26
    4  A    between atoms: C_10  and  N_11
    5  A    between atoms: C_10  and  C_40
    6  A    between atoms: C_10  and  C_44
    7  A    between atoms: C_21  and  C_43
    8  A    between atoms: C_26  and  O_31
    9  A    between atoms: P_30  and  C_42
   10  A    between atoms: C_42  and  C_43
                            x       y       z     vdW  Elec       q    Type
                         _______ _______ _______ _____ _____    ______ ____

>  <TORSDO>
F 10

$$$$
=
 OpenBabel11062414243D

 45 49  0  0  1  0  0  0  0  0999 V2000
  190.9300  175.1630  139.0880 O   0  0  0  0  0  1  0  0  0  0  0  0
  184.2560  178.1040  139.8920 N   0  0  0  0  0  0  0  0  0  0  0  0
  186.7340  177.9140  142.0030 C   0  0  1  0  0  3  0  0  0  0  0  0
  191.0490  177.0690  137.5850 C   0  0  1  0  0  3  0  0  0  0  0  0
  187.4160  178.0170  138.2970 N   0  0  0  0  0  0  0  0  0  0  0  0
  188.3730  176.5320  143.0470 O   0  0  0  0  0  1  0  0  0  0  0  0
  187.9790  177.8600  142.8870 C   0  0  1  0  0  3  0  0  0  0  0  0
  188.6820  178.6440  140.7040 C   0  0  2  0  0  3  0  0  0  0  0  0
  190.7630  177.3310  140.0960 C   0  0  0  0  0  2  0  0  0  0  0  0
  189.2250  177.4090  139.9870 C   0  0  2  0  0  3  0  0  0  0  0  0
  189.7680  177.9180  137.5700 C   0  0  0  0  0  2  0  0  0  0  0  0
  188.7190  177.3510  138.5250 C   0  0  2  0  0  3  0  0  0  0  0  0
  185.5570  178.6370  142.6880 C   0  0  2  0  0  3  0  0  0  0  0  0
  185.2930  178.7000  139.1590 N   0  0  0  0  0  2  0  0  0  0  0  0
  189.0690  178.6290  142.1700 C   0  0  0  0  0  2  0  0  0  0  0  0
  191.3760  176.4840  138.9760 C   0  0  1  0  0  3  0  0  0  0  0  0
  187.1580  178.6280  140.7160 C   0  0  1  0  0  3  0  0  0  0  0  0
  183.9650  178.9450  140.9190 O   0  0  0  0  0  0  0  0  0  0  0  0
  185.4720  178.3270  144.1760 C   0  0  0  0  0  1  0  0  0  0  0  0
  184.2350  178.2050  142.0720 C   0  0  0  0  0  2  0  0  0  0  0  0
  186.5230  177.9790  139.4710 C   0  0  2  0  0  3  0  0  0  0  0  0
  182.5170  179.3630  138.6230 C   0  0  0  0  0  1  0  0  0  0  0  0
  183.0850  177.9990  139.0100 C   0  0  2  0  0  3  0  0  0  0  0  0
  180.8850  177.7800  139.1760 C   0  0  0  0  0  1  0  0  0  0  0  0
  182.0890  177.2290  139.6210 O   0  0  0  0  0  0  0  0  0  0  0  0
  190.9860  176.0390  136.5980 O   0  0  0  0  0  0  0  0  0  0  0  0
  193.2090  173.2080  135.6450 C   0  0  0  0  0  0  0  0  0  0  0  0
  194.4040  175.3040  135.4040 C   0  0  0  0  0  3  0  0  0  0  0  0
  193.1540  171.7220  135.5560 C   0  0  0  0  0  1  0  0  0  0  0  0
  193.2680  176.0020  135.8290 C   0  0  0  0  0  3  0  0  0  0  0  0
  192.1010  175.3120  136.1670 C   0  0  0  0  0  0  0  0  0  0  0  0
  192.0770  173.9100  136.0700 C   0  0  0  0  0  3  0  0  0  0  0  0
  194.3790  173.9090  135.3130 C   0  0  0  0  0  0  0  0  0  0  0  0
  195.5160  173.2290  134.8920 O   0  0  0  0  0  1  0  0  0  0  0  0
  186.7120  177.4010  137.1490 C   0  0  1  0  0  3  0  0  0  0  0  0
  186.1510  178.0310  134.7850 C   0  0  0  0  0  3  0  0  0  0  0  0
  186.8310  178.2580  135.9180 C   0  0  0  0  0  3  0  0  0  0  0  0
  185.1950  176.8910  134.6070 C   0  0  0  0  0  2  0  0  0  0  0  0
  183.8930  177.1550  135.3420 C   0  0  0  0  0  2  0  0  0  0  0  0
  181.4170  175.9220  134.5940 O   0  0  0  0  0  0  0  0  0  0  0  0
  182.6020  175.1850  136.9750 O   0  0  0  0  0  1  0  0  0  0  0  0
  183.6310  174.5290  134.6590 O   0  0  0  0  0  1  0  0  0  0  0  0
  182.8930  175.6390  135.3700 P   0  0  0  0  0  0  0  0  0  0  0  0
  186.3000  174.9650  137.2180 C   0  0  0  0  0  2  0  0  0  0  0  0
  187.1030  175.9690  136.8740 C   0  0  0  0  0  3  0  0  0  0  0  0
  2 18  1  0  0  0  0
  3 13  1  0  0  0  0
  3  7  1  0  0  0  0
  4 16  1  0  0  0  0
  5 12  1  0  0  0  0
  5 21  1  0  0  0  0
  7  6  1  0  0  0  0
  8 17  1  0  0  0  0
  8 15  1  0  0  0  0
 10  9  1  0  0  0  0
 10  8  1  0  0  0  0
 11  4  1  0  0  0  0
 11 12  1  0  0  0  0
 12 10  1  0  0  0  0
 13 19  1  0  0  0  0
 14 21  1  0  0  0  0
 14  2  1  0  0  0  0
 15  7  1  0  0  0  0
 16  1  1  0  0  0  0
 16  9  1  0  0  0  0
 17  3  1  0  0  0  0
 18 20  1  0  0  0  0
 20 13  1  0  0  0  0
 21 17  1  0  0  0  0
 22 23  1  0  0  0  0
 23 25  1  0  0  0  0
 23  2  1  0  0  0  0
 24 25  1  0  0  0  0
 26  4  1  0  0  0  0
 27 32  1  0  0  0  0
 28 30  2  0  0  0  0
 29 27  1  0  0  0  0
 30 31  1  0  0  0  0
 31 26  1  0  0  0  0
 32 31  2  0  0  0  0
 33 28  1  0  0  0  0
 33 27  2  0  0  0  0
 34 33  1  0  0  0  0
 35  5  1  0  0  0  0
 36 37  2  0  0  0  0
 37 35  1  0  0  0  0
 38 36  1  0  0  0  0
 38 39  1  0  0  0  0
 39 43  1  0  0  0  0
 40 43  2  0  0  0  0
 42 43  1  0  0  0  0
 43 41  1  0  0  0  0
 45 35  1  0  0  0  0
 45 44  2  0  0  0  0
M  END
>  <MODEL>
8

>  <REMARK>
 VINA RESULT:      -5.4      3.483      8.188
  Name = 
  10 active torsions:
  status: ('A' for Active; 'I' for Inactive)
    1  A    between atoms: O_5  and  C_9
    2  A    between atoms: O_5  and  C_24
    3  A    between atoms: N_7  and  C_26
    4  A    between atoms: C_10  and  N_11
    5  A    between atoms: C_10  and  C_40
    6  A    between atoms: C_10  and  C_44
    7  A    between atoms: C_21  and  C_43
    8  A    between atoms: C_26  and  O_31
    9  A    between atoms: P_30  and  C_42
   10  A    between atoms: C_42  and  C_43
                            x       y       z     vdW  Elec       q    Type
                         _______ _______ _______ _____ _____    ______ ____

>  <TORSDO>
F 10

$$$$
=
 OpenBabel11062414243D

 45 49  0  0  1  0  0  0  0  0999 V2000
  184.1300  180.5110  143.0160 O   0  0  0  0  0  1  0  0  0  0  0  0
  190.0980  177.1880  145.6950 N   0  0  0  0  0  0  0  0  0  0  0  0
  187.5160  178.4360  147.2470 C   0  0  1  0  0  3  0  0  0  0  0  0
  183.8150  178.2310  142.2360 C   0  0  1  0  0  3  0  0  0  0  0  0
  187.1530  177.1240  143.7320 N   0  0  0  0  0  0  0  0  0  0  0  0
  186.0550  180.3020  147.5250 O   0  0  0  0  0  1  0  0  0  0  0  0
  186.2260  178.9620  147.8760 C   0  0  1  0  0  3  0  0  0  0  0  0
  185.5910  177.5590  146.0050 C   0  0  2  0  0  3  0  0  0  0  0  0
  183.8300  178.8360  144.7030 C   0  0  0  0  0  2  0  0  0  0  0  0
  185.3360  178.5220  144.8470 C   0  0  2  0  0  3  0  0  0  0  0  0
  184.9250  177.2700  142.6880 C   0  0  0  0  0  2  0  0  0  0  0  0
  185.9700  177.9930  143.5370 C   0  0  2  0  0  3  0  0  0  0  0  0
  188.4850  177.8520  148.2950 C   0  0  2  0  0  3  0  0  0  0  0  0
  189.0420  176.5150  145.0650 N   0  0  0  0  0  2  0  0  0  0  0  0
  185.0860  178.1410  147.3100 C   0  0  0  0  0  2  0  0  0  0  0  0
  183.4740  179.3070  143.2890 C   0  0  1  0  0  3  0  0  0  0  0  0
  187.0880  177.3760  146.2270 C   0  0  1  0  0  3  0  0  0  0  0  0
  190.1480  176.7330  146.9750 O   0  0  0  0  0  0  0  0  0  0  0  0
  188.4920  178.6540  149.5890 C   0  0  0  0  0  1  0  0  0  0  0  0
  189.9100  177.8610  147.7630 C   0  0  0  0  0  2  0  0  0  0  0  0
  187.9320  177.4550  144.9400 C   0  0  2  0  0  3  0  0  0  0  0  0
  192.1340  175.7500  145.7540 C   0  0  0  0  0  1  0  0  0  0  0  0
  191.3420  176.8200  145.0050 C   0  0  2  0  0  3  0  0  0  0  0  0
  191.2910  178.9020  144.2430 C   0  0  0  0  0  1  0  0  0  0  0  0
  192.1410  177.9530  144.8160 O   0  0  0  0  0  0  0  0  0  0  0  0
  184.1410  178.8290  140.9810 O   0  0  0  0  0  0  0  0  0  0  0  0
  183.1600  177.7990  137.5400 C   0  0  0  0  0  0  0  0  0  0  0  0
  181.3140  178.9540  138.6060 C   0  0  0  0  0  3  0  0  0  0  0  0
  183.7530  177.0940  136.3700 C   0  0  0  0  0  1  0  0  0  0  0  0
  182.0840  179.1210  139.7610 C   0  0  0  0  0  3  0  0  0  0  0  0
  183.3930  178.6350  139.8140 C   0  0  0  0  0  0  0  0  0  0  0  0
  183.9260  177.9700  138.6960 C   0  0  0  0  0  3  0  0  0  0  0  0
  181.8480  178.2960  137.4930 C   0  0  0  0  0  0  0  0  0  0  0  0
  181.0710  178.1400  136.3520 O   0  0  0  0  0  1  0  0  0  0  0  0
  188.0500  177.1970  142.5560 C   0  0  1  0  0  3  0  0  0  0  0  0
  188.4430  179.1640  141.0490 C   0  0  0  0  0  3  0  0  0  0  0  0
  188.4560  178.6170  142.2730 C   0  0  0  0  0  3  0  0  0  0  0  0
  188.0270  178.4240  139.8140 C   0  0  0  0  0  2  0  0  0  0  0  0
  189.0580  178.5860  138.7110 C   0  0  0  0  0  2  0  0  0  0  0  0
  187.1700  176.8680  137.4120 O   0  0  0  0  0  1  0  0  0  0  0  0
  189.7400  175.9490  137.8200 O   0  0  0  0  0  1  0  0  0  0  0  0
  189.2080  177.8430  136.0930 O   0  0  0  0  0  0  0  0  0  0  0  0
  188.8020  177.3080  137.4470 P   0  0  0  0  0  0  0  0  0  0  0  0
  190.2270  176.3650  141.7310 C   0  0  0  0  0  2  0  0  0  0  0  0
  189.2440  176.2750  142.6240 C   0  0  0  0  0  3  0  0  0  0  0  0
  1 16  1  0  0  0  0
  2 18  1  0  0  0  0
  3  7  1  0  0  0  0
  3 13  1  0  0  0  0
  4 11  1  0  0  0  0
  4 16  1  0  0  0  0
  5 21  1  0  0  0  0
  6  7  1  0  0  0  0
  8 17  1  0  0  0  0
  8 15  1  0  0  0  0
  9 10  1  0  0  0  0
 10  8  1  0  0  0  0
 11 12  1  0  0  0  0
 12  5  1  0  0  0  0
 12 10  1  0  0  0  0
 13 19  1  0  0  0  0
 14  2  1  0  0  0  0
 15  7  1  0  0  0  0
 16  9  1  0  0  0  0
 17  3  1  0  0  0  0
 18 20  1  0  0  0  0
 20 13  1  0  0  0  0
 21 14  1  0  0  0  0
 21 17  1  0  0  0  0
 23  2  1  0  0  0  0
 23 22  1  0  0  0  0
 24 25  1  0  0  0  0
 25 23  1  0  0  0  0
 26  4  1  0  0  0  0
 27 32  1  0  0  0  0
 28 30  2  0  0  0  0
 29 27  1  0  0  0  0
 30 31  1  0  0  0  0
 31 26  1  0  0  0  0
 32 31  2  0  0  0  0
 33 27  2  0  0  0  0
 33 28  1  0  0  0  0
 34 33  1  0  0  0  0
 35 45  1  0  0  0  0
 35  5  1  0  0  0  0
 36 37  2  0  0  0  0
 37 35  1  0  0  0  0
 38 36  1  0  0  0  0
 39 38  1  0  0  0  0
 40 43  1  0  0  0  0
 42 43  2  0  0  0  0
 43 41  1  0  0  0  0
 43 39  1  0  0  0  0
 44 45  2  0  0  0  0
M  END
>  <MODEL>
9

>  <REMARK>
 VINA RESULT:      -5.1      2.308      7.968
  Name = 
  10 active torsions:
  status: ('A' for Active; 'I' for Inactive)
    1  A    between atoms: O_5  and  C_9
    2  A    between atoms: O_5  and  C_24
    3  A    between atoms: N_7  and  C_26
    4  A    between atoms: C_10  and  N_11
    5  A    between atoms: C_10  and  C_40
    6  A    between atoms: C_10  and  C_44
    7  A    between atoms: C_21  and  C_43
    8  A    between atoms: C_26  and  O_31
    9  A    between atoms: P_30  and  C_42
   10  A    between atoms: C_42  and  C_43
                            x       y       z     vdW  Elec       q    Type
                         _______ _______ _______ _____ _____    ______ ____

>  <TORSDO>
F 10

$$$$
