=
 OpenBabel11062415553D

 41 46  0  0  1  0  0  0  0  0999 V2000
  185.7400  178.2920  142.6090 C   0  0  0  0  0  0  0  0  0  0  0  0
  184.1030  177.7640  140.8690 C   0  0  0  0  0  0  0  0  0  0  0  0
  183.3960  178.7740  143.0110 C   0  0  0  0  0  2  0  0  0  0  0  0
  183.7990  177.1810  139.7340 C   0  0  0  0  0  0  0  0  0  0  0  0
  188.7330  175.9390  142.7350 C   0  0  0  0  0  1  0  0  0  0  0  0
  184.4120  178.3400  141.9970 C   0  0  0  0  0  0  0  0  0  0  0  0
  184.8510  178.9780  146.6140 C   0  0  0  0  0  2  0  0  0  0  0  0
  187.8940  177.6130  144.4620 C   0  0  1  0  0  3  0  0  0  0  0  0
  186.7320  177.6040  147.0520 O   0  0  0  0  0  0  0  0  0  0  0  0
  186.7520  178.5760  144.8780 C   0  0  1  0  0  3  0  0  0  0  0  0
  185.6570  178.7060  143.8560 C   0  0  0  0  0  0  0  0  0  0  0  0
  187.5470  176.7500  143.2250 C   0  0  1  0  0  3  0  0  0  0  0  0
  186.1440  178.2920  146.2310 C   0  0  0  0  0  0  0  0  0  0  0  0
  186.9550  177.5910  142.0890 C   0  0  0  0  0  2  0  0  0  0  0  0
  184.2700  178.9610  144.2060 C   0  0  0  0  0  0  0  0  0  0  0  0
  183.8580  178.9980  145.4730 C   0  0  0  0  0  3  0  0  0  0  0  0
  183.9260  177.3250  137.2150 C   0  0  0  0  0  2  0  0  0  0  0  0
  186.6290  178.2300  137.5730 C   0  0  0  0  0  0  0  0  0  0  0  0
  187.0610  177.6760  135.1880 O   0  0  0  0  0  1  0  0  0  0  0  0
  185.8520  178.0880  138.6450 C   0  0  0  0  0  3  0  0  0  0  0  0
  186.1820  177.7120  136.2650 C   0  0  0  0  0  0  0  0  0  0  0  0
  184.9410  177.2520  136.1080 C   0  0  0  0  0  3  0  0  0  0  0  0
  184.5510  177.4820  138.5390 N   0  0  0  0  0  0  0  0  0  0  0  0
  188.9750  179.3080  137.8370 N   0  0  0  0  0  0  0  0  0  0  0  0
  187.9280  178.8270  137.7190 C   0  0  0  0  0  0  0  0  0  0  0  0
  181.3840  177.1500  139.2110 C   0  0  0  0  0  2  0  0  0  0  0  0
  181.5970  176.8670  140.5700 O   0  0  0  0  0  0  0  0  0  0  0  0
  182.5470  176.3500  139.6680 C   0  0  2  0  0  3  0  0  0  0  0  0
  189.1070  178.3870  144.2250 N   0  0  0  0  0  2  0  0  0  0  0  0
  190.0510  178.0530  145.2800 C   0  0  1  0  0  3  0  0  0  0  0  0
  190.8880  176.5770  147.2830 C   0  0  0  0  0  1  0  0  0  0  0  0
  189.3690  176.7100  146.2990 S   0  0  0  0  0  0  0  0  0  0  0  0
  191.3650  177.6120  144.6590 C   0  0  0  0  0  2  0  0  0  0  0  0
  191.5470  178.2670  143.3010 C   0  0  0  0  0  2  0  0  0  0  0  0
  191.8760  177.2200  142.2490 C   0  0  0  0  0  2  0  0  0  0  0  0
  190.4170  175.6330  137.8540 S   0  0  0  0  0  0  0  0  0  0  0  0
  190.5570  177.1900  140.1180 C   0  0  0  0  0  2  0  0  0  0  0  0
  191.2110  176.5150  138.9750 C   0  0  0  0  0  0  0  0  0  0  0  0
  192.6160  176.6490  138.9960 N   0  0  0  0  0  0  0  0  0  0  0  0
  191.7600  177.7950  140.8440 C   0  0  2  0  0  3  0  0  0  0  0  0
  192.9350  177.3560  140.0240 C   0  0  0  0  0  3  0  0  0  0  0  0
  1 11  2  0  0  0  0
  2  6  2  0  0  0  0
  3 15  1  0  0  0  0
  4  2  2  0  0  0  0
  6  1  1  0  0  0  0
  6  3  1  0  0  0  0
  8 29  1  6  0  0  0
  8 10  1  0  0  0  0
 10 11  1  6  0  0  0
 10 13  1  0  0  0  0
 11 15  1  0  0  0  0
 12  5  1  6  0  0  0
 12  8  1  0  0  0  0
 13  7  1  0  0  0  0
 13  9  2  0  0  0  0
 14  1  1  0  0  0  0
 14 12  1  0  0  0  0
 15 16  2  0  0  0  0
 16  7  1  0  0  0  0
 17 23  1  0  0  0  0
 18 25  1  0  0  0  0
 18 20  2  0  0  0  0
 19 21  1  0  0  0  0
 21 18  1  0  0  0  0
 22 21  2  0  0  0  0
 22 17  1  0  0  0  0
 23 20  1  0  0  0  0
 23  4  1  0  0  0  0
 25 24  3  0  0  0  0
 26 28  1  0  0  0  0
 26 27  1  0  0  0  0
 28  4  1  1  0  0  0
 28 27  1  0  0  0  0
 29 30  1  0  0  0  0
 30 33  1  6  0  0  0
 30 32  1  0  0  0  0
 32 31  1  0  0  0  0
 34 33  1  0  0  0  0
 35 34  1  0  0  0  0
 36 38  2  0  0  0  0
 37 40  1  0  0  0  0
 38 39  1  0  0  0  0
 38 37  1  0  0  0  0
 39 41  2  0  0  0  0
 40 35  1  1  0  0  0
 41 40  1  0  0  0  0
M  END
>  <MODEL>
1

>  <REMARK>
 VINA RESULT:      -7.9      0.000      0.000
  Name = 
  10 active torsions:
  status: ('A' for Active; 'I' for Inactive)
    1  A    between atoms: C_1  and  C_6
    2  A    between atoms: C_1  and  C_37
    3  A    between atoms: C_6  and  C_29
    4  A    between atoms: C_7  and  N_33
    5  A    between atoms: C_7  and  C_38
    6  A    between atoms: S_10  and  C_29
    7  A    between atoms: C_16  and  C_41
    8  A    between atoms: C_19  and  N_22
    9  A    between atoms: N_22  and  C_29
   10  A    between atoms: C_25  and  C_37
                            x       y       z     vdW  Elec       q    Type
                         _______ _______ _______ _____ _____    ______ ____

>  <TORSDO>
F 10

$$$$
=
 OpenBabel11062415553D

 41 46  0  0  1  0  0  0  0  0999 V2000
  186.7530  175.0680  137.2190 C   0  0  0  0  0  0  0  0  0  0  0  0
  184.3590  174.5630  137.2460 C   0  0  0  0  0  0  0  0  0  0  0  0
  186.0170  172.8160  136.6910 C   0  0  0  0  0  2  0  0  0  0  0  0
  183.1130  174.9680  137.3020 C   0  0  0  0  0  0  0  0  0  0  0  0
  187.6090  178.6310  136.1780 C   0  0  0  0  0  1  0  0  0  0  0  0
  185.6010  174.1680  137.1910 C   0  0  0  0  0  0  0  0  0  0  0  0
  189.6730  172.7640  135.3570 C   0  0  0  0  0  2  0  0  0  0  0  0
  189.0970  176.5680  136.3300 C   0  0  1  0  0  3  0  0  0  0  0  0
  190.5280  174.8380  134.5940 O   0  0  0  0  0  0  0  0  0  0  0  0
  189.1570  175.0320  136.5310 C   0  0  1  0  0  3  0  0  0  0  0  0
  187.8300  174.4030  136.8550 C   0  0  0  0  0  0  0  0  0  0  0  0
  187.6530  177.1140  136.2050 C   0  0  1  0  0  3  0  0  0  0  0  0
  189.8100  174.2700  135.4020 C   0  0  0  0  0  0  0  0  0  0  0  0
  186.7370  176.5620  137.3030 C   0  0  0  0  0  2  0  0  0  0  0  0
  187.4730  173.0530  136.4590 C   0  0  0  0  0  0  0  0  0  0  0  0
  188.2690  172.3110  135.6890 C   0  0  0  0  0  3  0  0  0  0  0  0
  181.3580  175.5280  139.0310 C   0  0  0  0  0  2  0  0  0  0  0  0
  183.1220  177.6260  139.8930 C   0  0  0  0  0  0  0  0  0  0  0  0
  181.1940  178.6810  141.0550 O   0  0  0  0  0  1  0  0  0  0  0  0
  183.5580  176.7510  138.9880 C   0  0  0  0  0  3  0  0  0  0  0  0
  181.6940  177.6510  140.2660 C   0  0  0  0  0  0  0  0  0  0  0  0
  180.8650  176.7020  139.8310 C   0  0  0  0  0  3  0  0  0  0  0  0
  182.6640  175.7880  138.4020 N   0  0  0  0  0  0  0  0  0  0  0  0
  184.7810  179.3520  140.8930 N   0  0  0  0  0  0  0  0  0  0  0  0
  184.0410  178.5820  140.4480 C   0  0  0  0  0  0  0  0  0  0  0  0
  182.3910  174.9210  134.9390 C   0  0  0  0  0  2  0  0  0  0  0  0
  181.3810  175.4620  135.7510 O   0  0  0  0  0  0  0  0  0  0  0  0
  182.1320  174.4080  136.3080 C   0  0  2  0  0  3  0  0  0  0  0  0
  189.7990  177.2210  137.4290 N   0  0  0  0  0  2  0  0  0  0  0  0
  190.6150  176.2110  138.0850 C   0  0  1  0  0  3  0  0  0  0  0  0
  192.6680  174.6290  137.6680 C   0  0  0  0  0  1  0  0  0  0  0  0
  192.3500  176.4140  137.5810 S   0  0  0  0  0  0  0  0  0  0  0  0
  190.4940  176.3670  139.5910 C   0  0  0  0  0  2  0  0  0  0  0  0
  189.2470  177.1630  139.9360 C   0  0  0  0  0  2  0  0  0  0  0  0
  189.3460  177.7110  141.3500 C   0  0  0  0  0  2  0  0  0  0  0  0
  187.1810  177.7130  145.7410 S   0  0  0  0  0  0  0  0  0  0  0  0
  187.6430  177.1250  143.0930 C   0  0  0  0  0  2  0  0  0  0  0  0
  188.1100  177.2150  144.4940 C   0  0  0  0  0  0  0  0  0  0  0  0
  189.4770  176.8940  144.6330 N   0  0  0  0  0  0  0  0  0  0  0  0
  188.9140  176.6710  142.3750 C   0  0  2  0  0  3  0  0  0  0  0  0
  189.9370  176.5900  143.4690 C   0  0  0  0  0  3  0  0  0  0  0  0
  1 14  1  0  0  0  0
  2  4  2  0  0  0  0
  3  6  1  0  0  0  0
  4 23  1  0  0  0  0
  6  1  1  0  0  0  0
  6  2  2  0  0  0  0
  7 13  1  0  0  0  0
  7 16  1  0  0  0  0
  8 10  1  0  0  0  0
  8 29  1  1  0  0  0
  9 13  2  0  0  0  0
 10 13  1  6  0  0  0
 10 11  1  0  0  0  0
 11  1  2  0  0  0  0
 12  5  1  1  0  0  0
 12  8  1  0  0  0  0
 12 14  1  0  0  0  0
 15  3  1  0  0  0  0
 15 11  1  0  0  0  0
 16 15  2  0  0  0  0
 17 22  1  0  0  0  0
 18 21  1  0  0  0  0
 18 25  1  0  0  0  0
 20 18  2  0  0  0  0
 21 19  1  0  0  0  0
 22 21  2  0  0  0  0
 23 20  1  0  0  0  0
 23 17  1  0  0  0  0
 25 24  3  0  0  0  0
 26 27  1  0  0  0  0
 26 28  1  0  0  0  0
 27 28  1  0  0  0  0
 28  4  1  1  0  0  0
 29 30  1  0  0  0  0
 30 33  1  1  0  0  0
 32 31  1  0  0  0  0
 32 30  1  0  0  0  0
 33 34  1  0  0  0  0
 34 35  1  0  0  0  0
 37 38  1  0  0  0  0
 38 39  1  0  0  0  0
 38 36  2  0  0  0  0
 40 35  1  6  0  0  0
 40 37  1  0  0  0  0
 40 41  1  0  0  0  0
 41 39  2  0  0  0  0
M  END
>  <MODEL>
2

>  <REMARK>
 VINA RESULT:      -6.9      2.871      7.288
  Name = 
  10 active torsions:
  status: ('A' for Active; 'I' for Inactive)
    1  A    between atoms: C_1  and  C_6
    2  A    between atoms: C_1  and  C_37
    3  A    between atoms: C_6  and  C_29
    4  A    between atoms: C_7  and  N_33
    5  A    between atoms: C_7  and  C_38
    6  A    between atoms: S_10  and  C_29
    7  A    between atoms: C_16  and  C_41
    8  A    between atoms: C_19  and  N_22
    9  A    between atoms: N_22  and  C_29
   10  A    between atoms: C_25  and  C_37
                            x       y       z     vdW  Elec       q    Type
                         _______ _______ _______ _____ _____    ______ ____

>  <TORSDO>
F 10

$$$$
=
 OpenBabel11062415553D

 41 46  0  0  1  0  0  0  0  0999 V2000
  186.3750  177.9120  142.5150 C   0  0  0  0  0  0  0  0  0  0  0  0
  188.8060  178.0740  142.7320 C   0  0  0  0  0  0  0  0  0  0  0  0
  187.3650  177.8790  144.7300 C   0  0  0  0  0  2  0  0  0  0  0  0
  189.9810  178.3070  142.1990 C   0  0  0  0  0  0  0  0  0  0  0  0
  184.9210  179.7880  139.5360 C   0  0  0  0  0  1  0  0  0  0  0  0
  187.6340  177.8440  143.2550 C   0  0  0  0  0  0  0  0  0  0  0  0
  183.6380  178.6270  145.5650 C   0  0  0  0  0  2  0  0  0  0  0  0
  183.7640  178.8560  141.6050 C   0  0  1  0  0  3  0  0  0  0  0  0
  182.4250  179.8190  143.9150 O   0  0  0  0  0  0  0  0  0  0  0  0
  183.9430  178.2230  143.0090 C   0  0  1  0  0  3  0  0  0  0  0  0
  185.3710  177.9210  143.3680 C   0  0  0  0  0  0  0  0  0  0  0  0
  185.0960  179.3270  140.9710 C   0  0  1  0  0  3  0  0  0  0  0  0
  183.2940  178.9900  144.1370 C   0  0  0  0  0  0  0  0  0  0  0  0
  186.1860  178.2560  141.0710 C   0  0  0  0  0  2  0  0  0  0  0  0
  185.8750  177.9660  144.7300 C   0  0  0  0  0  0  0  0  0  0  0  0
  185.1190  178.3780  145.7480 C   0  0  0  0  0  3  0  0  0  0  0  0
  191.8190  177.1130  140.9410 C   0  0  0  0  0  2  0  0  0  0  0  0
  189.8430  176.5480  138.9330 C   0  0  0  0  0  0  0  0  0  0  0  0
  191.6920  176.0530  137.3460 O   0  0  0  0  0  1  0  0  0  0  0  0
  189.4530  177.1020  140.0800 C   0  0  0  0  0  3  0  0  0  0  0  0
  191.2810  176.4440  138.6160 C   0  0  0  0  0  0  0  0  0  0  0  0
  192.1990  176.7480  139.5330 C   0  0  0  0  0  3  0  0  0  0  0  0
  190.4180  177.5560  141.0460 N   0  0  0  0  0  0  0  0  0  0  0  0
  188.0510  175.7730  137.2230 N   0  0  0  0  0  0  0  0  0  0  0  0
  188.8510  176.1180  137.9860 C   0  0  0  0  0  0  0  0  0  0  0  0
  191.6820  178.5130  143.9800 C   0  0  0  0  0  2  0  0  0  0  0  0
  190.5580  179.3000  144.2800 O   0  0  0  0  0  0  0  0  0  0  0  0
  190.9260  179.2280  142.9220 C   0  0  2  0  0  3  0  0  0  0  0  0
  183.0910  177.9000  140.7340 N   0  0  0  0  0  2  0  0  0  0  0  0
  181.6590  178.0730  140.9200 C   0  0  1  0  0  3  0  0  0  0  0  0
  179.7590  179.7760  141.5390 C   0  0  0  0  0  1  0  0  0  0  0  0
  181.1810  179.7520  140.4110 S   0  0  0  0  0  0  0  0  0  0  0  0
  180.9140  177.0490  140.0820 C   0  0  0  0  0  2  0  0  0  0  0  0
  181.8780  175.9950  139.5650 C   0  0  0  0  0  2  0  0  0  0  0  0
  181.2700  175.2580  138.3830 C   0  0  0  0  0  2  0  0  0  0  0  0
  185.5400  173.0050  137.5730 S   0  0  0  0  0  0  0  0  0  0  0  0
  182.9160  173.7600  137.2310 C   0  0  0  0  0  2  0  0  0  0  0  0
  184.3410  174.1040  137.4350 C   0  0  0  0  0  0  0  0  0  0  0  0
  184.5490  175.4930  137.5770 N   0  0  0  0  0  0  0  0  0  0  0  0
  182.2640  175.1430  137.2350 C   0  0  2  0  0  3  0  0  0  0  0  0
  183.4090  176.0820  137.4680 C   0  0  0  0  0  3  0  0  0  0  0  0
  1  6  1  0  0  0  0
  1 11  2  0  0  0  0
  2  6  2  0  0  0  0
  3 15  1  0  0  0  0
  4  2  2  0  0  0  0
  6  3  1  0  0  0  0
  7 16  1  0  0  0  0
  8 29  1  6  0  0  0
  8 10  1  0  0  0  0
  9 13  2  0  0  0  0
 10 11  1  1  0  0  0
 10 13  1  0  0  0  0
 11 15  1  0  0  0  0
 12  5  1  6  0  0  0
 12 14  1  0  0  0  0
 12  8  1  0  0  0  0
 13  7  1  0  0  0  0
 14  1  1  0  0  0  0
 15 16  2  0  0  0  0
 17 23  1  0  0  0  0
 18 20  2  0  0  0  0
 19 21  1  0  0  0  0
 20 23  1  0  0  0  0
 21 18  1  0  0  0  0
 21 22  2  0  0  0  0
 22 17  1  0  0  0  0
 23  4  1  0  0  0  0
 24 25  3  0  0  0  0
 25 18  1  0  0  0  0
 26 27  1  0  0  0  0
 28  4  1  6  0  0  0
 28 26  1  0  0  0  0
 28 27  1  0  0  0  0
 29 30  1  0  0  0  0
 30 33  1  6  0  0  0
 32 30  1  0  0  0  0
 32 31  1  0  0  0  0
 34 33  1  0  0  0  0
 35 34  1  0  0  0  0
 37 40  1  0  0  0  0
 37 38  1  0  0  0  0
 38 36  2  0  0  0  0
 38 39  1  0  0  0  0
 40 41  1  0  0  0  0
 40 35  1  1  0  0  0
 41 39  2  0  0  0  0
M  END
>  <MODEL>
3

>  <REMARK>
 VINA RESULT:      -6.7      2.901      7.167
  Name = 
  10 active torsions:
  status: ('A' for Active; 'I' for Inactive)
    1  A    between atoms: C_1  and  C_6
    2  A    between atoms: C_1  and  C_37
    3  A    between atoms: C_6  and  C_29
    4  A    between atoms: C_7  and  N_33
    5  A    between atoms: C_7  and  C_38
    6  A    between atoms: S_10  and  C_29
    7  A    between atoms: C_16  and  C_41
    8  A    between atoms: C_19  and  N_22
    9  A    between atoms: N_22  and  C_29
   10  A    between atoms: C_25  and  C_37
                            x       y       z     vdW  Elec       q    Type
                         _______ _______ _______ _____ _____    ______ ____

>  <TORSDO>
F 10

$$$$
=
 OpenBabel11062415553D

 41 46  0  0  1  0  0  0  0  0999 V2000
  189.3200  177.4030  139.3160 C   0  0  0  0  0  0  0  0  0  0  0  0
  189.8580  176.2020  137.2540 C   0  0  0  0  0  0  0  0  0  0  0  0
  187.8470  177.6300  137.4000 C   0  0  0  0  0  2  0  0  0  0  0  0
  190.5670  175.3020  136.6150 C   0  0  0  0  0  0  0  0  0  0  0  0
  190.3920  175.6280  142.5100 C   0  0  0  0  0  1  0  0  0  0  0  0
  189.1570  177.0960  137.8950 C   0  0  0  0  0  0  0  0  0  0  0  0
  185.5940  178.9900  140.2680 C   0  0  0  0  0  2  0  0  0  0  0  0
  188.7650  177.5600  142.1800 C   0  0  1  0  0  3  0  0  0  0  0  0
  185.9820  178.0690  142.4160 O   0  0  0  0  0  0  0  0  0  0  0  0
  187.9760  178.4230  141.1610 C   0  0  1  0  0  3  0  0  0  0  0  0
  188.2910  178.1170  139.7240 C   0  0  0  0  0  0  0  0  0  0  0  0
  189.4940  176.3580  141.5290 C   0  0  1  0  0  3  0  0  0  0  0  0
  186.4770  178.4220  141.3570 C   0  0  0  0  0  0  0  0  0  0  0  0
  190.2760  176.7740  140.2790 C   0  0  0  0  0  2  0  0  0  0  0  0
  187.3200  178.2520  138.6520 C   0  0  0  0  0  0  0  0  0  0  0  0
  186.0460  178.5640  138.8890 C   0  0  0  0  0  3  0  0  0  0  0  0
  192.6890  176.4050  135.7990 C   0  0  0  0  0  2  0  0  0  0  0  0
  194.1000  174.5060  137.4290 C   0  0  0  0  0  0  0  0  0  0  0  0
  196.1550  175.0120  136.1250 O   0  0  0  0  0  1  0  0  0  0  0  0
  192.7730  174.5700  137.5210 C   0  0  0  0  0  3  0  0  0  0  0  0
  194.8010  175.2290  136.3500 C   0  0  0  0  0  0  0  0  0  0  0  0
  194.1380  176.0790  135.5650 C   0  0  0  0  0  3  0  0  0  0  0  0
  192.0090  175.3820  136.6110 N   0  0  0  0  0  0  0  0  0  0  0  0
  195.4170  173.0040  139.0860 N   0  0  0  0  0  0  0  0  0  0  0  0
  194.8290  173.6740  138.3470 C   0  0  0  0  0  0  0  0  0  0  0  0
  189.3150  173.1730  136.5330 C   0  0  0  0  0  2  0  0  0  0  0  0
  190.5110  173.0690  135.8040 O   0  0  0  0  0  0  0  0  0  0  0  0
  189.8470  174.3110  135.7420 C   0  0  2  0  0  3  0  0  0  0  0  0
  189.7110  178.4100  142.8920 N   0  0  0  0  0  2  0  0  0  0  0  0
  189.9690  177.7910  144.1820 C   0  0  1  0  0  3  0  0  0  0  0  0
  191.6830  176.7580  145.8820 C   0  0  0  0  0  1  0  0  0  0  0  0
  191.6880  178.1160  144.6770 S   0  0  0  0  0  0  0  0  0  0  0  0
  189.0180  178.3660  145.2170 C   0  0  0  0  0  2  0  0  0  0  0  0
  188.1810  177.2580  145.8320 C   0  0  0  0  0  2  0  0  0  0  0  0
  188.0340  177.4770  147.3290 C   0  0  0  0  0  2  0  0  0  0  0  0
  184.0470  179.0050  144.9330 S   0  0  0  0  0  0  0  0  0  0  0  0
  185.6440  177.4790  146.5740 C   0  0  0  0  0  2  0  0  0  0  0  0
  185.1100  178.7930  146.1540 C   0  0  0  0  0  0  0  0  0  0  0  0
  185.6790  179.8660  146.8750 N   0  0  0  0  0  0  0  0  0  0  0  0
  186.6110  177.8830  147.6880 C   0  0  2  0  0  3  0  0  0  0  0  0
  186.5110  179.3780  147.7280 C   0  0  0  0  0  3  0  0  0  0  0  0
  1 11  2  0  0  0  0
  1 14  1  0  0  0  0
  2  6  2  0  0  0  0
  3  6  1  0  0  0  0
  3 15  1  0  0  0  0
  4  2  2  0  0  0  0
  6  1  1  0  0  0  0
  7 13  1  0  0  0  0
  8 29  1  6  0  0  0
 10 11  1  6  0  0  0
 10 13  1  0  0  0  0
 10  8  1  0  0  0  0
 12  8  1  0  0  0  0
 12  5  1  1  0  0  0
 13  9  2  0  0  0  0
 14 12  1  0  0  0  0
 15 16  2  0  0  0  0
 15 11  1  0  0  0  0
 16  7  1  0  0  0  0
 17 23  1  0  0  0  0
 18 20  2  0  0  0  0
 18 25  1  0  0  0  0
 19 21  1  0  0  0  0
 21 18  1  0  0  0  0
 22 17  1  0  0  0  0
 22 21  2  0  0  0  0
 23  4  1  0  0  0  0
 23 20  1  0  0  0  0
 25 24  3  0  0  0  0
 27 26  1  0  0  0  0
 28 27  1  0  0  0  0
 28 26  1  0  0  0  0
 28  4  1  1  0  0  0
 29 30  1  0  0  0  0
 30 32  1  0  0  0  0
 30 33  1  1  0  0  0
 32 31  1  0  0  0  0
 33 34  1  0  0  0  0
 34 35  1  0  0  0  0
 36 38  2  0  0  0  0
 37 40  1  0  0  0  0
 38 37  1  0  0  0  0
 38 39  1  0  0  0  0
 39 41  2  0  0  0  0
 40 35  1  6  0  0  0
 40 41  1  0  0  0  0
M  END
>  <MODEL>
4

>  <REMARK>
 VINA RESULT:      -6.7      3.282      7.121
  Name = 
  10 active torsions:
  status: ('A' for Active; 'I' for Inactive)
    1  A    between atoms: C_1  and  C_6
    2  A    between atoms: C_1  and  C_37
    3  A    between atoms: C_6  and  C_29
    4  A    between atoms: C_7  and  N_33
    5  A    between atoms: C_7  and  C_38
    6  A    between atoms: S_10  and  C_29
    7  A    between atoms: C_16  and  C_41
    8  A    between atoms: C_19  and  N_22
    9  A    between atoms: N_22  and  C_29
   10  A    between atoms: C_25  and  C_37
                            x       y       z     vdW  Elec       q    Type
                         _______ _______ _______ _____ _____    ______ ____

>  <TORSDO>
F 10

$$$$
=
 OpenBabel11062415553D

 41 46  0  0  1  0  0  0  0  0999 V2000
  185.8750  175.4350  137.3370 C   0  0  0  0  0  0  0  0  0  0  0  0
  183.4370  175.3230  137.4980 C   0  0  0  0  0  0  0  0  0  0  0  0
  184.7960  173.2620  137.3890 C   0  0  0  0  0  2  0  0  0  0  0  0
  182.2670  175.9150  137.4550 C   0  0  0  0  0  0  0  0  0  0  0  0
  187.2020  178.4580  135.4380 C   0  0  0  0  0  1  0  0  0  0  0  0
  184.6040  174.7420  137.5380 C   0  0  0  0  0  0  0  0  0  0  0  0
  188.3460  172.3260  136.0980 C   0  0  0  0  0  2  0  0  0  0  0  0
  188.3760  176.2950  136.0940 C   0  0  1  0  0  3  0  0  0  0  0  0
  189.4640  173.9930  134.8380 O   0  0  0  0  0  0  0  0  0  0  0  0
  188.2180  174.8650  136.6720 C   0  0  1  0  0  3  0  0  0  0  0  0
  186.8280  174.5450  137.1470 C   0  0  0  0  0  0  0  0  0  0  0  0
  187.0230  177.0060  135.8420 C   0  0  1  0  0  3  0  0  0  0  0  0
  188.7050  173.7580  135.7650 C   0  0  0  0  0  0  0  0  0  0  0  0
  186.0830  176.8880  137.0460 C   0  0  0  0  0  2  0  0  0  0  0  0
  186.2600  173.2090  137.1000 C   0  0  0  0  0  0  0  0  0  0  0  0
  186.9050  172.1880  136.5370 C   0  0  0  0  0  3  0  0  0  0  0  0
  182.0670  176.8830  139.7810 C   0  0  0  0  0  2  0  0  0  0  0  0
  181.3850  179.3650  138.5040 C   0  0  0  0  0  0  0  0  0  0  0  0
  180.4510  180.1480  140.6700 O   0  0  0  0  0  1  0  0  0  0  0  0
  181.7970  178.3470  137.7500 C   0  0  0  0  0  3  0  0  0  0  0  0
  181.0660  179.1460  139.9280 C   0  0  0  0  0  0  0  0  0  0  0  0
  181.3430  177.9800  140.5110 C   0  0  0  0  0  3  0  0  0  0  0  0
  181.9900  177.0390  138.3180 N   0  0  0  0  0  0  0  0  0  0  0  0
  181.0350  181.6930  137.4130 N   0  0  0  0  0  0  0  0  0  0  0  0
  181.1910  180.6540  137.8990 C   0  0  0  0  0  0  0  0  0  0  0  0
  180.3240  174.3880  137.4580 C   0  0  0  0  0  2  0  0  0  0  0  0
  181.3440  173.8850  136.6330 O   0  0  0  0  0  0  0  0  0  0  0  0
  181.1750  175.2840  136.6360 C   0  0  2  0  0  3  0  0  0  0  0  0
  189.2110  177.0820  136.9930 N   0  0  0  0  0  2  0  0  0  0  0  0
  190.0260  176.1510  137.7580 C   0  0  1  0  0  3  0  0  0  0  0  0
  191.9630  174.4110  137.4190 C   0  0  0  0  0  1  0  0  0  0  0  0
  191.7340  176.1890  137.1340 S   0  0  0  0  0  0  0  0  0  0  0  0
  190.0040  176.5490  139.2230 C   0  0  0  0  0  2  0  0  0  0  0  0
  189.3460  177.9080  139.3860 C   0  0  0  0  0  2  0  0  0  0  0  0
  188.4800  177.9290  140.6350 C   0  0  0  0  0  2  0  0  0  0  0  0
  187.9520  177.5690  145.4890 S   0  0  0  0  0  0  0  0  0  0  0  0
  188.0940  176.8140  142.8470 C   0  0  0  0  0  2  0  0  0  0  0  0
  188.6620  177.5150  144.0200 C   0  0  0  0  0  0  0  0  0  0  0  0
  189.8560  178.2040  143.7160 N   0  0  0  0  0  0  0  0  0  0  0  0
  189.1270  177.1400  141.7660 C   0  0  2  0  0  3  0  0  0  0  0  0
  190.1270  178.0060  142.4720 C   0  0  0  0  0  3  0  0  0  0  0  0
  1  6  1  0  0  0  0
  2  6  2  0  0  0  0
  3  6  1  0  0  0  0
  4  2  2  0  0  0  0
  4 23  1  0  0  0  0
  7 16  1  0  0  0  0
  8 10  1  0  0  0  0
  8 29  1  1  0  0  0
  9 13  2  0  0  0  0
 10 13  1  6  0  0  0
 10 11  1  0  0  0  0
 11  1  2  0  0  0  0
 12  5  1  1  0  0  0
 12  8  1  0  0  0  0
 12 14  1  0  0  0  0
 13  7  1  0  0  0  0
 14  1  1  0  0  0  0
 15 11  1  0  0  0  0
 15  3  1  0  0  0  0
 16 15  2  0  0  0  0
 17 22  1  0  0  0  0
 18 21  1  0  0  0  0
 20 23  1  0  0  0  0
 20 18  2  0  0  0  0
 21 22  2  0  0  0  0
 21 19  1  0  0  0  0
 23 17  1  0  0  0  0
 24 25  3  0  0  0  0
 25 18  1  0  0  0  0
 27 28  1  0  0  0  0
 27 26  1  0  0  0  0
 28  4  1  1  0  0  0
 28 26  1  0  0  0  0
 29 30  1  0  0  0  0
 30 33  1  1  0  0  0
 32 31  1  0  0  0  0
 32 30  1  0  0  0  0
 33 34  1  0  0  0  0
 34 35  1  0  0  0  0
 37 38  1  0  0  0  0
 38 36  2  0  0  0  0
 39 38  1  0  0  0  0
 40 35  1  6  0  0  0
 40 41  1  0  0  0  0
 40 37  1  0  0  0  0
 41 39  2  0  0  0  0
M  END
>  <MODEL>
5

>  <REMARK>
 VINA RESULT:      -6.6      3.007      7.237
  Name = 
  10 active torsions:
  status: ('A' for Active; 'I' for Inactive)
    1  A    between atoms: C_1  and  C_6
    2  A    between atoms: C_1  and  C_37
    3  A    between atoms: C_6  and  C_29
    4  A    between atoms: C_7  and  N_33
    5  A    between atoms: C_7  and  C_38
    6  A    between atoms: S_10  and  C_29
    7  A    between atoms: C_16  and  C_41
    8  A    between atoms: C_19  and  N_22
    9  A    between atoms: N_22  and  C_29
   10  A    between atoms: C_25  and  C_37
                            x       y       z     vdW  Elec       q    Type
                         _______ _______ _______ _____ _____    ______ ____

>  <TORSDO>
F 10

$$$$
=
 OpenBabel11062415553D

 41 46  0  0  1  0  0  0  0  0999 V2000
  187.1120  178.3810  140.5070 C   0  0  0  0  0  0  0  0  0  0  0  0
  188.6100  177.3330  142.1330 C   0  0  0  0  0  0  0  0  0  0  0  0
  189.3610  177.7780  139.8210 C   0  0  0  0  0  2  0  0  0  0  0  0
  188.8010  176.7630  143.2990 C   0  0  0  0  0  0  0  0  0  0  0  0
  183.4270  177.5400  140.9740 C   0  0  0  0  0  1  0  0  0  0  0  0
  188.4120  177.9000  140.9760 C   0  0  0  0  0  0  0  0  0  0  0  0
  187.6260  178.3170  136.3790 C   0  0  0  0  0  2  0  0  0  0  0  0
  184.6320  178.5570  138.9740 C   0  0  1  0  0  3  0  0  0  0  0  0
  185.3030  177.8560  136.3060 O   0  0  0  0  0  0  0  0  0  0  0  0
  185.9990  178.9020  138.3290 C   0  0  1  0  0  3  0  0  0  0  0  0
  187.1820  178.6250  139.2140 C   0  0  0  0  0  0  0  0  0  0  0  0
  184.7600  177.7230  140.2720 C   0  0  1  0  0  3  0  0  0  0  0  0
  186.2340  178.2840  136.9710 C   0  0  0  0  0  0  0  0  0  0  0  0
  185.8030  178.3110  141.2270 C   0  0  0  0  0  2  0  0  0  0  0  0
  188.4830  178.2320  138.7020 C   0  0  0  0  0  0  0  0  0  0  0  0
  188.6890  177.9940  137.4070 C   0  0  0  0  0  3  0  0  0  0  0  0
  189.4570  177.9210  145.4470 C   0  0  0  0  0  2  0  0  0  0  0  0
  186.6450  178.2910  145.9050 C   0  0  0  0  0  0  0  0  0  0  0  0
  187.1590  178.7290  148.2980 O   0  0  0  0  0  1  0  0  0  0  0  0
  187.0460  177.8060  144.7310 C   0  0  0  0  0  3  0  0  0  0  0  0
  187.6060  178.4140  147.0190 C   0  0  0  0  0  0  0  0  0  0  0  0
  188.9060  178.2000  146.8170 C   0  0  0  0  0  3  0  0  0  0  0  0
  188.4220  177.4460  144.5130 N   0  0  0  0  0  0  0  0  0  0  0  0
  184.1440  178.8970  146.2420 N   0  0  0  0  0  0  0  0  0  0  0  0
  185.2600  178.6270  146.0920 C   0  0  0  0  0  0  0  0  0  0  0  0
  191.0390  175.7390  143.5310 C   0  0  0  0  0  2  0  0  0  0  0  0
  190.4930  175.4490  142.2700 O   0  0  0  0  0  0  0  0  0  0  0  0
  189.5880  175.4820  143.3490 C   0  0  2  0  0  3  0  0  0  0  0  0
  183.8990  179.7920  139.2260 N   0  0  0  0  0  2  0  0  0  0  0  0
  182.5150  179.5640  138.8420 C   0  0  1  0  0  3  0  0  0  0  0  0
  180.3260  180.7440  139.6860 C   0  0  0  0  0  1  0  0  0  0  0  0
  181.6920  181.1620  138.5660 S   0  0  0  0  0  0  0  0  0  0  0  0
  182.4750  178.7380  137.5680 C   0  0  0  0  0  2  0  0  0  0  0  0
  181.4480  177.6260  137.6980 C   0  0  0  0  0  2  0  0  0  0  0  0
  181.8600  176.4280  136.8590 C   0  0  0  0  0  2  0  0  0  0  0  0
  185.3750  173.0800  137.4940 S   0  0  0  0  0  0  0  0  0  0  0  0
  183.5530  175.0530  138.0940 C   0  0  0  0  0  2  0  0  0  0  0  0
  183.8860  173.7500  137.4780 C   0  0  0  0  0  0  0  0  0  0  0  0
  182.7900  173.1740  136.7990 N   0  0  0  0  0  0  0  0  0  0  0  0
  182.0750  175.1960  137.7280 C   0  0  2  0  0  3  0  0  0  0  0  0
  181.7800  173.9620  136.9290 C   0  0  0  0  0  3  0  0  0  0  0  0
  1  6  1  0  0  0  0
  1 14  1  0  0  0  0
  2  4  2  0  0  0  0
  3  6  1  0  0  0  0
  4 23  1  0  0  0  0
  6  2  2  0  0  0  0
  7 13  1  0  0  0  0
  7 16  1  0  0  0  0
  8 29  1  1  0  0  0
  8 12  1  0  0  0  0
  9 13  2  0  0  0  0
 10 13  1  6  0  0  0
 10  8  1  0  0  0  0
 10 11  1  0  0  0  0
 11  1  2  0  0  0  0
 12  5  1  1  0  0  0
 12 14  1  0  0  0  0
 15 11  1  0  0  0  0
 15  3  1  0  0  0  0
 16 15  2  0  0  0  0
 17 22  1  0  0  0  0
 18 25  1  0  0  0  0
 18 21  1  0  0  0  0
 20 18  2  0  0  0  0
 21 19  1  0  0  0  0
 22 21  2  0  0  0  0
 23 20  1  0  0  0  0
 23 17  1  0  0  0  0
 25 24  3  0  0  0  0
 27 28  1  0  0  0  0
 27 26  1  0  0  0  0
 28  4  1  6  0  0  0
 28 26  1  0  0  0  0
 30 33  1  6  0  0  0
 30 29  1  0  0  0  0
 32 30  1  0  0  0  0
 32 31  1  0  0  0  0
 33 34  1  0  0  0  0
 35 34  1  0  0  0  0
 38 36  2  0  0  0  0
 38 37  1  0  0  0  0
 39 41  2  0  0  0  0
 39 38  1  0  0  0  0
 40 35  1  6  0  0  0
 40 37  1  0  0  0  0
 41 40  1  0  0  0  0
M  END
>  <MODEL>
6

>  <REMARK>
 VINA RESULT:      -6.6      2.969      8.913
  Name = 
  10 active torsions:
  status: ('A' for Active; 'I' for Inactive)
    1  A    between atoms: C_1  and  C_6
    2  A    between atoms: C_1  and  C_37
    3  A    between atoms: C_6  and  C_29
    4  A    between atoms: C_7  and  N_33
    5  A    between atoms: C_7  and  C_38
    6  A    between atoms: S_10  and  C_29
    7  A    between atoms: C_16  and  C_41
    8  A    between atoms: C_19  and  N_22
    9  A    between atoms: N_22  and  C_29
   10  A    between atoms: C_25  and  C_37
                            x       y       z     vdW  Elec       q    Type
                         _______ _______ _______ _____ _____    ______ ____

>  <TORSDO>
F 10

$$$$
=
 OpenBabel11062415553D

 41 46  0  0  1  0  0  0  0  0999 V2000
  182.9900  178.3550  141.8620 C   0  0  0  0  0  0  0  0  0  0  0  0
  184.5750  178.4520  143.7240 C   0  0  0  0  0  0  0  0  0  0  0  0
  182.1400  178.3520  144.1360 C   0  0  0  0  0  2  0  0  0  0  0  0
  185.7940  178.6370  144.1690 C   0  0  0  0  0  0  0  0  0  0  0  0
  184.1170  180.1940  138.7230 C   0  0  0  0  0  1  0  0  0  0  0  0
  183.3640  178.2700  143.2740 C   0  0  0  0  0  0  0  0  0  0  0  0
  178.9310  179.2290  142.1170 C   0  0  0  0  0  2  0  0  0  0  0  0
  181.8060  179.3510  139.3840 C   0  0  1  0  0  3  0  0  0  0  0  0
  179.2710  180.4120  140.0920 O   0  0  0  0  0  0  0  0  0  0  0  0
  180.9250  178.7500  140.5090 C   0  0  1  0  0  3  0  0  0  0  0  0
  181.6770  178.4160  141.7660 C   0  0  0  0  0  0  0  0  0  0  0  0
  183.2170  179.7670  139.8680 C   0  0  1  0  0  3  0  0  0  0  0  0
  179.7010  179.5640  140.8580 C   0  0  0  0  0  0  0  0  0  0  0  0
  183.8810  178.6670  140.7020 C   0  0  0  0  0  2  0  0  0  0  0  0
  181.0830  178.4810  143.0900 C   0  0  0  0  0  0  0  0  0  0  0  0
  179.8470  178.9410  143.2850 C   0  0  0  0  0  3  0  0  0  0  0  0
  187.4570  176.7580  144.4660 C   0  0  0  0  0  2  0  0  0  0  0  0
  188.4020  177.4050  141.8310 C   0  0  0  0  0  0  0  0  0  0  0  0
  190.4830  176.1430  142.3380 O   0  0  0  0  0  1  0  0  0  0  0  0
  187.3030  178.0060  142.2850 C   0  0  0  0  0  3  0  0  0  0  0  0
  189.2380  176.6060  142.7480 C   0  0  0  0  0  0  0  0  0  0  0  0
  188.8200  176.3410  143.9860 C   0  0  0  0  0  3  0  0  0  0  0  0
  186.8850  177.8440  143.6530 N   0  0  0  0  0  0  0  0  0  0  0  0
  189.1140  177.7590  139.3610 N   0  0  0  0  0  0  0  0  0  0  0  0
  188.7970  177.6010  140.4630 C   0  0  0  0  0  0  0  0  0  0  0  0
  186.0810  178.7860  146.6190 C   0  0  0  0  0  2  0  0  0  0  0  0
  184.8970  179.4290  146.2220 O   0  0  0  0  0  0  0  0  0  0  0  0
  185.9960  179.5490  145.3480 C   0  0  2  0  0  3  0  0  0  0  0  0
  181.9010  178.3920  138.2890 N   0  0  0  0  0  2  0  0  0  0  0  0
  180.8030  177.4490  138.4390 C   0  0  1  0  0  3  0  0  0  0  0  0
  181.0110  177.8520  135.8530 C   0  0  0  0  0  1  0  0  0  0  0  0
  179.6560  177.6280  137.0400 S   0  0  0  0  0  0  0  0  0  0  0  0
  181.3560  176.0350  138.4740 C   0  0  0  0  0  2  0  0  0  0  0  0
  182.8660  176.0670  138.6390 C   0  0  0  0  0  2  0  0  0  0  0  0
  183.5180  175.0430  137.7250 C   0  0  0  0  0  2  0  0  0  0  0  0
  188.3210  175.2490  136.8020 S   0  0  0  0  0  0  0  0  0  0  0  0
  185.6320  174.8310  136.3960 C   0  0  0  0  0  2  0  0  0  0  0  0
  186.7510  175.6930  136.8370 C   0  0  0  0  0  0  0  0  0  0  0  0
  186.3100  176.9240  137.3690 N   0  0  0  0  0  0  0  0  0  0  0  0
  184.4240  175.7160  136.7020 C   0  0  2  0  0  3  0  0  0  0  0  0
  185.0240  176.9520  137.3010 C   0  0  0  0  0  3  0  0  0  0  0  0
  1  6  1  0  0  0  0
  2  4  2  0  0  0  0
  6  2  2  0  0  0  0
  6  3  1  0  0  0  0
  7 16  1  0  0  0  0
  8 29  1  6  0  0  0
  8 12  1  0  0  0  0
  8 10  1  0  0  0  0
  9 13  2  0  0  0  0
 10 13  1  1  0  0  0
 10 11  1  0  0  0  0
 11  1  2  0  0  0  0
 11 15  1  0  0  0  0
 12  5  1  6  0  0  0
 12 14  1  0  0  0  0
 13  7  1  0  0  0  0
 14  1  1  0  0  0  0
 15 16  2  0  0  0  0
 15  3  1  0  0  0  0
 18 20  2  0  0  0  0
 18 21  1  0  0  0  0
 19 21  1  0  0  0  0
 20 23  1  0  0  0  0
 21 22  2  0  0  0  0
 22 17  1  0  0  0  0
 23  4  1  0  0  0  0
 23 17  1  0  0  0  0
 24 25  3  0  0  0  0
 25 18  1  0  0  0  0
 27 26  1  0  0  0  0
 28  4  1  6  0  0  0
 28 27  1  0  0  0  0
 28 26  1  0  0  0  0
 29 30  1  0  0  0  0
 30 33  1  6  0  0  0
 31 32  1  0  0  0  0
 32 30  1  0  0  0  0
 33 34  1  0  0  0  0
 35 34  1  0  0  0  0
 36 38  2  0  0  0  0
 37 40  1  0  0  0  0
 37 38  1  0  0  0  0
 38 39  1  0  0  0  0
 40 41  1  0  0  0  0
 40 35  1  1  0  0  0
 41 39  2  0  0  0  0
M  END
>  <MODEL>
7

>  <REMARK>
 VINA RESULT:      -6.6      2.921      7.532
  Name = 
  10 active torsions:
  status: ('A' for Active; 'I' for Inactive)
    1  A    between atoms: C_1  and  C_6
    2  A    between atoms: C_1  and  C_37
    3  A    between atoms: C_6  and  C_29
    4  A    between atoms: C_7  and  N_33
    5  A    between atoms: C_7  and  C_38
    6  A    between atoms: S_10  and  C_29
    7  A    between atoms: C_16  and  C_41
    8  A    between atoms: C_19  and  N_22
    9  A    between atoms: N_22  and  C_29
   10  A    between atoms: C_25  and  C_37
                            x       y       z     vdW  Elec       q    Type
                         _______ _______ _______ _____ _____    ______ ____

>  <TORSDO>
F 10

$$$$
=
 OpenBabel11062415553D

 41 46  0  0  1  0  0  0  0  0999 V2000
  181.8840  175.4980  138.3500 C   0  0  0  0  0  0  0  0  0  0  0  0
  181.6320  177.0530  140.2220 C   0  0  0  0  0  0  0  0  0  0  0  0
  180.1030  175.1300  139.9590 C   0  0  0  0  0  2  0  0  0  0  0  0
  181.9420  178.1850  140.8090 C   0  0  0  0  0  0  0  0  0  0  0  0
  183.2160  177.0730  135.1490 C   0  0  0  0  0  1  0  0  0  0  0  0
  181.3290  175.9300  139.6330 C   0  0  0  0  0  0  0  0  0  0  0  0
  178.9600  172.8580  137.0120 C   0  0  0  0  0  2  0  0  0  0  0  0
  182.0590  174.8330  135.5110 C   0  0  1  0  0  3  0  0  0  0  0  0
  179.6060  173.5680  134.8460 O   0  0  0  0  0  0  0  0  0  0  0  0
  181.2810  173.9270  136.5000 C   0  0  1  0  0  3  0  0  0  0  0  0
  181.1740  174.4870  137.8910 C   0  0  0  0  0  0  0  0  0  0  0  0
  182.3130  176.2590  136.0580 C   0  0  1  0  0  3  0  0  0  0  0  0
  179.9120  173.4990  136.0260 C   0  0  0  0  0  0  0  0  0  0  0  0
  182.8600  176.2330  137.4880 C   0  0  0  0  0  2  0  0  0  0  0  0
  180.0420  174.2350  138.7650 C   0  0  0  0  0  0  0  0  0  0  0  0
  178.9670  173.5640  138.3500 C   0  0  0  0  0  3  0  0  0  0  0  0
  184.1810  179.0870  140.0620 C   0  0  0  0  0  2  0  0  0  0  0  0
  185.1060  178.5130  142.7210 C   0  0  0  0  0  0  0  0  0  0  0  0
  187.4380  178.6550  141.8700 O   0  0  0  0  0  1  0  0  0  0  0  0
  183.8080  178.3850  142.4510 C   0  0  0  0  0  3  0  0  0  0  0  0
  186.0710  178.7190  141.6230 C   0  0  0  0  0  0  0  0  0  0  0  0
  185.6430  178.9420  140.3800 C   0  0  0  0  0  3  0  0  0  0  0  0
  183.3200  178.4980  141.1020 N   0  0  0  0  0  0  0  0  0  0  0  0
  185.9250  178.2750  145.1720 N   0  0  0  0  0  0  0  0  0  0  0  0
  185.5590  178.3810  144.0790 C   0  0  0  0  0  0  0  0  0  0  0  0
  180.2600  178.5050  142.5910 C   0  0  0  0  0  2  0  0  0  0  0  0
  179.6310  178.3040  141.3510 O   0  0  0  0  0  0  0  0  0  0  0  0
  180.8270  179.0490  141.3310 C   0  0  2  0  0  3  0  0  0  0  0  0
  183.3170  174.1850  135.1600 N   0  0  0  0  0  2  0  0  0  0  0  0
  183.3870  172.9370  135.9040 C   0  0  1  0  0  3  0  0  0  0  0  0
  183.5160  170.3200  136.0810 C   0  0  0  0  0  1  0  0  0  0  0  0
  183.4220  171.5400  134.7390 S   0  0  0  0  0  0  0  0  0  0  0  0
  184.6440  172.9280  136.7560 C   0  0  0  0  0  2  0  0  0  0  0  0
  185.7000  173.8290  136.1390 C   0  0  0  0  0  2  0  0  0  0  0  0
  186.2030  174.8310  137.1650 C   0  0  0  0  0  2  0  0  0  0  0  0
  189.1510  178.4160  138.7200 S   0  0  0  0  0  0  0  0  0  0  0  0
  188.3400  176.1040  137.4680 C   0  0  0  0  0  2  0  0  0  0  0  0
  188.1870  177.5530  137.7250 C   0  0  0  0  0  0  0  0  0  0  0  0
  187.0620  178.1040  137.0740 N   0  0  0  0  0  0  0  0  0  0  0  0
  187.1610  175.8320  136.5340 C   0  0  2  0  0  3  0  0  0  0  0  0
  186.4840  177.1640  136.4100 C   0  0  0  0  0  3  0  0  0  0  0  0
  1  6  1  0  0  0  0
  2  4  2  0  0  0  0
  4 23  1  0  0  0  0
  6  3  1  0  0  0  0
  6  2  2  0  0  0  0
  7 16  1  0  0  0  0
  8 29  1  1  0  0  0
  8 12  1  0  0  0  0
  8 10  1  0  0  0  0
  9 13  2  0  0  0  0
 10 13  1  6  0  0  0
 10 11  1  0  0  0  0
 11  1  2  0  0  0  0
 11 15  1  0  0  0  0
 12  5  1  6  0  0  0
 12 14  1  0  0  0  0
 13  7  1  0  0  0  0
 14  1  1  0  0  0  0
 15  3  1  0  0  0  0
 16 15  2  0  0  0  0
 17 22  1  0  0  0  0
 17 23  1  0  0  0  0
 18 25  1  0  0  0  0
 20 18  2  0  0  0  0
 21 19  1  0  0  0  0
 21 18  1  0  0  0  0
 22 21  2  0  0  0  0
 23 20  1  0  0  0  0
 25 24  3  0  0  0  0
 27 26  1  0  0  0  0
 28  4  1  6  0  0  0
 28 27  1  0  0  0  0
 28 26  1  0  0  0  0
 29 30  1  0  0  0  0
 30 33  1  6  0  0  0
 32 30  1  0  0  0  0
 32 31  1  0  0  0  0
 34 33  1  0  0  0  0
 34 35  1  0  0  0  0
 37 38  1  0  0  0  0
 38 36  2  0  0  0  0
 39 38  1  0  0  0  0
 40 35  1  1  0  0  0
 40 37  1  0  0  0  0
 41 40  1  0  0  0  0
 41 39  2  0  0  0  0
M  END
>  <MODEL>
8

>  <REMARK>
 VINA RESULT:      -6.6      3.592      8.320
  Name = 
  10 active torsions:
  status: ('A' for Active; 'I' for Inactive)
    1  A    between atoms: C_1  and  C_6
    2  A    between atoms: C_1  and  C_37
    3  A    between atoms: C_6  and  C_29
    4  A    between atoms: C_7  and  N_33
    5  A    between atoms: C_7  and  C_38
    6  A    between atoms: S_10  and  C_29
    7  A    between atoms: C_16  and  C_41
    8  A    between atoms: C_19  and  N_22
    9  A    between atoms: N_22  and  C_29
   10  A    between atoms: C_25  and  C_37
                            x       y       z     vdW  Elec       q    Type
                         _______ _______ _______ _____ _____    ______ ____

>  <TORSDO>
F 10

$$$$
=
 OpenBabel11062415553D

 41 46  0  0  1  0  0  0  0  0999 V2000
  189.2510  176.0400  138.4990 C   0  0  0  0  0  0  0  0  0  0  0  0
  187.8340  175.9410  136.5070 C   0  0  0  0  0  0  0  0  0  0  0  0
  190.2710  175.5610  136.3490 C   0  0  0  0  0  2  0  0  0  0  0  0
  186.6780  176.1480  135.9240 C   0  0  0  0  0  0  0  0  0  0  0  0
  188.0740  178.4950  141.1620 C   0  0  0  0  0  1  0  0  0  0  0  0
  188.9810  175.7380  137.0930 C   0  0  0  0  0  0  0  0  0  0  0  0
  193.3850  176.5030  138.4850 C   0  0  0  0  0  2  0  0  0  0  0  0
  190.3320  177.3530  140.8740 C   0  0  1  0  0  3  0  0  0  0  0  0
  193.0090  178.0500  140.2390 O   0  0  0  0  0  0  0  0  0  0  0  0
  191.2340  176.4890  139.9550 C   0  0  1  0  0  3  0  0  0  0  0  0
  190.5520  176.0030  138.7060 C   0  0  0  0  0  0  0  0  0  0  0  0
  189.0130  177.7960  140.1960 C   0  0  1  0  0  3  0  0  0  0  0  0
  192.5570  177.1210  139.5900 C   0  0  0  0  0  0  0  0  0  0  0  0
  188.3080  176.6270  139.5000 C   0  0  0  0  0  2  0  0  0  0  0  0
  191.2510  175.7830  137.4530 C   0  0  0  0  0  0  0  0  0  0  0  0
  192.5390  176.0930  137.3000 C   0  0  0  0  0  3  0  0  0  0  0  0
  185.0550  174.2140  136.0220 C   0  0  0  0  0  2  0  0  0  0  0  0
  183.5910  175.7630  137.9490 C   0  0  0  0  0  0  0  0  0  0  0  0
  181.6250  174.2980  137.5360 O   0  0  0  0  0  1  0  0  0  0  0  0
  184.7810  176.2020  137.5430 C   0  0  0  0  0  3  0  0  0  0  0  0
  182.9440  174.6340  137.2520 C   0  0  0  0  0  0  0  0  0  0  0  0
  183.6080  173.9420  136.3260 C   0  0  0  0  0  3  0  0  0  0  0  0
  185.4760  175.5550  136.4610 N   0  0  0  0  0  0  0  0  0  0  0  0
  182.3790  176.9880  139.8890 N   0  0  0  0  0  0  0  0  0  0  0  0
  182.9190  176.4420  139.0230 C   0  0  0  0  0  0  0  0  0  0  0  0
  186.9930  178.2910  134.7330 C   0  0  0  0  0  2  0  0  0  0  0  0
  185.6660  177.8480  134.6060 O   0  0  0  0  0  0  0  0  0  0  0  0
  186.6620  176.8510  134.5940 C   0  0  2  0  0  3  0  0  0  0  0  0
  190.0570  176.6140  142.1010 N   0  0  0  0  0  2  0  0  0  0  0  0
  190.8920  177.1820  143.1480 C   0  0  1  0  0  3  0  0  0  0  0  0
  192.0560  179.1840  144.3860 C   0  0  0  0  0  1  0  0  0  0  0  0
  190.8910  178.9950  143.0060 S   0  0  0  0  0  0  0  0  0  0  0  0
  190.3470  176.7720  144.5050 C   0  0  0  0  0  2  0  0  0  0  0  0
  188.8560  177.0530  144.5760 C   0  0  0  0  0  2  0  0  0  0  0  0
  188.5130  177.7540  145.8810 C   0  0  0  0  0  2  0  0  0  0  0  0
  184.0940  179.2390  144.3880 S   0  0  0  0  0  0  0  0  0  0  0  0
  186.1600  177.5440  145.0470 C   0  0  0  0  0  2  0  0  0  0  0  0
  185.2640  178.6750  145.3770 C   0  0  0  0  0  0  0  0  0  0  0  0
  185.5790  179.2720  146.6170 N   0  0  0  0  0  0  0  0  0  0  0  0
  187.0650  177.5010  146.2780 C   0  0  2  0  0  3  0  0  0  0  0  0
  186.5730  178.6330  147.1280 C   0  0  0  0  0  3  0  0  0  0  0  0
  1 11  2  0  0  0  0
  1 14  1  0  0  0  0
  2  6  2  0  0  0  0
  3  6  1  0  0  0  0
  3 15  1  0  0  0  0
  4 23  1  0  0  0  0
  4  2  2  0  0  0  0
  6  1  1  0  0  0  0
  7 13  1  0  0  0  0
  8 29  1  1  0  0  0
 10 11  1  6  0  0  0
 10  8  1  0  0  0  0
 12  8  1  0  0  0  0
 12  5  1  1  0  0  0
 13 10  1  0  0  0  0
 13  9  2  0  0  0  0
 14 12  1  0  0  0  0
 15 11  1  0  0  0  0
 16 15  2  0  0  0  0
 16  7  1  0  0  0  0
 17 22  1  0  0  0  0
 17 23  1  0  0  0  0
 18 25  1  0  0  0  0
 20 18  2  0  0  0  0
 21 19  1  0  0  0  0
 21 18  1  0  0  0  0
 22 21  2  0  0  0  0
 23 20  1  0  0  0  0
 25 24  3  0  0  0  0
 27 26  1  0  0  0  0
 28 27  1  0  0  0  0
 28 26  1  0  0  0  0
 28  4  1  1  0  0  0
 29 30  1  0  0  0  0
 30 33  1  1  0  0  0
 32 30  1  0  0  0  0
 32 31  1  0  0  0  0
 33 34  1  0  0  0  0
 34 35  1  0  0  0  0
 36 38  2  0  0  0  0
 37 38  1  0  0  0  0
 37 40  1  0  0  0  0
 38 39  1  0  0  0  0
 39 41  2  0  0  0  0
 40 35  1  6  0  0  0
 40 41  1  0  0  0  0
M  END
>  <MODEL>
9

>  <REMARK>
 VINA RESULT:      -6.4      2.842      6.808
  Name = 
  10 active torsions:
  status: ('A' for Active; 'I' for Inactive)
    1  A    between atoms: C_1  and  C_6
    2  A    between atoms: C_1  and  C_37
    3  A    between atoms: C_6  and  C_29
    4  A    between atoms: C_7  and  N_33
    5  A    between atoms: C_7  and  C_38
    6  A    between atoms: S_10  and  C_29
    7  A    between atoms: C_16  and  C_41
    8  A    between atoms: C_19  and  N_22
    9  A    between atoms: N_22  and  C_29
   10  A    between atoms: C_25  and  C_37
                            x       y       z     vdW  Elec       q    Type
                         _______ _______ _______ _____ _____    ______ ____

>  <TORSDO>
F 10

$$$$
