=
 OpenBabel11062417013D

 26 30  0  0  1  0  0  0  0  0999 V2000
  190.7400  177.3020  139.1250 C   0  0  2  0  0  3  0  0  0  0  0  0
  192.4640  177.4270  140.7260 O   0  0  0  0  0  0  0  0  0  0  0  0
  188.5280  177.0320  140.1620 O   0  0  0  0  0  0  0  0  0  0  0  0
  191.0550  175.9690  138.5150 C   0  0  0  0  0  2  0  0  0  0  0  0
  191.2590  177.3860  140.5350 C   0  0  0  0  0  0  0  0  0  0  0  0
  190.3310  177.4310  141.7100 C   0  0  2  0  0  3  0  0  0  0  0  0
  190.1270  176.2360  143.8530 N   0  0  0  0  0  2  0  0  0  0  0  0
  188.4210  178.1560  143.7390 C   0  0  0  0  0  2  0  0  0  0  0  0
  189.2170  177.4410  138.9860 C   0  0  2  0  0  0  0  0  0  0  0  0
  189.7290  175.4930  137.9710 C   0  0  0  0  0  2  0  0  0  0  0  0
  190.3280  176.0800  142.4160 C   0  0  0  0  0  2  0  0  0  0  0  0
  188.8720  176.8900  145.6930 O   0  0  0  0  0  0  0  0  0  0  0  0
  187.8690  177.6980  142.3930 C   0  0  2  0  0  3  0  0  0  0  0  0
  189.1200  177.0510  144.4710 C   0  0  0  0  0  0  0  0  0  0  0  0
  188.8310  176.5730  137.9420 O   0  0  0  0  0  0  0  0  0  0  0  0
  188.9140  177.8230  141.2620 C   0  0  2  0  0  3  0  0  0  0  0  0
  188.8740  178.9100  138.6280 C   0  0  2  0  0  3  0  0  0  0  0  0
  187.7990  178.9720  137.7190 O   0  0  0  0  0  0  0  0  0  0  0  0
  189.0810  179.2260  137.1950 C   0  0  0  0  0  2  0  0  0  0  0  0
  186.5530  178.4420  142.1210 C   0  0  1  0  0  3  0  0  0  0  0  0
  185.3510  179.4660  140.3410 O   0  0  0  0  0  0  0  0  0  0  0  0
  186.1830  178.6390  140.6760 C   0  0  0  0  0  3  0  0  0  0  0  0
  185.3940  178.0970  143.0580 C   0  0  0  0  0  2  0  0  0  0  0  0
  184.9010  179.2830  143.8670 C   0  0  0  0  0  3  0  0  0  0  0  0
  184.8980  178.9110  145.3350 C   0  0  0  0  0  2  0  0  0  0  0  0
  183.6050  178.9060  144.5540 C   0  0  0  0  0  2  0  0  0  0  0  0
  1  4  1  1  0  0  0
  1  5  1  0  0  0  0
  5  2  2  0  0  0  0
  5  6  1  0  0  0  0
  6 11  1  6  0  0  0
  7 14  1  0  0  0  0
  8 14  1  0  0  0  0
  9 15  1  6  0  0  0
  9  1  1  0  0  0  0
  9  3  1  0  0  0  0
 10  4  1  0  0  0  0
 11  7  1  0  0  0  0
 13 20  1  6  0  0  0
 13  8  1  0  0  0  0
 14 12  2  0  0  0  0
 15 10  1  0  0  0  0
 16  3  1  6  0  0  0
 16  6  1  0  0  0  0
 16 13  1  0  0  0  0
 17 19  1  6  0  0  0
 17  9  1  0  0  0  0
 18 17  1  0  0  0  0
 19 18  1  0  0  0  0
 20 22  1  6  0  0  0
 20 23  1  0  0  0  0
 21 22  2  0  0  0  0
 23 24  1  0  0  0  0
 24 26  1  0  0  0  0
 24 25  1  0  0  0  0
 26 25  1  0  0  0  0
M  END
>  <MODEL>
1

>  <REMARK>
 VINA RESULT:      -8.0      0.000      0.000
  Name = 
  5 active torsions:
  status: ('A' for Active; 'I' for Inactive)
    1  A    between atoms: C_2  and  C_9
    2  A    between atoms: C_9  and  C_23
    3  A    between atoms: C_13  and  C_14
    4  A    between atoms: C_19  and  C_23
    5  A    between atoms: C_23  and  C_26
                            x       y       z     vdW  Elec       q    Type
                         _______ _______ _______ _____ _____    ______ ____

>  <TORSDO>
F 5

$$$$
=
 OpenBabel11062417013D

 26 30  0  0  1  0  0  0  0  0999 V2000
  190.6930  177.4880  143.4200 C   0  0  2  0  0  3  0  0  0  0  0  0
  191.9410  178.5990  145.0810 O   0  0  0  0  0  0  0  0  0  0  0  0
  188.4920  176.7630  144.2410 O   0  0  0  0  0  0  0  0  0  0  0  0
  191.5000  176.2310  143.2930 C   0  0  0  0  0  2  0  0  0  0  0  0
  190.8660  178.1040  144.7820 C   0  0  0  0  0  0  0  0  0  0  0  0
  189.7460  178.1350  145.7760 C   0  0  2  0  0  3  0  0  0  0  0  0
  189.4650  177.5390  148.1480 N   0  0  0  0  0  2  0  0  0  0  0  0
  187.3350  178.6690  147.2570 C   0  0  0  0  0  2  0  0  0  0  0  0
  189.2570  177.0620  143.0780 C   0  0  2  0  0  0  0  0  0  0  0  0
  190.5110  175.2100  142.7820 C   0  0  0  0  0  2  0  0  0  0  0  0
  189.9920  177.0940  146.8620 C   0  0  0  0  0  2  0  0  0  0  0  0
  187.7270  178.1820  149.5450 O   0  0  0  0  0  0  0  0  0  0  0  0
  187.2270  177.7200  146.0680 C   0  0  2  0  0  3  0  0  0  0  0  0
  188.1610  178.0950  148.3680 C   0  0  0  0  0  0  0  0  0  0  0  0
  189.3620  175.8760  142.3210 O   0  0  0  0  0  0  0  0  0  0  0  0
  188.3990  177.8940  145.0760 C   0  0  2  0  0  3  0  0  0  0  0  0
  188.5820  178.1820  142.2460 C   0  0  2  0  0  3  0  0  0  0  0  0
  187.8810  177.6450  141.1490 O   0  0  0  0  0  0  0  0  0  0  0  0
  189.1050  178.2790  140.8630 C   0  0  0  0  0  2  0  0  0  0  0  0
  185.8370  177.8780  145.4360 C   0  0  1  0  0  3  0  0  0  0  0  0
  183.8650  178.9860  146.1780 O   0  0  0  0  0  0  0  0  0  0  0  0
  184.6940  178.1140  146.3860 C   0  0  0  0  0  3  0  0  0  0  0  0
  185.7900  178.6820  144.1350 C   0  0  0  0  0  2  0  0  0  0  0  0
  184.9860  178.0060  143.0390 C   0  0  0  0  0  3  0  0  0  0  0  0
  184.8660  178.9510  141.8620 C   0  0  0  0  0  2  0  0  0  0  0  0
  183.7060  178.7860  142.8160 C   0  0  0  0  0  2  0  0  0  0  0  0
  1  4  1  1  0  0  0
  1  5  1  0  0  0  0
  5  2  2  0  0  0  0
  5  6  1  0  0  0  0
  6 11  1  1  0  0  0
  7 14  1  0  0  0  0
  8 14  1  0  0  0  0
  9 15  1  6  0  0  0
  9  1  1  0  0  0  0
  9  3  1  0  0  0  0
 10  4  1  0  0  0  0
 11  7  1  0  0  0  0
 13 20  1  6  0  0  0
 13  8  1  0  0  0  0
 14 12  2  0  0  0  0
 15 10  1  0  0  0  0
 16  3  1  1  0  0  0
 16  6  1  0  0  0  0
 16 13  1  0  0  0  0
 17 19  1  6  0  0  0
 17  9  1  0  0  0  0
 18 17  1  0  0  0  0
 19 18  1  0  0  0  0
 20 23  1  6  0  0  0
 20 22  1  0  0  0  0
 21 22  2  0  0  0  0
 24 23  1  0  0  0  0
 25 26  1  0  0  0  0
 25 24  1  0  0  0  0
 26 24  1  0  0  0  0
M  END
>  <MODEL>
2

>  <REMARK>
 VINA RESULT:      -7.6      2.511      4.108
  Name = 
  5 active torsions:
  status: ('A' for Active; 'I' for Inactive)
    1  A    between atoms: C_2  and  C_9
    2  A    between atoms: C_9  and  C_23
    3  A    between atoms: C_13  and  C_14
    4  A    between atoms: C_19  and  C_23
    5  A    between atoms: C_23  and  C_26
                            x       y       z     vdW  Elec       q    Type
                         _______ _______ _______ _____ _____    ______ ____

>  <TORSDO>
F 5

$$$$
=
 OpenBabel11062417013D

 26 30  0  0  1  0  0  0  0  0999 V2000
  190.9120  177.0300  143.2610 C   0  0  2  0  0  3  0  0  0  0  0  0
  190.1430  176.1480  141.2160 O   0  0  0  0  0  0  0  0  0  0  0  0
  189.2240  178.4440  144.3550 O   0  0  0  0  0  0  0  0  0  0  0  0
  191.9530  177.9820  142.7530 C   0  0  0  0  0  2  0  0  0  0  0  0
  189.8550  176.7810  142.2190 C   0  0  0  0  0  0  0  0  0  0  0  0
  188.4540  177.2820  142.3880 C   0  0  2  0  0  3  0  0  0  0  0  0
  186.8450  178.5430  141.0170 N   0  0  0  0  0  2  0  0  0  0  0  0
  185.7270  177.7460  143.1900 C   0  0  0  0  0  2  0  0  0  0  0  0
  190.4020  177.6720  144.5600 C   0  0  2  0  0  0  0  0  0  0  0  0
  192.0530  179.0290  143.8370 C   0  0  0  0  0  2  0  0  0  0  0  0
  188.2250  178.4890  141.4860 C   0  0  0  0  0  2  0  0  0  0  0  0
  184.5580  178.7260  141.3730 O   0  0  0  0  0  0  0  0  0  0  0  0
  186.8230  178.3380  144.0700 C   0  0  2  0  0  3  0  0  0  0  0  0
  185.6780  178.3880  141.8370 C   0  0  0  0  0  0  0  0  0  0  0  0
  191.4170  178.5520  144.9950 O   0  0  0  0  0  0  0  0  0  0  0  0
  188.1830  177.6330  143.8600 C   0  0  2  0  0  3  0  0  0  0  0  0
  190.1580  176.5600  145.6110 C   0  0  2  0  0  3  0  0  0  0  0  0
  190.7820  176.8730  146.8350 O   0  0  0  0  0  0  0  0  0  0  0  0
  191.4030  175.8840  146.0480 C   0  0  0  0  0  2  0  0  0  0  0  0
  186.3360  178.3460  145.5270 C   0  0  1  0  0  3  0  0  0  0  0  0
  184.1790  179.0240  146.2700 O   0  0  0  0  0  0  0  0  0  0  0  0
  184.8570  178.1610  145.7370 C   0  0  0  0  0  3  0  0  0  0  0  0
  187.2410  177.6260  146.5300 C   0  0  0  0  0  2  0  0  0  0  0  0
  187.2480  178.2730  147.9030 C   0  0  0  0  0  3  0  0  0  0  0  0
  188.6780  178.5870  148.2920 C   0  0  0  0  0  2  0  0  0  0  0  0
  187.9910  177.3710  148.8680 C   0  0  0  0  0  2  0  0  0  0  0  0
  1  4  1  6  0  0  0
  1  9  1  0  0  0  0
  2  5  2  0  0  0  0
  4 10  1  0  0  0  0
  5  6  1  0  0  0  0
  5  1  1  0  0  0  0
  6 11  1  6  0  0  0
  6 16  1  0  0  0  0
  7 11  1  0  0  0  0
  7 14  1  0  0  0  0
  8 13  1  0  0  0  0
  9  3  1  6  0  0  0
  9 15  1  0  0  0  0
  9 17  1  0  0  0  0
 10 15  1  0  0  0  0
 12 14  2  0  0  0  0
 13 20  1  1  0  0  0
 14  8  1  0  0  0  0
 16 13  1  0  0  0  0
 16  3  1  6  0  0  0
 17 19  1  6  0  0  0
 17 18  1  0  0  0  0
 19 18  1  0  0  0  0
 20 22  1  6  0  0  0
 20 23  1  0  0  0  0
 22 21  2  0  0  0  0
 23 24  1  0  0  0  0
 24 25  1  0  0  0  0
 24 26  1  0  0  0  0
 25 26  1  0  0  0  0
M  END
>  <MODEL>
3

>  <REMARK>
 VINA RESULT:      -7.2      2.651      5.416
  Name = 
  5 active torsions:
  status: ('A' for Active; 'I' for Inactive)
    1  A    between atoms: C_2  and  C_9
    2  A    between atoms: C_9  and  C_23
    3  A    between atoms: C_13  and  C_14
    4  A    between atoms: C_19  and  C_23
    5  A    between atoms: C_23  and  C_26
                            x       y       z     vdW  Elec       q    Type
                         _______ _______ _______ _____ _____    ______ ____

>  <TORSDO>
F 5

$$$$
=
 OpenBabel11062417013D

 26 30  0  0  1  0  0  0  0  0999 V2000
  190.3550  177.1850  143.4070 C   0  0  2  0  0  3  0  0  0  0  0  0
  190.1020  176.3060  141.2360 O   0  0  0  0  0  0  0  0  0  0  0  0
  188.4400  178.5750  144.0740 O   0  0  0  0  0  0  0  0  0  0  0  0
  191.4760  178.1490  143.1630 C   0  0  0  0  0  2  0  0  0  0  0  0
  189.5770  176.9300  142.1430 C   0  0  0  0  0  0  0  0  0  0  0  0
  188.1710  177.4160  141.9770 C   0  0  2  0  0  3  0  0  0  0  0  0
  186.9180  178.6680  140.2670 N   0  0  0  0  0  2  0  0  0  0  0  0
  185.3270  177.8480  142.1120 C   0  0  0  0  0  2  0  0  0  0  0  0
  189.5450  177.8140  144.5500 C   0  0  2  0  0  0  0  0  0  0  0  0
  191.3040  179.1920  144.2420 C   0  0  0  0  0  2  0  0  0  0  0  0
  188.1490  178.6260  141.0500 C   0  0  0  0  0  2  0  0  0  0  0  0
  184.6100  178.8250  140.0720 O   0  0  0  0  0  0  0  0  0  0  0  0
  186.1760  178.4460  143.2280 C   0  0  2  0  0  3  0  0  0  0  0  0
  185.5920  178.4960  140.7870 C   0  0  0  0  0  0  0  0  0  0  0  0
  190.4170  178.7020  145.2150 O   0  0  0  0  0  0  0  0  0  0  0  0
  187.5540  177.7560  143.3440 C   0  0  2  0  0  3  0  0  0  0  0  0
  189.0700  176.6940  145.5100 C   0  0  2  0  0  3  0  0  0  0  0  0
  188.3060  177.2240  146.5680 O   0  0  0  0  0  0  0  0  0  0  0  0
  189.6210  176.8260  146.8800 C   0  0  0  0  0  2  0  0  0  0  0  0
  185.3570  178.4410  144.5270 C   0  0  1  0  0  3  0  0  0  0  0  0
  185.4710  179.3490  146.7240 O   0  0  0  0  0  0  0  0  0  0  0  0
  185.6960  179.5060  145.5350 C   0  0  0  0  0  3  0  0  0  0  0  0
  183.8660  178.1350  144.3660 C   0  0  0  0  0  2  0  0  0  0  0  0
  183.0330  179.3610  144.0400 C   0  0  0  0  0  3  0  0  0  0  0  0
  181.5680  179.0220  144.2130 C   0  0  0  0  0  2  0  0  0  0  0  0
  182.1730  179.0640  142.8290 C   0  0  0  0  0  2  0  0  0  0  0  0
  1  4  1  6  0  0  0
  1  9  1  0  0  0  0
  2  5  2  0  0  0  0
  4 10  1  0  0  0  0
  5  1  1  0  0  0  0
  6 11  1  6  0  0  0
  6  5  1  0  0  0  0
  6 16  1  0  0  0  0
  7 14  1  0  0  0  0
  7 11  1  0  0  0  0
  8 13  1  0  0  0  0
  9  3  1  6  0  0  0
  9 15  1  0  0  0  0
  9 17  1  0  0  0  0
 10 15  1  0  0  0  0
 12 14  2  0  0  0  0
 13 16  1  0  0  0  0
 13 20  1  1  0  0  0
 14  8  1  0  0  0  0
 16  3  1  6  0  0  0
 17 18  1  0  0  0  0
 17 19  1  1  0  0  0
 18 19  1  0  0  0  0
 20 23  1  6  0  0  0
 20 22  1  0  0  0  0
 22 21  2  0  0  0  0
 24 25  1  0  0  0  0
 24 23  1  0  0  0  0
 26 24  1  0  0  0  0
 26 25  1  0  0  0  0
M  END
>  <MODEL>
4

>  <REMARK>
 VINA RESULT:      -7.0      2.508      5.206
  Name = 
  5 active torsions:
  status: ('A' for Active; 'I' for Inactive)
    1  A    between atoms: C_2  and  C_9
    2  A    between atoms: C_9  and  C_23
    3  A    between atoms: C_13  and  C_14
    4  A    between atoms: C_19  and  C_23
    5  A    between atoms: C_23  and  C_26
                            x       y       z     vdW  Elec       q    Type
                         _______ _______ _______ _____ _____    ______ ____

>  <TORSDO>
F 5

$$$$
=
 OpenBabel11062417013D

 26 30  0  0  1  0  0  0  0  0999 V2000
  190.4540  177.1480  143.2030 C   0  0  2  0  0  3  0  0  0  0  0  0
  190.1720  176.1590  141.0830 O   0  0  0  0  0  0  0  0  0  0  0  0
  188.5960  178.6500  143.7820 O   0  0  0  0  0  0  0  0  0  0  0  0
  191.6140  178.0520  142.9100 C   0  0  0  0  0  2  0  0  0  0  0  0
  189.6700  176.8550  141.9520 C   0  0  0  0  0  0  0  0  0  0  0  0
  188.2850  177.3870  141.7520 C   0  0  2  0  0  3  0  0  0  0  0  0
  187.0890  178.5900  139.9690 N   0  0  0  0  0  2  0  0  0  0  0  0
  185.4610  177.9400  141.8490 C   0  0  0  0  0  2  0  0  0  0  0  0
  189.6680  177.8730  144.3050 C   0  0  2  0  0  0  0  0  0  0  0  0
  191.4830  179.1590  143.9290 C   0  0  0  0  0  2  0  0  0  0  0  0
  188.3150  178.5430  140.7590 C   0  0  0  0  0  2  0  0  0  0  0  0
  184.7900  178.8300  139.7540 O   0  0  0  0  0  0  0  0  0  0  0  0
  186.3310  178.5650  142.9340 C   0  0  2  0  0  3  0  0  0  0  0  0
  185.7560  178.5020  140.4910 C   0  0  0  0  0  0  0  0  0  0  0  0
  190.5740  178.7610  144.9240 O   0  0  0  0  0  0  0  0  0  0  0  0
  187.6800  177.8290  143.0950 C   0  0  2  0  0  3  0  0  0  0  0  0
  189.1460  176.8290  145.3250 C   0  0  2  0  0  3  0  0  0  0  0  0
  189.1600  177.3480  146.6340 O   0  0  0  0  0  0  0  0  0  0  0  0
  190.1690  176.4180  146.3160 C   0  0  0  0  0  2  0  0  0  0  0  0
  185.5100  178.6670  144.2270 C   0  0  1  0  0  3  0  0  0  0  0  0
  183.4410  179.8410  144.1490 O   0  0  0  0  0  0  0  0  0  0  0  0
  184.0170  178.7680  144.0650 C   0  0  0  0  0  3  0  0  0  0  0  0
  185.9900  177.7870  145.3850 C   0  0  0  0  0  2  0  0  0  0  0  0
  185.4490  178.2230  146.7350 C   0  0  0  0  0  3  0  0  0  0  0  0
  186.0000  179.5940  147.0670 C   0  0  0  0  0  2  0  0  0  0  0  0
  186.6040  178.3650  147.7050 C   0  0  0  0  0  2  0  0  0  0  0  0
  1  4  1  6  0  0  0
  1  9  1  0  0  0  0
  2  5  2  0  0  0  0
  4 10  1  0  0  0  0
  5  1  1  0  0  0  0
  6 11  1  6  0  0  0
  6  5  1  0  0  0  0
  6 16  1  0  0  0  0
  7 14  1  0  0  0  0
  7 11  1  0  0  0  0
  8 13  1  0  0  0  0
  9  3  1  6  0  0  0
  9 15  1  0  0  0  0
  9 17  1  0  0  0  0
 10 15  1  0  0  0  0
 12 14  2  0  0  0  0
 13 16  1  0  0  0  0
 13 20  1  1  0  0  0
 14  8  1  0  0  0  0
 16  3  1  6  0  0  0
 17 19  1  1  0  0  0
 17 18  1  0  0  0  0
 19 18  1  0  0  0  0
 20 22  1  6  0  0  0
 20 23  1  0  0  0  0
 22 21  2  0  0  0  0
 23 24  1  0  0  0  0
 24 25  1  0  0  0  0
 24 26  1  0  0  0  0
 25 26  1  0  0  0  0
M  END
>  <MODEL>
5

>  <REMARK>
 VINA RESULT:      -7.0      2.395      5.050
  Name = 
  5 active torsions:
  status: ('A' for Active; 'I' for Inactive)
    1  A    between atoms: C_2  and  C_9
    2  A    between atoms: C_9  and  C_23
    3  A    between atoms: C_13  and  C_14
    4  A    between atoms: C_19  and  C_23
    5  A    between atoms: C_23  and  C_26
                            x       y       z     vdW  Elec       q    Type
                         _______ _______ _______ _____ _____    ______ ____

>  <TORSDO>
F 5

$$$$
=
 OpenBabel11062417013D

 26 30  0  0  1  0  0  0  0  0999 V2000
  190.4710  177.2080  143.1340 C   0  0  2  0  0  3  0  0  0  0  0  0
  190.8610  175.9910  141.1550 O   0  0  0  0  0  0  0  0  0  0  0  0
  188.6260  178.8140  142.8880 O   0  0  0  0  0  0  0  0  0  0  0  0
  191.7160  178.0410  143.1710 C   0  0  0  0  0  2  0  0  0  0  0  0
  190.1400  176.7940  141.7250 C   0  0  0  0  0  0  0  0  0  0  0  0
  188.9420  177.3370  141.0100 C   0  0  2  0  0  3  0  0  0  0  0  0
  188.5000  178.3590  138.8150 N   0  0  0  0  0  2  0  0  0  0  0  0
  186.2930  177.9710  140.0740 C   0  0  0  0  0  2  0  0  0  0  0  0
  189.4050  178.0740  143.8220 C   0  0  2  0  0  0  0  0  0  0  0  0
  191.3180  179.2600  143.9680 C   0  0  0  0  0  2  0  0  0  0  0  0
  189.3800  178.3700  139.9790 C   0  0  0  0  0  2  0  0  0  0  0  0
  186.4300  178.6330  137.8010 O   0  0  0  0  0  0  0  0  0  0  0  0
  186.7820  178.6930  141.3260 C   0  0  2  0  0  3  0  0  0  0  0  0
  187.0660  178.3670  138.8530 C   0  0  0  0  0  0  0  0  0  0  0  0
  190.1030  179.0030  144.6240 O   0  0  0  0  0  0  0  0  0  0  0  0
  187.9470  177.9440  142.0120 C   0  0  2  0  0  3  0  0  0  0  0  0
  188.5030  177.1670  144.6970 C   0  0  2  0  0  3  0  0  0  0  0  0
  188.1940  177.7900  145.9220 O   0  0  0  0  0  0  0  0  0  0  0  0
  189.1460  176.7540  145.9670 C   0  0  0  0  0  2  0  0  0  0  0  0
  185.5790  178.9630  142.2410 C   0  0  1  0  0  3  0  0  0  0  0  0
  183.3400  178.2500  141.8650 O   0  0  0  0  0  0  0  0  0  0  0  0
  184.2330  179.0290  141.5730 C   0  0  0  0  0  3  0  0  0  0  0  0
  185.6090  178.2520  143.5970 C   0  0  0  0  0  2  0  0  0  0  0  0
  185.2570  179.1620  144.7600 C   0  0  0  0  0  3  0  0  0  0  0  0
  184.9910  178.3140  145.9860 C   0  0  0  0  0  2  0  0  0  0  0  0
  183.8340  178.8770  145.1940 C   0  0  0  0  0  2  0  0  0  0  0  0
  1  4  1  6  0  0  0
  1  9  1  0  0  0  0
  2  5  2  0  0  0  0
  4 10  1  0  0  0  0
  5  1  1  0  0  0  0
  6 11  1  6  0  0  0
  6  5  1  0  0  0  0
  6 16  1  0  0  0  0
  7 14  1  0  0  0  0
  7 11  1  0  0  0  0
  8 13  1  0  0  0  0
  9  3  1  6  0  0  0
  9 15  1  0  0  0  0
  9 17  1  0  0  0  0
 10 15  1  0  0  0  0
 12 14  2  0  0  0  0
 13 16  1  0  0  0  0
 13 20  1  1  0  0  0
 14  8  1  0  0  0  0
 16  3  1  1  0  0  0
 17 18  1  0  0  0  0
 17 19  1  1  0  0  0
 18 19  1  0  0  0  0
 20 22  1  6  0  0  0
 20 23  1  0  0  0  0
 22 21  2  0  0  0  0
 23 24  1  0  0  0  0
 24 26  1  0  0  0  0
 24 25  1  0  0  0  0
 26 25  1  0  0  0  0
M  END
>  <MODEL>
6

>  <REMARK>
 VINA RESULT:      -6.9      2.103      4.710
  Name = 
  5 active torsions:
  status: ('A' for Active; 'I' for Inactive)
    1  A    between atoms: C_2  and  C_9
    2  A    between atoms: C_9  and  C_23
    3  A    between atoms: C_13  and  C_14
    4  A    between atoms: C_19  and  C_23
    5  A    between atoms: C_23  and  C_26
                            x       y       z     vdW  Elec       q    Type
                         _______ _______ _______ _____ _____    ______ ____

>  <TORSDO>
F 5

$$$$
=
 OpenBabel11062417013D

 26 30  0  0  1  0  0  0  0  0999 V2000
  191.3620  176.7170  144.3590 C   0  0  2  0  0  3  0  0  0  0  0  0
  191.6560  177.6910  146.4840 O   0  0  0  0  0  0  0  0  0  0  0  0
  188.9890  176.5080  143.7540 O   0  0  0  0  0  0  0  0  0  0  0  0
  191.8180  175.3200  144.6550 C   0  0  0  0  0  2  0  0  0  0  0  0
  190.8610  177.3960  145.6060 C   0  0  0  0  0  0  0  0  0  0  0  0
  189.4120  177.7260  145.7900 C   0  0  2  0  0  3  0  0  0  0  0  0
  187.7290  177.3910  147.5550 N   0  0  0  0  0  2  0  0  0  0  0  0
  186.7610  178.8420  145.6660 C   0  0  0  0  0  2  0  0  0  0  0  0
  190.3170  176.5550  143.2450 C   0  0  2  0  0  0  0  0  0  0  0  0
  191.1020  174.4760  143.6270 C   0  0  0  0  0  2  0  0  0  0  0  0
  188.7810  176.7490  146.7750 C   0  0  0  0  0  2  0  0  0  0  0  0
  185.6850  178.4750  147.7480 O   0  0  0  0  0  0  0  0  0  0  0  0
  187.1470  177.8400  144.5840 C   0  0  2  0  0  3  0  0  0  0  0  0
  186.6770  178.2090  147.0220 C   0  0  0  0  0  0  0  0  0  0  0  0
  190.5810  175.3140  142.6270 O   0  0  0  0  0  0  0  0  0  0  0  0
  188.6790  177.7000  144.4390 C   0  0  2  0  0  3  0  0  0  0  0  0
  190.4780  177.7150  142.2300 C   0  0  2  0  0  3  0  0  0  0  0  0
  190.3710  177.2470  140.9050 O   0  0  0  0  0  0  0  0  0  0  0  0
  191.6660  177.5670  141.3560 C   0  0  0  0  0  2  0  0  0  0  0  0
  186.4230  178.2160  143.2820 C   0  0  1  0  0  3  0  0  0  0  0  0
  187.0980  178.6380  141.0400 O   0  0  0  0  0  0  0  0  0  0  0  0
  187.1380  177.8860  142.0000 C   0  0  0  0  0  3  0  0  0  0  0  0
  184.9110  177.9770  143.2760 C   0  0  0  0  0  2  0  0  0  0  0  0
  184.1040  179.2270  143.5780 C   0  0  0  0  0  3  0  0  0  0  0  0
  183.2010  178.9560  144.7630 C   0  0  0  0  0  2  0  0  0  0  0  0
  182.6350  178.9290  143.3620 C   0  0  0  0  0  2  0  0  0  0  0  0
  1  4  1  1  0  0  0
  1  5  1  0  0  0  0
  5  6  1  0  0  0  0
  5  2  2  0  0  0  0
  6 11  1  1  0  0  0
  8 14  1  0  0  0  0
  9 15  1  6  0  0  0
  9  3  1  0  0  0  0
  9  1  1  0  0  0  0
 10  4  1  0  0  0  0
 11  7  1  0  0  0  0
 13 20  1  6  0  0  0
 13  8  1  0  0  0  0
 14  7  1  0  0  0  0
 14 12  2  0  0  0  0
 15 10  1  0  0  0  0
 16  3  1  1  0  0  0
 16 13  1  0  0  0  0
 16  6  1  0  0  0  0
 17 19  1  6  0  0  0
 17  9  1  0  0  0  0
 18 19  1  0  0  0  0
 18 17  1  0  0  0  0
 20 22  1  6  0  0  0
 21 22  2  0  0  0  0
 23 20  1  0  0  0  0
 23 24  1  0  0  0  0
 24 25  1  0  0  0  0
 26 24  1  0  0  0  0
 26 25  1  0  0  0  0
M  END
>  <MODEL>
7

>  <REMARK>
 VINA RESULT:      -6.8      2.533      3.990
  Name = 
  5 active torsions:
  status: ('A' for Active; 'I' for Inactive)
    1  A    between atoms: C_2  and  C_9
    2  A    between atoms: C_9  and  C_23
    3  A    between atoms: C_13  and  C_14
    4  A    between atoms: C_19  and  C_23
    5  A    between atoms: C_23  and  C_26
                            x       y       z     vdW  Elec       q    Type
                         _______ _______ _______ _____ _____    ______ ____

>  <TORSDO>
F 5

$$$$
=
 OpenBabel11062417013D

 26 30  0  0  1  0  0  0  0  0999 V2000
  182.0870  178.7090  140.1620 C   0  0  2  0  0  3  0  0  0  0  0  0
  180.7150  178.2680  142.0250 O   0  0  0  0  0  0  0  0  0  0  0  0
  184.4070  179.1950  140.8120 O   0  0  0  0  0  0  0  0  0  0  0  0
  181.5150  180.0260  139.7300 C   0  0  0  0  0  2  0  0  0  0  0  0
  181.8510  178.4740  141.6300 C   0  0  0  0  0  0  0  0  0  0  0  0
  182.9780  178.4760  142.6150 C   0  0  2  0  0  3  0  0  0  0  0  0
  183.4380  179.5540  144.7800 N   0  0  0  0  0  2  0  0  0  0  0  0
  185.3010  177.8780  144.2080 C   0  0  0  0  0  2  0  0  0  0  0  0
  183.5640  178.7740  139.7450 C   0  0  2  0  0  0  0  0  0  0  0  0
  182.6540  180.7000  139.0020 C   0  0  0  0  0  2  0  0  0  0  0  0
  182.9580  179.7710  143.4190 C   0  0  0  0  0  2  0  0  0  0  0  0
  185.0770  178.9540  146.3100 O   0  0  0  0  0  0  0  0  0  0  0  0
  185.5390  178.4830  142.8290 C   0  0  2  0  0  3  0  0  0  0  0  0
  184.6280  178.8380  145.1410 C   0  0  0  0  0  0  0  0  0  0  0  0
  183.6490  179.7470  138.7260 O   0  0  0  0  0  0  0  0  0  0  0  0
  184.3230  178.2950  141.8930 C   0  0  2  0  0  3  0  0  0  0  0  0
  184.0000  177.3860  139.2120 C   0  0  2  0  0  3  0  0  0  0  0  0
  184.9530  177.5150  138.1820 O   0  0  0  0  0  0  0  0  0  0  0  0
  183.6460  177.1680  137.7890 C   0  0  0  0  0  2  0  0  0  0  0  0
  186.8580  177.9300  142.2690 C   0  0  1  0  0  3  0  0  0  0  0  0
  187.6570  178.6280  140.1380 O   0  0  0  0  0  0  0  0  0  0  0  0
  187.6210  178.8360  141.3400 C   0  0  0  0  0  3  0  0  0  0  0  0
  187.7090  177.1270  143.2550 C   0  0  0  0  0  2  0  0  0  0  0  0
  188.9490  177.8680  143.7210 C   0  0  0  0  0  3  0  0  0  0  0  0
  189.9040  176.8800  144.3560 C   0  0  0  0  0  2  0  0  0  0  0  0
  189.0460  177.7660  145.2290 C   0  0  0  0  0  2  0  0  0  0  0  0
  1  4  1  1  0  0  0
  1  5  1  0  0  0  0
  5  2  2  0  0  0  0
  5  6  1  0  0  0  0
  6 11  1  6  0  0  0
  7 14  1  0  0  0  0
  8 14  1  0  0  0  0
  9 15  1  6  0  0  0
  9  1  1  0  0  0  0
  9  3  1  0  0  0  0
 10  4  1  0  0  0  0
 11  7  1  0  0  0  0
 13 20  1  6  0  0  0
 13  8  1  0  0  0  0
 14 12  2  0  0  0  0
 15 10  1  0  0  0  0
 16  3  1  6  0  0  0
 16  6  1  0  0  0  0
 16 13  1  0  0  0  0
 17 19  1  6  0  0  0
 17  9  1  0  0  0  0
 18 17  1  0  0  0  0
 19 18  1  0  0  0  0
 20 22  1  1  0  0  0
 20 23  1  0  0  0  0
 21 22  2  0  0  0  0
 23 24  1  0  0  0  0
 24 25  1  0  0  0  0
 24 26  1  0  0  0  0
 25 26  1  0  0  0  0
M  END
>  <MODEL>
8

>  <REMARK>
 VINA RESULT:      -6.6      3.221      6.260
  Name = 
  5 active torsions:
  status: ('A' for Active; 'I' for Inactive)
    1  A    between atoms: C_2  and  C_9
    2  A    between atoms: C_9  and  C_23
    3  A    between atoms: C_13  and  C_14
    4  A    between atoms: C_19  and  C_23
    5  A    between atoms: C_23  and  C_26
                            x       y       z     vdW  Elec       q    Type
                         _______ _______ _______ _____ _____    ______ ____

>  <TORSDO>
F 5

$$$$
=
 OpenBabel11062417013D

 26 30  0  0  1  0  0  0  0  0999 V2000
  190.0080  176.6250  144.3170 C   0  0  2  0  0  3  0  0  0  0  0  0
  190.8400  174.9900  142.8380 O   0  0  0  0  0  0  0  0  0  0  0  0
  188.7890  178.4060  143.1400 O   0  0  0  0  0  0  0  0  0  0  0  0
  191.2970  177.2520  144.7540 C   0  0  0  0  0  2  0  0  0  0  0  0
  190.1510  175.9900  142.9590 C   0  0  0  0  0  0  0  0  0  0  0  0
  189.4590  176.5500  141.7560 C   0  0  2  0  0  3  0  0  0  0  0  0
  190.1100  177.1640  139.4620 N   0  0  0  0  0  2  0  0  0  0  0  0
  187.5640  177.3720  139.7490 C   0  0  0  0  0  2  0  0  0  0  0  0
  188.9780  177.7620  144.3950 C   0  0  2  0  0  0  0  0  0  0  0  0
  190.9040  178.6530  145.1600 C   0  0  0  0  0  2  0  0  0  0  0  0
  190.4660  177.2770  140.8730 C   0  0  0  0  0  2  0  0  0  0  0  0
  188.6870  177.5340  137.6660 O   0  0  0  0  0  0  0  0  0  0  0  0
  187.6900  178.2500  140.9900 C   0  0  2  0  0  3  0  0  0  0  0  0
  188.8050  177.3930  138.9100 C   0  0  0  0  0  0  0  0  0  0  0  0
  189.5070  178.7170  145.2890 O   0  0  0  0  0  0  0  0  0  0  0  0
  188.3180  177.4890  142.1800 C   0  0  2  0  0  3  0  0  0  0  0  0
  187.6390  177.1940  144.9320 C   0  0  2  0  0  3  0  0  0  0  0  0
  186.9600  178.1520  145.7100 O   0  0  0  0  0  0  0  0  0  0  0  0
  187.5920  177.1070  146.4110 C   0  0  0  0  0  2  0  0  0  0  0  0
  186.3210  178.8750  141.2930 C   0  0  1  0  0  3  0  0  0  0  0  0
  184.9420  179.9260  139.6620 O   0  0  0  0  0  0  0  0  0  0  0  0
  185.3250  178.8820  140.1650 C   0  0  0  0  0  3  0  0  0  0  0  0
  185.7470  178.5690  142.6790 C   0  0  0  0  0  2  0  0  0  0  0  0
  184.3890  179.2030  142.9210 C   0  0  0  0  0  3  0  0  0  0  0  0
  184.4190  179.9430  144.2420 C   0  0  0  0  0  2  0  0  0  0  0  0
  183.7690  178.5820  144.1550 C   0  0  0  0  0  2  0  0  0  0  0  0
  1  9  1  0  0  0  0
  1  4  1  6  0  0  0
  2  5  2  0  0  0  0
  4 10  1  0  0  0  0
  5  1  1  0  0  0  0
  6 11  1  6  0  0  0
  6 16  1  0  0  0  0
  6  5  1  0  0  0  0
  7 11  1  0  0  0  0
  8 13  1  0  0  0  0
  9  3  1  6  0  0  0
  9 17  1  0  0  0  0
  9 15  1  0  0  0  0
 10 15  1  0  0  0  0
 12 14  2  0  0  0  0
 13 20  1  1  0  0  0
 13 16  1  0  0  0  0
 14  7  1  0  0  0  0
 14  8  1  0  0  0  0
 16  3  1  1  0  0  0
 17 18  1  0  0  0  0
 17 19  1  1  0  0  0
 18 19  1  0  0  0  0
 20 22  1  6  0  0  0
 20 23  1  0  0  0  0
 21 22  2  0  0  0  0
 23 24  1  0  0  0  0
 24 26  1  0  0  0  0
 24 25  1  0  0  0  0
 26 25  1  0  0  0  0
M  END
>  <MODEL>
9

>  <REMARK>
 VINA RESULT:      -6.6      1.824      4.819
  Name = 
  5 active torsions:
  status: ('A' for Active; 'I' for Inactive)
    1  A    between atoms: C_2  and  C_9
    2  A    between atoms: C_9  and  C_23
    3  A    between atoms: C_13  and  C_14
    4  A    between atoms: C_19  and  C_23
    5  A    between atoms: C_23  and  C_26
                            x       y       z     vdW  Elec       q    Type
                         _______ _______ _______ _____ _____    ______ ____

>  <TORSDO>
F 5

$$$$
