=
 OpenBabel11062413103D

 40 45  0  0  1  0  0  0  0  0999 V2000
  185.2170  179.7490  140.9210 C   0  0  0  0  0  1  0  0  0  0  0  0
  181.5590  179.1550  138.5280 O   0  0  0  0  0  0  0  0  0  0  0  0
  185.5450  178.0830  142.8180 C   0  0  2  0  0  3  0  0  0  0  0  0
  181.2620  178.7510  142.1430 C   0  0  2  0  0  3  0  0  0  0  0  0
  180.4630  179.3770  143.2590 C   0  0  0  0  0  3  0  0  0  0  0  0
  183.5510  177.8880  141.3560 C   0  0  1  0  0  3  0  0  0  0  0  0
  185.0240  178.3090  141.3920 C   0  0  1  0  0  3  0  0  0  0  0  0
  178.9310  180.2520  141.6570 O   0  0  0  0  0  0  0  0  0  0  0  0
  181.8590  178.8810  139.7230 C   0  0  0  0  0  0  0  0  0  0  0  0
  182.7270  178.5730  142.4280 C   0  0  0  0  0  0  0  0  0  0  0  0
  179.3480  180.0590  142.9830 C   0  0  0  0  0  3  0  0  0  0  0  0
  183.2930  178.9870  143.5800 C   0  0  0  0  0  3  0  0  0  0  0  0
  184.7820  178.9380  143.8360 C   0  0  0  0  0  2  0  0  0  0  0  0
  181.1030  179.5420  140.8460 C   0  0  1  0  0  3  0  0  0  0  0  0
  179.6090  179.6550  140.5470 C   0  0  0  0  0  2  0  0  0  0  0  0
  182.9660  177.9960  140.0050 N   0  0  0  0  0  0  0  0  0  0  0  0
  183.2440  177.6820  137.5130 C   0  0  0  0  0  0  0  0  0  0  0  0
  183.5250  175.8060  139.0890 O   0  0  0  0  0  1  0  0  0  0  0  0
  184.6250  177.7820  138.1900 C   0  0  1  0  0  3  0  0  0  0  0  0
  182.4930  177.8510  136.5670 O   0  0  0  0  0  0  0  0  0  0  0  0
  183.5430  177.1930  138.9240 C   0  0  2  0  0  0  0  0  0  0  0  0
  185.4740  176.8100  137.6430 O   0  0  0  0  0  0  0  0  0  0  0  0
  187.8850  179.3590  136.8740 O   0  0  0  0  0  1  0  0  0  0  0  0
  186.9630  178.3810  136.4980 C   0  0  1  0  0  3  0  0  0  0  0  0
  187.6580  177.0200  136.4550 C   0  0  0  0  0  2  0  0  0  0  0  0
  186.7560  177.3760  137.6150 C   0  0  2  0  0  0  0  0  0  0  0  0
  187.3660  177.6840  138.8350 O   0  0  0  0  0  1  0  0  0  0  0  0
  187.0430  178.3350  142.9400 C   0  0  0  0  0  2  0  0  0  0  0  0
  187.6730  177.3490  143.8100 N   0  0  0  0  0  0  0  0  0  0  0  0
  188.2850  177.9480  147.9680 C   0  0  0  0  0  3  0  0  0  0  0  0
  187.0000  177.7830  147.4530 C   0  0  0  0  0  3  0  0  0  0  0  0
  189.2170  177.8160  145.7220 C   0  0  0  0  0  0  0  0  0  0  0  0
  189.3820  177.9650  147.1070 C   0  0  0  0  0  3  0  0  0  0  0  0
  187.9100  177.6190  145.2020 C   0  0  0  0  0  0  0  0  0  0  0  0
  186.8160  177.6170  146.0800 C   0  0  0  0  0  3  0  0  0  0  0  0
  190.4210  177.9260  144.8720 C   0  0  0  0  0  0  0  0  0  0  0  0
  191.2730  177.0000  144.8270 O   0  0  0  0  0  1  0  0  0  0  0  0
  190.5960  179.0400  144.0600 O   0  0  0  0  0  0  0  0  0  0  0  0
  189.0900  176.1410  142.3990 O   0  0  0  0  0  1  0  0  0  0  0  0
  187.9910  176.0430  143.2520 C   0  0  0  0  0  2  0  0  0  0  0  0
  2  9  2  0  0  0  0
  3 28  1  6  0  0  0
  3 13  1  0  0  0  0
  4 10  1  0  0  0  0
  4  5  1  1  0  0  0
  6  7  1  0  0  0  0
  6 10  1  1  0  0  0
  7  1  1  1  0  0  0
  7  3  1  0  0  0  0
  8 11  1  0  0  0  0
  9 16  1  0  0  0  0
  9 14  1  0  0  0  0
 10 12  2  0  0  0  0
 11  5  2  0  0  0  0
 12 13  1  0  0  0  0
 14 15  1  6  0  0  0
 14  4  1  0  0  0  0
 15  8  1  0  0  0  0
 16  6  1  0  0  0  0
 17 19  1  0  0  0  0
 17 21  1  0  0  0  0
 19 22  1  6  0  0  0
 19 21  1  0  0  0  0
 20 17  2  0  0  0  0
 21 18  1  1  0  0  0
 21 16  1  0  0  0  0
 24 23  1  1  0  0  0
 24 26  1  0  0  0  0
 25 24  1  0  0  0  0
 25 26  1  0  0  0  0
 26 22  1  0  0  0  0
 26 27  1  1  0  0  0
 28 29  1  0  0  0  0
 29 34  1  0  0  0  0
 31 30  1  0  0  0  0
 32 33  1  0  0  0  0
 33 30  2  0  0  0  0
 34 32  2  0  0  0  0
 34 35  1  0  0  0  0
 35 31  2  0  0  0  0
 36 32  1  0  0  0  0
 37 36  1  0  0  0  0
 38 36  2  0  0  0  0
 39 40  1  0  0  0  0
 40 29  1  0  0  0  0
M  END
>  <MODEL>
1

>  <REMARK>
 VINA RESULT:      -8.0      0.000      0.000
  Name = 
  8 active torsions:
  status: ('A' for Active; 'I' for Inactive)
    1  A    between atoms: C_3  and  N_7
    2  A    between atoms: C_3  and  C_11
    3  A    between atoms: N_7  and  C_9
    4  A    between atoms: N_7  and  C_27
    5  A    between atoms: C_15  and  C_17
    6  A    between atoms: C_20  and  O_26
    7  A    between atoms: O_26  and  C_32
    8  A    between atoms: N_36  and  C_37
                            x       y       z     vdW  Elec       q    Type
                         _______ _______ _______ _____ _____    ______ ____

>  <TORSDO>
F 8

$$$$
=
 OpenBabel11062413103D

 40 45  0  0  1  0  0  0  0  0999 V2000
  187.8180  179.7230  141.1100 C   0  0  0  0  0  1  0  0  0  0  0  0
  184.2340  180.1240  143.6500 O   0  0  0  0  0  0  0  0  0  0  0  0
  188.4350  177.3330  140.4870 C   0  0  2  0  0  3  0  0  0  0  0  0
  186.5320  177.4010  144.4390 C   0  0  2  0  0  3  0  0  0  0  0  0
  187.3560  176.9650  145.6250 C   0  0  0  0  0  3  0  0  0  0  0  0
  186.4360  177.7480  141.8950 C   0  0  1  0  0  3  0  0  0  0  0  0
  187.3000  178.3270  140.7700 C   0  0  1  0  0  3  0  0  0  0  0  0
  186.0270  178.3440  147.0430 O   0  0  0  0  0  0  0  0  0  0  0  0
  185.0820  179.2010  143.4990 C   0  0  0  0  0  0  0  0  0  0  0  0
  187.2490  177.3790  143.1190 C   0  0  0  0  0  0  0  0  0  0  0  0
  187.0640  177.4180  146.8470 C   0  0  0  0  0  3  0  0  0  0  0  0
  188.5500  177.0390  143.0100 C   0  0  0  0  0  3  0  0  0  0  0  0
  189.3270  177.1340  141.7180 C   0  0  0  0  0  2  0  0  0  0  0  0
  185.9490  178.7960  144.6610 C   0  0  1  0  0  3  0  0  0  0  0  0
  185.1730  178.7730  145.9780 C   0  0  0  0  0  2  0  0  0  0  0  0
  185.2650  178.5950  142.1990 N   0  0  0  0  0  0  0  0  0  0  0  0
  183.6480  177.5870  140.5400 C   0  0  0  0  0  0  0  0  0  0  0  0
  184.5610  179.8570  140.2360 O   0  0  0  0  0  1  0  0  0  0  0  0
  182.9080  178.5680  141.4710 C   0  0  1  0  0  3  0  0  0  0  0  0
  183.6900  176.5870  139.8430 O   0  0  0  0  0  0  0  0  0  0  0  0
  184.2790  178.8350  141.1440 C   0  0  2  0  0  0  0  0  0  0  0  0
  182.0290  179.3480  140.7060 O   0  0  0  0  0  0  0  0  0  0  0  0
  179.3850  177.8480  142.6220 O   0  0  0  0  0  1  0  0  0  0  0  0
  180.1480  177.9710  141.4600 C   0  0  1  0  0  3  0  0  0  0  0  0
  179.5520  179.0660  140.5760 C   0  0  0  0  0  2  0  0  0  0  0  0
  180.8010  179.3380  141.3830 C   0  0  2  0  0  0  0  0  0  0  0  0
  180.6710  180.1420  142.5210 O   0  0  0  0  0  1  0  0  0  0  0  0
  189.2810  177.7370  139.2850 C   0  0  0  0  0  2  0  0  0  0  0  0
  188.5730  177.4860  138.0350 N   0  0  0  0  0  0  0  0  0  0  0  0
  187.4100  173.6400  136.6670 C   0  0  0  0  0  3  0  0  0  0  0  0
  186.4550  174.5710  137.0730 C   0  0  0  0  0  3  0  0  0  0  0  0
  189.1920  175.1950  137.2430 C   0  0  0  0  0  0  0  0  0  0  0  0
  188.7660  173.9510  136.7540 C   0  0  0  0  0  3  0  0  0  0  0  0
  188.2170  176.1540  137.6300 C   0  0  0  0  0  0  0  0  0  0  0  0
  186.8570  175.8200  137.5480 C   0  0  0  0  0  3  0  0  0  0  0  0
  190.6470  175.4180  137.3790 C   0  0  0  0  0  0  0  0  0  0  0  0
  191.3000  174.8960  138.3200 O   0  0  0  0  0  1  0  0  0  0  0  0
  191.3250  176.1660  136.4240 O   0  0  0  0  0  0  0  0  0  0  0  0
  188.9210  179.7500  137.5790 O   0  0  0  0  0  1  0  0  0  0  0  0
  188.1630  178.6310  137.2350 C   0  0  0  0  0  2  0  0  0  0  0  0
  3 28  1  6  0  0  0
  3  7  1  0  0  0  0
  3 13  1  0  0  0  0
  4 14  1  0  0  0  0
  4  5  1  1  0  0  0
  5 11  2  0  0  0  0
  6 16  1  0  0  0  0
  6 10  1  1  0  0  0
  7  1  1  1  0  0  0
  7  6  1  0  0  0  0
  9  2  2  0  0  0  0
  9 14  1  0  0  0  0
 10  4  1  0  0  0  0
 11  8  1  0  0  0  0
 12 10  2  0  0  0  0
 13 12  1  0  0  0  0
 14 15  1  1  0  0  0
 15  8  1  0  0  0  0
 16  9  1  0  0  0  0
 17 21  1  0  0  0  0
 17 19  1  0  0  0  0
 19 22  1  6  0  0  0
 20 17  2  0  0  0  0
 21 18  1  6  0  0  0
 21 19  1  0  0  0  0
 21 16  1  0  0  0  0
 22 26  1  0  0  0  0
 24 23  1  1  0  0  0
 25 26  1  0  0  0  0
 25 24  1  0  0  0  0
 26 24  1  0  0  0  0
 26 27  1  1  0  0  0
 29 28  1  0  0  0  0
 30 33  2  0  0  0  0
 30 31  1  0  0  0  0
 31 35  2  0  0  0  0
 32 36  1  0  0  0  0
 32 34  2  0  0  0  0
 33 32  1  0  0  0  0
 34 29  1  0  0  0  0
 35 34  1  0  0  0  0
 36 37  1  0  0  0  0
 38 36  2  0  0  0  0
 40 39  1  0  0  0  0
 40 29  1  0  0  0  0
M  END
>  <MODEL>
2

>  <REMARK>
 VINA RESULT:      -7.9      2.706      6.952
  Name = 
  8 active torsions:
  status: ('A' for Active; 'I' for Inactive)
    1  A    between atoms: C_3  and  N_7
    2  A    between atoms: C_3  and  C_11
    3  A    between atoms: N_7  and  C_9
    4  A    between atoms: N_7  and  C_27
    5  A    between atoms: C_15  and  C_17
    6  A    between atoms: C_20  and  O_26
    7  A    between atoms: O_26  and  C_32
    8  A    between atoms: N_36  and  C_37
                            x       y       z     vdW  Elec       q    Type
                         _______ _______ _______ _____ _____    ______ ____

>  <TORSDO>
F 8

$$$$
=
 OpenBabel11062413103D

 40 45  0  0  1  0  0  0  0  0999 V2000
  183.6710  177.2390  135.4480 C   0  0  0  0  0  1  0  0  0  0  0  0
  187.1190  174.6110  134.6330 O   0  0  0  0  0  0  0  0  0  0  0  0
  182.9960  177.4010  137.8980 C   0  0  2  0  0  3  0  0  0  0  0  0
  184.6730  173.4330  137.0720 C   0  0  2  0  0  3  0  0  0  0  0  0
  183.7670  172.2380  137.2330 C   0  0  0  0  0  3  0  0  0  0  0  0
  184.9280  175.9830  137.2570 C   0  0  1  0  0  3  0  0  0  0  0  0
  184.1520  177.2550  136.8980 C   0  0  1  0  0  3  0  0  0  0  0  0
  185.0670  171.0480  135.6300 O   0  0  0  0  0  0  0  0  0  0  0  0
  186.2450  174.6260  135.5440 C   0  0  0  0  0  0  0  0  0  0  0  0
  184.0320  174.7640  137.3450 C   0  0  0  0  0  0  0  0  0  0  0  0
  184.0070  171.1180  136.5470 C   0  0  0  0  0  3  0  0  0  0  0  0
  182.7270  174.8840  137.6650 C   0  0  0  0  0  3  0  0  0  0  0  0
  182.0290  176.2150  137.8150 C   0  0  0  0  0  2  0  0  0  0  0  0
  185.2980  173.4620  135.6780 C   0  0  1  0  0  3  0  0  0  0  0  0
  185.9970  172.1220  135.4510 C   0  0  0  0  0  2  0  0  0  0  0  0
  186.1110  175.7830  136.3990 N   0  0  0  0  0  0  0  0  0  0  0  0
  187.4350  177.4540  137.7570 C   0  0  0  0  0  0  0  0  0  0  0  0
  187.2220  177.6610  135.3090 O   0  0  0  0  0  1  0  0  0  0  0  0
  188.3890  176.4560  137.0720 C   0  0  1  0  0  3  0  0  0  0  0  0
  187.1340  178.2030  138.6720 O   0  0  0  0  0  0  0  0  0  0  0  0
  187.1650  176.8000  136.4080 C   0  0  2  0  0  0  0  0  0  0  0  0
  189.4830  177.1560  136.5460 O   0  0  0  0  0  0  0  0  0  0  0  0
  191.2530  174.2700  137.7480 O   0  0  0  0  0  1  0  0  0  0  0  0
  190.6190  175.4980  137.9450 C   0  0  1  0  0  3  0  0  0  0  0  0
  191.6230  176.6280  137.7150 C   0  0  0  0  0  2  0  0  0  0  0  0
  190.5900  176.3040  136.6600 C   0  0  2  0  0  0  0  0  0  0  0  0
  191.0290  175.6390  135.5110 O   0  0  0  0  0  1  0  0  0  0  0  0
  182.2360  178.7110  137.7260 C   0  0  0  0  0  2  0  0  0  0  0  0
  182.5160  179.6300  138.8230 N   0  0  0  0  0  0  0  0  0  0  0  0
  184.2940  178.4700  142.4990 C   0  0  0  0  0  3  0  0  0  0  0  0
  185.0830  178.8390  141.4110 C   0  0  0  0  0  3  0  0  0  0  0  0
  182.2820  178.7660  141.1590 C   0  0  0  0  0  0  0  0  0  0  0  0
  182.9050  178.4330  142.3710 C   0  0  0  0  0  3  0  0  0  0  0  0
  183.0860  179.1690  140.0600 C   0  0  0  0  0  0  0  0  0  0  0  0
  184.4820  179.1890  140.2020 C   0  0  0  0  0  3  0  0  0  0  0  0
  180.8130  178.6250  141.0810 C   0  0  0  0  0  0  0  0  0  0  0  0
  180.0490  179.5200  141.5270 O   0  0  0  0  0  1  0  0  0  0  0  0
  180.2560  177.5160  140.4550 O   0  0  0  0  0  0  0  0  0  0  0  0
  180.9730  181.3760  138.9910 O   0  0  0  0  0  1  0  0  0  0  0  0
  182.2750  181.0490  138.6110 C   0  0  0  0  0  2  0  0  0  0  0  0
  2  9  2  0  0  0  0
  3 28  1  6  0  0  0
  4  5  1  6  0  0  0
  4 10  1  0  0  0  0
  6 10  1  6  0  0  0
  7  1  1  6  0  0  0
  7  6  1  0  0  0  0
  7  3  1  0  0  0  0
  8 11  1  0  0  0  0
  9 14  1  0  0  0  0
  9 16  1  0  0  0  0
 10 12  2  0  0  0  0
 11  5  2  0  0  0  0
 12 13  1  0  0  0  0
 13  3  1  0  0  0  0
 14 15  1  1  0  0  0
 14  4  1  0  0  0  0
 15  8  1  0  0  0  0
 16 21  1  0  0  0  0
 16  6  1  0  0  0  0
 17 20  2  0  0  0  0
 19 22  1  6  0  0  0
 19 17  1  0  0  0  0
 21 18  1  6  0  0  0
 21 19  1  0  0  0  0
 21 17  1  0  0  0  0
 22 26  1  0  0  0  0
 24 23  1  6  0  0  0
 25 24  1  0  0  0  0
 26 27  1  6  0  0  0
 26 25  1  0  0  0  0
 26 24  1  0  0  0  0
 28 29  1  0  0  0  0
 29 34  1  0  0  0  0
 31 30  2  0  0  0  0
 32 33  2  0  0  0  0
 33 30  1  0  0  0  0
 34 35  2  0  0  0  0
 34 32  1  0  0  0  0
 35 31  1  0  0  0  0
 36 32  1  0  0  0  0
 36 37  1  0  0  0  0
 38 36  2  0  0  0  0
 40 29  1  0  0  0  0
 40 39  1  0  0  0  0
M  END
>  <MODEL>
3

>  <REMARK>
 VINA RESULT:      -7.9      3.678      7.605
  Name = 
  8 active torsions:
  status: ('A' for Active; 'I' for Inactive)
    1  A    between atoms: C_3  and  N_7
    2  A    between atoms: C_3  and  C_11
    3  A    between atoms: N_7  and  C_9
    4  A    between atoms: N_7  and  C_27
    5  A    between atoms: C_15  and  C_17
    6  A    between atoms: C_20  and  O_26
    7  A    between atoms: O_26  and  C_32
    8  A    between atoms: N_36  and  C_37
                            x       y       z     vdW  Elec       q    Type
                         _______ _______ _______ _____ _____    ______ ____

>  <TORSDO>
F 8

$$$$
=
 OpenBabel11062413103D

 40 45  0  0  1  0  0  0  0  0999 V2000
  188.5620  178.8370  137.8100 C   0  0  0  0  0  1  0  0  0  0  0  0
  192.0390  177.9560  140.3780 O   0  0  0  0  0  0  0  0  0  0  0  0
  186.9300  176.9060  137.5090 C   0  0  2  0  0  3  0  0  0  0  0  0
  190.9970  175.3510  138.0440 C   0  0  2  0  0  3  0  0  0  0  0  0
  191.6140  174.5870  136.9000 C   0  0  0  0  0  3  0  0  0  0  0  0
  188.9330  176.5960  138.9370 C   0  0  1  0  0  3  0  0  0  0  0  0
  187.9000  177.6220  138.4590 C   0  0  1  0  0  3  0  0  0  0  0  0
  193.7810  175.2250  137.6560 O   0  0  0  0  0  0  0  0  0  0  0  0
  191.2980  177.2330  139.6550 C   0  0  0  0  0  0  0  0  0  0  0  0
  189.6130  175.8790  137.7880 C   0  0  0  0  0  0  0  0  0  0  0  0
  192.9420  174.5330  136.7700 C   0  0  0  0  0  3  0  0  0  0  0  0
  188.9880  175.7210  136.6030 C   0  0  0  0  0  3  0  0  0  0  0  0
  187.6540  176.3520  136.2780 C   0  0  0  0  0  2  0  0  0  0  0  0
  191.8940  176.5090  138.4770 C   0  0  1  0  0  3  0  0  0  0  0  0
  193.2760  175.9370  138.7910 C   0  0  0  0  0  2  0  0  0  0  0  0
  189.8790  177.1640  139.9180 N   0  0  0  0  0  0  0  0  0  0  0  0
  188.9870  176.6330  142.2230 C   0  0  0  0  0  0  0  0  0  0  0  0
  188.4770  178.7700  141.1020 O   0  0  0  0  0  1  0  0  0  0  0  0
  190.2040  177.5730  142.3300 C   0  0  1  0  0  3  0  0  0  0  0  0
  188.2730  175.7420  142.6510 O   0  0  0  0  0  0  0  0  0  0  0  0
  189.3520  177.6840  141.1820 C   0  0  2  0  0  0  0  0  0  0  0  0
  189.9310  178.5680  143.2800 O   0  0  0  0  0  0  0  0  0  0  0  0
  191.8710  176.4930  145.4790 O   0  0  0  0  0  1  0  0  0  0  0  0
  190.6570  176.9150  144.9350 C   0  0  1  0  0  3  0  0  0  0  0  0
  190.1390  178.1170  145.7250 C   0  0  0  0  0  2  0  0  0  0  0  0
  190.7760  178.3170  144.3690 C   0  0  2  0  0  0  0  0  0  0  0  0
  192.0670  178.8550  144.3370 O   0  0  0  0  0  1  0  0  0  0  0  0
  185.7700  177.7970  137.0780 C   0  0  0  0  0  2  0  0  0  0  0  0
  184.4920  177.2430  137.5120 N   0  0  0  0  0  0  0  0  0  0  0  0
  180.9990  179.5560  138.1980 C   0  0  0  0  0  3  0  0  0  0  0  0
  181.2200  178.9470  136.9630 C   0  0  0  0  0  3  0  0  0  0  0  0
  183.1440  178.7310  139.0040 C   0  0  0  0  0  0  0  0  0  0  0  0
  181.9550  179.4480  139.2070 C   0  0  0  0  0  3  0  0  0  0  0  0
  183.3540  178.0870  137.7550 C   0  0  0  0  0  0  0  0  0  0  0  0
  182.3880  178.2150  136.7460 C   0  0  0  0  0  3  0  0  0  0  0  0
  184.1410  178.7310  140.0950 C   0  0  0  0  0  0  0  0  0  0  0  0
  185.1120  179.5320  140.0890 O   0  0  0  0  0  0  0  0  0  0  0  0
  183.9810  177.8760  141.1800 O   0  0  0  0  0  1  0  0  0  0  0  0
  183.3170  175.4670  138.4730 O   0  0  0  0  0  1  0  0  0  0  0  0
  184.3710  175.7970  137.6200 C   0  0  0  0  0  2  0  0  0  0  0  0
  3 28  1  6  0  0  0
  3  7  1  0  0  0  0
  4  5  1  6  0  0  0
  4 14  1  0  0  0  0
  6 10  1  6  0  0  0
  6 16  1  0  0  0  0
  7  1  1  6  0  0  0
  7  6  1  0  0  0  0
  8 15  1  0  0  0  0
  9 16  1  0  0  0  0
  9  2  2  0  0  0  0
 10  4  1  0  0  0  0
 11  5  2  0  0  0  0
 11  8  1  0  0  0  0
 12 10  2  0  0  0  0
 13 12  1  0  0  0  0
 13  3  1  0  0  0  0
 14 15  1  1  0  0  0
 14  9  1  0  0  0  0
 16 21  1  0  0  0  0
 17 19  1  0  0  0  0
 17 20  2  0  0  0  0
 19 22  1  1  0  0  0
 21 18  1  6  0  0  0
 21 17  1  0  0  0  0
 21 19  1  0  0  0  0
 22 26  1  0  0  0  0
 24 23  1  1  0  0  0
 24 25  1  0  0  0  0
 26 27  1  6  0  0  0
 26 24  1  0  0  0  0
 26 25  1  0  0  0  0
 28 29  1  0  0  0  0
 29 40  1  0  0  0  0
 29 34  1  0  0  0  0
 30 33  1  0  0  0  0
 31 30  2  0  0  0  0
 32 33  2  0  0  0  0
 32 36  1  0  0  0  0
 34 32  1  0  0  0  0
 35 31  1  0  0  0  0
 35 34  2  0  0  0  0
 36 38  1  0  0  0  0
 37 36  2  0  0  0  0
 40 39  1  0  0  0  0
M  END
>  <MODEL>
4

>  <REMARK>
 VINA RESULT:      -7.7      2.946      9.373
  Name = 
  8 active torsions:
  status: ('A' for Active; 'I' for Inactive)
    1  A    between atoms: C_3  and  N_7
    2  A    between atoms: C_3  and  C_11
    3  A    between atoms: N_7  and  C_9
    4  A    between atoms: N_7  and  C_27
    5  A    between atoms: C_15  and  C_17
    6  A    between atoms: C_20  and  O_26
    7  A    between atoms: O_26  and  C_32
    8  A    between atoms: N_36  and  C_37
                            x       y       z     vdW  Elec       q    Type
                         _______ _______ _______ _____ _____    ______ ____

>  <TORSDO>
F 8

$$$$
=
 OpenBabel11062413103D

 40 45  0  0  1  0  0  0  0  0999 V2000
  187.1240  178.0690  135.5930 C   0  0  0  0  0  1  0  0  0  0  0  0
  190.8480  177.3000  137.8290 O   0  0  0  0  0  0  0  0  0  0  0  0
  185.1160  176.6950  136.3420 C   0  0  2  0  0  3  0  0  0  0  0  0
  188.8050  174.4030  136.9610 C   0  0  2  0  0  3  0  0  0  0  0  0
  188.9800  173.1270  136.1770 C   0  0  0  0  0  3  0  0  0  0  0  0
  187.2890  176.4070  137.5010 C   0  0  1  0  0  3  0  0  0  0  0  0
  186.4000  177.4190  136.7700 C   0  0  1  0  0  3  0  0  0  0  0  0
  191.3460  173.3810  136.3140 O   0  0  0  0  0  0  0  0  0  0  0  0
  189.8340  176.5910  137.5780 C   0  0  0  0  0  0  0  0  0  0  0  0
  187.5320  175.1540  136.6850 C   0  0  0  0  0  0  0  0  0  0  0  0
  190.2060  172.6660  135.9150 C   0  0  0  0  0  3  0  0  0  0  0  0
  186.6360  174.7400  135.7660 C   0  0  0  0  0  3  0  0  0  0  0  0
  185.4160  175.5420  135.3770 C   0  0  0  0  0  2  0  0  0  0  0  0
  189.9890  175.3440  136.7490 C   0  0  1  0  0  3  0  0  0  0  0  0
  191.2640  174.5760  137.0970 C   0  0  0  0  0  2  0  0  0  0  0  0
  188.5270  177.0190  138.0240 N   0  0  0  0  0  0  0  0  0  0  0  0
  187.0490  178.2490  139.6640 C   0  0  0  0  0  0  0  0  0  0  0  0
  189.0640  179.2980  138.7030 O   0  0  0  0  0  1  0  0  0  0  0  0
  188.3020  177.7100  140.3820 C   0  0  1  0  0  3  0  0  0  0  0  0
  185.8720  178.5660  139.6440 O   0  0  0  0  0  0  0  0  0  0  0  0
  188.4150  178.0990  139.0060 C   0  0  2  0  0  0  0  0  0  0  0  0
  188.7960  178.6980  141.2450 O   0  0  0  0  0  0  0  0  0  0  0  0
  190.2390  176.0100  143.1430 O   0  0  0  0  0  1  0  0  0  0  0  0
  189.2690  176.5310  142.2850 C   0  0  1  0  0  3  0  0  0  0  0  0
  188.1530  177.1700  143.1110 C   0  0  0  0  0  2  0  0  0  0  0  0
  189.1800  178.0400  142.4210 C   0  0  2  0  0  0  0  0  0  0  0  0
  190.1590  178.6390  143.2210 O   0  0  0  0  0  1  0  0  0  0  0  0
  184.0890  177.6390  135.7270 C   0  0  0  0  0  2  0  0  0  0  0  0
  182.8000  177.5240  136.3980 N   0  0  0  0  0  0  0  0  0  0  0  0
  182.2300  178.3180  140.5290 C   0  0  0  0  0  3  0  0  0  0  0  0
  182.4940  179.3540  139.6340 C   0  0  0  0  0  3  0  0  0  0  0  0
  182.4270  176.6910  138.7280 C   0  0  0  0  0  0  0  0  0  0  0  0
  182.1990  176.9990  140.0770 C   0  0  0  0  0  3  0  0  0  0  0  0
  182.6680  177.7500  137.8110 C   0  0  0  0  0  0  0  0  0  0  0  0
  182.7080  179.0710  138.2850 C   0  0  0  0  0  3  0  0  0  0  0  0
  182.4560  175.2640  138.3440 C   0  0  0  0  0  0  0  0  0  0  0  0
  183.5430  174.6350  138.2600 O   0  0  0  0  0  1  0  0  0  0  0  0
  181.2650  174.5810  138.1270 O   0  0  0  0  0  0  0  0  0  0  0  0
  181.7350  175.9880  134.9970 O   0  0  0  0  0  1  0  0  0  0  0  0
  181.6240  177.2470  135.5860 C   0  0  0  0  0  2  0  0  0  0  0  0
  3 28  1  6  0  0  0
  3  7  1  0  0  0  0
  4  5  1  6  0  0  0
  6 10  1  6  0  0  0
  6 16  1  0  0  0  0
  7  1  1  6  0  0  0
  7  6  1  0  0  0  0
  8 15  1  0  0  0  0
  9  2  2  0  0  0  0
  9 16  1  0  0  0  0
 10  4  1  0  0  0  0
 11  5  2  0  0  0  0
 11  8  1  0  0  0  0
 12 10  2  0  0  0  0
 13 12  1  0  0  0  0
 13  3  1  0  0  0  0
 14  4  1  0  0  0  0
 14 15  1  1  0  0  0
 14  9  1  0  0  0  0
 16 21  1  0  0  0  0
 17 19  1  0  0  0  0
 19 22  1  1  0  0  0
 20 17  2  0  0  0  0
 21 18  1  6  0  0  0
 21 17  1  0  0  0  0
 21 19  1  0  0  0  0
 22 26  1  0  0  0  0
 24 26  1  0  0  0  0
 24 25  1  0  0  0  0
 24 23  1  1  0  0  0
 26 25  1  0  0  0  0
 26 27  1  1  0  0  0
 28 29  1  0  0  0  0
 29 34  1  0  0  0  0
 31 30  2  0  0  0  0
 32 33  2  0  0  0  0
 33 30  1  0  0  0  0
 34 35  2  0  0  0  0
 34 32  1  0  0  0  0
 35 31  1  0  0  0  0
 36 32  1  0  0  0  0
 37 36  1  0  0  0  0
 38 36  2  0  0  0  0
 39 40  1  0  0  0  0
 40 29  1  0  0  0  0
M  END
>  <MODEL>
5

>  <REMARK>
 VINA RESULT:      -7.4      2.986      8.920
  Name = 
  8 active torsions:
  status: ('A' for Active; 'I' for Inactive)
    1  A    between atoms: C_3  and  N_7
    2  A    between atoms: C_3  and  C_11
    3  A    between atoms: N_7  and  C_9
    4  A    between atoms: N_7  and  C_27
    5  A    between atoms: C_15  and  C_17
    6  A    between atoms: C_20  and  O_26
    7  A    between atoms: O_26  and  C_32
    8  A    between atoms: N_36  and  C_37
                            x       y       z     vdW  Elec       q    Type
                         _______ _______ _______ _____ _____    ______ ____

>  <TORSDO>
F 8

$$$$
=
 OpenBabel11062413103D

 40 45  0  0  1  0  0  0  0  0999 V2000
  186.9280  178.0800  135.7940 C   0  0  0  0  0  1  0  0  0  0  0  0
  190.8360  177.1770  137.6310 O   0  0  0  0  0  0  0  0  0  0  0  0
  184.9810  176.6960  136.6720 C   0  0  2  0  0  3  0  0  0  0  0  0
  188.6780  174.3410  136.8410 C   0  0  2  0  0  3  0  0  0  0  0  0
  188.7600  173.0990  135.9900 C   0  0  0  0  0  3  0  0  0  0  0  0
  187.2500  176.3360  137.6060 C   0  0  1  0  0  3  0  0  0  0  0  0
  186.3100  177.3870  137.0070 C   0  0  1  0  0  3  0  0  0  0  0  0
  191.1310  173.3220  135.9110 O   0  0  0  0  0  0  0  0  0  0  0  0
  189.7920  176.4910  137.4480 C   0  0  0  0  0  0  0  0  0  0  0  0
  187.3960  175.1170  136.7180 C   0  0  0  0  0  0  0  0  0  0  0  0
  189.9490  172.6370  135.5930 C   0  0  0  0  0  3  0  0  0  0  0  0
  186.4110  174.7520  135.8730 C   0  0  0  0  0  3  0  0  0  0  0  0
  185.1710  175.5830  135.6360 C   0  0  0  0  0  2  0  0  0  0  0  0
  189.8510  175.2780  136.5560 C   0  0  1  0  0  3  0  0  0  0  0  0
  191.1420  174.4830  136.7490 C   0  0  0  0  0  2  0  0  0  0  0  0
  188.5400  176.9120  138.0340 N   0  0  0  0  0  0  0  0  0  0  0  0
  187.2990  177.9910  139.9520 C   0  0  0  0  0  0  0  0  0  0  0  0
  189.0560  179.1960  138.7110 O   0  0  0  0  0  1  0  0  0  0  0  0
  188.6850  177.5090  140.4240 C   0  0  1  0  0  3  0  0  0  0  0  0
  186.1190  178.2340  140.1450 O   0  0  0  0  0  0  0  0  0  0  0  0
  188.5380  177.9490  139.0670 C   0  0  2  0  0  0  0  0  0  0  0  0
  189.2620  178.4970  141.2330 O   0  0  0  0  0  0  0  0  0  0  0  0
  190.3690  175.6190  143.0760 O   0  0  0  0  0  1  0  0  0  0  0  0
  189.3960  176.5520  142.7160 C   0  0  1  0  0  3  0  0  0  0  0  0
  189.5230  177.7850  143.6110 C   0  0  0  0  0  2  0  0  0  0  0  0
  190.0350  177.8230  142.1890 C   0  0  2  0  0  0  0  0  0  0  0  0
  191.4200  177.7790  142.0020 O   0  0  0  0  0  1  0  0  0  0  0  0
  183.9140  177.6770  136.1980 C   0  0  0  0  0  2  0  0  0  0  0  0
  182.7790  177.7040  137.1140 N   0  0  0  0  0  0  0  0  0  0  0  0
  180.0730  180.9600  137.4210 C   0  0  0  0  0  3  0  0  0  0  0  0
  179.9850  180.0560  136.3620 C   0  0  0  0  0  3  0  0  0  0  0  0
  182.0310  179.7900  138.2740 C   0  0  0  0  0  0  0  0  0  0  0  0
  181.0890  180.8260  138.3660 C   0  0  0  0  0  3  0  0  0  0  0  0
  181.9220  178.8530  137.2120 C   0  0  0  0  0  0  0  0  0  0  0  0
  180.9010  179.0090  136.2620 C   0  0  0  0  0  3  0  0  0  0  0  0
  183.1230  179.7650  139.2700 C   0  0  0  0  0  0  0  0  0  0  0  0
  184.1800  180.4260  139.0940 O   0  0  0  0  0  0  0  0  0  0  0  0
  182.9670  179.0480  140.4510 O   0  0  0  0  0  1  0  0  0  0  0  0
  181.6760  175.6450  137.1340 O   0  0  0  0  0  1  0  0  0  0  0  0
  182.4860  176.5020  137.8800 C   0  0  0  0  0  2  0  0  0  0  0  0
  3 28  1  6  0  0  0
  3  7  1  0  0  0  0
  4  5  1  6  0  0  0
  6 10  1  6  0  0  0
  6 16  1  0  0  0  0
  7  1  1  6  0  0  0
  7  6  1  0  0  0  0
  8 15  1  0  0  0  0
  9  2  2  0  0  0  0
  9 16  1  0  0  0  0
 10  4  1  0  0  0  0
 11  8  1  0  0  0  0
 11  5  2  0  0  0  0
 12 10  2  0  0  0  0
 13 12  1  0  0  0  0
 13  3  1  0  0  0  0
 14 15  1  1  0  0  0
 14  4  1  0  0  0  0
 14  9  1  0  0  0  0
 16 21  1  0  0  0  0
 17 20  2  0  0  0  0
 17 19  1  0  0  0  0
 19 22  1  1  0  0  0
 21 18  1  6  0  0  0
 21 17  1  0  0  0  0
 21 19  1  0  0  0  0
 22 26  1  0  0  0  0
 24 23  1  1  0  0  0
 24 25  1  0  0  0  0
 26 27  1  6  0  0  0
 26 24  1  0  0  0  0
 26 25  1  0  0  0  0
 28 29  1  0  0  0  0
 29 34  1  0  0  0  0
 29 40  1  0  0  0  0
 30 33  1  0  0  0  0
 31 30  2  0  0  0  0
 32 33  2  0  0  0  0
 32 36  1  0  0  0  0
 34 32  1  0  0  0  0
 35 31  1  0  0  0  0
 35 34  2  0  0  0  0
 36 38  1  0  0  0  0
 37 36  2  0  0  0  0
 39 40  1  0  0  0  0
M  END
>  <MODEL>
6

>  <REMARK>
 VINA RESULT:      -7.4      3.075      9.128
  Name = 
  8 active torsions:
  status: ('A' for Active; 'I' for Inactive)
    1  A    between atoms: C_3  and  N_7
    2  A    between atoms: C_3  and  C_11
    3  A    between atoms: N_7  and  C_9
    4  A    between atoms: N_7  and  C_27
    5  A    between atoms: C_15  and  C_17
    6  A    between atoms: C_20  and  O_26
    7  A    between atoms: O_26  and  C_32
    8  A    between atoms: N_36  and  C_37
                            x       y       z     vdW  Elec       q    Type
                         _______ _______ _______ _____ _____    ______ ____

>  <TORSDO>
F 8

$$$$
=
 OpenBabel11062413103D

 40 45  0  0  1  0  0  0  0  0999 V2000
  184.1850  179.9010  139.0980 C   0  0  0  0  0  1  0  0  0  0  0  0
  181.1020  179.0970  142.1490 O   0  0  0  0  0  0  0  0  0  0  0  0
  185.9110  178.0530  138.8000 C   0  0  2  0  0  3  0  0  0  0  0  0
  184.5300  178.1450  142.9630 C   0  0  2  0  0  3  0  0  0  0  0  0
  185.5400  178.4770  144.0320 C   0  0  0  0  0  3  0  0  0  0  0  0
  184.0910  177.7630  140.4600 C   0  0  1  0  0  3  0  0  0  0  0  0
  184.4470  178.3960  139.1100 C   0  0  1  0  0  3  0  0  0  0  0  0
  183.7890  179.3240  145.4090 O   0  0  0  0  0  0  0  0  0  0  0  0
  182.2930  178.7060  142.0070 C   0  0  0  0  0  0  0  0  0  0  0  0
  185.0600  178.1550  141.5570 C   0  0  0  0  0  0  0  0  0  0  0  0
  185.1390  179.0120  145.1890 C   0  0  0  0  0  3  0  0  0  0  0  0
  186.3360  178.4840  141.2700 C   0  0  0  0  0  3  0  0  0  0  0  0
  186.8590  178.6280  139.8590 C   0  0  0  0  0  2  0  0  0  0  0  0
  183.3220  179.0780  143.0420 C   0  0  1  0  0  3  0  0  0  0  0  0
  182.7640  179.0020  144.4630 C   0  0  0  0  0  2  0  0  0  0  0  0
  182.6750  177.9700  140.8230 N   0  0  0  0  0  0  0  0  0  0  0  0
  181.1690  178.3550  138.8310 C   0  0  0  0  0  0  0  0  0  0  0  0
  180.6330  176.6680  140.5470 O   0  0  0  0  0  1  0  0  0  0  0  0
  182.0340  177.1000  138.6050 C   0  0  1  0  0  3  0  0  0  0  0  0
  180.5630  179.3330  138.4260 O   0  0  0  0  0  0  0  0  0  0  0  0
  181.6380  177.4270  139.9440 C   0  0  2  0  0  0  0  0  0  0  0  0
  181.2340  176.0860  138.0580 O   0  0  0  0  0  0  0  0  0  0  0  0
  183.9290  173.7550  137.5930 O   0  0  0  0  0  1  0  0  0  0  0  0
  183.4300  175.0050  137.9640 C   0  0  1  0  0  3  0  0  0  0  0  0
  183.3380  175.9010  136.7290 C   0  0  0  0  0  2  0  0  0  0  0  0
  182.0900  175.2710  137.3050 C   0  0  2  0  0  0  0  0  0  0  0  0
  181.5290  174.1970  136.6060 O   0  0  0  0  0  1  0  0  0  0  0  0
  186.3380  178.5120  137.4100 C   0  0  0  0  0  2  0  0  0  0  0  0
  187.6160  177.9210  137.0310 N   0  0  0  0  0  0  0  0  0  0  0  0
  188.1080  173.7430  136.4710 C   0  0  0  0  0  3  0  0  0  0  0  0
  186.9940  174.4050  135.9570 C   0  0  0  0  0  3  0  0  0  0  0  0
  188.9010  175.8190  137.4660 C   0  0  0  0  0  0  0  0  0  0  0  0
  189.0510  174.4460  137.2200 C   0  0  0  0  0  3  0  0  0  0  0  0
  187.7800  176.4980  136.9170 C   0  0  0  0  0  0  0  0  0  0  0  0
  186.8340  175.7730  136.1760 C   0  0  0  0  0  3  0  0  0  0  0  0
  189.9010  176.4740  138.3350 C   0  0  0  0  0  0  0  0  0  0  0  0
  189.6380  176.7520  139.5340 O   0  0  0  0  0  1  0  0  0  0  0  0
  191.1750  176.7390  137.8460 O   0  0  0  0  0  0  0  0  0  0  0  0
  188.9330  179.7180  137.7340 O   0  0  0  0  0  1  0  0  0  0  0  0
  188.7140  178.8160  136.6940 C   0  0  0  0  0  2  0  0  0  0  0  0
  3 28  1  6  0  0  0
  3  7  1  0  0  0  0
  3 13  1  0  0  0  0
  4 14  1  0  0  0  0
  4  5  1  1  0  0  0
  5 11  2  0  0  0  0
  6 16  1  0  0  0  0
  6 10  1  1  0  0  0
  7  1  1  1  0  0  0
  7  6  1  0  0  0  0
  9  2  2  0  0  0  0
  9 14  1  0  0  0  0
 10  4  1  0  0  0  0
 11  8  1  0  0  0  0
 12 10  2  0  0  0  0
 13 12  1  0  0  0  0
 14 15  1  1  0  0  0
 15  8  1  0  0  0  0
 16  9  1  0  0  0  0
 17 21  1  0  0  0  0
 19 22  1  6  0  0  0
 19 17  1  0  0  0  0
 19 21  1  0  0  0  0
 20 17  2  0  0  0  0
 21 18  1  1  0  0  0
 21 16  1  0  0  0  0
 24 23  1  6  0  0  0
 25 26  1  0  0  0  0
 25 24  1  0  0  0  0
 26 27  1  6  0  0  0
 26 24  1  0  0  0  0
 26 22  1  0  0  0  0
 29 28  1  0  0  0  0
 30 33  1  0  0  0  0
 31 35  1  0  0  0  0
 31 30  2  0  0  0  0
 32 36  1  0  0  0  0
 33 32  2  0  0  0  0
 34 29  1  0  0  0  0
 34 32  1  0  0  0  0
 35 34  2  0  0  0  0
 36 37  1  0  0  0  0
 38 36  2  0  0  0  0
 40 29  1  0  0  0  0
 40 39  1  0  0  0  0
M  END
>  <MODEL>
7

>  <REMARK>
 VINA RESULT:      -7.4      2.789      5.917
  Name = 
  8 active torsions:
  status: ('A' for Active; 'I' for Inactive)
    1  A    between atoms: C_3  and  N_7
    2  A    between atoms: C_3  and  C_11
    3  A    between atoms: N_7  and  C_9
    4  A    between atoms: N_7  and  C_27
    5  A    between atoms: C_15  and  C_17
    6  A    between atoms: C_20  and  O_26
    7  A    between atoms: O_26  and  C_32
    8  A    between atoms: N_36  and  C_37
                            x       y       z     vdW  Elec       q    Type
                         _______ _______ _______ _____ _____    ______ ____

>  <TORSDO>
F 8

$$$$
=
 OpenBabel11062413103D

 40 45  0  0  1  0  0  0  0  0999 V2000
  184.9410  179.7530  140.5960 C   0  0  0  0  0  1  0  0  0  0  0  0
  180.9470  178.7470  139.0180 O   0  0  0  0  0  0  0  0  0  0  0  0
  185.8320  178.1570  142.3690 C   0  0  2  0  0  3  0  0  0  0  0  0
  181.4570  178.3630  142.6110 C   0  0  2  0  0  3  0  0  0  0  0  0
  180.8470  178.9170  143.8740 C   0  0  0  0  0  3  0  0  0  0  0  0
  183.6080  177.7340  141.3550 C   0  0  1  0  0  3  0  0  0  0  0  0
  185.0040  178.3070  141.0850 C   0  0  1  0  0  3  0  0  0  0  0  0
  178.9310  179.6040  142.6370 O   0  0  0  0  0  0  0  0  0  0  0  0
  181.5180  178.5210  140.1210 C   0  0  0  0  0  0  0  0  0  0  0  0
  182.9590  178.3430  142.5810 C   0  0  0  0  0  0  0  0  0  0  0  0
  179.6340  179.4750  143.8440 C   0  0  0  0  0  3  0  0  0  0  0  0
  183.7070  178.8290  143.5920 C   0  0  0  0  0  3  0  0  0  0  0  0
  185.2130  178.9400  143.5320 C   0  0  0  0  0  2  0  0  0  0  0  0
  180.9480  179.1150  141.3820 C   0  0  1  0  0  3  0  0  0  0  0  0
  179.4200  179.0670  141.4040 C   0  0  0  0  0  2  0  0  0  0  0  0
  182.7460  177.7610  140.1570 N   0  0  0  0  0  0  0  0  0  0  0  0
  182.8980  177.6880  137.6350 C   0  0  0  0  0  0  0  0  0  0  0  0
  182.9500  175.6290  138.9910 O   0  0  0  0  0  1  0  0  0  0  0  0
  184.2990  177.5160  138.2540 C   0  0  1  0  0  3  0  0  0  0  0  0
  182.1510  178.0670  136.7480 O   0  0  0  0  0  0  0  0  0  0  0  0
  183.1660  177.0090  138.9720 C   0  0  2  0  0  0  0  0  0  0  0  0
  184.9790  176.4990  137.5700 O   0  0  0  0  0  0  0  0  0  0  0  0
  187.3480  178.0520  135.3610 O   0  0  0  0  0  1  0  0  0  0  0  0
  186.5200  176.9920  135.7310 C   0  0  1  0  0  3  0  0  0  0  0  0
  187.2750  176.0710  136.6900 C   0  0  0  0  0  2  0  0  0  0  0  0
  186.2300  177.0260  137.2190 C   0  0  2  0  0  0  0  0  0  0  0  0
  186.6810  178.1600  137.9040 O   0  0  0  0  0  1  0  0  0  0  0  0
  187.2880  178.5660  142.1770 C   0  0  0  0  0  2  0  0  0  0  0  0
  188.1740  177.4090  142.2530 N   0  0  0  0  0  0  0  0  0  0  0  0
  191.4290  177.1690  139.5400 C   0  0  0  0  0  3  0  0  0  0  0  0
  190.1320  176.8720  139.1250 C   0  0  0  0  0  3  0  0  0  0  0  0
  190.6310  177.5490  141.8090 C   0  0  0  0  0  0  0  0  0  0  0  0
  191.6740  177.5030  140.8710 C   0  0  0  0  0  3  0  0  0  0  0  0
  189.3060  177.2740  141.3780 C   0  0  0  0  0  0  0  0  0  0  0  0
  189.0780  176.9270  140.0380 C   0  0  0  0  0  3  0  0  0  0  0  0
  190.9850  177.8330  143.2160 C   0  0  0  0  0  0  0  0  0  0  0  0
  190.8090  178.9760  143.7130 O   0  0  0  0  0  0  0  0  0  0  0  0
  191.4670  176.8120  144.0280 O   0  0  0  0  0  1  0  0  0  0  0  0
  188.0200  177.0220  144.5520 O   0  0  0  0  0  1  0  0  0  0  0  0
  187.9290  176.4240  143.2950 C   0  0  0  0  0  2  0  0  0  0  0  0
  2  9  2  0  0  0  0
  3 28  1  6  0  0  0
  3 13  1  0  0  0  0
  4  5  1  1  0  0  0
  6 10  1  1  0  0  0
  7  1  1  1  0  0  0
  7  6  1  0  0  0  0
  7  3  1  0  0  0  0
  8 11  1  0  0  0  0
  9 16  1  0  0  0  0
  9 14  1  0  0  0  0
 10  4  1  0  0  0  0
 10 12  2  0  0  0  0
 11  5  2  0  0  0  0
 13 12  1  0  0  0  0
 14 15  1  6  0  0  0
 14  4  1  0  0  0  0
 15  8  1  0  0  0  0
 16  6  1  0  0  0  0
 17 19  1  0  0  0  0
 17 21  1  0  0  0  0
 19 22  1  6  0  0  0
 19 21  1  0  0  0  0
 20 17  2  0  0  0  0
 21 18  1  1  0  0  0
 21 16  1  0  0  0  0
 24 23  1  1  0  0  0
 24 25  1  0  0  0  0
 24 26  1  0  0  0  0
 25 26  1  0  0  0  0
 26 22  1  0  0  0  0
 26 27  1  1  0  0  0
 28 29  1  0  0  0  0
 29 40  1  0  0  0  0
 30 33  1  0  0  0  0
 31 30  2  0  0  0  0
 31 35  1  0  0  0  0
 32 36  1  0  0  0  0
 33 32  2  0  0  0  0
 34 32  1  0  0  0  0
 34 29  1  0  0  0  0
 35 34  2  0  0  0  0
 36 37  2  0  0  0  0
 36 38  1  0  0  0  0
 40 39  1  0  0  0  0
M  END
>  <MODEL>
8

>  <REMARK>
 VINA RESULT:      -7.1      1.732      2.854
  Name = 
  8 active torsions:
  status: ('A' for Active; 'I' for Inactive)
    1  A    between atoms: C_3  and  N_7
    2  A    between atoms: C_3  and  C_11
    3  A    between atoms: N_7  and  C_9
    4  A    between atoms: N_7  and  C_27
    5  A    between atoms: C_15  and  C_17
    6  A    between atoms: C_20  and  O_26
    7  A    between atoms: O_26  and  C_32
    8  A    between atoms: N_36  and  C_37
                            x       y       z     vdW  Elec       q    Type
                         _______ _______ _______ _____ _____    ______ ____

>  <TORSDO>
F 8

$$$$
=
 OpenBabel11062413103D

 40 45  0  0  1  0  0  0  0  0999 V2000
  188.7240  179.1050  138.6580 C   0  0  0  0  0  1  0  0  0  0  0  0
  191.9310  177.6580  141.3190 O   0  0  0  0  0  0  0  0  0  0  0  0
  187.3320  177.2790  137.5580 C   0  0  2  0  0  3  0  0  0  0  0  0
  191.4330  175.8530  138.1870 C   0  0  2  0  0  3  0  0  0  0  0  0
  192.2550  175.5150  136.9680 C   0  0  0  0  0  3  0  0  0  0  0  0
  189.1670  176.6480  139.1030 C   0  0  1  0  0  3  0  0  0  0  0  0
  188.1070  177.7160  138.8090 C   0  0  1  0  0  3  0  0  0  0  0  0
  194.2430  176.0020  138.1880 O   0  0  0  0  0  0  0  0  0  0  0  0
  191.3560  177.1560  140.3140 C   0  0  0  0  0  0  0  0  0  0  0  0
  190.0460  176.3600  137.9030 C   0  0  0  0  0  0  0  0  0  0  0  0
  193.5880  175.5750  137.0230 C   0  0  0  0  0  3  0  0  0  0  0  0
  189.5890  176.5430  136.6470 C   0  0  0  0  0  3  0  0  0  0  0  0
  188.2510  177.1730  136.3360 C   0  0  0  0  0  2  0  0  0  0  0  0
  192.1570  176.8660  139.0720 C   0  0  1  0  0  3  0  0  0  0  0  0
  193.5390  176.2990  139.3980 C   0  0  0  0  0  2  0  0  0  0  0  0
  189.9280  176.9340  140.3350 N   0  0  0  0  0  0  0  0  0  0  0  0
  189.4700  178.2540  142.4410 C   0  0  0  0  0  0  0  0  0  0  0  0
  189.0800  175.8220  142.3330 O   0  0  0  0  0  1  0  0  0  0  0  0
  188.1510  177.9780  141.6920 C   0  0  1  0  0  3  0  0  0  0  0  0
  190.1770  178.9390  143.1600 O   0  0  0  0  0  0  0  0  0  0  0  0
  189.2040  177.0080  141.6060 C   0  0  2  0  0  0  0  0  0  0  0  0
  187.1700  177.6000  142.6200 O   0  0  0  0  0  0  0  0  0  0  0  0
  184.6550  179.9470  143.6570 O   0  0  0  0  0  1  0  0  0  0  0  0
  185.2290  178.6750  143.6580 C   0  0  1  0  0  3  0  0  0  0  0  0
  184.6940  177.8780  142.4680 C   0  0  0  0  0  2  0  0  0  0  0  0
  186.0860  178.4670  142.4240 C   0  0  2  0  0  0  0  0  0  0  0  0
  186.2830  179.5950  141.6200 O   0  0  0  0  0  1  0  0  0  0  0  0
  186.1540  178.1960  137.2500 C   0  0  0  0  0  2  0  0  0  0  0  0
  184.9650  177.4260  136.9010 N   0  0  0  0  0  0  0  0  0  0  0  0
  181.9670  176.4310  139.7350 C   0  0  0  0  0  3  0  0  0  0  0  0
  182.4110  177.7450  139.5990 C   0  0  0  0  0  3  0  0  0  0  0  0
  183.5690  175.7000  138.0540 C   0  0  0  0  0  0  0  0  0  0  0  0
  182.5440  175.4190  138.9690 C   0  0  0  0  0  3  0  0  0  0  0  0
  184.0000  177.0450  137.8950 C   0  0  0  0  0  0  0  0  0  0  0  0
  183.4180  178.0490  138.6830 C   0  0  0  0  0  3  0  0  0  0  0  0
  184.1820  174.5610  137.3380 C   0  0  0  0  0  0  0  0  0  0  0  0
  183.5450  173.9280  136.4570 O   0  0  0  0  0  0  0  0  0  0  0  0
  185.5040  174.2140  137.5940 O   0  0  0  0  0  1  0  0  0  0  0  0
  183.4450  177.4950  135.1280 O   0  0  0  0  0  1  0  0  0  0  0  0
  184.7360  177.1150  135.4980 C   0  0  0  0  0  2  0  0  0  0  0  0
  3 28  1  6  0  0  0
  3  7  1  0  0  0  0
  4  5  1  6  0  0  0
  4 14  1  0  0  0  0
  5 11  2  0  0  0  0
  6 10  1  6  0  0  0
  6 16  1  0  0  0  0
  7  1  1  6  0  0  0
  7  6  1  0  0  0  0
  8 15  1  0  0  0  0
  9 16  1  0  0  0  0
  9  2  2  0  0  0  0
 10  4  1  0  0  0  0
 11  8  1  0  0  0  0
 12 10  2  0  0  0  0
 13 12  1  0  0  0  0
 13  3  1  0  0  0  0
 14 15  1  1  0  0  0
 14  9  1  0  0  0  0
 16 21  1  0  0  0  0
 17 20  2  0  0  0  0
 19 17  1  0  0  0  0
 19 22  1  1  0  0  0
 21 19  1  0  0  0  0
 21 18  1  1  0  0  0
 21 17  1  0  0  0  0
 24 23  1  6  0  0  0
 25 24  1  0  0  0  0
 26 27  1  6  0  0  0
 26 25  1  0  0  0  0
 26 22  1  0  0  0  0
 26 24  1  0  0  0  0
 29 28  1  0  0  0  0
 29 34  1  0  0  0  0
 31 30  1  0  0  0  0
 32 33  1  0  0  0  0
 33 30  2  0  0  0  0
 34 32  2  0  0  0  0
 34 35  1  0  0  0  0
 35 31  2  0  0  0  0
 36 38  1  0  0  0  0
 36 32  1  0  0  0  0
 37 36  2  0  0  0  0
 39 40  1  0  0  0  0
 40 29  1  0  0  0  0
M  END
>  <MODEL>
9

>  <REMARK>
 VINA RESULT:      -7.0      3.215      9.238
  Name = 
  8 active torsions:
  status: ('A' for Active; 'I' for Inactive)
    1  A    between atoms: C_3  and  N_7
    2  A    between atoms: C_3  and  C_11
    3  A    between atoms: N_7  and  C_9
    4  A    between atoms: N_7  and  C_27
    5  A    between atoms: C_15  and  C_17
    6  A    between atoms: C_20  and  O_26
    7  A    between atoms: O_26  and  C_32
    8  A    between atoms: N_36  and  C_37
                            x       y       z     vdW  Elec       q    Type
                         _______ _______ _______ _____ _____    ______ ____

>  <TORSDO>
F 8

$$$$
