=
 OpenBabel11062417013D

 26 27  0  0  1  0  0  0  0  0999 V2000
  183.2990  178.5390  142.0070 C   0  0  0  0  0  0  0  0  0  0  0  0
  184.6530  178.2340  142.2280 C   0  0  0  0  0  3  0  0  0  0  0  0
  184.3690  178.5890  144.6060 C   0  0  0  0  0  0  0  0  0  0  0  0
  183.0290  178.9220  144.3960 C   0  0  0  0  0  3  0  0  0  0  0  0
  182.4970  178.9020  143.1040 C   0  0  0  0  0  3  0  0  0  0  0  0
  185.1840  178.2560  143.5200 C   0  0  0  0  0  3  0  0  0  0  0  0
  182.7370  178.5680  140.6060 C   0  0  1  0  0  0  0  0  0  0  0  0
  182.6180  177.2680  140.1070 O   0  0  0  0  0  1  0  0  0  0  0  0
  181.4180  179.1870  140.6120 N   0  0  0  0  0  1  0  0  0  0  0  0
  183.6810  179.3660  139.7100 C   0  0  0  0  0  2  0  0  0  0  0  0
  184.0740  178.6110  138.5710 O   0  0  0  0  0  0  0  0  0  0  0  0
  186.2990  178.6600  139.1280 O   0  0  0  0  0  1  0  0  0  0  0  0
  185.7460  177.4270  137.2790 O   0  0  0  0  0  0  0  0  0  0  0  0
  185.4020  178.2420  138.3520 C   0  0  0  0  0  0  0  0  0  0  0  0
  184.9430  178.6320  145.9790 C   0  0  0  0  0  2  0  0  0  0  0  0
  185.9140  177.5610  146.1420 N   0  0  0  0  0  2  0  0  0  0  0  0
  189.9690  177.6890  147.3350 C   0  0  2  0  0  3  0  0  0  0  0  0
  188.8100  177.9620  148.2670 C   0  0  0  0  0  3  0  0  0  0  0  0
  188.2660  177.5000  145.5030 C   0  0  0  0  0  2  0  0  0  0  0  0
  187.5530  178.1430  147.8300 C   0  0  0  0  0  3  0  0  0  0  0  0
  189.6420  178.0380  145.8800 C   0  0  0  0  0  2  0  0  0  0  0  0
  187.2070  178.1840  146.3620 C   0  0  2  0  0  3  0  0  0  0  0  0
  190.3510  176.2880  147.4260 N   0  0  0  0  0  2  0  0  0  0  0  0
  191.7250  176.1860  146.9620 C   0  0  0  0  0  2  0  0  0  0  0  0
  193.0980  176.4520  148.7350 O   0  0  0  0  0  1  0  0  0  0  0  0
  192.5290  175.4990  147.9590 N   0  0  0  0  0  2  0  0  0  0  0  0
  1  2  2  0  0  0  0
  1  5  1  0  0  0  0
  2  6  1  0  0  0  0
  3 15  1  0  0  0  0
  4  3  1  0  0  0  0
  5  4  2  0  0  0  0
  6  3  2  0  0  0  0
  7  8  1  6  0  0  0
  7  9  1  0  0  0  0
  7  1  1  0  0  0  0
 10  7  1  0  0  0  0
 11 10  1  0  0  0  0
 13 14  2  0  0  0  0
 14 11  1  0  0  0  0
 14 12  1  0  0  0  0
 15 16  1  0  0  0  0
 17 23  1  6  0  0  0
 17 18  1  0  0  0  0
 19 21  1  0  0  0  0
 19 22  1  0  0  0  0
 20 18  2  0  0  0  0
 21 17  1  0  0  0  0
 22 16  1  1  0  0  0
 22 20  1  0  0  0  0
 24 23  1  0  0  0  0
 24 26  1  0  0  0  0
 26 25  1  0  0  0  0
M  END
>  <MODEL>
1

>  <REMARK>
 VINA RESULT:      -7.4      0.000      0.000
  Name = 
  10 active torsions:
  status: ('A' for Active; 'I' for Inactive)
    1  A    between atoms: C_1  and  C_3
    2  A    between atoms: C_1  and  C_7
    3  A    between atoms: N_2  and  C_17
    4  A    between atoms: N_2  and  C_21
    5  A    between atoms: C_5  and  N_6
    6  A    between atoms: N_6  and  C_19
    7  A    between atoms: C_7  and  O_24
    8  A    between atoms: C_12  and  C_17
    9  A    between atoms: N_16  and  C_19
   10  A    between atoms: O_24  and  C_25
                            x       y       z     vdW  Elec       q    Type
                         _______ _______ _______ _____ _____    ______ ____

>  <TORSDO>
F 10

$$$$
=
 OpenBabel11062417013D

 26 27  0  0  1  0  0  0  0  0999 V2000
  185.7070  178.5100  145.0770 C   0  0  0  0  0  0  0  0  0  0  0  0
  186.1030  178.6240  146.4200 C   0  0  0  0  0  3  0  0  0  0  0  0
  188.1140  177.3570  145.9590 C   0  0  0  0  0  0  0  0  0  0  0  0
  187.7170  177.2120  144.6270 C   0  0  0  0  0  3  0  0  0  0  0  0
  186.5180  177.7810  144.1890 C   0  0  0  0  0  3  0  0  0  0  0  0
  187.3010  178.0540  146.8580 C   0  0  0  0  0  3  0  0  0  0  0  0
  184.3870  179.0790  144.6140 C   0  0  1  0  0  0  0  0  0  0  0  0
  183.4430  179.0070  145.6420 O   0  0  0  0  0  1  0  0  0  0  0  0
  184.5530  180.4740  144.2320 N   0  0  0  0  0  1  0  0  0  0  0  0
  183.8910  178.2700  143.4180 C   0  0  0  0  0  2  0  0  0  0  0  0
  183.6870  179.0990  142.2810 O   0  0  0  0  0  0  0  0  0  0  0  0
  183.7380  177.7260  140.4440 O   0  0  0  0  0  1  0  0  0  0  0  0
  185.1450  179.5320  140.3960 O   0  0  0  0  0  0  0  0  0  0  0  0
  184.1750  178.7560  141.0190 C   0  0  0  0  0  0  0  0  0  0  0  0
  189.3790  176.7310  146.4330 C   0  0  0  0  0  2  0  0  0  0  0  0
  190.4000  177.7540  146.6050 N   0  0  0  0  0  2  0  0  0  0  0  0
  191.4920  176.8400  142.6220 C   0  0  2  0  0  3  0  0  0  0  0  0
  191.5580  175.8470  143.7600 C   0  0  0  0  0  3  0  0  0  0  0  0
  190.8210  178.5440  144.3370 C   0  0  0  0  0  2  0  0  0  0  0  0
  191.4290  176.2070  145.0470 C   0  0  0  0  0  3  0  0  0  0  0  0
  191.6720  178.2850  143.0980 C   0  0  0  0  0  2  0  0  0  0  0  0
  191.3050  177.6490  145.4740 C   0  0  2  0  0  3  0  0  0  0  0  0
  190.2180  176.7110  141.9310 N   0  0  0  0  0  2  0  0  0  0  0  0
  190.4100  177.2070  140.5780 C   0  0  0  0  0  2  0  0  0  0  0  0
  188.5950  178.3860  141.2260 O   0  0  0  0  0  1  0  0  0  0  0  0
  189.2010  177.8770  140.1270 N   0  0  0  0  0  2  0  0  0  0  0  0
  1  2  1  0  0  0  0
  2  6  2  0  0  0  0
  3 15  1  0  0  0  0
  3  6  1  0  0  0  0
  4  3  2  0  0  0  0
  5  4  1  0  0  0  0
  5  1  2  0  0  0  0
  7  9  1  6  0  0  0
  7  1  1  0  0  0  0
  7  8  1  0  0  0  0
 10  7  1  0  0  0  0
 11 10  1  0  0  0  0
 12 14  1  0  0  0  0
 13 14  2  0  0  0  0
 14 11  1  0  0  0  0
 15 16  1  0  0  0  0
 17 23  1  1  0  0  0
 17 21  1  0  0  0  0
 17 18  1  0  0  0  0
 18 20  2  0  0  0  0
 19 22  1  0  0  0  0
 20 22  1  0  0  0  0
 21 19  1  0  0  0  0
 22 16  1  1  0  0  0
 24 23  1  0  0  0  0
 26 24  1  0  0  0  0
 26 25  1  0  0  0  0
M  END
>  <MODEL>
2

>  <REMARK>
 VINA RESULT:      -7.4      3.059      5.002
  Name = 
  10 active torsions:
  status: ('A' for Active; 'I' for Inactive)
    1  A    between atoms: C_1  and  C_3
    2  A    between atoms: C_1  and  C_7
    3  A    between atoms: N_2  and  C_17
    4  A    between atoms: N_2  and  C_21
    5  A    between atoms: C_5  and  N_6
    6  A    between atoms: N_6  and  C_19
    7  A    between atoms: C_7  and  O_24
    8  A    between atoms: C_12  and  C_17
    9  A    between atoms: N_16  and  C_19
   10  A    between atoms: O_24  and  C_25
                            x       y       z     vdW  Elec       q    Type
                         _______ _______ _______ _____ _____    ______ ____

>  <TORSDO>
F 10

$$$$
=
 OpenBabel11062417013D

 26 27  0  0  1  0  0  0  0  0999 V2000
  183.3110  178.5920  142.0730 C   0  0  0  0  0  0  0  0  0  0  0  0
  182.5420  178.9190  143.2030 C   0  0  0  0  0  3  0  0  0  0  0  0
  184.4780  178.6390  144.6300 C   0  0  0  0  0  0  0  0  0  0  0  0
  185.2460  178.2850  143.5180 C   0  0  0  0  0  3  0  0  0  0  0  0
  184.6650  178.2560  142.2470 C   0  0  0  0  0  3  0  0  0  0  0  0
  183.1230  178.9450  144.4730 C   0  0  0  0  0  3  0  0  0  0  0  0
  182.6730  178.5100  140.7070 C   0  0  1  0  0  0  0  0  0  0  0  0
  183.1580  179.5330  139.8860 O   0  0  0  0  0  1  0  0  0  0  0  0
  182.9840  177.2290  140.0880 N   0  0  0  0  0  1  0  0  0  0  0  0
  181.1610  178.6610  140.8570 C   0  0  0  0  0  2  0  0  0  0  0  0
  180.6670  179.7290  140.0580 O   0  0  0  0  0  0  0  0  0  0  0  0
  179.8050  180.8610  141.8580 O   0  0  0  0  0  1  0  0  0  0  0  0
  179.5340  181.8560  139.8130 O   0  0  0  0  0  0  0  0  0  0  0  0
  179.9980  180.8200  140.6160 C   0  0  0  0  0  0  0  0  0  0  0  0
  185.0890  178.6470  145.9880 C   0  0  0  0  0  2  0  0  0  0  0  0
  186.0560  177.5650  146.0980 N   0  0  0  0  0  2  0  0  0  0  0  0
  190.1320  177.6360  147.2230 C   0  0  2  0  0  3  0  0  0  0  0  0
  188.9920  177.8950  148.1810 C   0  0  0  0  0  3  0  0  0  0  0  0
  188.3960  177.5020  145.4170 C   0  0  0  0  0  2  0  0  0  0  0  0
  187.7290  178.0950  147.7700 C   0  0  0  0  0  3  0  0  0  0  0  0
  189.7820  178.0210  145.7820 C   0  0  0  0  0  2  0  0  0  0  0  0
  187.3580  178.1740  146.3110 C   0  0  2  0  0  3  0  0  0  0  0  0
  190.5050  176.2300  147.2740 N   0  0  0  0  0  2  0  0  0  0  0  0
  191.8820  176.1330  146.8160 C   0  0  0  0  0  2  0  0  0  0  0  0
  192.8850  176.7940  148.7280 O   0  0  0  0  0  1  0  0  0  0  0  0
  192.7360  175.7200  147.9170 N   0  0  0  0  0  2  0  0  0  0  0  0
  1  5  2  0  0  0  0
  1  2  1  0  0  0  0
  2  6  2  0  0  0  0
  3 15  1  0  0  0  0
  4  3  2  0  0  0  0
  5  4  1  0  0  0  0
  6  3  1  0  0  0  0
  7  8  1  6  0  0  0
  7 10  1  0  0  0  0
  7  1  1  0  0  0  0
  9  7  1  0  0  0  0
 11 14  1  0  0  0  0
 11 10  1  0  0  0  0
 13 14  2  0  0  0  0
 14 12  1  0  0  0  0
 15 16  1  0  0  0  0
 17 23  1  6  0  0  0
 17 18  1  0  0  0  0
 19 21  1  0  0  0  0
 19 22  1  0  0  0  0
 20 18  2  0  0  0  0
 21 17  1  0  0  0  0
 22 16  1  1  0  0  0
 22 20  1  0  0  0  0
 24 23  1  0  0  0  0
 24 26  1  0  0  0  0
 26 25  1  0  0  0  0
M  END
>  <MODEL>
3

>  <REMARK>
 VINA RESULT:      -7.3      1.862      2.905
  Name = 
  10 active torsions:
  status: ('A' for Active; 'I' for Inactive)
    1  A    between atoms: C_1  and  C_3
    2  A    between atoms: C_1  and  C_7
    3  A    between atoms: N_2  and  C_17
    4  A    between atoms: N_2  and  C_21
    5  A    between atoms: C_5  and  N_6
    6  A    between atoms: N_6  and  C_19
    7  A    between atoms: C_7  and  O_24
    8  A    between atoms: C_12  and  C_17
    9  A    between atoms: N_16  and  C_19
   10  A    between atoms: O_24  and  C_25
                            x       y       z     vdW  Elec       q    Type
                         _______ _______ _______ _____ _____    ______ ____

>  <TORSDO>
F 10

$$$$
=
 OpenBabel11062417013D

 26 27  0  0  1  0  0  0  0  0999 V2000
  181.9020  178.9060  142.6480 C   0  0  0  0  0  0  0  0  0  0  0  0
  182.4300  178.9560  143.9500 C   0  0  0  0  0  3  0  0  0  0  0  0
  184.6120  178.3210  143.1150 C   0  0  0  0  0  0  0  0  0  0  0  0
  184.0930  178.2390  141.8200 C   0  0  0  0  0  3  0  0  0  0  0  0
  182.7450  178.5250  141.5880 C   0  0  0  0  0  3  0  0  0  0  0  0
  183.7770  178.6690  144.1810 C   0  0  0  0  0  3  0  0  0  0  0  0
  180.4350  179.1640  142.4030 C   0  0  1  0  0  0  0  0  0  0  0  0
  179.6610  178.1910  143.0430 O   0  0  0  0  0  1  0  0  0  0  0  0
  180.0650  180.4710  142.9250 N   0  0  0  0  0  1  0  0  0  0  0  0
  180.1670  179.1100  140.9010 C   0  0  0  0  0  2  0  0  0  0  0  0
  179.8180  180.3920  140.3920 O   0  0  0  0  0  0  0  0  0  0  0  0
  181.5400  180.4180  138.8760 O   0  0  0  0  0  1  0  0  0  0  0  0
  180.1020  182.1990  138.8050 O   0  0  0  0  0  0  0  0  0  0  0  0
  180.5170  180.9840  139.3400 C   0  0  0  0  0  0  0  0  0  0  0  0
  186.0430  177.9940  143.3670 C   0  0  0  0  0  2  0  0  0  0  0  0
  186.1870  177.4050  144.6900 N   0  0  0  0  0  2  0  0  0  0  0  0
  189.6990  177.6920  147.0290 C   0  0  2  0  0  3  0  0  0  0  0  0
  188.3010  177.7370  147.6030 C   0  0  0  0  0  3  0  0  0  0  0  0
  188.6130  177.6250  144.7680 C   0  0  0  0  0  2  0  0  0  0  0  0
  187.2050  177.8740  146.8390 C   0  0  0  0  0  3  0  0  0  0  0  0
  189.7550  178.2150  145.5900 C   0  0  0  0  0  2  0  0  0  0  0  0
  187.2830  178.0940  145.3490 C   0  0  2  0  0  3  0  0  0  0  0  0
  190.2030  176.3280  147.0710 N   0  0  0  0  0  2  0  0  0  0  0  0
  191.5950  176.3710  146.6540 C   0  0  0  0  0  2  0  0  0  0  0  0
  192.8010  176.5850  148.5520 O   0  0  0  0  0  1  0  0  0  0  0  0
  192.4190  175.6720  147.6260 N   0  0  0  0  0  2  0  0  0  0  0  0
  1  2  1  0  0  0  0
  2  6  2  0  0  0  0
  3 15  1  0  0  0  0
  3  6  1  0  0  0  0
  4  3  2  0  0  0  0
  5  4  1  0  0  0  0
  5  1  2  0  0  0  0
  7  1  1  0  0  0  0
  7  9  1  1  0  0  0
  7  8  1  0  0  0  0
 10  7  1  0  0  0  0
 11 10  1  0  0  0  0
 12 14  1  0  0  0  0
 13 14  2  0  0  0  0
 14 11  1  0  0  0  0
 15 16  1  0  0  0  0
 17 23  1  6  0  0  0
 17 18  1  0  0  0  0
 19 22  1  0  0  0  0
 19 21  1  0  0  0  0
 20 18  2  0  0  0  0
 21 17  1  0  0  0  0
 22 16  1  6  0  0  0
 22 20  1  0  0  0  0
 24 23  1  0  0  0  0
 24 26  1  0  0  0  0
 26 25  1  0  0  0  0
M  END
>  <MODEL>
4

>  <REMARK>
 VINA RESULT:      -7.1      2.142      2.982
  Name = 
  10 active torsions:
  status: ('A' for Active; 'I' for Inactive)
    1  A    between atoms: C_1  and  C_3
    2  A    between atoms: C_1  and  C_7
    3  A    between atoms: N_2  and  C_17
    4  A    between atoms: N_2  and  C_21
    5  A    between atoms: C_5  and  N_6
    6  A    between atoms: N_6  and  C_19
    7  A    between atoms: C_7  and  O_24
    8  A    between atoms: C_12  and  C_17
    9  A    between atoms: N_16  and  C_19
   10  A    between atoms: O_24  and  C_25
                            x       y       z     vdW  Elec       q    Type
                         _______ _______ _______ _____ _____    ______ ____

>  <TORSDO>
F 10

$$$$
=
 OpenBabel11062417013D

 26 27  0  0  1  0  0  0  0  0999 V2000
  187.3350  177.9930  146.2390 C   0  0  0  0  0  0  0  0  0  0  0  0
  187.4080  177.6180  144.8870 C   0  0  0  0  0  3  0  0  0  0  0  0
  185.1730  178.4700  144.5070 C   0  0  0  0  0  0  0  0  0  0  0  0
  185.0780  178.8210  145.8570 C   0  0  0  0  0  3  0  0  0  0  0  0
  186.1510  178.5800  146.7190 C   0  0  0  0  0  3  0  0  0  0  0  0
  186.3340  177.8590  144.0260 C   0  0  0  0  0  3  0  0  0  0  0  0
  188.4730  177.6860  147.1830 C   0  0  1  0  0  0  0  0  0  0  0  0
  188.4640  178.5820  148.2570 O   0  0  0  0  0  1  0  0  0  0  0  0
  188.3360  176.3330  147.7060 N   0  0  0  0  0  1  0  0  0  0  0  0
  189.7930  177.8190  146.4280 C   0  0  0  0  0  2  0  0  0  0  0  0
  190.4760  176.5730  146.3590 O   0  0  0  0  0  0  0  0  0  0  0  0
  191.9770  177.1140  148.0070 O   0  0  0  0  0  1  0  0  0  0  0  0
  192.4540  175.2400  146.7800 O   0  0  0  0  0  0  0  0  0  0  0  0
  191.6460  176.3310  147.0810 C   0  0  0  0  0  0  0  0  0  0  0  0
  184.0220  178.7050  143.5920 C   0  0  0  0  0  2  0  0  0  0  0  0
  182.7830  178.7200  144.3540 N   0  0  0  0  0  2  0  0  0  0  0  0
  179.6710  178.1490  141.5470 C   0  0  2  0  0  3  0  0  0  0  0  0
  181.1250  178.3090  141.1680 C   0  0  0  0  0  3  0  0  0  0  0  0
  180.3900  178.5730  143.9130 C   0  0  0  0  0  2  0  0  0  0  0  0
  182.0630  178.7150  142.0390 C   0  0  0  0  0  3  0  0  0  0  0  0
  179.3280  178.8640  142.8580 C   0  0  0  0  0  2  0  0  0  0  0  0
  181.7280  179.1380  143.4470 C   0  0  2  0  0  3  0  0  0  0  0  0
  179.3490  176.7350  141.6660 N   0  0  0  0  0  2  0  0  0  0  0  0
  179.5730  176.1320  140.3620 C   0  0  0  0  0  2  0  0  0  0  0  0
  180.0000  174.1980  139.2760 O   0  0  0  0  0  1  0  0  0  0  0  0
  179.7670  174.6990  140.5120 N   0  0  0  0  0  2  0  0  0  0  0  0
  1  5  1  0  0  0  0
  1  7  1  0  0  0  0
  2  1  2  0  0  0  0
  3  4  1  0  0  0  0
  4  5  2  0  0  0  0
  6  3  2  0  0  0  0
  6  2  1  0  0  0  0
  7  9  1  1  0  0  0
  7  8  1  0  0  0  0
 10  7  1  0  0  0  0
 11 10  1  0  0  0  0
 11 14  1  0  0  0  0
 13 14  2  0  0  0  0
 14 12  1  0  0  0  0
 15 16  1  0  0  0  0
 15  3  1  0  0  0  0
 17 23  1  1  0  0  0
 17 21  1  0  0  0  0
 18 17  1  0  0  0  0
 18 20  2  0  0  0  0
 20 22  1  0  0  0  0
 21 19  1  0  0  0  0
 22 19  1  0  0  0  0
 22 16  1  1  0  0  0
 24 26  1  0  0  0  0
 24 23  1  0  0  0  0
 25 26  1  0  0  0  0
M  END
>  <MODEL>
5

>  <REMARK>
 VINA RESULT:      -7.1      3.138      9.446
  Name = 
  10 active torsions:
  status: ('A' for Active; 'I' for Inactive)
    1  A    between atoms: C_1  and  C_3
    2  A    between atoms: C_1  and  C_7
    3  A    between atoms: N_2  and  C_17
    4  A    between atoms: N_2  and  C_21
    5  A    between atoms: C_5  and  N_6
    6  A    between atoms: N_6  and  C_19
    7  A    between atoms: C_7  and  O_24
    8  A    between atoms: C_12  and  C_17
    9  A    between atoms: N_16  and  C_19
   10  A    between atoms: O_24  and  C_25
                            x       y       z     vdW  Elec       q    Type
                         _______ _______ _______ _____ _____    ______ ____

>  <TORSDO>
F 10

$$$$
=
 OpenBabel11062417013D

 26 27  0  0  1  0  0  0  0  0999 V2000
  186.6360  178.2750  142.0520 C   0  0  0  0  0  0  0  0  0  0  0  0
  186.9900  177.2450  142.9400 C   0  0  0  0  0  3  0  0  0  0  0  0
  189.1460  177.0250  141.8600 C   0  0  0  0  0  0  0  0  0  0  0  0
  188.7950  178.0280  140.9530 C   0  0  0  0  0  3  0  0  0  0  0  0
  187.5450  178.6470  141.0460 C   0  0  0  0  0  3  0  0  0  0  0  0
  188.2390  176.6260  142.8460 C   0  0  0  0  0  3  0  0  0  0  0  0
  185.2670  178.9090  142.1170 C   0  0  1  0  0  0  0  0  0  0  0  0
  185.0720  179.7500  141.0170 O   0  0  0  0  0  1  0  0  0  0  0  0
  184.2400  177.8770  142.1030 N   0  0  0  0  0  1  0  0  0  0  0  0
  185.1620  179.7290  143.4010 C   0  0  0  0  0  2  0  0  0  0  0  0
  185.3590  178.9150  144.5510 O   0  0  0  0  0  0  0  0  0  0  0  0
  183.2570  178.9990  145.4660 O   0  0  0  0  0  0  0  0  0  0  0  0
  185.0050  179.0010  146.9460 O   0  0  0  0  0  1  0  0  0  0  0  0
  184.5010  178.9690  145.6500 C   0  0  0  0  0  0  0  0  0  0  0  0
  190.4680  176.3480  141.7480 C   0  0  0  0  0  2  0  0  0  0  0  0
  191.5350  177.3300  141.8560 N   0  0  0  0  0  2  0  0  0  0  0  0
  190.6680  177.4320  145.9940 C   0  0  2  0  0  3  0  0  0  0  0  0
  190.5970  178.6420  145.0910 C   0  0  0  0  0  3  0  0  0  0  0  0
  191.5310  176.1750  144.0030 C   0  0  0  0  0  2  0  0  0  0  0  0
  191.0900  178.6470  143.8420 C   0  0  0  0  0  3  0  0  0  0  0  0
  191.6850  176.3980  145.5030 C   0  0  0  0  0  2  0  0  0  0  0  0
  191.8450  177.4740  143.2680 C   0  0  2  0  0  3  0  0  0  0  0  0
  189.3540  176.8150  146.0910 N   0  0  0  0  0  2  0  0  0  0  0  0
  188.3980  177.8780  146.3570 C   0  0  0  0  0  2  0  0  0  0  0  0
  188.3100  176.6760  148.2660 O   0  0  0  0  0  1  0  0  0  0  0  0
  188.0950  177.9200  147.7780 N   0  0  0  0  0  2  0  0  0  0  0  0
  1  7  1  0  0  0  0
  1  2  1  0  0  0  0
  3  6  1  0  0  0  0
  4  5  1  0  0  0  0
  4  3  2  0  0  0  0
  5  1  2  0  0  0  0
  6  2  2  0  0  0  0
  7  8  1  6  0  0  0
  7 10  1  0  0  0  0
  9  7  1  0  0  0  0
 10 11  1  0  0  0  0
 11 14  1  0  0  0  0
 12 14  2  0  0  0  0
 14 13  1  0  0  0  0
 15 16  1  0  0  0  0
 15  3  1  0  0  0  0
 17 23  1  6  0  0  0
 18 17  1  0  0  0  0
 19 21  1  0  0  0  0
 20 18  2  0  0  0  0
 21 17  1  0  0  0  0
 22 16  1  6  0  0  0
 22 20  1  0  0  0  0
 22 19  1  0  0  0  0
 23 24  1  0  0  0  0
 24 26  1  0  0  0  0
 26 25  1  0  0  0  0
M  END
>  <MODEL>
6

>  <REMARK>
 VINA RESULT:      -7.0      3.506      5.169
  Name = 
  10 active torsions:
  status: ('A' for Active; 'I' for Inactive)
    1  A    between atoms: C_1  and  C_3
    2  A    between atoms: C_1  and  C_7
    3  A    between atoms: N_2  and  C_17
    4  A    between atoms: N_2  and  C_21
    5  A    between atoms: C_5  and  N_6
    6  A    between atoms: N_6  and  C_19
    7  A    between atoms: C_7  and  O_24
    8  A    between atoms: C_12  and  C_17
    9  A    between atoms: N_16  and  C_19
   10  A    between atoms: O_24  and  C_25
                            x       y       z     vdW  Elec       q    Type
                         _______ _______ _______ _____ _____    ______ ____

>  <TORSDO>
F 10

$$$$
=
 OpenBabel11062417013D

 26 27  0  0  1  0  0  0  0  0999 V2000
  182.1050  178.9770  142.7020 C   0  0  0  0  0  0  0  0  0  0  0  0
  182.9570  178.6020  141.6490 C   0  0  0  0  0  3  0  0  0  0  0  0
  184.7710  178.2450  143.2120 C   0  0  0  0  0  0  0  0  0  0  0  0
  183.9420  178.6430  144.2650 C   0  0  0  0  0  3  0  0  0  0  0  0
  182.6180  179.0110  144.0110 C   0  0  0  0  0  3  0  0  0  0  0  0
  184.2800  178.2350  141.9030 C   0  0  0  0  0  3  0  0  0  0  0  0
  180.6900  179.4250  142.4240 C   0  0  1  0  0  0  0  0  0  0  0  0
  180.3620  180.5170  143.2340 O   0  0  0  0  0  1  0  0  0  0  0  0
  180.5590  179.8240  141.0300 N   0  0  0  0  0  1  0  0  0  0  0  0
  179.7370  178.2710  142.7260 C   0  0  0  0  0  2  0  0  0  0  0  0
  179.0500  177.8480  141.5540 O   0  0  0  0  0  0  0  0  0  0  0  0
  179.2100  175.5630  141.6750 O   0  0  0  0  0  1  0  0  0  0  0  0
  179.6070  176.4970  139.6230 O   0  0  0  0  0  0  0  0  0  0  0  0
  179.2830  176.6020  140.9710 C   0  0  0  0  0  0  0  0  0  0  0  0
  186.1880  177.8740  143.4770 C   0  0  0  0  0  2  0  0  0  0  0  0
  186.3200  177.3690  144.8350 N   0  0  0  0  0  2  0  0  0  0  0  0
  189.9230  177.6630  147.0300 C   0  0  2  0  0  3  0  0  0  0  0  0
  188.5500  177.7210  147.6580 C   0  0  0  0  0  3  0  0  0  0  0  0
  188.7490  177.5770  144.8150 C   0  0  0  0  0  2  0  0  0  0  0  0
  187.4250  177.8560  146.9370 C   0  0  0  0  0  3  0  0  0  0  0  0
  189.9240  178.1700  145.5840 C   0  0  0  0  0  2  0  0  0  0  0  0
  187.4450  178.0590  145.4420 C   0  0  2  0  0  3  0  0  0  0  0  0
  190.4220  176.2960  147.0670 N   0  0  0  0  0  2  0  0  0  0  0  0
  191.8730  176.3660  147.0020 C   0  0  0  0  0  2  0  0  0  0  0  0
  193.1820  176.3490  148.8430 O   0  0  0  0  0  1  0  0  0  0  0  0
  192.4500  175.5350  148.0460 N   0  0  0  0  0  2  0  0  0  0  0  0
  1  5  1  0  0  0  0
  2  6  1  0  0  0  0
  2  1  2  0  0  0  0
  3 15  1  0  0  0  0
  3  4  1  0  0  0  0
  5  4  2  0  0  0  0
  6  3  2  0  0  0  0
  7  9  1  6  0  0  0
  7  1  1  0  0  0  0
  7 10  1  0  0  0  0
  7  8  1  0  0  0  0
 11 10  1  0  0  0  0
 13 14  2  0  0  0  0
 14 11  1  0  0  0  0
 14 12  1  0  0  0  0
 15 16  1  0  0  0  0
 17 23  1  6  0  0  0
 17 18  1  0  0  0  0
 19 22  1  0  0  0  0
 19 21  1  0  0  0  0
 20 18  2  0  0  0  0
 21 17  1  0  0  0  0
 22 16  1  6  0  0  0
 22 20  1  0  0  0  0
 24 23  1  0  0  0  0
 24 26  1  0  0  0  0
 26 25  1  0  0  0  0
M  END
>  <MODEL>
7

>  <REMARK>
 VINA RESULT:      -7.0      2.489      3.279
  Name = 
  10 active torsions:
  status: ('A' for Active; 'I' for Inactive)
    1  A    between atoms: C_1  and  C_3
    2  A    between atoms: C_1  and  C_7
    3  A    between atoms: N_2  and  C_17
    4  A    between atoms: N_2  and  C_21
    5  A    between atoms: C_5  and  N_6
    6  A    between atoms: N_6  and  C_19
    7  A    between atoms: C_7  and  O_24
    8  A    between atoms: C_12  and  C_17
    9  A    between atoms: N_16  and  C_19
   10  A    between atoms: O_24  and  C_25
                            x       y       z     vdW  Elec       q    Type
                         _______ _______ _______ _____ _____    ______ ____

>  <TORSDO>
F 10

$$$$
=
 OpenBabel11062417013D

 26 27  0  0  1  0  0  0  0  0999 V2000
  186.5560  178.3690  141.8660 C   0  0  0  0  0  0  0  0  0  0  0  0
  186.8140  177.4910  142.9330 C   0  0  0  0  0  3  0  0  0  0  0  0
  188.9920  176.9730  142.0120 C   0  0  0  0  0  0  0  0  0  0  0  0
  188.7360  177.8200  140.9300 C   0  0  0  0  0  3  0  0  0  0  0  0
  187.5230  178.5110  140.8550 C   0  0  0  0  0  3  0  0  0  0  0  0
  188.0260  176.8000  143.0070 C   0  0  0  0  0  3  0  0  0  0  0  0
  185.2270  179.0750  141.7570 C   0  0  1  0  0  0  0  0  0  0  0  0
  185.1770  180.1510  142.6480 O   0  0  0  0  0  1  0  0  0  0  0  0
  185.0420  179.5830  140.4040 N   0  0  0  0  0  1  0  0  0  0  0  0
  184.1120  178.0890  142.0970 C   0  0  0  0  0  2  0  0  0  0  0  0
  183.0470  178.7310  142.7880 O   0  0  0  0  0  0  0  0  0  0  0  0
  180.8590  179.4140  142.8880 O   0  0  0  0  0  1  0  0  0  0  0  0
  181.5200  178.4180  140.9340 O   0  0  0  0  0  0  0  0  0  0  0  0
  181.7800  178.8740  142.2220 C   0  0  0  0  0  0  0  0  0  0  0  0
  190.2740  176.2180  142.0810 C   0  0  0  0  0  2  0  0  0  0  0  0
  191.3920  177.1480  142.0930 N   0  0  0  0  0  2  0  0  0  0  0  0
  190.6090  177.4630  146.2370 C   0  0  2  0  0  3  0  0  0  0  0  0
  190.4360  178.6030  145.2610 C   0  0  0  0  0  3  0  0  0  0  0  0
  191.5130  176.1380  144.3090 C   0  0  0  0  0  2  0  0  0  0  0  0
  190.9010  178.5590  144.0010 C   0  0  0  0  0  3  0  0  0  0  0  0
  191.6840  176.4680  145.7880 C   0  0  0  0  0  2  0  0  0  0  0  0
  191.7220  177.4040  143.4840 C   0  0  2  0  0  3  0  0  0  0  0  0
  189.3430  176.7670  146.4070 N   0  0  0  0  0  2  0  0  0  0  0  0
  188.4730  177.6390  147.1800 C   0  0  0  0  0  2  0  0  0  0  0  0
  186.4380  178.6170  147.2300 O   0  0  0  0  0  1  0  0  0  0  0  0
  187.1470  177.6600  146.5850 N   0  0  0  0  0  2  0  0  0  0  0  0
  1  2  1  0  0  0  0
  2  6  2  0  0  0  0
  3 15  1  0  0  0  0
  3  6  1  0  0  0  0
  4  3  2  0  0  0  0
  5  4  1  0  0  0  0
  5  1  2  0  0  0  0
  7  9  1  6  0  0  0
  7  1  1  0  0  0  0
  7 10  1  0  0  0  0
  7  8  1  0  0  0  0
 10 11  1  0  0  0  0
 13 14  2  0  0  0  0
 14 11  1  0  0  0  0
 14 12  1  0  0  0  0
 15 16  1  0  0  0  0
 17 23  1  6  0  0  0
 18 17  1  0  0  0  0
 19 21  1  0  0  0  0
 20 18  2  0  0  0  0
 21 17  1  0  0  0  0
 22 16  1  6  0  0  0
 22 20  1  0  0  0  0
 22 19  1  0  0  0  0
 23 24  1  0  0  0  0
 26 24  1  0  0  0  0
 26 25  1  0  0  0  0
M  END
>  <MODEL>
8

>  <REMARK>
 VINA RESULT:      -6.9      3.082      4.784
  Name = 
  10 active torsions:
  status: ('A' for Active; 'I' for Inactive)
    1  A    between atoms: C_1  and  C_3
    2  A    between atoms: C_1  and  C_7
    3  A    between atoms: N_2  and  C_17
    4  A    between atoms: N_2  and  C_21
    5  A    between atoms: C_5  and  N_6
    6  A    between atoms: N_6  and  C_19
    7  A    between atoms: C_7  and  O_24
    8  A    between atoms: C_12  and  C_17
    9  A    between atoms: N_16  and  C_19
   10  A    between atoms: O_24  and  C_25
                            x       y       z     vdW  Elec       q    Type
                         _______ _______ _______ _____ _____    ______ ____

>  <TORSDO>
F 10

$$$$
=
 OpenBabel11062417013D

 26 27  0  0  1  0  0  0  0  0999 V2000
  185.1450  178.6290  144.3320 C   0  0  0  0  0  0  0  0  0  0  0  0
  185.4340  178.7510  145.7020 C   0  0  0  0  0  3  0  0  0  0  0  0
  187.4830  177.4950  145.4050 C   0  0  0  0  0  0  0  0  0  0  0  0
  187.1920  177.3430  144.0470 C   0  0  0  0  0  3  0  0  0  0  0  0
  186.0280  177.9020  143.5140 C   0  0  0  0  0  3  0  0  0  0  0  0
  186.5970  178.1900  146.2340 C   0  0  0  0  0  3  0  0  0  0  0  0
  183.8630  179.1880  143.7650 C   0  0  1  0  0  0  0  0  0  0  0  0
  183.8190  180.5740  143.9450 O   0  0  0  0  0  1  0  0  0  0  0  0
  183.7810  178.9010  142.3400 N   0  0  0  0  0  1  0  0  0  0  0  0
  182.6810  178.5500  144.4910 C   0  0  0  0  0  2  0  0  0  0  0  0
  181.5660  178.3900  143.6220 O   0  0  0  0  0  0  0  0  0  0  0  0
  179.4720  178.8640  144.4300 O   0  0  0  0  0  1  0  0  0  0  0  0
  180.3710  180.4000  142.9900 O   0  0  0  0  0  0  0  0  0  0  0  0
  180.4400  179.2100  143.7060 C   0  0  0  0  0  0  0  0  0  0  0  0
  188.7110  176.8790  145.9790 C   0  0  0  0  0  2  0  0  0  0  0  0
  189.6340  177.9220  146.3990 N   0  0  0  0  0  2  0  0  0  0  0  0
  191.6370  177.0760  142.7710 C   0  0  2  0  0  3  0  0  0  0  0  0
  191.5120  176.0910  143.9120 C   0  0  0  0  0  3  0  0  0  0  0  0
  190.4950  178.7340  144.2680 C   0  0  0  0  0  2  0  0  0  0  0  0
  191.0800  176.4440  145.1330 C   0  0  0  0  0  3  0  0  0  0  0  0
  191.6140  178.5300  143.2520 C   0  0  0  0  0  2  0  0  0  0  0  0
  190.7720  177.8750  145.4980 C   0  0  2  0  0  3  0  0  0  0  0  0
  190.5580  176.8610  141.8190 N   0  0  0  0  0  2  0  0  0  0  0  0
  191.0720  177.2040  140.5020 C   0  0  0  0  0  2  0  0  0  0  0  0
  189.4030  178.2860  139.4330 O   0  0  0  0  0  1  0  0  0  0  0  0
  190.0120  177.0790  139.5160 N   0  0  0  0  0  2  0  0  0  0  0  0
  1  2  1  0  0  0  0
  2  6  2  0  0  0  0
  3 15  1  0  0  0  0
  3  6  1  0  0  0  0
  4  3  2  0  0  0  0
  5  4  1  0  0  0  0
  5  1  2  0  0  0  0
  7  9  1  6  0  0  0
  7  8  1  0  0  0  0
  7  1  1  0  0  0  0
  7 10  1  0  0  0  0
 11 14  1  0  0  0  0
 11 10  1  0  0  0  0
 13 14  2  0  0  0  0
 14 12  1  0  0  0  0
 15 16  1  0  0  0  0
 17 23  1  6  0  0  0
 17 21  1  0  0  0  0
 17 18  1  0  0  0  0
 18 20  2  0  0  0  0
 19 22  1  0  0  0  0
 20 22  1  0  0  0  0
 21 19  1  0  0  0  0
 22 16  1  1  0  0  0
 24 23  1  0  0  0  0
 25 26  1  0  0  0  0
 26 24  1  0  0  0  0
M  END
>  <MODEL>
9

>  <REMARK>
 VINA RESULT:      -6.9      3.436      5.471
  Name = 
  10 active torsions:
  status: ('A' for Active; 'I' for Inactive)
    1  A    between atoms: C_1  and  C_3
    2  A    between atoms: C_1  and  C_7
    3  A    between atoms: N_2  and  C_17
    4  A    between atoms: N_2  and  C_21
    5  A    between atoms: C_5  and  N_6
    6  A    between atoms: N_6  and  C_19
    7  A    between atoms: C_7  and  O_24
    8  A    between atoms: C_12  and  C_17
    9  A    between atoms: N_16  and  C_19
   10  A    between atoms: O_24  and  C_25
                            x       y       z     vdW  Elec       q    Type
                         _______ _______ _______ _____ _____    ______ ____

>  <TORSDO>
F 10

$$$$
