=
 OpenBabel11062417513D

 39 41  0  0  1  0  0  0  0  0999 V2000
  182.3980  179.3180  140.4270 N   0  0  0  0  0  0  0  0  0  0  0  0
  182.7890  178.0130  140.9810 C   0  0  1  0  0  3  0  0  0  0  0  0
  183.0340  178.3160  139.5540 C   0  0  2  0  0  3  0  0  0  0  0  0
  184.5820  177.0590  137.3060 C   0  0  0  0  0  2  0  0  0  0  0  0
  187.7070  177.8500  135.8840 F   0  0  0  0  0  0  0  0  0  0  0  0
  184.9770  179.6930  139.8270 O   0  0  0  0  0  0  0  0  0  0  0  0
  185.6770  176.6850  136.3260 C   0  0  0  0  0  2  0  0  0  0  0  0
  184.4450  178.7280  139.2150 C   0  0  0  0  0  0  0  0  0  0  0  0
  186.5790  178.2700  137.9310 C   0  0  0  0  0  2  0  0  0  0  0  0
  186.9860  177.2340  136.8930 C   0  0  2  0  0  0  0  0  0  0  0  0
  185.1710  178.0490  138.1820 N   0  0  0  0  0  0  0  0  0  0  0  0
  187.8090  176.1040  137.5470 C   0  0  2  0  0  3  0  0  0  0  0  0
  188.7030  176.6340  138.6630 C   0  0  0  0  0  2  0  0  0  0  0  0
  190.4800  175.5660  136.9120 S   0  0  0  0  0  0  0  0  0  0  0  0
  188.7330  175.4350  136.5790 C   0  0  0  0  0  0  0  0  0  0  0  0
  188.3220  174.8220  135.6070 O   0  0  0  0  0  0  0  0  0  0  0  0
  190.0880  176.8970  138.0870 C   0  0  2  0  0  3  0  0  0  0  0  0
  192.3240  176.8780  138.8970 O   0  0  0  0  0  0  0  0  0  0  0  0
  191.1010  176.9640  139.1780 C   0  0  0  0  0  0  0  0  0  0  0  0
  190.7070  177.1590  140.4980 O   0  0  0  0  0  1  0  0  0  0  0  0
  179.1240  180.1180  139.1650 O   0  0  0  0  0  0  0  0  0  0  0  0
  181.0210  179.2490  140.1840 N   0  0  0  0  0  2  0  0  0  0  0  0
  180.3670  180.1980  139.3420 C   0  0  0  0  0  0  0  0  0  0  0  0
  181.1340  181.2900  138.6750 C   0  0  0  0  0  2  0  0  0  0  0  0
  180.6960  182.5600  136.5460 C   0  0  0  0  0  0  0  0  0  0  0  0
  180.9100  183.8040  137.2170 N   0  0  0  0  0  2  0  0  0  0  0  0
  180.8040  181.3290  137.2590 N   0  0  0  0  0  2  0  0  0  0  0  0
  180.4120  182.5420  135.3190 O   0  0  0  0  0  0  0  0  0  0  0  0
  179.4870  185.7270  136.8440 C   0  0  0  0  0  1  0  0  0  0  0  0
  180.8170  185.0770  136.5260 C   0  0  0  0  0  2  0  0  0  0  0  0
  183.8620  178.6100  143.1940 C   0  0  0  0  0  0  0  0  0  0  0  0
  183.9610  178.1890  141.8310 N   0  0  0  0  0  2  0  0  0  0  0  0
  182.7350  178.8580  143.7020 O   0  0  0  0  0  0  0  0  0  0  0  0
  184.7870  178.8060  145.5090 C   0  0  0  0  0  1  0  0  0  0  0  0
  185.0960  178.7960  144.0190 C   0  0  1  0  0  3  0  0  0  0  0  0
  186.1950  177.7870  143.6750 C   0  0  0  0  0  2  0  0  0  0  0  0
  187.0720  177.4210  144.8660 C   0  0  0  0  0  2  0  0  0  0  0  0
  188.4880  177.1440  144.4040 C   0  0  0  0  0  2  0  0  0  0  0  0
  188.4580  176.2490  143.1840 C   0  0  0  0  0  1  0  0  0  0  0  0
  1  2  1  0  0  0  0
  2 32  1  1  0  0  0
  3  8  1  1  0  0  0
  3  1  1  0  0  0  0
  3  2  1  0  0  0  0
  4 11  1  0  0  0  0
  7 10  1  0  0  0  0
  7  4  1  0  0  0  0
  8  6  2  0  0  0  0
  9 11  1  0  0  0  0
 10  5  1  6  0  0  0
 10 12  1  0  0  0  0
 10  9  1  0  0  0  0
 11  8  1  0  0  0  0
 12 13  1  1  0  0  0
 14 17  1  0  0  0  0
 15 14  1  0  0  0  0
 15 12  1  0  0  0  0
 16 15  2  0  0  0  0
 17 13  1  0  0  0  0
 17 19  1  1  0  0  0
 18 19  2  0  0  0  0
 19 20  1  0  0  0  0
 21 23  2  0  0  0  0
 22  1  1  0  0  0  0
 23 22  1  0  0  0  0
 24 23  1  0  0  0  0
 25 26  1  0  0  0  0
 25 27  1  0  0  0  0
 27 24  1  0  0  0  0
 28 25  2  0  0  0  0
 30 29  1  0  0  0  0
 30 26  1  0  0  0  0
 31 33  2  0  0  0  0
 31 35  1  0  0  0  0
 32 31  1  0  0  0  0
 35 34  1  1  0  0  0
 36 35  1  0  0  0  0
 36 37  1  0  0  0  0
 38 37  1  0  0  0  0
 39 38  1  0  0  0  0
M  END
>  <MODEL>
1

>  <REMARK>
 VINA RESULT:      -7.4      0.000      0.000
  Name = 
  12 active torsions:
  status: ('A' for Active; 'I' for Inactive)
    1  A    between atoms: C_2  and  C_31
    2  A    between atoms: C_4  and  N_25
    3  A    between atoms: C_4  and  C_38
    4  A    between atoms: C_5  and  C_17
    5  A    between atoms: N_10  and  C_22
    6  A    between atoms: N_11  and  N_32
    7  A    between atoms: C_12  and  C_17
    8  A    between atoms: C_12  and  C_24
    9  A    between atoms: C_16  and  C_24
   10  A    between atoms: N_18  and  C_36
   11  A    between atoms: C_21  and  C_39
   12  A    between atoms: C_26  and  C_34
                            x       y       z     vdW  Elec       q    Type
                         _______ _______ _______ _____ _____    ______ ____

>  <TORSDO>
F 12

$$$$
=
 OpenBabel11062417513D

 39 41  0  0  1  0  0  0  0  0999 V2000
  187.5870  178.6050  139.7040 N   0  0  0  0  0  0  0  0  0  0  0  0
  187.8580  177.4580  140.5830 C   0  0  1  0  0  3  0  0  0  0  0  0
  188.0190  177.3220  139.1190 C   0  0  2  0  0  3  0  0  0  0  0  0
  189.0770  175.5520  136.9340 C   0  0  0  0  0  2  0  0  0  0  0  0
  192.1260  175.5770  135.1690 F   0  0  0  0  0  0  0  0  0  0  0  0
  190.1920  178.3330  139.0490 O   0  0  0  0  0  0  0  0  0  0  0  0
  189.9800  174.8710  135.9240 C   0  0  0  0  0  2  0  0  0  0  0  0
  189.4370  177.4220  138.6140 C   0  0  0  0  0  0  0  0  0  0  0  0
  191.3110  176.4300  137.2300 C   0  0  0  0  0  2  0  0  0  0  0  0
  191.4180  175.2250  136.3050 C   0  0  2  0  0  0  0  0  0  0  0  0
  189.9200  176.5070  137.6220 N   0  0  0  0  0  0  0  0  0  0  0  0
  192.0930  174.0420  137.0310 C   0  0  2  0  0  3  0  0  0  0  0  0
  193.2250  174.5120  137.9390 C   0  0  0  0  0  2  0  0  0  0  0  0
  194.4890  172.8710  136.1870 S   0  0  0  0  0  0  0  0  0  0  0  0
  192.7210  173.0720  136.0820 C   0  0  0  0  0  0  0  0  0  0  0  0
  192.0620  172.4380  135.2720 O   0  0  0  0  0  0  0  0  0  0  0  0
  194.5360  174.3980  137.1730 C   0  0  2  0  0  3  0  0  0  0  0  0
  195.6180  173.7250  139.1810 O   0  0  0  0  0  1  0  0  0  0  0  0
  195.6900  174.3910  138.1160 C   0  0  0  0  0  0  0  0  0  0  0  0
  196.8590  175.0800  137.8100 O   0  0  0  0  0  0  0  0  0  0  0  0
  184.0980  179.0290  140.4800 O   0  0  0  0  0  0  0  0  0  0  0  0
  186.1960  178.6690  139.5520 N   0  0  0  0  0  2  0  0  0  0  0  0
  185.3450  179.0040  140.6480 C   0  0  0  0  0  0  0  0  0  0  0  0
  185.9110  179.3170  141.9930 C   0  0  0  0  0  2  0  0  0  0  0  0
  184.9430  178.8800  144.2750 C   0  0  0  0  0  0  0  0  0  0  0  0
  186.1270  178.1860  144.6700 N   0  0  0  0  0  2  0  0  0  0  0  0
  184.8350  179.4330  142.9640 N   0  0  0  0  0  2  0  0  0  0  0  0
  183.9850  179.0110  145.0830 O   0  0  0  0  0  0  0  0  0  0  0  0
  187.7410  177.6390  146.3900 C   0  0  0  0  0  1  0  0  0  0  0  0
  186.2800  177.6150  145.9970 C   0  0  0  0  0  2  0  0  0  0  0  0
  189.3890  177.0950  142.5650 C   0  0  0  0  0  0  0  0  0  0  0  0
  189.1090  177.6900  141.2960 N   0  0  0  0  0  2  0  0  0  0  0  0
  188.5390  176.3470  143.1180 O   0  0  0  0  0  0  0  0  0  0  0  0
  190.7840  178.8380  143.6920 C   0  0  0  0  0  1  0  0  0  0  0  0
  190.6800  177.3810  143.2670 C   0  0  1  0  0  3  0  0  0  0  0  0
  190.9400  176.4290  144.4380 C   0  0  0  0  0  2  0  0  0  0  0  0
  191.6040  177.1070  145.6300 C   0  0  0  0  0  2  0  0  0  0  0  0
  191.1820  176.4260  146.9170 C   0  0  0  0  0  2  0  0  0  0  0  0
  192.3680  175.7050  147.5210 C   0  0  0  0  0  1  0  0  0  0  0  0
  1  2  1  0  0  0  0
  2 32  1  1  0  0  0
  3  8  1  1  0  0  0
  3  1  1  0  0  0  0
  3  2  1  0  0  0  0
  4 11  1  0  0  0  0
  7 10  1  0  0  0  0
  7  4  1  0  0  0  0
  8  6  2  0  0  0  0
  9 11  1  0  0  0  0
 10  5  1  6  0  0  0
 10 12  1  0  0  0  0
 10  9  1  0  0  0  0
 11  8  1  0  0  0  0
 12 13  1  1  0  0  0
 14 17  1  0  0  0  0
 15 14  1  0  0  0  0
 15 12  1  0  0  0  0
 16 15  2  0  0  0  0
 17 13  1  0  0  0  0
 17 19  1  1  0  0  0
 19 18  1  0  0  0  0
 20 19  2  0  0  0  0
 21 23  2  0  0  0  0
 22  1  1  0  0  0  0
 22 23  1  0  0  0  0
 23 24  1  0  0  0  0
 24 27  1  0  0  0  0
 25 26  1  0  0  0  0
 25 28  2  0  0  0  0
 26 30  1  0  0  0  0
 27 25  1  0  0  0  0
 30 29  1  0  0  0  0
 31 33  2  0  0  0  0
 31 35  1  0  0  0  0
 32 31  1  0  0  0  0
 35 34  1  1  0  0  0
 35 36  1  0  0  0  0
 36 37  1  0  0  0  0
 37 38  1  0  0  0  0
 38 39  1  0  0  0  0
M  END
>  <MODEL>
2

>  <REMARK>
 VINA RESULT:      -7.3      4.118      6.581
  Name = 
  12 active torsions:
  status: ('A' for Active; 'I' for Inactive)
    1  A    between atoms: C_2  and  C_31
    2  A    between atoms: C_4  and  N_25
    3  A    between atoms: C_4  and  C_38
    4  A    between atoms: C_5  and  C_17
    5  A    between atoms: N_10  and  C_22
    6  A    between atoms: N_11  and  N_32
    7  A    between atoms: C_12  and  C_17
    8  A    between atoms: C_12  and  C_24
    9  A    between atoms: C_16  and  C_24
   10  A    between atoms: N_18  and  C_36
   11  A    between atoms: C_21  and  C_39
   12  A    between atoms: C_26  and  C_34
                            x       y       z     vdW  Elec       q    Type
                         _______ _______ _______ _____ _____    ______ ____

>  <TORSDO>
F 12

$$$$
=
 OpenBabel11062417513D

 39 41  0  0  1  0  0  0  0  0999 V2000
  188.6330  177.7950  138.5560 N   0  0  0  0  0  0  0  0  0  0  0  0
  190.0010  177.4950  138.1070 C   0  0  1  0  0  3  0  0  0  0  0  0
  189.7740  178.1070  139.4350 C   0  0  2  0  0  3  0  0  0  0  0  0
  187.7640  178.1940  141.6660 C   0  0  0  0  0  2  0  0  0  0  0  0
  187.2000  176.0410  144.3970 F   0  0  0  0  0  0  0  0  0  0  0  0
  190.6700  176.2200  140.6120 O   0  0  0  0  0  0  0  0  0  0  0  0
  187.0060  177.9240  142.9510 C   0  0  0  0  0  2  0  0  0  0  0  0
  189.8200  177.1520  140.6020 C   0  0  0  0  0  0  0  0  0  0  0  0
  188.9860  176.5180  142.9070 C   0  0  0  0  0  2  0  0  0  0  0  0
  187.9230  177.0820  143.8380 C   0  0  2  0  0  0  0  0  0  0  0  0
  188.8850  177.2790  141.6800 N   0  0  0  0  0  0  0  0  0  0  0  0
  188.5680  177.9560  144.9340 C   0  0  2  0  0  3  0  0  0  0  0  0
  190.0050  177.5290  145.2190 C   0  0  0  0  0  2  0  0  0  0  0  0
  188.7770  177.1780  147.6130 S   0  0  0  0  0  0  0  0  0  0  0  0
  187.8540  177.8510  146.2440 C   0  0  0  0  0  0  0  0  0  0  0  0
  186.6960  178.2110  146.3820 O   0  0  0  0  0  0  0  0  0  0  0  0
  189.9980  176.5760  146.4070 C   0  0  2  0  0  3  0  0  0  0  0  0
  191.6520  177.2470  147.9790 O   0  0  0  0  0  1  0  0  0  0  0  0
  191.3560  176.4940  147.0160 C   0  0  0  0  0  0  0  0  0  0  0  0
  192.2830  175.5650  146.5540 O   0  0  0  0  0  0  0  0  0  0  0  0
  187.1180  180.1000  136.2430 O   0  0  0  0  0  0  0  0  0  0  0  0
  188.2650  178.9940  137.9320 N   0  0  0  0  0  2  0  0  0  0  0  0
  187.4080  179.0040  136.7910 C   0  0  0  0  0  0  0  0  0  0  0  0
  186.8570  177.7360  136.2320 C   0  0  0  0  0  2  0  0  0  0  0  0
  185.0840  176.2000  137.1440 C   0  0  0  0  0  0  0  0  0  0  0  0
  185.9550  175.0750  137.0080 N   0  0  0  0  0  2  0  0  0  0  0  0
  185.5240  177.5020  136.7630 N   0  0  0  0  0  2  0  0  0  0  0  0
  183.9210  176.0480  137.6040 O   0  0  0  0  0  0  0  0  0  0  0  0
  185.0430  172.9940  136.1730 C   0  0  0  0  0  1  0  0  0  0  0  0
  185.5490  173.7350  137.3910 C   0  0  0  0  0  2  0  0  0  0  0  0
  190.0810  175.2250  136.9910 C   0  0  0  0  0  0  0  0  0  0  0  0
  190.2100  176.0520  138.1500 N   0  0  0  0  0  2  0  0  0  0  0  0
  189.7660  175.7320  135.8810 O   0  0  0  0  0  0  0  0  0  0  0  0
  189.0460  172.9720  136.6680 C   0  0  0  0  0  1  0  0  0  0  0  0
  190.2850  173.7460  137.0910 C   0  0  1  0  0  3  0  0  0  0  0  0
  191.5330  173.2700  136.3430 C   0  0  0  0  0  2  0  0  0  0  0  0
  192.8290  173.8340  136.9120 C   0  0  0  0  0  2  0  0  0  0  0  0
  193.4570  174.7960  135.9230 C   0  0  0  0  0  2  0  0  0  0  0  0
  193.6220  176.1530  136.5700 C   0  0  0  0  0  1  0  0  0  0  0  0
  1  3  1  0  0  0  0
  2 32  1  1  0  0  0
  2  1  1  0  0  0  0
  2  3  1  0  0  0  0
  3  8  1  1  0  0  0
  4 11  1  0  0  0  0
  4  7  1  0  0  0  0
  7 10  1  0  0  0  0
  8  6  2  0  0  0  0
  8 11  1  0  0  0  0
  9 10  1  0  0  0  0
 10  5  1  1  0  0  0
 10 12  1  0  0  0  0
 11  9  1  0  0  0  0
 12 13  1  1  0  0  0
 12 15  1  0  0  0  0
 13 17  1  0  0  0  0
 15 16  2  0  0  0  0
 15 14  1  0  0  0  0
 17 19  1  1  0  0  0
 17 14  1  0  0  0  0
 19 18  1  0  0  0  0
 20 19  2  0  0  0  0
 21 23  2  0  0  0  0
 22  1  1  0  0  0  0
 23 22  1  0  0  0  0
 24 27  1  0  0  0  0
 24 23  1  0  0  0  0
 25 28  2  0  0  0  0
 26 25  1  0  0  0  0
 26 30  1  0  0  0  0
 27 25  1  0  0  0  0
 29 30  1  0  0  0  0
 31 35  1  0  0  0  0
 31 32  1  0  0  0  0
 33 31  2  0  0  0  0
 35 34  1  6  0  0  0
 36 37  1  0  0  0  0
 36 35  1  0  0  0  0
 38 39  1  0  0  0  0
 38 37  1  0  0  0  0
M  END
>  <MODEL>
3

>  <REMARK>
 VINA RESULT:      -7.1      4.956      8.662
  Name = 
  12 active torsions:
  status: ('A' for Active; 'I' for Inactive)
    1  A    between atoms: C_2  and  C_31
    2  A    between atoms: C_4  and  N_25
    3  A    between atoms: C_4  and  C_38
    4  A    between atoms: C_5  and  C_17
    5  A    between atoms: N_10  and  C_22
    6  A    between atoms: N_11  and  N_32
    7  A    between atoms: C_12  and  C_17
    8  A    between atoms: C_12  and  C_24
    9  A    between atoms: C_16  and  C_24
   10  A    between atoms: N_18  and  C_36
   11  A    between atoms: C_21  and  C_39
   12  A    between atoms: C_26  and  C_34
                            x       y       z     vdW  Elec       q    Type
                         _______ _______ _______ _____ _____    ______ ____

>  <TORSDO>
F 12

$$$$
=
 OpenBabel11062417513D

 39 41  0  0  1  0  0  0  0  0999 V2000
  190.5080  177.5060  141.6120 N   0  0  0  0  0  0  0  0  0  0  0  0
  190.0610  176.6600  140.4950 C   0  0  1  0  0  3  0  0  0  0  0  0
  189.1250  176.9960  141.5890 C   0  0  2  0  0  3  0  0  0  0  0  0
  186.6700  177.4850  143.2500 C   0  0  0  0  0  2  0  0  0  0  0  0
  184.2970  180.0900  143.2130 F   0  0  0  0  0  0  0  0  0  0  0  0
  188.4140  178.9320  140.3660 O   0  0  0  0  0  0  0  0  0  0  0  0
  185.3620  178.0370  143.7850 C   0  0  0  0  0  2  0  0  0  0  0  0
  188.1550  178.1110  141.2880 C   0  0  0  0  0  0  0  0  0  0  0  0
  185.9030  179.1880  141.7150 C   0  0  0  0  0  2  0  0  0  0  0  0
  184.7590  178.9000  142.6760 C   0  0  2  0  0  0  0  0  0  0  0  0
  186.9580  178.2610  142.0630 N   0  0  0  0  0  0  0  0  0  0  0  0
  183.6230  178.1420  141.9570 C   0  0  2  0  0  3  0  0  0  0  0  0
  183.7240  178.2840  140.4420 C   0  0  0  0  0  2  0  0  0  0  0  0
  181.3040  179.3760  140.9970 S   0  0  0  0  0  0  0  0  0  0  0  0
  182.2690  178.6660  142.3170 C   0  0  0  0  0  0  0  0  0  0  0  0
  181.8330  178.6100  143.4560 O   0  0  0  0  0  0  0  0  0  0  0  0
  182.8260  179.4330  140.0040 C   0  0  2  0  0  3  0  0  0  0  0  0
  181.9660  180.2920  137.9600 O   0  0  0  0  0  1  0  0  0  0  0  0
  182.5210  179.3290  138.5490 C   0  0  0  0  0  0  0  0  0  0  0  0
  182.8800  178.1930  137.8300 O   0  0  0  0  0  0  0  0  0  0  0  0
  191.7910  176.0390  144.6380 O   0  0  0  0  0  0  0  0  0  0  0  0
  191.2300  176.6730  142.4750 N   0  0  0  0  0  2  0  0  0  0  0  0
  191.1090  176.7890  143.8930 C   0  0  0  0  0  0  0  0  0  0  0  0
  190.1900  177.7930  144.5050 C   0  0  0  0  0  2  0  0  0  0  0  0
  189.2830  177.8210  146.8530 C   0  0  0  0  0  0  0  0  0  0  0  0
  187.9420  177.7930  146.3600 N   0  0  0  0  0  2  0  0  0  0  0  0
  190.3840  177.8230  145.9460 N   0  0  0  0  0  2  0  0  0  0  0  0
  189.5020  177.8430  148.0940 O   0  0  0  0  0  0  0  0  0  0  0  0
  186.0430  179.0900  147.1170 C   0  0  0  0  0  1  0  0  0  0  0  0
  186.7940  177.7830  147.2490 C   0  0  0  0  0  2  0  0  0  0  0  0
  189.8750  176.9370  137.9860 C   0  0  0  0  0  0  0  0  0  0  0  0
  189.9010  177.4880  139.3050 N   0  0  0  0  0  2  0  0  0  0  0  0
  190.0040  175.6950  137.8140 O   0  0  0  0  0  0  0  0  0  0  0  0
  189.4150  177.0470  135.5300 C   0  0  0  0  0  1  0  0  0  0  0  0
  189.7300  177.8310  136.7950 C   0  0  1  0  0  3  0  0  0  0  0  0
  188.7230  178.9620  137.0250 C   0  0  0  0  0  2  0  0  0  0  0  0
  187.3390  178.6620  136.4620 C   0  0  0  0  0  2  0  0  0  0  0  0
  186.4400  178.1180  137.5530 C   0  0  0  0  0  2  0  0  0  0  0  0
  185.9780  176.7250  137.1830 C   0  0  0  0  0  1  0  0  0  0  0  0
  1 22  1  0  0  0  0
  2 32  1  6  0  0  0
  2  3  1  0  0  0  0
  2  1  1  0  0  0  0
  3  8  1  6  0  0  0
  3  1  1  0  0  0  0
  4  7  1  0  0  0  0
  6  8  2  0  0  0  0
  8 11  1  0  0  0  0
  9 11  1  0  0  0  0
  9 10  1  0  0  0  0
 10  5  1  1  0  0  0
 10  7  1  0  0  0  0
 11  4  1  0  0  0  0
 12 13  1  6  0  0  0
 12 15  1  0  0  0  0
 12 10  1  0  0  0  0
 14 15  1  0  0  0  0
 15 16  2  0  0  0  0
 17 19  1  6  0  0  0
 17 13  1  0  0  0  0
 17 14  1  0  0  0  0
 18 19  1  0  0  0  0
 20 19  2  0  0  0  0
 22 23  1  0  0  0  0
 23 24  1  0  0  0  0
 23 21  2  0  0  0  0
 24 27  1  0  0  0  0
 25 28  2  0  0  0  0
 26 25  1  0  0  0  0
 26 30  1  0  0  0  0
 27 25  1  0  0  0  0
 29 30  1  0  0  0  0
 31 32  1  0  0  0  0
 33 31  2  0  0  0  0
 35 34  1  6  0  0  0
 35 36  1  0  0  0  0
 35 31  1  0  0  0  0
 37 36  1  0  0  0  0
 37 38  1  0  0  0  0
 39 38  1  0  0  0  0
M  END
>  <MODEL>
4

>  <REMARK>
 VINA RESULT:      -7.1      4.113      9.611
  Name = 
  12 active torsions:
  status: ('A' for Active; 'I' for Inactive)
    1  A    between atoms: C_2  and  C_31
    2  A    between atoms: C_4  and  N_25
    3  A    between atoms: C_4  and  C_38
    4  A    between atoms: C_5  and  C_17
    5  A    between atoms: N_10  and  C_22
    6  A    between atoms: N_11  and  N_32
    7  A    between atoms: C_12  and  C_17
    8  A    between atoms: C_12  and  C_24
    9  A    between atoms: C_16  and  C_24
   10  A    between atoms: N_18  and  C_36
   11  A    between atoms: C_21  and  C_39
   12  A    between atoms: C_26  and  C_34
                            x       y       z     vdW  Elec       q    Type
                         _______ _______ _______ _____ _____    ______ ____

>  <TORSDO>
F 12

$$$$
=
 OpenBabel11062417513D

 39 41  0  0  1  0  0  0  0  0999 V2000
  185.8450  177.8830  143.8020 N   0  0  0  0  0  0  0  0  0  0  0  0
  186.3810  178.9450  142.9380 C   0  0  1  0  0  3  0  0  0  0  0  0
  187.2800  178.2160  143.8590 C   0  0  2  0  0  3  0  0  0  0  0  0
  190.1710  178.5920  143.1330 C   0  0  0  0  0  2  0  0  0  0  0  0
  192.6100  176.3270  141.9770 F   0  0  0  0  0  0  0  0  0  0  0  0
  187.6020  175.9750  143.0720 O   0  0  0  0  0  0  0  0  0  0  0  0
  191.5770  178.3790  142.6080 C   0  0  0  0  0  2  0  0  0  0  0  0
  188.1030  177.1220  143.2260 C   0  0  0  0  0  0  0  0  0  0  0  0
  190.2390  176.4280  142.0560 C   0  0  0  0  0  2  0  0  0  0  0  0
  191.5310  177.1500  141.7000 C   0  0  2  0  0  0  0  0  0  0  0  0
  189.4570  177.3700  142.8280 N   0  0  0  0  0  0  0  0  0  0  0  0
  191.5260  177.5720  140.2160 C   0  0  2  0  0  3  0  0  0  0  0  0
  190.5170  176.7650  139.4060 C   0  0  0  0  0  2  0  0  0  0  0  0
  192.8760  176.1740  138.2040 S   0  0  0  0  0  0  0  0  0  0  0  0
  192.8460  177.3410  139.5510 C   0  0  0  0  0  0  0  0  0  0  0  0
  193.8600  177.9220  139.9040 O   0  0  0  0  0  0  0  0  0  0  0  0
  191.2440  175.5950  138.7570 C   0  0  2  0  0  3  0  0  0  0  0  0
  190.1150  175.8260  136.6770 O   0  0  0  0  0  0  0  0  0  0  0  0
  190.4500  175.0580  137.6150 C   0  0  0  0  0  0  0  0  0  0  0  0
  190.1130  173.7100  137.5600 O   0  0  0  0  0  1  0  0  0  0  0  0
  185.0800  178.8560  147.1820 O   0  0  0  0  0  0  0  0  0  0  0  0
  185.2380  178.5250  144.8890 N   0  0  0  0  0  2  0  0  0  0  0  0
  185.6640  178.2780  146.2290 C   0  0  0  0  0  0  0  0  0  0  0  0
  186.7870  177.3390  146.5170 C   0  0  0  0  0  2  0  0  0  0  0  0
  188.9770  177.7520  147.6860 C   0  0  0  0  0  0  0  0  0  0  0  0
  189.6970  177.1940  146.5840 N   0  0  0  0  0  2  0  0  0  0  0  0
  187.5530  177.8220  147.6540 N   0  0  0  0  0  2  0  0  0  0  0  0
  189.5980  178.1880  148.6920 O   0  0  0  0  0  0  0  0  0  0  0  0
  191.5860  176.1140  145.5230 C   0  0  0  0  0  1  0  0  0  0  0  0
  191.1460  177.1110  146.5730 C   0  0  0  0  0  2  0  0  0  0  0  0
  185.4000  178.7570  140.6120 C   0  0  0  0  0  0  0  0  0  0  0  0
  186.4270  178.4610  141.5620 N   0  0  0  0  0  2  0  0  0  0  0  0
  184.4020  179.4480  140.9500 O   0  0  0  0  0  0  0  0  0  0  0  0
  184.5060  178.9140  138.2820 C   0  0  0  0  0  1  0  0  0  0  0  0
  185.4830  178.2190  139.2180 C   0  0  1  0  0  3  0  0  0  0  0  0
  186.9090  178.2370  138.6620 C   0  0  0  0  0  2  0  0  0  0  0  0
  187.0220  177.6200  137.2730 C   0  0  0  0  0  2  0  0  0  0  0  0
  187.9090  178.4780  136.3930 C   0  0  0  0  0  2  0  0  0  0  0  0
  188.9600  179.1590  137.2420 C   0  0  0  0  0  1  0  0  0  0  0  0
  1  3  1  0  0  0  0
  1 22  1  0  0  0  0
  2 32  1  6  0  0  0
  2  1  1  0  0  0  0
  2  3  1  0  0  0  0
  3  8  1  6  0  0  0
  6  8  2  0  0  0  0
  7  4  1  0  0  0  0
  9 11  1  0  0  0  0
 10  5  1  1  0  0  0
 10  9  1  0  0  0  0
 10  7  1  0  0  0  0
 11  4  1  0  0  0  0
 11  8  1  0  0  0  0
 12 13  1  6  0  0  0
 12 10  1  0  0  0  0
 14 17  1  0  0  0  0
 14 15  1  0  0  0  0
 15 16  2  0  0  0  0
 15 12  1  0  0  0  0
 17 19  1  6  0  0  0
 17 13  1  0  0  0  0
 18 19  2  0  0  0  0
 20 19  1  0  0  0  0
 22 23  1  0  0  0  0
 23 24  1  0  0  0  0
 23 21  2  0  0  0  0
 24 27  1  0  0  0  0
 25 28  2  0  0  0  0
 26 25  1  0  0  0  0
 27 25  1  0  0  0  0
 29 30  1  0  0  0  0
 30 26  1  0  0  0  0
 31 33  2  0  0  0  0
 31 32  1  0  0  0  0
 35 34  1  6  0  0  0
 35 31  1  0  0  0  0
 36 35  1  0  0  0  0
 37 36  1  0  0  0  0
 38 39  1  0  0  0  0
 38 37  1  0  0  0  0
M  END
>  <MODEL>
5

>  <REMARK>
 VINA RESULT:      -7.0      4.070      8.347
  Name = 
  12 active torsions:
  status: ('A' for Active; 'I' for Inactive)
    1  A    between atoms: C_2  and  C_31
    2  A    between atoms: C_4  and  N_25
    3  A    between atoms: C_4  and  C_38
    4  A    between atoms: C_5  and  C_17
    5  A    between atoms: N_10  and  C_22
    6  A    between atoms: N_11  and  N_32
    7  A    between atoms: C_12  and  C_17
    8  A    between atoms: C_12  and  C_24
    9  A    between atoms: C_16  and  C_24
   10  A    between atoms: N_18  and  C_36
   11  A    between atoms: C_21  and  C_39
   12  A    between atoms: C_26  and  C_34
                            x       y       z     vdW  Elec       q    Type
                         _______ _______ _______ _____ _____    ______ ____

>  <TORSDO>
F 12

$$$$
=
 OpenBabel11062417513D

 39 41  0  0  1  0  0  0  0  0999 V2000
  186.7650  178.2810  144.2090 N   0  0  0  0  0  0  0  0  0  0  0  0
  187.1730  177.3950  145.3090 C   0  0  1  0  0  3  0  0  0  0  0  0
  186.7320  176.8200  144.0200 C   0  0  2  0  0  3  0  0  0  0  0  0
  187.7930  178.5810  141.8290 C   0  0  0  0  0  2  0  0  0  0  0  0
  190.5360  178.2120  139.6490 F   0  0  0  0  0  0  0  0  0  0  0  0
  188.4150  175.2760  143.2920 O   0  0  0  0  0  0  0  0  0  0  0  0
  188.5660  179.1140  140.6380 C   0  0  0  0  0  2  0  0  0  0  0  0
  187.8410  176.3810  143.0960 C   0  0  0  0  0  0  0  0  0  0  0  0
  189.1880  176.7920  140.9920 C   0  0  0  0  0  2  0  0  0  0  0  0
  189.2210  177.9110  139.9600 C   0  0  2  0  0  0  0  0  0  0  0  0
  188.2640  177.2250  142.0170 N   0  0  0  0  0  0  0  0  0  0  0  0
  188.4350  177.5060  138.6960 C   0  0  2  0  0  3  0  0  0  0  0  0
  188.6560  176.0400  138.3410 C   0  0  0  0  0  2  0  0  0  0  0  0
  189.5760  177.3430  136.1470 S   0  0  0  0  0  0  0  0  0  0  0  0
  188.8600  178.2770  137.4860 C   0  0  0  0  0  0  0  0  0  0  0  0
  188.7230  179.4870  137.4070 O   0  0  0  0  0  0  0  0  0  0  0  0
  189.7710  175.9560  137.3070 C   0  0  2  0  0  3  0  0  0  0  0  0
  189.6260  174.6300  135.3380 O   0  0  0  0  0  0  0  0  0  0  0  0
  189.7200  174.6490  136.5920 C   0  0  0  0  0  0  0  0  0  0  0  0
  189.8170  173.4540  137.2960 O   0  0  0  0  0  1  0  0  0  0  0  0
  183.2770  179.0520  143.7660 O   0  0  0  0  0  0  0  0  0  0  0  0
  185.4520  178.6810  144.4890 N   0  0  0  0  0  2  0  0  0  0  0  0
  184.4400  178.6630  143.4830 C   0  0  0  0  0  0  0  0  0  0  0  0
  184.7420  178.1990  142.0980 C   0  0  0  0  0  2  0  0  0  0  0  0
  184.4290  179.1950  139.8080 C   0  0  0  0  0  0  0  0  0  0  0  0
  184.0780  177.9170  139.2740 N   0  0  0  0  0  2  0  0  0  0  0  0
  184.7550  179.3340  141.1890 N   0  0  0  0  0  2  0  0  0  0  0  0
  184.4490  180.2100  139.0610 O   0  0  0  0  0  0  0  0  0  0  0  0
  182.2440  177.4840  137.7540 C   0  0  0  0  0  1  0  0  0  0  0  0
  183.7310  177.7350  137.8760 C   0  0  0  0  0  2  0  0  0  0  0  0
  189.2880  177.0340  146.6520 C   0  0  0  0  0  0  0  0  0  0  0  0
  188.6220  177.4610  145.4610 N   0  0  0  0  0  2  0  0  0  0  0  0
  188.6240  176.5900  147.6260 O   0  0  0  0  0  0  0  0  0  0  0  0
  191.3920  175.8890  147.3700 C   0  0  0  0  0  1  0  0  0  0  0  0
  190.7760  177.1420  146.7670 C   0  0  1  0  0  3  0  0  0  0  0  0
  191.4450  177.5210  145.4420 C   0  0  0  0  0  2  0  0  0  0  0  0
  191.6330  176.3370  144.5010 C   0  0  0  0  0  2  0  0  0  0  0  0
  191.8010  176.8270  143.0770 C   0  0  0  0  0  2  0  0  0  0  0  0
  191.6570  178.3320  143.0380 C   0  0  0  0  0  1  0  0  0  0  0  0
  1 22  1  0  0  0  0
  1  2  1  0  0  0  0
  2 32  1  6  0  0  0
  3  8  1  6  0  0  0
  3  1  1  0  0  0  0
  3  2  1  0  0  0  0
  4 11  1  0  0  0  0
  7  4  1  0  0  0  0
  8  6  2  0  0  0  0
  9 11  1  0  0  0  0
 10  5  1  6  0  0  0
 10  7  1  0  0  0  0
 10  9  1  0  0  0  0
 11  8  1  0  0  0  0
 12 13  1  6  0  0  0
 12 10  1  0  0  0  0
 14 17  1  0  0  0  0
 14 15  1  0  0  0  0
 15 12  1  0  0  0  0
 16 15  2  0  0  0  0
 17 19  1  6  0  0  0
 17 13  1  0  0  0  0
 18 19  2  0  0  0  0
 19 20  1  0  0  0  0
 23 21  2  0  0  0  0
 23 22  1  0  0  0  0
 24 23  1  0  0  0  0
 25 27  1  0  0  0  0
 26 25  1  0  0  0  0
 27 24  1  0  0  0  0
 28 25  2  0  0  0  0
 29 30  1  0  0  0  0
 30 26  1  0  0  0  0
 31 35  1  0  0  0  0
 31 33  2  0  0  0  0
 32 31  1  0  0  0  0
 35 34  1  6  0  0  0
 36 35  1  0  0  0  0
 37 36  1  0  0  0  0
 38 37  1  0  0  0  0
 39 38  1  0  0  0  0
M  END
>  <MODEL>
6

>  <REMARK>
 VINA RESULT:      -6.9      3.472      5.538
  Name = 
  12 active torsions:
  status: ('A' for Active; 'I' for Inactive)
    1  A    between atoms: C_2  and  C_31
    2  A    between atoms: C_4  and  N_25
    3  A    between atoms: C_4  and  C_38
    4  A    between atoms: C_5  and  C_17
    5  A    between atoms: N_10  and  C_22
    6  A    between atoms: N_11  and  N_32
    7  A    between atoms: C_12  and  C_17
    8  A    between atoms: C_12  and  C_24
    9  A    between atoms: C_16  and  C_24
   10  A    between atoms: N_18  and  C_36
   11  A    between atoms: C_21  and  C_39
   12  A    between atoms: C_26  and  C_34
                            x       y       z     vdW  Elec       q    Type
                         _______ _______ _______ _____ _____    ______ ____

>  <TORSDO>
F 12

$$$$
=
 OpenBabel11062417513D

 39 41  0  0  1  0  0  0  0  0999 V2000
  187.5380  177.6630  139.3730 N   0  0  0  0  0  0  0  0  0  0  0  0
  188.2040  177.4520  138.0800 C   0  0  1  0  0  3  0  0  0  0  0  0
  188.8370  178.3080  139.1070 C   0  0  2  0  0  3  0  0  0  0  0  0
  188.3370  177.0980  141.8110 C   0  0  0  0  0  2  0  0  0  0  0  0
  190.3890  175.1740  143.9330 F   0  0  0  0  0  0  0  0  0  0  0  0
  191.0780  177.5110  139.4100 O   0  0  0  0  0  0  0  0  0  0  0  0
  188.5150  176.4240  143.1580 C   0  0  0  0  0  2  0  0  0  0  0  0
  189.9290  177.6480  139.9120 C   0  0  0  0  0  0  0  0  0  0  0  0
  190.6970  176.6760  142.1200 C   0  0  0  0  0  2  0  0  0  0  0  0
  190.0150  176.4180  143.4560 C   0  0  2  0  0  0  0  0  0  0  0  0
  189.6610  177.1510  141.2290 N   0  0  0  0  0  0  0  0  0  0  0  0
  190.3700  177.5260  144.4690 C   0  0  2  0  0  3  0  0  0  0  0  0
  191.5510  177.1270  145.3480 C   0  0  0  0  0  2  0  0  0  0  0  0
  189.5540  177.4980  147.1450 S   0  0  0  0  0  0  0  0  0  0  0  0
  189.2490  177.8160  145.4170 C   0  0  0  0  0  0  0  0  0  0  0  0
  188.1750  178.2530  145.0370 O   0  0  0  0  0  0  0  0  0  0  0  0
  191.0120  176.5350  146.6420 C   0  0  2  0  0  3  0  0  0  0  0  0
  192.0500  177.4720  148.5660 O   0  0  0  0  0  1  0  0  0  0  0  0
  192.0600  176.5580  147.7020 C   0  0  0  0  0  0  0  0  0  0  0  0
  193.0240  175.5570  147.7650 O   0  0  0  0  0  0  0  0  0  0  0  0
  184.6520  179.7530  139.8860 O   0  0  0  0  0  0  0  0  0  0  0  0
  186.5540  178.6360  139.1580 N   0  0  0  0  0  2  0  0  0  0  0  0
  185.5330  178.8860  140.1240 C   0  0  0  0  0  0  0  0  0  0  0  0
  185.4900  178.1290  141.4090 C   0  0  0  0  0  2  0  0  0  0  0  0
  183.9540  178.6270  143.3400 C   0  0  0  0  0  0  0  0  0  0  0  0
  185.0680  178.9590  144.1710 N   0  0  0  0  0  2  0  0  0  0  0  0
  184.1590  178.2190  141.9890 N   0  0  0  0  0  2  0  0  0  0  0  0
  182.7810  178.6940  143.7960 O   0  0  0  0  0  0  0  0  0  0  0  0
  185.2150  178.2310  146.4750 C   0  0  0  0  0  1  0  0  0  0  0  0
  184.9020  179.3860  145.5490 C   0  0  0  0  0  2  0  0  0  0  0  0
  189.2660  175.5200  136.8370 C   0  0  0  0  0  0  0  0  0  0  0  0
  188.7340  176.0940  138.0340 N   0  0  0  0  0  2  0  0  0  0  0  0
  189.2790  176.1830  135.7650 O   0  0  0  0  0  0  0  0  0  0  0  0
  188.6590  173.1010  136.6560 C   0  0  0  0  0  1  0  0  0  0  0  0
  189.7790  174.1140  136.8360 C   0  0  1  0  0  3  0  0  0  0  0  0
  190.9070  173.8980  135.8230 C   0  0  0  0  0  2  0  0  0  0  0  0
  192.2200  173.4680  136.4660 C   0  0  0  0  0  2  0  0  0  0  0  0
  192.6010  174.4370  137.5680 C   0  0  0  0  0  2  0  0  0  0  0  0
  194.0950  174.6740  137.5420 C   0  0  0  0  0  1  0  0  0  0  0  0
  2 32  1  1  0  0  0
  2  3  1  0  0  0  0
  2  1  1  0  0  0  0
  3  1  1  0  0  0  0
  3  8  1  1  0  0  0
  4  7  1  0  0  0  0
  6  8  2  0  0  0  0
  7 10  1  0  0  0  0
  8 11  1  0  0  0  0
  9 10  1  0  0  0  0
 10  5  1  1  0  0  0
 10 12  1  0  0  0  0
 11  4  1  0  0  0  0
 11  9  1  0  0  0  0
 12 13  1  1  0  0  0
 12 15  1  0  0  0  0
 13 17  1  0  0  0  0
 15 14  1  0  0  0  0
 16 15  2  0  0  0  0
 17 14  1  0  0  0  0
 17 19  1  1  0  0  0
 19 20  2  0  0  0  0
 19 18  1  0  0  0  0
 21 23  2  0  0  0  0
 22  1  1  0  0  0  0
 22 23  1  0  0  0  0
 23 24  1  0  0  0  0
 24 27  1  0  0  0  0
 25 28  2  0  0  0  0
 25 26  1  0  0  0  0
 26 30  1  0  0  0  0
 27 25  1  0  0  0  0
 30 29  1  0  0  0  0
 31 32  1  0  0  0  0
 33 31  2  0  0  0  0
 35 34  1  6  0  0  0
 35 31  1  0  0  0  0
 36 37  1  0  0  0  0
 36 35  1  0  0  0  0
 37 38  1  0  0  0  0
 39 38  1  0  0  0  0
M  END
>  <MODEL>
7

>  <REMARK>
 VINA RESULT:      -6.8      4.375      8.340
  Name = 
  12 active torsions:
  status: ('A' for Active; 'I' for Inactive)
    1  A    between atoms: C_2  and  C_31
    2  A    between atoms: C_4  and  N_25
    3  A    between atoms: C_4  and  C_38
    4  A    between atoms: C_5  and  C_17
    5  A    between atoms: N_10  and  C_22
    6  A    between atoms: N_11  and  N_32
    7  A    between atoms: C_12  and  C_17
    8  A    between atoms: C_12  and  C_24
    9  A    between atoms: C_16  and  C_24
   10  A    between atoms: N_18  and  C_36
   11  A    between atoms: C_21  and  C_39
   12  A    between atoms: C_26  and  C_34
                            x       y       z     vdW  Elec       q    Type
                         _______ _______ _______ _____ _____    ______ ____

>  <TORSDO>
F 12

$$$$
=
 OpenBabel11062417513D

 39 41  0  0  1  0  0  0  0  0999 V2000
  187.3510  177.9700  138.7940 N   0  0  0  0  0  0  0  0  0  0  0  0
  188.1990  177.9810  137.5930 C   0  0  1  0  0  3  0  0  0  0  0  0
  188.6780  178.6110  138.8430 C   0  0  2  0  0  3  0  0  0  0  0  0
  187.9330  177.4460  141.5100 C   0  0  0  0  0  2  0  0  0  0  0  0
  189.6170  175.1980  143.6370 F   0  0  0  0  0  0  0  0  0  0  0  0
  190.7640  177.4790  139.1790 O   0  0  0  0  0  0  0  0  0  0  0  0
  187.9740  176.7310  142.8460 C   0  0  0  0  0  2  0  0  0  0  0  0
  189.6370  177.7800  139.6580 C   0  0  0  0  0  0  0  0  0  0  0  0
  190.1940  176.6660  141.8630 C   0  0  0  0  0  2  0  0  0  0  0  0
  189.4470  176.4930  143.1770 C   0  0  2  0  0  0  0  0  0  0  0  0
  189.2640  177.3080  140.9590 N   0  0  0  0  0  0  0  0  0  0  0  0
  189.9410  177.5170  144.2210 C   0  0  2  0  0  3  0  0  0  0  0  0
  191.1920  177.0270  144.9410 C   0  0  0  0  0  2  0  0  0  0  0  0
  189.4030  177.3200  146.9590 S   0  0  0  0  0  0  0  0  0  0  0  0
  188.9330  177.7670  145.2980 C   0  0  0  0  0  0  0  0  0  0  0  0
  187.8400  178.2570  145.0630 O   0  0  0  0  0  0  0  0  0  0  0  0
  190.7700  176.3580  146.2420 C   0  0  2  0  0  3  0  0  0  0  0  0
  192.0300  177.1310  148.1060 O   0  0  0  0  0  1  0  0  0  0  0  0
  191.9220  176.2810  147.1850 C   0  0  0  0  0  0  0  0  0  0  0  0
  192.8540  175.2540  147.0790 O   0  0  0  0  0  0  0  0  0  0  0  0
  184.3770  179.9590  139.1940 O   0  0  0  0  0  0  0  0  0  0  0  0
  186.4130  178.9970  138.6260 N   0  0  0  0  0  2  0  0  0  0  0  0
  185.2070  179.0320  139.3880 C   0  0  0  0  0  0  0  0  0  0  0  0
  184.9100  177.9830  140.4070 C   0  0  0  0  0  2  0  0  0  0  0  0
  183.4570  178.8030  142.2910 C   0  0  0  0  0  0  0  0  0  0  0  0
  184.6100  179.1630  143.0550 N   0  0  0  0  0  2  0  0  0  0  0  0
  183.6030  178.2240  140.9960 N   0  0  0  0  0  2  0  0  0  0  0  0
  182.3020  178.9970  142.7570 O   0  0  0  0  0  0  0  0  0  0  0  0
  184.4340  178.6690  145.4180 C   0  0  0  0  0  1  0  0  0  0  0  0
  184.5040  179.7620  144.3730 C   0  0  0  0  0  2  0  0  0  0  0  0
  189.1360  176.1820  136.0790 C   0  0  0  0  0  0  0  0  0  0  0  0
  188.7250  176.6380  137.3700 N   0  0  0  0  0  2  0  0  0  0  0  0
  189.0420  176.9410  135.0770 O   0  0  0  0  0  0  0  0  0  0  0  0
  190.5060  174.3410  137.0720 C   0  0  0  0  0  1  0  0  0  0  0  0
  189.6490  174.7880  135.8980 C   0  0  1  0  0  3  0  0  0  0  0  0
  188.5340  173.7830  135.5960 C   0  0  0  0  0  2  0  0  0  0  0  0
  188.2480  172.8330  136.7530 C   0  0  0  0  0  2  0  0  0  0  0  0
  186.7530  172.6920  136.9530 C   0  0  0  0  0  2  0  0  0  0  0  0
  186.1460  174.0530  137.2140 C   0  0  0  0  0  1  0  0  0  0  0  0
  1  3  1  0  0  0  0
  2 32  1  1  0  0  0
  2  1  1  0  0  0  0
  2  3  1  0  0  0  0
  3  8  1  1  0  0  0
  4  7  1  0  0  0  0
  6  8  2  0  0  0  0
  7 10  1  0  0  0  0
  8 11  1  0  0  0  0
  9 10  1  0  0  0  0
 10  5  1  1  0  0  0
 10 12  1  0  0  0  0
 11  4  1  0  0  0  0
 11  9  1  0  0  0  0
 12 13  1  1  0  0  0
 12 15  1  0  0  0  0
 13 17  1  0  0  0  0
 15 14  1  0  0  0  0
 16 15  2  0  0  0  0
 17 14  1  0  0  0  0
 17 19  1  1  0  0  0
 19 18  1  0  0  0  0
 20 19  2  0  0  0  0
 21 23  2  0  0  0  0
 22  1  1  0  0  0  0
 22 23  1  0  0  0  0
 23 24  1  0  0  0  0
 24 27  1  0  0  0  0
 25 28  2  0  0  0  0
 25 26  1  0  0  0  0
 26 30  1  0  0  0  0
 27 25  1  0  0  0  0
 30 29  1  0  0  0  0
 31 32  1  0  0  0  0
 33 31  2  0  0  0  0
 35 31  1  0  0  0  0
 35 34  1  1  0  0  0
 36 35  1  0  0  0  0
 36 37  1  0  0  0  0
 37 38  1  0  0  0  0
 38 39  1  0  0  0  0
M  END
>  <MODEL>
8

>  <REMARK>
 VINA RESULT:      -6.6      4.042      7.904
  Name = 
  12 active torsions:
  status: ('A' for Active; 'I' for Inactive)
    1  A    between atoms: C_2  and  C_31
    2  A    between atoms: C_4  and  N_25
    3  A    between atoms: C_4  and  C_38
    4  A    between atoms: C_5  and  C_17
    5  A    between atoms: N_10  and  C_22
    6  A    between atoms: N_11  and  N_32
    7  A    between atoms: C_12  and  C_17
    8  A    between atoms: C_12  and  C_24
    9  A    between atoms: C_16  and  C_24
   10  A    between atoms: N_18  and  C_36
   11  A    between atoms: C_21  and  C_39
   12  A    between atoms: C_26  and  C_34
                            x       y       z     vdW  Elec       q    Type
                         _______ _______ _______ _____ _____    ______ ____

>  <TORSDO>
F 12

$$$$
=
 OpenBabel11062417513D

 39 41  0  0  1  0  0  0  0  0999 V2000
  189.5210  177.2980  138.0600 N   0  0  0  0  0  0  0  0  0  0  0  0
  190.9830  177.4550  138.0480 C   0  0  1  0  0  3  0  0  0  0  0  0
  190.1990  177.9120  139.2160 C   0  0  2  0  0  3  0  0  0  0  0  0
  188.1640  178.1070  141.4170 C   0  0  0  0  0  2  0  0  0  0  0  0
  187.4780  176.0130  144.1670 F   0  0  0  0  0  0  0  0  0  0  0  0
  191.0030  176.0070  140.4290 O   0  0  0  0  0  0  0  0  0  0  0  0
  187.3780  177.8830  142.6950 C   0  0  0  0  0  2  0  0  0  0  0  0
  190.1910  176.9710  140.3950 C   0  0  0  0  0  0  0  0  0  0  0  0
  189.3020  176.3990  142.6960 C   0  0  0  0  0  2  0  0  0  0  0  0
  188.2480  177.0170  143.6050 C   0  0  2  0  0  0  0  0  0  0  0  0
  189.2470  177.1480  141.4590 N   0  0  0  0  0  0  0  0  0  0  0  0
  188.9130  177.8790  144.6990 C   0  0  2  0  0  3  0  0  0  0  0  0
  190.3180  177.3840  145.0270 C   0  0  0  0  0  2  0  0  0  0  0  0
  189.0190  177.1460  147.3960 S   0  0  0  0  0  0  0  0  0  0  0  0
  188.1650  177.8380  145.9930 C   0  0  0  0  0  0  0  0  0  0  0  0
  187.0240  178.2600  146.0960 O   0  0  0  0  0  0  0  0  0  0  0  0
  190.2350  176.4580  146.2320 C   0  0  2  0  0  3  0  0  0  0  0  0
  191.9170  177.1260  147.7750 O   0  0  0  0  0  1  0  0  0  0  0  0
  191.5720  176.3180  146.8750 C   0  0  0  0  0  0  0  0  0  0  0  0
  192.4250  175.2790  146.5160 O   0  0  0  0  0  0  0  0  0  0  0  0
  187.1720  179.5670  136.5460 O   0  0  0  0  0  0  0  0  0  0  0  0
  189.0030  178.3490  137.2920 N   0  0  0  0  0  2  0  0  0  0  0  0
  187.6030  178.6290  137.2660 C   0  0  0  0  0  0  0  0  0  0  0  0
  186.6430  177.8210  138.0720 C   0  0  0  0  0  2  0  0  0  0  0  0
  184.7370  178.6740  139.4780 C   0  0  0  0  0  0  0  0  0  0  0  0
  183.7980  177.9320  138.6960 N   0  0  0  0  0  2  0  0  0  0  0  0
  186.1290  178.6210  139.1720 N   0  0  0  0  0  2  0  0  0  0  0  0
  184.3410  179.3780  140.4440 O   0  0  0  0  0  0  0  0  0  0  0  0
  182.0100  176.7460  139.8180 C   0  0  0  0  0  1  0  0  0  0  0  0
  182.3740  177.9520  138.9790 C   0  0  0  0  0  2  0  0  0  0  0  0
  192.9310  175.8620  137.7790 C   0  0  0  0  0  0  0  0  0  0  0  0
  191.6030  176.1480  138.2270 N   0  0  0  0  0  2  0  0  0  0  0  0
  193.6090  176.7490  137.1940 O   0  0  0  0  0  0  0  0  0  0  0  0
  193.1980  173.5770  136.8000 C   0  0  0  0  0  1  0  0  0  0  0  0
  193.5150  174.4980  137.9680 C   0  0  1  0  0  3  0  0  0  0  0  0
  195.0170  174.5340  138.2680 C   0  0  0  0  0  2  0  0  0  0  0  0
  195.7900  173.3930  137.6170 C   0  0  0  0  0  2  0  0  0  0  0  0
  196.9450  173.9450  136.8060 C   0  0  0  0  0  2  0  0  0  0  0  0
  198.2540  173.4920  137.4140 C   0  0  0  0  0  1  0  0  0  0  0  0
  1  3  1  0  0  0  0
  2  1  1  0  0  0  0
  2 32  1  1  0  0  0
  2  3  1  0  0  0  0
  3  8  1  1  0  0  0
  4 11  1  0  0  0  0
  4  7  1  0  0  0  0
  7 10  1  0  0  0  0
  8  6  2  0  0  0  0
  8 11  1  0  0  0  0
  9 10  1  0  0  0  0
 10  5  1  1  0  0  0
 10 12  1  0  0  0  0
 11  9  1  0  0  0  0
 12 13  1  1  0  0  0
 12 15  1  0  0  0  0
 13 17  1  0  0  0  0
 15 16  2  0  0  0  0
 15 14  1  0  0  0  0
 17 19  1  1  0  0  0
 17 14  1  0  0  0  0
 19 18  1  0  0  0  0
 20 19  2  0  0  0  0
 21 23  2  0  0  0  0
 22  1  1  0  0  0  0
 23 22  1  0  0  0  0
 23 24  1  0  0  0  0
 24 27  1  0  0  0  0
 25 28  2  0  0  0  0
 26 30  1  0  0  0  0
 26 25  1  0  0  0  0
 27 25  1  0  0  0  0
 30 29  1  0  0  0  0
 31 35  1  0  0  0  0
 31 32  1  0  0  0  0
 33 31  2  0  0  0  0
 35 34  1  6  0  0  0
 35 36  1  0  0  0  0
 37 36  1  0  0  0  0
 38 39  1  0  0  0  0
 38 37  1  0  0  0  0
M  END
>  <MODEL>
9

>  <REMARK>
 VINA RESULT:      -6.6      4.272      8.754
  Name = 
  12 active torsions:
  status: ('A' for Active; 'I' for Inactive)
    1  A    between atoms: C_2  and  C_31
    2  A    between atoms: C_4  and  N_25
    3  A    between atoms: C_4  and  C_38
    4  A    between atoms: C_5  and  C_17
    5  A    between atoms: N_10  and  C_22
    6  A    between atoms: N_11  and  N_32
    7  A    between atoms: C_12  and  C_17
    8  A    between atoms: C_12  and  C_24
    9  A    between atoms: C_16  and  C_24
   10  A    between atoms: N_18  and  C_36
   11  A    between atoms: C_21  and  C_39
   12  A    between atoms: C_26  and  C_34
                            x       y       z     vdW  Elec       q    Type
                         _______ _______ _______ _____ _____    ______ ____

>  <TORSDO>
F 12

$$$$
