=
 OpenBabel11062416433D

 57 63  0  0  1  0  0  0  0  0999 V2000
  187.7360  178.2190  136.0300 C   0  0  1  0  0  3  0  0  0  0  0  0
  190.3200  178.5830  140.7480 O   0  0  0  0  0  0  0  0  0  0  0  0
  188.1630  177.8020  141.3620 C   0  0  0  0  0  2  0  0  0  0  0  0
  189.4650  177.6630  140.6580 C   0  0  0  0  0  0  0  0  0  0  0  0
  186.6800  177.7010  139.4720 O   0  0  0  0  0  0  0  0  0  0  0  0
  193.2330  176.2960  135.4380 C   0  0  0  0  0  2  0  0  0  0  0  0
  191.5360  175.4840  136.9570 C   0  0  0  0  0  0  0  0  0  0  0  0
  186.8210  177.6860  137.0970 C   0  0  0  0  0  0  0  0  0  0  0  0
  191.0300  175.0390  138.2930 C   0  0  0  0  0  2  0  0  0  0  0  0
  189.7080  176.5080  139.8490 N   0  0  0  0  0  2  0  0  0  0  0  0
  186.1920  176.6530  136.9220 O   0  0  0  0  0  0  0  0  0  0  0  0
  187.1560  178.5400  140.4930 C   0  0  1  0  0  3  0  0  0  0  0  0
  189.4910  176.5640  136.3810 O   0  0  0  0  0  0  0  0  0  0  0  0
  188.6700  177.1770  135.3970 C   0  0  1  0  0  3  0  0  0  0  0  0
  192.0090  176.8240  139.5390 O   0  0  0  0  0  0  0  0  0  0  0  0
  190.9630  176.1810  139.2490 C   0  0  0  0  0  0  0  0  0  0  0  0
  190.8040  176.1770  136.0990 C   0  0  0  0  0  0  0  0  0  0  0  0
  192.9650  175.2900  136.5500 C   0  0  1  0  0  3  0  0  0  0  0  0
  186.5860  178.5050  138.3290 C   0  0  1  0  0  3  0  0  0  0  0  0
  186.9950  178.8770  135.0460 O   0  0  0  0  0  1  0  0  0  0  0  0
  191.6530  176.6360  134.5940 S   0  0  0  0  0  0  0  0  0  0  0  0
  181.7000  177.4520  138.5070 C   0  0  0  0  0  2  0  0  0  0  0  0
  182.4500  179.1180  138.4110 S   0  0  0  0  0  0  0  0  0  0  0  0
  185.2610  179.1100  138.2590 N   0  0  0  0  0  2  0  0  0  0  0  0
  184.0660  177.0580  138.3580 N   0  0  0  0  0  0  0  0  0  0  0  0
  184.0590  178.3450  138.3460 C   0  0  0  0  0  0  0  0  0  0  0  0
  182.5860  175.0650  138.4980 C   0  0  0  0  0  1  0  0  0  0  0  0
  182.7930  176.5000  138.4410 N   0  0  0  0  0  0  0  0  0  0  0  0
  193.8740  172.9890  137.2130 C   0  0  1  0  0  3  0  0  0  0  0  0
  193.3770  173.8750  136.0830 C   0  0  1  0  0  3  0  0  0  0  0  0
  192.3790  171.6690  135.5700 C   0  0  0  0  0  1  0  0  0  0  0  0
  192.4740  172.7750  136.6110 C   0  0  1  0  0  3  0  0  0  0  0  0
  194.9360  170.8180  137.3640 O   0  0  0  0  0  0  0  0  0  0  0  0
  195.8770  171.7530  137.8310 C   0  0  1  0  0  3  0  0  0  0  0  0
  196.3970  172.6070  136.6930 C   0  0  1  0  0  3  0  0  0  0  0  0
  194.9710  172.0540  136.6910 C   0  0  2  0  0  0  0  0  0  0  0  0
  196.5320  174.0740  137.1380 C   0  0  2  0  0  3  0  0  0  0  0  0
  196.8620  176.3490  136.1730 O   0  0  0  0  0  1  0  0  0  0  0  0
  196.9070  174.9720  136.0000 C   0  0  0  0  0  0  0  0  0  0  0  0
  197.3090  174.4940  134.9040 O   0  0  0  0  0  0  0  0  0  0  0  0
  197.4850  174.2700  138.3250 C   0  0  1  0  0  3  0  0  0  0  0  0
  198.6290  174.9670  137.9300 O   0  0  0  0  0  1  0  0  0  0  0  0
  195.4690  175.0880  139.5710 O   0  0  0  0  0  0  0  0  0  0  0  0
  196.8490  174.9400  139.5020 C   0  0  0  0  0  0  0  0  0  0  0  0
  197.5710  175.3650  140.4420 O   0  0  0  0  0  1  0  0  0  0  0  0
  187.9350  176.1080  134.5940 C   0  0  0  0  0  2  0  0  0  0  0  0
  188.1920  174.8440  135.1300 O   0  0  0  0  0  1  0  0  0  0  0  0
  186.0090  179.0760  141.3550 C   0  0  0  0  0  2  0  0  0  0  0  0
  185.4990  178.0540  142.3700 C   0  0  1  0  0  3  0  0  0  0  0  0
  186.4620  177.9690  143.5400 C   0  0  0  0  0  1  0  0  0  0  0  0
  183.0570  178.5500  141.9340 C   0  0  0  0  0  3  0  0  0  0  0  0
  180.7510  178.9860  141.5230 F   0  0  0  0  0  0  0  0  0  0  0  0
  182.5930  178.8160  144.6800 C   0  0  0  0  0  3  0  0  0  0  0  0
  181.5390  178.9700  143.7730 C   0  0  0  0  0  3  0  0  0  0  0  0
  184.1180  178.3950  142.8410 C   0  0  0  0  0  0  0  0  0  0  0  0
  181.7720  178.8380  142.4000 C   0  0  0  0  0  0  0  0  0  0  0  0
  183.8790  178.5300  144.2140 C   0  0  0  0  0  3  0  0  0  0  0  0
  1 20  1  6  0  0  0
  1  8  1  0  0  0  0
  4  2  2  0  0  0  0
  4  3  1  0  0  0  0
  5 12  1  0  0  0  0
  7  9  1  0  0  0  0
  8 19  1  0  0  0  0
  9 16  1  0  0  0  0
 10  4  1  0  0  0  0
 11  8  2  0  0  0  0
 12 48  1  1  0  0  0
 12  3  1  0  0  0  0
 14 46  1  1  0  0  0
 14  1  1  0  0  0  0
 14 13  1  0  0  0  0
 16 15  2  0  0  0  0
 16 10  1  0  0  0  0
 17 13  1  0  0  0  0
 17  7  2  0  0  0  0
 18  6  1  6  0  0  0
 18  7  1  0  0  0  0
 19 24  1  6  0  0  0
 19  5  1  0  0  0  0
 21  6  1  0  0  0  0
 21 17  1  0  0  0  0
 23 22  1  0  0  0  0
 24 26  1  0  0  0  0
 25 28  1  0  0  0  0
 26 25  2  0  0  0  0
 26 23  1  0  0  0  0
 28 27  1  0  0  0  0
 28 22  1  0  0  0  0
 29 36  1  6  0  0  0
 30 18  1  1  0  0  0
 30 32  1  0  0  0  0
 30 29  1  0  0  0  0
 32 31  1  6  0  0  0
 32 29  1  0  0  0  0
 34 33  1  6  0  0  0
 35 37  1  1  0  0  0
 35 34  1  0  0  0  0
 36 35  1  0  0  0  0
 36 33  1  6  0  0  0
 36 34  1  0  0  0  0
 37 39  1  6  0  0  0
 37 41  1  0  0  0  0
 39 38  1  0  0  0  0
 40 39  2  0  0  0  0
 41 42  1  6  0  0  0
 41 44  1  0  0  0  0
 44 43  2  0  0  0  0
 44 45  1  0  0  0  0
 46 47  1  0  0  0  0
 48 49  1  0  0  0  0
 49 55  1  0  0  0  0
 49 50  1  1  0  0  0
 51 56  2  0  0  0  0
 51 55  1  0  0  0  0
 52 56  1  0  0  0  0
 54 53  2  0  0  0  0
 55 57  2  0  0  0  0
 56 54  1  0  0  0  0
 57 53  1  0  0  0  0
M  END
>  <MODEL>
1

>  <REMARK>
 VINA RESULT:      -7.8      0.000      0.000
  Name = 
  11 active torsions:
  status: ('A' for Active; 'I' for Inactive)
    1  A    between atoms: N_10  and  C_54
    2  A    between atoms: C_11  and  C_48
    3  A    between atoms: C_14  and  C_46
    4  A    between atoms: C_22  and  C_38
    5  A    between atoms: C_24  and  C_33
    6  A    between atoms: C_24  and  C_48
    7  A    between atoms: C_25  and  C_30
    8  A    between atoms: C_25  and  C_40
    9  A    between atoms: C_28  and  C_52
   10  A    between atoms: C_34  and  C_48
   11  A    between atoms: C_36  and  C_40
                            x       y       z     vdW  Elec       q    Type
                         _______ _______ _______ _____ _____    ______ ____

>  <TORSDO>
F 11

$$$$
=
 OpenBabel11062416433D

 57 63  0  0  1  0  0  0  0  0999 V2000
  184.1740  178.2680  137.2530 C   0  0  1  0  0  3  0  0  0  0  0  0
  188.1050  179.7280  140.6420 O   0  0  0  0  0  0  0  0  0  0  0  0
  186.5050  178.7030  142.0660 C   0  0  0  0  0  2  0  0  0  0  0  0
  187.4800  178.6780  140.9440 C   0  0  0  0  0  0  0  0  0  0  0  0
  184.5110  178.0880  140.8710 O   0  0  0  0  0  0  0  0  0  0  0  0
  189.3910  177.2050  134.8210 C   0  0  0  0  0  2  0  0  0  0  0  0
  188.5330  176.3550  136.9150 C   0  0  0  0  0  0  0  0  0  0  0  0
  183.8170  177.7530  138.6200 C   0  0  0  0  0  0  0  0  0  0  0  0
  188.6260  176.0310  138.3730 C   0  0  0  0  0  2  0  0  0  0  0  0
  187.6570  177.4740  140.1920 N   0  0  0  0  0  2  0  0  0  0  0  0
  183.3920  176.6170  138.7670 O   0  0  0  0  0  0  0  0  0  0  0  0
  185.1300  179.1330  141.5770 C   0  0  1  0  0  3  0  0  0  0  0  0
  186.2410  176.9910  137.0560 O   0  0  0  0  0  0  0  0  0  0  0  0
  185.0210  177.3130  136.4010 C   0  0  1  0  0  3  0  0  0  0  0  0
  189.5890  178.1130  139.0310 O   0  0  0  0  0  0  0  0  0  0  0  0
  188.6630  177.2730  139.1980 C   0  0  0  0  0  0  0  0  0  0  0  0
  187.4230  176.7870  136.3380 C   0  0  0  0  0  0  0  0  0  0  0  0
  189.7390  176.3400  136.0260 C   0  0  1  0  0  3  0  0  0  0  0  0
  183.8630  178.6920  139.7860 C   0  0  1  0  0  3  0  0  0  0  0  0
  183.0190  178.6480  136.5660 O   0  0  0  0  0  1  0  0  0  0  0  0
  187.5820  177.1570  134.5960 S   0  0  0  0  0  0  0  0  0  0  0  0
  180.2110  181.9850  138.8770 C   0  0  0  0  0  2  0  0  0  0  0  0
  180.1050  180.5190  139.9660 S   0  0  0  0  0  0  0  0  0  0  0  0
  182.5030  179.0560  140.1640 N   0  0  0  0  0  2  0  0  0  0  0  0
  182.4120  181.0220  138.8310 N   0  0  0  0  0  0  0  0  0  0  0  0
  181.8220  180.1790  139.6050 C   0  0  0  0  0  0  0  0  0  0  0  0
  182.0430  183.0840  137.4920 C   0  0  0  0  0  1  0  0  0  0  0  0
  181.5780  182.0480  138.3960 N   0  0  0  0  0  0  0  0  0  0  0  0
  191.2290  174.3140  136.5060 C   0  0  1  0  0  3  0  0  0  0  0  0
  190.2420  174.9590  135.5470 C   0  0  1  0  0  3  0  0  0  0  0  0
  189.5710  172.5770  135.5510 C   0  0  0  0  0  1  0  0  0  0  0  0
  189.7780  173.8090  136.4220 C   0  0  1  0  0  3  0  0  0  0  0  0
  192.2880  172.1650  136.1500 O   0  0  0  0  0  0  0  0  0  0  0  0
  193.2770  173.0110  136.6840 C   0  0  1  0  0  3  0  0  0  0  0  0
  193.6850  174.0640  135.6740 C   0  0  1  0  0  3  0  0  0  0  0  0
  192.2630  173.5030  135.7150 C   0  0  2  0  0  0  0  0  0  0  0  0
  193.8730  175.4270  136.3640 C   0  0  2  0  0  3  0  0  0  0  0  0
  194.8300  177.6040  135.6140 O   0  0  0  0  0  1  0  0  0  0  0  0
  194.9700  176.2280  135.7320 C   0  0  0  0  0  0  0  0  0  0  0  0
  196.0380  175.6740  135.3510 O   0  0  0  0  0  0  0  0  0  0  0  0
  194.0780  175.3230  137.8820 C   0  0  1  0  0  3  0  0  0  0  0  0
  195.4380  175.2690  138.1940 O   0  0  0  0  0  1  0  0  0  0  0  0
  194.0360  176.9860  139.7580 O   0  0  0  0  0  1  0  0  0  0  0  0
  193.4110  176.4190  138.6540 C   0  0  0  0  0  0  0  0  0  0  0  0
  192.2790  176.8350  138.2930 O   0  0  0  0  0  0  0  0  0  0  0  0
  184.2880  176.0330  136.0090 C   0  0  0  0  0  2  0  0  0  0  0  0
  184.1290  175.9780  134.6220 O   0  0  0  0  0  1  0  0  0  0  0  0
  184.2710  179.5920  142.7590 C   0  0  0  0  0  2  0  0  0  0  0  0
  183.5680  178.4380  143.4690 C   0  0  1  0  0  3  0  0  0  0  0  0
  183.9740  178.4120  144.9320 C   0  0  0  0  0  1  0  0  0  0  0  0
  181.3710  177.7020  142.4540 C   0  0  0  0  0  3  0  0  0  0  0  0
  179.3010  176.9830  141.5190 F   0  0  0  0  0  0  0  0  0  0  0  0
  179.9890  179.5500  144.0340 C   0  0  0  0  0  3  0  0  0  0  0  0
  179.2880  178.7160  143.1570 C   0  0  0  0  0  3  0  0  0  0  0  0
  182.0790  178.5380  143.3330 C   0  0  0  0  0  0  0  0  0  0  0  0
  179.9800  177.7930  142.3670 C   0  0  0  0  0  0  0  0  0  0  0  0
  181.3810  179.4610  144.1210 C   0  0  0  0  0  3  0  0  0  0  0  0
  1 20  1  6  0  0  0
  1  8  1  0  0  0  0
  2  4  2  0  0  0  0
  4  3  1  0  0  0  0
  5 12  1  0  0  0  0
  7  9  1  0  0  0  0
  8 11  2  0  0  0  0
  8 19  1  0  0  0  0
  9 16  1  0  0  0  0
 10  4  1  0  0  0  0
 12  3  1  0  0  0  0
 12 48  1  1  0  0  0
 14 46  1  1  0  0  0
 14 13  1  0  0  0  0
 14  1  1  0  0  0  0
 15 16  2  0  0  0  0
 16 10  1  0  0  0  0
 17  7  2  0  0  0  0
 17 13  1  0  0  0  0
 18  6  1  6  0  0  0
 18  7  1  0  0  0  0
 19 24  1  1  0  0  0
 19  5  1  0  0  0  0
 21  6  1  0  0  0  0
 21 17  1  0  0  0  0
 22 23  1  0  0  0  0
 25 26  2  0  0  0  0
 26 23  1  0  0  0  0
 26 24  1  0  0  0  0
 27 28  1  0  0  0  0
 28 25  1  0  0  0  0
 28 22  1  0  0  0  0
 29 36  1  6  0  0  0
 30 18  1  1  0  0  0
 30 32  1  0  0  0  0
 30 29  1  0  0  0  0
 32 31  1  6  0  0  0
 32 29  1  0  0  0  0
 34 33  1  6  0  0  0
 35 36  1  0  0  0  0
 35 37  1  1  0  0  0
 35 34  1  0  0  0  0
 36 33  1  6  0  0  0
 36 34  1  0  0  0  0
 37 39  1  6  0  0  0
 37 41  1  0  0  0  0
 38 39  1  0  0  0  0
 40 39  2  0  0  0  0
 41 42  1  6  0  0  0
 41 44  1  0  0  0  0
 44 43  1  0  0  0  0
 45 44  2  0  0  0  0
 47 46  1  0  0  0  0
 48 49  1  0  0  0  0
 49 50  1  1  0  0  0
 51 55  1  0  0  0  0
 52 56  1  0  0  0  0
 53 57  1  0  0  0  0
 54 53  2  0  0  0  0
 55 49  1  0  0  0  0
 55 57  2  0  0  0  0
 56 51  2  0  0  0  0
 56 54  1  0  0  0  0
M  END
>  <MODEL>
2

>  <REMARK>
 VINA RESULT:      -6.4      2.319      3.385
  Name = 
  11 active torsions:
  status: ('A' for Active; 'I' for Inactive)
    1  A    between atoms: N_10  and  C_54
    2  A    between atoms: C_11  and  C_48
    3  A    between atoms: C_14  and  C_46
    4  A    between atoms: C_22  and  C_38
    5  A    between atoms: C_24  and  C_33
    6  A    between atoms: C_24  and  C_48
    7  A    between atoms: C_25  and  C_30
    8  A    between atoms: C_25  and  C_40
    9  A    between atoms: C_28  and  C_52
   10  A    between atoms: C_34  and  C_48
   11  A    between atoms: C_36  and  C_40
                            x       y       z     vdW  Elec       q    Type
                         _______ _______ _______ _____ _____    ______ ____

>  <TORSDO>
F 11

$$$$
=
 OpenBabel11062416433D

 57 63  0  0  1  0  0  0  0  0999 V2000
  187.7540  177.9280  137.3250 C   0  0  1  0  0  3  0  0  0  0  0  0
  188.8150  173.3030  134.7650 O   0  0  0  0  0  0  0  0  0  0  0  0
  189.9960  173.0800  136.8130 C   0  0  0  0  0  2  0  0  0  0  0  0
  188.7480  173.2350  136.0200 C   0  0  0  0  0  0  0  0  0  0  0  0
  189.8740  175.0840  138.1360 O   0  0  0  0  0  0  0  0  0  0  0  0
  182.9190  175.9740  134.6660 C   0  0  0  0  0  2  0  0  0  0  0  0
  184.2650  174.8320  136.3180 C   0  0  0  0  0  0  0  0  0  0  0  0
  188.5520  177.0590  138.2580 C   0  0  0  0  0  0  0  0  0  0  0  0
  185.0020  173.6510  136.8680 C   0  0  0  0  0  2  0  0  0  0  0  0
  187.4940  173.3520  136.6980 N   0  0  0  0  0  2  0  0  0  0  0  0
  188.2340  176.9480  139.4320 O   0  0  0  0  0  0  0  0  0  0  0  0
  190.6070  174.4380  137.1270 C   0  0  1  0  0  3  0  0  0  0  0  0
  185.8700  176.3940  137.1320 O   0  0  0  0  0  0  0  0  0  0  0  0
  186.2330  177.7400  137.4060 C   0  0  1  0  0  3  0  0  0  0  0  0
  186.1040  173.0730  134.8320 O   0  0  0  0  0  0  0  0  0  0  0  0
  186.2160  173.3510  136.0570 C   0  0  0  0  0  0  0  0  0  0  0  0
  184.6850  176.0790  136.4610 C   0  0  0  0  0  0  0  0  0  0  0  0
  183.0590  174.6720  135.4430 C   0  0  1  0  0  3  0  0  0  0  0  0
  189.8200  176.4340  137.7630 C   0  0  1  0  0  3  0  0  0  0  0  0
  188.0950  179.2700  137.5090 O   0  0  0  0  0  1  0  0  0  0  0  0
  183.6590  177.3080  135.6660 S   0  0  0  0  0  0  0  0  0  0  0  0
  192.2460  177.3370  142.0420 C   0  0  0  0  0  2  0  0  0  0  0  0
  192.7550  177.8770  140.3700 S   0  0  0  0  0  0  0  0  0  0  0  0
  190.9600  177.1470  138.3270 N   0  0  0  0  0  2  0  0  0  0  0  0
  190.4880  176.5810  140.5870 N   0  0  0  0  0  0  0  0  0  0  0  0
  191.2700  177.1240  139.7210 C   0  0  0  0  0  0  0  0  0  0  0  0
  190.2490  176.0920  143.0130 C   0  0  0  0  0  1  0  0  0  0  0  0
  190.9670  176.6680  141.8920 N   0  0  0  0  0  0  0  0  0  0  0  0
  181.0360  175.5520  136.7430 C   0  0  1  0  0  3  0  0  0  0  0  0
  181.7220  174.3360  136.1420 C   0  0  1  0  0  3  0  0  0  0  0  0
  179.3320  173.9690  135.6160 C   0  0  0  0  0  1  0  0  0  0  0  0
  180.5080  174.9190  135.4430 C   0  0  1  0  0  3  0  0  0  0  0  0
  178.9700  174.7810  137.7440 O   0  0  0  0  0  0  0  0  0  0  0  0
  179.1670  176.0960  138.2040 C   0  0  1  0  0  3  0  0  0  0  0  0
  180.3280  176.1560  139.1750 C   0  0  1  0  0  3  0  0  0  0  0  0
  180.2990  175.1490  138.0250 C   0  0  2  0  0  0  0  0  0  0  0  0
  181.1750  177.4160  138.9230 C   0  0  2  0  0  3  0  0  0  0  0  0
  182.6120  178.7000  140.5060 O   0  0  0  0  0  1  0  0  0  0  0  0
  182.3430  177.5020  139.8580 C   0  0  0  0  0  0  0  0  0  0  0  0
  183.0530  176.4880  140.1000 O   0  0  0  0  0  0  0  0  0  0  0  0
  180.3620  178.7170  138.9450 C   0  0  1  0  0  3  0  0  0  0  0  0
  180.0650  179.0920  140.2560 O   0  0  0  0  0  1  0  0  0  0  0  0
  181.0460  181.1240  138.7710 O   0  0  0  0  0  1  0  0  0  0  0  0
  181.0200  179.8490  138.2180 C   0  0  0  0  0  0  0  0  0  0  0  0
  181.5630  179.6400  137.1010 O   0  0  0  0  0  0  0  0  0  0  0  0
  185.6340  178.1790  138.7390 C   0  0  0  0  0  2  0  0  0  0  0  0
  185.0750  179.4530  138.6170 O   0  0  0  0  0  1  0  0  0  0  0  0
  192.0770  174.2740  137.5240 C   0  0  0  0  0  2  0  0  0  0  0  0
  193.0110  174.1670  136.3210 C   0  0  1  0  0  3  0  0  0  0  0  0
  193.0660  175.4990  135.5940 C   0  0  0  0  0  1  0  0  0  0  0  0
  195.4270  174.6550  136.8850 C   0  0  0  0  0  3  0  0  0  0  0  0
  197.6950  175.1230  137.4470 F   0  0  0  0  0  0  0  0  0  0  0  0
  195.8820  171.9450  137.4100 C   0  0  0  0  0  3  0  0  0  0  0  0
  196.9190  172.8710  137.5610 C   0  0  0  0  0  3  0  0  0  0  0  0
  194.3830  173.7280  136.7310 C   0  0  0  0  0  0  0  0  0  0  0  0
  196.6910  174.2260  137.2980 C   0  0  0  0  0  0  0  0  0  0  0  0
  194.6180  172.3740  136.9950 C   0  0  0  0  0  3  0  0  0  0  0  0
  1 14  1  0  0  0  0
  1 20  1  1  0  0  0
  1  8  1  0  0  0  0
  2  4  2  0  0  0  0
  3 12  1  0  0  0  0
  4 10  1  0  0  0  0
  4  3  1  0  0  0  0
  6 21  1  0  0  0  0
  7 17  2  0  0  0  0
  7  9  1  0  0  0  0
  8 11  2  0  0  0  0
 12 48  1  1  0  0  0
 12  5  1  0  0  0  0
 13 14  1  0  0  0  0
 14 46  1  1  0  0  0
 15 16  2  0  0  0  0
 16 10  1  0  0  0  0
 16  9  1  0  0  0  0
 17 13  1  0  0  0  0
 18  6  1  1  0  0  0
 18  7  1  0  0  0  0
 19  5  1  0  0  0  0
 19  8  1  0  0  0  0
 19 24  1  1  0  0  0
 21 17  1  0  0  0  0
 23 22  1  0  0  0  0
 24 26  1  0  0  0  0
 25 28  1  0  0  0  0
 26 23  1  0  0  0  0
 26 25  2  0  0  0  0
 28 22  1  0  0  0  0
 28 27  1  0  0  0  0
 29 36  1  1  0  0  0
 30 18  1  6  0  0  0
 30 29  1  0  0  0  0
 32 31  1  1  0  0  0
 32 30  1  0  0  0  0
 32 29  1  0  0  0  0
 34 33  1  1  0  0  0
 34 35  1  0  0  0  0
 35 37  1  6  0  0  0
 36 33  1  1  0  0  0
 36 34  1  0  0  0  0
 36 35  1  0  0  0  0
 37 41  1  0  0  0  0
 37 39  1  1  0  0  0
 39 40  2  0  0  0  0
 39 38  1  0  0  0  0
 41 42  1  1  0  0  0
 44 43  1  0  0  0  0
 44 41  1  0  0  0  0
 45 44  2  0  0  0  0
 47 46  1  0  0  0  0
 49 50  1  1  0  0  0
 49 55  1  0  0  0  0
 49 48  1  0  0  0  0
 51 56  1  0  0  0  0
 53 54  1  0  0  0  0
 55 51  2  0  0  0  0
 55 57  1  0  0  0  0
 56 52  1  0  0  0  0
 56 54  2  0  0  0  0
 57 53  2  0  0  0  0
M  END
>  <MODEL>
3

>  <REMARK>
 VINA RESULT:      -6.1      4.306     11.542
  Name = 
  11 active torsions:
  status: ('A' for Active; 'I' for Inactive)
    1  A    between atoms: N_10  and  C_54
    2  A    between atoms: C_11  and  C_48
    3  A    between atoms: C_14  and  C_46
    4  A    between atoms: C_22  and  C_38
    5  A    between atoms: C_24  and  C_33
    6  A    between atoms: C_24  and  C_48
    7  A    between atoms: C_25  and  C_30
    8  A    between atoms: C_25  and  C_40
    9  A    between atoms: C_28  and  C_52
   10  A    between atoms: C_34  and  C_48
   11  A    between atoms: C_36  and  C_40
                            x       y       z     vdW  Elec       q    Type
                         _______ _______ _______ _____ _____    ______ ____

>  <TORSDO>
F 11

$$$$
=
 OpenBabel11062416433D

 57 63  0  0  1  0  0  0  0  0999 V2000
  184.1240  177.9240  137.4630 C   0  0  1  0  0  3  0  0  0  0  0  0
  188.1170  179.3550  140.7920 O   0  0  0  0  0  0  0  0  0  0  0  0
  186.6410  178.1360  142.1970 C   0  0  0  0  0  2  0  0  0  0  0  0
  187.5650  178.2510  141.0370 C   0  0  0  0  0  0  0  0  0  0  0  0
  184.6330  177.4960  141.0400 O   0  0  0  0  0  0  0  0  0  0  0  0
  189.2770  177.3490  134.7470 C   0  0  0  0  0  2  0  0  0  0  0  0
  188.5620  176.2970  136.8030 C   0  0  0  0  0  0  0  0  0  0  0  0
  183.8570  177.2890  138.8000 C   0  0  0  0  0  0  0  0  0  0  0  0
  188.7370  175.8730  138.2280 C   0  0  0  0  0  2  0  0  0  0  0  0
  187.7740  177.1180  140.1900 N   0  0  0  0  0  2  0  0  0  0  0  0
  183.5030  176.1220  138.8780 O   0  0  0  0  0  0  0  0  0  0  0  0
  185.2240  178.5200  141.7990 C   0  0  1  0  0  3  0  0  0  0  0  0
  186.2460  176.7870  137.0850 O   0  0  0  0  0  0  0  0  0  0  0  0
  184.9830  177.0850  136.5070 C   0  0  1  0  0  3  0  0  0  0  0  0
  189.6140  177.9530  139.0030 O   0  0  0  0  0  0  0  0  0  0  0  0
  188.7440  177.0500  139.1420 C   0  0  0  0  0  0  0  0  0  0  0  0
  187.4050  176.7060  136.3070 C   0  0  0  0  0  0  0  0  0  0  0  0
  189.7250  176.4190  135.8670 C   0  0  1  0  0  3  0  0  0  0  0  0
  183.9040  178.1400  140.0320 C   0  0  1  0  0  3  0  0  0  0  0  0
  182.9200  178.2850  136.8550 O   0  0  0  0  0  1  0  0  0  0  0  0
  187.4650  177.2120  134.5930 S   0  0  0  0  0  0  0  0  0  0  0  0
  179.9770  181.1720  139.3990 C   0  0  0  0  0  2  0  0  0  0  0  0
  180.0390  179.6810  140.4580 S   0  0  0  0  0  0  0  0  0  0  0  0
  182.5440  178.3950  140.4920 N   0  0  0  0  0  2  0  0  0  0  0  0
  182.2360  180.3740  139.2110 N   0  0  0  0  0  0  0  0  0  0  0  0
  181.7530  179.4760  139.9970 C   0  0  0  0  0  0  0  0  0  0  0  0
  181.6440  182.4280  137.9420 C   0  0  0  0  0  1  0  0  0  0  0  0
  181.3070  181.3450  138.8460 N   0  0  0  0  0  0  0  0  0  0  0  0
  191.2870  174.4120  136.1660 C   0  0  1  0  0  3  0  0  0  0  0  0
  190.2820  175.1090  135.2650 C   0  0  1  0  0  3  0  0  0  0  0  0
  189.7000  172.7140  135.0380 C   0  0  0  0  0  1  0  0  0  0  0  0
  189.8560  173.8640  136.0220 C   0  0  1  0  0  3  0  0  0  0  0  0
  192.3950  172.3380  135.5860 O   0  0  0  0  0  0  0  0  0  0  0  0
  193.3560  173.1310  136.2400 C   0  0  1  0  0  3  0  0  0  0  0  0
  193.7650  174.3030  135.3730 C   0  0  1  0  0  3  0  0  0  0  0  0
  192.3540  173.7180  135.3110 C   0  0  2  0  0  0  0  0  0  0  0  0
  193.9110  175.5770  136.2230 C   0  0  2  0  0  3  0  0  0  0  0  0
  195.8830  176.0710  134.7790 O   0  0  0  0  0  0  0  0  0  0  0  0
  194.8870  176.5420  135.6230 C   0  0  0  0  0  0  0  0  0  0  0  0
  194.7860  177.7810  135.8370 O   0  0  0  0  0  1  0  0  0  0  0  0
  194.2540  175.2980  137.6930 C   0  0  1  0  0  3  0  0  0  0  0  0
  195.6380  175.2690  137.8810 O   0  0  0  0  0  1  0  0  0  0  0  0
  192.3480  176.7620  138.4070 O   0  0  0  0  0  0  0  0  0  0  0  0
  193.6200  176.2580  138.6500 C   0  0  0  0  0  0  0  0  0  0  0  0
  194.2420  176.6040  139.6890 O   0  0  0  0  0  1  0  0  0  0  0  0
  184.3050  175.7970  136.0480 C   0  0  0  0  0  2  0  0  0  0  0  0
  184.3770  175.6870  134.6580 O   0  0  0  0  0  1  0  0  0  0  0  0
  184.3950  178.8410  143.0460 C   0  0  0  0  0  2  0  0  0  0  0  0
  185.1320  179.7390  144.0370 C   0  0  1  0  0  3  0  0  0  0  0  0
  184.1840  180.7970  144.5730 C   0  0  0  0  0  1  0  0  0  0  0  0
  186.9880  178.3360  145.0290 C   0  0  0  0  0  3  0  0  0  0  0  0
  188.7520  177.0410  145.9710 F   0  0  0  0  0  0  0  0  0  0  0  0
  185.5770  178.1210  147.4350 C   0  0  0  0  0  3  0  0  0  0  0  0
  186.8320  177.5170  147.3020 C   0  0  0  0  0  3  0  0  0  0  0  0
  185.7280  178.9430  145.1580 C   0  0  0  0  0  0  0  0  0  0  0  0
  187.5360  177.6240  146.0990 C   0  0  0  0  0  0  0  0  0  0  0  0
  185.0270  178.8310  146.3650 C   0  0  0  0  0  3  0  0  0  0  0  0
  1 20  1  6  0  0  0
  1  8  1  0  0  0  0
  2  4  2  0  0  0  0
  4  3  1  0  0  0  0
  5 12  1  0  0  0  0
  7  9  1  0  0  0  0
  8 11  2  0  0  0  0
  8 19  1  0  0  0  0
  9 16  1  0  0  0  0
 10  4  1  0  0  0  0
 12  3  1  0  0  0  0
 12 48  1  1  0  0  0
 14 46  1  1  0  0  0
 14 13  1  0  0  0  0
 14  1  1  0  0  0  0
 15 16  2  0  0  0  0
 16 10  1  0  0  0  0
 17  7  2  0  0  0  0
 17 13  1  0  0  0  0
 18  6  1  6  0  0  0
 18  7  1  0  0  0  0
 19 24  1  1  0  0  0
 19  5  1  0  0  0  0
 21  6  1  0  0  0  0
 21 17  1  0  0  0  0
 22 23  1  0  0  0  0
 25 26  2  0  0  0  0
 26 23  1  0  0  0  0
 26 24  1  0  0  0  0
 27 28  1  0  0  0  0
 28 25  1  0  0  0  0
 28 22  1  0  0  0  0
 29 36  1  6  0  0  0
 30 18  1  1  0  0  0
 30 32  1  0  0  0  0
 30 29  1  0  0  0  0
 32 31  1  6  0  0  0
 32 29  1  0  0  0  0
 34 33  1  6  0  0  0
 35 37  1  1  0  0  0
 35 34  1  0  0  0  0
 36 35  1  0  0  0  0
 36 33  1  6  0  0  0
 36 34  1  0  0  0  0
 37 39  1  6  0  0  0
 37 41  1  0  0  0  0
 38 39  2  0  0  0  0
 39 40  1  0  0  0  0
 41 42  1  6  0  0  0
 41 44  1  0  0  0  0
 43 44  2  0  0  0  0
 44 45  1  0  0  0  0
 47 46  1  0  0  0  0
 48 49  1  0  0  0  0
 49 50  1  1  0  0  0
 49 55  1  0  0  0  0
 51 55  2  0  0  0  0
 51 56  1  0  0  0  0
 52 56  1  0  0  0  0
 54 53  1  0  0  0  0
 55 57  1  0  0  0  0
 56 54  2  0  0  0  0
 57 53  2  0  0  0  0
M  END
>  <MODEL>
4

>  <REMARK>
 VINA RESULT:      -5.8      2.700      3.821
  Name = 
  11 active torsions:
  status: ('A' for Active; 'I' for Inactive)
    1  A    between atoms: N_10  and  C_54
    2  A    between atoms: C_11  and  C_48
    3  A    between atoms: C_14  and  C_46
    4  A    between atoms: C_22  and  C_38
    5  A    between atoms: C_24  and  C_33
    6  A    between atoms: C_24  and  C_48
    7  A    between atoms: C_25  and  C_30
    8  A    between atoms: C_25  and  C_40
    9  A    between atoms: C_28  and  C_52
   10  A    between atoms: C_34  and  C_48
   11  A    between atoms: C_36  and  C_40
                            x       y       z     vdW  Elec       q    Type
                         _______ _______ _______ _____ _____    ______ ____

>  <TORSDO>
F 11

$$$$
=
 OpenBabel11062416433D

 57 63  0  0  1  0  0  0  0  0999 V2000
  185.9590  177.7020  137.7700 C   0  0  1  0  0  3  0  0  0  0  0  0
  184.8500  172.4270  137.6240 O   0  0  0  0  0  0  0  0  0  0  0  0
  183.4390  173.3320  135.9410 C   0  0  0  0  0  2  0  0  0  0  0  0
  184.7750  173.0360  136.5250 C   0  0  0  0  0  0  0  0  0  0  0  0
  183.5630  175.7320  135.8690 O   0  0  0  0  0  0  0  0  0  0  0  0
  190.9000  174.6150  138.3410 C   0  0  0  0  0  2  0  0  0  0  0  0
  189.3030  174.5300  136.5280 C   0  0  0  0  0  0  0  0  0  0  0  0
  185.0040  177.4650  136.6340 C   0  0  0  0  0  0  0  0  0  0  0  0
  188.4260  173.8250  135.5410 C   0  0  0  0  0  2  0  0  0  0  0  0
  185.9520  173.4910  135.8530 N   0  0  0  0  0  2  0  0  0  0  0  0
  185.1830  177.9930  135.5470 O   0  0  0  0  0  0  0  0  0  0  0  0
  182.8980  174.6510  136.4720 C   0  0  1  0  0  3  0  0  0  0  0  0
  187.7360  176.2920  136.8770 O   0  0  0  0  0  0  0  0  0  0  0  0
  187.4450  177.5800  137.4040 C   0  0  1  0  0  3  0  0  0  0  0  0
  187.5130  172.2570  137.0910 O   0  0  0  0  0  0  0  0  0  0  0  0
  187.2890  173.1440  136.2230 C   0  0  0  0  0  0  0  0  0  0  0  0
  188.9610  175.6640  137.1200 C   0  0  0  0  0  0  0  0  0  0  0  0
  190.5820  173.9250  137.0210 C   0  0  1  0  0  3  0  0  0  0  0  0
  183.7550  176.6770  136.8860 C   0  0  1  0  0  3  0  0  0  0  0  0
  185.7000  178.9370  138.3670 O   0  0  0  0  0  1  0  0  0  0  0  0
  190.1550  176.2790  138.3000 S   0  0  0  0  0  0  0  0  0  0  0  0
  181.1740  179.6760  139.9440 C   0  0  0  0  0  2  0  0  0  0  0  0
  180.9130  179.4760  138.1440 S   0  0  0  0  0  0  0  0  0  0  0  0
  182.6160  177.5850  136.9370 N   0  0  0  0  0  2  0  0  0  0  0  0
  182.7500  177.9890  139.2760 N   0  0  0  0  0  0  0  0  0  0  0  0
  182.2140  178.2510  138.1350 C   0  0  0  0  0  0  0  0  0  0  0  0
  182.7040  178.6160  141.6810 C   0  0  0  0  0  1  0  0  0  0  0  0
  182.2160  178.7400  140.3200 N   0  0  0  0  0  0  0  0  0  0  0  0
  193.1340  173.9020  136.8130 C   0  0  1  0  0  3  0  0  0  0  0  0
  191.8060  174.0070  136.0810 C   0  0  1  0  0  3  0  0  0  0  0  0
  193.1720  172.5750  134.5960 C   0  0  0  0  0  1  0  0  0  0  0  0
  192.5950  172.7130  135.9970 C   0  0  1  0  0  3  0  0  0  0  0  0
  194.3210  174.3920  134.7600 O   0  0  0  0  0  0  0  0  0  0  0  0
  195.2740  173.8680  135.6530 C   0  0  1  0  0  3  0  0  0  0  0  0
  195.5580  174.8510  136.7700 C   0  0  1  0  0  3  0  0  0  0  0  0
  194.1820  174.7700  136.1080 C   0  0  2  0  0  0  0  0  0  0  0  0
  195.6840  174.1160  138.1160 C   0  0  2  0  0  3  0  0  0  0  0  0
  194.5550  175.9610  139.3550 O   0  0  0  0  0  0  0  0  0  0  0  0
  195.6060  175.0580  139.2780 C   0  0  0  0  0  0  0  0  0  0  0  0
  196.4550  175.0070  140.2100 O   0  0  0  0  0  1  0  0  0  0  0  0
  196.9320  173.2290  138.2160 C   0  0  1  0  0  3  0  0  0  0  0  0
  196.6340  171.9130  137.8560 O   0  0  0  0  0  1  0  0  0  0  0  0
  198.7330  174.9160  137.7720 O   0  0  0  0  0  1  0  0  0  0  0  0
  198.0940  173.7340  137.4190 C   0  0  0  0  0  0  0  0  0  0  0  0
  198.5010  173.0760  136.4250 O   0  0  0  0  0  0  0  0  0  0  0  0
  187.9250  178.6580  136.4360 C   0  0  0  0  0  2  0  0  0  0  0  0
  188.8040  179.5270  137.0870 O   0  0  0  0  0  1  0  0  0  0  0  0
  181.3860  174.7290  136.2450 C   0  0  0  0  0  2  0  0  0  0  0  0
  180.6030  173.7290  137.0930 C   0  0  1  0  0  3  0  0  0  0  0  0
  181.4550  172.4980  137.3510 C   0  0  0  0  0  1  0  0  0  0  0  0
  180.0520  173.5760  139.5570 C   0  0  0  0  0  3  0  0  0  0  0  0
  179.5640  173.4350  141.8850 F   0  0  0  0  0  0  0  0  0  0  0  0
  179.4610  176.3100  139.6230 C   0  0  0  0  0  3  0  0  0  0  0  0
  179.3630  175.5440  140.7890 C   0  0  0  0  0  3  0  0  0  0  0  0
  180.1510  174.3420  138.3830 C   0  0  0  0  0  0  0  0  0  0  0  0
  179.6570  174.1760  140.7550 C   0  0  0  0  0  0  0  0  0  0  0  0
  179.8540  175.7090  138.4240 C   0  0  0  0  0  3  0  0  0  0  0  0
  1 20  1  6  0  0  0
  3 12  1  0  0  0  0
  3  4  1  0  0  0  0
  4  2  2  0  0  0  0
  5 12  1  0  0  0  0
  5 19  1  0  0  0  0
  7 18  1  0  0  0  0
  7 17  2  0  0  0  0
  8 19  1  0  0  0  0
  8  1  1  0  0  0  0
  9 16  1  0  0  0  0
  9  7  1  0  0  0  0
 10 16  1  0  0  0  0
 10  4  1  0  0  0  0
 11  8  2  0  0  0  0
 12 48  1  6  0  0  0
 13 17  1  0  0  0  0
 13 14  1  0  0  0  0
 14 46  1  6  0  0  0
 14  1  1  0  0  0  0
 16 15  2  0  0  0  0
 17 21  1  0  0  0  0
 18  6  1  1  0  0  0
 19 24  1  6  0  0  0
 21  6  1  0  0  0  0
 22 28  1  0  0  0  0
 23 22  1  0  0  0  0
 24 26  1  0  0  0  0
 25 28  1  0  0  0  0
 26 23  1  0  0  0  0
 26 25  2  0  0  0  0
 28 27  1  0  0  0  0
 29 36  1  6  0  0  0
 30 29  1  0  0  0  0
 30 18  1  1  0  0  0
 32 31  1  6  0  0  0
 32 30  1  0  0  0  0
 32 29  1  0  0  0  0
 34 33  1  6  0  0  0
 34 36  1  0  0  0  0
 34 35  1  0  0  0  0
 35 37  1  1  0  0  0
 36 33  1  6  0  0  0
 36 35  1  0  0  0  0
 37 41  1  0  0  0  0
 37 39  1  1  0  0  0
 39 38  2  0  0  0  0
 39 40  1  0  0  0  0
 41 42  1  6  0  0  0
 44 43  1  0  0  0  0
 44 41  1  0  0  0  0
 45 44  2  0  0  0  0
 46 47  1  0  0  0  0
 48 49  1  0  0  0  0
 49 50  1  1  0  0  0
 49 55  1  0  0  0  0
 51 56  1  0  0  0  0
 53 54  1  0  0  0  0
 55 57  1  0  0  0  0
 55 51  2  0  0  0  0
 56 54  2  0  0  0  0
 56 52  1  0  0  0  0
 57 53  2  0  0  0  0
M  END
>  <MODEL>
5

>  <REMARK>
 VINA RESULT:      -5.4      2.472      4.760
  Name = 
  11 active torsions:
  status: ('A' for Active; 'I' for Inactive)
    1  A    between atoms: N_10  and  C_54
    2  A    between atoms: C_11  and  C_48
    3  A    between atoms: C_14  and  C_46
    4  A    between atoms: C_22  and  C_38
    5  A    between atoms: C_24  and  C_33
    6  A    between atoms: C_24  and  C_48
    7  A    between atoms: C_25  and  C_30
    8  A    between atoms: C_25  and  C_40
    9  A    between atoms: C_28  and  C_52
   10  A    between atoms: C_34  and  C_48
   11  A    between atoms: C_36  and  C_40
                            x       y       z     vdW  Elec       q    Type
                         _______ _______ _______ _____ _____    ______ ____

>  <TORSDO>
F 11

$$$$
=
 OpenBabel11062416433D

 57 63  0  0  1  0  0  0  0  0999 V2000
  187.8620  176.3980  137.7120 C   0  0  1  0  0  3  0  0  0  0  0  0
  185.4460  177.2780  142.4510 O   0  0  0  0  0  0  0  0  0  0  0  0
  187.1000  178.9780  142.3540 C   0  0  0  0  0  2  0  0  0  0  0  0
  185.8760  178.2990  141.8540 C   0  0  0  0  0  0  0  0  0  0  0  0
  188.4970  178.7540  140.4110 O   0  0  0  0  0  0  0  0  0  0  0  0
  182.0780  175.6900  137.1550 C   0  0  0  0  0  2  0  0  0  0  0  0
  183.2620  177.6550  137.9180 C   0  0  0  0  0  0  0  0  0  0  0  0
  188.4540  177.6470  138.3040 C   0  0  0  0  0  0  0  0  0  0  0  0
  183.5020  178.8030  138.8480 C   0  0  0  0  0  2  0  0  0  0  0  0
  185.2320  178.7880  140.6740 N   0  0  0  0  0  2  0  0  0  0  0  0
  188.6350  178.6400  137.6160 O   0  0  0  0  0  0  0  0  0  0  0  0
  188.3490  178.3540  141.7490 C   0  0  1  0  0  3  0  0  0  0  0  0
  185.5870  177.2630  137.5710 O   0  0  0  0  0  0  0  0  0  0  0  0
  186.6200  176.6220  136.8370 C   0  0  1  0  0  3  0  0  0  0  0  0
  183.2520  177.5500  140.8640 O   0  0  0  0  0  0  0  0  0  0  0  0
  183.9730  178.3260  140.1800 C   0  0  0  0  0  0  0  0  0  0  0  0
  184.2390  176.9720  137.3430 C   0  0  0  0  0  0  0  0  0  0  0  0
  181.8880  177.1080  137.6790 C   0  0  1  0  0  3  0  0  0  0  0  0
  188.9430  177.6190  139.7200 C   0  0  1  0  0  3  0  0  0  0  0  0
  188.8390  175.6900  137.0080 O   0  0  0  0  0  1  0  0  0  0  0  0
  183.6960  175.6110  136.3190 S   0  0  0  0  0  0  0  0  0  0  0  0
  192.8740  175.1410  137.8730 C   0  0  0  0  0  2  0  0  0  0  0  0
  192.9280  176.6560  138.8970 S   0  0  0  0  0  0  0  0  0  0  0  0
  190.4000  177.5780  139.7250 N   0  0  0  0  0  2  0  0  0  0  0  0
  190.5780  175.6050  138.4120 N   0  0  0  0  0  0  0  0  0  0  0  0
  191.1460  176.5970  139.0040 C   0  0  0  0  0  0  0  0  0  0  0  0
  191.0380  173.5970  137.0200 C   0  0  0  0  0  1  0  0  0  0  0  0
  191.4780  174.7580  137.7700 N   0  0  0  0  0  0  0  0  0  0  0  0
  180.7270  179.3320  137.1640 C   0  0  1  0  0  3  0  0  0  0  0  0
  180.9740  177.9010  136.7160 C   0  0  1  0  0  3  0  0  0  0  0  0
  181.0870  179.1930  134.6080 C   0  0  0  0  0  1  0  0  0  0  0  0
  181.6870  179.0320  135.9980 C   0  0  1  0  0  3  0  0  0  0  0  0
  179.0500  179.4380  135.4200 O   0  0  0  0  0  0  0  0  0  0  0  0
  179.4400  180.7650  135.6760 C   0  0  1  0  0  3  0  0  0  0  0  0
  178.9370  181.2190  137.0310 C   0  0  1  0  0  3  0  0  0  0  0  0
  179.3100  179.7600  136.7650 C   0  0  2  0  0  0  0  0  0  0  0  0
  180.0130  182.0500  137.7540 C   0  0  2  0  0  3  0  0  0  0  0  0
  181.2550  181.6040  139.8690 O   0  0  0  0  0  0  0  0  0  0  0  0
  180.0370  181.7770  139.2260 C   0  0  0  0  0  0  0  0  0  0  0  0
  178.9680  181.7490  139.8960 O   0  0  0  0  0  1  0  0  0  0  0  0
  179.9100  183.5570  137.4800 C   0  0  1  0  0  3  0  0  0  0  0  0
  179.4750  184.2370  138.6200 O   0  0  0  0  0  1  0  0  0  0  0  0
  182.3760  183.9800  137.6500 O   0  0  0  0  0  1  0  0  0  0  0  0
  181.1790  184.1620  136.9670 C   0  0  0  0  0  0  0  0  0  0  0  0
  181.1630  184.8330  135.9020 O   0  0  0  0  0  0  0  0  0  0  0  0
  186.9090  177.4010  135.5560 C   0  0  0  0  0  2  0  0  0  0  0  0
  186.4740  178.7210  135.6910 O   0  0  0  0  0  1  0  0  0  0  0  0
  189.5790  178.7240  142.5820 C   0  0  0  0  0  2  0  0  0  0  0  0
  190.3510  177.5040  143.0810 C   0  0  1  0  0  3  0  0  0  0  0  0
  191.8060  177.6110  142.6610 C   0  0  0  0  0  1  0  0  0  0  0  0
  191.2890  176.8220  145.3280 C   0  0  0  0  0  3  0  0  0  0  0  0
  192.1890  176.2070  147.4460 F   0  0  0  0  0  0  0  0  0  0  0  0
  188.9510  177.6850  146.5980 C   0  0  0  0  0  3  0  0  0  0  0  0
  190.0020  177.1530  147.3520 C   0  0  0  0  0  3  0  0  0  0  0  0
  190.2360  177.3550  144.5670 C   0  0  0  0  0  0  0  0  0  0  0  0
  191.1710  176.7200  146.7160 C   0  0  0  0  0  0  0  0  0  0  0  0
  189.0690  177.7850  145.2090 C   0  0  0  0  0  3  0  0  0  0  0  0
  1 20  1  6  0  0  0
  1  8  1  0  0  0  0
  4  3  1  0  0  0  0
  4  2  2  0  0  0  0
  5 12  1  0  0  0  0
  7  9  1  0  0  0  0
  8 19  1  0  0  0  0
  9 16  1  0  0  0  0
 10  4  1  0  0  0  0
 11  8  2  0  0  0  0
 12  3  1  0  0  0  0
 12 48  1  1  0  0  0
 14 46  1  6  0  0  0
 14 13  1  0  0  0  0
 14  1  1  0  0  0  0
 16 10  1  0  0  0  0
 16 15  2  0  0  0  0
 17 13  1  0  0  0  0
 17  7  2  0  0  0  0
 18  6  1  6  0  0  0
 18  7  1  0  0  0  0
 19 24  1  6  0  0  0
 19  5  1  0  0  0  0
 21  6  1  0  0  0  0
 21 17  1  0  0  0  0
 22 23  1  0  0  0  0
 23 26  1  0  0  0  0
 25 26  2  0  0  0  0
 26 24  1  0  0  0  0
 27 28  1  0  0  0  0
 28 22  1  0  0  0  0
 28 25  1  0  0  0  0
 29 36  1  6  0  0  0
 30 29  1  0  0  0  0
 30 18  1  1  0  0  0
 32 31  1  6  0  0  0
 32 30  1  0  0  0  0
 32 29  1  0  0  0  0
 34 33  1  6  0  0  0
 34 36  1  0  0  0  0
 34 35  1  0  0  0  0
 35 37  1  1  0  0  0
 36 33  1  6  0  0  0
 36 35  1  0  0  0  0
 37 39  1  1  0  0  0
 39 38  2  0  0  0  0
 39 40  1  0  0  0  0
 41 37  1  0  0  0  0
 41 42  1  1  0  0  0
 44 41  1  0  0  0  0
 44 43  1  0  0  0  0
 45 44  2  0  0  0  0
 46 47  1  0  0  0  0
 48 49  1  0  0  0  0
 49 50  1  1  0  0  0
 49 55  1  0  0  0  0
 51 56  1  0  0  0  0
 53 54  1  0  0  0  0
 55 57  1  0  0  0  0
 55 51  2  0  0  0  0
 56 54  2  0  0  0  0
 56 52  1  0  0  0  0
 57 53  2  0  0  0  0
M  END
>  <MODEL>
6

>  <REMARK>
 VINA RESULT:      -5.4      4.360     11.301
  Name = 
  11 active torsions:
  status: ('A' for Active; 'I' for Inactive)
    1  A    between atoms: N_10  and  C_54
    2  A    between atoms: C_11  and  C_48
    3  A    between atoms: C_14  and  C_46
    4  A    between atoms: C_22  and  C_38
    5  A    between atoms: C_24  and  C_33
    6  A    between atoms: C_24  and  C_48
    7  A    between atoms: C_25  and  C_30
    8  A    between atoms: C_25  and  C_40
    9  A    between atoms: C_28  and  C_52
   10  A    between atoms: C_34  and  C_48
   11  A    between atoms: C_36  and  C_40
                            x       y       z     vdW  Elec       q    Type
                         _______ _______ _______ _____ _____    ______ ____

>  <TORSDO>
F 11

$$$$
=
 OpenBabel11062416433D

 57 63  0  0  1  0  0  0  0  0999 V2000
  187.2510  178.9960  140.6430 C   0  0  1  0  0  3  0  0  0  0  0  0
  187.6050  177.1850  135.5760 O   0  0  0  0  0  0  0  0  0  0  0  0
  188.9100  175.6290  136.8080 C   0  0  0  0  0  2  0  0  0  0  0  0
  187.6280  176.3070  136.4780 C   0  0  0  0  0  0  0  0  0  0  0  0
  189.1070  176.2630  139.1190 O   0  0  0  0  0  0  0  0  0  0  0  0
  182.0430  179.4330  138.0070 C   0  0  0  0  0  2  0  0  0  0  0  0
  183.3800  177.4440  138.3220 C   0  0  0  0  0  0  0  0  0  0  0  0
  188.0200  177.7040  140.6690 C   0  0  0  0  0  0  0  0  0  0  0  0
  184.0260  176.1730  137.8670 C   0  0  0  0  0  2  0  0  0  0  0  0
  186.4500  175.9850  137.2230 N   0  0  0  0  0  2  0  0  0  0  0  0
  187.7830  176.8540  141.5150 O   0  0  0  0  0  0  0  0  0  0  0  0
  189.6860  176.4210  137.8490 C   0  0  1  0  0  3  0  0  0  0  0  0
  185.2030  178.0300  139.7410 O   0  0  0  0  0  0  0  0  0  0  0  0
  185.7290  178.8480  140.7770 C   0  0  1  0  0  3  0  0  0  0  0  0
  184.8990  177.0500  135.8270 O   0  0  0  0  0  0  0  0  0  0  0  0
  185.1340  176.4460  136.9080 C   0  0  0  0  0  0  0  0  0  0  0  0
  183.9430  178.2730  139.1880 C   0  0  0  0  0  0  0  0  0  0  0  0
  182.1010  177.9390  137.7190 C   0  0  1  0  0  3  0  0  0  0  0  0
  189.1710  177.5230  139.7280 C   0  0  1  0  0  3  0  0  0  0  0  0
  187.7480  179.8710  141.6110 O   0  0  0  0  0  1  0  0  0  0  0  0
  182.9970  179.7510  139.5280 S   0  0  0  0  0  0  0  0  0  0  0  0
  191.1330  177.3060  144.3230 C   0  0  0  0  0  2  0  0  0  0  0  0
  192.0550  177.5240  142.7570 S   0  0  0  0  0  0  0  0  0  0  0  0
  190.4210  177.6510  140.4670 N   0  0  0  0  0  2  0  0  0  0  0  0
  189.4410  177.4040  142.6190 N   0  0  0  0  0  0  0  0  0  0  0  0
  190.4940  177.5160  141.8870 C   0  0  0  0  0  0  0  0  0  0  0  0
  188.6770  177.1230  144.9680 C   0  0  0  0  0  1  0  0  0  0  0  0
  189.7240  177.2890  143.9770 N   0  0  0  0  0  0  0  0  0  0  0  0
  181.0050  175.8660  138.7490 C   0  0  1  0  0  3  0  0  0  0  0  0
  180.7940  177.2650  138.1960 C   0  0  1  0  0  3  0  0  0  0  0  0
  179.2930  177.1880  140.1630 C   0  0  0  0  0  1  0  0  0  0  0  0
  180.7360  177.0480  139.6970 C   0  0  1  0  0  3  0  0  0  0  0  0
  179.4230  174.2050  139.5240 O   0  0  0  0  0  0  0  0  0  0  0  0
  180.2160  173.5720  138.5500 C   0  0  1  0  0  3  0  0  0  0  0  0
  179.9030  174.1120  137.1700 C   0  0  1  0  0  3  0  0  0  0  0  0
  179.7910  174.9900  138.4160 C   0  0  2  0  0  0  0  0  0  0  0  0
  181.1970  174.2900  136.3560 C   0  0  2  0  0  3  0  0  0  0  0  0
  179.7210  175.2750  134.6030 O   0  0  0  0  0  0  0  0  0  0  0  0
  180.9890  175.1660  135.1590 C   0  0  0  0  0  0  0  0  0  0  0  0
  181.9400  175.8430  134.6800 O   0  0  0  0  0  1  0  0  0  0  0  0
  181.8560  172.9640  135.9520 C   0  0  1  0  0  3  0  0  0  0  0  0
  181.6020  172.6740  134.6100 O   0  0  0  0  0  1  0  0  0  0  0  0
  184.2240  173.5530  135.3730 O   0  0  0  0  0  0  0  0  0  0  0  0
  183.3270  172.9170  136.2240 C   0  0  0  0  0  0  0  0  0  0  0  0
  183.7540  172.3050  137.2380 O   0  0  0  0  0  1  0  0  0  0  0  0
  185.2860  178.3150  142.1370 C   0  0  0  0  0  2  0  0  0  0  0  0
  184.6060  179.3100  142.8430 O   0  0  0  0  0  1  0  0  0  0  0  0
  191.1560  175.9920  137.8490 C   0  0  0  0  0  2  0  0  0  0  0  0
  191.5260  175.1310  136.6430 C   0  0  1  0  0  3  0  0  0  0  0  0
  191.6320  176.0020  135.4040 C   0  0  0  0  0  1  0  0  0  0  0  0
  193.6260  174.6730  137.9760 C   0  0  0  0  0  3  0  0  0  0  0  0
  195.5870  174.2230  139.2510 F   0  0  0  0  0  0  0  0  0  0  0  0
  194.3280  172.6150  136.2150 C   0  0  0  0  0  3  0  0  0  0  0  0
  195.1470  172.9100  137.3100 C   0  0  0  0  0  3  0  0  0  0  0  0
  192.8010  174.3810  136.8770 C   0  0  0  0  0  0  0  0  0  0  0  0
  194.7960  173.9400  138.1900 C   0  0  0  0  0  0  0  0  0  0  0  0
  193.1590  173.3500  136.0000 C   0  0  0  0  0  3  0  0  0  0  0  0
  1  8  1  0  0  0  0
  1 14  1  0  0  0  0
  1 20  1  1  0  0  0
  2  4  2  0  0  0  0
  3 12  1  0  0  0  0
  4  3  1  0  0  0  0
  4 10  1  0  0  0  0
  5 19  1  0  0  0  0
  6 21  1  0  0  0  0
  7 17  2  0  0  0  0
  8 11  2  0  0  0  0
  9  7  1  0  0  0  0
 12 48  1  1  0  0  0
 12  5  1  0  0  0  0
 13 14  1  0  0  0  0
 14 46  1  1  0  0  0
 15 16  2  0  0  0  0
 16 10  1  0  0  0  0
 16  9  1  0  0  0  0
 17 21  1  0  0  0  0
 17 13  1  0  0  0  0
 18  6  1  1  0  0  0
 18  7  1  0  0  0  0
 19 24  1  1  0  0  0
 19  8  1  0  0  0  0
 23 22  1  0  0  0  0
 24 26  1  0  0  0  0
 25 28  1  0  0  0  0
 26 25  2  0  0  0  0
 26 23  1  0  0  0  0
 28 22  1  0  0  0  0
 28 27  1  0  0  0  0
 29 36  1  6  0  0  0
 29 32  1  0  0  0  0
 30 18  1  1  0  0  0
 30 29  1  0  0  0  0
 30 32  1  0  0  0  0
 32 31  1  6  0  0  0
 34 33  1  1  0  0  0
 35 37  1  6  0  0  0
 35 36  1  0  0  0  0
 35 34  1  0  0  0  0
 36 34  1  0  0  0  0
 36 33  1  1  0  0  0
 37 39  1  6  0  0  0
 38 39  2  0  0  0  0
 40 39  1  0  0  0  0
 41 42  1  6  0  0  0
 41 44  1  0  0  0  0
 41 37  1  0  0  0  0
 43 44  2  0  0  0  0
 44 45  1  0  0  0  0
 46 47  1  0  0  0  0
 49 50  1  6  0  0  0
 49 55  1  0  0  0  0
 49 48  1  0  0  0  0
 51 56  1  0  0  0  0
 53 54  1  0  0  0  0
 54 56  2  0  0  0  0
 55 51  2  0  0  0  0
 56 52  1  0  0  0  0
 57 53  2  0  0  0  0
 57 55  1  0  0  0  0
M  END
>  <MODEL>
7

>  <REMARK>
 VINA RESULT:      -5.3      4.102     11.253
  Name = 
  11 active torsions:
  status: ('A' for Active; 'I' for Inactive)
    1  A    between atoms: N_10  and  C_54
    2  A    between atoms: C_11  and  C_48
    3  A    between atoms: C_14  and  C_46
    4  A    between atoms: C_22  and  C_38
    5  A    between atoms: C_24  and  C_33
    6  A    between atoms: C_24  and  C_48
    7  A    between atoms: C_25  and  C_30
    8  A    between atoms: C_25  and  C_40
    9  A    between atoms: C_28  and  C_52
   10  A    between atoms: C_34  and  C_48
   11  A    between atoms: C_36  and  C_40
                            x       y       z     vdW  Elec       q    Type
                         _______ _______ _______ _____ _____    ______ ____

>  <TORSDO>
F 11

$$$$
