=
 OpenBabel11062412543D

 50 56  0  0  1  0  0  0  0  0999 V2000
  185.8360  178.3140  142.6050 C   0  0  0  0  0  0  0  0  0  0  0  0
  186.5290  177.7690  144.8560 C   0  0  0  0  0  3  0  0  0  0  0  0
  188.1930  177.9200  143.0930 C   0  0  0  0  0  0  0  0  0  0  0  0
  184.8790  178.6090  141.6470 O   0  0  0  0  0  1  0  0  0  0  0  0
  187.1650  178.2570  142.2080 C   0  0  0  0  0  3  0  0  0  0  0  0
  187.8690  177.6550  144.4540 C   0  0  0  0  0  0  0  0  0  0  0  0
  185.5020  178.0810  143.9570 C   0  0  0  0  0  0  0  0  0  0  0  0
  193.7670  175.8770  138.8160 O   0  0  0  0  0  0  0  0  0  0  0  0
  190.3260  176.8600  142.0680 C   0  0  1  0  0  3  0  0  0  0  0  0
  191.6600  178.5280  142.9440 O   0  0  0  0  0  0  0  0  0  0  0  0
  190.4220  178.8740  143.3450 O   0  0  0  0  0  0  0  0  0  0  0  0
  191.3160  176.7670  140.0910 C   0  0  0  0  0  0  0  0  0  0  0  0
  191.5300  176.5160  138.7030 N   0  0  0  0  0  2  0  0  0  0  0  0
  189.5680  178.0990  142.5030 C   0  0  2  0  0  3  0  0  0  0  0  0
  192.2420  177.4610  140.9170 N   0  0  0  0  0  0  0  0  0  0  0  0
  192.8140  176.2960  138.1190 C   0  0  0  0  0  0  0  0  0  0  0  0
  193.0470  176.5980  136.6800 C   0  0  0  0  0  1  0  0  0  0  0  0
  190.1780  176.4960  140.6690 N   0  0  0  0  0  0  0  0  0  0  0  0
  191.6130  177.5000  142.0470 C   0  0  0  0  0  0  0  0  0  0  0  0
  191.0810  176.4340  146.0130 C   0  0  0  0  0  3  0  0  0  0  0  0
  188.7490  177.7590  146.7890 C   0  0  0  0  0  3  0  0  0  0  0  0
  192.0650  176.9030  148.1590 O   0  0  0  0  0  1  0  0  0  0  0  0
  188.8350  177.2280  145.4900 C   0  0  0  0  0  0  0  0  0  0  0  0
  191.0010  177.0180  147.2740 C   0  0  0  0  0  0  0  0  0  0  0  0
  189.8140  177.6260  147.6860 C   0  0  0  0  0  3  0  0  0  0  0  0
  190.0160  176.5640  145.1190 C   0  0  0  0  0  3  0  0  0  0  0  0
  184.1260  178.3510  144.5280 C   0  0  1  0  0  3  0  0  0  0  0  0
  184.1560  178.8550  145.8330 O   0  0  0  0  0  1  0  0  0  0  0  0
  183.2380  179.2330  143.6600 C   0  0  0  0  0  2  0  0  0  0  0  0
  181.8150  178.7440  143.8520 C   0  0  0  0  0  2  0  0  0  0  0  0
  180.9920  178.7930  142.5740 C   0  0  0  0  0  2  0  0  0  0  0  0
  181.8460  179.0810  141.3350 C   0  0  2  0  0  3  0  0  0  0  0  0
  180.6370  176.9430  140.3120 C   0  0  0  0  0  2  0  0  0  0  0  0
  181.6080  180.4520  139.4360 F   0  0  0  0  0  0  0  0  0  0  0  0
  181.3700  175.6990  139.8130 C   0  0  0  0  0  2  0  0  0  0  0  0
  180.9220  179.5230  140.2030 C   0  0  1  0  0  3  0  0  0  0  0  0
  182.1220  177.4060  138.0640 C   0  0  2  0  0  3  0  0  0  0  0  0
  181.5780  178.1590  140.1450 C   0  0  1  0  0  0  0  0  0  0  0  0
  182.6310  178.0800  139.2040 O   0  0  0  0  0  0  0  0  0  0  0  0
  181.9260  175.9150  138.3920 C   0  0  0  0  0  2  0  0  0  0  0  0
  182.2520  177.7690  135.6920 O   0  0  0  0  0  1  0  0  0  0  0  0
  183.0270  177.5780  136.8440 C   0  0  2  0  0  3  0  0  0  0  0  0
  183.9180  175.8810  135.2010 C   0  0  0  0  0  1  0  0  0  0  0  0
  183.9240  176.3390  136.6580 C   0  0  1  0  0  3  0  0  0  0  0  0
  185.6790  177.7920  137.7170 C   0  0  0  0  0  3  0  0  0  0  0  0
  187.0060  177.9830  138.1080 C   0  0  0  0  0  3  0  0  0  0  0  0
  187.5680  175.8250  137.3240 C   0  0  0  0  0  3  0  0  0  0  0  0
  187.9200  176.9890  137.9170 N   0  0  0  0  0  0  0  0  0  0  0  0
  185.3260  176.5710  137.1180 C   0  0  0  0  0  0  0  0  0  0  0  0
  186.2850  175.6210  136.9190 N   0  0  0  0  0  0  0  0  0  0  0  0
  1  7  1  0  0  0  0
  3  6  2  0  0  0  0
  4  1  1  0  0  0  0
  5  1  2  0  0  0  0
  5  3  1  0  0  0  0
  6  2  1  0  0  0  0
  6 23  1  0  0  0  0
  7 27  1  0  0  0  0
  7  2  2  0  0  0  0
  9 18  1  6  0  0  0
  9 14  1  0  0  0  0
 10 11  1  0  0  0  0
 12 18  2  0  0  0  0
 12 15  1  0  0  0  0
 13 12  1  0  0  0  0
 14  3  1  1  0  0  0
 14 11  1  0  0  0  0
 15 19  2  0  0  0  0
 16 13  1  0  0  0  0
 16  8  2  0  0  0  0
 17 16  1  0  0  0  0
 19  9  1  0  0  0  0
 19 10  1  0  0  0  0
 20 24  1  0  0  0  0
 21 25  1  0  0  0  0
 23 21  2  0  0  0  0
 24 25  2  0  0  0  0
 24 22  1  0  0  0  0
 26 23  1  0  0  0  0
 26 20  2  0  0  0  0
 27 28  1  1  0  0  0
 29 30  1  0  0  0  0
 29 27  1  0  0  0  0
 31 30  1  0  0  0  0
 32 31  1  1  0  0  0
 35 33  1  0  0  0  0
 36 34  1  6  0  0  0
 36 32  1  0  0  0  0
 37 42  1  6  0  0  0
 37 40  1  0  0  0  0
 37 39  1  0  0  0  0
 38 36  1  0  0  0  0
 38 33  1  1  0  0  0
 38 32  1  0  0  0  0
 39 38  1  0  0  0  0
 40 35  1  0  0  0  0
 42 41  1  6  0  0  0
 44 43  1  6  0  0  0
 44 42  1  0  0  0  0
 44 49  1  0  0  0  0
 45 46  1  0  0  0  0
 47 48  1  0  0  0  0
 48 46  2  0  0  0  0
 49 45  2  0  0  0  0
 50 49  1  0  0  0  0
 50 47  2  0  0  0  0
M  END
>  <MODEL>
1

>  <REMARK>
 VINA RESULT:     -10.5      0.000      0.000
  Name = 
  10 active torsions:
  status: ('A' for Active; 'I' for Inactive)
    1  A    between atoms: C_1  and  C_12
    2  A    between atoms: C_6  and  C_35
    3  A    between atoms: C_12  and  C_24
    4  A    between atoms: C_16  and  C_28
    5  A    between atoms: C_16  and  C_32
    6  A    between atoms: C_17  and  C_28
    7  A    between atoms: C_18  and  C_27
    8  A    between atoms: C_18  and  C_50
    9  A    between atoms: C_24  and  C_50
   10  A    between atoms: C_25  and  C_42
                            x       y       z     vdW  Elec       q    Type
                         _______ _______ _______ _____ _____    ______ ____

>  <TORSDO>
F 10

$$$$
=
 OpenBabel11062412543D

 50 56  0  0  1  0  0  0  0  0999 V2000
  184.7440  179.0810  140.8920 C   0  0  0  0  0  0  0  0  0  0  0  0
  182.5460  178.2050  140.3950 C   0  0  0  0  0  3  0  0  0  0  0  0
  184.3350  177.9450  138.7720 C   0  0  0  0  0  0  0  0  0  0  0  0
  185.6510  179.7520  141.6980 O   0  0  0  0  0  1  0  0  0  0  0  0
  185.1880  178.5910  139.6710 C   0  0  0  0  0  3  0  0  0  0  0  0
  182.9710  177.7560  139.1350 C   0  0  0  0  0  0  0  0  0  0  0  0
  183.4010  178.8760  141.2780 C   0  0  0  0  0  0  0  0  0  0  0  0
  190.3620  175.6970  135.2880 O   0  0  0  0  0  0  0  0  0  0  0  0
  186.5010  177.7370  137.3630 C   0  0  1  0  0  3  0  0  0  0  0  0
  185.2910  177.3630  135.4330 O   0  0  0  0  0  0  0  0  0  0  0  0
  184.3410  177.4970  136.3760 O   0  0  0  0  0  0  0  0  0  0  0  0
  188.0580  176.2140  136.9760 C   0  0  0  0  0  0  0  0  0  0  0  0
  189.1060  175.2720  137.2030 N   0  0  0  0  0  2  0  0  0  0  0  0
  185.0580  177.3340  137.6010 C   0  0  2  0  0  3  0  0  0  0  0  0
  187.4370  176.4120  135.7130 N   0  0  0  0  0  0  0  0  0  0  0  0
  190.0860  174.9150  136.2260 C   0  0  0  0  0  0  0  0  0  0  0  0
  190.7620  173.5910  136.2890 C   0  0  0  0  0  1  0  0  0  0  0  0
  187.5000  176.8650  137.9590 N   0  0  0  0  0  0  0  0  0  0  0  0
  186.5330  177.2920  135.9960 C   0  0  0  0  0  0  0  0  0  0  0  0
  180.5470  177.3340  136.2740 C   0  0  0  0  0  3  0  0  0  0  0  0
  181.8420  175.7470  138.1720 C   0  0  0  0  0  3  0  0  0  0  0  0
  179.7980  175.3550  135.1260 O   0  0  0  0  0  1  0  0  0  0  0  0
  181.9380  177.1470  138.2690 C   0  0  0  0  0  0  0  0  0  0  0  0
  180.5130  175.9480  136.1590 C   0  0  0  0  0  0  0  0  0  0  0  0
  181.1060  175.1520  137.1420 C   0  0  0  0  0  3  0  0  0  0  0  0
  181.2790  177.9280  137.3050 C   0  0  0  0  0  3  0  0  0  0  0  0
  182.8880  179.1590  142.6740 C   0  0  1  0  0  3  0  0  0  0  0  0
  181.4920  179.1780  142.7590 O   0  0  0  0  0  1  0  0  0  0  0  0
  183.4550  178.2490  143.7570 C   0  0  0  0  0  2  0  0  0  0  0  0
  183.4870  179.0620  145.0370 C   0  0  0  0  0  2  0  0  0  0  0  0
  184.7000  178.7570  145.9040 C   0  0  0  0  0  2  0  0  0  0  0  0
  185.9930  178.6470  145.0900 C   0  0  2  0  0  3  0  0  0  0  0  0
  186.9520  177.4200  147.2470 C   0  0  0  0  0  2  0  0  0  0  0  0
  186.8400  177.1160  143.5170 F   0  0  0  0  0  0  0  0  0  0  0  0
  188.1720  177.8950  148.0340 C   0  0  0  0  0  2  0  0  0  0  0  0
  186.2350  177.1770  144.7620 C   0  0  1  0  0  3  0  0  0  0  0  0
  189.2880  177.1800  145.8470 C   0  0  2  0  0  3  0  0  0  0  0  0
  187.1170  177.8720  145.7770 C   0  0  1  0  0  0  0  0  0  0  0  0
  188.4170  178.1550  145.2950 O   0  0  0  0  0  0  0  0  0  0  0  0
  189.4800  177.4540  147.3490 C   0  0  0  0  0  2  0  0  0  0  0  0
  191.6820  177.2140  146.0550 O   0  0  0  0  0  1  0  0  0  0  0  0
  190.6350  177.1400  145.1260 C   0  0  2  0  0  3  0  0  0  0  0  0
  192.0560  179.0740  144.3430 C   0  0  0  0  0  1  0  0  0  0  0  0
  190.7510  178.3100  144.1300 C   0  0  1  0  0  3  0  0  0  0  0  0
  191.7940  177.5030  141.9910 C   0  0  0  0  0  3  0  0  0  0  0  0
  191.6550  177.1220  140.6550 C   0  0  0  0  0  3  0  0  0  0  0  0
  189.3200  177.4640  140.7800 C   0  0  0  0  0  3  0  0  0  0  0  0
  190.4190  177.0960  140.0810 N   0  0  0  0  0  0  0  0  0  0  0  0
  190.6410  177.8670  142.7080 C   0  0  0  0  0  0  0  0  0  0  0  0
  189.4310  177.8550  142.0790 N   0  0  0  0  0  0  0  0  0  0  0  0
  1  7  1  0  0  0  0
  1  4  1  0  0  0  0
  2  7  2  0  0  0  0
  3  6  2  0  0  0  0
  3  5  1  0  0  0  0
  5  1  2  0  0  0  0
  6  2  1  0  0  0  0
  7 27  1  0  0  0  0
  8 16  2  0  0  0  0
  9 19  1  6  0  0  0
  9 14  1  0  0  0  0
  9 18  1  0  0  0  0
 10 19  1  0  0  0  0
 10 11  1  0  0  0  0
 11 14  1  0  0  0  0
 12 13  1  0  0  0  0
 12 18  2  0  0  0  0
 14  3  1  1  0  0  0
 15 19  2  0  0  0  0
 15 12  1  0  0  0  0
 16 17  1  0  0  0  0
 16 13  1  0  0  0  0
 20 26  1  0  0  0  0
 21 23  1  0  0  0  0
 22 24  1  0  0  0  0
 23  6  1  0  0  0  0
 24 20  2  0  0  0  0
 24 25  1  0  0  0  0
 25 21  2  0  0  0  0
 26 23  2  0  0  0  0
 27 28  1  6  0  0  0
 27 29  1  0  0  0  0
 29 30  1  0  0  0  0
 30 31  1  0  0  0  0
 32 38  1  0  0  0  0
 32 31  1  1  0  0  0
 33 35  1  0  0  0  0
 36 34  1  6  0  0  0
 36 32  1  0  0  0  0
 36 38  1  0  0  0  0
 37 42  1  6  0  0  0
 37 40  1  0  0  0  0
 38 33  1  1  0  0  0
 39 38  1  0  0  0  0
 39 37  1  0  0  0  0
 40 35  1  0  0  0  0
 42 41  1  1  0  0  0
 44 43  1  6  0  0  0
 44 42  1  0  0  0  0
 45 49  1  0  0  0  0
 46 45  2  0  0  0  0
 47 50  1  0  0  0  0
 48 46  1  0  0  0  0
 48 47  2  0  0  0  0
 49 44  1  0  0  0  0
 50 49  2  0  0  0  0
M  END
>  <MODEL>
2

>  <REMARK>
 VINA RESULT:     -10.5      2.219      8.417
  Name = 
  10 active torsions:
  status: ('A' for Active; 'I' for Inactive)
    1  A    between atoms: C_1  and  C_12
    2  A    between atoms: C_6  and  C_35
    3  A    between atoms: C_12  and  C_24
    4  A    between atoms: C_16  and  C_28
    5  A    between atoms: C_16  and  C_32
    6  A    between atoms: C_17  and  C_28
    7  A    between atoms: C_18  and  C_27
    8  A    between atoms: C_18  and  C_50
    9  A    between atoms: C_24  and  C_50
   10  A    between atoms: C_25  and  C_42
                            x       y       z     vdW  Elec       q    Type
                         _______ _______ _______ _____ _____    ______ ____

>  <TORSDO>
F 10

$$$$
=
 OpenBabel11062412543D

 50 56  0  0  1  0  0  0  0  0999 V2000
  190.8370  176.4280  142.7100 C   0  0  0  0  0  0  0  0  0  0  0  0
  188.9540  177.6020  141.7500 C   0  0  0  0  0  3  0  0  0  0  0  0
  190.5980  176.5750  140.2860 C   0  0  0  0  0  0  0  0  0  0  0  0
  191.5950  175.9800  143.7800 O   0  0  0  0  0  1  0  0  0  0  0  0
  191.2700  176.1240  141.4260 C   0  0  0  0  0  3  0  0  0  0  0  0
  189.4120  177.3470  140.4490 C   0  0  0  0  0  0  0  0  0  0  0  0
  189.6480  177.1690  142.8870 C   0  0  0  0  0  0  0  0  0  0  0  0
  195.7740  175.5880  135.2110 O   0  0  0  0  0  0  0  0  0  0  0  0
  192.1970  176.7420  138.2520 C   0  0  1  0  0  3  0  0  0  0  0  0
  190.7090  175.6070  136.9020 O   0  0  0  0  0  0  0  0  0  0  0  0
  190.0840  175.6430  138.0930 O   0  0  0  0  0  0  0  0  0  0  0  0
  194.0200  175.7250  137.5200 C   0  0  0  0  0  0  0  0  0  0  0  0
  195.3550  175.2220  137.4720 N   0  0  0  0  0  2  0  0  0  0  0  0
  191.1280  175.9780  139.0090 C   0  0  2  0  0  3  0  0  0  0  0  0
  193.0370  175.4440  136.5310 N   0  0  0  0  0  0  0  0  0  0  0  0
  196.0760  174.9800  136.2630 C   0  0  0  0  0  0  0  0  0  0  0  0
  197.1720  173.9750  136.2310 C   0  0  0  0  0  1  0  0  0  0  0  0
  193.5680  176.3690  138.5600 N   0  0  0  0  0  0  0  0  0  0  0  0
  191.9970  176.0440  137.0120 C   0  0  0  0  0  0  0  0  0  0  0  0
  188.6420  179.1120  137.2040 C   0  0  0  0  0  3  0  0  0  0  0  0
  187.3650  177.4190  139.0210 C   0  0  0  0  0  3  0  0  0  0  0  0
  186.8140  178.8410  135.6620 O   0  0  0  0  0  1  0  0  0  0  0  0
  188.6290  177.9430  139.3450 C   0  0  0  0  0  0  0  0  0  0  0  0
  187.4180  178.5370  136.8750 C   0  0  0  0  0  0  0  0  0  0  0  0
  186.7490  177.7400  137.8060 C   0  0  0  0  0  3  0  0  0  0  0  0
  189.2550  178.7930  138.4180 C   0  0  0  0  0  3  0  0  0  0  0  0
  188.9750  177.3450  144.2310 C   0  0  1  0  0  3  0  0  0  0  0  0
  189.1710  178.6130  144.7880 O   0  0  0  0  0  1  0  0  0  0  0  0
  187.4910  177.0010  144.2500 C   0  0  0  0  0  2  0  0  0  0  0  0
  186.8490  177.8910  145.2980 C   0  0  0  0  0  2  0  0  0  0  0  0
  185.5550  178.5330  144.8190 C   0  0  0  0  0  2  0  0  0  0  0  0
  185.1950  178.1330  143.3860 C   0  0  2  0  0  3  0  0  0  0  0  0
  182.8980  179.3810  143.8810 C   0  0  0  0  0  2  0  0  0  0  0  0
  185.5520  179.0750  141.2590 F   0  0  0  0  0  0  0  0  0  0  0  0
  181.5240  178.7180  143.7950 C   0  0  0  0  0  2  0  0  0  0  0  0
  185.1190  179.3980  142.5350 C   0  0  1  0  0  3  0  0  0  0  0  0
  182.1930  178.7100  141.3260 C   0  0  2  0  0  3  0  0  0  0  0  0
  183.8460  178.6620  142.8940 C   0  0  1  0  0  0  0  0  0  0  0  0
  183.2840  177.9450  141.8110 O   0  0  0  0  0  0  0  0  0  0  0  0
  181.0330  178.6490  142.3360 C   0  0  0  0  0  2  0  0  0  0  0  0
  180.3430  178.3710  139.8300 O   0  0  0  0  0  1  0  0  0  0  0  0
  181.7340  178.2450  139.9450 C   0  0  2  0  0  3  0  0  0  0  0  0
  180.9270  175.8550  139.8480 C   0  0  0  0  0  1  0  0  0  0  0  0
  182.1370  176.7770  139.7080 C   0  0  1  0  0  3  0  0  0  0  0  0
  183.3960  175.3350  138.0800 C   0  0  0  0  0  3  0  0  0  0  0  0
  184.0220  175.1860  136.8410 C   0  0  0  0  0  3  0  0  0  0  0  0
  183.4510  177.4050  136.2630 C   0  0  0  0  0  3  0  0  0  0  0  0
  184.0240  176.2200  135.9520 N   0  0  0  0  0  0  0  0  0  0  0  0
  182.7910  176.5670  138.3810 C   0  0  0  0  0  0  0  0  0  0  0  0
  182.8480  177.5810  137.4710 N   0  0  0  0  0  0  0  0  0  0  0  0
  1  7  1  0  0  0  0
  1  4  1  0  0  0  0
  2  7  2  0  0  0  0
  3  6  2  0  0  0  0
  3  5  1  0  0  0  0
  5  1  2  0  0  0  0
  6  2  1  0  0  0  0
  7 27  1  0  0  0  0
  8 16  2  0  0  0  0
  9 19  1  6  0  0  0
  9 18  1  0  0  0  0
  9 14  1  0  0  0  0
 10 19  1  0  0  0  0
 10 11  1  0  0  0  0
 11 14  1  0  0  0  0
 12 18  2  0  0  0  0
 13 12  1  0  0  0  0
 14  3  1  1  0  0  0
 15 19  2  0  0  0  0
 15 12  1  0  0  0  0
 16 13  1  0  0  0  0
 17 16  1  0  0  0  0
 20 26  1  0  0  0  0
 21 23  1  0  0  0  0
 22 24  1  0  0  0  0
 23  6  1  0  0  0  0
 24 20  2  0  0  0  0
 24 25  1  0  0  0  0
 25 21  2  0  0  0  0
 26 23  2  0  0  0  0
 27 29  1  0  0  0  0
 27 28  1  6  0  0  0
 29 30  1  0  0  0  0
 31 30  1  0  0  0  0
 32 31  1  1  0  0  0
 35 33  1  0  0  0  0
 36 34  1  6  0  0  0
 36 38  1  0  0  0  0
 36 32  1  0  0  0  0
 37 42  1  6  0  0  0
 37 39  1  0  0  0  0
 37 40  1  0  0  0  0
 38 32  1  0  0  0  0
 38 33  1  1  0  0  0
 39 38  1  0  0  0  0
 40 35  1  0  0  0  0
 42 41  1  1  0  0  0
 44 43  1  6  0  0  0
 44 42  1  0  0  0  0
 45 49  1  0  0  0  0
 46 45  2  0  0  0  0
 47 50  1  0  0  0  0
 48 47  2  0  0  0  0
 48 46  1  0  0  0  0
 49 44  1  0  0  0  0
 50 49  2  0  0  0  0
M  END
>  <MODEL>
3

>  <REMARK>
 VINA RESULT:     -10.1      2.242      5.618
  Name = 
  10 active torsions:
  status: ('A' for Active; 'I' for Inactive)
    1  A    between atoms: C_1  and  C_12
    2  A    between atoms: C_6  and  C_35
    3  A    between atoms: C_12  and  C_24
    4  A    between atoms: C_16  and  C_28
    5  A    between atoms: C_16  and  C_32
    6  A    between atoms: C_17  and  C_28
    7  A    between atoms: C_18  and  C_27
    8  A    between atoms: C_18  and  C_50
    9  A    between atoms: C_24  and  C_50
   10  A    between atoms: C_25  and  C_42
                            x       y       z     vdW  Elec       q    Type
                         _______ _______ _______ _____ _____    ______ ____

>  <TORSDO>
F 10

$$$$
=
 OpenBabel11062412543D

 50 56  0  0  1  0  0  0  0  0999 V2000
  187.0710  178.0000  137.3750 C   0  0  0  0  0  0  0  0  0  0  0  0
  186.6400  175.7790  136.5220 C   0  0  0  0  0  3  0  0  0  0  0  0
  184.8480  177.0200  137.5930 C   0  0  0  0  0  0  0  0  0  0  0  0
  187.8970  179.0830  137.6330 O   0  0  0  0  0  1  0  0  0  0  0  0
  185.7420  178.0800  137.7680 C   0  0  0  0  0  3  0  0  0  0  0  0
  185.3100  175.8290  136.9640 C   0  0  0  0  0  0  0  0  0  0  0  0
  187.5360  176.8360  136.7250 C   0  0  0  0  0  0  0  0  0  0  0  0
  179.1660  177.6870  142.1540 O   0  0  0  0  0  0  0  0  0  0  0  0
  182.7430  176.6660  139.0650 C   0  0  1  0  0  3  0  0  0  0  0  0
  181.3410  177.1750  137.3040 O   0  0  0  0  0  0  0  0  0  0  0  0
  182.5700  177.3090  136.7730 O   0  0  0  0  0  0  0  0  0  0  0  0
  181.6200  177.7870  140.6060 C   0  0  0  0  0  0  0  0  0  0  0  0
  181.3250  178.4920  141.8120 N   0  0  0  0  0  2  0  0  0  0  0  0
  183.4230  177.3860  137.9170 C   0  0  2  0  0  3  0  0  0  0  0  0
  180.7020  177.6530  139.5290 N   0  0  0  0  0  0  0  0  0  0  0  0
  180.0230  178.5670  142.3960 C   0  0  0  0  0  0  0  0  0  0  0  0
  179.6580  179.7130  143.2720 C   0  0  0  0  0  1  0  0  0  0  0  0
  182.8170  177.3350  140.3540 N   0  0  0  0  0  0  0  0  0  0  0  0
  181.4080  177.0080  138.6570 C   0  0  0  0  0  0  0  0  0  0  0  0
  183.2790  173.1710  135.2180 C   0  0  0  0  0  3  0  0  0  0  0  0
  184.7000  173.4920  137.6000 C   0  0  0  0  0  3  0  0  0  0  0  0
  183.0500  170.8170  135.6690 O   0  0  0  0  0  1  0  0  0  0  0  0
  184.5010  174.6060  136.7650 C   0  0  0  0  0  0  0  0  0  0  0  0
  183.5370  172.0680  136.0270 C   0  0  0  0  0  0  0  0  0  0  0  0
  184.1930  172.2370  137.2480 C   0  0  0  0  0  3  0  0  0  0  0  0
  183.7830  174.4240  135.5720 C   0  0  0  0  0  3  0  0  0  0  0  0
  188.8900  176.7470  136.0540 C   0  0  1  0  0  3  0  0  0  0  0  0
  189.0240  177.6080  134.9590 O   0  0  0  0  0  1  0  0  0  0  0  0
  190.0790  176.9230  136.9910 C   0  0  0  0  0  2  0  0  0  0  0  0
  189.8720  175.9590  138.1440 C   0  0  0  0  0  2  0  0  0  0  0  0
  190.4720  176.4570  139.4500 C   0  0  0  0  0  2  0  0  0  0  0  0
  189.4050  176.8680  140.4690 C   0  0  2  0  0  3  0  0  0  0  0  0
  191.4660  177.1960  142.1200 C   0  0  0  0  0  2  0  0  0  0  0  0
  188.3120  178.8810  141.0100 F   0  0  0  0  0  0  0  0  0  0  0  0
  191.6260  176.4630  143.4500 C   0  0  0  0  0  2  0  0  0  0  0  0
  189.5720  178.3550  140.7720 C   0  0  1  0  0  3  0  0  0  0  0  0
  189.6160  177.9510  143.9860 C   0  0  2  0  0  3  0  0  0  0  0  0
  189.9550  177.3310  141.8190 C   0  0  1  0  0  0  0  0  0  0  0  0
  189.0380  177.2540  142.8940 O   0  0  0  0  0  0  0  0  0  0  0  0
  190.7880  177.1330  144.5570 C   0  0  0  0  0  2  0  0  0  0  0  0
  189.1520  178.0500  146.3420 O   0  0  0  0  0  1  0  0  0  0  0  0
  188.5910  178.2620  145.0750 C   0  0  2  0  0  3  0  0  0  0  0  0
  187.0200  176.6510  146.2200 C   0  0  0  0  0  1  0  0  0  0  0  0
  187.3430  177.3740  144.9140 C   0  0  1  0  0  3  0  0  0  0  0  0
  185.1680  178.5520  145.3590 C   0  0  0  0  0  3  0  0  0  0  0  0
  184.0530  179.2400  144.8750 C   0  0  0  0  0  3  0  0  0  0  0  0
  184.8910  179.0890  142.6700 C   0  0  0  0  0  3  0  0  0  0  0  0
  183.9440  179.5070  143.5430 N   0  0  0  0  0  0  0  0  0  0  0  0
  186.1500  178.1390  144.4410 C   0  0  0  0  0  0  0  0  0  0  0  0
  185.9790  178.4020  143.1140 N   0  0  0  0  0  0  0  0  0  0  0  0
  1  4  1  0  0  0  0
  1  5  1  0  0  0  0
  2  7  1  0  0  0  0
  2  6  2  0  0  0  0
  3  5  2  0  0  0  0
  6  3  1  0  0  0  0
  7  1  2  0  0  0  0
  8 16  2  0  0  0  0
  9 19  1  6  0  0  0
  9 18  1  0  0  0  0
 10 19  1  0  0  0  0
 11 10  1  0  0  0  0
 11 14  1  0  0  0  0
 12 13  1  0  0  0  0
 13 16  1  0  0  0  0
 14  3  1  6  0  0  0
 14  9  1  0  0  0  0
 15 12  1  0  0  0  0
 16 17  1  0  0  0  0
 18 12  2  0  0  0  0
 19 15  2  0  0  0  0
 20 26  2  0  0  0  0
 20 24  1  0  0  0  0
 22 24  1  0  0  0  0
 23  6  1  0  0  0  0
 23 21  2  0  0  0  0
 24 25  2  0  0  0  0
 25 21  1  0  0  0  0
 26 23  1  0  0  0  0
 27 28  1  6  0  0  0
 27  7  1  0  0  0  0
 27 29  1  0  0  0  0
 29 30  1  0  0  0  0
 30 31  1  0  0  0  0
 32 31  1  6  0  0  0
 32 36  1  0  0  0  0
 32 38  1  0  0  0  0
 33 35  1  0  0  0  0
 35 40  1  0  0  0  0
 36 34  1  1  0  0  0
 36 38  1  0  0  0  0
 37 40  1  0  0  0  0
 37 42  1  1  0  0  0
 38 33  1  1  0  0  0
 38 39  1  0  0  0  0
 39 37  1  0  0  0  0
 42 41  1  1  0  0  0
 44 42  1  0  0  0  0
 44 43  1  1  0  0  0
 46 45  1  0  0  0  0
 47 50  2  0  0  0  0
 47 48  1  0  0  0  0
 48 46  2  0  0  0  0
 49 44  1  0  0  0  0
 49 45  2  0  0  0  0
 50 49  1  0  0  0  0
M  END
>  <MODEL>
4

>  <REMARK>
 VINA RESULT:     -10.0      3.240     10.154
  Name = 
  10 active torsions:
  status: ('A' for Active; 'I' for Inactive)
    1  A    between atoms: C_1  and  C_12
    2  A    between atoms: C_6  and  C_35
    3  A    between atoms: C_12  and  C_24
    4  A    between atoms: C_16  and  C_28
    5  A    between atoms: C_16  and  C_32
    6  A    between atoms: C_17  and  C_28
    7  A    between atoms: C_18  and  C_27
    8  A    between atoms: C_18  and  C_50
    9  A    between atoms: C_24  and  C_50
   10  A    between atoms: C_25  and  C_42
                            x       y       z     vdW  Elec       q    Type
                         _______ _______ _______ _____ _____    ______ ____

>  <TORSDO>
F 10

$$$$
=
 OpenBabel11062412543D

 50 56  0  0  1  0  0  0  0  0999 V2000
  191.2080  177.2090  141.3430 C   0  0  0  0  0  0  0  0  0  0  0  0
  189.0390  177.4380  140.3010 C   0  0  0  0  0  3  0  0  0  0  0  0
  190.9460  176.7550  138.9610 C   0  0  0  0  0  0  0  0  0  0  0  0
  192.0690  177.2810  142.4270 O   0  0  0  0  0  1  0  0  0  0  0  0
  191.7270  176.8100  140.1180 C   0  0  0  0  0  3  0  0  0  0  0  0
  189.5640  177.0900  139.0480 C   0  0  0  0  0  0  0  0  0  0  0  0
  189.8340  177.5170  141.4510 C   0  0  0  0  0  0  0  0  0  0  0  0
  196.9180  174.2840  135.5330 O   0  0  0  0  0  0  0  0  0  0  0  0
  193.1190  176.4680  137.5760 C   0  0  1  0  0  3  0  0  0  0  0  0
  191.9190  176.1570  135.6290 O   0  0  0  0  0  0  0  0  0  0  0  0
  190.9630  176.3230  136.5620 O   0  0  0  0  0  0  0  0  0  0  0  0
  194.6170  174.8840  137.1970 C   0  0  0  0  0  0  0  0  0  0  0  0
  195.6220  173.8980  137.4290 N   0  0  0  0  0  2  0  0  0  0  0  0
  191.6580  176.1230  137.7940 C   0  0  2  0  0  3  0  0  0  0  0  0
  194.0200  175.1160  135.9280 N   0  0  0  0  0  0  0  0  0  0  0  0
  196.5980  173.5070  136.4620 C   0  0  0  0  0  0  0  0  0  0  0  0
  197.2190  172.1560  136.5240 C   0  0  0  0  0  1  0  0  0  0  0  0
  194.0740  175.5510  138.1770 N   0  0  0  0  0  0  0  0  0  0  0  0
  193.1490  176.0310  136.2070 C   0  0  0  0  0  0  0  0  0  0  0  0
  186.7190  176.1410  136.7590 C   0  0  0  0  0  3  0  0  0  0  0  0
  188.3040  178.3720  137.3140 C   0  0  0  0  0  3  0  0  0  0  0  0
  185.2740  177.5030  135.3970 O   0  0  0  0  0  1  0  0  0  0  0  0
  188.6290  177.1370  137.9030 C   0  0  0  0  0  0  0  0  0  0  0  0
  186.3770  177.3830  136.2330 C   0  0  0  0  0  0  0  0  0  0  0  0
  187.2030  178.4870  136.4580 C   0  0  0  0  0  3  0  0  0  0  0  0
  187.8200  176.0260  137.6100 C   0  0  0  0  0  3  0  0  0  0  0  0
  189.1350  177.7280  142.7760 C   0  0  1  0  0  3  0  0  0  0  0  0
  188.7960  179.0630  143.0190 O   0  0  0  0  0  1  0  0  0  0  0  0
  187.9160  176.8410  143.0020 C   0  0  0  0  0  2  0  0  0  0  0  0
  187.3250  177.2430  144.3400 C   0  0  0  0  0  2  0  0  0  0  0  0
  186.0450  178.0540  144.2050 C   0  0  0  0  0  2  0  0  0  0  0  0
  185.4290  177.9510  142.8060 C   0  0  2  0  0  3  0  0  0  0  0  0
  183.3530  179.2030  143.9010 C   0  0  0  0  0  2  0  0  0  0  0  0
  185.5220  179.2570  140.8500 F   0  0  0  0  0  0  0  0  0  0  0  0
  181.9320  178.6420  143.9360 C   0  0  0  0  0  2  0  0  0  0  0  0
  185.3250  179.3560  142.2180 C   0  0  1  0  0  3  0  0  0  0  0  0
  182.1970  179.0640  141.4280 C   0  0  2  0  0  3  0  0  0  0  0  0
  184.0690  178.6330  142.6550 C   0  0  1  0  0  0  0  0  0  0  0  0
  183.2840  178.1650  141.5750 O   0  0  0  0  0  0  0  0  0  0  0  0
  181.2110  178.8760  142.5950 C   0  0  0  0  0  2  0  0  0  0  0  0
  181.1860  177.5420  139.8670 O   0  0  0  0  0  1  0  0  0  0  0  0
  181.4880  178.8930  140.0850 C   0  0  2  0  0  3  0  0  0  0  0  0
  182.9190  178.2510  138.1080 C   0  0  0  0  0  1  0  0  0  0  0  0
  182.3730  179.4120  138.9360 C   0  0  1  0  0  3  0  0  0  0  0  0
  181.5310  181.7270  138.4400 C   0  0  0  0  0  3  0  0  0  0  0  0
  180.8310  182.5970  137.6010 C   0  0  0  0  0  3  0  0  0  0  0  0
  180.4200  180.8350  136.0810 C   0  0  0  0  0  3  0  0  0  0  0  0
  180.3020  182.1370  136.4320 N   0  0  0  0  0  0  0  0  0  0  0  0
  181.6580  180.3810  138.0530 C   0  0  0  0  0  0  0  0  0  0  0  0
  181.0830  179.9630  136.8890 N   0  0  0  0  0  0  0  0  0  0  0  0
  1  7  1  0  0  0  0
  1  4  1  0  0  0  0
  2  7  2  0  0  0  0
  3  6  2  0  0  0  0
  3  5  1  0  0  0  0
  5  1  2  0  0  0  0
  6  2  1  0  0  0  0
  7 27  1  0  0  0  0
  8 16  2  0  0  0  0
  9 19  1  6  0  0  0
  9 14  1  0  0  0  0
  9 18  1  0  0  0  0
 10 19  1  0  0  0  0
 10 11  1  0  0  0  0
 11 14  1  0  0  0  0
 12 13  1  0  0  0  0
 12 18  2  0  0  0  0
 14  3  1  1  0  0  0
 15 19  2  0  0  0  0
 15 12  1  0  0  0  0
 16 17  1  0  0  0  0
 16 13  1  0  0  0  0
 20 26  1  0  0  0  0
 21 23  1  0  0  0  0
 22 24  1  0  0  0  0
 23  6  1  0  0  0  0
 24 25  1  0  0  0  0
 24 20  2  0  0  0  0
 25 21  2  0  0  0  0
 26 23  2  0  0  0  0
 27 29  1  0  0  0  0
 27 28  1  6  0  0  0
 29 30  1  0  0  0  0
 31 30  1  0  0  0  0
 32 31  1  1  0  0  0
 33 35  1  0  0  0  0
 36 34  1  6  0  0  0
 36 38  1  0  0  0  0
 36 32  1  0  0  0  0
 37 42  1  6  0  0  0
 37 39  1  0  0  0  0
 37 40  1  0  0  0  0
 38 32  1  0  0  0  0
 38 33  1  1  0  0  0
 39 38  1  0  0  0  0
 40 35  1  0  0  0  0
 42 41  1  6  0  0  0
 44 43  1  6  0  0  0
 44 42  1  0  0  0  0
 46 45  2  0  0  0  0
 47 48  2  0  0  0  0
 47 50  1  0  0  0  0
 48 46  1  0  0  0  0
 49 45  1  0  0  0  0
 49 44  1  0  0  0  0
 50 49  2  0  0  0  0
M  END
>  <MODEL>
5

>  <REMARK>
 VINA RESULT:      -9.8      2.881      6.539
  Name = 
  10 active torsions:
  status: ('A' for Active; 'I' for Inactive)
    1  A    between atoms: C_1  and  C_12
    2  A    between atoms: C_6  and  C_35
    3  A    between atoms: C_12  and  C_24
    4  A    between atoms: C_16  and  C_28
    5  A    between atoms: C_16  and  C_32
    6  A    between atoms: C_17  and  C_28
    7  A    between atoms: C_18  and  C_27
    8  A    between atoms: C_18  and  C_50
    9  A    between atoms: C_24  and  C_50
   10  A    between atoms: C_25  and  C_42
                            x       y       z     vdW  Elec       q    Type
                         _______ _______ _______ _____ _____    ______ ____

>  <TORSDO>
F 10

$$$$
=
 OpenBabel11062412543D

 50 56  0  0  1  0  0  0  0  0999 V2000
  181.8410  178.7440  143.1460 C   0  0  0  0  0  0  0  0  0  0  0  0
  183.3370  178.4710  141.2670 C   0  0  0  0  0  3  0  0  0  0  0  0
  184.2440  179.0260  143.4510 C   0  0  0  0  0  0  0  0  0  0  0  0
  180.5810  178.7770  143.7250 O   0  0  0  0  0  1  0  0  0  0  0  0
  182.9420  178.9900  143.9560 C   0  0  0  0  0  3  0  0  0  0  0  0
  184.4510  178.7720  142.0650 C   0  0  0  0  0  0  0  0  0  0  0  0
  182.0330  178.4640  141.7760 C   0  0  0  0  0  0  0  0  0  0  0  0
  189.8460  176.3800  147.3440 O   0  0  0  0  0  0  0  0  0  0  0  0
  185.7810  177.8360  145.1680 C   0  0  1  0  0  3  0  0  0  0  0  0
  185.6760  179.6350  146.6110 O   0  0  0  0  0  0  0  0  0  0  0  0
  184.9260  180.0290  145.5660 O   0  0  0  0  0  0  0  0  0  0  0  0
  187.9420  177.4390  145.4260 C   0  0  0  0  0  0  0  0  0  0  0  0
  189.2660  176.9720  145.1680 N   0  0  0  0  0  2  0  0  0  0  0  0
  185.2950  179.1220  144.5260 C   0  0  2  0  0  3  0  0  0  0  0  0
  187.6010  178.2640  146.5320 N   0  0  0  0  0  0  0  0  0  0  0  0
  190.2210  176.6730  146.1870 C   0  0  0  0  0  0  0  0  0  0  0  0
  191.6790  176.7450  145.8940 C   0  0  0  0  0  1  0  0  0  0  0  0
  186.9720  177.2520  144.5740 N   0  0  0  0  0  0  0  0  0  0  0  0
  186.3410  178.4770  146.3260 C   0  0  0  0  0  0  0  0  0  0  0  0
  188.1820  178.6060  141.5280 C   0  0  0  0  0  3  0  0  0  0  0  0
  185.8430  178.5380  140.0050 C   0  0  0  0  0  3  0  0  0  0  0  0
  189.4660  177.9810  139.5900 O   0  0  0  0  0  1  0  0  0  0  0  0
  185.7590  178.8350  141.3770 C   0  0  0  0  0  0  0  0  0  0  0  0
  188.2400  178.2540  140.1830 C   0  0  0  0  0  0  0  0  0  0  0  0
  187.0810  178.2810  139.4050 C   0  0  0  0  0  3  0  0  0  0  0  0
  186.9470  178.8650  142.1260 C   0  0  0  0  0  3  0  0  0  0  0  0
  180.9290  177.9550  140.8730 C   0  0  1  0  0  3  0  0  0  0  0  0
  180.0480  178.9580  140.4540 O   0  0  0  0  0  1  0  0  0  0  0  0
  181.4100  177.1600  139.6650 C   0  0  0  0  0  2  0  0  0  0  0  0
  180.6090  175.8710  139.6440 C   0  0  0  0  0  2  0  0  0  0  0  0
  181.1290  174.8660  138.6280 C   0  0  0  0  0  2  0  0  0  0  0  0
  182.5250  175.2210  138.1090 C   0  0  2  0  0  3  0  0  0  0  0  0
  182.3710  172.8930  136.8310 C   0  0  0  0  0  2  0  0  0  0  0  0
  183.3550  176.4650  136.2910 F   0  0  0  0  0  0  0  0  0  0  0  0
  183.3630  171.7460  137.0130 C   0  0  0  0  0  2  0  0  0  0  0  0
  182.4320  175.4800  136.6080 C   0  0  1  0  0  3  0  0  0  0  0  0
  184.8600  173.4690  135.8590 C   0  0  2  0  0  3  0  0  0  0  0  0
  183.1100  174.2230  137.1090 C   0  0  1  0  0  0  0  0  0  0  0  0
  184.5190  174.2550  136.9900 O   0  0  0  0  0  0  0  0  0  0  0  0
  184.6390  171.9800  136.1810 C   0  0  0  0  0  2  0  0  0  0  0  0
  186.8120  172.5680  134.7860 O   0  0  0  0  0  1  0  0  0  0  0  0
  186.2960  173.7170  135.3990 C   0  0  2  0  0  3  0  0  0  0  0  0
  188.2470  173.0350  136.8470 C   0  0  0  0  0  1  0  0  0  0  0  0
  187.1870  174.1050  136.5940 C   0  0  1  0  0  3  0  0  0  0  0  0
  187.0780  176.5390  135.9810 C   0  0  0  0  0  3  0  0  0  0  0  0
  187.7250  177.7640  135.8020 C   0  0  0  0  0  3  0  0  0  0  0  0
  189.7770  176.8000  136.4690 C   0  0  0  0  0  3  0  0  0  0  0  0
  189.0580  177.8730  136.0640 N   0  0  0  0  0  0  0  0  0  0  0  0
  187.8350  175.4390  136.4190 C   0  0  0  0  0  0  0  0  0  0  0  0
  189.1730  175.5920  136.6360 N   0  0  0  0  0  0  0  0  0  0  0  0
  1  4  1  0  0  0  0
  1  5  1  0  0  0  0
  2  7  1  0  0  0  0
  2  6  2  0  0  0  0
  3  5  2  0  0  0  0
  6  3  1  0  0  0  0
  7  1  2  0  0  0  0
  9 18  1  6  0  0  0
  9 19  1  0  0  0  0
 11 10  1  0  0  0  0
 12 15  1  0  0  0  0
 13 12  1  0  0  0  0
 13 16  1  0  0  0  0
 14  3  1  6  0  0  0
 14  9  1  0  0  0  0
 14 11  1  0  0  0  0
 16  8  2  0  0  0  0
 17 16  1  0  0  0  0
 18 12  2  0  0  0  0
 19 15  2  0  0  0  0
 19 10  1  0  0  0  0
 20 26  1  0  0  0  0
 21 23  1  0  0  0  0
 22 24  1  0  0  0  0
 23  6  1  0  0  0  0
 23 26  2  0  0  0  0
 24 20  2  0  0  0  0
 25 21  2  0  0  0  0
 25 24  1  0  0  0  0
 27 28  1  6  0  0  0
 27  7  1  0  0  0  0
 29 27  1  0  0  0  0
 30 29  1  0  0  0  0
 31 30  1  0  0  0  0
 32 31  1  6  0  0  0
 33 35  1  0  0  0  0
 36 34  1  1  0  0  0
 36 38  1  0  0  0  0
 36 32  1  0  0  0  0
 37 42  1  1  0  0  0
 37 40  1  0  0  0  0
 37 39  1  0  0  0  0
 38 33  1  6  0  0  0
 38 32  1  0  0  0  0
 39 38  1  0  0  0  0
 40 35  1  0  0  0  0
 42 41  1  1  0  0  0
 42 44  1  0  0  0  0
 44 43  1  6  0  0  0
 45 49  1  0  0  0  0
 46 45  2  0  0  0  0
 46 48  1  0  0  0  0
 47 50  1  0  0  0  0
 48 47  2  0  0  0  0
 49 44  1  0  0  0  0
 49 50  2  0  0  0  0
M  END
>  <MODEL>
6

>  <REMARK>
 VINA RESULT:      -9.7      2.796      5.767
  Name = 
  10 active torsions:
  status: ('A' for Active; 'I' for Inactive)
    1  A    between atoms: C_1  and  C_12
    2  A    between atoms: C_6  and  C_35
    3  A    between atoms: C_12  and  C_24
    4  A    between atoms: C_16  and  C_28
    5  A    between atoms: C_16  and  C_32
    6  A    between atoms: C_17  and  C_28
    7  A    between atoms: C_18  and  C_27
    8  A    between atoms: C_18  and  C_50
    9  A    between atoms: C_24  and  C_50
   10  A    between atoms: C_25  and  C_42
                            x       y       z     vdW  Elec       q    Type
                         _______ _______ _______ _____ _____    ______ ____

>  <TORSDO>
F 10

$$$$
=
 OpenBabel11062412543D

 50 56  0  0  1  0  0  0  0  0999 V2000
  190.5860  176.9360  139.3440 C   0  0  0  0  0  0  0  0  0  0  0  0
  188.5290  178.1120  139.8180 C   0  0  0  0  0  3  0  0  0  0  0  0
  189.6770  176.9370  141.6070 C   0  0  0  0  0  0  0  0  0  0  0  0
  191.5880  176.4970  138.4910 O   0  0  0  0  0  1  0  0  0  0  0  0
  190.6650  176.5820  140.6840 C   0  0  0  0  0  3  0  0  0  0  0  0
  188.5690  177.7140  141.1630 C   0  0  0  0  0  0  0  0  0  0  0  0
  189.5080  177.7290  138.8940 C   0  0  0  0  0  0  0  0  0  0  0  0
  190.0680  178.4690  148.7510 O   0  0  0  0  0  0  0  0  0  0  0  0
  190.3340  177.7670  143.9740 C   0  0  1  0  0  3  0  0  0  0  0  0
  191.6390  175.8980  144.3420 O   0  0  0  0  0  0  0  0  0  0  0  0
  191.1400  175.6930  143.1090 O   0  0  0  0  0  0  0  0  0  0  0  0
  189.4280  177.8350  145.9910 C   0  0  0  0  0  0  0  0  0  0  0  0
  188.5150  178.1290  147.0480 N   0  0  0  0  0  2  0  0  0  0  0  0
  190.0510  176.6140  143.0300 C   0  0  2  0  0  3  0  0  0  0  0  0
  190.5590  176.9860  146.1410 N   0  0  0  0  0  0  0  0  0  0  0  0
  188.8870  178.2130  148.4250 C   0  0  0  0  0  0  0  0  0  0  0  0
  187.8800  177.9590  149.4920 C   0  0  0  0  0  1  0  0  0  0  0  0
  189.2020  178.2200  144.7660 N   0  0  0  0  0  0  0  0  0  0  0  0
  191.0390  176.9690  144.9400 C   0  0  0  0  0  0  0  0  0  0  0  0
  185.2780  179.2690  142.1570 C   0  0  0  0  0  3  0  0  0  0  0  0
  187.0300  177.3040  143.0870 C   0  0  0  0  0  3  0  0  0  0  0  0
  183.6390  178.5800  143.7800 O   0  0  0  0  0  1  0  0  0  0  0  0
  187.4200  178.1130  142.0050 C   0  0  0  0  0  0  0  0  0  0  0  0
  184.8850  178.4200  143.1870 C   0  0  0  0  0  0  0  0  0  0  0  0
  185.7820  177.4780  143.6950 C   0  0  0  0  0  3  0  0  0  0  0  0
  186.5250  179.0970  141.5530 C   0  0  0  0  0  3  0  0  0  0  0  0
  189.4610  178.3580  137.5180 C   0  0  1  0  0  3  0  0  0  0  0  0
  189.8200  177.4770  136.4930 O   0  0  0  0  0  1  0  0  0  0  0  0
  188.1410  179.0360  137.1720 C   0  0  0  0  0  2  0  0  0  0  0  0
  187.4830  178.1890  136.0990 C   0  0  0  0  0  2  0  0  0  0  0  0
  186.3960  177.2760  136.6470 C   0  0  0  0  0  2  0  0  0  0  0  0
  185.1280  178.0410  137.0400 C   0  0  2  0  0  3  0  0  0  0  0  0
  184.1290  175.6270  137.5440 C   0  0  0  0  0  2  0  0  0  0  0  0
  184.3500  179.0640  139.0120 F   0  0  0  0  0  0  0  0  0  0  0  0
  182.8810  175.0570  136.8730 C   0  0  0  0  0  2  0  0  0  0  0  0
  184.9190  177.8900  138.5450 C   0  0  1  0  0  3  0  0  0  0  0  0
  181.8380  176.9270  138.2710 C   0  0  2  0  0  3  0  0  0  0  0  0
  183.9980  177.1670  137.5850 C   0  0  1  0  0  0  0  0  0  0  0  0
  182.7070  177.7420  137.5010 O   0  0  0  0  0  0  0  0  0  0  0  0
  181.5990  175.5940  137.5410 C   0  0  0  0  0  2  0  0  0  0  0  0
  179.5690  177.3160  137.5810 O   0  0  0  0  0  1  0  0  0  0  0  0
  180.5120  177.6260  138.5700 C   0  0  2  0  0  3  0  0  0  0  0  0
  179.8950  179.8450  137.5370 C   0  0  0  0  0  1  0  0  0  0  0  0
  180.7070  179.1530  138.6300 C   0  0  1  0  0  3  0  0  0  0  0  0
  180.9320  179.1850  141.1330 C   0  0  0  0  0  3  0  0  0  0  0  0
  180.5630  179.7270  142.3660 C   0  0  0  0  0  3  0  0  0  0  0  0
  179.1280  181.2620  141.2850 C   0  0  0  0  0  3  0  0  0  0  0  0
  179.6800  180.7640  142.4160 N   0  0  0  0  0  0  0  0  0  0  0  0
  180.3620  179.7240  139.9660 C   0  0  0  0  0  0  0  0  0  0  0  0
  179.4580  180.7400  140.0720 N   0  0  0  0  0  0  0  0  0  0  0  0
  1  5  1  0  0  0  0
  2  6  2  0  0  0  0
  4  1  1  0  0  0  0
  5  3  2  0  0  0  0
  6  3  1  0  0  0  0
  6 23  1  0  0  0  0
  7  1  2  0  0  0  0
  7  2  1  0  0  0  0
  9 18  1  1  0  0  0
  9 19  1  0  0  0  0
 10 19  1  0  0  0  0
 11 10  1  0  0  0  0
 12 15  1  0  0  0  0
 12 13  1  0  0  0  0
 13 16  1  0  0  0  0
 14  3  1  6  0  0  0
 14 11  1  0  0  0  0
 14  9  1  0  0  0  0
 16  8  2  0  0  0  0
 16 17  1  0  0  0  0
 18 12  2  0  0  0  0
 19 15  2  0  0  0  0
 20 24  1  0  0  0  0
 21 25  1  0  0  0  0
 23 21  2  0  0  0  0
 24 25  2  0  0  0  0
 24 22  1  0  0  0  0
 26 23  1  0  0  0  0
 26 20  2  0  0  0  0
 27 28  1  6  0  0  0
 27  7  1  0  0  0  0
 29 27  1  0  0  0  0
 30 31  1  0  0  0  0
 30 29  1  0  0  0  0
 32 31  1  1  0  0  0
 32 38  1  0  0  0  0
 32 36  1  0  0  0  0
 35 40  1  0  0  0  0
 35 33  1  0  0  0  0
 36 34  1  6  0  0  0
 37 42  1  6  0  0  0
 38 33  1  6  0  0  0
 38 36  1  0  0  0  0
 39 38  1  0  0  0  0
 39 37  1  0  0  0  0
 40 37  1  0  0  0  0
 42 41  1  6  0  0  0
 42 44  1  0  0  0  0
 44 43  1  6  0  0  0
 44 49  1  0  0  0  0
 45 46  1  0  0  0  0
 46 48  2  0  0  0  0
 47 48  1  0  0  0  0
 49 50  1  0  0  0  0
 49 45  2  0  0  0  0
 50 47  2  0  0  0  0
M  END
>  <MODEL>
7

>  <REMARK>
 VINA RESULT:      -9.6      2.992      6.640
  Name = 
  10 active torsions:
  status: ('A' for Active; 'I' for Inactive)
    1  A    between atoms: C_1  and  C_12
    2  A    between atoms: C_6  and  C_35
    3  A    between atoms: C_12  and  C_24
    4  A    between atoms: C_16  and  C_28
    5  A    between atoms: C_16  and  C_32
    6  A    between atoms: C_17  and  C_28
    7  A    between atoms: C_18  and  C_27
    8  A    between atoms: C_18  and  C_50
    9  A    between atoms: C_24  and  C_50
   10  A    between atoms: C_25  and  C_42
                            x       y       z     vdW  Elec       q    Type
                         _______ _______ _______ _____ _____    ______ ____

>  <TORSDO>
F 10

$$$$
=
 OpenBabel11062412543D

 50 56  0  0  1  0  0  0  0  0999 V2000
  191.3780  177.0980  140.7790 C   0  0  0  0  0  0  0  0  0  0  0  0
  189.0650  177.3000  140.1060 C   0  0  0  0  0  3  0  0  0  0  0  0
  190.7340  176.6290  138.4730 C   0  0  0  0  0  0  0  0  0  0  0  0
  192.4050  177.1850  141.7070 O   0  0  0  0  0  1  0  0  0  0  0  0
  191.6940  176.6990  139.4870 C   0  0  0  0  0  3  0  0  0  0  0  0
  189.3820  176.9510  138.7840 C   0  0  0  0  0  0  0  0  0  0  0  0
  190.0370  177.3930  141.1090 C   0  0  0  0  0  0  0  0  0  0  0  0
  195.4200  172.4470  134.7210 O   0  0  0  0  0  0  0  0  0  0  0  0
  192.7300  175.6630  137.1290 C   0  0  1  0  0  3  0  0  0  0  0  0
  191.8080  176.3580  135.1300 O   0  0  0  0  0  0  0  0  0  0  0  0
  190.9020  176.7500  136.0440 O   0  0  0  0  0  0  0  0  0  0  0  0
  193.4100  173.6840  136.4110 C   0  0  0  0  0  0  0  0  0  0  0  0
  193.8310  172.3200  136.4190 N   0  0  0  0  0  2  0  0  0  0  0  0
  191.2520  175.9980  137.2070 C   0  0  2  0  0  3  0  0  0  0  0  0
  193.1650  174.4250  135.2220 N   0  0  0  0  0  0  0  0  0  0  0  0
  194.6610  171.7330  135.4150 C   0  0  0  0  0  0  0  0  0  0  0  0
  194.6040  170.2690  135.1550 C   0  0  0  0  0  1  0  0  0  0  0  0
  193.0840  174.3060  137.5100 N   0  0  0  0  0  0  0  0  0  0  0  0
  192.7590  175.5590  135.6950 C   0  0  0  0  0  0  0  0  0  0  0  0
  186.3460  175.8420  136.8380 C   0  0  0  0  0  3  0  0  0  0  0  0
  187.6930  178.2110  137.4450 C   0  0  0  0  0  3  0  0  0  0  0  0
  184.5280  177.1110  135.9010 O   0  0  0  0  0  1  0  0  0  0  0  0
  188.2710  176.9820  137.8090 C   0  0  0  0  0  0  0  0  0  0  0  0
  185.7610  177.0680  136.5400 C   0  0  0  0  0  0  0  0  0  0  0  0
  186.4600  178.2520  136.7850 C   0  0  0  0  0  3  0  0  0  0  0  0
  187.5780  175.8010  137.4930 C   0  0  0  0  0  3  0  0  0  0  0  0
  189.5620  177.6040  142.5310 C   0  0  1  0  0  3  0  0  0  0  0  0
  189.4260  178.9530  142.8760 O   0  0  0  0  0  1  0  0  0  0  0  0
  188.2890  176.8510  142.8960 C   0  0  0  0  0  2  0  0  0  0  0  0
  187.8530  177.3630  144.2550 C   0  0  0  0  0  2  0  0  0  0  0  0
  186.5190  178.0930  144.2140 C   0  0  0  0  0  2  0  0  0  0  0  0
  185.7750  177.8870  142.8910 C   0  0  2  0  0  3  0  0  0  0  0  0
  183.8590  179.3410  144.0290 C   0  0  0  0  0  2  0  0  0  0  0  0
  185.7440  178.9920  140.8130 F   0  0  0  0  0  0  0  0  0  0  0  0
  182.4260  178.8570  144.2430 C   0  0  0  0  0  2  0  0  0  0  0  0
  185.6760  179.2320  142.1760 C   0  0  1  0  0  3  0  0  0  0  0  0
  182.4800  179.0210  141.6910 C   0  0  2  0  0  3  0  0  0  0  0  0
  184.4360  178.6180  142.7900 C   0  0  1  0  0  0  0  0  0  0  0  0
  183.5380  178.0870  141.8340 O   0  0  0  0  0  0  0  0  0  0  0  0
  181.5960  178.9950  142.9510 C   0  0  0  0  0  2  0  0  0  0  0  0
  180.7190  179.7910  140.2470 O   0  0  0  0  0  1  0  0  0  0  0  0
  181.6450  178.7560  140.4380 C   0  0  2  0  0  3  0  0  0  0  0  0
  179.3860  177.6350  140.5280 C   0  0  0  0  0  1  0  0  0  0  0  0
  180.8970  177.4160  140.5610 C   0  0  1  0  0  3  0  0  0  0  0  0
  182.6440  176.0610  139.3670 C   0  0  0  0  0  3  0  0  0  0  0  0
  182.9840  175.1640  138.3520 C   0  0  0  0  0  3  0  0  0  0  0  0
  180.7230  175.0470  137.6710 C   0  0  0  0  0  3  0  0  0  0  0  0
  182.0140  174.6640  137.5340 N   0  0  0  0  0  0  0  0  0  0  0  0
  181.2970  176.4360  139.5070 C   0  0  0  0  0  0  0  0  0  0  0  0
  180.3690  175.9330  138.6420 N   0  0  0  0  0  0  0  0  0  0  0  0
  1  7  1  0  0  0  0
  1  4  1  0  0  0  0
  2  7  2  0  0  0  0
  3  6  2  0  0  0  0
  3  5  1  0  0  0  0
  5  1  2  0  0  0  0
  6  2  1  0  0  0  0
  7 27  1  0  0  0  0
  8 16  2  0  0  0  0
  9 19  1  6  0  0  0
  9 14  1  0  0  0  0
  9 18  1  0  0  0  0
 10 19  1  0  0  0  0
 10 11  1  0  0  0  0
 11 14  1  0  0  0  0
 12 13  1  0  0  0  0
 12 18  2  0  0  0  0
 14  3  1  1  0  0  0
 15 19  2  0  0  0  0
 15 12  1  0  0  0  0
 16 13  1  0  0  0  0
 17 16  1  0  0  0  0
 20 26  1  0  0  0  0
 21 23  1  0  0  0  0
 22 24  1  0  0  0  0
 23  6  1  0  0  0  0
 24 25  1  0  0  0  0
 24 20  2  0  0  0  0
 25 21  2  0  0  0  0
 26 23  2  0  0  0  0
 27 28  1  6  0  0  0
 27 29  1  0  0  0  0
 29 30  1  0  0  0  0
 31 30  1  0  0  0  0
 32 31  1  1  0  0  0
 33 35  1  0  0  0  0
 36 34  1  6  0  0  0
 36 38  1  0  0  0  0
 36 32  1  0  0  0  0
 37 42  1  6  0  0  0
 37 39  1  0  0  0  0
 37 40  1  0  0  0  0
 38 32  1  0  0  0  0
 38 33  1  1  0  0  0
 39 38  1  0  0  0  0
 40 35  1  0  0  0  0
 42 41  1  1  0  0  0
 42 44  1  0  0  0  0
 44 43  1  6  0  0  0
 45 49  1  0  0  0  0
 46 45  2  0  0  0  0
 47 50  1  0  0  0  0
 48 47  2  0  0  0  0
 48 46  1  0  0  0  0
 49 44  1  0  0  0  0
 50 49  2  0  0  0  0
M  END
>  <MODEL>
8

>  <REMARK>
 VINA RESULT:      -9.6      2.643      6.621
  Name = 
  10 active torsions:
  status: ('A' for Active; 'I' for Inactive)
    1  A    between atoms: C_1  and  C_12
    2  A    between atoms: C_6  and  C_35
    3  A    between atoms: C_12  and  C_24
    4  A    between atoms: C_16  and  C_28
    5  A    between atoms: C_16  and  C_32
    6  A    between atoms: C_17  and  C_28
    7  A    between atoms: C_18  and  C_27
    8  A    between atoms: C_18  and  C_50
    9  A    between atoms: C_24  and  C_50
   10  A    between atoms: C_25  and  C_42
                            x       y       z     vdW  Elec       q    Type
                         _______ _______ _______ _____ _____    ______ ____

>  <TORSDO>
F 10

$$$$
=
 OpenBabel11062412543D

 50 56  0  0  1  0  0  0  0  0999 V2000
  190.4180  177.0880  139.0420 C   0  0  0  0  0  0  0  0  0  0  0  0
  188.3700  178.2500  139.5880 C   0  0  0  0  0  3  0  0  0  0  0  0
  189.5620  177.0430  141.3260 C   0  0  0  0  0  0  0  0  0  0  0  0
  191.4000  176.6680  138.1580 O   0  0  0  0  0  1  0  0  0  0  0  0
  190.5290  176.7080  140.3730 C   0  0  0  0  0  3  0  0  0  0  0  0
  188.4430  177.8250  140.9230 C   0  0  0  0  0  0  0  0  0  0  0  0
  189.3290  177.8870  138.6340 C   0  0  0  0  0  0  0  0  0  0  0  0
  190.0970  178.4250  148.4910 O   0  0  0  0  0  0  0  0  0  0  0  0
  190.2640  177.8280  143.6960 C   0  0  1  0  0  3  0  0  0  0  0  0
  191.5930  175.9640  143.9940 O   0  0  0  0  0  0  0  0  0  0  0  0
  191.0690  175.7800  142.7690 O   0  0  0  0  0  0  0  0  0  0  0  0
  189.4020  177.8440  145.7330 C   0  0  0  0  0  0  0  0  0  0  0  0
  188.5100  178.1070  146.8160 N   0  0  0  0  0  2  0  0  0  0  0  0
  189.9700  176.6930  142.7340 C   0  0  2  0  0  3  0  0  0  0  0  0
  190.5430  177.0030  145.8400 N   0  0  0  0  0  0  0  0  0  0  0  0
  188.9110  178.1650  148.1860 C   0  0  0  0  0  0  0  0  0  0  0  0
  187.9300  177.8780  149.2680 C   0  0  0  0  0  1  0  0  0  0  0  0
  189.1460  178.2530  144.5210 N   0  0  0  0  0  0  0  0  0  0  0  0
  190.9970  177.0160  144.6290 C   0  0  0  0  0  0  0  0  0  0  0  0
  185.1750  179.3550  142.0260 C   0  0  0  0  0  3  0  0  0  0  0  0
  186.9500  177.3740  142.8740 C   0  0  0  0  0  3  0  0  0  0  0  0
  183.5750  178.6310  143.6720 O   0  0  0  0  0  1  0  0  0  0  0  0
  187.3140  178.2060  141.8000 C   0  0  0  0  0  0  0  0  0  0  0  0
  184.8070  178.4850  143.0470 C   0  0  0  0  0  0  0  0  0  0  0  0
  185.7170  177.5340  143.5140 C   0  0  0  0  0  3  0  0  0  0  0  0
  186.4070  179.1970  141.3890 C   0  0  0  0  0  3  0  0  0  0  0  0
  189.2480  178.5430  137.2720 C   0  0  1  0  0  3  0  0  0  0  0  0
  189.8050  177.7680  136.2490 O   0  0  0  0  0  1  0  0  0  0  0  0
  187.8520  179.0000  136.8660 C   0  0  0  0  0  2  0  0  0  0  0  0
  187.2620  177.8940  136.0120 C   0  0  0  0  0  2  0  0  0  0  0  0
  186.2050  177.0790  136.7420 C   0  0  0  0  0  2  0  0  0  0  0  0
  184.9220  177.8760  137.0000 C   0  0  2  0  0  3  0  0  0  0  0  0
  183.9890  175.5800  137.9700 C   0  0  0  0  0  2  0  0  0  0  0  0
  184.1380  179.2390  138.7510 F   0  0  0  0  0  0  0  0  0  0  0  0
  182.7490  174.8640  137.4380 C   0  0  0  0  0  2  0  0  0  0  0  0
  184.7320  178.0110  138.5090 C   0  0  1  0  0  3  0  0  0  0  0  0
  181.6730  176.9430  138.4690 C   0  0  2  0  0  3  0  0  0  0  0  0
  183.8190  177.0970  137.7180 C   0  0  1  0  0  0  0  0  0  0  0  0
  182.5140  177.6150  137.5450 O   0  0  0  0  0  0  0  0  0  0  0  0
  181.4610  175.4900  138.0100 C   0  0  0  0  0  2  0  0  0  0  0  0
  179.9690  178.3070  137.4620 O   0  0  0  0  0  1  0  0  0  0  0  0
  180.3330  177.6560  138.6480 C   0  0  2  0  0  3  0  0  0  0  0  0
  181.6500  178.4350  140.6560 C   0  0  0  0  0  1  0  0  0  0  0  0
  180.4170  178.6850  139.7910 C   0  0  1  0  0  3  0  0  0  0  0  0
  179.2240  180.8440  139.3100 C   0  0  0  0  0  3  0  0  0  0  0  0
  179.2540  182.1490  138.8140 C   0  0  0  0  0  3  0  0  0  0  0  0
  181.5550  181.9310  138.3230 C   0  0  0  0  0  3  0  0  0  0  0  0
  180.4220  182.6710  138.3440 N   0  0  0  0  0  0  0  0  0  0  0  0
  180.4130  180.0950  139.2970 C   0  0  0  0  0  0  0  0  0  0  0  0
  181.5490  180.6510  138.7860 N   0  0  0  0  0  0  0  0  0  0  0  0
  1  5  1  0  0  0  0
  2  6  2  0  0  0  0
  4  1  1  0  0  0  0
  5  3  2  0  0  0  0
  6  3  1  0  0  0  0
  6 23  1  0  0  0  0
  7  1  2  0  0  0  0
  7  2  1  0  0  0  0
  9 18  1  1  0  0  0
  9 19  1  0  0  0  0
 10 19  1  0  0  0  0
 11 10  1  0  0  0  0
 12 15  1  0  0  0  0
 12 13  1  0  0  0  0
 13 16  1  0  0  0  0
 14  3  1  6  0  0  0
 14 11  1  0  0  0  0
 14  9  1  0  0  0  0
 16  8  2  0  0  0  0
 16 17  1  0  0  0  0
 18 12  2  0  0  0  0
 19 15  2  0  0  0  0
 20 24  1  0  0  0  0
 21 25  1  0  0  0  0
 23 21  2  0  0  0  0
 24 25  2  0  0  0  0
 24 22  1  0  0  0  0
 26 23  1  0  0  0  0
 26 20  2  0  0  0  0
 27 28  1  6  0  0  0
 27  7  1  0  0  0  0
 29 27  1  0  0  0  0
 30 31  1  0  0  0  0
 30 29  1  0  0  0  0
 32 31  1  1  0  0  0
 32 38  1  0  0  0  0
 32 36  1  0  0  0  0
 35 33  1  0  0  0  0
 35 40  1  0  0  0  0
 36 34  1  6  0  0  0
 37 42  1  6  0  0  0
 38 33  1  1  0  0  0
 38 36  1  0  0  0  0
 39 38  1  0  0  0  0
 39 37  1  0  0  0  0
 40 37  1  0  0  0  0
 42 41  1  6  0  0  0
 42 44  1  0  0  0  0
 44 43  1  6  0  0  0
 46 45  2  0  0  0  0
 47 48  2  0  0  0  0
 47 50  1  0  0  0  0
 48 46  1  0  0  0  0
 49 45  1  0  0  0  0
 49 44  1  0  0  0  0
 50 49  2  0  0  0  0
M  END
>  <MODEL>
9

>  <REMARK>
 VINA RESULT:      -9.3      2.832      6.535
  Name = 
  10 active torsions:
  status: ('A' for Active; 'I' for Inactive)
    1  A    between atoms: C_1  and  C_12
    2  A    between atoms: C_6  and  C_35
    3  A    between atoms: C_12  and  C_24
    4  A    between atoms: C_16  and  C_28
    5  A    between atoms: C_16  and  C_32
    6  A    between atoms: C_17  and  C_28
    7  A    between atoms: C_18  and  C_27
    8  A    between atoms: C_18  and  C_50
    9  A    between atoms: C_24  and  C_50
   10  A    between atoms: C_25  and  C_42
                            x       y       z     vdW  Elec       q    Type
                         _______ _______ _______ _____ _____    ______ ____

>  <TORSDO>
F 10

$$$$
