=
 OpenBabel11062412583D

 38 41  0  0  1  0  0  0  0  0999 V2000
  188.7320  176.9230  137.0370 C   0  0  2  0  0  3  0  0  0  0  0  0
  191.5230  176.3890  137.1360 N   0  0  0  0  0  0  0  0  0  0  0  0
  188.9650  176.1760  134.7700 O   0  0  0  0  0  1  0  0  0  0  0  0
  190.8560  175.8670  136.1630 C   0  0  0  0  0  3  0  0  0  0  0  0
  191.6540  176.8980  139.4470 N   0  0  0  0  0  1  0  0  0  0  0  0
  189.3540  175.9040  136.0820 C   0  0  1  0  0  3  0  0  0  0  0  0
  190.9300  177.1590  138.2140 C   0  0  2  0  0  3  0  0  0  0  0  0
  189.4360  176.8700  138.4000 C   0  0  1  0  0  3  0  0  0  0  0  0
  185.4220  175.0900  137.2460 C   0  0  2  0  0  3  0  0  0  0  0  0
  184.5190  176.2220  136.7690 C   0  0  0  0  0  2  0  0  0  0  0  0
  186.3720  177.7270  137.3240 O   0  0  0  0  0  0  0  0  0  0  0  0
  186.8320  175.4360  137.0890 N   0  0  0  0  0  0  0  0  0  0  0  0
  185.1150  173.8220  136.4800 C   0  0  0  0  0  1  0  0  0  0  0  0
  187.2650  176.6570  137.1700 C   0  0  0  0  0  0  0  0  0  0  0  0
  184.9560  177.5490  137.4030 C   0  0  2  0  0  3  0  0  0  0  0  0
  184.4540  177.7820  138.8400 C   0  0  1  0  0  3  0  0  0  0  0  0
  184.8740  178.9550  141.0640 C   0  0  0  0  0  1  0  0  0  0  0  0
  184.5180  180.1750  139.0470 O   0  0  0  0  0  1  0  0  0  0  0  0
  185.0620  178.9960  139.5550 C   0  0  2  0  0  3  0  0  0  0  0  0
  182.9740  177.6340  139.0310 C   0  0  0  0  0  0  0  0  0  0  0  0
  182.1690  178.3760  138.4040 O   0  0  0  0  0  0  0  0  0  0  0  0
  181.5560  175.6680  139.4530 C   0  0  0  0  0  1  0  0  0  0  0  0
  182.5000  176.6360  139.8840 O   0  0  0  0  0  0  0  0  0  0  0  0
  188.8330  177.8480  139.3730 C   0  0  0  0  0  0  0  0  0  0  0  0
  188.8180  179.0360  139.0950 O   0  0  0  0  0  0  0  0  0  0  0  0
  188.2850  177.3820  140.6890 C   0  0  0  0  0  2  0  0  0  0  0  0
  189.0220  178.3220  142.0600 S   0  0  0  0  0  0  0  0  0  0  0  0
  187.1410  177.4650  144.7300 C   0  0  0  0  0  3  0  0  0  0  0  0
  190.8410  175.1900  143.2450 F   0  0  0  0  0  0  0  0  0  0  0  0
  190.5750  176.5080  143.5640 C   0  0  0  0  0  0  0  0  0  0  0  0
  191.5160  177.3270  142.9610 F   0  0  0  0  0  0  0  0  0  0  0  0
  189.0520  177.2410  146.8020 C   0  0  0  0  0  3  0  0  0  0  0  0
  189.1160  176.8560  143.1490 C   0  0  1  0  0  3  0  0  0  0  0  0
  190.6310  176.6760  144.9800 O   0  0  0  0  0  0  0  0  0  0  0  0
  189.3910  177.0280  145.4660 C   0  0  0  0  0  0  0  0  0  0  0  0
  186.7680  177.6850  146.0660 C   0  0  0  0  0  3  0  0  0  0  0  0
  187.7210  177.5760  147.0980 C   0  0  0  0  0  3  0  0  0  0  0  0
  188.4740  177.1450  144.4620 C   0  0  0  0  0  0  0  0  0  0  0  0
  1 14  1  1  0  0  0
  1  8  1  0  0  0  0
  2  7  1  0  0  0  0
  4  2  2  0  0  0  0
  6  3  1  6  0  0  0
  6  4  1  0  0  0  0
  6  1  1  0  0  0  0
  7  8  1  0  0  0  0
  7  5  1  1  0  0  0
  8 24  1  1  0  0  0
  9 13  1  6  0  0  0
 10  9  1  0  0  0  0
 10 15  1  0  0  0  0
 11 15  1  0  0  0  0
 12 14  2  0  0  0  0
 12  9  1  0  0  0  0
 14 11  1  0  0  0  0
 15 16  1  1  0  0  0
 16 20  1  6  0  0  0
 16 19  1  0  0  0  0
 18 19  1  0  0  0  0
 19 17  1  1  0  0  0
 20 23  1  0  0  0  0
 21 20  2  0  0  0  0
 22 23  1  0  0  0  0
 24 26  1  0  0  0  0
 25 24  2  0  0  0  0
 26 27  1  0  0  0  0
 28 36  1  0  0  0  0
 29 30  1  0  0  0  0
 30 34  1  0  0  0  0
 31 30  1  0  0  0  0
 32 37  1  0  0  0  0
 33 27  1  6  0  0  0
 33 30  1  0  0  0  0
 33 38  1  0  0  0  0
 34 35  1  0  0  0  0
 35 32  2  0  0  0  0
 36 37  2  0  0  0  0
 38 28  2  0  0  0  0
 38 35  1  0  0  0  0
M  END
>  <MODEL>
1

>  <REMARK>
 VINA RESULT:      -8.2      0.000      0.000
  Name = 
  9 active torsions:
  status: ('A' for Active; 'I' for Inactive)
    1  A    between atoms: C_1  and  C_26
    2  A    between atoms: C_2  and  C_19
    3  A    between atoms: C_2  and  O_33
    4  A    between atoms: C_9  and  C_29
    5  A    between atoms: C_9  and  C_36
    6  A    between atoms: C_17  and  S_21
    7  A    between atoms: C_19  and  C_28
    8  A    between atoms: C_19  and  C_34
    9  A    between atoms: S_21  and  C_29
                            x       y       z     vdW  Elec       q    Type
                         _______ _______ _______ _____ _____    ______ ____

>  <TORSDO>
F 9

$$$$
=
 OpenBabel11062412583D

 38 41  0  0  1  0  0  0  0  0999 V2000
  190.8550  176.6870  137.6960 C   0  0  2  0  0  3  0  0  0  0  0  0
  193.3350  176.8590  139.0750 N   0  0  0  0  0  0  0  0  0  0  0  0
  192.2490  175.9950  135.8720 O   0  0  0  0  0  1  0  0  0  0  0  0
  193.3150  176.1780  137.9790 C   0  0  0  0  0  3  0  0  0  0  0  0
  192.2860  177.4100  141.1270 N   0  0  0  0  0  1  0  0  0  0  0  0
  192.0460  175.8420  137.2430 C   0  0  1  0  0  3  0  0  0  0  0  0
  192.1660  177.4700  139.6800 C   0  0  2  0  0  3  0  0  0  0  0  0
  190.8530  176.8230  139.2250 C   0  0  1  0  0  3  0  0  0  0  0  0
  188.1950  174.1100  136.8880 C   0  0  2  0  0  3  0  0  0  0  0  0
  187.5370  174.8400  135.7210 C   0  0  0  0  0  2  0  0  0  0  0  0
  188.6130  176.8660  136.5830 O   0  0  0  0  0  0  0  0  0  0  0  0
  189.4200  174.7840  137.3090 N   0  0  0  0  0  0  0  0  0  0  0  0
  188.5030  172.6810  136.5000 C   0  0  0  0  0  1  0  0  0  0  0  0
  189.5840  176.0670  137.2030 C   0  0  0  0  0  0  0  0  0  0  0  0
  187.4020  176.3330  136.0420 C   0  0  2  0  0  3  0  0  0  0  0  0
  186.1970  176.7040  136.9260 C   0  0  1  0  0  3  0  0  0  0  0  0
  185.1580  178.2940  138.6260 C   0  0  0  0  0  1  0  0  0  0  0  0
  186.7810  179.0320  137.0430 O   0  0  0  0  0  1  0  0  0  0  0  0
  186.3950  177.9380  137.8170 C   0  0  2  0  0  3  0  0  0  0  0  0
  184.8630  176.6470  136.2430 C   0  0  0  0  0  0  0  0  0  0  0  0
  184.6250  177.3740  135.2390 O   0  0  0  0  0  0  0  0  0  0  0  0
  184.2390  174.6780  137.5790 C   0  0  0  0  0  1  0  0  0  0  0  0
  183.9030  175.7500  136.7120 O   0  0  0  0  0  0  0  0  0  0  0  0
  189.6790  177.6320  139.7070 C   0  0  0  0  0  0  0  0  0  0  0  0
  189.4290  178.7010  139.1730 O   0  0  0  0  0  0  0  0  0  0  0  0
  188.8390  177.1570  140.8540 C   0  0  0  0  0  2  0  0  0  0  0  0
  187.8940  178.5340  141.5740 S   0  0  0  0  0  0  0  0  0  0  0  0
  184.7350  178.1940  142.7150 C   0  0  0  0  0  3  0  0  0  0  0  0
  188.4620  176.2860  144.5980 F   0  0  0  0  0  0  0  0  0  0  0  0
  188.1150  177.5680  144.2160 C   0  0  0  0  0  0  0  0  0  0  0  0
  189.2630  178.3240  144.0450 F   0  0  0  0  0  0  0  0  0  0  0  0
  184.9610  178.9510  145.4300 C   0  0  0  0  0  3  0  0  0  0  0  0
  187.2350  177.5060  142.9340 C   0  0  1  0  0  3  0  0  0  0  0  0
  187.2970  178.1610  145.2240 O   0  0  0  0  0  0  0  0  0  0  0  0
  186.0380  178.4130  144.7280 C   0  0  0  0  0  0  0  0  0  0  0  0
  183.6310  178.7330  143.3950 C   0  0  0  0  0  3  0  0  0  0  0  0
  183.7440  179.1130  144.7470 C   0  0  0  0  0  3  0  0  0  0  0  0
  185.9360  178.0540  143.4140 C   0  0  0  0  0  0  0  0  0  0  0  0
  1 14  1  1  0  0  0
  1  8  1  0  0  0  0
  2  7  1  0  0  0  0
  4  2  2  0  0  0  0
  6  3  1  6  0  0  0
  6  1  1  0  0  0  0
  6  4  1  0  0  0  0
  7  5  1  1  0  0  0
  8  7  1  0  0  0  0
  8 24  1  6  0  0  0
  9 13  1  6  0  0  0
  9 12  1  0  0  0  0
 10 15  1  0  0  0  0
 10  9  1  0  0  0  0
 11 14  1  0  0  0  0
 14 12  2  0  0  0  0
 15 11  1  0  0  0  0
 15 16  1  1  0  0  0
 16 20  1  6  0  0  0
 16 19  1  0  0  0  0
 18 19  1  0  0  0  0
 19 17  1  6  0  0  0
 20 23  1  0  0  0  0
 21 20  2  0  0  0  0
 23 22  1  0  0  0  0
 24 26  1  0  0  0  0
 25 24  2  0  0  0  0
 26 27  1  0  0  0  0
 28 36  2  0  0  0  0
 28 38  1  0  0  0  0
 30 29  1  0  0  0  0
 30 34  1  0  0  0  0
 31 30  1  0  0  0  0
 33 27  1  6  0  0  0
 33 38  1  0  0  0  0
 33 30  1  0  0  0  0
 35 34  1  0  0  0  0
 35 32  1  0  0  0  0
 36 37  1  0  0  0  0
 37 32  2  0  0  0  0
 38 35  2  0  0  0  0
M  END
>  <MODEL>
2

>  <REMARK>
 VINA RESULT:      -8.1      2.083      2.987
  Name = 
  9 active torsions:
  status: ('A' for Active; 'I' for Inactive)
    1  A    between atoms: C_1  and  C_26
    2  A    between atoms: C_2  and  C_19
    3  A    between atoms: C_2  and  O_33
    4  A    between atoms: C_9  and  C_29
    5  A    between atoms: C_9  and  C_36
    6  A    between atoms: C_17  and  S_21
    7  A    between atoms: C_19  and  C_28
    8  A    between atoms: C_19  and  C_34
    9  A    between atoms: S_21  and  C_29
                            x       y       z     vdW  Elec       q    Type
                         _______ _______ _______ _____ _____    ______ ____

>  <TORSDO>
F 9

$$$$
=
 OpenBabel11062412583D

 38 41  0  0  1  0  0  0  0  0999 V2000
  190.8930  176.5460  137.3970 C   0  0  2  0  0  3  0  0  0  0  0  0
  193.5470  176.6300  138.4120 N   0  0  0  0  0  0  0  0  0  0  0  0
  191.9980  175.8890  135.3730 O   0  0  0  0  0  1  0  0  0  0  0  0
  193.3560  175.9850  137.3110 C   0  0  0  0  0  3  0  0  0  0  0  0
  192.8130  177.1330  140.6080 N   0  0  0  0  0  1  0  0  0  0  0  0
  191.9890  175.6960  136.7540 C   0  0  1  0  0  3  0  0  0  0  0  0
  192.4900  177.2420  139.1960 C   0  0  2  0  0  3  0  0  0  0  0  0
  191.1120  176.6340  138.9140 C   0  0  1  0  0  3  0  0  0  0  0  0
  188.0800  174.0490  136.9290 C   0  0  2  0  0  3  0  0  0  0  0  0
  187.2930  174.8090  135.8670 C   0  0  0  0  0  2  0  0  0  0  0  0
  188.5280  176.7970  136.5940 O   0  0  0  0  0  0  0  0  0  0  0  0
  189.3680  174.6860  137.1890 N   0  0  0  0  0  0  0  0  0  0  0  0
  188.2950  172.6170  136.4920 C   0  0  0  0  0  1  0  0  0  0  0  0
  189.5510  175.9660  137.0730 C   0  0  0  0  0  0  0  0  0  0  0  0
  187.2420  176.3020  136.2150 C   0  0  2  0  0  3  0  0  0  0  0  0
  186.1760  176.6930  137.2540 C   0  0  1  0  0  3  0  0  0  0  0  0
  185.1860  178.5440  138.7000 C   0  0  0  0  0  1  0  0  0  0  0  0
  186.8360  178.9930  137.0390 O   0  0  0  0  0  1  0  0  0  0  0  0
  186.4130  178.0350  137.9600 C   0  0  2  0  0  3  0  0  0  0  0  0
  184.7560  176.4640  136.8300 C   0  0  0  0  0  0  0  0  0  0  0  0
  183.9710  175.7930  137.5550 O   0  0  0  0  0  0  0  0  0  0  0  0
  183.7540  176.2520  134.5940 C   0  0  0  0  0  1  0  0  0  0  0  0
  184.3070  177.0360  135.6390 O   0  0  0  0  0  0  0  0  0  0  0  0
  190.0360  177.4480  139.5820 C   0  0  0  0  0  0  0  0  0  0  0  0
  189.7330  178.5350  139.1180 O   0  0  0  0  0  0  0  0  0  0  0  0
  189.3620  176.9540  140.8270 C   0  0  0  0  0  2  0  0  0  0  0  0
  189.5570  178.1510  142.1820 S   0  0  0  0  0  0  0  0  0  0  0  0
  187.4010  177.1680  144.5870 C   0  0  0  0  0  3  0  0  0  0  0  0
  191.6780  175.5920  144.0450 F   0  0  0  0  0  0  0  0  0  0  0  0
  191.1120  176.8490  144.1440 C   0  0  0  0  0  0  0  0  0  0  0  0
  191.9780  177.7870  143.6080 F   0  0  0  0  0  0  0  0  0  0  0  0
  188.8920  177.5400  146.9600 C   0  0  0  0  0  3  0  0  0  0  0  0
  189.7180  176.8440  143.4500 C   0  0  1  0  0  3  0  0  0  0  0  0
  190.8650  177.1540  145.5160 O   0  0  0  0  0  0  0  0  0  0  0  0
  189.5120  177.2820  145.7390 C   0  0  0  0  0  0  0  0  0  0  0  0
  186.7460  177.4260  145.8030 C   0  0  0  0  0  3  0  0  0  0  0  0
  187.4890  177.6140  146.9850 C   0  0  0  0  0  3  0  0  0  0  0  0
  188.7970  177.1110  144.5880 C   0  0  0  0  0  0  0  0  0  0  0  0
  1 14  1  1  0  0  0
  1  8  1  0  0  0  0
  2  7  1  0  0  0  0
  4  2  2  0  0  0  0
  6  3  1  6  0  0  0
  6  4  1  0  0  0  0
  6  1  1  0  0  0  0
  7  5  1  1  0  0  0
  8  7  1  0  0  0  0
  8 24  1  1  0  0  0
  9 13  1  6  0  0  0
  9 12  1  0  0  0  0
 10 15  1  0  0  0  0
 10  9  1  0  0  0  0
 11 14  1  0  0  0  0
 14 12  2  0  0  0  0
 15 11  1  0  0  0  0
 15 16  1  1  0  0  0
 16 20  1  6  0  0  0
 16 19  1  0  0  0  0
 18 19  1  0  0  0  0
 19 17  1  6  0  0  0
 20 21  2  0  0  0  0
 22 23  1  0  0  0  0
 23 20  1  0  0  0  0
 24 26  1  0  0  0  0
 25 24  2  0  0  0  0
 26 27  1  0  0  0  0
 28 38  2  0  0  0  0
 28 36  1  0  0  0  0
 29 30  1  0  0  0  0
 30 34  1  0  0  0  0
 31 30  1  0  0  0  0
 32 37  1  0  0  0  0
 33 27  1  6  0  0  0
 33 30  1  0  0  0  0
 33 38  1  0  0  0  0
 34 35  1  0  0  0  0
 35 32  2  0  0  0  0
 36 37  2  0  0  0  0
 38 35  1  0  0  0  0
M  END
>  <MODEL>
3

>  <REMARK>
 VINA RESULT:      -7.6      1.705      2.352
  Name = 
  9 active torsions:
  status: ('A' for Active; 'I' for Inactive)
    1  A    between atoms: C_1  and  C_26
    2  A    between atoms: C_2  and  C_19
    3  A    between atoms: C_2  and  O_33
    4  A    between atoms: C_9  and  C_29
    5  A    between atoms: C_9  and  C_36
    6  A    between atoms: C_17  and  S_21
    7  A    between atoms: C_19  and  C_28
    8  A    between atoms: C_19  and  C_34
    9  A    between atoms: S_21  and  C_29
                            x       y       z     vdW  Elec       q    Type
                         _______ _______ _______ _____ _____    ______ ____

>  <TORSDO>
F 9

$$$$
=
 OpenBabel11062412583D

 38 41  0  0  1  0  0  0  0  0999 V2000
  187.8290  177.9190  137.6360 C   0  0  2  0  0  3  0  0  0  0  0  0
  190.3570  176.8880  136.8430 N   0  0  0  0  0  0  0  0  0  0  0  0
  187.4390  177.9820  135.2700 O   0  0  0  0  0  1  0  0  0  0  0  0
  189.4110  176.8690  135.9670 C   0  0  0  0  0  3  0  0  0  0  0  0
  191.0390  176.5250  139.0830 N   0  0  0  0  0  1  0  0  0  0  0  0
  187.9800  177.2030  136.2930 C   0  0  1  0  0  3  0  0  0  0  0  0
  190.1910  177.3260  138.2170 C   0  0  2  0  0  3  0  0  0  0  0  0
  188.7340  177.2670  138.6890 C   0  0  1  0  0  3  0  0  0  0  0  0
  184.1930  176.8940  137.9340 C   0  0  2  0  0  3  0  0  0  0  0  0
  183.6210  178.2470  138.3440 C   0  0  0  0  0  2  0  0  0  0  0  0
  185.9130  178.8560  138.9590 O   0  0  0  0  0  0  0  0  0  0  0  0
  185.5950  177.0080  137.5450 N   0  0  0  0  0  0  0  0  0  0  0  0
  183.3880  176.3140  136.7920 C   0  0  0  0  0  1  0  0  0  0  0  0
  186.3930  177.8940  138.0600 C   0  0  0  0  0  0  0  0  0  0  0  0
  184.5440  178.9230  139.3650 C   0  0  2  0  0  3  0  0  0  0  0  0
  184.3790  178.4370  140.8160 C   0  0  1  0  0  3  0  0  0  0  0  0
  185.5950  177.8330  142.9730 C   0  0  0  0  0  1  0  0  0  0  0  0
  185.5660  180.0620  142.1290 O   0  0  0  0  0  1  0  0  0  0  0  0
  185.5700  178.7220  141.7410 C   0  0  2  0  0  3  0  0  0  0  0  0
  183.0410  178.7160  141.4340 C   0  0  0  0  0  0  0  0  0  0  0  0
  182.0350  178.9460  140.7070 O   0  0  0  0  0  0  0  0  0  0  0  0
  181.7490  179.1370  143.4840 C   0  0  0  0  0  1  0  0  0  0  0  0
  182.9180  178.6800  142.8230 O   0  0  0  0  0  0  0  0  0  0  0  0
  188.5930  177.9350  140.0300 C   0  0  0  0  0  0  0  0  0  0  0  0
  188.4110  179.1400  140.0820 O   0  0  0  0  0  0  0  0  0  0  0  0
  188.7100  177.1430  141.2980 C   0  0  0  0  0  2  0  0  0  0  0  0
  189.4010  178.1650  142.6340 S   0  0  0  0  0  0  0  0  0  0  0  0
  188.0540  177.4530  145.6460 C   0  0  0  0  0  3  0  0  0  0  0  0
  191.3270  175.0090  143.5530 F   0  0  0  0  0  0  0  0  0  0  0  0
  191.1660  176.3440  143.8710 C   0  0  0  0  0  0  0  0  0  0  0  0
  191.9940  177.1110  143.0690 F   0  0  0  0  0  0  0  0  0  0  0  0
  190.3250  177.2230  147.3150 C   0  0  0  0  0  3  0  0  0  0  0  0
  189.6640  176.7300  143.7350 C   0  0  1  0  0  3  0  0  0  0  0  0
  191.5010  176.5510  145.2430 O   0  0  0  0  0  0  0  0  0  0  0  0
  190.3910  176.9600  145.9470 C   0  0  0  0  0  0  0  0  0  0  0  0
  187.9540  177.7240  147.0210 C   0  0  0  0  0  3  0  0  0  0  0  0
  189.0870  177.6120  147.8520 C   0  0  0  0  0  3  0  0  0  0  0  0
  189.2990  177.0790  145.1360 C   0  0  0  0  0  0  0  0  0  0  0  0
  1 14  1  1  0  0  0
  1  8  1  0  0  0  0
  2  7  1  0  0  0  0
  4  6  1  0  0  0  0
  4  2  2  0  0  0  0
  6  3  1  6  0  0  0
  6  1  1  0  0  0  0
  7  8  1  0  0  0  0
  7  5  1  1  0  0  0
  8 24  1  1  0  0  0
  9 13  1  6  0  0  0
  9 10  1  0  0  0  0
 10 15  1  0  0  0  0
 11 15  1  0  0  0  0
 12  9  1  0  0  0  0
 12 14  2  0  0  0  0
 14 11  1  0  0  0  0
 15 16  1  1  0  0  0
 16 20  1  1  0  0  0
 16 19  1  0  0  0  0
 19 18  1  0  0  0  0
 19 17  1  1  0  0  0
 20 23  1  0  0  0  0
 21 20  2  0  0  0  0
 23 22  1  0  0  0  0
 24 25  2  0  0  0  0
 24 26  1  0  0  0  0
 26 27  1  0  0  0  0
 28 36  1  0  0  0  0
 29 30  1  0  0  0  0
 30 34  1  0  0  0  0
 31 30  1  0  0  0  0
 32 37  1  0  0  0  0
 33 27  1  6  0  0  0
 33 30  1  0  0  0  0
 33 38  1  0  0  0  0
 34 35  1  0  0  0  0
 35 32  2  0  0  0  0
 36 37  2  0  0  0  0
 38 28  2  0  0  0  0
 38 35  1  0  0  0  0
M  END
>  <MODEL>
4

>  <REMARK>
 VINA RESULT:      -7.5      1.581      2.007
  Name = 
  9 active torsions:
  status: ('A' for Active; 'I' for Inactive)
    1  A    between atoms: C_1  and  C_26
    2  A    between atoms: C_2  and  C_19
    3  A    between atoms: C_2  and  O_33
    4  A    between atoms: C_9  and  C_29
    5  A    between atoms: C_9  and  C_36
    6  A    between atoms: C_17  and  S_21
    7  A    between atoms: C_19  and  C_28
    8  A    between atoms: C_19  and  C_34
    9  A    between atoms: S_21  and  C_29
                            x       y       z     vdW  Elec       q    Type
                         _______ _______ _______ _____ _____    ______ ____

>  <TORSDO>
F 9

$$$$
=
 OpenBabel11062412583D

 38 41  0  0  1  0  0  0  0  0999 V2000
  182.2290  178.2770  141.2670 C   0  0  2  0  0  3  0  0  0  0  0  0
  181.9420  178.8850  144.0290 N   0  0  0  0  0  0  0  0  0  0  0  0
  179.9830  177.4720  141.5080 O   0  0  0  0  0  1  0  0  0  0  0  0
  180.8630  178.6620  143.3580 C   0  0  0  0  0  3  0  0  0  0  0  0
  184.0710  179.9210  144.1390 N   0  0  0  0  0  1  0  0  0  0  0  0
  180.8410  178.5140  141.8610 C   0  0  1  0  0  3  0  0  0  0  0  0
  183.2730  178.9210  143.4500 C   0  0  2  0  0  3  0  0  0  0  0  0
  183.2580  179.1940  141.9420 C   0  0  1  0  0  3  0  0  0  0  0  0
  181.8310  179.9810  137.9040 C   0  0  2  0  0  3  0  0  0  0  0  0
  181.4810  178.7470  137.0790 C   0  0  0  0  0  2  0  0  0  0  0  0
  182.4460  177.4370  138.9110 O   0  0  0  0  0  0  0  0  0  0  0  0
  181.8580  179.6720  139.3310 N   0  0  0  0  0  0  0  0  0  0  0  0
  180.8320  181.0850  137.6370 C   0  0  0  0  0  1  0  0  0  0  0  0
  182.1870  178.5010  139.7870 C   0  0  0  0  0  0  0  0  0  0  0  0
  182.3710  177.5680  137.4900 C   0  0  2  0  0  3  0  0  0  0  0  0
  183.7770  177.5620  136.8640 C   0  0  1  0  0  3  0  0  0  0  0  0
  186.1090  177.8780  137.8440 C   0  0  0  0  0  1  0  0  0  0  0  0
  185.2620  175.7200  137.2860 O   0  0  0  0  0  1  0  0  0  0  0  0
  184.8850  176.9800  137.7520 C   0  0  2  0  0  3  0  0  0  0  0  0
  183.8380  177.1150  135.4340 C   0  0  0  0  0  0  0  0  0  0  0  0
  184.7740  177.5020  134.6800 O   0  0  0  0  0  0  0  0  0  0  0  0
  183.1490  174.8680  134.7060 C   0  0  0  0  0  1  0  0  0  0  0  0
  182.8640  176.2350  134.9600 O   0  0  0  0  0  0  0  0  0  0  0  0
  184.6350  179.0010  141.3630 C   0  0  0  0  0  0  0  0  0  0  0  0
  185.0250  179.7530  140.4850 O   0  0  0  0  0  0  0  0  0  0  0  0
  185.5120  177.8780  141.8280 C   0  0  0  0  0  2  0  0  0  0  0  0
  187.1860  178.4820  142.2040 S   0  0  0  0  0  0  0  0  0  0  0  0
  186.3280  177.8490  145.4080 C   0  0  0  0  0  3  0  0  0  0  0  0
  189.1220  175.2630  142.8430 F   0  0  0  0  0  0  0  0  0  0  0  0
  189.0630  176.6070  143.1630 C   0  0  0  0  0  0  0  0  0  0  0  0
  189.7750  177.3350  142.2240 F   0  0  0  0  0  0  0  0  0  0  0  0
  188.8330  177.5490  146.6840 C   0  0  0  0  0  3  0  0  0  0  0  0
  187.5750  177.0480  143.2700 C   0  0  1  0  0  3  0  0  0  0  0  0
  189.6270  176.8140  144.4570 O   0  0  0  0  0  0  0  0  0  0  0  0
  188.6640  177.2710  145.3280 C   0  0  0  0  0  0  0  0  0  0  0  0
  186.4660  178.1360  146.7760 C   0  0  0  0  0  3  0  0  0  0  0  0
  187.7150  177.9890  147.4110 C   0  0  0  0  0  3  0  0  0  0  0  0
  187.4580  177.4230  144.7060 C   0  0  0  0  0  0  0  0  0  0  0  0
  1 14  1  6  0  0  0
  1  6  1  0  0  0  0
  1  8  1  0  0  0  0
  4  2  2  0  0  0  0
  6  3  1  1  0  0  0
  6  4  1  0  0  0  0
  7  2  1  0  0  0  0
  7  5  1  1  0  0  0
  8 24  1  6  0  0  0
  8  7  1  0  0  0  0
  9 13  1  1  0  0  0
  9 12  1  0  0  0  0
 10 15  1  0  0  0  0
 10  9  1  0  0  0  0
 11 14  1  0  0  0  0
 12 14  2  0  0  0  0
 15 16  1  1  0  0  0
 15 11  1  0  0  0  0
 16 20  1  6  0  0  0
 16 19  1  0  0  0  0
 18 19  1  0  0  0  0
 19 17  1  6  0  0  0
 21 20  2  0  0  0  0
 22 23  1  0  0  0  0
 23 20  1  0  0  0  0
 24 26  1  0  0  0  0
 25 24  2  0  0  0  0
 26 27  1  0  0  0  0
 28 36  1  0  0  0  0
 29 30  1  0  0  0  0
 30 33  1  0  0  0  0
 30 34  1  0  0  0  0
 31 30  1  0  0  0  0
 32 37  1  0  0  0  0
 33 27  1  6  0  0  0
 33 38  1  0  0  0  0
 34 35  1  0  0  0  0
 35 32  2  0  0  0  0
 36 37  2  0  0  0  0
 38 35  1  0  0  0  0
 38 28  2  0  0  0  0
M  END
>  <MODEL>
5

>  <REMARK>
 VINA RESULT:      -7.4      3.444      5.801
  Name = 
  9 active torsions:
  status: ('A' for Active; 'I' for Inactive)
    1  A    between atoms: C_1  and  C_26
    2  A    between atoms: C_2  and  C_19
    3  A    between atoms: C_2  and  O_33
    4  A    between atoms: C_9  and  C_29
    5  A    between atoms: C_9  and  C_36
    6  A    between atoms: C_17  and  S_21
    7  A    between atoms: C_19  and  C_28
    8  A    between atoms: C_19  and  C_34
    9  A    between atoms: S_21  and  C_29
                            x       y       z     vdW  Elec       q    Type
                         _______ _______ _______ _____ _____    ______ ____

>  <TORSDO>
F 9

$$$$
=
 OpenBabel11062412583D

 38 41  0  0  1  0  0  0  0  0999 V2000
  189.0410  176.9330  137.5140 C   0  0  2  0  0  3  0  0  0  0  0  0
  191.7790  176.3940  138.0570 N   0  0  0  0  0  0  0  0  0  0  0  0
  189.5740  175.9650  135.3850 O   0  0  0  0  0  1  0  0  0  0  0  0
  191.2450  175.7830  137.0540 C   0  0  0  0  0  3  0  0  0  0  0  0
  191.5940  177.1270  140.3030 N   0  0  0  0  0  1  0  0  0  0  0  0
  189.7700  175.8210  136.7580 C   0  0  1  0  0  3  0  0  0  0  0  0
  191.0560  177.2690  138.9620 C   0  0  2  0  0  3  0  0  0  0  0  0
  189.5450  177.0090  138.9610 C   0  0  1  0  0  3  0  0  0  0  0  0
  185.7030  175.1610  137.2170 C   0  0  2  0  0  3  0  0  0  0  0  0
  184.8750  176.3440  136.7280 C   0  0  0  0  0  2  0  0  0  0  0  0
  186.6740  177.7640  137.5950 O   0  0  0  0  0  0  0  0  0  0  0  0
  187.1260  175.4870  137.2430 N   0  0  0  0  0  0  0  0  0  0  0  0
  185.4680  173.9590  136.3290 C   0  0  0  0  0  1  0  0  0  0  0  0
  187.5640  176.6890  137.4630 C   0  0  0  0  0  0  0  0  0  0  0  0
  185.2560  177.6120  137.5030 C   0  0  2  0  0  3  0  0  0  0  0  0
  184.5990  177.7510  138.8880 C   0  0  1  0  0  3  0  0  0  0  0  0
  184.6050  178.9370  141.1450 C   0  0  0  0  0  1  0  0  0  0  0  0
  184.4380  180.1400  139.0930 O   0  0  0  0  0  1  0  0  0  0  0  0
  184.9990  179.0050  139.6780 C   0  0  2  0  0  3  0  0  0  0  0  0
  183.1330  177.4390  138.9340 C   0  0  0  0  0  0  0  0  0  0  0  0
  182.2940  178.2230  138.4110 O   0  0  0  0  0  0  0  0  0  0  0  0
  181.3500  175.8630  139.5570 C   0  0  0  0  0  1  0  0  0  0  0  0
  182.7150  176.2480  139.5300 O   0  0  0  0  0  0  0  0  0  0  0  0
  188.8300  178.0810  139.7400 C   0  0  0  0  0  0  0  0  0  0  0  0
  188.9280  179.2440  139.3850 O   0  0  0  0  0  0  0  0  0  0  0  0
  188.0340  177.7380  140.9630 C   0  0  0  0  0  2  0  0  0  0  0  0
  189.0150  176.7190  142.1060 S   0  0  0  0  0  0  0  0  0  0  0  0
  191.0110  177.5090  144.7110 C   0  0  0  0  0  3  0  0  0  0  0  0
  186.6650  178.8880  144.1770 F   0  0  0  0  0  0  0  0  0  0  0  0
  187.3070  177.6650  144.1430 C   0  0  0  0  0  0  0  0  0  0  0  0
  186.5240  176.7540  143.4530 F   0  0  0  0  0  0  0  0  0  0  0  0
  189.4580  176.7480  146.9480 C   0  0  0  0  0  3  0  0  0  0  0  0
  188.7220  177.8410  143.5190 C   0  0  1  0  0  3  0  0  0  0  0  0
  187.5210  177.2010  145.4750 O   0  0  0  0  0  0  0  0  0  0  0  0
  188.8690  177.1250  145.7420 C   0  0  0  0  0  0  0  0  0  0  0  0
  191.6340  177.1360  145.9140 C   0  0  0  0  0  3  0  0  0  0  0  0
  190.8600  176.7540  147.0270 C   0  0  0  0  0  3  0  0  0  0  0  0
  189.6150  177.4840  144.6560 C   0  0  0  0  0  0  0  0  0  0  0  0
  1 14  1  1  0  0  0
  1  8  1  0  0  0  0
  2  7  1  0  0  0  0
  4  2  2  0  0  0  0
  6  3  1  6  0  0  0
  6  4  1  0  0  0  0
  6  1  1  0  0  0  0
  7  5  1  1  0  0  0
  8  7  1  0  0  0  0
  8 24  1  1  0  0  0
  9 13  1  6  0  0  0
  9 12  1  0  0  0  0
 10  9  1  0  0  0  0
 10 15  1  0  0  0  0
 12 14  2  0  0  0  0
 14 11  1  0  0  0  0
 15 11  1  0  0  0  0
 15 16  1  1  0  0  0
 16 20  1  6  0  0  0
 16 19  1  0  0  0  0
 18 19  1  0  0  0  0
 19 17  1  1  0  0  0
 20 23  1  0  0  0  0
 21 20  2  0  0  0  0
 23 22  1  0  0  0  0
 24 26  1  0  0  0  0
 25 24  2  0  0  0  0
 26 27  1  0  0  0  0
 28 36  1  0  0  0  0
 30 29  1  0  0  0  0
 30 34  1  0  0  0  0
 31 30  1  0  0  0  0
 32 37  1  0  0  0  0
 33 27  1  6  0  0  0
 33 30  1  0  0  0  0
 33 38  1  0  0  0  0
 34 35  1  0  0  0  0
 35 32  2  0  0  0  0
 36 37  2  0  0  0  0
 38 28  2  0  0  0  0
 38 35  1  0  0  0  0
M  END
>  <MODEL>
6

>  <REMARK>
 VINA RESULT:      -7.3      1.483      1.941
  Name = 
  9 active torsions:
  status: ('A' for Active; 'I' for Inactive)
    1  A    between atoms: C_1  and  C_26
    2  A    between atoms: C_2  and  C_19
    3  A    between atoms: C_2  and  O_33
    4  A    between atoms: C_9  and  C_29
    5  A    between atoms: C_9  and  C_36
    6  A    between atoms: C_17  and  S_21
    7  A    between atoms: C_19  and  C_28
    8  A    between atoms: C_19  and  C_34
    9  A    between atoms: S_21  and  C_29
                            x       y       z     vdW  Elec       q    Type
                         _______ _______ _______ _____ _____    ______ ____

>  <TORSDO>
F 9

$$$$
=
 OpenBabel11062412583D

 38 41  0  0  1  0  0  0  0  0999 V2000
  184.5210  179.1110  142.1750 C   0  0  2  0  0  3  0  0  0  0  0  0
  181.6830  179.0030  142.2980 N   0  0  0  0  0  0  0  0  0  0  0  0
  184.3060  179.7480  144.4770 O   0  0  0  0  0  1  0  0  0  0  0  0
  182.3220  179.0030  143.4180 C   0  0  0  0  0  3  0  0  0  0  0  0
  181.5050  178.1940  140.0770 N   0  0  0  0  0  1  0  0  0  0  0  0
  183.8180  178.8680  143.5110 C   0  0  1  0  0  3  0  0  0  0  0  0
  182.3180  178.9760  140.9930 C   0  0  2  0  0  3  0  0  0  0  0  0
  183.7490  178.4280  141.0390 C   0  0  1  0  0  3  0  0  0  0  0  0
  188.1730  178.5310  141.3430 C   0  0  2  0  0  3  0  0  0  0  0  0
  188.3410  177.1850  142.0390 C   0  0  0  0  0  2  0  0  0  0  0  0
  186.3130  177.7550  143.2920 O   0  0  0  0  0  0  0  0  0  0  0  0
  186.7720  178.9440  141.3190 N   0  0  0  0  0  0  0  0  0  0  0  0
  188.7090  178.4560  139.9300 C   0  0  0  0  0  1  0  0  0  0  0  0
  185.9310  178.6140  142.2520 C   0  0  0  0  0  0  0  0  0  0  0  0
  187.6270  177.2000  143.3960 C   0  0  2  0  0  3  0  0  0  0  0  0
  188.4130  177.8660  144.5390 C   0  0  1  0  0  3  0  0  0  0  0  0
  186.6860  178.2470  146.3750 C   0  0  0  0  0  1  0  0  0  0  0  0
  188.9620  177.7460  146.8760 O   0  0  0  0  0  1  0  0  0  0  0  0
  187.9430  177.5030  145.9550 C   0  0  2  0  0  3  0  0  0  0  0  0
  189.9030  177.8730  144.3700 C   0  0  0  0  0  0  0  0  0  0  0  0
  190.5200  178.9540  144.1610 O   0  0  0  0  0  0  0  0  0  0  0  0
  191.6500  176.3250  143.5930 C   0  0  0  0  0  1  0  0  0  0  0  0
  190.6010  176.6700  144.4840 O   0  0  0  0  0  0  0  0  0  0  0  0
  184.4270  178.6290  139.7100 C   0  0  0  0  0  0  0  0  0  0  0  0
  184.5460  179.7590  139.2640 O   0  0  0  0  0  0  0  0  0  0  0  0
  184.9220  177.4580  138.9160 C   0  0  0  0  0  2  0  0  0  0  0  0
  183.7790  177.0740  137.5550 S   0  0  0  0  0  0  0  0  0  0  0  0
  185.1530  173.9900  137.5930 C   0  0  0  0  0  3  0  0  0  0  0  0
  181.0620  175.0990  139.3540 F   0  0  0  0  0  0  0  0  0  0  0  0
  181.6740  175.2850  138.1290 C   0  0  0  0  0  0  0  0  0  0  0  0
  181.0500  176.3210  137.4550 F   0  0  0  0  0  0  0  0  0  0  0  0
  183.1250  172.3820  136.4530 C   0  0  0  0  0  3  0  0  0  0  0  0
  183.1960  175.5310  138.3440 C   0  0  1  0  0  3  0  0  0  0  0  0
  181.5760  174.0860  137.3610 O   0  0  0  0  0  0  0  0  0  0  0  0
  182.8290  173.5630  137.1340 C   0  0  0  0  0  0  0  0  0  0  0  0
  185.4840  172.8060  136.9140 C   0  0  0  0  0  3  0  0  0  0  0  0
  184.4740  172.0060  136.3440 C   0  0  0  0  0  3  0  0  0  0  0  0
  183.8050  174.3470  137.6770 C   0  0  0  0  0  0  0  0  0  0  0  0
  1 14  1  1  0  0  0
  1  6  1  0  0  0  0
  2  4  2  0  0  0  0
  4  6  1  0  0  0  0
  6  3  1  1  0  0  0
  7  5  1  6  0  0  0
  7  8  1  0  0  0  0
  7  2  1  0  0  0  0
  8 24  1  6  0  0  0
  8  1  1  0  0  0  0
  9 13  1  6  0  0  0
  9 10  1  0  0  0  0
 10 15  1  0  0  0  0
 11 15  1  0  0  0  0
 12  9  1  0  0  0  0
 12 14  2  0  0  0  0
 14 11  1  0  0  0  0
 15 16  1  1  0  0  0
 16 20  1  1  0  0  0
 16 19  1  0  0  0  0
 19 17  1  1  0  0  0
 19 18  1  0  0  0  0
 20 23  1  0  0  0  0
 21 20  2  0  0  0  0
 22 23  1  0  0  0  0
 25 24  2  0  0  0  0
 26 24  1  0  0  0  0
 27 26  1  0  0  0  0
 28 38  1  0  0  0  0
 30 33  1  0  0  0  0
 30 29  1  0  0  0  0
 31 30  1  0  0  0  0
 32 35  1  0  0  0  0
 33 27  1  6  0  0  0
 34 30  1  0  0  0  0
 35 34  1  0  0  0  0
 35 38  2  0  0  0  0
 36 28  2  0  0  0  0
 37 32  2  0  0  0  0
 37 36  1  0  0  0  0
 38 33  1  0  0  0  0
M  END
>  <MODEL>
7

>  <REMARK>
 VINA RESULT:      -7.2      4.020      8.902
  Name = 
  9 active torsions:
  status: ('A' for Active; 'I' for Inactive)
    1  A    between atoms: C_1  and  C_26
    2  A    between atoms: C_2  and  C_19
    3  A    between atoms: C_2  and  O_33
    4  A    between atoms: C_9  and  C_29
    5  A    between atoms: C_9  and  C_36
    6  A    between atoms: C_17  and  S_21
    7  A    between atoms: C_19  and  C_28
    8  A    between atoms: C_19  and  C_34
    9  A    between atoms: S_21  and  C_29
                            x       y       z     vdW  Elec       q    Type
                         _______ _______ _______ _____ _____    ______ ____

>  <TORSDO>
F 9

$$$$
=
 OpenBabel11062412583D

 38 41  0  0  1  0  0  0  0  0999 V2000
  187.4290  177.7820  137.9260 C   0  0  2  0  0  3  0  0  0  0  0  0
  189.4350  176.2890  136.5740 N   0  0  0  0  0  0  0  0  0  0  0  0
  186.4040  177.8170  135.7580 O   0  0  0  0  0  1  0  0  0  0  0  0
  188.2900  176.4020  135.9910 C   0  0  0  0  0  3  0  0  0  0  0  0
  190.6530  175.9020  138.5700 N   0  0  0  0  0  1  0  0  0  0  0  0
  187.0810  176.9970  136.6610 C   0  0  1  0  0  3  0  0  0  0  0  0
  189.7340  176.8050  137.8970 C   0  0  2  0  0  3  0  0  0  0  0  0
  188.4780  177.0220  138.7490 C   0  0  1  0  0  3  0  0  0  0  0  0
  185.0720  179.0910  140.5910 C   0  0  2  0  0  3  0  0  0  0  0  0
  184.0510  177.9590  140.5490 C   0  0  0  0  0  2  0  0  0  0  0  0
  184.9840  177.4060  138.3520 O   0  0  0  0  0  0  0  0  0  0  0  0
  186.2470  178.7730  139.7840 N   0  0  0  0  0  0  0  0  0  0  0  0
  185.4900  179.3610  142.0200 C   0  0  0  0  0  1  0  0  0  0  0  0
  186.1850  178.0270  138.7230 C   0  0  0  0  0  0  0  0  0  0  0  0
  183.7730  177.5530  139.0970 C   0  0  2  0  0  3  0  0  0  0  0  0
  182.7750  178.4540  138.3470 C   0  0  1  0  0  3  0  0  0  0  0  0
  181.2260  178.7730  136.3480 C   0  0  0  0  0  1  0  0  0  0  0  0
  181.9060  176.6080  137.0770 O   0  0  0  0  0  1  0  0  0  0  0  0
  182.3280  177.9340  136.9740 C   0  0  2  0  0  3  0  0  0  0  0  0
  181.6620  179.0090  139.1860 C   0  0  0  0  0  0  0  0  0  0  0  0
  180.8140  178.2390  139.7160 O   0  0  0  0  0  0  0  0  0  0  0  0
  180.3670  181.0860  139.4300 C   0  0  0  0  0  1  0  0  0  0  0  0
  181.6010  180.3860  139.4010 O   0  0  0  0  0  0  0  0  0  0  0  0
  188.8270  177.7580  140.0150 C   0  0  0  0  0  0  0  0  0  0  0  0
  189.1460  178.9350  139.9550 O   0  0  0  0  0  0  0  0  0  0  0  0
  188.8240  177.0540  141.3380 C   0  0  0  0  0  2  0  0  0  0  0  0
  189.0760  178.2350  142.6970 S   0  0  0  0  0  0  0  0  0  0  0  0
  187.5520  177.4440  145.6040 C   0  0  0  0  0  3  0  0  0  0  0  0
  191.3880  175.5000  143.9980 F   0  0  0  0  0  0  0  0  0  0  0  0
  190.9760  176.8020  144.2130 C   0  0  0  0  0  0  0  0  0  0  0  0
  191.7460  177.6610  143.4480 F   0  0  0  0  0  0  0  0  0  0  0  0
  189.6400  177.6840  147.4960 C   0  0  0  0  0  3  0  0  0  0  0  0
  189.4540  176.9190  143.9080 C   0  0  1  0  0  3  0  0  0  0  0  0
  191.1240  177.1270  145.5950 O   0  0  0  0  0  0  0  0  0  0  0  0
  189.8940  177.3730  146.1610 C   0  0  0  0  0  0  0  0  0  0  0  0
  187.2640  177.7580  146.9430 C   0  0  0  0  0  3  0  0  0  0  0  0
  188.3050  177.8800  147.8850 C   0  0  0  0  0  3  0  0  0  0  0  0
  188.8890  177.2650  145.2420 C   0  0  0  0  0  0  0  0  0  0  0  0
  1 14  1  1  0  0  0
  1  8  1  0  0  0  0
  2  7  1  0  0  0  0
  4  2  2  0  0  0  0
  4  6  1  0  0  0  0
  6  3  1  6  0  0  0
  6  1  1  0  0  0  0
  7  5  1  1  0  0  0
  7  8  1  0  0  0  0
  8 24  1  1  0  0  0
  9 13  1  1  0  0  0
 10  9  1  0  0  0  0
 11 14  1  0  0  0  0
 11 15  1  0  0  0  0
 12  9  1  0  0  0  0
 14 12  2  0  0  0  0
 15 16  1  6  0  0  0
 15 10  1  0  0  0  0
 16 20  1  1  0  0  0
 19 17  1  1  0  0  0
 19 18  1  0  0  0  0
 19 16  1  0  0  0  0
 20 23  1  0  0  0  0
 20 21  2  0  0  0  0
 23 22  1  0  0  0  0
 24 26  1  0  0  0  0
 25 24  2  0  0  0  0
 26 27  1  0  0  0  0
 28 36  1  0  0  0  0
 29 30  1  0  0  0  0
 30 34  1  0  0  0  0
 31 30  1  0  0  0  0
 32 37  1  0  0  0  0
 33 27  1  6  0  0  0
 33 30  1  0  0  0  0
 33 38  1  0  0  0  0
 34 35  1  0  0  0  0
 35 32  2  0  0  0  0
 36 37  2  0  0  0  0
 38 28  2  0  0  0  0
 38 35  1  0  0  0  0
M  END
>  <MODEL>
8

>  <REMARK>
 VINA RESULT:      -7.0      1.688      2.892
  Name = 
  9 active torsions:
  status: ('A' for Active; 'I' for Inactive)
    1  A    between atoms: C_1  and  C_26
    2  A    between atoms: C_2  and  C_19
    3  A    between atoms: C_2  and  O_33
    4  A    between atoms: C_9  and  C_29
    5  A    between atoms: C_9  and  C_36
    6  A    between atoms: C_17  and  S_21
    7  A    between atoms: C_19  and  C_28
    8  A    between atoms: C_19  and  C_34
    9  A    between atoms: S_21  and  C_29
                            x       y       z     vdW  Elec       q    Type
                         _______ _______ _______ _____ _____    ______ ____

>  <TORSDO>
F 9

$$$$
=
 OpenBabel11062412583D

 38 41  0  0  1  0  0  0  0  0999 V2000
  184.8460  179.0890  142.0870 C   0  0  2  0  0  3  0  0  0  0  0  0
  182.0390  179.0030  142.5280 N   0  0  0  0  0  0  0  0  0  0  0  0
  184.8970  179.7150  144.4010 O   0  0  0  0  0  1  0  0  0  0  0  0
  182.8010  178.9910  143.5690 C   0  0  0  0  0  3  0  0  0  0  0  0
  181.6050  178.2080  140.3380 N   0  0  0  0  0  1  0  0  0  0  0  0
  184.2960  178.8440  143.4920 C   0  0  1  0  0  3  0  0  0  0  0  0
  182.5230  178.9780  141.1600 C   0  0  2  0  0  3  0  0  0  0  0  0
  183.9450  178.4180  141.0420 C   0  0  1  0  0  3  0  0  0  0  0  0
  188.0040  177.1270  142.8250 C   0  0  2  0  0  3  0  0  0  0  0  0
  189.0110  178.1190  142.2540 C   0  0  0  0  0  2  0  0  0  0  0  0
  187.1240  179.0960  141.0340 O   0  0  0  0  0  0  0  0  0  0  0  0
  186.6610  177.7000  142.8650 N   0  0  0  0  0  0  0  0  0  0  0  0
  188.4230  176.7040  144.2160 C   0  0  0  0  0  1  0  0  0  0  0  0
  186.2520  178.5800  142.0020 C   0  0  0  0  0  0  0  0  0  0  0  0
  188.4920  178.6950  140.9310 C   0  0  2  0  0  3  0  0  0  0  0  0
  188.7080  177.7970  139.6990 C   0  0  1  0  0  3  0  0  0  0  0  0
  188.0020  177.2930  137.3020 C   0  0  0  0  0  1  0  0  0  0  0  0
  188.9850  179.3780  137.9110 O   0  0  0  0  0  1  0  0  0  0  0  0
  188.1600  178.3550  138.3790 C   0  0  2  0  0  3  0  0  0  0  0  0
  190.0730  177.1840  139.5870 C   0  0  0  0  0  0  0  0  0  0  0  0
  191.0950  177.8220  139.9630 O   0  0  0  0  0  0  0  0  0  0  0  0
  191.1210  175.5470  138.0800 C   0  0  0  0  0  1  0  0  0  0  0  0
  190.1900  175.8830  139.0960 O   0  0  0  0  0  0  0  0  0  0  0  0
  184.4710  178.6210  139.6460 C   0  0  0  0  0  0  0  0  0  0  0  0
  184.5550  179.7530  139.1970 O   0  0  0  0  0  0  0  0  0  0  0  0
  184.8560  177.4500  138.7930 C   0  0  0  0  0  2  0  0  0  0  0  0
  183.5730  177.1110  137.5490 S   0  0  0  0  0  0  0  0  0  0  0  0
  184.9680  174.0370  137.5930 C   0  0  0  0  0  3  0  0  0  0  0  0
  180.9300  175.1500  139.4710 F   0  0  0  0  0  0  0  0  0  0  0  0
  181.5000  175.3180  138.2230 C   0  0  0  0  0  0  0  0  0  0  0  0
  180.8470  176.3390  137.5530 F   0  0  0  0  0  0  0  0  0  0  0  0
  182.9150  172.3970  136.5480 C   0  0  0  0  0  3  0  0  0  0  0  0
  183.0260  175.5780  138.3830 C   0  0  1  0  0  3  0  0  0  0  0  0
  181.3840  174.1060  137.4790 O   0  0  0  0  0  0  0  0  0  0  0  0
  182.6330  173.5870  137.2180 C   0  0  0  0  0  0  0  0  0  0  0  0
  185.2850  172.8430  136.9240 C   0  0  0  0  0  3  0  0  0  0  0  0
  184.2620  172.0270  136.4010 C   0  0  0  0  0  3  0  0  0  0  0  0
  183.6210  174.3860  137.7160 C   0  0  0  0  0  0  0  0  0  0  0  0
  1 14  1  1  0  0  0
  1  6  1  0  0  0  0
  2  4  2  0  0  0  0
  6  4  1  0  0  0  0
  6  3  1  1  0  0  0
  7  5  1  6  0  0  0
  7  2  1  0  0  0  0
  8 24  1  6  0  0  0
  8  7  1  0  0  0  0
  8  1  1  0  0  0  0
  9 12  1  0  0  0  0
  9 13  1  1  0  0  0
 10  9  1  0  0  0  0
 11 14  1  0  0  0  0
 14 12  2  0  0  0  0
 15 16  1  6  0  0  0
 15 11  1  0  0  0  0
 15 10  1  0  0  0  0
 16 20  1  6  0  0  0
 18 19  1  0  0  0  0
 19 17  1  6  0  0  0
 19 16  1  0  0  0  0
 20 21  2  0  0  0  0
 22 23  1  0  0  0  0
 23 20  1  0  0  0  0
 25 24  2  0  0  0  0
 26 24  1  0  0  0  0
 27 26  1  0  0  0  0
 28 38  1  0  0  0  0
 30 33  1  0  0  0  0
 30 29  1  0  0  0  0
 31 30  1  0  0  0  0
 32 35  1  0  0  0  0
 33 27  1  6  0  0  0
 34 30  1  0  0  0  0
 35 34  1  0  0  0  0
 35 38  2  0  0  0  0
 36 28  2  0  0  0  0
 37 32  2  0  0  0  0
 37 36  1  0  0  0  0
 38 33  1  0  0  0  0
M  END
>  <MODEL>
9

>  <REMARK>
 VINA RESULT:      -7.0      3.927      8.543
  Name = 
  9 active torsions:
  status: ('A' for Active; 'I' for Inactive)
    1  A    between atoms: C_1  and  C_26
    2  A    between atoms: C_2  and  C_19
    3  A    between atoms: C_2  and  O_33
    4  A    between atoms: C_9  and  C_29
    5  A    between atoms: C_9  and  C_36
    6  A    between atoms: C_17  and  S_21
    7  A    between atoms: C_19  and  C_28
    8  A    between atoms: C_19  and  C_34
    9  A    between atoms: S_21  and  C_29
                            x       y       z     vdW  Elec       q    Type
                         _______ _______ _______ _____ _____    ______ ____

>  <TORSDO>
F 9

$$$$
