=
 OpenBabel11062417583D

 40 42  0  0  1  0  0  0  0  0999 V2000
  185.0330  178.0060  139.2570 C   0  0  2  0  0  3  0  0  0  0  0  0
  184.6090  177.5510  137.8970 C   0  0  0  0  0  0  0  0  0  0  0  0
  185.4470  177.8080  136.7770 N   0  0  0  0  0  1  0  0  0  0  0  0
  183.5220  176.9370  137.7370 O   0  0  0  0  0  0  0  0  0  0  0  0
  182.8810  178.0440  140.2930 C   0  0  1  0  0  3  0  0  0  0  0  0
  183.9390  178.8480  139.9090 C   0  0  1  0  0  3  0  0  0  0  0  0
  183.8310  178.4940  141.3560 N   0  0  0  0  0  0  0  0  0  0  0  0
  185.5730  178.1680  143.0390 C   0  0  0  0  0  3  0  0  0  0  0  0
  183.3870  178.9590  143.7160 C   0  0  0  0  0  3  0  0  0  0  0  0
  185.1250  178.6440  145.3720 C   0  0  0  0  0  3  0  0  0  0  0  0
  186.0030  178.2200  144.3690 C   0  0  0  0  0  3  0  0  0  0  0  0
  184.2660  178.5420  142.7110 C   0  0  0  0  0  0  0  0  0  0  0  0
  183.8180  179.0120  145.0450 C   0  0  0  0  0  3  0  0  0  0  0  0
  181.6120  178.8430  140.3530 C   0  0  0  0  0  0  0  0  0  0  0  0
  181.4520  179.8210  139.5720 O   0  0  0  0  0  0  0  0  0  0  0  0
  179.9830  177.1740  141.3830 N   0  0  0  0  0  2  0  0  0  0  0  0
  180.1740  179.3460  142.1610 O   0  0  0  0  0  0  0  0  0  0  0  0
  180.5540  178.4870  141.3230 C   0  0  0  0  0  0  0  0  0  0  0  0
  179.7880  176.2960  140.2690 C   0  0  0  0  0  0  0  0  0  0  0  0
  179.8400  176.7270  139.0860 O   0  0  0  0  0  0  0  0  0  0  0  0
  179.4130  174.8770  140.5140 C   0  0  0  0  0  2  0  0  0  0  0  0
  178.9330  174.7400  141.8160 O   0  0  0  0  0  1  0  0  0  0  0  0
  186.2740  178.7670  139.1520 N   0  0  0  0  0  2  0  0  0  0  0  0
  188.6630  178.2740  139.5880 C   0  0  0  0  0  0  0  0  0  0  0  0
  187.2740  178.0590  139.8370 N   0  0  0  0  0  2  0  0  0  0  0  0
  189.0330  179.1610  138.7720 O   0  0  0  0  0  0  0  0  0  0  0  0
  189.6730  177.3920  140.2650 C   0  0  1  0  0  3  0  0  0  0  0  0
  190.9320  177.3900  139.6210 O   0  0  0  0  0  0  0  0  0  0  0  0
  190.9340  176.4110  138.6140 C   0  0  0  0  0  1  0  0  0  0  0  0
  189.7510  177.5970  141.7790 C   0  0  0  0  0  2  0  0  0  0  0  0
  188.9740  176.5080  142.4920 C   0  0  0  0  0  2  0  0  0  0  0  0
  189.2680  176.5470  143.8540 O   0  0  0  0  0  0  0  0  0  0  0  0
  189.7100  177.8520  144.0820 C   0  0  0  0  0  2  0  0  0  0  0  0
  190.4950  176.4480  147.2910 C   0  0  0  0  0  2  0  0  0  0  0  0
  191.5950  177.6230  145.5460 O   0  0  0  0  0  0  0  0  0  0  0  0
  191.7140  176.5200  146.4110 C   0  0  0  0  0  2  0  0  0  0  0  0
  190.2320  177.9790  145.5030 C   0  0  2  0  0  3  0  0  0  0  0  0
  189.4460  177.0870  146.4420 C   0  0  2  0  0  3  0  0  0  0  0  0
  188.8340  177.9160  148.6230 O   0  0  0  0  0  1  0  0  0  0  0  0
  188.4480  177.8800  147.2810 C   0  0  0  0  0  2  0  0  0  0  0  0
  1  2  1  6  0  0  0
  3  2  1  0  0  0  0
  4  2  2  0  0  0  0
  5 14  1  1  0  0  0
  5  7  1  0  0  0  0
  6  1  1  6  0  0  0
  6  5  1  0  0  0  0
  6  7  1  0  0  0  0
  7 12  1  0  0  0  0
  8 11  1  0  0  0  0
  9 13  2  0  0  0  0
 11 10  2  0  0  0  0
 12  8  2  0  0  0  0
 12  9  1  0  0  0  0
 13 10  1  0  0  0  0
 14 18  1  0  0  0  0
 15 14  2  0  0  0  0
 18 16  1  0  0  0  0
 18 17  2  0  0  0  0
 19 21  1  0  0  0  0
 19 16  1  0  0  0  0
 20 19  2  0  0  0  0
 21 22  1  0  0  0  0
 23  1  1  0  0  0  0
 23 25  1  0  0  0  0
 24 25  1  0  0  0  0
 24 27  1  0  0  0  0
 26 24  2  0  0  0  0
 27 30  1  1  0  0  0
 28 27  1  0  0  0  0
 29 28  1  0  0  0  0
 30 31  1  0  0  0  0
 31 32  1  0  0  0  0
 32 33  1  0  0  0  0
 35 36  1  0  0  0  0
 36 34  1  0  0  0  0
 37 33  1  6  0  0  0
 37 35  1  0  0  0  0
 37 38  1  0  0  0  0
 38 40  1  1  0  0  0
 38 34  1  0  0  0  0
 40 39  1  0  0  0  0
M  END
>  <MODEL>
1

>  <REMARK>
 VINA RESULT:      -7.5      0.000      0.000
  Name = 
  16 active torsions:
  status: ('A' for Active; 'I' for Inactive)
    1  A    between atoms: C_2  and  C_12
    2  A    between atoms: C_2  and  C_34
    3  A    between atoms: C_3  and  C_12
    4  A    between atoms: C_5  and  C_13
    5  A    between atoms: C_6  and  C_33
    6  A    between atoms: C_9  and  C_11
    7  A    between atoms: C_9  and  C_20
    8  A    between atoms: C_12  and  O_27
    9  A    between atoms: C_13  and  C_17
   10  A    between atoms: C_13  and  N_29
   11  A    between atoms: N_21  and  N_29
   12  A    between atoms: C_24  and  N_37
   13  A    between atoms: C_25  and  C_36
   14  A    between atoms: C_28  and  C_38
   15  A    between atoms: C_34  and  O_40
   16  A    between atoms: C_38  and  O_40
                            x       y       z     vdW  Elec       q    Type
                         _______ _______ _______ _____ _____    ______ ____

>  <TORSDO>
F 16

$$$$
=
 OpenBabel11062417583D

 40 42  0  0  1  0  0  0  0  0999 V2000
  185.3380  178.5310  140.3070 C   0  0  2  0  0  3  0  0  0  0  0  0
  185.1460  178.7490  138.8410 C   0  0  0  0  0  0  0  0  0  0  0  0
  185.6790  177.8090  137.9150 N   0  0  0  0  0  1  0  0  0  0  0  0
  184.5130  179.7520  138.4190 O   0  0  0  0  0  0  0  0  0  0  0  0
  183.2640  177.9950  141.3650 C   0  0  1  0  0  3  0  0  0  0  0  0
  184.1300  179.0380  141.0910 C   0  0  1  0  0  3  0  0  0  0  0  0
  184.1530  178.4680  142.4710 N   0  0  0  0  0  0  0  0  0  0  0  0
  185.9090  177.9160  144.0790 C   0  0  0  0  0  3  0  0  0  0  0  0
  183.8110  178.8360  144.8650 C   0  0  0  0  0  3  0  0  0  0  0  0
  185.5620  178.2960  146.4470 C   0  0  0  0  0  3  0  0  0  0  0  0
  186.3770  177.8610  145.3960 C   0  0  0  0  0  3  0  0  0  0  0  0
  184.6270  178.4080  143.8130 C   0  0  0  0  0  0  0  0  0  0  0  0
  184.2800  178.7820  146.1810 C   0  0  0  0  0  3  0  0  0  0  0  0
  181.8690  178.5110  141.5590 C   0  0  0  0  0  0  0  0  0  0  0  0
  181.6520  179.4270  142.4000 O   0  0  0  0  0  0  0  0  0  0  0  0
  180.6350  178.1580  139.3560 N   0  0  0  0  0  2  0  0  0  0  0  0
  179.8990  177.2210  141.3410 O   0  0  0  0  0  0  0  0  0  0  0  0
  180.7520  177.9490  140.7690 C   0  0  0  0  0  0  0  0  0  0  0  0
  181.0490  179.3310  138.6470 C   0  0  0  0  0  0  0  0  0  0  0  0
  181.2910  180.4050  139.2580 O   0  0  0  0  0  0  0  0  0  0  0  0
  181.0920  179.3080  137.1600 C   0  0  0  0  0  2  0  0  0  0  0  0
  180.3490  180.3740  136.6550 O   0  0  0  0  0  1  0  0  0  0  0  0
  186.5560  179.2040  140.7460 N   0  0  0  0  0  2  0  0  0  0  0  0
  188.6590  178.2480  139.8490 C   0  0  0  0  0  0  0  0  0  0  0  0
  187.5850  178.2500  140.7900 N   0  0  0  0  0  2  0  0  0  0  0  0
  188.7400  179.1520  138.9740 O   0  0  0  0  0  0  0  0  0  0  0  0
  189.6550  177.1230  139.8780 C   0  0  1  0  0  3  0  0  0  0  0  0
  190.7230  177.3010  138.9690 O   0  0  0  0  0  0  0  0  0  0  0  0
  191.0600  176.0600  138.4040 C   0  0  0  0  0  1  0  0  0  0  0  0
  190.0990  176.7320  141.2880 C   0  0  0  0  0  2  0  0  0  0  0  0
  191.3000  177.5580  141.7030 C   0  0  0  0  0  2  0  0  0  0  0  0
  191.2650  177.7650  143.0810 O   0  0  0  0  0  0  0  0  0  0  0  0
  191.7610  176.5800  143.6290 C   0  0  0  0  0  2  0  0  0  0  0  0
  190.6890  177.2560  146.9870 C   0  0  0  0  0  2  0  0  0  0  0  0
  189.7210  176.8620  144.8550 O   0  0  0  0  0  0  0  0  0  0  0  0
  189.6600  177.7020  145.9830 C   0  0  0  0  0  2  0  0  0  0  0  0
  190.9740  176.2190  144.8770 C   0  0  2  0  0  3  0  0  0  0  0  0
  191.7320  176.6290  146.1230 C   0  0  2  0  0  3  0  0  0  0  0  0
  192.2930  175.5380  148.2000 O   0  0  0  0  0  1  0  0  0  0  0  0
  192.3890  175.4350  146.8100 C   0  0  0  0  0  2  0  0  0  0  0  0
  1  2  1  6  0  0  0
  1 23  1  0  0  0  0
  3  2  1  0  0  0  0
  4  2  2  0  0  0  0
  5 14  1  1  0  0  0
  5  7  1  0  0  0  0
  6  1  1  6  0  0  0
  6  5  1  0  0  0  0
  6  7  1  0  0  0  0
  7 12  1  0  0  0  0
  8 11  1  0  0  0  0
  9 13  2  0  0  0  0
 11 10  2  0  0  0  0
 12  8  2  0  0  0  0
 12  9  1  0  0  0  0
 13 10  1  0  0  0  0
 14 15  2  0  0  0  0
 16 18  1  0  0  0  0
 18 17  2  0  0  0  0
 18 14  1  0  0  0  0
 19 20  2  0  0  0  0
 19 16  1  0  0  0  0
 21 19  1  0  0  0  0
 22 21  1  0  0  0  0
 23 25  1  0  0  0  0
 24 27  1  0  0  0  0
 24 25  1  0  0  0  0
 26 24  2  0  0  0  0
 27 30  1  1  0  0  0
 28 27  1  0  0  0  0
 29 28  1  0  0  0  0
 30 31  1  0  0  0  0
 31 32  1  0  0  0  0
 32 33  1  0  0  0  0
 35 37  1  0  0  0  0
 35 36  1  0  0  0  0
 36 34  1  0  0  0  0
 37 33  1  6  0  0  0
 37 38  1  0  0  0  0
 38 40  1  1  0  0  0
 38 34  1  0  0  0  0
 40 39  1  0  0  0  0
M  END
>  <MODEL>
2

>  <REMARK>
 VINA RESULT:      -7.1      1.602      2.536
  Name = 
  16 active torsions:
  status: ('A' for Active; 'I' for Inactive)
    1  A    between atoms: C_2  and  C_12
    2  A    between atoms: C_2  and  C_34
    3  A    between atoms: C_3  and  C_12
    4  A    between atoms: C_5  and  C_13
    5  A    between atoms: C_6  and  C_33
    6  A    between atoms: C_9  and  C_11
    7  A    between atoms: C_9  and  C_20
    8  A    between atoms: C_12  and  O_27
    9  A    between atoms: C_13  and  C_17
   10  A    between atoms: C_13  and  N_29
   11  A    between atoms: N_21  and  N_29
   12  A    between atoms: C_24  and  N_37
   13  A    between atoms: C_25  and  C_36
   14  A    between atoms: C_28  and  C_38
   15  A    between atoms: C_34  and  O_40
   16  A    between atoms: C_38  and  O_40
                            x       y       z     vdW  Elec       q    Type
                         _______ _______ _______ _____ _____    ______ ____

>  <TORSDO>
F 16

$$$$
=
 OpenBabel11062417583D

 40 42  0  0  1  0  0  0  0  0999 V2000
  185.3220  177.7430  138.1600 C   0  0  2  0  0  3  0  0  0  0  0  0
  185.7040  177.4280  136.7500 C   0  0  0  0  0  0  0  0  0  0  0  0
  184.7100  177.4390  135.7320 N   0  0  0  0  0  1  0  0  0  0  0  0
  186.8980  177.1590  136.4540 O   0  0  0  0  0  0  0  0  0  0  0  0
  183.0320  177.1160  138.4290 C   0  0  1  0  0  3  0  0  0  0  0  0
  183.8680  178.2010  138.2350 C   0  0  1  0  0  3  0  0  0  0  0  0
  183.3410  177.9730  139.6140 N   0  0  0  0  0  0  0  0  0  0  0  0
  181.9670  178.7040  141.4990 C   0  0  0  0  0  3  0  0  0  0  0  0
  184.3170  178.2280  141.8430 C   0  0  0  0  0  3  0  0  0  0  0  0
  182.9430  178.9410  143.7040 C   0  0  0  0  0  3  0  0  0  0  0  0
  181.8340  179.0220  142.8550 C   0  0  0  0  0  3  0  0  0  0  0  0
  183.2080  178.3020  140.9940 C   0  0  0  0  0  0  0  0  0  0  0  0
  184.1830  178.5450  143.1980 C   0  0  0  0  0  3  0  0  0  0  0  0
  181.6560  177.4160  137.9100 C   0  0  0  0  0  0  0  0  0  0  0  0
  180.6700  176.7540  138.3350 O   0  0  0  0  0  0  0  0  0  0  0  0
  181.2220  179.8470  137.2780 N   0  0  0  0  0  2  0  0  0  0  0  0
  181.5440  178.2010  135.6830 O   0  0  0  0  0  0  0  0  0  0  0  0
  181.4570  178.4830  136.9060 C   0  0  0  0  0  0  0  0  0  0  0  0
  180.5170  180.2870  138.4450 C   0  0  0  0  0  0  0  0  0  0  0  0
  179.7880  179.4940  139.0980 O   0  0  0  0  0  0  0  0  0  0  0  0
  180.5640  181.7240  138.8270 C   0  0  0  0  0  2  0  0  0  0  0  0
  180.9470  182.4880  137.7260 O   0  0  0  0  0  1  0  0  0  0  0  0
  186.2130  178.7690  138.6910 N   0  0  0  0  0  2  0  0  0  0  0  0
  188.5340  178.3310  139.4430 C   0  0  0  0  0  0  0  0  0  0  0  0
  187.1220  178.1440  139.5590 N   0  0  0  0  0  2  0  0  0  0  0  0
  189.0020  179.1190  138.5780 O   0  0  0  0  0  0  0  0  0  0  0  0
  189.4520  177.5320  140.3230 C   0  0  1  0  0  3  0  0  0  0  0  0
  190.7740  177.4560  139.8270 O   0  0  0  0  0  0  0  0  0  0  0  0
  191.6760  177.5670  140.8980 C   0  0  0  0  0  1  0  0  0  0  0  0
  189.3650  177.9080  141.8030 C   0  0  0  0  0  2  0  0  0  0  0  0
  188.3400  177.0380  142.5030 C   0  0  0  0  0  2  0  0  0  0  0  0
  187.5440  177.8330  143.3260 O   0  0  0  0  0  0  0  0  0  0  0  0
  187.4230  177.1030  144.5100 C   0  0  0  0  0  2  0  0  0  0  0  0
  188.0370  177.5600  148.0170 C   0  0  0  0  0  2  0  0  0  0  0  0
  189.2500  177.6080  145.9770 O   0  0  0  0  0  0  0  0  0  0  0  0
  189.2810  177.1180  147.2950 C   0  0  0  0  0  2  0  0  0  0  0  0
  187.9120  177.9370  145.6820 C   0  0  2  0  0  3  0  0  0  0  0  0
  187.0500  177.6970  146.9050 C   0  0  2  0  0  3  0  0  0  0  0  0
  184.7940  178.5270  146.7010 O   0  0  0  0  0  1  0  0  0  0  0  0
  186.0770  178.8460  147.1520 C   0  0  0  0  0  2  0  0  0  0  0  0
  1  2  1  6  0  0  0
  1 23  1  0  0  0  0
  3  2  1  0  0  0  0
  4  2  2  0  0  0  0
  5 14  1  6  0  0  0
  5  7  1  0  0  0  0
  6  1  1  1  0  0  0
  6  5  1  0  0  0  0
  6  7  1  0  0  0  0
  7 12  1  0  0  0  0
  8 11  1  0  0  0  0
  9 13  2  0  0  0  0
 11 10  2  0  0  0  0
 12  8  2  0  0  0  0
 12  9  1  0  0  0  0
 13 10  1  0  0  0  0
 14 15  2  0  0  0  0
 16 19  1  0  0  0  0
 17 18  2  0  0  0  0
 18 16  1  0  0  0  0
 18 14  1  0  0  0  0
 19 21  1  0  0  0  0
 19 20  2  0  0  0  0
 22 21  1  0  0  0  0
 23 25  1  0  0  0  0
 24 25  1  0  0  0  0
 24 27  1  0  0  0  0
 26 24  2  0  0  0  0
 27 30  1  1  0  0  0
 28 27  1  0  0  0  0
 28 29  1  0  0  0  0
 30 31  1  0  0  0  0
 31 32  1  0  0  0  0
 32 33  1  0  0  0  0
 35 36  1  0  0  0  0
 36 34  1  0  0  0  0
 37 33  1  6  0  0  0
 37 35  1  0  0  0  0
 37 38  1  0  0  0  0
 38 40  1  1  0  0  0
 38 34  1  0  0  0  0
 39 40  1  0  0  0  0
M  END
>  <MODEL>
3

>  <REMARK>
 VINA RESULT:      -7.0      2.050      3.297
  Name = 
  16 active torsions:
  status: ('A' for Active; 'I' for Inactive)
    1  A    between atoms: C_2  and  C_12
    2  A    between atoms: C_2  and  C_34
    3  A    between atoms: C_3  and  C_12
    4  A    between atoms: C_5  and  C_13
    5  A    between atoms: C_6  and  C_33
    6  A    between atoms: C_9  and  C_11
    7  A    between atoms: C_9  and  C_20
    8  A    between atoms: C_12  and  O_27
    9  A    between atoms: C_13  and  C_17
   10  A    between atoms: C_13  and  N_29
   11  A    between atoms: N_21  and  N_29
   12  A    between atoms: C_24  and  N_37
   13  A    between atoms: C_25  and  C_36
   14  A    between atoms: C_28  and  C_38
   15  A    between atoms: C_34  and  O_40
   16  A    between atoms: C_38  and  O_40
                            x       y       z     vdW  Elec       q    Type
                         _______ _______ _______ _____ _____    ______ ____

>  <TORSDO>
F 16

$$$$
=
 OpenBabel11062417583D

 40 42  0  0  1  0  0  0  0  0999 V2000
  189.4100  177.4080  140.3660 C   0  0  2  0  0  3  0  0  0  0  0  0
  190.2960  177.0340  141.5110 C   0  0  0  0  0  0  0  0  0  0  0  0
  190.0730  175.8100  142.2020 N   0  0  0  0  0  1  0  0  0  0  0  0
  191.2400  177.7880  141.8650 O   0  0  0  0  0  0  0  0  0  0  0  0
  190.6570  176.2120  138.7160 C   0  0  1  0  0  3  0  0  0  0  0  0
  190.2060  177.4730  139.0660 C   0  0  1  0  0  3  0  0  0  0  0  0
  189.4670  176.7500  137.9890 N   0  0  0  0  0  0  0  0  0  0  0  0
  187.4430  175.6640  137.1490 C   0  0  0  0  0  3  0  0  0  0  0  0
  188.4250  177.4950  135.9050 C   0  0  0  0  0  3  0  0  0  0  0  0
  186.4150  176.4200  135.0900 C   0  0  0  0  0  3  0  0  0  0  0  0
  186.4310  175.5560  136.1900 C   0  0  0  0  0  3  0  0  0  0  0  0
  188.4390  176.6370  137.0090 C   0  0  0  0  0  0  0  0  0  0  0  0
  187.4120  177.3880  134.9470 C   0  0  0  0  0  3  0  0  0  0  0  0
  191.8840  176.3150  137.8590 C   0  0  0  0  0  0  0  0  0  0  0  0
  191.7690  176.3350  136.6030 O   0  0  0  0  0  0  0  0  0  0  0  0
  194.3370  175.6340  137.9960 N   0  0  0  0  0  2  0  0  0  0  0  0
  193.4090  177.1850  139.4420 O   0  0  0  0  0  0  0  0  0  0  0  0
  193.2230  176.3920  138.4830 C   0  0  0  0  0  0  0  0  0  0  0  0
  194.2680  174.3320  137.4040 C   0  0  0  0  0  0  0  0  0  0  0  0
  193.2380  173.6170  137.5290 O   0  0  0  0  0  0  0  0  0  0  0  0
  195.4680  173.7740  136.7250 C   0  0  0  0  0  2  0  0  0  0  0  0
  195.0770  173.0760  135.5840 O   0  0  0  0  0  1  0  0  0  0  0  0
  188.7710  178.6900  140.6420 N   0  0  0  0  0  2  0  0  0  0  0  0
  186.4550  178.7120  141.5260 C   0  0  0  0  0  0  0  0  0  0  0  0
  187.8570  178.5000  141.6920 N   0  0  0  0  0  2  0  0  0  0  0  0
  185.9880  179.0270  140.3970 O   0  0  0  0  0  0  0  0  0  0  0  0
  185.5530  178.6130  142.7230 C   0  0  1  0  0  3  0  0  0  0  0  0
  184.1830  178.5310  142.3840 O   0  0  0  0  0  0  0  0  0  0  0  0
  183.4090  178.6960  143.5450 C   0  0  0  0  0  1  0  0  0  0  0  0
  186.0030  177.5690  143.7460 C   0  0  0  0  0  2  0  0  0  0  0  0
  186.4540  178.2510  145.0220 C   0  0  0  0  0  2  0  0  0  0  0  0
  187.2680  177.3820  145.7470 O   0  0  0  0  0  0  0  0  0  0  0  0
  188.4440  177.2950  145.0000 C   0  0  0  0  0  2  0  0  0  0  0  0
  191.0210  176.7290  147.4340 C   0  0  0  0  0  2  0  0  0  0  0  0
  190.8290  177.4530  145.1810 O   0  0  0  0  0  0  0  0  0  0  0  0
  191.5520  176.5970  146.0320 C   0  0  0  0  0  2  0  0  0  0  0  0
  189.6210  177.7720  145.8330 C   0  0  2  0  0  3  0  0  0  0  0  0
  189.6010  177.1280  147.2040 C   0  0  2  0  0  3  0  0  0  0  0  0
  187.9890  177.5760  148.9420 O   0  0  0  0  0  1  0  0  0  0  0  0
  189.1050  178.0910  148.2800 C   0  0  0  0  0  2  0  0  0  0  0  0
  1 23  1  1  0  0  0
  1  2  1  0  0  0  0
  2  4  2  0  0  0  0
  2  3  1  0  0  0  0
  5 14  1  6  0  0  0
  5  6  1  0  0  0  0
  6  1  1  1  0  0  0
  7  5  1  0  0  0  0
  7  6  1  0  0  0  0
  9 12  2  0  0  0  0
 10 11  1  0  0  0  0
 11  8  2  0  0  0  0
 12  8  1  0  0  0  0
 12  7  1  0  0  0  0
 13 10  2  0  0  0  0
 13  9  1  0  0  0  0
 14 18  1  0  0  0  0
 15 14  2  0  0  0  0
 16 18  1  0  0  0  0
 18 17  2  0  0  0  0
 19 20  2  0  0  0  0
 19 16  1  0  0  0  0
 21 19  1  0  0  0  0
 22 21  1  0  0  0  0
 23 25  1  0  0  0  0
 24 25  1  0  0  0  0
 24 27  1  0  0  0  0
 26 24  2  0  0  0  0
 27 30  1  6  0  0  0
 28 27  1  0  0  0  0
 28 29  1  0  0  0  0
 30 31  1  0  0  0  0
 31 32  1  0  0  0  0
 33 32  1  0  0  0  0
 35 37  1  0  0  0  0
 35 36  1  0  0  0  0
 36 34  1  0  0  0  0
 37 33  1  6  0  0  0
 37 38  1  0  0  0  0
 38 34  1  0  0  0  0
 38 40  1  1  0  0  0
 40 39  1  0  0  0  0
M  END
>  <MODEL>
4

>  <REMARK>
 VINA RESULT:      -7.0      3.217      8.524
  Name = 
  16 active torsions:
  status: ('A' for Active; 'I' for Inactive)
    1  A    between atoms: C_2  and  C_12
    2  A    between atoms: C_2  and  C_34
    3  A    between atoms: C_3  and  C_12
    4  A    between atoms: C_5  and  C_13
    5  A    between atoms: C_6  and  C_33
    6  A    between atoms: C_9  and  C_11
    7  A    between atoms: C_9  and  C_20
    8  A    between atoms: C_12  and  O_27
    9  A    between atoms: C_13  and  C_17
   10  A    between atoms: C_13  and  N_29
   11  A    between atoms: N_21  and  N_29
   12  A    between atoms: C_24  and  N_37
   13  A    between atoms: C_25  and  C_36
   14  A    between atoms: C_28  and  C_38
   15  A    between atoms: C_34  and  O_40
   16  A    between atoms: C_38  and  O_40
                            x       y       z     vdW  Elec       q    Type
                         _______ _______ _______ _____ _____    ______ ____

>  <TORSDO>
F 16

$$$$
=
 OpenBabel11062417583D

 40 42  0  0  1  0  0  0  0  0999 V2000
  184.1360  177.7340  138.5450 C   0  0  2  0  0  3  0  0  0  0  0  0
  183.8890  177.3810  137.1130 C   0  0  0  0  0  0  0  0  0  0  0  0
  184.8050  176.5310  136.4310 N   0  0  0  0  0  1  0  0  0  0  0  0
  182.8780  177.8240  136.5080 O   0  0  0  0  0  0  0  0  0  0  0  0
  182.3260  176.8700  139.8440 C   0  0  1  0  0  3  0  0  0  0  0  0
  182.8210  178.0240  139.2630 C   0  0  1  0  0  3  0  0  0  0  0  0
  183.0060  177.8590  140.7350 N   0  0  0  0  0  0  0  0  0  0  0  0
  182.5410  178.7580  142.9600 C   0  0  0  0  0  3  0  0  0  0  0  0
  184.8220  178.2540  142.3260 C   0  0  0  0  0  3  0  0  0  0  0  0
  184.3470  179.1330  144.5310 C   0  0  0  0  0  3  0  0  0  0  0  0
  182.9840  179.1780  144.2190 C   0  0  0  0  0  3  0  0  0  0  0  0
  183.4600  178.2910  142.0150 C   0  0  0  0  0  0  0  0  0  0  0  0
  185.2650  178.6720  143.5840 C   0  0  0  0  0  3  0  0  0  0  0  0
  180.8370  176.9610  140.0020 C   0  0  0  0  0  0  0  0  0  0  0  0
  180.2150  176.0410  140.6010 O   0  0  0  0  0  0  0  0  0  0  0  0
  179.7450  179.2490  140.2720 N   0  0  0  0  0  2  0  0  0  0  0  0
  179.8180  178.1540  138.2330 O   0  0  0  0  0  0  0  0  0  0  0  0
  180.1010  178.1230  139.4600 C   0  0  0  0  0  0  0  0  0  0  0  0
  179.4110  179.2040  141.6640 C   0  0  0  0  0  0  0  0  0  0  0  0
  179.1200  178.1140  142.2250 O   0  0  0  0  0  0  0  0  0  0  0  0
  179.3030  180.4740  142.4300 C   0  0  0  0  0  2  0  0  0  0  0  0
  179.3080  181.5540  141.5480 O   0  0  0  0  0  1  0  0  0  0  0  0
  185.0270  178.8870  138.6170 N   0  0  0  0  0  2  0  0  0  0  0  0
  187.4180  178.4090  138.1720 C   0  0  0  0  0  0  0  0  0  0  0  0
  186.2860  178.4330  139.0420 N   0  0  0  0  0  2  0  0  0  0  0  0
  187.3260  178.8550  136.9960 O   0  0  0  0  0  0  0  0  0  0  0  0
  188.7000  177.7930  138.6560 C   0  0  1  0  0  3  0  0  0  0  0  0
  189.7960  178.0400  137.7980 O   0  0  0  0  0  0  0  0  0  0  0  0
  190.0580  176.8880  137.0380 C   0  0  0  0  0  1  0  0  0  0  0  0
  188.9940  178.0650  140.1320 C   0  0  0  0  0  2  0  0  0  0  0  0
  190.3110  177.4270  140.5270 C   0  0  0  0  0  2  0  0  0  0  0  0
  190.6380  177.8100  141.8270 O   0  0  0  0  0  0  0  0  0  0  0  0
  191.1910  176.6650  142.4030 C   0  0  0  0  0  2  0  0  0  0  0  0
  188.4590  177.1100  144.6880 C   0  0  0  0  0  2  0  0  0  0  0  0
  189.1330  175.5880  142.9960 O   0  0  0  0  0  0  0  0  0  0  0  0
  188.0360  176.3290  143.4740 C   0  0  0  0  0  2  0  0  0  0  0  0
  190.2990  176.1720  143.5290 C   0  0  2  0  0  3  0  0  0  0  0  0
  189.9180  177.3150  144.4480 C   0  0  2  0  0  3  0  0  0  0  0  0
  189.9110  176.8850  146.8220 O   0  0  0  0  0  1  0  0  0  0  0  0
  190.7120  177.2890  145.7510 C   0  0  0  0  0  2  0  0  0  0  0  0
  1  2  1  6  0  0  0
  1 23  1  0  0  0  0
  3  2  1  0  0  0  0
  4  2  2  0  0  0  0
  5 14  1  1  0  0  0
  5  7  1  0  0  0  0
  6  1  1  6  0  0  0
  6  5  1  0  0  0  0
  6  7  1  0  0  0  0
  7 12  1  0  0  0  0
  8 11  1  0  0  0  0
  9 13  2  0  0  0  0
 11 10  2  0  0  0  0
 12  9  1  0  0  0  0
 12  8  2  0  0  0  0
 13 10  1  0  0  0  0
 14 15  2  0  0  0  0
 16 19  1  0  0  0  0
 17 18  2  0  0  0  0
 18 14  1  0  0  0  0
 18 16  1  0  0  0  0
 19 20  2  0  0  0  0
 19 21  1  0  0  0  0
 22 21  1  0  0  0  0
 23 25  1  0  0  0  0
 24 27  1  0  0  0  0
 24 25  1  0  0  0  0
 26 24  2  0  0  0  0
 27 30  1  1  0  0  0
 28 27  1  0  0  0  0
 29 28  1  0  0  0  0
 30 31  1  0  0  0  0
 31 32  1  0  0  0  0
 32 33  1  0  0  0  0
 35 36  1  0  0  0  0
 35 37  1  0  0  0  0
 36 34  1  0  0  0  0
 37 33  1  6  0  0  0
 37 38  1  0  0  0  0
 38 34  1  0  0  0  0
 38 40  1  1  0  0  0
 40 39  1  0  0  0  0
M  END
>  <MODEL>
5

>  <REMARK>
 VINA RESULT:      -6.9      1.576      2.832
  Name = 
  16 active torsions:
  status: ('A' for Active; 'I' for Inactive)
    1  A    between atoms: C_2  and  C_12
    2  A    between atoms: C_2  and  C_34
    3  A    between atoms: C_3  and  C_12
    4  A    between atoms: C_5  and  C_13
    5  A    between atoms: C_6  and  C_33
    6  A    between atoms: C_9  and  C_11
    7  A    between atoms: C_9  and  C_20
    8  A    between atoms: C_12  and  O_27
    9  A    between atoms: C_13  and  C_17
   10  A    between atoms: C_13  and  N_29
   11  A    between atoms: N_21  and  N_29
   12  A    between atoms: C_24  and  N_37
   13  A    between atoms: C_25  and  C_36
   14  A    between atoms: C_28  and  C_38
   15  A    between atoms: C_34  and  O_40
   16  A    between atoms: C_38  and  O_40
                            x       y       z     vdW  Elec       q    Type
                         _______ _______ _______ _____ _____    ______ ____

>  <TORSDO>
F 16

$$$$
=
 OpenBabel11062417583D

 40 42  0  0  1  0  0  0  0  0999 V2000
  185.7570  178.3600  140.4430 C   0  0  2  0  0  3  0  0  0  0  0  0
  184.5880  178.7620  139.6030 C   0  0  0  0  0  0  0  0  0  0  0  0
  184.4670  180.1100  139.1640 N   0  0  0  0  0  1  0  0  0  0  0  0
  183.7120  177.9180  139.2770 O   0  0  0  0  0  0  0  0  0  0  0  0
  184.9400  178.3890  142.6880 C   0  0  1  0  0  3  0  0  0  0  0  0
  185.7300  179.0830  141.7870 C   0  0  1  0  0  3  0  0  0  0  0  0
  186.4240  178.2530  142.8160 N   0  0  0  0  0  0  0  0  0  0  0  0
  187.7400  177.8590  144.8390 C   0  0  0  0  0  3  0  0  0  0  0  0
  188.5730  177.0910  142.6990 C   0  0  0  0  0  3  0  0  0  0  0  0
  189.8620  176.6970  144.7110 C   0  0  0  0  0  3  0  0  0  0  0  0
  188.8770  177.3420  145.4670 C   0  0  0  0  0  3  0  0  0  0  0  0
  187.5850  177.7300  143.4550 C   0  0  0  0  0  0  0  0  0  0  0  0
  189.7100  176.5730  143.3270 C   0  0  0  0  0  3  0  0  0  0  0  0
  184.4080  179.3170  143.7390 C   0  0  0  0  0  0  0  0  0  0  0  0
  184.7870  180.5210  143.7610 O   0  0  0  0  0  0  0  0  0  0  0  0
  182.1100  178.4300  144.3970 N   0  0  0  0  0  2  0  0  0  0  0  0
  183.8130  178.7000  145.9430 O   0  0  0  0  0  0  0  0  0  0  0  0
  183.4430  178.8250  144.7460 C   0  0  0  0  0  0  0  0  0  0  0  0
  181.3130  179.0040  143.3560 C   0  0  0  0  0  0  0  0  0  0  0  0
  181.6180  180.1140  142.8440 O   0  0  0  0  0  0  0  0  0  0  0  0
  180.0500  178.3330  142.9490 C   0  0  0  0  0  2  0  0  0  0  0  0
  179.6800  177.4030  143.9200 O   0  0  0  0  0  1  0  0  0  0  0  0
  186.9950  178.6520  139.7280 N   0  0  0  0  0  2  0  0  0  0  0  0
  187.5120  177.7790  137.4660 C   0  0  0  0  0  0  0  0  0  0  0  0
  187.2530  177.5810  138.8570 N   0  0  0  0  0  2  0  0  0  0  0  0
  187.5710  178.9440  136.9890 O   0  0  0  0  0  0  0  0  0  0  0  0
  187.6540  176.5810  136.5710 C   0  0  1  0  0  3  0  0  0  0  0  0
  186.4630  175.8280  136.4550 O   0  0  0  0  0  0  0  0  0  0  0  0
  185.5700  176.5040  135.6080 C   0  0  0  0  0  1  0  0  0  0  0  0
  188.3260  176.8900  135.2320 C   0  0  0  0  0  2  0  0  0  0  0  0
  189.2720  175.7680  134.8530 C   0  0  0  0  0  2  0  0  0  0  0  0
  190.5090  175.9830  135.4580 O   0  0  0  0  0  0  0  0  0  0  0  0
  190.8830  174.7310  135.9500 C   0  0  0  0  0  2  0  0  0  0  0  0
  192.1990  176.7470  138.6120 C   0  0  0  0  0  2  0  0  0  0  0  0
  190.5030  175.1190  138.2850 O   0  0  0  0  0  0  0  0  0  0  0  0
  190.7630  176.3740  138.8650 C   0  0  0  0  0  2  0  0  0  0  0  0
  191.5080  174.8820  137.3260 C   0  0  2  0  0  3  0  0  0  0  0  0
  192.5000  176.0280  137.3390 C   0  0  2  0  0  3  0  0  0  0  0  0
  194.7300  176.3440  136.4760 O   0  0  0  0  0  1  0  0  0  0  0  0
  193.9430  175.5340  137.2980 C   0  0  0  0  0  2  0  0  0  0  0  0
  1  2  1  6  0  0  0
  3  2  1  0  0  0  0
  4  2  2  0  0  0  0
  5  7  1  0  0  0  0
  5 14  1  1  0  0  0
  6  1  1  6  0  0  0
  6  5  1  0  0  0  0
  6  7  1  0  0  0  0
  7 12  1  0  0  0  0
  8 11  1  0  0  0  0
  9 13  2  0  0  0  0
  9 12  1  0  0  0  0
 10 11  2  0  0  0  0
 12  8  2  0  0  0  0
 13 10  1  0  0  0  0
 14 15  2  0  0  0  0
 14 18  1  0  0  0  0
 16 18  1  0  0  0  0
 18 17  2  0  0  0  0
 19 16  1  0  0  0  0
 20 19  2  0  0  0  0
 21 19  1  0  0  0  0
 21 22  1  0  0  0  0
 23  1  1  0  0  0  0
 24 25  1  0  0  0  0
 25 23  1  0  0  0  0
 26 24  2  0  0  0  0
 27 30  1  6  0  0  0
 27 24  1  0  0  0  0
 28 27  1  0  0  0  0
 29 28  1  0  0  0  0
 31 30  1  0  0  0  0
 31 32  1  0  0  0  0
 32 33  1  0  0  0  0
 34 36  1  0  0  0  0
 35 36  1  0  0  0  0
 37 33  1  6  0  0  0
 37 38  1  0  0  0  0
 37 35  1  0  0  0  0
 38 40  1  1  0  0  0
 38 34  1  0  0  0  0
 39 40  1  0  0  0  0
M  END
>  <MODEL>
6

>  <REMARK>
 VINA RESULT:      -6.8      2.783      5.946
  Name = 
  16 active torsions:
  status: ('A' for Active; 'I' for Inactive)
    1  A    between atoms: C_2  and  C_12
    2  A    between atoms: C_2  and  C_34
    3  A    between atoms: C_3  and  C_12
    4  A    between atoms: C_5  and  C_13
    5  A    between atoms: C_6  and  C_33
    6  A    between atoms: C_9  and  C_11
    7  A    between atoms: C_9  and  C_20
    8  A    between atoms: C_12  and  O_27
    9  A    between atoms: C_13  and  C_17
   10  A    between atoms: C_13  and  N_29
   11  A    between atoms: N_21  and  N_29
   12  A    between atoms: C_24  and  N_37
   13  A    between atoms: C_25  and  C_36
   14  A    between atoms: C_28  and  C_38
   15  A    between atoms: C_34  and  O_40
   16  A    between atoms: C_38  and  O_40
                            x       y       z     vdW  Elec       q    Type
                         _______ _______ _______ _____ _____    ______ ____

>  <TORSDO>
F 16

$$$$
=
 OpenBabel11062417583D

 40 42  0  0  1  0  0  0  0  0999 V2000
  187.5390  177.7190  138.3200 C   0  0  2  0  0  3  0  0  0  0  0  0
  188.7480  178.5610  138.5760 C   0  0  0  0  0  0  0  0  0  0  0  0
  189.0530  179.6380  137.6980 N   0  0  0  0  0  1  0  0  0  0  0  0
  189.4950  178.3280  139.5630 O   0  0  0  0  0  0  0  0  0  0  0  0
  188.4680  175.7460  137.3460 C   0  0  1  0  0  3  0  0  0  0  0  0
  187.7240  176.8770  137.0610 C   0  0  1  0  0  3  0  0  0  0  0  0
  186.9880  175.5860  137.2090 N   0  0  0  0  0  0  0  0  0  0  0  0
  185.8980  173.4020  137.3380 C   0  0  0  0  0  3  0  0  0  0  0  0
  184.5520  175.3980  137.0810 C   0  0  0  0  0  3  0  0  0  0  0  0
  183.4840  173.2300  137.2220 C   0  0  0  0  0  3  0  0  0  0  0  0
  184.7380  172.6210  137.3450 C   0  0  0  0  0  3  0  0  0  0  0  0
  185.8050  174.7920  137.2100 C   0  0  0  0  0  0  0  0  0  0  0  0
  183.3920  174.6180  137.0890 C   0  0  0  0  0  3  0  0  0  0  0  0
  189.1640  175.2520  136.1120 C   0  0  0  0  0  0  0  0  0  0  0  0
  189.0690  175.9070  135.0370 O   0  0  0  0  0  0  0  0  0  0  0  0
  191.2450  173.9390  136.7790 N   0  0  0  0  0  2  0  0  0  0  0  0
  189.4690  172.9500  135.6700 O   0  0  0  0  0  0  0  0  0  0  0  0
  189.9570  174.0050  136.1540 C   0  0  0  0  0  0  0  0  0  0  0  0
  192.2040  175.0010  136.8320 C   0  0  0  0  0  0  0  0  0  0  0  0
  192.1060  176.0000  136.0720 O   0  0  0  0  0  0  0  0  0  0  0  0
  193.3890  174.8700  137.7210 C   0  0  0  0  0  2  0  0  0  0  0  0
  194.4270  175.6640  137.2370 O   0  0  0  0  0  1  0  0  0  0  0  0
  186.3650  178.5760  138.1980 N   0  0  0  0  0  2  0  0  0  0  0  0
  184.5370  179.2540  139.7290 C   0  0  0  0  0  0  0  0  0  0  0  0
  185.5270  178.3210  139.2960 N   0  0  0  0  0  2  0  0  0  0  0  0
  184.3490  180.3250  139.0900 O   0  0  0  0  0  0  0  0  0  0  0  0
  183.7650  178.9710  140.9860 C   0  0  1  0  0  3  0  0  0  0  0  0
  182.4890  178.4120  140.7430 O   0  0  0  0  0  0  0  0  0  0  0  0
  181.6590  178.6570  141.8490 C   0  0  0  0  0  1  0  0  0  0  0  0
  184.5750  178.2290  142.0500 C   0  0  0  0  0  2  0  0  0  0  0  0
  184.8840  179.1560  143.2090 C   0  0  0  0  0  2  0  0  0  0  0  0
  184.6660  178.4820  144.4100 O   0  0  0  0  0  0  0  0  0  0  0  0
  185.7590  178.8240  145.2090 C   0  0  0  0  0  2  0  0  0  0  0  0
  188.8750  177.1310  145.7630 C   0  0  0  0  0  2  0  0  0  0  0  0
  186.8520  177.5600  146.9280 O   0  0  0  0  0  0  0  0  0  0  0  0
  188.2530  177.5720  147.0600 C   0  0  0  0  0  2  0  0  0  0  0  0
  186.5590  177.5790  145.5490 C   0  0  2  0  0  3  0  0  0  0  0  0
  187.8500  177.5410  144.7570 C   0  0  2  0  0  3  0  0  0  0  0  0
  189.0070  176.4600  142.9370 O   0  0  0  0  0  1  0  0  0  0  0  0
  187.7780  176.5560  143.5940 C   0  0  0  0  0  2  0  0  0  0  0  0
  1 23  1  6  0  0  0
  1  2  1  0  0  0  0
  2  4  2  0  0  0  0
  3  2  1  0  0  0  0
  5 14  1  6  0  0  0
  6  7  1  0  0  0  0
  6  5  1  0  0  0  0
  6  1  1  1  0  0  0
  7 12  1  0  0  0  0
  7  5  1  0  0  0  0
  8 11  1  0  0  0  0
  9 13  2  0  0  0  0
  9 12  1  0  0  0  0
 10 11  2  0  0  0  0
 12  8  2  0  0  0  0
 13 10  1  0  0  0  0
 14 18  1  0  0  0  0
 15 14  2  0  0  0  0
 16 19  1  0  0  0  0
 17 18  2  0  0  0  0
 18 16  1  0  0  0  0
 19 21  1  0  0  0  0
 20 19  2  0  0  0  0
 22 21  1  0  0  0  0
 23 25  1  0  0  0  0
 24 27  1  0  0  0  0
 25 24  1  0  0  0  0
 26 24  2  0  0  0  0
 27 30  1  1  0  0  0
 28 27  1  0  0  0  0
 28 29  1  0  0  0  0
 30 31  1  0  0  0  0
 31 32  1  0  0  0  0
 32 33  1  0  0  0  0
 34 36  1  0  0  0  0
 35 36  1  0  0  0  0
 37 33  1  1  0  0  0
 37 35  1  0  0  0  0
 38 40  1  6  0  0  0
 38 37  1  0  0  0  0
 38 34  1  0  0  0  0
 39 40  1  0  0  0  0
M  END
>  <MODEL>
7

>  <REMARK>
 VINA RESULT:      -6.8      3.059      7.935
  Name = 
  16 active torsions:
  status: ('A' for Active; 'I' for Inactive)
    1  A    between atoms: C_2  and  C_12
    2  A    between atoms: C_2  and  C_34
    3  A    between atoms: C_3  and  C_12
    4  A    between atoms: C_5  and  C_13
    5  A    between atoms: C_6  and  C_33
    6  A    between atoms: C_9  and  C_11
    7  A    between atoms: C_9  and  C_20
    8  A    between atoms: C_12  and  O_27
    9  A    between atoms: C_13  and  C_17
   10  A    between atoms: C_13  and  N_29
   11  A    between atoms: N_21  and  N_29
   12  A    between atoms: C_24  and  N_37
   13  A    between atoms: C_25  and  C_36
   14  A    between atoms: C_28  and  C_38
   15  A    between atoms: C_34  and  O_40
   16  A    between atoms: C_38  and  O_40
                            x       y       z     vdW  Elec       q    Type
                         _______ _______ _______ _____ _____    ______ ____

>  <TORSDO>
F 16

$$$$
=
 OpenBabel11062417583D

 40 42  0  0  1  0  0  0  0  0999 V2000
  190.1780  177.3100  138.8950 C   0  0  2  0  0  3  0  0  0  0  0  0
  188.9950  178.1840  138.6230 C   0  0  0  0  0  0  0  0  0  0  0  0
  187.6840  177.6860  138.8590 N   0  0  0  0  0  1  0  0  0  0  0  0
  189.1500  179.3570  138.1910 O   0  0  0  0  0  0  0  0  0  0  0  0
  191.3540  175.5200  137.8380 C   0  0  1  0  0  3  0  0  0  0  0  0
  190.7320  176.7320  137.5960 C   0  0  1  0  0  3  0  0  0  0  0  0
  189.9840  175.4890  137.2410 N   0  0  0  0  0  0  0  0  0  0  0  0
  187.8180  175.4950  136.1070 C   0  0  0  0  0  3  0  0  0  0  0  0
  188.7790  173.3980  136.8430 C   0  0  0  0  0  3  0  0  0  0  0  0
  186.6410  173.4160  135.7070 C   0  0  0  0  0  3  0  0  0  0  0  0
  186.7120  174.8090  135.5960 C   0  0  0  0  0  3  0  0  0  0  0  0
  188.8550  174.7890  136.7260 C   0  0  0  0  0  0  0  0  0  0  0  0
  187.6740  172.7110  136.3310 C   0  0  0  0  0  3  0  0  0  0  0  0
  192.3880  175.2440  136.7870 C   0  0  0  0  0  0  0  0  0  0  0  0
  192.7190  176.1560  135.9800 O   0  0  0  0  0  0  0  0  0  0  0  0
  194.2440  173.5950  137.3670 N   0  0  0  0  0  2  0  0  0  0  0  0
  192.4370  172.9980  136.0490 O   0  0  0  0  0  0  0  0  0  0  0  0
  193.0180  173.9090  136.6950 C   0  0  0  0  0  0  0  0  0  0  0  0
  195.3210  174.5060  137.6110 C   0  0  0  0  0  0  0  0  0  0  0  0
  195.3970  175.6000  136.9910 O   0  0  0  0  0  0  0  0  0  0  0  0
  196.4210  174.1080  138.5300 C   0  0  0  0  0  2  0  0  0  0  0  0
  196.0850  174.4550  139.8380 O   0  0  0  0  0  1  0  0  0  0  0  0
  189.7950  176.2420  139.8120 N   0  0  0  0  0  2  0  0  0  0  0  0
  189.5670  176.8700  142.1990 C   0  0  0  0  0  0  0  0  0  0  0  0
  190.3630  176.5230  141.0640 N   0  0  0  0  0  2  0  0  0  0  0  0
  188.3090  176.8780  142.1150 O   0  0  0  0  0  0  0  0  0  0  0  0
  190.2490  177.2820  143.4720 C   0  0  1  0  0  3  0  0  0  0  0  0
  191.5480  177.8000  143.2670 O   0  0  0  0  0  0  0  0  0  0  0  0
  191.6850  179.0030  143.9780 C   0  0  0  0  0  1  0  0  0  0  0  0
  189.3750  178.1440  144.3860 C   0  0  0  0  0  2  0  0  0  0  0  0
  188.8070  177.3000  145.5100 C   0  0  0  0  0  2  0  0  0  0  0  0
  187.6020  177.8530  145.9380 O   0  0  0  0  0  0  0  0  0  0  0  0
  186.6780  177.4890  144.9570 C   0  0  0  0  0  2  0  0  0  0  0  0
  183.6760  178.9350  143.6230 C   0  0  0  0  0  2  0  0  0  0  0  0
  184.9480  179.0080  145.6260 O   0  0  0  0  0  0  0  0  0  0  0  0
  183.6390  178.8840  145.1260 C   0  0  0  0  0  2  0  0  0  0  0  0
  185.8310  178.6900  144.5740 C   0  0  2  0  0  3  0  0  0  0  0  0
  185.0380  178.4050  143.3160 C   0  0  2  0  0  3  0  0  0  0  0  0
  185.0120  178.6680  140.9180 O   0  0  0  0  0  1  0  0  0  0  0  0
  185.6440  179.0850  142.0920 C   0  0  0  0  0  2  0  0  0  0  0  0
  1  2  1  6  0  0  0
  1 23  1  0  0  0  0
  2  3  1  0  0  0  0
  4  2  2  0  0  0  0
  5 14  1  6  0  0  0
  6  5  1  0  0  0  0
  6  1  1  1  0  0  0
  7  6  1  0  0  0  0
  7  5  1  0  0  0  0
  8 12  1  0  0  0  0
 10 13  2  0  0  0  0
 11 10  1  0  0  0  0
 11  8  2  0  0  0  0
 12  9  2  0  0  0  0
 12  7  1  0  0  0  0
 13  9  1  0  0  0  0
 15 14  2  0  0  0  0
 16 19  1  0  0  0  0
 17 18  2  0  0  0  0
 18 14  1  0  0  0  0
 18 16  1  0  0  0  0
 19 21  1  0  0  0  0
 20 19  2  0  0  0  0
 21 22  1  0  0  0  0
 23 25  1  0  0  0  0
 24 27  1  0  0  0  0
 25 24  1  0  0  0  0
 26 24  2  0  0  0  0
 27 30  1  6  0  0  0
 28 27  1  0  0  0  0
 28 29  1  0  0  0  0
 30 31  1  0  0  0  0
 31 32  1  0  0  0  0
 33 32  1  0  0  0  0
 34 36  1  0  0  0  0
 36 35  1  0  0  0  0
 37 33  1  1  0  0  0
 37 35  1  0  0  0  0
 38 40  1  6  0  0  0
 38 34  1  0  0  0  0
 38 37  1  0  0  0  0
 39 40  1  0  0  0  0
M  END
>  <MODEL>
8

>  <REMARK>
 VINA RESULT:      -6.6      3.575      9.255
  Name = 
  16 active torsions:
  status: ('A' for Active; 'I' for Inactive)
    1  A    between atoms: C_2  and  C_12
    2  A    between atoms: C_2  and  C_34
    3  A    between atoms: C_3  and  C_12
    4  A    between atoms: C_5  and  C_13
    5  A    between atoms: C_6  and  C_33
    6  A    between atoms: C_9  and  C_11
    7  A    between atoms: C_9  and  C_20
    8  A    between atoms: C_12  and  O_27
    9  A    between atoms: C_13  and  C_17
   10  A    between atoms: C_13  and  N_29
   11  A    between atoms: N_21  and  N_29
   12  A    between atoms: C_24  and  N_37
   13  A    between atoms: C_25  and  C_36
   14  A    between atoms: C_28  and  C_38
   15  A    between atoms: C_34  and  O_40
   16  A    between atoms: C_38  and  O_40
                            x       y       z     vdW  Elec       q    Type
                         _______ _______ _______ _____ _____    ______ ____

>  <TORSDO>
F 16

$$$$
=
 OpenBabel11062417583D

 40 42  0  0  1  0  0  0  0  0999 V2000
  189.3780  177.4170  143.4160 C   0  0  2  0  0  3  0  0  0  0  0  0
  190.5290  176.5110  143.1130 C   0  0  0  0  0  0  0  0  0  0  0  0
  191.8290  177.0610  142.9390 N   0  0  0  0  0  1  0  0  0  0  0  0
  190.3580  175.2680  143.0170 O   0  0  0  0  0  0  0  0  0  0  0  0
  188.9440  178.3040  145.5920 C   0  0  1  0  0  3  0  0  0  0  0  0
  188.8430  177.1590  144.8220 C   0  0  1  0  0  3  0  0  0  0  0  0
  187.5990  177.9570  145.0390 N   0  0  0  0  0  0  0  0  0  0  0  0
  185.6610  178.3030  143.5890 C   0  0  0  0  0  3  0  0  0  0  0  0
  185.3850  178.3670  145.9940 C   0  0  0  0  0  3  0  0  0  0  0  0
  183.4710  178.6970  144.5480 C   0  0  0  0  0  3  0  0  0  0  0  0
  184.2940  178.5460  143.4270 C   0  0  0  0  0  3  0  0  0  0  0  0
  186.2070  178.2090  144.8740 C   0  0  0  0  0  0  0  0  0  0  0  0
  184.0180  178.6080  145.8310 C   0  0  0  0  0  3  0  0  0  0  0  0
  189.0190  177.9500  147.0480 C   0  0  0  0  0  0  0  0  0  0  0  0
  189.0260  178.8670  147.9140 O   0  0  0  0  0  0  0  0  0  0  0  0
  190.3160  175.8980  147.8260 N   0  0  0  0  0  2  0  0  0  0  0  0
  188.0160  175.8710  147.5600 O   0  0  0  0  0  0  0  0  0  0  0  0
  189.0830  176.5330  147.4660 C   0  0  0  0  0  0  0  0  0  0  0  0
  191.6000  176.1860  147.2620 C   0  0  0  0  0  0  0  0  0  0  0  0
  191.7050  176.8300  146.1840 O   0  0  0  0  0  0  0  0  0  0  0  0
  192.8210  175.6260  147.9020 C   0  0  0  0  0  2  0  0  0  0  0  0
  193.2930  176.5150  148.8660 O   0  0  0  0  0  1  0  0  0  0  0  0
  188.3280  177.2220  142.4220 N   0  0  0  0  0  2  0  0  0  0  0  0
  188.2800  178.0460  140.0840 C   0  0  0  0  0  0  0  0  0  0  0  0
  188.9120  177.3350  141.1500 N   0  0  0  0  0  2  0  0  0  0  0  0
  187.1890  178.6470  140.2800 O   0  0  0  0  0  0  0  0  0  0  0  0
  188.9010  178.0170  138.7170 C   0  0  1  0  0  3  0  0  0  0  0  0
  188.6960  179.2100  137.9860 O   0  0  0  0  0  0  0  0  0  0  0  0
  188.9780  178.9770  136.6310 C   0  0  0  0  0  1  0  0  0  0  0  0
  190.3490  177.5260  138.7090 C   0  0  0  0  0  2  0  0  0  0  0  0
  190.4790  176.3000  137.8280 C   0  0  0  0  0  2  0  0  0  0  0  0
  191.6180  176.4200  137.0340 O   0  0  0  0  0  0  0  0  0  0  0  0
  192.6800  176.1490  137.8990 C   0  0  0  0  0  2  0  0  0  0  0  0
  194.2570  173.1610  136.6860 C   0  0  0  0  0  2  0  0  0  0  0  0
  193.3860  175.1920  135.8180 O   0  0  0  0  0  0  0  0  0  0  0  0
  193.3990  173.7980  135.6260 C   0  0  0  0  0  2  0  0  0  0  0  0
  193.7900  175.4370  137.1450 C   0  0  2  0  0  3  0  0  0  0  0  0
  194.1380  174.1260  137.8190 C   0  0  2  0  0  3  0  0  0  0  0  0
  196.4280  174.8810  137.8900 O   0  0  0  0  0  1  0  0  0  0  0  0
  195.4350  174.2200  138.6170 C   0  0  0  0  0  2  0  0  0  0  0  0
  1 23  1  6  0  0  0
  2  1  1  0  0  0  0
  3  2  1  0  0  0  0
  4  2  2  0  0  0  0
  5 14  1  1  0  0  0
  6  1  1  6  0  0  0
  6  7  1  0  0  0  0
  6  5  1  0  0  0  0
  7  5  1  0  0  0  0
  8 12  1  0  0  0  0
 10 13  2  0  0  0  0
 11  8  2  0  0  0  0
 11 10  1  0  0  0  0
 12  7  1  0  0  0  0
 12  9  2  0  0  0  0
 13  9  1  0  0  0  0
 14 18  1  0  0  0  0
 14 15  2  0  0  0  0
 18 17  2  0  0  0  0
 18 16  1  0  0  0  0
 19 16  1  0  0  0  0
 19 21  1  0  0  0  0
 20 19  2  0  0  0  0
 21 22  1  0  0  0  0
 24 26  2  0  0  0  0
 24 25  1  0  0  0  0
 25 23  1  0  0  0  0
 27 30  1  1  0  0  0
 27 24  1  0  0  0  0
 28 27  1  0  0  0  0
 29 28  1  0  0  0  0
 31 30  1  0  0  0  0
 32 31  1  0  0  0  0
 32 33  1  0  0  0  0
 34 38  1  0  0  0  0
 35 37  1  0  0  0  0
 36 35  1  0  0  0  0
 36 34  1  0  0  0  0
 37 38  1  0  0  0  0
 37 33  1  1  0  0  0
 38 40  1  6  0  0  0
 39 40  1  0  0  0  0
M  END
>  <MODEL>
9

>  <REMARK>
 VINA RESULT:      -6.5      3.879      8.617
  Name = 
  16 active torsions:
  status: ('A' for Active; 'I' for Inactive)
    1  A    between atoms: C_2  and  C_12
    2  A    between atoms: C_2  and  C_34
    3  A    between atoms: C_3  and  C_12
    4  A    between atoms: C_5  and  C_13
    5  A    between atoms: C_6  and  C_33
    6  A    between atoms: C_9  and  C_11
    7  A    between atoms: C_9  and  C_20
    8  A    between atoms: C_12  and  O_27
    9  A    between atoms: C_13  and  C_17
   10  A    between atoms: C_13  and  N_29
   11  A    between atoms: N_21  and  N_29
   12  A    between atoms: C_24  and  N_37
   13  A    between atoms: C_25  and  C_36
   14  A    between atoms: C_28  and  C_38
   15  A    between atoms: C_34  and  O_40
   16  A    between atoms: C_38  and  O_40
                            x       y       z     vdW  Elec       q    Type
                         _______ _______ _______ _____ _____    ______ ____

>  <TORSDO>
F 16

$$$$
