=
 OpenBabel11062415523D

 44 47  0  0  1  0  0  0  0  0999 V2000
  183.0060  179.3560  145.5450 N   0  0  0  0  0  0  0  0  0  0  0  0
  183.2510  178.3730  141.5860 C   0  0  0  0  0  0  0  0  0  0  0  0
  185.6090  177.5560  142.3900 C   0  0  0  0  0  3  0  0  0  0  0  0
  182.1240  178.8420  142.0010 N   0  0  0  0  0  0  0  0  0  0  0  0
  184.4160  178.2020  142.5320 C   0  0  0  0  0  0  0  0  0  0  0  0
  182.9910  179.1760  144.2110 C   0  0  0  0  0  0  0  0  0  0  0  0
  184.9020  178.5460  144.8890 C   0  0  0  0  0  0  0  0  0  0  0  0
  181.9000  179.2860  143.3070 N   0  0  0  0  0  2  0  0  0  0  0  0
  184.1500  178.6770  143.8050 C   0  0  0  0  0  0  0  0  0  0  0  0
  186.5890  177.5220  143.4460 C   0  0  0  0  0  0  0  0  0  0  0  0
  184.2570  178.9520  145.9480 N   0  0  0  0  0  2  0  0  0  0  0  0
  186.2020  177.9560  144.7430 C   0  0  0  0  0  3  0  0  0  0  0  0
  187.8120  176.6010  143.2330 C   0  0  0  0  0  2  0  0  0  0  0  0
  189.7170  177.9580  143.5370 C   0  0  0  0  0  3  0  0  0  0  0  0
  189.0890  177.1040  142.6380 C   0  0  0  0  0  0  0  0  0  0  0  0
  190.9420  176.6950  139.3200 C   0  0  0  0  0  3  0  0  0  0  0  0
  188.6090  177.8140  140.3610 C   0  0  0  0  0  3  0  0  0  0  0  0
  190.0450  177.3990  138.4650 C   0  0  0  0  0  0  0  0  0  0  0  0
  188.8780  177.9260  139.0070 C   0  0  0  0  0  3  0  0  0  0  0  0
  189.4870  177.2000  141.2230 C   0  0  0  0  0  0  0  0  0  0  0  0
  190.6670  176.5750  140.6760 C   0  0  0  0  0  3  0  0  0  0  0  0
  190.2730  177.5820  137.1170 O   0  0  0  0  0  0  0  0  0  0  0  0
  189.2730  178.0350  136.2160 C   0  0  0  0  0  1  0  0  0  0  0  0
  190.9240  178.7610  143.3750 C   0  0  0  0  0  2  0  0  0  0  0  0
  191.9060  178.4190  144.4800 C   0  0  0  0  0  2  0  0  0  0  0  0
  192.0760  176.7460  147.2830 O   0  0  0  0  0  1  0  0  0  0  0  0
  191.8700  175.9290  144.3570 O   0  0  0  0  0  1  0  0  0  0  0  0
  189.8490  176.7830  146.6030 O   0  0  0  0  0  0  0  0  0  0  0  0
  191.2120  176.9140  146.3500 C   0  0  0  0  0  0  0  0  0  0  0  0
  191.6970  177.0850  145.0630 N   0  0  0  0  0  0  0  0  0  0  0  0
  183.3000  177.7880  140.1940 C   0  0  0  0  0  2  0  0  0  0  0  0
  183.8940  178.7360  139.1000 C   0  0  2  0  0  3  0  0  0  0  0  0
  185.3490  178.8740  138.9760 N   0  0  0  0  0  2  0  0  0  0  0  0
  185.7990  178.4450  137.6490 C   0  0  0  0  0  2  0  0  0  0  0  0
  185.6840  176.9270  137.5670 C   0  0  0  0  0  2  0  0  0  0  0  0
  185.3920  176.3560  136.1870 C   0  0  0  0  0  2  0  0  0  0  0  0
  186.4610  175.4220  135.8170 N   0  0  0  0  0  2  0  0  0  0  0  0
  188.4160  174.4720  136.8670 C   0  0  0  0  0  1  0  0  0  0  0  0
  186.9100  174.7330  137.0040 C   0  0  0  0  0  3  0  0  0  0  0  0
  186.2430  173.3780  137.1770 C   0  0  0  0  0  1  0  0  0  0  0  0
  183.2230  180.1130  138.9750 C   0  0  0  0  0  2  0  0  0  0  0  0
  181.5840  179.5660  137.2890 O   0  0  0  0  0  1  0  0  0  0  0  0
  181.7390  180.0830  138.5760 C   0  0  2  0  0  3  0  0  0  0  0  0
  181.1190  181.4830  138.6390 C   0  0  0  0  0  1  0  0  0  0  0  0
  1 11  1  0  0  0  0
  2  4  2  0  0  0  0
  2  5  1  0  0  0  0
  3  5  2  0  0  0  0
  3 10  1  0  0  0  0
  4  8  1  0  0  0  0
  5  9  1  0  0  0  0
  6  1  2  0  0  0  0
  7 11  1  0  0  0  0
  8  6  1  0  0  0  0
  9  6  1  0  0  0  0
  9  7  2  0  0  0  0
 10 12  2  0  0  0  0
 12  7  1  0  0  0  0
 13 10  1  0  0  0  0
 15 13  1  0  0  0  0
 15 14  2  0  0  0  0
 16 21  1  0  0  0  0
 17 20  1  0  0  0  0
 18 19  1  0  0  0  0
 18 16  2  0  0  0  0
 19 17  2  0  0  0  0
 20 15  1  0  0  0  0
 21 20  2  0  0  0  0
 22 18  1  0  0  0  0
 23 22  1  0  0  0  0
 24 14  1  0  0  0  0
 24 25  1  0  0  0  0
 25 30  1  0  0  0  0
 27 30  1  0  0  0  0
 29 28  2  0  0  0  0
 29 26  1  0  0  0  0
 30 29  1  0  0  0  0
 31  2  1  0  0  0  0
 32 41  1  1  0  0  0
 32 31  1  0  0  0  0
 33 32  1  0  0  0  0
 34 33  1  0  0  0  0
 35 34  1  0  0  0  0
 36 35  1  0  0  0  0
 37 36  1  0  0  0  0
 37 39  1  0  0  0  0
 38 39  1  0  0  0  0
 39 40  1  0  0  0  0
 42 43  1  0  0  0  0
 43 44  1  6  0  0  0
 43 41  1  0  0  0  0
M  END
>  <MODEL>
1

>  <REMARK>
 VINA RESULT:      -7.6      0.000      0.000
  Name = 
  17 active torsions:
  status: ('A' for Active; 'I' for Inactive)
    1  A    between atoms: C_3  and  C_12
    2  A    between atoms: C_3  and  C_16
    3  A    between atoms: C_5  and  C_6
    4  A    between atoms: C_5  and  C_12
    5  A    between atoms: C_9  and  C_33
    6  A    between atoms: C_9  and  N_40
    7  A    between atoms: C_11  and  O_25
    8  A    between atoms: C_12  and  N_40
    9  A    between atoms: C_17  and  N_32
   10  A    between atoms: C_21  and  C_35
   11  A    between atoms: C_21  and  C_42
   12  A    between atoms: C_22  and  C_41
   13  A    between atoms: C_28  and  C_35
   14  A    between atoms: C_31  and  N_39
   15  A    between atoms: C_31  and  C_41
   16  A    between atoms: N_32  and  C_37
   17  A    between atoms: C_33  and  C_37
                            x       y       z     vdW  Elec       q    Type
                         _______ _______ _______ _____ _____    ______ ____

>  <TORSDO>
F 17

$$$$
=
 OpenBabel11062415523D

 44 47  0  0  1  0  0  0  0  0999 V2000
  189.7220  177.4970  147.8090 N   0  0  0  0  0  0  0  0  0  0  0  0
  186.6380  177.8580  145.1520 C   0  0  0  0  0  0  0  0  0  0  0  0
  188.5300  177.0550  143.5250 C   0  0  0  0  0  3  0  0  0  0  0  0
  186.3620  178.0620  146.3950 N   0  0  0  0  0  0  0  0  0  0  0  0
  188.0400  177.5060  144.7150 C   0  0  0  0  0  0  0  0  0  0  0  0
  188.6540  177.7530  147.0310 C   0  0  0  0  0  0  0  0  0  0  0  0
  190.2130  177.1230  145.7350 C   0  0  0  0  0  0  0  0  0  0  0  0
  187.3170  178.0420  147.4160 N   0  0  0  0  0  2  0  0  0  0  0  0
  188.9490  177.5220  145.7590 C   0  0  0  0  0  0  0  0  0  0  0  0
  189.9310  176.7790  143.3320 C   0  0  0  0  0  0  0  0  0  0  0  0
  190.7130  177.1070  146.9400 N   0  0  0  0  0  2  0  0  0  0  0  0
  190.7770  176.7360  144.4730 C   0  0  0  0  0  3  0  0  0  0  0  0
  190.3300  176.0940  142.0050 C   0  0  0  0  0  2  0  0  0  0  0  0
  189.2830  177.7040  140.6340 C   0  0  0  0  0  3  0  0  0  0  0  0
  190.3700  176.8410  140.7080 C   0  0  0  0  0  0  0  0  0  0  0  0
  191.0790  175.5790  137.1700 C   0  0  0  0  0  3  0  0  0  0  0  0
  192.3360  176.9070  139.2760 C   0  0  0  0  0  3  0  0  0  0  0  0
  192.4450  175.9680  137.0550 C   0  0  0  0  0  0  0  0  0  0  0  0
  193.0390  176.6490  138.1110 C   0  0  0  0  0  3  0  0  0  0  0  0
  191.0380  176.4850  139.4440 C   0  0  0  0  0  0  0  0  0  0  0  0
  190.3710  175.8460  138.3360 C   0  0  0  0  0  3  0  0  0  0  0  0
  193.2130  175.7060  135.9390 O   0  0  0  0  0  0  0  0  0  0  0  0
  194.3290  176.5000  135.5620 C   0  0  0  0  0  1  0  0  0  0  0  0
  188.8430  178.5600  139.5390 C   0  0  0  0  0  2  0  0  0  0  0  0
  187.5380  178.0260  138.9780 C   0  0  0  0  0  2  0  0  0  0  0  0
  187.5570  176.4950  136.0900 O   0  0  0  0  0  0  0  0  0  0  0  0
  187.7220  179.4200  136.9190 O   0  0  0  0  0  1  0  0  0  0  0  0
  185.4160  177.3430  136.4380 O   0  0  0  0  0  1  0  0  0  0  0  0
  186.7830  177.3110  136.7060 C   0  0  0  0  0  0  0  0  0  0  0  0
  187.3820  178.2490  137.5330 N   0  0  0  0  0  0  0  0  0  0  0  0
  185.4840  177.7570  144.1830 C   0  0  0  0  0  2  0  0  0  0  0  0
  185.1300  179.0850  143.4350 C   0  0  2  0  0  3  0  0  0  0  0  0
  183.8640  179.7650  143.7320 N   0  0  0  0  0  2  0  0  0  0  0  0
  182.9040  178.8340  144.3310 C   0  0  0  0  0  2  0  0  0  0  0  0
  181.5000  179.2500  143.9110 C   0  0  0  0  0  2  0  0  0  0  0  0
  180.9310  178.5380  142.6920 C   0  0  0  0  0  2  0  0  0  0  0  0
  180.6210  179.5310  141.6570 N   0  0  0  0  0  2  0  0  0  0  0  0
  179.8540  179.8460  139.3900 C   0  0  0  0  0  1  0  0  0  0  0  0
  180.4490  178.8500  140.3950 C   0  0  0  0  0  3  0  0  0  0  0  0
  179.4760  177.6860  140.4890 C   0  0  0  0  0  1  0  0  0  0  0  0
  185.3830  179.0840  141.9200 C   0  0  0  0  0  2  0  0  0  0  0  0
  183.7730  177.5500  140.9790 O   0  0  0  0  0  1  0  0  0  0  0  0
  184.1300  178.8970  141.0480 C   0  0  2  0  0  3  0  0  0  0  0  0
  184.3550  179.4370  139.6320 C   0  0  0  0  0  1  0  0  0  0  0  0
  2  4  2  0  0  0  0
  3  5  1  0  0  0  0
  4  8  1  0  0  0  0
  5  2  1  0  0  0  0
  5  9  2  0  0  0  0
  6  8  1  0  0  0  0
  6  1  2  0  0  0  0
  7  9  1  0  0  0  0
  7 11  1  0  0  0  0
  9  6  1  0  0  0  0
 10  3  2  0  0  0  0
 10 12  1  0  0  0  0
 11  1  1  0  0  0  0
 12  7  2  0  0  0  0
 13 10  1  0  0  0  0
 14 15  2  0  0  0  0
 15 13  1  0  0  0  0
 16 21  1  0  0  0  0
 17 20  1  0  0  0  0
 18 16  2  0  0  0  0
 18 19  1  0  0  0  0
 19 17  2  0  0  0  0
 20 15  1  0  0  0  0
 21 20  2  0  0  0  0
 22 18  1  0  0  0  0
 23 22  1  0  0  0  0
 24 14  1  0  0  0  0
 25 24  1  0  0  0  0
 26 29  2  0  0  0  0
 27 30  1  0  0  0  0
 28 29  1  0  0  0  0
 29 30  1  0  0  0  0
 30 25  1  0  0  0  0
 31  2  1  0  0  0  0
 32 41  1  6  0  0  0
 32 33  1  0  0  0  0
 32 31  1  0  0  0  0
 33 34  1  0  0  0  0
 35 34  1  0  0  0  0
 36 35  1  0  0  0  0
 37 36  1  0  0  0  0
 38 39  1  0  0  0  0
 39 40  1  0  0  0  0
 39 37  1  0  0  0  0
 42 43  1  0  0  0  0
 43 44  1  6  0  0  0
 43 41  1  0  0  0  0
M  END
>  <MODEL>
2

>  <REMARK>
 VINA RESULT:      -7.3      3.057      6.339
  Name = 
  17 active torsions:
  status: ('A' for Active; 'I' for Inactive)
    1  A    between atoms: C_3  and  C_12
    2  A    between atoms: C_3  and  C_16
    3  A    between atoms: C_5  and  C_6
    4  A    between atoms: C_5  and  C_12
    5  A    between atoms: C_9  and  C_33
    6  A    between atoms: C_9  and  N_40
    7  A    between atoms: C_11  and  O_25
    8  A    between atoms: C_12  and  N_40
    9  A    between atoms: C_17  and  N_32
   10  A    between atoms: C_21  and  C_35
   11  A    between atoms: C_21  and  C_42
   12  A    between atoms: C_22  and  C_41
   13  A    between atoms: C_28  and  C_35
   14  A    between atoms: C_31  and  N_39
   15  A    between atoms: C_31  and  C_41
   16  A    between atoms: N_32  and  C_37
   17  A    between atoms: C_33  and  C_37
                            x       y       z     vdW  Elec       q    Type
                         _______ _______ _______ _____ _____    ______ ____

>  <TORSDO>
F 17

$$$$
=
 OpenBabel11062415523D

 44 47  0  0  1  0  0  0  0  0999 V2000
  190.2760  177.7070  148.2560 N   0  0  0  0  0  0  0  0  0  0  0  0
  186.9460  177.8900  145.8950 C   0  0  0  0  0  0  0  0  0  0  0  0
  188.6520  176.8890  144.1740 C   0  0  0  0  0  3  0  0  0  0  0  0
  186.8000  178.2180  147.1330 N   0  0  0  0  0  0  0  0  0  0  0  0
  188.2910  177.4630  145.3580 C   0  0  0  0  0  0  0  0  0  0  0  0
  189.1390  177.9140  147.5660 C   0  0  0  0  0  0  0  0  0  0  0  0
  190.5500  177.1250  146.1900 C   0  0  0  0  0  0  0  0  0  0  0  0
  187.8520  178.2720  148.0520 N   0  0  0  0  0  2  0  0  0  0  0  0
  189.3010  177.5560  146.3010 C   0  0  0  0  0  0  0  0  0  0  0  0
  190.0220  176.5610  143.8710 C   0  0  0  0  0  0  0  0  0  0  0  0
  191.1690  177.2110  147.3360 N   0  0  0  0  0  2  0  0  0  0  0  0
  190.9780  176.6060  144.9220 C   0  0  0  0  0  3  0  0  0  0  0  0
  190.2740  175.7430  142.5840 C   0  0  0  0  0  2  0  0  0  0  0  0
  191.8400  176.9580  141.3050 C   0  0  0  0  0  3  0  0  0  0  0  0
  190.5670  176.4000  141.2720 C   0  0  0  0  0  0  0  0  0  0  0  0
  188.5430  176.8360  138.0590 C   0  0  0  0  0  3  0  0  0  0  0  0
  188.7810  177.9180  140.6190 C   0  0  0  0  0  3  0  0  0  0  0  0
  187.7230  177.9330  138.4490 C   0  0  0  0  0  0  0  0  0  0  0  0
  187.8460  178.4380  139.7380 C   0  0  0  0  0  3  0  0  0  0  0  0
  189.6340  176.9040  140.2500 C   0  0  0  0  0  0  0  0  0  0  0  0
  189.4750  176.3080  138.9450 C   0  0  0  0  0  3  0  0  0  0  0  0
  186.8020  178.5240  137.6080 O   0  0  0  0  0  0  0  0  0  0  0  0
  185.7980  177.7900  136.9200 C   0  0  0  0  0  1  0  0  0  0  0  0
  192.5270  177.7770  140.3120 C   0  0  0  0  0  2  0  0  0  0  0  0
  193.6440  176.9680  139.6810 C   0  0  0  0  0  2  0  0  0  0  0  0
  194.9600  175.7540  136.9460 O   0  0  0  0  0  0  0  0  0  0  0  0
  192.1930  176.8030  137.6600 O   0  0  0  0  0  1  0  0  0  0  0  0
  193.7060  174.0670  137.9490 O   0  0  0  0  0  1  0  0  0  0  0  0
  194.0400  175.4070  137.7710 C   0  0  0  0  0  0  0  0  0  0  0  0
  193.3030  176.4230  138.3590 N   0  0  0  0  0  0  0  0  0  0  0  0
  185.6990  177.7260  145.0600 C   0  0  0  0  0  2  0  0  0  0  0  0
  184.7900  178.9960  144.9710 C   0  0  2  0  0  3  0  0  0  0  0  0
  183.3980  178.9220  145.4310 N   0  0  0  0  0  2  0  0  0  0  0  0
  182.4850  179.4170  144.3970 C   0  0  0  0  0  2  0  0  0  0  0  0
  181.3560  178.4080  144.2260 C   0  0  0  0  0  2  0  0  0  0  0  0
  180.1300  178.9020  143.4720 C   0  0  0  0  0  2  0  0  0  0  0  0
  180.5640  179.6850  142.3100 N   0  0  0  0  0  2  0  0  0  0  0  0
  181.1320  179.6370  139.9650 C   0  0  0  0  0  1  0  0  0  0  0  0
  180.7290  178.7960  141.1840 C   0  0  0  0  0  3  0  0  0  0  0  0
  179.4420  178.0780  140.8150 C   0  0  0  0  0  1  0  0  0  0  0  0
  184.8650  179.7800  143.6510 C   0  0  0  0  0  2  0  0  0  0  0  0
  185.9000  179.8530  141.4710 O   0  0  0  0  0  1  0  0  0  0  0  0
  185.4130  178.9890  142.4530 C   0  0  2  0  0  3  0  0  0  0  0  0
  184.3350  178.0860  141.8440 C   0  0  0  0  0  1  0  0  0  0  0  0
  2  4  2  0  0  0  0
  3  5  1  0  0  0  0
  4  8  1  0  0  0  0
  5  2  1  0  0  0  0
  5  9  2  0  0  0  0
  6  8  1  0  0  0  0
  6  1  2  0  0  0  0
  7  9  1  0  0  0  0
  7 11  1  0  0  0  0
  9  6  1  0  0  0  0
 10  3  2  0  0  0  0
 10 12  1  0  0  0  0
 11  1  1  0  0  0  0
 12  7  2  0  0  0  0
 13 10  1  0  0  0  0
 15 14  2  0  0  0  0
 15 13  1  0  0  0  0
 16 18  2  0  0  0  0
 16 21  1  0  0  0  0
 18 19  1  0  0  0  0
 19 17  2  0  0  0  0
 20 17  1  0  0  0  0
 20 15  1  0  0  0  0
 21 20  2  0  0  0  0
 22 18  1  0  0  0  0
 23 22  1  0  0  0  0
 24 14  1  0  0  0  0
 25 24  1  0  0  0  0
 26 29  2  0  0  0  0
 27 30  1  0  0  0  0
 29 28  1  0  0  0  0
 29 30  1  0  0  0  0
 30 25  1  0  0  0  0
 31  2  1  0  0  0  0
 32 41  1  6  0  0  0
 32 31  1  0  0  0  0
 32 33  1  0  0  0  0
 34 33  1  0  0  0  0
 35 34  1  0  0  0  0
 36 35  1  0  0  0  0
 37 36  1  0  0  0  0
 38 39  1  0  0  0  0
 39 37  1  0  0  0  0
 40 39  1  0  0  0  0
 42 43  1  0  0  0  0
 43 44  1  6  0  0  0
 43 41  1  0  0  0  0
M  END
>  <MODEL>
3

>  <REMARK>
 VINA RESULT:      -7.1      3.079      6.273
  Name = 
  17 active torsions:
  status: ('A' for Active; 'I' for Inactive)
    1  A    between atoms: C_3  and  C_12
    2  A    between atoms: C_3  and  C_16
    3  A    between atoms: C_5  and  C_6
    4  A    between atoms: C_5  and  C_12
    5  A    between atoms: C_9  and  C_33
    6  A    between atoms: C_9  and  N_40
    7  A    between atoms: C_11  and  O_25
    8  A    between atoms: C_12  and  N_40
    9  A    between atoms: C_17  and  N_32
   10  A    between atoms: C_21  and  C_35
   11  A    between atoms: C_21  and  C_42
   12  A    between atoms: C_22  and  C_41
   13  A    between atoms: C_28  and  C_35
   14  A    between atoms: C_31  and  N_39
   15  A    between atoms: C_31  and  C_41
   16  A    between atoms: N_32  and  C_37
   17  A    between atoms: C_33  and  C_37
                            x       y       z     vdW  Elec       q    Type
                         _______ _______ _______ _____ _____    ______ ____

>  <TORSDO>
F 17

$$$$
=
 OpenBabel11062415523D

 44 47  0  0  1  0  0  0  0  0999 V2000
  183.7710  178.8540  145.5640 N   0  0  0  0  0  0  0  0  0  0  0  0
  182.4000  178.7660  141.7150 C   0  0  0  0  0  0  0  0  0  0  0  0
  184.9710  178.5160  141.2730 C   0  0  0  0  0  3  0  0  0  0  0  0
  181.5110  178.8060  142.6480 N   0  0  0  0  0  0  0  0  0  0  0  0
  183.8730  178.7550  142.0450 C   0  0  0  0  0  0  0  0  0  0  0  0
  183.1970  178.9390  144.3490 C   0  0  0  0  0  0  0  0  0  0  0  0
  185.2870  178.7600  144.0230 C   0  0  0  0  0  0  0  0  0  0  0  0
  181.8170  178.9060  144.0090 N   0  0  0  0  0  2  0  0  0  0  0  0
  184.1210  178.8790  143.4020 C   0  0  0  0  0  0  0  0  0  0  0  0
  186.3080  178.5590  141.8110 C   0  0  0  0  0  0  0  0  0  0  0  0
  185.1190  178.7530  145.3170 N   0  0  0  0  0  2  0  0  0  0  0  0
  186.4680  178.6050  143.2230 C   0  0  0  0  0  3  0  0  0  0  0  0
  187.4490  178.0830  140.8840 C   0  0  0  0  0  2  0  0  0  0  0  0
  189.6660  177.5030  140.3270 C   0  0  0  0  0  3  0  0  0  0  0  0
  188.8640  177.9760  141.3580 C   0  0  0  0  0  0  0  0  0  0  0  0
  190.5060  178.6990  144.7330 C   0  0  0  0  0  3  0  0  0  0  0  0
  189.0590  176.7060  143.4250 C   0  0  0  0  0  3  0  0  0  0  0  0
  190.2160  177.4740  145.4000 C   0  0  0  0  0  0  0  0  0  0  0  0
  189.4730  176.5070  144.7320 C   0  0  0  0  0  3  0  0  0  0  0  0
  189.3820  177.8490  142.7320 C   0  0  0  0  0  0  0  0  0  0  0  0
  190.0840  178.9020  143.4260 C   0  0  0  0  0  3  0  0  0  0  0  0
  190.6330  177.1960  146.6860 O   0  0  0  0  0  0  0  0  0  0  0  0
  191.5930  176.1940  146.9900 C   0  0  0  0  0  1  0  0  0  0  0  0
  191.0800  177.1450  140.3330 C   0  0  0  0  0  2  0  0  0  0  0  0
  191.5290  176.8520  138.9140 C   0  0  0  0  0  2  0  0  0  0  0  0
  193.7500  174.7060  137.8420 O   0  0  0  0  0  1  0  0  0  0  0  0
  193.8890  177.1380  139.6690 O   0  0  0  0  0  1  0  0  0  0  0  0
  193.9530  176.6460  136.5680 O   0  0  0  0  0  0  0  0  0  0  0  0
  193.5260  175.9620  137.7040 C   0  0  0  0  0  0  0  0  0  0  0  0
  192.9770  176.6280  138.7880 N   0  0  0  0  0  0  0  0  0  0  0  0
  181.9270  178.5010  140.3050 C   0  0  0  0  0  2  0  0  0  0  0  0
  181.6800  176.9940  139.9630 C   0  0  2  0  0  3  0  0  0  0  0  0
  182.7290  176.2270  139.2830 N   0  0  0  0  0  2  0  0  0  0  0  0
  183.3940  177.0470  138.2670 C   0  0  0  0  0  2  0  0  0  0  0  0
  183.9580  176.1240  137.1930 C   0  0  0  0  0  2  0  0  0  0  0  0
  185.4760  176.0420  137.1170 C   0  0  0  0  0  2  0  0  0  0  0  0
  185.9830  177.1910  136.3590 N   0  0  0  0  0  2  0  0  0  0  0  0
  187.8640  176.0300  137.3250 C   0  0  0  0  0  1  0  0  0  0  0  0
  187.4220  177.2240  136.4690 C   0  0  0  0  0  3  0  0  0  0  0  0
  187.9240  178.4760  137.1700 C   0  0  0  0  0  1  0  0  0  0  0  0
  180.3090  176.6660  139.3520 C   0  0  0  0  0  2  0  0  0  0  0  0
  179.2900  176.5090  141.5350 O   0  0  0  0  0  1  0  0  0  0  0  0
  179.3460  175.9060  140.2780 C   0  0  2  0  0  3  0  0  0  0  0  0
  179.7680  174.4410  140.4360 C   0  0  0  0  0  1  0  0  0  0  0  0
  2  5  1  0  0  0  0
  2  4  2  0  0  0  0
  3 10  2  0  0  0  0
  3  5  1  0  0  0  0
  4  8  1  0  0  0  0
  5  9  2  0  0  0  0
  6  1  2  0  0  0  0
  7 11  1  0  0  0  0
  8  6  1  0  0  0  0
  9  7  1  0  0  0  0
  9  6  1  0  0  0  0
 10 12  1  0  0  0  0
 11  1  1  0  0  0  0
 12  7  2  0  0  0  0
 13 15  1  0  0  0  0
 13 10  1  0  0  0  0
 14 24  1  0  0  0  0
 14 15  2  0  0  0  0
 15 20  1  0  0  0  0
 16 18  1  0  0  0  0
 17 19  1  0  0  0  0
 18 22  1  0  0  0  0
 19 18  2  0  0  0  0
 20 17  2  0  0  0  0
 20 21  1  0  0  0  0
 21 16  2  0  0  0  0
 22 23  1  0  0  0  0
 25 24  1  0  0  0  0
 28 29  2  0  0  0  0
 29 26  1  0  0  0  0
 29 30  1  0  0  0  0
 30 25  1  0  0  0  0
 30 27  1  0  0  0  0
 31  2  1  0  0  0  0
 32 41  1  6  0  0  0
 32 31  1  0  0  0  0
 33 32  1  0  0  0  0
 34 33  1  0  0  0  0
 35 34  1  0  0  0  0
 36 35  1  0  0  0  0
 37 39  1  0  0  0  0
 37 36  1  0  0  0  0
 39 40  1  0  0  0  0
 39 38  1  0  0  0  0
 41 43  1  0  0  0  0
 43 44  1  1  0  0  0
 43 42  1  0  0  0  0
M  END
>  <MODEL>
4

>  <REMARK>
 VINA RESULT:      -7.1      2.438      4.814
  Name = 
  17 active torsions:
  status: ('A' for Active; 'I' for Inactive)
    1  A    between atoms: C_3  and  C_12
    2  A    between atoms: C_3  and  C_16
    3  A    between atoms: C_5  and  C_6
    4  A    between atoms: C_5  and  C_12
    5  A    between atoms: C_9  and  C_33
    6  A    between atoms: C_9  and  N_40
    7  A    between atoms: C_11  and  O_25
    8  A    between atoms: C_12  and  N_40
    9  A    between atoms: C_17  and  N_32
   10  A    between atoms: C_21  and  C_35
   11  A    between atoms: C_21  and  C_42
   12  A    between atoms: C_22  and  C_41
   13  A    between atoms: C_28  and  C_35
   14  A    between atoms: C_31  and  N_39
   15  A    between atoms: C_31  and  C_41
   16  A    between atoms: N_32  and  C_37
   17  A    between atoms: C_33  and  C_37
                            x       y       z     vdW  Elec       q    Type
                         _______ _______ _______ _____ _____    ______ ____

>  <TORSDO>
F 17

$$$$
=
 OpenBabel11062415523D

 44 47  0  0  1  0  0  0  0  0999 V2000
  193.0360  176.9720  139.5950 N   0  0  0  0  0  0  0  0  0  0  0  0
  189.9320  176.7910  136.9440 C   0  0  0  0  0  0  0  0  0  0  0  0
  188.6480  177.6380  139.0670 C   0  0  0  0  0  3  0  0  0  0  0  0
  191.1070  176.5330  136.4820 N   0  0  0  0  0  0  0  0  0  0  0  0
  189.7280  177.1390  138.3990 C   0  0  0  0  0  0  0  0  0  0  0  0
  192.0940  176.7720  138.6540 C   0  0  0  0  0  0  0  0  0  0  0  0
  191.0810  177.4360  140.3970 C   0  0  0  0  0  0  0  0  0  0  0  0
  192.2600  176.4880  137.2710 N   0  0  0  0  0  2  0  0  0  0  0  0
  190.8950  177.0580  139.1400 C   0  0  0  0  0  0  0  0  0  0  0  0
  188.6820  177.8990  140.4840 C   0  0  0  0  0  0  0  0  0  0  0  0
  192.3460  177.3870  140.7100 N   0  0  0  0  0  2  0  0  0  0  0  0
  189.9380  177.8730  141.1480 C   0  0  0  0  0  3  0  0  0  0  0  0
  187.4650  178.6400  141.0850 C   0  0  0  0  0  2  0  0  0  0  0  0
  187.8140  177.4480  143.0910 C   0  0  0  0  0  3  0  0  0  0  0  0
  186.9540  178.3390  142.4590 C   0  0  0  0  0  0  0  0  0  0  0  0
  183.9590  178.9640  144.7490 C   0  0  0  0  0  3  0  0  0  0  0  0
  184.5470  178.2950  142.1060 C   0  0  0  0  0  3  0  0  0  0  0  0
  182.9040  178.7230  143.8230 C   0  0  0  0  0  0  0  0  0  0  0  0
  183.2260  178.4140  142.5060 C   0  0  0  0  0  3  0  0  0  0  0  0
  185.5860  178.4540  142.9940 C   0  0  0  0  0  0  0  0  0  0  0  0
  185.2840  178.8520  144.3470 C   0  0  0  0  0  3  0  0  0  0  0  0
  181.5680  178.7860  144.1650 O   0  0  0  0  0  0  0  0  0  0  0  0
  180.5310  178.9590  143.2090 C   0  0  0  0  0  1  0  0  0  0  0  0
  187.6910  176.7930  144.3880 C   0  0  0  0  0  2  0  0  0  0  0  0
  188.5390  177.5320  145.4060 C   0  0  0  0  0  2  0  0  0  0  0  0
  191.6500  176.7160  145.9850 O   0  0  0  0  0  1  0  0  0  0  0  0
  190.3250  178.9660  144.4210 O   0  0  0  0  0  1  0  0  0  0  0  0
  191.1020  175.9790  143.8450 O   0  0  0  0  0  0  0  0  0  0  0  0
  190.8800  176.7810  144.9620 C   0  0  0  0  0  0  0  0  0  0  0  0
  189.9170  177.7780  144.9580 N   0  0  0  0  0  0  0  0  0  0  0  0
  188.8070  176.9580  135.9500 C   0  0  0  0  0  2  0  0  0  0  0  0
  187.9080  175.6930  135.7490 C   0  0  2  0  0  3  0  0  0  0  0  0
  186.7310  175.5010  136.6040 N   0  0  0  0  0  2  0  0  0  0  0  0
  186.0620  176.7800  136.8590 C   0  0  0  0  0  2  0  0  0  0  0  0
  184.6540  176.7140  136.2800 C   0  0  0  0  0  2  0  0  0  0  0  0
  183.5160  176.7870  137.2880 C   0  0  0  0  0  2  0  0  0  0  0  0
  183.9230  177.6370  138.4120 N   0  0  0  0  0  2  0  0  0  0  0  0
  181.9190  178.6240  137.4990 C   0  0  0  0  0  1  0  0  0  0  0  0
  182.8470  178.5500  138.7200 C   0  0  0  0  0  3  0  0  0  0  0  0
  183.3400  179.9630  138.9840 C   0  0  0  0  0  1  0  0  0  0  0  0
  188.6570  174.3620  135.5810 C   0  0  0  0  0  2  0  0  0  0  0  0
  189.8590  173.3510  137.4150 O   0  0  0  0  0  1  0  0  0  0  0  0
  188.6090  173.4260  136.8000 C   0  0  2  0  0  3  0  0  0  0  0  0
  188.1540  172.0190  136.4010 C   0  0  0  0  0  1  0  0  0  0  0  0
  1 11  1  0  0  0  0
  2  5  1  0  0  0  0
  3 10  1  0  0  0  0
  4  2  2  0  0  0  0
  4  8  1  0  0  0  0
  5  3  2  0  0  0  0
  5  9  1  0  0  0  0
  6  9  1  0  0  0  0
  6  1  2  0  0  0  0
  7 11  1  0  0  0  0
  7 12  1  0  0  0  0
  8  6  1  0  0  0  0
  9  7  2  0  0  0  0
 10 13  1  0  0  0  0
 10 12  2  0  0  0  0
 13 15  1  0  0  0  0
 14 24  1  0  0  0  0
 15 20  1  0  0  0  0
 15 14  2  0  0  0  0
 17 19  2  0  0  0  0
 17 20  1  0  0  0  0
 18 22  1  0  0  0  0
 18 16  2  0  0  0  0
 19 18  1  0  0  0  0
 20 21  2  0  0  0  0
 21 16  1  0  0  0  0
 23 22  1  0  0  0  0
 24 25  1  0  0  0  0
 27 30  1  0  0  0  0
 28 29  2  0  0  0  0
 29 26  1  0  0  0  0
 30 29  1  0  0  0  0
 30 25  1  0  0  0  0
 31  2  1  0  0  0  0
 32 41  1  1  0  0  0
 32 31  1  0  0  0  0
 32 33  1  0  0  0  0
 33 34  1  0  0  0  0
 35 34  1  0  0  0  0
 35 36  1  0  0  0  0
 36 37  1  0  0  0  0
 37 39  1  0  0  0  0
 38 39  1  0  0  0  0
 39 40  1  0  0  0  0
 41 43  1  0  0  0  0
 43 44  1  6  0  0  0
 43 42  1  0  0  0  0
M  END
>  <MODEL>
5

>  <REMARK>
 VINA RESULT:      -6.9      2.495      7.164
  Name = 
  17 active torsions:
  status: ('A' for Active; 'I' for Inactive)
    1  A    between atoms: C_3  and  C_12
    2  A    between atoms: C_3  and  C_16
    3  A    between atoms: C_5  and  C_6
    4  A    between atoms: C_5  and  C_12
    5  A    between atoms: C_9  and  C_33
    6  A    between atoms: C_9  and  N_40
    7  A    between atoms: C_11  and  O_25
    8  A    between atoms: C_12  and  N_40
    9  A    between atoms: C_17  and  N_32
   10  A    between atoms: C_21  and  C_35
   11  A    between atoms: C_21  and  C_42
   12  A    between atoms: C_22  and  C_41
   13  A    between atoms: C_28  and  C_35
   14  A    between atoms: C_31  and  N_39
   15  A    between atoms: C_31  and  C_41
   16  A    between atoms: N_32  and  C_37
   17  A    between atoms: C_33  and  C_37
                            x       y       z     vdW  Elec       q    Type
                         _______ _______ _______ _____ _____    ______ ____

>  <TORSDO>
F 17

$$$$
=
 OpenBabel11062415523D

 44 47  0  0  1  0  0  0  0  0999 V2000
  190.6800  173.7780  136.3670 N   0  0  0  0  0  0  0  0  0  0  0  0
  189.9000  176.9470  138.8260 C   0  0  0  0  0  0  0  0  0  0  0  0
  187.8240  177.1040  137.2320 C   0  0  0  0  0  3  0  0  0  0  0  0
  190.9240  176.2220  139.1190 N   0  0  0  0  0  0  0  0  0  0  0  0
  189.0410  176.6290  137.6260 C   0  0  0  0  0  0  0  0  0  0  0  0
  190.5970  174.8450  137.1830 C   0  0  0  0  0  0  0  0  0  0  0  0
  188.9390  174.9590  135.8620 C   0  0  0  0  0  0  0  0  0  0  0  0
  191.3620  175.1450  138.3420 N   0  0  0  0  0  2  0  0  0  0  0  0
  189.5300  175.5700  136.8790 C   0  0  0  0  0  0  0  0  0  0  0  0
  187.1790  176.6470  136.0270 C   0  0  0  0  0  0  0  0  0  0  0  0
  189.6030  173.8900  135.5200 N   0  0  0  0  0  2  0  0  0  0  0  0
  187.7040  175.5020  135.3700 C   0  0  0  0  0  3  0  0  0  0  0  0
  185.7250  177.1170  135.7930 C   0  0  0  0  0  2  0  0  0  0  0  0
  183.8650  177.2280  137.2400 C   0  0  0  0  0  3  0  0  0  0  0  0
  184.5540  176.3870  136.3730 C   0  0  0  0  0  0  0  0  0  0  0  0
  184.7240  172.7590  137.5640 C   0  0  0  0  0  3  0  0  0  0  0  0
  183.3190  174.3770  135.7790 C   0  0  0  0  0  3  0  0  0  0  0  0
  183.7140  172.1950  136.7330 C   0  0  0  0  0  0  0  0  0  0  0  0
  183.0140  173.0290  135.8690 C   0  0  0  0  0  3  0  0  0  0  0  0
  184.3340  174.9380  136.5180 C   0  0  0  0  0  0  0  0  0  0  0  0
  185.0250  174.1130  137.4800 C   0  0  0  0  0  3  0  0  0  0  0  0
  183.3890  170.8540  136.7440 O   0  0  0  0  0  0  0  0  0  0  0  0
  183.9050  169.9230  135.8020 C   0  0  0  0  0  1  0  0  0  0  0  0
  182.7270  176.9450  138.1070 C   0  0  0  0  0  2  0  0  0  0  0  0
  183.1530  177.0820  139.5560 C   0  0  0  0  0  2  0  0  0  0  0  0
  184.8020  179.3260  141.2660 O   0  0  0  0  0  1  0  0  0  0  0  0
  181.8930  179.0570  140.4100 O   0  0  0  0  0  1  0  0  0  0  0  0
  184.5360  180.1310  139.0970 O   0  0  0  0  0  0  0  0  0  0  0  0
  184.1850  179.2800  140.1430 C   0  0  0  0  0  0  0  0  0  0  0  0
  183.0720  178.4580  140.0670 N   0  0  0  0  0  0  0  0  0  0  0  0
  189.4540  177.9760  139.8370 C   0  0  0  0  0  2  0  0  0  0  0  0
  189.6090  177.5440  141.3330 C   0  0  2  0  0  3  0  0  0  0  0  0
  188.6840  178.0790  142.3390 N   0  0  0  0  0  2  0  0  0  0  0  0
  187.5830  177.1410  142.5790 C   0  0  0  0  0  2  0  0  0  0  0  0
  187.6490  176.6790  144.0300 C   0  0  0  0  0  2  0  0  0  0  0  0
  186.8280  177.4880  145.0250 C   0  0  0  0  0  2  0  0  0  0  0  0
  185.7170  178.1350  144.3170 N   0  0  0  0  0  2  0  0  0  0  0  0
  185.3890  178.6280  146.6570 C   0  0  0  0  0  1  0  0  0  0  0  0
  185.0640  179.0550  145.2190 C   0  0  0  0  0  3  0  0  0  0  0  0
  183.5500  179.0260  145.0840 C   0  0  0  0  0  1  0  0  0  0  0  0
  191.0430  177.5480  141.8840 C   0  0  0  0  0  2  0  0  0  0  0  0
  192.0030  178.4360  143.9140 O   0  0  0  0  0  1  0  0  0  0  0  0
  191.1560  177.4460  143.4130 C   0  0  2  0  0  3  0  0  0  0  0  0
  191.6750  176.0700  143.8410 C   0  0  0  0  0  1  0  0  0  0  0  0
  1  6  2  0  0  0  0
  2  4  2  0  0  0  0
  2 31  1  0  0  0  0
  3  5  1  0  0  0  0
  5  2  1  0  0  0  0
  6  8  1  0  0  0  0
  7  9  1  0  0  0  0
  8  4  1  0  0  0  0
  9  6  1  0  0  0  0
  9  5  2  0  0  0  0
 10  3  2  0  0  0  0
 11  7  1  0  0  0  0
 11  1  1  0  0  0  0
 12  7  2  0  0  0  0
 12 10  1  0  0  0  0
 13 10  1  0  0  0  0
 13 15  1  0  0  0  0
 14 24  1  0  0  0  0
 15 20  1  0  0  0  0
 15 14  2  0  0  0  0
 17 19  2  0  0  0  0
 17 20  1  0  0  0  0
 18 22  1  0  0  0  0
 18 16  2  0  0  0  0
 19 18  1  0  0  0  0
 20 21  2  0  0  0  0
 21 16  1  0  0  0  0
 23 22  1  0  0  0  0
 24 25  1  0  0  0  0
 25 30  1  0  0  0  0
 28 29  2  0  0  0  0
 29 26  1  0  0  0  0
 30 29  1  0  0  0  0
 30 27  1  0  0  0  0
 32 31  1  6  0  0  0
 32 41  1  0  0  0  0
 32 33  1  0  0  0  0
 33 34  1  0  0  0  0
 34 35  1  0  0  0  0
 35 36  1  0  0  0  0
 37 36  1  0  0  0  0
 37 39  1  0  0  0  0
 39 38  1  0  0  0  0
 40 39  1  0  0  0  0
 41 43  1  0  0  0  0
 43 44  1  6  0  0  0
 43 42  1  0  0  0  0
M  END
>  <MODEL>
6

>  <REMARK>
 VINA RESULT:      -6.8      2.890      9.281
  Name = 
  17 active torsions:
  status: ('A' for Active; 'I' for Inactive)
    1  A    between atoms: C_3  and  C_12
    2  A    between atoms: C_3  and  C_16
    3  A    between atoms: C_5  and  C_6
    4  A    between atoms: C_5  and  C_12
    5  A    between atoms: C_9  and  C_33
    6  A    between atoms: C_9  and  N_40
    7  A    between atoms: C_11  and  O_25
    8  A    between atoms: C_12  and  N_40
    9  A    between atoms: C_17  and  N_32
   10  A    between atoms: C_21  and  C_35
   11  A    between atoms: C_21  and  C_42
   12  A    between atoms: C_22  and  C_41
   13  A    between atoms: C_28  and  C_35
   14  A    between atoms: C_31  and  N_39
   15  A    between atoms: C_31  and  C_41
   16  A    between atoms: N_32  and  C_37
   17  A    between atoms: C_33  and  C_37
                            x       y       z     vdW  Elec       q    Type
                         _______ _______ _______ _____ _____    ______ ____

>  <TORSDO>
F 17

$$$$
=
 OpenBabel11062415523D

 44 47  0  0  1  0  0  0  0  0999 V2000
  187.0980  178.6460  137.4500 N   0  0  0  0  0  0  0  0  0  0  0  0
  190.6950  176.8570  138.1950 C   0  0  0  0  0  0  0  0  0  0  0  0
  189.6780  176.8250  140.6110 C   0  0  0  0  0  3  0  0  0  0  0  0
  190.4260  177.1330  136.9650 N   0  0  0  0  0  0  0  0  0  0  0  0
  189.7170  177.1880  139.2970 C   0  0  0  0  0  0  0  0  0  0  0  0
  188.3480  178.1640  137.5730 C   0  0  0  0  0  0  0  0  0  0  0  0
  187.5060  178.1730  139.5210 C   0  0  0  0  0  0  0  0  0  0  0  0
  189.2700  177.8030  136.5530 N   0  0  0  0  0  2  0  0  0  0  0  0
  188.6020  177.8700  138.8400 C   0  0  0  0  0  0  0  0  0  0  0  0
  188.6290  177.2670  141.4950 C   0  0  0  0  0  0  0  0  0  0  0  0
  186.5880  178.6510  138.7270 N   0  0  0  0  0  2  0  0  0  0  0  0
  187.4820  177.8860  140.9280 C   0  0  0  0  0  3  0  0  0  0  0  0
  188.5920  176.6340  142.9040 C   0  0  0  0  0  2  0  0  0  0  0  0
  188.9900  177.2200  145.1550 C   0  0  0  0  0  3  0  0  0  0  0  0
  188.1010  177.3890  144.1000 C   0  0  0  0  0  0  0  0  0  0  0  0
  184.9440  178.4220  145.9920 C   0  0  0  0  0  3  0  0  0  0  0  0
  185.9410  178.2580  143.3920 C   0  0  0  0  0  3  0  0  0  0  0  0
  184.1220  178.7900  144.8880 C   0  0  0  0  0  0  0  0  0  0  0  0
  184.6530  178.7210  143.6050 C   0  0  0  0  0  3  0  0  0  0  0  0
  186.7350  177.8300  144.4310 C   0  0  0  0  0  0  0  0  0  0  0  0
  186.2390  177.9650  145.7790 C   0  0  0  0  0  3  0  0  0  0  0  0
  182.8180  179.2210  145.0270 O   0  0  0  0  0  0  0  0  0  0  0  0
  181.7730  178.8220  144.1520 C   0  0  0  0  0  1  0  0  0  0  0  0
  188.8960  177.6740  146.5370 C   0  0  0  0  0  2  0  0  0  0  0  0
  189.6970  176.7430  147.4270 C   0  0  0  0  0  2  0  0  0  0  0  0
  192.0550  175.5990  145.4740 O   0  0  0  0  0  1  0  0  0  0  0  0
  192.0600  176.9940  148.1800 O   0  0  0  0  0  1  0  0  0  0  0  0
  191.9340  177.9070  145.1780 O   0  0  0  0  0  0  0  0  0  0  0  0
  191.6790  176.7470  145.9070 C   0  0  0  0  0  0  0  0  0  0  0  0
  191.1460  176.7960  147.1850 N   0  0  0  0  0  0  0  0  0  0  0  0
  191.9030  175.9940  138.4750 C   0  0  0  0  0  2  0  0  0  0  0  0
  192.1010  174.7940  137.4900 C   0  0  2  0  0  3  0  0  0  0  0  0
  191.0260  173.8080  137.3290 N   0  0  0  0  0  2  0  0  0  0  0  0
  190.6450  173.6840  135.9190 C   0  0  0  0  0  2  0  0  0  0  0  0
  189.4500  172.7430  135.8220 C   0  0  0  0  0  2  0  0  0  0  0  0
  188.0890  173.3630  136.1040 C   0  0  0  0  0  2  0  0  0  0  0  0
  187.4240  172.6010  137.1670 N   0  0  0  0  0  2  0  0  0  0  0  0
  185.0190  172.6410  136.9730 C   0  0  0  0  0  1  0  0  0  0  0  0
  186.2470  173.3230  137.5910 C   0  0  0  0  0  3  0  0  0  0  0  0
  186.2410  174.7630  137.1050 C   0  0  0  0  0  1  0  0  0  0  0  0
  193.4600  174.0820  137.5720 C   0  0  0  0  0  2  0  0  0  0  0  0
  195.5470  175.2510  137.2490 O   0  0  0  0  0  1  0  0  0  0  0  0
  194.5210  174.5840  136.5800 C   0  0  2  0  0  3  0  0  0  0  0  0
  193.9040  175.5190  135.5340 C   0  0  0  0  0  1  0  0  0  0  0  0
  1  6  2  0  0  0  0
  1 11  1  0  0  0  0
  2 31  1  0  0  0  0
  2  5  1  0  0  0  0
  3 10  1  0  0  0  0
  4  2  2  0  0  0  0
  5  3  2  0  0  0  0
  6  9  1  0  0  0  0
  7 12  1  0  0  0  0
  8  4  1  0  0  0  0
  8  6  1  0  0  0  0
  9  5  1  0  0  0  0
  9  7  2  0  0  0  0
 10 13  1  0  0  0  0
 11  7  1  0  0  0  0
 12 10  2  0  0  0  0
 13 15  1  0  0  0  0
 14 24  1  0  0  0  0
 15 20  1  0  0  0  0
 15 14  2  0  0  0  0
 17 19  2  0  0  0  0
 17 20  1  0  0  0  0
 18 22  1  0  0  0  0
 18 16  2  0  0  0  0
 19 18  1  0  0  0  0
 20 21  2  0  0  0  0
 21 16  1  0  0  0  0
 23 22  1  0  0  0  0
 24 25  1  0  0  0  0
 26 29  1  0  0  0  0
 28 29  2  0  0  0  0
 29 30  1  0  0  0  0
 30 25  1  0  0  0  0
 30 27  1  0  0  0  0
 32 41  1  1  0  0  0
 32 31  1  0  0  0  0
 33 32  1  0  0  0  0
 34 33  1  0  0  0  0
 35 34  1  0  0  0  0
 35 36  1  0  0  0  0
 36 37  1  0  0  0  0
 37 39  1  0  0  0  0
 38 39  1  0  0  0  0
 40 39  1  0  0  0  0
 43 44  1  6  0  0  0
 43 42  1  0  0  0  0
 43 41  1  0  0  0  0
M  END
>  <MODEL>
7

>  <REMARK>
 VINA RESULT:      -6.7      3.333      7.330
  Name = 
  17 active torsions:
  status: ('A' for Active; 'I' for Inactive)
    1  A    between atoms: C_3  and  C_12
    2  A    between atoms: C_3  and  C_16
    3  A    between atoms: C_5  and  C_6
    4  A    between atoms: C_5  and  C_12
    5  A    between atoms: C_9  and  C_33
    6  A    between atoms: C_9  and  N_40
    7  A    between atoms: C_11  and  O_25
    8  A    between atoms: C_12  and  N_40
    9  A    between atoms: C_17  and  N_32
   10  A    between atoms: C_21  and  C_35
   11  A    between atoms: C_21  and  C_42
   12  A    between atoms: C_22  and  C_41
   13  A    between atoms: C_28  and  C_35
   14  A    between atoms: C_31  and  N_39
   15  A    between atoms: C_31  and  C_41
   16  A    between atoms: N_32  and  C_37
   17  A    between atoms: C_33  and  C_37
                            x       y       z     vdW  Elec       q    Type
                         _______ _______ _______ _____ _____    ______ ____

>  <TORSDO>
F 17

$$$$
=
 OpenBabel11062415523D

 44 47  0  0  1  0  0  0  0  0999 V2000
  192.2440  176.0160  136.4210 N   0  0  0  0  0  0  0  0  0  0  0  0
  188.2860  176.5880  135.5820 C   0  0  0  0  0  0  0  0  0  0  0  0
  188.3270  177.3880  138.0780 C   0  0  0  0  0  3  0  0  0  0  0  0
  189.0390  176.2060  134.6070 N   0  0  0  0  0  0  0  0  0  0  0  0
  188.8560  176.8060  136.9630 C   0  0  0  0  0  0  0  0  0  0  0  0
  190.9530  176.0610  136.0430 C   0  0  0  0  0  0  0  0  0  0  0  0
  191.0150  176.6820  138.0730 C   0  0  0  0  0  0  0  0  0  0  0  0
  190.3970  175.9040  134.7450 N   0  0  0  0  0  2  0  0  0  0  0  0
  190.1970  176.4720  137.0510 C   0  0  0  0  0  0  0  0  0  0  0  0
  189.0680  177.4890  139.3100 C   0  0  0  0  0  0  0  0  0  0  0  0
  192.2460  176.4080  137.7390 N   0  0  0  0  0  2  0  0  0  0  0  0
  190.4600  177.2030  139.2890 C   0  0  0  0  0  3  0  0  0  0  0  0
  188.4340  178.3370  140.4370 C   0  0  0  0  0  2  0  0  0  0  0  0
  186.9310  178.0430  142.2310 C   0  0  0  0  0  3  0  0  0  0  0  0
  188.2350  177.7970  141.8180 C   0  0  0  0  0  0  0  0  0  0  0  0
  190.4750  178.0460  144.9050 C   0  0  0  0  0  3  0  0  0  0  0  0
  189.8010  176.2610  142.8710 C   0  0  0  0  0  3  0  0  0  0  0  0
  191.0990  176.7670  144.8430 C   0  0  0  0  0  0  0  0  0  0  0  0
  190.7260  175.8880  143.8320 C   0  0  0  0  0  3  0  0  0  0  0  0
  189.2330  177.5130  142.8640 C   0  0  0  0  0  0  0  0  0  0  0  0
  189.5410  178.4170  143.9460 C   0  0  0  0  0  3  0  0  0  0  0  0
  192.0570  176.3490  145.7440 O   0  0  0  0  0  0  0  0  0  0  0  0
  191.7550  175.9880  147.0850 C   0  0  0  0  0  1  0  0  0  0  0  0
  186.2960  177.7950  143.5200 C   0  0  0  0  0  2  0  0  0  0  0  0
  185.3210  178.9160  143.8240 C   0  0  0  0  0  2  0  0  0  0  0  0
  185.7350  177.5460  146.7620 O   0  0  0  0  0  0  0  0  0  0  0  0
  183.4150  178.9980  145.4290 O   0  0  0  0  0  1  0  0  0  0  0  0
  185.9970  179.8480  147.0010 O   0  0  0  0  0  1  0  0  0  0  0  0
  185.5440  178.7290  146.3050 C   0  0  0  0  0  0  0  0  0  0  0  0
  184.7490  178.8500  145.1770 N   0  0  0  0  0  0  0  0  0  0  0  0
  186.8790  177.0280  135.2530 C   0  0  0  0  0  2  0  0  0  0  0  0
  185.7530  176.0560  135.7380 C   0  0  2  0  0  3  0  0  0  0  0  0
  185.2170  176.1920  137.0970 N   0  0  0  0  0  2  0  0  0  0  0  0
  183.7520  176.1630  137.0810 C   0  0  0  0  0  2  0  0  0  0  0  0
  183.2650  175.5860  138.4050 C   0  0  0  0  0  2  0  0  0  0  0  0
  182.3370  176.4770  139.2180 C   0  0  0  0  0  2  0  0  0  0  0  0
  182.2220  177.7820  138.5580 N   0  0  0  0  0  2  0  0  0  0  0  0
  182.7190  180.1260  138.8400 C   0  0  0  0  0  1  0  0  0  0  0  0
  182.3430  178.8200  139.5540 C   0  0  0  0  0  3  0  0  0  0  0  0
  183.4460  178.5360  140.5600 C   0  0  0  0  0  1  0  0  0  0  0  0
  185.9620  174.5710  135.4020 C   0  0  0  0  0  2  0  0  0  0  0  0
  187.5650  173.1090  136.4610 O   0  0  0  0  0  1  0  0  0  0  0  0
  186.2960  173.6710  136.6020 C   0  0  2  0  0  3  0  0  0  0  0  0
  185.2600  172.5530  136.7620 C   0  0  0  0  0  1  0  0  0  0  0  0
  1 11  1  0  0  0  0
  2  5  1  0  0  0  0
  3 10  1  0  0  0  0
  4  8  1  0  0  0  0
  4  2  2  0  0  0  0
  5  9  1  0  0  0  0
  5  3  2  0  0  0  0
  6  1  2  0  0  0  0
  6  9  1  0  0  0  0
  7 12  1  0  0  0  0
  8  6  1  0  0  0  0
  9  7  2  0  0  0  0
 10 13  1  0  0  0  0
 11  7  1  0  0  0  0
 12 10  2  0  0  0  0
 13 15  1  0  0  0  0
 14 24  1  0  0  0  0
 15 14  2  0  0  0  0
 15 20  1  0  0  0  0
 17 19  1  0  0  0  0
 18 16  1  0  0  0  0
 18 22  1  0  0  0  0
 19 18  2  0  0  0  0
 20 17  2  0  0  0  0
 20 21  1  0  0  0  0
 21 16  2  0  0  0  0
 22 23  1  0  0  0  0
 24 25  1  0  0  0  0
 25 30  1  0  0  0  0
 29 26  2  0  0  0  0
 29 28  1  0  0  0  0
 30 27  1  0  0  0  0
 30 29  1  0  0  0  0
 31  2  1  0  0  0  0
 32 31  1  1  0  0  0
 32 33  1  0  0  0  0
 34 33  1  0  0  0  0
 34 35  1  0  0  0  0
 35 36  1  0  0  0  0
 37 36  1  0  0  0  0
 37 39  1  0  0  0  0
 38 39  1  0  0  0  0
 39 40  1  0  0  0  0
 41 32  1  0  0  0  0
 41 43  1  0  0  0  0
 42 43  1  0  0  0  0
 43 44  1  6  0  0  0
M  END
>  <MODEL>
8

>  <REMARK>
 VINA RESULT:      -6.6      2.621      7.340
  Name = 
  17 active torsions:
  status: ('A' for Active; 'I' for Inactive)
    1  A    between atoms: C_3  and  C_12
    2  A    between atoms: C_3  and  C_16
    3  A    between atoms: C_5  and  C_6
    4  A    between atoms: C_5  and  C_12
    5  A    between atoms: C_9  and  C_33
    6  A    between atoms: C_9  and  N_40
    7  A    between atoms: C_11  and  O_25
    8  A    between atoms: C_12  and  N_40
    9  A    between atoms: C_17  and  N_32
   10  A    between atoms: C_21  and  C_35
   11  A    between atoms: C_21  and  C_42
   12  A    between atoms: C_22  and  C_41
   13  A    between atoms: C_28  and  C_35
   14  A    between atoms: C_31  and  N_39
   15  A    between atoms: C_31  and  C_41
   16  A    between atoms: N_32  and  C_37
   17  A    between atoms: C_33  and  C_37
                            x       y       z     vdW  Elec       q    Type
                         _______ _______ _______ _____ _____    ______ ____

>  <TORSDO>
F 17

$$$$
=
 OpenBabel11062415523D

 44 47  0  0  1  0  0  0  0  0999 V2000
  184.2650  178.7210  146.0950 N   0  0  0  0  0  0  0  0  0  0  0  0
  182.5600  178.9050  142.3860 C   0  0  0  0  0  0  0  0  0  0  0  0
  185.0500  178.4460  141.7040 C   0  0  0  0  0  3  0  0  0  0  0  0
  181.7650  178.9870  143.3960 N   0  0  0  0  0  0  0  0  0  0  0  0
  184.0500  178.7510  142.5800 C   0  0  0  0  0  0  0  0  0  0  0  0
  183.5970  178.9040  144.9410 C   0  0  0  0  0  0  0  0  0  0  0  0
  185.6260  178.5540  144.4210 C   0  0  0  0  0  0  0  0  0  0  0  0
  182.1960  179.0070  144.7260 N   0  0  0  0  0  2  0  0  0  0  0  0
  184.4260  178.8000  143.9120 C   0  0  0  0  0  0  0  0  0  0  0  0
  186.4270  178.3500  142.1210 C   0  0  0  0  0  0  0  0  0  0  0  0
  185.5720  178.5120  145.7240 N   0  0  0  0  0  2  0  0  0  0  0  0
  186.7130  178.3260  143.5120 C   0  0  0  0  0  3  0  0  0  0  0  0
  187.4330  177.8120  141.0790 C   0  0  0  0  0  2  0  0  0  0  0  0
  189.5810  177.6560  140.1150 C   0  0  0  0  0  3  0  0  0  0  0  0
  188.9100  177.8330  141.3190 C   0  0  0  0  0  0  0  0  0  0  0  0
  190.6820  176.0730  144.2130 C   0  0  0  0  0  3  0  0  0  0  0  0
  190.2330  178.6320  143.1990 C   0  0  0  0  0  3  0  0  0  0  0  0
  191.2020  177.2110  144.8930 C   0  0  0  0  0  0  0  0  0  0  0  0
  190.9840  178.4730  144.3530 C   0  0  0  0  0  3  0  0  0  0  0  0
  189.6600  177.5590  142.5580 C   0  0  0  0  0  0  0  0  0  0  0  0
  189.9360  176.2310  143.0520 C   0  0  0  0  0  3  0  0  0  0  0  0
  191.9220  177.1260  146.0680 O   0  0  0  0  0  0  0  0  0  0  0  0
  191.7550  176.0710  147.0040 C   0  0  0  0  0  1  0  0  0  0  0  0
  191.0080  177.5100  139.8530 C   0  0  0  0  0  2  0  0  0  0  0  0
  191.2180  176.4380  138.8010 C   0  0  0  0  0  2  0  0  0  0  0  0
  193.3920  174.3340  137.5620 O   0  0  0  0  0  1  0  0  0  0  0  0
  193.6270  177.0790  138.8580 O   0  0  0  0  0  1  0  0  0  0  0  0
  193.0170  175.9970  135.9740 O   0  0  0  0  0  0  0  0  0  0  0  0
  192.9710  175.5130  137.2800 C   0  0  0  0  0  0  0  0  0  0  0  0
  192.6110  176.3260  138.3430 N   0  0  0  0  0  0  0  0  0  0  0  0
  181.9440  178.7370  141.0170 C   0  0  0  0  0  2  0  0  0  0  0  0
  180.4840  179.2830  140.8780 C   0  0  2  0  0  3  0  0  0  0  0  0
  179.3800  178.3430  140.6540 N   0  0  0  0  0  2  0  0  0  0  0  0
  179.6570  177.0560  141.2990 C   0  0  0  0  0  2  0  0  0  0  0  0
  179.3150  175.9400  140.3190 C   0  0  0  0  0  2  0  0  0  0  0  0
  180.5000  175.2000  139.7140 C   0  0  0  0  0  2  0  0  0  0  0  0
  180.6620  175.6130  138.3160 N   0  0  0  0  0  2  0  0  0  0  0  0
  183.0060  176.0140  138.7240 C   0  0  0  0  0  1  0  0  0  0  0  0
  181.9860  175.2470  137.8720 C   0  0  0  0  0  3  0  0  0  0  0  0
  182.2430  175.6330  136.4250 C   0  0  0  0  0  1  0  0  0  0  0  0
  180.3160  180.5160  139.9760 C   0  0  0  0  0  2  0  0  0  0  0  0
  181.3870  179.1120  138.3290 O   0  0  0  0  0  1  0  0  0  0  0  0
  181.0190  180.4280  138.6120 C   0  0  2  0  0  3  0  0  0  0  0  0
  182.2620  181.3230  138.5710 C   0  0  0  0  0  1  0  0  0  0  0  0
  2  5  1  0  0  0  0
  2  4  2  0  0  0  0
  3 10  2  0  0  0  0
  3  5  1  0  0  0  0
  4  8  1  0  0  0  0
  5  9  2  0  0  0  0
  6  1  2  0  0  0  0
  7 11  1  0  0  0  0
  8  6  1  0  0  0  0
  9  7  1  0  0  0  0
  9  6  1  0  0  0  0
 10 12  1  0  0  0  0
 11  1  1  0  0  0  0
 12  7  2  0  0  0  0
 13 15  1  0  0  0  0
 13 10  1  0  0  0  0
 14 15  2  0  0  0  0
 15 20  1  0  0  0  0
 16 18  1  0  0  0  0
 17 19  1  0  0  0  0
 18 22  1  0  0  0  0
 19 18  2  0  0  0  0
 20 21  1  0  0  0  0
 20 17  2  0  0  0  0
 21 16  2  0  0  0  0
 22 23  1  0  0  0  0
 24 14  1  0  0  0  0
 25 24  1  0  0  0  0
 28 29  2  0  0  0  0
 29 26  1  0  0  0  0
 29 30  1  0  0  0  0
 30 25  1  0  0  0  0
 30 27  1  0  0  0  0
 31  2  1  0  0  0  0
 32 41  1  6  0  0  0
 32 31  1  0  0  0  0
 33 32  1  0  0  0  0
 33 34  1  0  0  0  0
 35 34  1  0  0  0  0
 36 35  1  0  0  0  0
 37 36  1  0  0  0  0
 39 37  1  0  0  0  0
 39 38  1  0  0  0  0
 40 39  1  0  0  0  0
 42 43  1  0  0  0  0
 43 44  1  1  0  0  0
 43 41  1  0  0  0  0
M  END
>  <MODEL>
9

>  <REMARK>
 VINA RESULT:      -6.4      2.525      5.101
  Name = 
  17 active torsions:
  status: ('A' for Active; 'I' for Inactive)
    1  A    between atoms: C_3  and  C_12
    2  A    between atoms: C_3  and  C_16
    3  A    between atoms: C_5  and  C_6
    4  A    between atoms: C_5  and  C_12
    5  A    between atoms: C_9  and  C_33
    6  A    between atoms: C_9  and  N_40
    7  A    between atoms: C_11  and  O_25
    8  A    between atoms: C_12  and  N_40
    9  A    between atoms: C_17  and  N_32
   10  A    between atoms: C_21  and  C_35
   11  A    between atoms: C_21  and  C_42
   12  A    between atoms: C_22  and  C_41
   13  A    between atoms: C_28  and  C_35
   14  A    between atoms: C_31  and  N_39
   15  A    between atoms: C_31  and  C_41
   16  A    between atoms: N_32  and  C_37
   17  A    between atoms: C_33  and  C_37
                            x       y       z     vdW  Elec       q    Type
                         _______ _______ _______ _____ _____    ______ ____

>  <TORSDO>
F 17

$$$$
