=
 OpenBabel11062417143D

 36 40  0  0  1  0  0  0  0  0999 V2000
  186.1350  178.5450  138.7400 C   0  0  1  0  0  3  0  0  0  0  0  0
  187.8960  177.0630  138.1990 C   0  0  1  0  0  3  0  0  0  0  0  0
  189.2750  177.8210  139.9500 C   0  0  2  0  0  3  0  0  0  0  0  0
  189.1320  178.9540  136.9660 C   0  0  0  0  0  1  0  0  0  0  0  0
  186.2650  177.6490  136.4140 C   0  0  0  0  0  2  0  0  0  0  0  0
  189.2030  177.5540  137.5680 C   0  0  0  0  0  0  0  0  0  0  0  0
  187.9010  177.4480  139.6070 N   0  0  1  0  0  0  0  0  0  0  0  0
  187.1290  178.5760  139.7490 O   0  0  0  0  0  0  0  0  0  0  0  0
  189.6860  176.5700  136.5230 C   0  0  0  0  0  1  0  0  0  0  0  0
  186.6570  177.6520  137.6880 C   0  0  0  0  0  0  0  0  0  0  0  0
  190.1530  177.5780  138.7320 C   0  0  0  0  0  2  0  0  0  0  0  0
  189.1330  176.0080  143.2960 N   0  0  0  0  0  2  0  0  0  0  0  0
  191.4130  176.9180  143.0350 C   0  0  0  0  0  2  0  0  0  0  0  0
  190.9550  177.7090  141.8130 C   0  0  0  0  0  2  0  0  0  0  0  0
  190.2430  176.6680  143.9990 C   0  0  1  0  0  3  0  0  0  0  0  0
  188.6650  176.8370  142.1830 C   0  0  0  0  0  2  0  0  0  0  0  0
  189.7740  177.0070  141.1450 C   0  0  1  0  0  3  0  0  0  0  0  0
  189.7910  177.9440  144.7360 C   0  0  2  0  0  3  0  0  0  0  0  0
  190.6280  179.0060  144.3810 O   0  0  0  0  0  1  0  0  0  0  0  0
  190.4880  176.5820  146.6050 O   0  0  0  0  0  1  0  0  0  0  0  0
  189.8190  177.7580  146.2590 C   0  0  2  0  0  3  0  0  0  0  0  0
  187.3860  177.6510  146.0270 C   0  0  0  0  0  2  0  0  0  0  0  0
  188.4360  177.7240  146.8390 C   0  0  0  0  0  0  0  0  0  0  0  0
  188.2200  177.8070  148.3140 C   0  0  0  0  0  1  0  0  0  0  0  0
  184.8110  178.0310  139.3180 C   0  0  2  0  0  3  0  0  0  0  0  0
  183.9740  177.3620  138.2390 C   0  0  0  0  0  1  0  0  0  0  0  0
  184.0150  179.1830  139.9170 C   0  0  0  0  0  2  0  0  0  0  0  0
  180.4490  178.6200  142.7200 C   0  0  0  0  0  3  0  0  0  0  0  0
  182.6380  178.7870  143.3990 C   0  0  0  0  0  0  0  0  0  0  0  0
  181.3320  178.7930  141.4640 C   0  0  0  0  0  3  0  0  0  0  0  0
  181.3420  178.6300  143.8340 O   0  0  0  0  0  0  0  0  0  0  0  0
  185.0100  179.0140  143.5290 C   0  0  0  0  0  3  0  0  0  0  0  0
  183.9270  179.0480  141.4010 C   0  0  0  0  0  0  0  0  0  0  0  0
  185.0570  179.1130  142.1660 N   0  0  0  0  0  0  0  0  0  0  0  0
  182.6980  178.8860  142.0420 C   0  0  0  0  0  0  0  0  0  0  0  0
  183.7820  178.8450  144.1880 C   0  0  0  0  0  3  0  0  0  0  0  0
  1 25  1  1  0  0  0
  1  8  1  0  0  0  0
  2 10  1  6  0  0  0
  2  7  1  0  0  0  0
  3 11  1  6  0  0  0
  3 17  1  0  0  0  0
  4  6  1  0  0  0  0
  5 10  2  0  0  0  0
  6  2  1  0  0  0  0
  6 11  1  0  0  0  0
  7  8  1  6  0  0  0
  7  3  1  0  0  0  0
  9  6  1  0  0  0  0
 10  1  1  0  0  0  0
 12 15  1  0  0  0  0
 13 15  1  0  0  0  0
 14 13  1  0  0  0  0
 15 18  1  6  0  0  0
 16 12  1  0  0  0  0
 17 14  1  1  0  0  0
 17 16  1  0  0  0  0
 18 19  1  1  0  0  0
 18 21  1  0  0  0  0
 21 20  1  6  0  0  0
 21 23  1  0  0  0  0
 22 23  2  0  0  0  0
 23 24  1  0  0  0  0
 25 26  1  6  0  0  0
 25 27  1  0  0  0  0
 27 33  1  0  0  0  0
 28 31  1  0  0  0  0
 29 31  1  0  0  0  0
 29 36  1  0  0  0  0
 30 35  1  0  0  0  0
 30 28  2  0  0  0  0
 32 36  2  0  0  0  0
 33 35  1  0  0  0  0
 33 34  2  0  0  0  0
 34 32  1  0  0  0  0
 35 29  2  0  0  0  0
M  END
>  <MODEL>
1

>  <REMARK>
 VINA RESULT:      -9.1      0.000      0.000
  Name = 
  7 active torsions:
  status: ('A' for Active; 'I' for Inactive)
    1  A    between atoms: C_2  and  C_21
    2  A    between atoms: C_2  and  C_35
    3  A    between atoms: C_3  and  C_13
    4  A    between atoms: C_7  and  C_35
    5  A    between atoms: C_9  and  C_26
    6  A    between atoms: C_13  and  C_16
    7  A    between atoms: C_16  and  C_23
                            x       y       z     vdW  Elec       q    Type
                         _______ _______ _______ _____ _____    ______ ____

>  <TORSDO>
F 7

$$$$
=
 OpenBabel11062417143D

 36 40  0  0  1  0  0  0  0  0999 V2000
  185.8680  178.5190  138.3820 C   0  0  1  0  0  3  0  0  0  0  0  0
  187.8180  177.2300  138.0270 C   0  0  1  0  0  3  0  0  0  0  0  0
  188.8300  177.9290  140.0350 C   0  0  2  0  0  3  0  0  0  0  0  0
  189.0600  179.3140  137.1650 C   0  0  0  0  0  1  0  0  0  0  0  0
  186.4450  177.8500  136.0470 C   0  0  0  0  0  2  0  0  0  0  0  0
  189.1600  177.8740  137.6610 C   0  0  0  0  0  0  0  0  0  0  0  0
  187.5660  177.4860  139.4420 N   0  0  1  0  0  0  0  0  0  0  0  0
  186.6830  178.5350  139.5400 O   0  0  0  0  0  0  0  0  0  0  0  0
  189.8880  177.0280  136.6370 C   0  0  0  0  0  1  0  0  0  0  0  0
  186.6290  177.7680  137.3660 C   0  0  0  0  0  0  0  0  0  0  0  0
  189.9070  177.8650  138.9630 C   0  0  0  0  0  2  0  0  0  0  0  0
  188.4560  176.2190  143.4170 N   0  0  0  0  0  2  0  0  0  0  0  0
  190.8570  176.6750  143.0720 C   0  0  0  0  0  2  0  0  0  0  0  0
  190.5180  177.5230  141.8490 C   0  0  0  0  0  2  0  0  0  0  0  0
  189.6930  176.6650  144.0740 C   0  0  1  0  0  3  0  0  0  0  0  0
  188.1170  177.1080  142.3030 C   0  0  0  0  0  2  0  0  0  0  0  0
  189.2040  177.0510  141.2300 C   0  0  1  0  0  3  0  0  0  0  0  0
  189.5160  178.0120  144.8000 C   0  0  2  0  0  3  0  0  0  0  0  0
  190.5160  178.8980  144.3860 O   0  0  0  0  0  1  0  0  0  0  0  0
  190.2970  176.7000  146.6720 O   0  0  0  0  0  1  0  0  0  0  0  0
  189.5790  177.8480  146.3250 C   0  0  2  0  0  3  0  0  0  0  0  0
  188.0790  177.4980  148.2260 C   0  0  0  0  0  2  0  0  0  0  0  0
  188.2100  177.7710  146.9310 C   0  0  0  0  0  0  0  0  0  0  0  0
  186.9880  177.9600  146.0930 C   0  0  0  0  0  1  0  0  0  0  0  0
  184.5210  177.8570  138.6920 C   0  0  2  0  0  3  0  0  0  0  0  0
  184.1560  176.8470  137.6150 C   0  0  0  0  0  1  0  0  0  0  0  0
  183.4230  178.9090  138.7760 C   0  0  0  0  0  2  0  0  0  0  0  0
  179.1280  179.6180  140.1670 C   0  0  0  0  0  3  0  0  0  0  0  0
  180.9060  179.1980  141.5610 C   0  0  0  0  0  0  0  0  0  0  0  0
  180.3900  179.4310  139.2970 C   0  0  0  0  0  3  0  0  0  0  0  0
  179.5550  179.4550  141.5200 O   0  0  0  0  0  0  0  0  0  0  0  0
  183.0500  178.7390  142.5040 C   0  0  0  0  0  3  0  0  0  0  0  0
  182.8060  178.9200  140.1350 C   0  0  0  0  0  0  0  0  0  0  0  0
  183.5790  178.7150  141.2430 N   0  0  0  0  0  0  0  0  0  0  0  0
  181.4450  179.1700  140.3100 C   0  0  0  0  0  0  0  0  0  0  0  0
  181.6810  178.9840  142.6960 C   0  0  0  0  0  3  0  0  0  0  0  0
  1 25  1  1  0  0  0
  1  8  1  0  0  0  0
  2 10  1  6  0  0  0
  2  7  1  0  0  0  0
  3 11  1  6  0  0  0
  3 17  1  0  0  0  0
  4  6  1  0  0  0  0
  5 10  2  0  0  0  0
  6  2  1  0  0  0  0
  6 11  1  0  0  0  0
  7  8  1  6  0  0  0
  7  3  1  0  0  0  0
  9  6  1  0  0  0  0
 10  1  1  0  0  0  0
 12 15  1  0  0  0  0
 13 15  1  0  0  0  0
 14 13  1  0  0  0  0
 15 18  1  6  0  0  0
 16 12  1  0  0  0  0
 17 14  1  1  0  0  0
 17 16  1  0  0  0  0
 18 19  1  6  0  0  0
 18 21  1  0  0  0  0
 21 20  1  6  0  0  0
 21 23  1  0  0  0  0
 23 22  2  0  0  0  0
 24 23  1  0  0  0  0
 25 26  1  6  0  0  0
 25 27  1  0  0  0  0
 27 33  1  0  0  0  0
 28 31  1  0  0  0  0
 29 36  1  0  0  0  0
 30 28  2  0  0  0  0
 30 35  1  0  0  0  0
 31 29  1  0  0  0  0
 32 36  2  0  0  0  0
 33 35  1  0  0  0  0
 33 34  2  0  0  0  0
 34 32  1  0  0  0  0
 35 29  2  0  0  0  0
M  END
>  <MODEL>
2

>  <REMARK>
 VINA RESULT:      -8.3      1.035      1.419
  Name = 
  7 active torsions:
  status: ('A' for Active; 'I' for Inactive)
    1  A    between atoms: C_2  and  C_21
    2  A    between atoms: C_2  and  C_35
    3  A    between atoms: C_3  and  C_13
    4  A    between atoms: C_7  and  C_35
    5  A    between atoms: C_9  and  C_26
    6  A    between atoms: C_13  and  C_16
    7  A    between atoms: C_16  and  C_23
                            x       y       z     vdW  Elec       q    Type
                         _______ _______ _______ _____ _____    ______ ____

>  <TORSDO>
F 7

$$$$
=
 OpenBabel11062417143D

 36 40  0  0  1  0  0  0  0  0999 V2000
  190.3630  177.9160  141.0430 C   0  0  1  0  0  3  0  0  0  0  0  0
  189.3680  176.7340  139.2540 C   0  0  1  0  0  3  0  0  0  0  0  0
  191.3660  176.6250  138.0140 C   0  0  2  0  0  3  0  0  0  0  0  0
  189.1440  178.9190  137.9120 C   0  0  0  0  0  1  0  0  0  0  0  0
  187.8920  178.0840  140.7340 C   0  0  0  0  0  2  0  0  0  0  0  0
  189.0970  177.3940  137.8980 C   0  0  0  0  0  0  0  0  0  0  0  0
  190.8030  176.4870  139.3590 N   0  0  1  0  0  0  0  0  0  0  0  0
  191.3560  177.4790  140.1330 O   0  0  0  0  0  0  0  0  0  0  0  0
  187.7700  176.9260  137.3390 C   0  0  0  0  0  1  0  0  0  0  0  0
  189.0710  177.5330  140.4440 C   0  0  0  0  0  0  0  0  0  0  0  0
  190.2230  176.8860  137.0440 C   0  0  0  0  0  2  0  0  0  0  0  0
  194.2160  174.1010  137.9390 N   0  0  0  0  0  2  0  0  0  0  0  0
  193.1370  174.0750  135.7200 C   0  0  0  0  0  2  0  0  0  0  0  0
  192.3250  175.3090  136.1020 C   0  0  0  0  0  2  0  0  0  0  0  0
  194.4640  174.0280  136.4920 C   0  0  1  0  0  3  0  0  0  0  0  0
  193.5110  175.3390  138.2780 C   0  0  0  0  0  2  0  0  0  0  0  0
  192.1340  175.3640  137.6170 C   0  0  1  0  0  3  0  0  0  0  0  0
  195.4710  175.0930  136.0170 C   0  0  2  0  0  3  0  0  0  0  0  0
  195.5800  175.0410  134.6240 O   0  0  0  0  0  1  0  0  0  0  0  0
  197.7480  175.8720  136.2200 O   0  0  0  0  0  1  0  0  0  0  0  0
  196.8550  174.8850  136.6460 C   0  0  2  0  0  3  0  0  0  0  0  0
  197.5300  172.6160  137.2650 C   0  0  0  0  0  2  0  0  0  0  0  0
  197.4190  173.5370  136.3120 C   0  0  0  0  0  0  0  0  0  0  0  0
  197.8930  173.2240  134.9300 C   0  0  0  0  0  1  0  0  0  0  0  0
  190.5750  177.2590  142.4120 C   0  0  2  0  0  3  0  0  0  0  0  0
  189.6780  176.0420  142.5710 C   0  0  0  0  0  1  0  0  0  0  0  0
  190.2640  178.2500  143.5270 C   0  0  0  0  0  2  0  0  0  0  0  0
  187.2730  177.5460  146.9100 C   0  0  0  0  0  3  0  0  0  0  0  0
  189.4870  176.9340  146.9670 C   0  0  0  0  0  0  0  0  0  0  0  0
  187.9230  177.9570  145.5700 C   0  0  0  0  0  3  0  0  0  0  0  0
  188.3100  176.9350  147.6790 O   0  0  0  0  0  0  0  0  0  0  0  0
  191.7920  176.5340  146.4910 C   0  0  0  0  0  3  0  0  0  0  0  0
  190.4080  177.6020  144.8640 C   0  0  0  0  0  0  0  0  0  0  0  0
  191.6190  177.1150  145.2640 N   0  0  0  0  0  0  0  0  0  0  0  0
  189.3290  177.5090  145.7430 C   0  0  0  0  0  0  0  0  0  0  0  0
  190.7140  176.4280  147.3850 C   0  0  0  0  0  3  0  0  0  0  0  0
  1 25  1  1  0  0  0
  2  7  1  0  0  0  0
  2 10  1  1  0  0  0
  3 11  1  6  0  0  0
  3  7  1  0  0  0  0
  6  4  1  0  0  0  0
  6  2  1  0  0  0  0
  7  8  1  1  0  0  0
  8  1  1  0  0  0  0
  9  6  1  0  0  0  0
 10  5  2  0  0  0  0
 10  1  1  0  0  0  0
 11  6  1  0  0  0  0
 12 16  1  0  0  0  0
 13 14  1  0  0  0  0
 13 15  1  0  0  0  0
 15 18  1  6  0  0  0
 15 12  1  0  0  0  0
 17 14  1  6  0  0  0
 17  3  1  0  0  0  0
 17 16  1  0  0  0  0
 18 19  1  6  0  0  0
 18 21  1  0  0  0  0
 21 20  1  6  0  0  0
 23 21  1  0  0  0  0
 23 22  2  0  0  0  0
 24 23  1  0  0  0  0
 25 26  1  1  0  0  0
 25 27  1  0  0  0  0
 27 33  1  0  0  0  0
 28 31  1  0  0  0  0
 29 36  1  0  0  0  0
 29 31  1  0  0  0  0
 30 35  1  0  0  0  0
 30 28  2  0  0  0  0
 32 36  2  0  0  0  0
 33 34  2  0  0  0  0
 33 35  1  0  0  0  0
 34 32  1  0  0  0  0
 35 29  2  0  0  0  0
M  END
>  <MODEL>
3

>  <REMARK>
 VINA RESULT:      -8.3      4.611      8.144
  Name = 
  7 active torsions:
  status: ('A' for Active; 'I' for Inactive)
    1  A    between atoms: C_2  and  C_21
    2  A    between atoms: C_2  and  C_35
    3  A    between atoms: C_3  and  C_13
    4  A    between atoms: C_7  and  C_35
    5  A    between atoms: C_9  and  C_26
    6  A    between atoms: C_13  and  C_16
    7  A    between atoms: C_16  and  C_23
                            x       y       z     vdW  Elec       q    Type
                         _______ _______ _______ _____ _____    ______ ____

>  <TORSDO>
F 7

$$$$
=
 OpenBabel11062417143D

 36 40  0  0  1  0  0  0  0  0999 V2000
  189.7880  178.0930  141.9360 C   0  0  1  0  0  3  0  0  0  0  0  0
  189.0110  176.9740  140.0040 C   0  0  1  0  0  3  0  0  0  0  0  0
  191.1400  176.9060  139.0010 C   0  0  2  0  0  3  0  0  0  0  0  0
  188.9370  179.2040  138.7200 C   0  0  0  0  0  1  0  0  0  0  0  0
  187.3690  178.2730  141.3480 C   0  0  0  0  0  2  0  0  0  0  0  0
  188.8970  177.6800  138.6490 C   0  0  0  0  0  0  0  0  0  0  0  0
  190.4250  176.7230  140.2660 N   0  0  1  0  0  0  0  0  0  0  0  0
  190.8810  177.6870  141.1320 O   0  0  0  0  0  0  0  0  0  0  0  0
  187.6450  177.2320  137.9250 C   0  0  0  0  0  1  0  0  0  0  0  0
  188.5750  177.7310  141.1780 C   0  0  0  0  0  0  0  0  0  0  0  0
  190.1170  177.2010  137.9140 C   0  0  0  0  0  2  0  0  0  0  0  0
  194.1640  174.8340  137.9720 N   0  0  0  0  0  2  0  0  0  0  0  0
  192.1500  173.6920  137.1170 C   0  0  0  0  0  2  0  0  0  0  0  0
  191.3050  174.9060  137.4920 C   0  0  0  0  0  2  0  0  0  0  0  0
  193.6020  174.1010  136.8290 C   0  0  1  0  0  3  0  0  0  0  0  0
  193.3760  176.0370  138.2470 C   0  0  0  0  0  2  0  0  0  0  0  0
  191.9530  175.6590  138.6530 C   0  0  1  0  0  3  0  0  0  0  0  0
  193.7550  174.8750  135.5060 C   0  0  2  0  0  3  0  0  0  0  0  0
  192.7910  174.4340  134.5940 O   0  0  0  0  0  1  0  0  0  0  0  0
  195.7890  173.5740  135.4450 O   0  0  0  0  0  1  0  0  0  0  0  0
  195.1530  174.6920  134.8990 C   0  0  2  0  0  3  0  0  0  0  0  0
  197.3130  175.7470  135.3540 C   0  0  0  0  0  2  0  0  0  0  0  0
  196.0140  175.9000  135.1150 C   0  0  0  0  0  0  0  0  0  0  0  0
  195.4270  177.2740  135.1030 C   0  0  0  0  0  1  0  0  0  0  0  0
  189.8420  177.3890  143.2970 C   0  0  2  0  0  3  0  0  0  0  0  0
  190.7900  176.2020  143.2530 C   0  0  0  0  0  1  0  0  0  0  0  0
  188.4550  176.9000  143.6930 C   0  0  0  0  0  2  0  0  0  0  0  0
  184.7490  178.7950  145.5810 C   0  0  0  0  0  3  0  0  0  0  0  0
  186.6600  178.2270  146.7240 C   0  0  0  0  0  0  0  0  0  0  0  0
  185.7480  178.1790  144.5760 C   0  0  0  0  0  3  0  0  0  0  0  0
  185.4040  178.7740  146.8500 O   0  0  0  0  0  0  0  0  0  0  0  0
  188.8230  177.4610  147.3820 C   0  0  0  0  0  3  0  0  0  0  0  0
  188.1410  177.2840  145.1000 C   0  0  0  0  0  0  0  0  0  0  0  0
  189.0690  177.1010  146.0860 N   0  0  0  0  0  0  0  0  0  0  0  0
  186.9170  177.8640  145.4370 C   0  0  0  0  0  0  0  0  0  0  0  0
  187.5950  178.0400  147.7380 C   0  0  0  0  0  3  0  0  0  0  0  0
  1 25  1  1  0  0  0
  2  7  1  0  0  0  0
  2 10  1  1  0  0  0
  3 11  1  6  0  0  0
  3  7  1  0  0  0  0
  6  4  1  0  0  0  0
  6  2  1  0  0  0  0
  7  8  1  1  0  0  0
  8  1  1  0  0  0  0
  9  6  1  0  0  0  0
 10  5  2  0  0  0  0
 10  1  1  0  0  0  0
 11  6  1  0  0  0  0
 12 16  1  0  0  0  0
 13 14  1  0  0  0  0
 15 18  1  6  0  0  0
 15 13  1  0  0  0  0
 15 12  1  0  0  0  0
 16 17  1  0  0  0  0
 17 14  1  6  0  0  0
 17  3  1  0  0  0  0
 18 19  1  6  0  0  0
 21 23  1  0  0  0  0
 21 20  1  1  0  0  0
 21 18  1  0  0  0  0
 23 22  2  0  0  0  0
 24 23  1  0  0  0  0
 25 26  1  6  0  0  0
 25 27  1  0  0  0  0
 27 33  1  0  0  0  0
 28 31  1  0  0  0  0
 29 31  1  0  0  0  0
 29 36  1  0  0  0  0
 30 35  1  0  0  0  0
 30 28  2  0  0  0  0
 32 36  2  0  0  0  0
 33 35  1  0  0  0  0
 33 34  2  0  0  0  0
 34 32  1  0  0  0  0
 35 29  2  0  0  0  0
M  END
>  <MODEL>
4

>  <REMARK>
 VINA RESULT:      -8.3      4.029      7.423
  Name = 
  7 active torsions:
  status: ('A' for Active; 'I' for Inactive)
    1  A    between atoms: C_2  and  C_21
    2  A    between atoms: C_2  and  C_35
    3  A    between atoms: C_3  and  C_13
    4  A    between atoms: C_7  and  C_35
    5  A    between atoms: C_9  and  C_26
    6  A    between atoms: C_13  and  C_16
    7  A    between atoms: C_16  and  C_23
                            x       y       z     vdW  Elec       q    Type
                         _______ _______ _______ _____ _____    ______ ____

>  <TORSDO>
F 7

$$$$
=
 OpenBabel11062417143D

 36 40  0  0  1  0  0  0  0  0999 V2000
  189.7830  176.7740  141.2560 C   0  0  1  0  0  3  0  0  0  0  0  0
  189.5700  177.8760  139.1750 C   0  0  1  0  0  3  0  0  0  0  0  0
  187.2910  177.3290  138.9460 C   0  0  2  0  0  3  0  0  0  0  0  0
  189.8020  175.6280  137.9410 C   0  0  0  0  0  1  0  0  0  0  0  0
  191.8380  177.1430  139.8880 C   0  0  0  0  0  2  0  0  0  0  0  0
  189.4170  177.1030  137.8610 C   0  0  0  0  0  0  0  0  0  0  0  0
  188.3040  177.7940  139.8970 N   0  0  1  0  0  0  0  0  0  0  0  0
  188.4220  176.8270  140.8670 O   0  0  0  0  0  0  0  0  0  0  0  0
  190.2040  177.7790  136.7570 C   0  0  0  0  0  1  0  0  0  0  0  0
  190.5450  177.3540  140.1340 C   0  0  0  0  0  0  0  0  0  0  0  0
  187.9450  177.2010  137.5790 C   0  0  0  0  0  2  0  0  0  0  0  0
  184.6490  179.7530  140.2290 N   0  0  0  0  0  2  0  0  0  0  0  0
  183.7070  178.5920  138.2660 C   0  0  0  0  0  2  0  0  0  0  0  0
  184.8930  177.6300  138.2680 C   0  0  0  0  0  2  0  0  0  0  0  0
  183.4360  179.1340  139.6770 C   0  0  1  0  0  3  0  0  0  0  0  0
  185.7390  178.7760  140.2960 C   0  0  0  0  0  2  0  0  0  0  0  0
  186.1140  178.3030  138.8920 C   0  0  1  0  0  3  0  0  0  0  0  0
  182.8390  178.0730  140.6210 C   0  0  2  0  0  3  0  0  0  0  0  0
  182.7110  176.8610  139.9360 O   0  0  0  0  0  1  0  0  0  0  0  0
  180.9330  179.5400  140.3940 O   0  0  0  0  0  1  0  0  0  0  0  0
  181.4670  178.5020  141.1620 C   0  0  2  0  0  3  0  0  0  0  0  0
  180.4420  179.3120  143.2300 C   0  0  0  0  0  2  0  0  0  0  0  0
  181.5490  178.9420  142.5930 C   0  0  0  0  0  0  0  0  0  0  0  0
  182.8610  179.0060  143.3030 C   0  0  0  0  0  1  0  0  0  0  0  0
  189.9920  177.5600  142.5550 C   0  0  2  0  0  3  0  0  0  0  0  0
  191.4370  178.0130  142.6850 C   0  0  0  0  0  1  0  0  0  0  0  0
  189.6350  176.6950  143.7580 C   0  0  0  0  0  2  0  0  0  0  0  0
  188.8690  177.8610  148.1100 C   0  0  0  0  0  3  0  0  0  0  0  0
  187.3070  177.9690  146.4280 C   0  0  0  0  0  0  0  0  0  0  0  0
  189.5370  177.3880  146.8000 C   0  0  0  0  0  3  0  0  0  0  0  0
  187.5220  178.1890  147.7690 O   0  0  0  0  0  0  0  0  0  0  0  0
  186.1270  177.8780  144.3550 C   0  0  0  0  0  3  0  0  0  0  0  0
  188.4220  177.2250  144.4470 C   0  0  0  0  0  0  0  0  0  0  0  0
  187.2630  177.4140  143.7510 N   0  0  0  0  0  0  0  0  0  0  0  0
  188.4320  177.5070  145.8140 C   0  0  0  0  0  0  0  0  0  0  0  0
  186.1220  178.1710  145.7280 C   0  0  0  0  0  3  0  0  0  0  0  0
  1 25  1  1  0  0  0
  2  7  1  0  0  0  0
  2 10  1  1  0  0  0
  3 11  1  6  0  0  0
  3  7  1  0  0  0  0
  5 10  2  0  0  0  0
  6  4  1  0  0  0  0
  6  2  1  0  0  0  0
  7  8  1  1  0  0  0
  8  1  1  0  0  0  0
  9  6  1  0  0  0  0
 10  1  1  0  0  0  0
 11  6  1  0  0  0  0
 12 16  1  0  0  0  0
 13 14  1  0  0  0  0
 13 15  1  0  0  0  0
 15 12  1  0  0  0  0
 15 18  1  1  0  0  0
 17 14  1  1  0  0  0
 17  3  1  0  0  0  0
 17 16  1  0  0  0  0
 18 19  1  6  0  0  0
 18 21  1  0  0  0  0
 21 20  1  6  0  0  0
 21 23  1  0  0  0  0
 23 22  2  0  0  0  0
 23 24  1  0  0  0  0
 25 26  1  1  0  0  0
 25 27  1  0  0  0  0
 27 33  1  0  0  0  0
 29 31  1  0  0  0  0
 30 28  2  0  0  0  0
 31 28  1  0  0  0  0
 32 36  1  0  0  0  0
 33 35  2  0  0  0  0
 34 32  2  0  0  0  0
 34 33  1  0  0  0  0
 35 29  1  0  0  0  0
 35 30  1  0  0  0  0
 36 29  2  0  0  0  0
M  END
>  <MODEL>
5

>  <REMARK>
 VINA RESULT:      -8.2      1.660      6.521
  Name = 
  7 active torsions:
  status: ('A' for Active; 'I' for Inactive)
    1  A    between atoms: C_2  and  C_21
    2  A    between atoms: C_2  and  C_35
    3  A    between atoms: C_3  and  C_13
    4  A    between atoms: C_7  and  C_35
    5  A    between atoms: C_9  and  C_26
    6  A    between atoms: C_13  and  C_16
    7  A    between atoms: C_16  and  C_23
                            x       y       z     vdW  Elec       q    Type
                         _______ _______ _______ _____ _____    ______ ____

>  <TORSDO>
F 7

$$$$
=
 OpenBabel11062417143D

 36 40  0  0  1  0  0  0  0  0999 V2000
  187.8690  177.1960  144.3190 C   0  0  1  0  0  3  0  0  0  0  0  0
  189.8860  178.2780  143.7250 C   0  0  1  0  0  3  0  0  0  0  0  0
  190.1090  177.0860  141.7070 C   0  0  2  0  0  3  0  0  0  0  0  0
  191.2400  176.2620  144.5790 C   0  0  0  0  0  1  0  0  0  0  0  0
  189.2460  178.2250  146.1290 C   0  0  0  0  0  2  0  0  0  0  0  0
  191.2360  177.5560  143.7710 C   0  0  0  0  0  0  0  0  0  0  0  0
  189.1500  177.7880  142.5630 N   0  0  1  0  0  0  0  0  0  0  0  0
  188.2350  176.8570  142.9930 O   0  0  0  0  0  0  0  0  0  0  0  0
  192.3150  178.4860  144.2860 C   0  0  0  0  0  1  0  0  0  0  0  0
  188.9700  178.0290  144.8390 C   0  0  0  0  0  0  0  0  0  0  0  0
  191.4910  177.2220  142.3280 C   0  0  0  0  0  2  0  0  0  0  0  0
  188.8060  179.0100  138.6910 N   0  0  0  0  0  2  0  0  0  0  0  0
  190.1630  177.1290  137.8470 C   0  0  0  0  0  2  0  0  0  0  0  0
  190.2310  176.5490  139.2570 C   0  0  0  0  0  2  0  0  0  0  0  0
  188.8900  177.9670  137.6580 C   0  0  1  0  0  3  0  0  0  0  0  0
  188.7880  178.4100  140.0260 C   0  0  0  0  0  2  0  0  0  0  0  0
  190.0950  177.6650  140.2910 C   0  0  1  0  0  3  0  0  0  0  0  0
  187.6120  177.1090  137.5900 C   0  0  2  0  0  3  0  0  0  0  0  0
  187.8550  175.9760  136.8080 O   0  0  0  0  0  1  0  0  0  0  0  0
  185.8220  178.6840  137.9790 O   0  0  0  0  0  1  0  0  0  0  0  0
  186.4320  177.8940  137.0000 C   0  0  2  0  0  3  0  0  0  0  0  0
  185.2080  176.9960  135.0820 C   0  0  0  0  0  2  0  0  0  0  0  0
  185.4060  176.9820  136.3970 C   0  0  0  0  0  0  0  0  0  0  0  0
  184.5780  176.0840  137.2550 C   0  0  0  0  0  1  0  0  0  0  0  0
  186.5340  177.9480  144.3230 C   0  0  2  0  0  3  0  0  0  0  0  0
  185.6540  177.4800  145.4720 C   0  0  0  0  0  1  0  0  0  0  0  0
  185.7960  177.7190  143.0110 C   0  0  0  0  0  2  0  0  0  0  0  0
  182.4580  177.9800  139.8990 C   0  0  0  0  0  3  0  0  0  0  0  0
  182.3080  178.7640  142.0540 C   0  0  0  0  0  0  0  0  0  0  0  0
  183.7960  177.6870  140.6140 C   0  0  0  0  0  3  0  0  0  0  0  0
  181.6310  178.6320  140.8630 O   0  0  0  0  0  0  0  0  0  0  0  0
  182.6990  179.3750  144.3270 C   0  0  0  0  0  3  0  0  0  0  0  0
  184.4100  178.2680  143.0820 C   0  0  0  0  0  0  0  0  0  0  0  0
  183.9560  178.8440  144.2340 N   0  0  0  0  0  0  0  0  0  0  0  0
  183.5610  178.2370  141.9740 C   0  0  0  0  0  0  0  0  0  0  0  0
  181.8320  179.3470  143.2240 C   0  0  0  0  0  3  0  0  0  0  0  0
  1 25  1  6  0  0  0
  1 10  1  0  0  0  0
  2  6  1  0  0  0  0
  2 10  1  1  0  0  0
  3 11  1  1  0  0  0
  3  7  1  0  0  0  0
  6  9  1  0  0  0  0
  6  4  1  0  0  0  0
  7  8  1  1  0  0  0
  7  2  1  0  0  0  0
  8  1  1  0  0  0  0
 10  5  2  0  0  0  0
 11  6  1  0  0  0  0
 12 16  1  0  0  0  0
 13 14  1  0  0  0  0
 15 18  1  1  0  0  0
 15 13  1  0  0  0  0
 15 12  1  0  0  0  0
 16 17  1  0  0  0  0
 17 14  1  6  0  0  0
 17  3  1  0  0  0  0
 18 19  1  6  0  0  0
 21 18  1  0  0  0  0
 21 20  1  1  0  0  0
 22 23  2  0  0  0  0
 23 21  1  0  0  0  0
 23 24  1  0  0  0  0
 25 26  1  1  0  0  0
 27 33  1  0  0  0  0
 27 25  1  0  0  0  0
 28 30  2  0  0  0  0
 28 31  1  0  0  0  0
 29 36  1  0  0  0  0
 30 35  1  0  0  0  0
 31 29  1  0  0  0  0
 33 34  2  0  0  0  0
 34 32  1  0  0  0  0
 35 29  2  0  0  0  0
 35 33  1  0  0  0  0
 36 32  2  0  0  0  0
M  END
>  <MODEL>
6

>  <REMARK>
 VINA RESULT:      -8.1      1.695      6.326
  Name = 
  7 active torsions:
  status: ('A' for Active; 'I' for Inactive)
    1  A    between atoms: C_2  and  C_21
    2  A    between atoms: C_2  and  C_35
    3  A    between atoms: C_3  and  C_13
    4  A    between atoms: C_7  and  C_35
    5  A    between atoms: C_9  and  C_26
    6  A    between atoms: C_13  and  C_16
    7  A    between atoms: C_16  and  C_23
                            x       y       z     vdW  Elec       q    Type
                         _______ _______ _______ _____ _____    ______ ____

>  <TORSDO>
F 7

$$$$
=
 OpenBabel11062417143D

 36 40  0  0  1  0  0  0  0  0999 V2000
  187.5350  178.2050  143.4060 C   0  0  1  0  0  3  0  0  0  0  0  0
  185.7960  177.5880  144.8840 C   0  0  1  0  0  3  0  0  0  0  0  0
  184.1720  178.8590  143.7480 C   0  0  2  0  0  3  0  0  0  0  0  0
  186.0540  179.8180  146.1450 C   0  0  0  0  0  1  0  0  0  0  0  0
  188.1410  177.4350  145.7010 C   0  0  0  0  0  2  0  0  0  0  0  0
  185.2030  178.5760  145.8940 C   0  0  0  0  0  0  0  0  0  0  0  0
  185.3020  177.9470  143.5580 N   0  0  1  0  0  0  0  0  0  0  0  0
  186.2860  178.6520  142.9070 O   0  0  0  0  0  0  0  0  0  0  0  0
  184.9140  177.8780  147.2070 C   0  0  0  0  0  1  0  0  0  0  0  0
  187.2500  177.6070  144.7230 C   0  0  0  0  0  0  0  0  0  0  0  0
  183.9180  178.9980  145.2410 C   0  0  0  0  0  2  0  0  0  0  0  0
  181.8270  178.0650  140.8550 N   0  0  0  0  0  2  0  0  0  0  0  0
  180.4350  178.5010  142.8460 C   0  0  0  0  0  2  0  0  0  0  0  0
  181.6690  178.9940  143.5970 C   0  0  0  0  0  2  0  0  0  0  0  0
  180.5950  178.7080  141.3320 C   0  0  1  0  0  3  0  0  0  0  0  0
  182.9960  178.6240  141.5370 C   0  0  0  0  0  2  0  0  0  0  0  0
  182.9260  178.3310  143.0350 C   0  0  1  0  0  3  0  0  0  0  0  0
  180.5110  180.1900  140.9190 C   0  0  2  0  0  3  0  0  0  0  0  0
  179.7250  180.8870  141.8420 O   0  0  0  0  0  1  0  0  0  0  0  0
  179.2080  179.2090  139.1370 O   0  0  0  0  0  1  0  0  0  0  0  0
  179.9140  180.3540  139.5130 C   0  0  2  0  0  3  0  0  0  0  0  0
  181.4270  179.6460  137.7260 C   0  0  0  0  0  2  0  0  0  0  0  0
  180.9740  180.6350  138.4910 C   0  0  0  0  0  0  0  0  0  0  0  0
  181.5560  182.0030  138.3430 C   0  0  0  0  0  1  0  0  0  0  0  0
  188.1560  177.1900  142.4400 C   0  0  2  0  0  3  0  0  0  0  0  0
  188.7370  176.0080  143.2000 C   0  0  0  0  0  1  0  0  0  0  0  0
  189.2630  177.8460  141.6260 C   0  0  0  0  0  2  0  0  0  0  0  0
  191.6970  176.3950  138.0400 C   0  0  0  0  0  3  0  0  0  0  0  0
  189.5790  177.2770  137.9170 C   0  0  0  0  0  0  0  0  0  0  0  0
  191.2380  176.7490  139.4710 C   0  0  0  0  0  3  0  0  0  0  0  0
  190.6160  176.7560  137.1790 O   0  0  0  0  0  0  0  0  0  0  0  0
  187.4410  178.2360  138.3710 C   0  0  0  0  0  3  0  0  0  0  0  0
  188.9500  177.7900  140.1670 C   0  0  0  0  0  0  0  0  0  0  0  0
  187.7520  178.2530  139.7030 N   0  0  0  0  0  0  0  0  0  0  0  0
  189.8760  177.2990  139.2460 C   0  0  0  0  0  0  0  0  0  0  0  0
  188.3590  177.7400  137.4330 C   0  0  0  0  0  3  0  0  0  0  0  0
  1 25  1  6  0  0  0
  1 10  1  0  0  0  0
  2 10  1  6  0  0  0
  2  6  1  0  0  0  0
  3 11  1  1  0  0  0
  6  4  1  0  0  0  0
  6  9  1  0  0  0  0
  7  8  1  6  0  0  0
  7  3  1  0  0  0  0
  7  2  1  0  0  0  0
  8  1  1  0  0  0  0
 10  5  2  0  0  0  0
 11  6  1  0  0  0  0
 12 15  1  0  0  0  0
 12 16  1  0  0  0  0
 13 14  1  0  0  0  0
 15 18  1  1  0  0  0
 15 13  1  0  0  0  0
 17 16  1  6  0  0  0
 17 14  1  0  0  0  0
 17  3  1  0  0  0  0
 18 19  1  1  0  0  0
 21 20  1  6  0  0  0
 21 18  1  0  0  0  0
 22 23  2  0  0  0  0
 23 21  1  0  0  0  0
 24 23  1  0  0  0  0
 25 26  1  1  0  0  0
 27 25  1  0  0  0  0
 28 30  2  0  0  0  0
 29 35  1  0  0  0  0
 31 29  1  0  0  0  0
 31 28  1  0  0  0  0
 32 34  2  0  0  0  0
 33 27  1  0  0  0  0
 34 33  1  0  0  0  0
 35 30  1  0  0  0  0
 35 33  2  0  0  0  0
 36 29  2  0  0  0  0
 36 32  1  0  0  0  0
M  END
>  <MODEL>
7

>  <REMARK>
 VINA RESULT:      -8.1      2.282      9.008
  Name = 
  7 active torsions:
  status: ('A' for Active; 'I' for Inactive)
    1  A    between atoms: C_2  and  C_21
    2  A    between atoms: C_2  and  C_35
    3  A    between atoms: C_3  and  C_13
    4  A    between atoms: C_7  and  C_35
    5  A    between atoms: C_9  and  C_26
    6  A    between atoms: C_13  and  C_16
    7  A    between atoms: C_16  and  C_23
                            x       y       z     vdW  Elec       q    Type
                         _______ _______ _______ _____ _____    ______ ____

>  <TORSDO>
F 7

$$$$
=
 OpenBabel11062417143D

 36 40  0  0  1  0  0  0  0  0999 V2000
  184.9090  179.3040  140.6200 C   0  0  1  0  0  3  0  0  0  0  0  0
  183.6520  177.5950  139.5750 C   0  0  1  0  0  3  0  0  0  0  0  0
  184.7350  177.8570  137.5010 C   0  0  2  0  0  3  0  0  0  0  0  0
  182.1030  179.3570  138.5160 C   0  0  0  0  0  1  0  0  0  0  0  0
  182.6910  178.6940  141.5890 C   0  0  0  0  0  2  0  0  0  0  0  0
  182.5720  177.9050  138.5340 C   0  0  0  0  0  0  0  0  0  0  0  0
  184.9550  177.7950  138.9480 N   0  0  1  0  0  0  0  0  0  0  0  0
  185.4370  179.0220  139.3360 O   0  0  0  0  0  0  0  0  0  0  0  0
  181.3830  176.9850  138.7180 C   0  0  0  0  0  1  0  0  0  0  0  0
  183.7020  178.4660  140.7500 C   0  0  0  0  0  0  0  0  0  0  0  0
  183.2590  177.6060  137.2330 C   0  0  0  0  0  2  0  0  0  0  0  0
  187.5730  175.3740  136.9720 N   0  0  0  0  0  2  0  0  0  0  0  0
  187.0410  176.3780  134.7810 C   0  0  0  0  0  2  0  0  0  0  0  0
  186.1380  177.3980  135.4700 C   0  0  0  0  0  2  0  0  0  0  0  0
  188.1520  175.8990  135.7270 C   0  0  1  0  0  3  0  0  0  0  0  0
  186.7840  176.4070  137.6470 C   0  0  0  0  0  2  0  0  0  0  0  0
  185.5980  176.8220  136.7780 C   0  0  1  0  0  3  0  0  0  0  0  0
  189.2210  176.9780  135.9900 C   0  0  2  0  0  3  0  0  0  0  0  0
  189.3610  177.7800  134.8530 O   0  0  0  0  0  1  0  0  0  0  0  0
  190.5360  174.9650  136.2210 O   0  0  0  0  0  1  0  0  0  0  0  0
  190.5790  176.3560  136.3470 C   0  0  2  0  0  3  0  0  0  0  0  0
  192.1940  176.3230  138.1840 C   0  0  0  0  0  2  0  0  0  0  0  0
  191.0010  176.7090  137.7410 C   0  0  0  0  0  0  0  0  0  0  0  0
  190.0860  177.4580  138.6540 C   0  0  0  0  0  1  0  0  0  0  0  0
  185.9470  178.9810  141.7010 C   0  0  2  0  0  3  0  0  0  0  0  0
  187.2990  178.6780  141.0770 C   0  0  0  0  0  1  0  0  0  0  0  0
  185.4990  177.7770  142.5190 C   0  0  0  0  0  2  0  0  0  0  0  0
  188.8050  177.1410  145.6100 C   0  0  0  0  0  3  0  0  0  0  0  0
  186.7410  178.0420  146.0640 C   0  0  0  0  0  0  0  0  0  0  0  0
  187.9980  177.1860  144.2930 C   0  0  0  0  0  3  0  0  0  0  0  0
  187.9490  177.6840  146.6150 O   0  0  0  0  0  0  0  0  0  0  0  0
  184.5120  178.8910  145.9620 C   0  0  0  0  0  3  0  0  0  0  0  0
  185.5670  178.0770  143.9800 C   0  0  0  0  0  0  0  0  0  0  0  0
  184.4910  178.6230  144.6210 N   0  0  0  0  0  0  0  0  0  0  0  0
  186.7080  177.7810  144.7270 C   0  0  0  0  0  0  0  0  0  0  0  0
  185.6540  178.6040  146.7270 C   0  0  0  0  0  3  0  0  0  0  0  0
  1 10  1  0  0  0  0
  1 25  1  1  0  0  0
  2 10  1  1  0  0  0
  3 11  1  1  0  0  0
  3  7  1  0  0  0  0
  4  6  1  0  0  0  0
  6  9  1  0  0  0  0
  6  2  1  0  0  0  0
  7  8  1  1  0  0  0
  7  2  1  0  0  0  0
  8  1  1  0  0  0  0
 10  5  2  0  0  0  0
 11  6  1  0  0  0  0
 12 16  1  0  0  0  0
 13 14  1  0  0  0  0
 13 15  1  0  0  0  0
 15 18  1  1  0  0  0
 15 12  1  0  0  0  0
 17 14  1  6  0  0  0
 17  3  1  0  0  0  0
 17 16  1  0  0  0  0
 18 19  1  6  0  0  0
 18 21  1  0  0  0  0
 21 20  1  1  0  0  0
 21 23  1  0  0  0  0
 23 22  2  0  0  0  0
 23 24  1  0  0  0  0
 25 26  1  6  0  0  0
 25 27  1  0  0  0  0
 27 33  1  0  0  0  0
 28 31  1  0  0  0  0
 29 31  1  0  0  0  0
 29 36  1  0  0  0  0
 30 35  1  0  0  0  0
 30 28  2  0  0  0  0
 32 36  2  0  0  0  0
 33 34  2  0  0  0  0
 33 35  1  0  0  0  0
 34 32  1  0  0  0  0
 35 29  2  0  0  0  0
M  END
>  <MODEL>
8

>  <REMARK>
 VINA RESULT:      -8.0      2.374      6.748
  Name = 
  7 active torsions:
  status: ('A' for Active; 'I' for Inactive)
    1  A    between atoms: C_2  and  C_21
    2  A    between atoms: C_2  and  C_35
    3  A    between atoms: C_3  and  C_13
    4  A    between atoms: C_7  and  C_35
    5  A    between atoms: C_9  and  C_26
    6  A    between atoms: C_13  and  C_16
    7  A    between atoms: C_16  and  C_23
                            x       y       z     vdW  Elec       q    Type
                         _______ _______ _______ _____ _____    ______ ____

>  <TORSDO>
F 7

$$$$
=
 OpenBabel11062417143D

 36 40  0  0  1  0  0  0  0  0999 V2000
  187.4260  177.4870  144.5070 C   0  0  1  0  0  3  0  0  0  0  0  0
  189.5560  178.2560  143.8310 C   0  0  1  0  0  3  0  0  0  0  0  0
  189.4750  177.1330  141.7640 C   0  0  2  0  0  3  0  0  0  0  0  0
  190.6080  176.0140  144.5330 C   0  0  0  0  0  1  0  0  0  0  0  0
  189.0460  178.2020  146.2660 C   0  0  0  0  0  2  0  0  0  0  0  0
  190.7720  177.3260  143.7710 C   0  0  0  0  0  0  0  0  0  0  0  0
  188.6900  177.9420  142.6990 N   0  0  1  0  0  0  0  0  0  0  0  0
  187.6600  177.1520  143.1510 O   0  0  0  0  0  0  0  0  0  0  0  0
  192.0130  178.0470  144.2540 C   0  0  0  0  0  1  0  0  0  0  0  0
  188.6730  178.1090  144.9890 C   0  0  0  0  0  0  0  0  0  0  0  0
  190.8920  177.0190  142.3060 C   0  0  0  0  0  2  0  0  0  0  0  0
  188.0630  178.6250  138.5570 N   0  0  0  0  0  2  0  0  0  0  0  0
  190.1800  177.4920  137.9850 C   0  0  0  0  0  2  0  0  0  0  0  0
  190.2260  176.8770  139.3810 C   0  0  0  0  0  2  0  0  0  0  0  0
  188.7340  177.7800  137.5580 C   0  0  1  0  0  3  0  0  0  0  0  0
  188.0520  177.9640  139.8640 C   0  0  0  0  0  2  0  0  0  0  0  0
  189.4790  177.7680  140.3720 C   0  0  1  0  0  3  0  0  0  0  0  0
  187.9360  176.5000  137.2460 C   0  0  2  0  0  3  0  0  0  0  0  0
  188.8220  175.4380  137.0390 O   0  0  0  0  0  1  0  0  0  0  0  0
  187.1960  177.9520  135.4630 O   0  0  0  0  0  1  0  0  0  0  0  0
  187.0470  176.6730  136.0060 C   0  0  2  0  0  3  0  0  0  0  0  0
  184.9120  175.5410  135.6260 C   0  0  0  0  0  2  0  0  0  0  0  0
  185.6010  176.4400  136.3230 C   0  0  0  0  0  0  0  0  0  0  0  0
  184.9120  177.2280  137.3880 C   0  0  0  0  0  1  0  0  0  0  0  0
  186.2320  178.4430  144.6170 C   0  0  2  0  0  3  0  0  0  0  0  0
  186.1150  179.0010  146.0260 C   0  0  0  0  0  1  0  0  0  0  0  0
  184.9400  177.7160  144.2650 C   0  0  0  0  0  2  0  0  0  0  0  0
  180.7370  179.1710  143.2140 C   0  0  0  0  0  3  0  0  0  0  0  0
  182.5060  179.1010  141.7490 C   0  0  0  0  0  0  0  0  0  0  0  0
  181.9690  178.6260  143.9700 C   0  0  0  0  0  3  0  0  0  0  0  0
  181.1760  179.4260  141.8790 O   0  0  0  0  0  0  0  0  0  0  0  0
  184.6290  178.8180  140.6940 C   0  0  0  0  0  3  0  0  0  0  0  0
  184.3610  178.2530  142.9990 C   0  0  0  0  0  0  0  0  0  0  0  0
  185.1330  178.3500  141.8760 N   0  0  0  0  0  0  0  0  0  0  0  0
  183.0210  178.6350  142.9210 C   0  0  0  0  0  0  0  0  0  0  0  0
  183.2840  179.2110  140.6010 C   0  0  0  0  0  3  0  0  0  0  0  0
  1 25  1  6  0  0  0
  1 10  1  0  0  0  0
  2 10  1  1  0  0  0
  3 11  1  1  0  0  0
  3  7  1  0  0  0  0
  6  2  1  0  0  0  0
  6  9  1  0  0  0  0
  6  4  1  0  0  0  0
  7  8  1  1  0  0  0
  7  2  1  0  0  0  0
  8  1  1  0  0  0  0
 10  5  2  0  0  0  0
 11  6  1  0  0  0  0
 12 16  1  0  0  0  0
 13 14  1  0  0  0  0
 15 18  1  1  0  0  0
 15 13  1  0  0  0  0
 15 12  1  0  0  0  0
 16 17  1  0  0  0  0
 17 14  1  6  0  0  0
 17  3  1  0  0  0  0
 18 19  1  6  0  0  0
 21 20  1  1  0  0  0
 21 23  1  0  0  0  0
 21 18  1  0  0  0  0
 22 23  2  0  0  0  0
 23 24  1  0  0  0  0
 25 26  1  1  0  0  0
 27 25  1  0  0  0  0
 28 30  2  0  0  0  0
 29 31  1  0  0  0  0
 29 35  1  0  0  0  0
 31 28  1  0  0  0  0
 32 34  2  0  0  0  0
 33 27  1  0  0  0  0
 34 33  1  0  0  0  0
 35 33  2  0  0  0  0
 35 30  1  0  0  0  0
 36 32  1  0  0  0  0
 36 29  2  0  0  0  0
M  END
>  <MODEL>
9

>  <REMARK>
 VINA RESULT:      -7.6      1.722      6.421
  Name = 
  7 active torsions:
  status: ('A' for Active; 'I' for Inactive)
    1  A    between atoms: C_2  and  C_21
    2  A    between atoms: C_2  and  C_35
    3  A    between atoms: C_3  and  C_13
    4  A    between atoms: C_7  and  C_35
    5  A    between atoms: C_9  and  C_26
    6  A    between atoms: C_13  and  C_16
    7  A    between atoms: C_16  and  C_23
                            x       y       z     vdW  Elec       q    Type
                         _______ _______ _______ _____ _____    ______ ____

>  <TORSDO>
F 7

$$$$
