=
 OpenBabel11062418023D

 58 64  0  0  1  0  0  0  0  0999 V2000
  186.1820  178.9660  145.9050 O   0  0  0  0  0  0  0  0  0  0  0  0
  185.4170  178.8230  144.9130 C   0  0  0  0  0  0  0  0  0  0  0  0
  183.1440  178.9350  142.7550 C   0  0  0  0  0  0  0  0  0  0  0  0
  185.7240  179.1440  142.4670 C   0  0  0  0  0  2  0  0  0  0  0  0
  182.6330  179.2200  140.7230 C   0  0  0  0  0  0  0  0  0  0  0  0
  184.0350  179.1490  145.0380 N   0  0  0  0  0  2  0  0  0  0  0  0
  183.0230  178.5300  144.1920 C   0  0  0  0  0  2  0  0  0  0  0  0
  185.9350  178.3480  143.6680 N   0  0  0  0  0  0  0  0  0  0  0  0
  182.0790  178.9880  141.9320 N   0  0  0  0  0  0  0  0  0  0  0  0
  183.9450  179.2940  140.7640 O   0  0  0  0  0  0  0  0  0  0  0  0
  184.3000  179.1090  142.0090 C   0  0  0  0  0  0  0  0  0  0  0  0
  182.8740  177.2690  136.0810 N   0  0  0  0  0  0  0  0  0  0  0  0
  179.4380  180.0420  138.7230 C   0  0  0  0  0  2  0  0  0  0  0  0
  181.8300  179.3670  139.4710 C   0  0  1  0  0  3  0  0  0  0  0  0
  178.9310  180.7170  136.4940 O   0  0  0  0  0  1  0  0  0  0  0  0
  183.0880  177.3110  138.6010 C   0  0  2  0  0  3  0  0  0  0  0  0
  179.9890  180.5360  137.3830 C   0  0  2  0  0  3  0  0  0  0  0  0
  181.7200  178.0360  138.6830 C   0  0  2  0  0  3  0  0  0  0  0  0
  180.4820  180.0070  139.8390 C   0  0  0  0  0  2  0  0  0  0  0  0
  183.7070  177.3960  137.2340 C   0  0  0  0  0  0  0  0  0  0  0  0
  181.0200  179.5900  136.7520 C   0  0  0  0  0  2  0  0  0  0  0  0
  181.4340  177.1240  136.2930 C   0  0  1  0  0  3  0  0  0  0  0  0
  180.9590  178.1620  137.3210 C   0  0  1  0  0  3  0  0  0  0  0  0
  184.9490  177.5560  137.1130 O   0  0  0  0  0  0  0  0  0  0  0  0
  183.4040  177.3850  134.8380 O   0  0  0  0  0  1  0  0  0  0  0  0
  180.6370  177.1850  134.9910 C   0  0  0  0  0  3  0  0  0  0  0  0
  179.7770  175.9420  134.8700 C   0  0  0  0  0  2  0  0  0  0  0  0
  179.1570  177.2510  135.3090 C   0  0  0  0  0  2  0  0  0  0  0  0
  182.9110  175.8600  139.0270 C   0  0  0  0  0  2  0  0  0  0  0  0
  181.4760  175.5880  139.4450 C   0  0  0  0  0  2  0  0  0  0  0  0
  179.7240  172.6960  136.8050 C   0  0  0  0  0  3  0  0  0  0  0  0
  180.8750  174.5620  138.5480 C   0  0  0  0  0  0  0  0  0  0  0  0
  178.9450  173.2990  137.7980 C   0  0  0  0  0  3  0  0  0  0  0  0
  179.5180  174.2340  138.6660 C   0  0  0  0  0  3  0  0  0  0  0  0
  181.0790  173.0270  136.6810 C   0  0  0  0  0  3  0  0  0  0  0  0
  181.6530  173.9610  137.5490 C   0  0  0  0  0  3  0  0  0  0  0  0
  186.9010  177.2560  143.6450 C   0  0  0  0  0  2  0  0  0  0  0  0
  187.5570  177.1620  142.2760 C   0  0  0  0  0  2  0  0  0  0  0  0
  189.0530  177.4150  142.3840 C   0  0  2  0  0  3  0  0  0  0  0  0
  189.6440  177.9780  141.0860 C   0  0  0  0  0  2  0  0  0  0  0  0
  189.5180  177.0270  139.8990 C   0  0  0  0  0  2  0  0  0  0  0  0
  189.9560  176.3770  137.1480 O   0  0  0  0  0  0  0  0  0  0  0  0
  190.9620  176.4400  137.9060 C   0  0  0  0  0  0  0  0  0  0  0  0
  190.8180  176.8200  139.2740 N   0  0  0  0  0  2  0  0  0  0  0  0
  192.3160  176.1380  137.3600 C   0  0  0  0  0  2  0  0  0  0  0  0
  192.6570  174.6630  137.5280 C   0  0  0  0  0  3  0  0  0  0  0  0
  194.0680  174.5260  138.0050 C   0  0  0  0  0  3  0  0  0  0  0  0
  194.8000  175.5020  138.0710 O   0  0  0  0  0  0  0  0  0  0  0  0
  192.5040  173.9550  136.2200 C   0  0  0  0  0  3  0  0  0  0  0  0
  191.9530  172.8680  136.1640 O   0  0  0  0  0  0  0  0  0  0  0  0
  189.7750  176.1570  142.8470 C   0  0  0  0  0  2  0  0  0  0  0  0
  191.0830  176.5220  143.5310 C   0  0  0  0  0  2  0  0  0  0  0  0
  189.5330  177.5750  146.8190 C   0  0  0  0  0  3  0  0  0  0  0  0
  190.4490  177.0500  147.7360 C   0  0  0  0  0  3  0  0  0  0  0  0
  189.7410  177.4020  145.4470 C   0  0  0  0  0  3  0  0  0  0  0  0
  191.7800  176.1770  145.9120 C   0  0  0  0  0  3  0  0  0  0  0  0
  190.8660  176.7060  144.9910 C   0  0  0  0  0  0  0  0  0  0  0  0
  191.5710  176.3500  147.2820 C   0  0  0  0  0  3  0  0  0  0  0  0
  2  6  1  0  0  0  0
  2  1  2  0  0  0  0
  3  7  1  0  0  0  0
  4  8  1  0  0  0  0
  5 10  1  0  0  0  0
  5  9  2  0  0  0  0
  7  6  1  0  0  0  0
  8  2  1  0  0  0  0
  9  3  1  0  0  0  0
 10 11  1  0  0  0  0
 11  4  1  0  0  0  0
 11  3  2  0  0  0  0
 12 22  1  0  0  0  0
 12 20  1  0  0  0  0
 13 19  1  0  0  0  0
 14 19  1  0  0  0  0
 14  5  1  1  0  0  0
 16 18  1  0  0  0  0
 16 29  1  6  0  0  0
 17 15  1  6  0  0  0
 17 13  1  0  0  0  0
 18 14  1  0  0  0  0
 20 16  1  0  0  0  0
 21 23  1  0  0  0  0
 21 17  1  0  0  0  0
 22 23  1  0  0  0  0
 23 18  1  0  0  0  0
 24 20  2  0  0  0  0
 25 12  1  0  0  0  0
 26 28  1  0  0  0  0
 26 22  1  0  0  0  0
 27 26  1  0  0  0  0
 27 28  1  0  0  0  0
 29 30  1  0  0  0  0
 31 33  1  0  0  0  0
 32 34  1  0  0  0  0
 32 30  1  0  0  0  0
 33 34  2  0  0  0  0
 35 31  2  0  0  0  0
 35 36  1  0  0  0  0
 36 32  2  0  0  0  0
 37  8  1  0  0  0  0
 38 39  1  0  0  0  0
 38 37  1  0  0  0  0
 39 51  1  0  0  0  0
 40 39  1  0  0  0  0
 41 40  1  0  0  0  0
 42 43  2  0  0  0  0
 43 44  1  0  0  0  0
 44 41  1  0  0  0  0
 45 46  1  0  0  0  0
 45 43  1  0  0  0  0
 46 47  1  0  0  0  0
 47 48  2  0  0  0  0
 49 46  1  0  0  0  0
 50 49  2  0  0  0  0
 51 52  1  0  0  0  0
 52 57  1  0  0  0  0
 53 54  1  0  0  0  0
 55 53  2  0  0  0  0
 56 58  1  0  0  0  0
 57 55  1  0  0  0  0
 57 56  2  0  0  0  0
 58 54  2  0  0  0  0
M  END
>  <MODEL>
1

>  <REMARK>
 VINA RESULT:      -7.2      0.000      0.000
  Name = 
  18 active torsions:
  status: ('A' for Active; 'I' for Inactive)
    1  A    between atoms: C_1  and  C_13
    2  A    between atoms: C_4  and  C_41
    3  A    between atoms: C_7  and  C_10
    4  A    between atoms: C_7  and  C_46
    5  A    between atoms: C_7  and  C_47
    6  A    between atoms: C_10  and  C_54
    7  A    between atoms: C_12  and  C_33
    8  A    between atoms: C_13  and  C_31
    9  A    between atoms: C_13  and  C_39
   10  A    between atoms: C_14  and  C_31
   11  A    between atoms: C_18  and  C_56
   12  A    between atoms: C_19  and  C_24
   13  A    between atoms: C_24  and  C_56
   14  A    between atoms: C_26  and  C_54
   15  A    between atoms: C_28  and  N_43
   16  A    between atoms: C_28  and  C_47
   17  A    between atoms: N_38  and  C_40
   18  A    between atoms: C_40  and  C_46
                            x       y       z     vdW  Elec       q    Type
                         _______ _______ _______ _____ _____    ______ ____

>  <TORSDO>
F 18

$$$$
=
 OpenBabel11062418023D

 58 64  0  0  1  0  0  0  0  0999 V2000
  190.8070  177.7090  144.0860 O   0  0  0  0  0  0  0  0  0  0  0  0
  189.5660  177.6860  143.8710 C   0  0  0  0  0  0  0  0  0  0  0  0
  186.4410  177.9560  143.9220 C   0  0  0  0  0  0  0  0  0  0  0  0
  188.1360  178.5970  142.0530 C   0  0  0  0  0  2  0  0  0  0  0  0
  184.6970  178.6190  142.9290 C   0  0  0  0  0  0  0  0  0  0  0  0
  188.6590  177.7710  144.9690 N   0  0  0  0  0  2  0  0  0  0  0  0
  187.3120  177.2200  144.8940 C   0  0  0  0  0  2  0  0  0  0  0  0
  189.0680  177.5880  142.5340 N   0  0  0  0  0  0  0  0  0  0  0  0
  185.1060  178.0400  144.0770 N   0  0  0  0  0  0  0  0  0  0  0  0
  185.6850  178.8720  142.1000 O   0  0  0  0  0  0  0  0  0  0  0  0
  186.7830  178.4610  142.6780 C   0  0  0  0  0  0  0  0  0  0  0  0
  182.0740  179.7770  138.7810 N   0  0  0  0  0  0  0  0  0  0  0  0
  180.9040  178.5020  143.6280 C   0  0  0  0  0  2  0  0  0  0  0  0
  183.2630  178.9300  142.6350 C   0  0  1  0  0  3  0  0  0  0  0  0
  179.0070  179.8230  143.0470 O   0  0  0  0  0  1  0  0  0  0  0  0
  183.8640  178.6390  140.1610 C   0  0  2  0  0  3  0  0  0  0  0  0
  180.4000  179.8100  143.0110 C   0  0  2  0  0  3  0  0  0  0  0  0
  182.8090  178.3660  141.2640 C   0  0  2  0  0  3  0  0  0  0  0  0
  182.4180  178.4650  143.8310 C   0  0  0  0  0  2  0  0  0  0  0  0
  183.4360  179.7180  139.2060 C   0  0  0  0  0  0  0  0  0  0  0  0
  180.8680  180.0320  141.5660 C   0  0  0  0  0  2  0  0  0  0  0  0
  181.1390  178.8080  139.3550 C   0  0  1  0  0  3  0  0  0  0  0  0
  181.3390  178.7410  140.8760 C   0  0  1  0  0  3  0  0  0  0  0  0
  184.2790  180.5460  138.7710 O   0  0  0  0  0  0  0  0  0  0  0  0
  181.6570  180.7660  137.9540 O   0  0  0  0  0  1  0  0  0  0  0  0
  179.6890  179.0880  138.9680 C   0  0  0  0  0  3  0  0  0  0  0  0
  179.4030  178.4720  137.6120 C   0  0  0  0  0  2  0  0  0  0  0  0
  178.9310  177.7790  138.8720 C   0  0  0  0  0  2  0  0  0  0  0  0
  184.1570  177.3430  139.4180 C   0  0  0  0  0  2  0  0  0  0  0  0
  183.9780  177.5230  137.9190 C   0  0  0  0  0  2  0  0  0  0  0  0
  181.0830  174.7160  136.4590 C   0  0  0  0  0  3  0  0  0  0  0  0
  182.9950  176.5290  137.4060 C   0  0  0  0  0  0  0  0  0  0  0  0
  181.4690  174.6860  137.8030 C   0  0  0  0  0  3  0  0  0  0  0  0
  182.4220  175.5940  138.2770 C   0  0  0  0  0  3  0  0  0  0  0  0
  181.6500  175.6540  135.5870 C   0  0  0  0  0  3  0  0  0  0  0  0
  182.6020  176.5620  136.0610 C   0  0  0  0  0  3  0  0  0  0  0  0
  189.7010  176.6820  141.5830 C   0  0  0  0  0  2  0  0  0  0  0  0
  190.4110  177.4740  140.4950 C   0  0  0  0  0  2  0  0  0  0  0  0
  190.2050  176.8170  139.1380 C   0  0  2  0  0  3  0  0  0  0  0  0
  191.4500  176.0580  138.6640 C   0  0  0  0  0  2  0  0  0  0  0  0
  191.2210  175.2520  137.3890 C   0  0  0  0  0  2  0  0  0  0  0  0
  193.4460  175.9270  135.7230 O   0  0  0  0  0  0  0  0  0  0  0  0
  193.4170  174.7720  136.2270 C   0  0  0  0  0  0  0  0  0  0  0  0
  192.3670  174.3940  137.1170 N   0  0  0  0  0  2  0  0  0  0  0  0
  194.5040  173.8030  135.9100 C   0  0  0  0  0  2  0  0  0  0  0  0
  195.7290  174.0490  136.7830 C   0  0  0  0  0  3  0  0  0  0  0  0
  196.5660  175.1300  136.1760 C   0  0  0  0  0  3  0  0  0  0  0  0
  197.3540  175.7650  136.8600 O   0  0  0  0  0  0  0  0  0  0  0  0
  196.5350  172.7950  136.8910 C   0  0  0  0  0  3  0  0  0  0  0  0
  196.5800  172.1760  137.9410 O   0  0  0  0  0  0  0  0  0  0  0  0
  189.7310  177.8410  138.1170 C   0  0  0  0  0  2  0  0  0  0  0  0
  188.2380  178.0860  138.2700 C   0  0  0  0  0  2  0  0  0  0  0  0
  186.3740  177.5060  135.0280 C   0  0  0  0  0  3  0  0  0  0  0  0
  186.0920  176.1390  135.1130 C   0  0  0  0  0  3  0  0  0  0  0  0
  187.0750  178.1410  136.0590 C   0  0  0  0  0  3  0  0  0  0  0  0
  187.2110  176.0380  137.2570 C   0  0  0  0  0  3  0  0  0  0  0  0
  187.4920  177.4090  137.1760 C   0  0  0  0  0  0  0  0  0  0  0  0
  186.5120  175.4060  136.2260 C   0  0  0  0  0  3  0  0  0  0  0  0
  2  1  2  0  0  0  0
  2  6  1  0  0  0  0
  3  9  1  0  0  0  0
  3  7  1  0  0  0  0
  4  8  1  0  0  0  0
  4 11  1  0  0  0  0
  5  9  2  0  0  0  0
  7  6  1  0  0  0  0
  8  2  1  0  0  0  0
 10 11  1  0  0  0  0
 10  5  1  0  0  0  0
 11  3  2  0  0  0  0
 12 20  1  0  0  0  0
 12 22  1  0  0  0  0
 13 19  1  0  0  0  0
 14  5  1  1  0  0  0
 14 19  1  0  0  0  0
 16 29  1  6  0  0  0
 16 18  1  0  0  0  0
 17 15  1  6  0  0  0
 17 13  1  0  0  0  0
 18 14  1  0  0  0  0
 20 16  1  0  0  0  0
 21 17  1  0  0  0  0
 22 23  1  0  0  0  0
 23 18  1  0  0  0  0
 23 21  1  0  0  0  0
 24 20  2  0  0  0  0
 25 12  1  0  0  0  0
 26 22  1  0  0  0  0
 27 28  1  0  0  0  0
 27 26  1  0  0  0  0
 28 26  1  0  0  0  0
 30 29  1  0  0  0  0
 31 33  1  0  0  0  0
 32 30  1  0  0  0  0
 32 34  1  0  0  0  0
 33 34  2  0  0  0  0
 35 36  1  0  0  0  0
 35 31  2  0  0  0  0
 36 32  2  0  0  0  0
 37  8  1  0  0  0  0
 38 37  1  0  0  0  0
 39 38  1  0  0  0  0
 40 39  1  0  0  0  0
 41 40  1  0  0  0  0
 42 43  2  0  0  0  0
 43 44  1  0  0  0  0
 44 41  1  0  0  0  0
 45 43  1  0  0  0  0
 45 46  1  0  0  0  0
 46 49  1  0  0  0  0
 47 46  1  0  0  0  0
 47 48  2  0  0  0  0
 49 50  2  0  0  0  0
 51 52  1  0  0  0  0
 51 39  1  0  0  0  0
 53 54  2  0  0  0  0
 53 55  1  0  0  0  0
 54 58  1  0  0  0  0
 55 57  2  0  0  0  0
 57 56  1  0  0  0  0
 57 52  1  0  0  0  0
 58 56  2  0  0  0  0
M  END
>  <MODEL>
2

>  <REMARK>
 VINA RESULT:      -7.2      2.382      5.124
  Name = 
  18 active torsions:
  status: ('A' for Active; 'I' for Inactive)
    1  A    between atoms: C_1  and  C_13
    2  A    between atoms: C_4  and  C_41
    3  A    between atoms: C_7  and  C_10
    4  A    between atoms: C_7  and  C_46
    5  A    between atoms: C_7  and  C_47
    6  A    between atoms: C_10  and  C_54
    7  A    between atoms: C_12  and  C_33
    8  A    between atoms: C_13  and  C_31
    9  A    between atoms: C_13  and  C_39
   10  A    between atoms: C_14  and  C_31
   11  A    between atoms: C_18  and  C_56
   12  A    between atoms: C_19  and  C_24
   13  A    between atoms: C_24  and  C_56
   14  A    between atoms: C_26  and  C_54
   15  A    between atoms: C_28  and  N_43
   16  A    between atoms: C_28  and  C_47
   17  A    between atoms: N_38  and  C_40
   18  A    between atoms: C_40  and  C_46
                            x       y       z     vdW  Elec       q    Type
                         _______ _______ _______ _____ _____    ______ ____

>  <TORSDO>
F 18

$$$$
=
 OpenBabel11062418023D

 58 64  0  0  1  0  0  0  0  0999 V2000
  185.3460  179.1180  146.0720 O   0  0  0  0  0  0  0  0  0  0  0  0
  184.7100  178.9530  144.9970 C   0  0  0  0  0  0  0  0  0  0  0  0
  182.6990  178.9880  142.5900 C   0  0  0  0  0  0  0  0  0  0  0  0
  185.2800  179.3300  142.6060 C   0  0  0  0  0  2  0  0  0  0  0  0
  182.4120  179.2810  140.5150 C   0  0  0  0  0  0  0  0  0  0  0  0
  183.3070  179.2070  144.9630 N   0  0  0  0  0  2  0  0  0  0  0  0
  182.4330  178.5530  143.9980 C   0  0  0  0  0  2  0  0  0  0  0  0
  185.3910  178.5260  143.8140 N   0  0  0  0  0  0  0  0  0  0  0  0
  181.7350  179.0020  141.6490 N   0  0  0  0  0  0  0  0  0  0  0  0
  183.7050  179.4200  140.7100 O   0  0  0  0  0  0  0  0  0  0  0  0
  183.9220  179.2320  141.9850 C   0  0  0  0  0  0  0  0  0  0  0  0
  182.8390  176.9130  136.0850 N   0  0  0  0  0  0  0  0  0  0  0  0
  179.5430  180.2880  138.1410 C   0  0  0  0  0  2  0  0  0  0  0  0
  181.7530  179.4090  139.1790 C   0  0  1  0  0  3  0  0  0  0  0  0
  179.3310  180.8170  135.8270 O   0  0  0  0  0  1  0  0  0  0  0  0
  182.8220  177.1520  138.6030 C   0  0  2  0  0  3  0  0  0  0  0  0
  180.2730  180.5950  136.8300 C   0  0  2  0  0  3  0  0  0  0  0  0
  181.5530  178.0350  138.4890 C   0  0  2  0  0  3  0  0  0  0  0  0
  180.4670  180.2310  139.3570 C   0  0  0  0  0  2  0  0  0  0  0  0
  183.5700  177.0440  137.3050 C   0  0  0  0  0  0  0  0  0  0  0  0
  181.2330  179.4830  136.3830 C   0  0  0  0  0  2  0  0  0  0  0  0
  181.3780  176.9550  136.1590 C   0  0  1  0  0  3  0  0  0  0  0  0
  180.9430  178.1280  137.0500 C   0  0  1  0  0  3  0  0  0  0  0  0
  184.8290  177.0470  137.2990 O   0  0  0  0  0  0  0  0  0  0  0  0
  183.4910  176.8570  134.8980 O   0  0  0  0  0  1  0  0  0  0  0  0
  180.7190  176.9930  134.7810 C   0  0  0  0  0  3  0  0  0  0  0  0
  179.6840  175.8880  134.6890 C   0  0  0  0  0  2  0  0  0  0  0  0
  179.2460  177.3160  134.9360 C   0  0  0  0  0  2  0  0  0  0  0  0
  182.4280  175.7750  139.1180 C   0  0  0  0  0  2  0  0  0  0  0  0
  180.9180  175.6000  139.1000 C   0  0  0  0  0  2  0  0  0  0  0  0
  179.9190  171.9400  137.0980 C   0  0  0  0  0  3  0  0  0  0  0  0
  180.5650  174.3450  138.3800 C   0  0  0  0  0  0  0  0  0  0  0  0
  181.2300  172.4270  137.0520 C   0  0  0  0  0  3  0  0  0  0  0  0
  181.5540  173.6270  137.6950 C   0  0  0  0  0  3  0  0  0  0  0  0
  178.9310  172.6530  137.7870 C   0  0  0  0  0  3  0  0  0  0  0  0
  179.2540  173.8520  138.4300 C   0  0  0  0  0  3  0  0  0  0  0  0
  186.4090  177.4840  143.8930 C   0  0  0  0  0  2  0  0  0  0  0  0
  187.1210  177.3420  142.5560 C   0  0  0  0  0  2  0  0  0  0  0  0
  188.6090  177.6160  142.7140 C   0  0  2  0  0  3  0  0  0  0  0  0
  189.2550  178.0920  141.4080 C   0  0  0  0  0  2  0  0  0  0  0  0
  188.2760  178.1720  140.2400 C   0  0  0  0  0  2  0  0  0  0  0  0
  187.9830  178.9770  137.5110 O   0  0  0  0  0  0  0  0  0  0  0  0
  188.5710  177.8870  137.7430 C   0  0  0  0  0  0  0  0  0  0  0  0
  188.8050  177.4590  139.0850 N   0  0  0  0  0  2  0  0  0  0  0  0
  189.0480  177.0500  136.6050 C   0  0  0  0  0  2  0  0  0  0  0  0
  187.9440  176.1280  136.1030 C   0  0  0  0  0  3  0  0  0  0  0  0
  188.5060  174.7640  135.8540 C   0  0  0  0  0  3  0  0  0  0  0  0
  189.7060  174.6070  135.6840 O   0  0  0  0  0  0  0  0  0  0  0  0
  187.3690  176.6690  134.8340 C   0  0  0  0  0  3  0  0  0  0  0  0
  187.3610  177.8700  134.6200 O   0  0  0  0  0  0  0  0  0  0  0  0
  189.3160  176.3990  143.2960 C   0  0  0  0  0  2  0  0  0  0  0  0
  190.6750  176.7960  143.8510 C   0  0  0  0  0  2  0  0  0  0  0  0
  191.5330  176.5860  147.5310 C   0  0  0  0  0  3  0  0  0  0  0  0
  190.4620  177.2780  148.1040 C   0  0  0  0  0  3  0  0  0  0  0  0
  191.6020  176.4290  146.1430 C   0  0  0  0  0  3  0  0  0  0  0  0
  189.5280  177.6590  145.9030 C   0  0  0  0  0  3  0  0  0  0  0  0
  190.5990  176.9630  145.3270 C   0  0  0  0  0  0  0  0  0  0  0  0
  189.4610  177.8160  147.2900 C   0  0  0  0  0  3  0  0  0  0  0  0
  2  1  2  0  0  0  0
  3  7  1  0  0  0  0
  4  8  1  0  0  0  0
  5 10  1  0  0  0  0
  5  9  2  0  0  0  0
  6  2  1  0  0  0  0
  7  6  1  0  0  0  0
  8 37  1  0  0  0  0
  8  2  1  0  0  0  0
  9  3  1  0  0  0  0
 10 11  1  0  0  0  0
 11  3  2  0  0  0  0
 11  4  1  0  0  0  0
 12 22  1  0  0  0  0
 12 20  1  0  0  0  0
 13 19  1  0  0  0  0
 14 19  1  0  0  0  0
 14  5  1  1  0  0  0
 16 29  1  6  0  0  0
 17 15  1  6  0  0  0
 17 13  1  0  0  0  0
 18 16  1  0  0  0  0
 18 14  1  0  0  0  0
 20 16  1  0  0  0  0
 21 17  1  0  0  0  0
 21 23  1  0  0  0  0
 22 23  1  0  0  0  0
 23 18  1  0  0  0  0
 24 20  2  0  0  0  0
 25 12  1  0  0  0  0
 26 28  1  0  0  0  0
 26 22  1  0  0  0  0
 27 26  1  0  0  0  0
 27 28  1  0  0  0  0
 30 29  1  0  0  0  0
 31 35  1  0  0  0  0
 32 36  1  0  0  0  0
 32 30  1  0  0  0  0
 33 31  2  0  0  0  0
 33 34  1  0  0  0  0
 34 32  2  0  0  0  0
 35 36  2  0  0  0  0
 38 39  1  0  0  0  0
 38 37  1  0  0  0  0
 39 51  1  0  0  0  0
 40 39  1  0  0  0  0
 41 40  1  0  0  0  0
 42 43  2  0  0  0  0
 43 44  1  0  0  0  0
 44 41  1  0  0  0  0
 45 43  1  0  0  0  0
 46 45  1  0  0  0  0
 47 46  1  0  0  0  0
 48 47  2  0  0  0  0
 49 46  1  0  0  0  0
 50 49  2  0  0  0  0
 51 52  1  0  0  0  0
 52 57  1  0  0  0  0
 53 54  1  0  0  0  0
 55 53  2  0  0  0  0
 56 58  1  0  0  0  0
 57 56  2  0  0  0  0
 57 55  1  0  0  0  0
 58 54  2  0  0  0  0
M  END
>  <MODEL>
3

>  <REMARK>
 VINA RESULT:      -7.1      1.632      2.184
  Name = 
  18 active torsions:
  status: ('A' for Active; 'I' for Inactive)
    1  A    between atoms: C_1  and  C_13
    2  A    between atoms: C_4  and  C_41
    3  A    between atoms: C_7  and  C_10
    4  A    between atoms: C_7  and  C_46
    5  A    between atoms: C_7  and  C_47
    6  A    between atoms: C_10  and  C_54
    7  A    between atoms: C_12  and  C_33
    8  A    between atoms: C_13  and  C_31
    9  A    between atoms: C_13  and  C_39
   10  A    between atoms: C_14  and  C_31
   11  A    between atoms: C_18  and  C_56
   12  A    between atoms: C_19  and  C_24
   13  A    between atoms: C_24  and  C_56
   14  A    between atoms: C_26  and  C_54
   15  A    between atoms: C_28  and  N_43
   16  A    between atoms: C_28  and  C_47
   17  A    between atoms: N_38  and  C_40
   18  A    between atoms: C_40  and  C_46
                            x       y       z     vdW  Elec       q    Type
                         _______ _______ _______ _____ _____    ______ ____

>  <TORSDO>
F 18

$$$$
=
 OpenBabel11062418023D

 58 64  0  0  1  0  0  0  0  0999 V2000
  182.7100  179.1170  145.5600 O   0  0  0  0  0  0  0  0  0  0  0  0
  183.4380  179.2050  144.5350 C   0  0  0  0  0  0  0  0  0  0  0  0
  185.7530  179.3350  142.4220 C   0  0  0  0  0  0  0  0  0  0  0  0
  183.5950  177.8780  142.4390 C   0  0  0  0  0  2  0  0  0  0  0  0
  186.5700  178.5680  140.6290 C   0  0  0  0  0  0  0  0  0  0  0  0
  184.7950  179.6230  144.6700 N   0  0  0  0  0  2  0  0  0  0  0  0
  185.5120  180.2620  143.5740 C   0  0  0  0  0  2  0  0  0  0  0  0
  182.9120  178.8770  143.2470 N   0  0  0  0  0  0  0  0  0  0  0  0
  186.8160  179.4670  141.6060 N   0  0  0  0  0  0  0  0  0  0  0  0
  185.4370  177.9230  140.7980 O   0  0  0  0  0  0  0  0  0  0  0  0
  184.8940  178.3830  141.8950 C   0  0  0  0  0  0  0  0  0  0  0  0
  191.4380  177.3520  140.1400 N   0  0  0  0  0  0  0  0  0  0  0  0
  187.3990  177.6740  136.9680 C   0  0  0  0  0  2  0  0  0  0  0  0
  187.4930  178.3410  139.4750 C   0  0  1  0  0  3  0  0  0  0  0  0
  189.1860  178.1130  135.4540 O   0  0  0  0  0  1  0  0  0  0  0  0
  189.1300  177.3410  141.1750 C   0  0  2  0  0  3  0  0  0  0  0  0
  188.6780  178.4710  136.7010 C   0  0  2  0  0  3  0  0  0  0  0  0
  188.5180  177.2120  139.7560 C   0  0  2  0  0  3  0  0  0  0  0  0
  186.6400  178.1330  138.2140 C   0  0  0  0  0  2  0  0  0  0  0  0
  190.5500  177.8310  141.1500 C   0  0  0  0  0  0  0  0  0  0  0  0
  189.7660  178.2680  137.7650 C   0  0  0  0  0  2  0  0  0  0  0  0
  190.8940  176.4440  139.1300 C   0  0  1  0  0  3  0  0  0  0  0  0
  189.5600  176.9970  138.6070 C   0  0  1  0  0  3  0  0  0  0  0  0
  190.9530  178.6400  142.0260 O   0  0  0  0  0  0  0  0  0  0  0  0
  192.7110  177.8130  140.0730 O   0  0  0  0  0  1  0  0  0  0  0  0
  191.8860  176.1520  138.0050 C   0  0  0  0  0  3  0  0  0  0  0  0
  192.0810  174.6520  137.8850 C   0  0  0  0  0  2  0  0  0  0  0  0
  191.1860  175.3790  136.9050 C   0  0  0  0  0  2  0  0  0  0  0  0
  189.0320  175.9970  141.8840 C   0  0  0  0  0  2  0  0  0  0  0  0
  189.8580  175.9960  143.1600 C   0  0  0  0  0  2  0  0  0  0  0  0
  187.6100  177.8470  146.3100 C   0  0  0  0  0  3  0  0  0  0  0  0
  189.0760  176.6120  144.2670 C   0  0  0  0  0  0  0  0  0  0  0  0
  189.0040  177.7620  146.4010 C   0  0  0  0  0  3  0  0  0  0  0  0
  189.7370  177.1490  145.3800 C   0  0  0  0  0  3  0  0  0  0  0  0
  186.9490  177.3170  145.1960 C   0  0  0  0  0  3  0  0  0  0  0  0
  187.6810  176.7040  144.1740 C   0  0  0  0  0  3  0  0  0  0  0  0
  181.5680  179.3040  142.8750 C   0  0  0  0  0  2  0  0  0  0  0  0
  181.0550  178.4740  141.7090 C   0  0  0  0  0  2  0  0  0  0  0  0
  181.0430  179.3010  140.4320 C   0  0  2  0  0  3  0  0  0  0  0  0
  179.6200  179.6100  139.9510 C   0  0  0  0  0  2  0  0  0  0  0  0
  179.3100  181.1030  139.8940 C   0  0  0  0  0  2  0  0  0  0  0  0
  181.6380  182.0720  138.5430 O   0  0  0  0  0  0  0  0  0  0  0  0
  180.5410  182.1050  137.9230 C   0  0  0  0  0  0  0  0  0  0  0  0
  179.3540  181.5790  138.5180 N   0  0  0  0  0  2  0  0  0  0  0  0
  180.4890  182.6740  136.5460 C   0  0  0  0  0  2  0  0  0  0  0  0
  181.0060  184.1070  136.5270 C   0  0  0  0  0  3  0  0  0  0  0  0
  180.2210  184.9360  137.4940 C   0  0  0  0  0  3  0  0  0  0  0  0
  179.0180  185.0920  137.3460 O   0  0  0  0  0  0  0  0  0  0  0  0
  180.8660  184.6790  135.1530 C   0  0  0  0  0  3  0  0  0  0  0  0
  179.7760  184.7140  134.6050 O   0  0  0  0  0  0  0  0  0  0  0  0
  181.8820  178.6290  139.3540 C   0  0  0  0  0  2  0  0  0  0  0  0
  181.0300  178.3410  138.1270 C   0  0  0  0  0  2  0  0  0  0  0  0
  183.9110  176.8930  136.1450 C   0  0  0  0  0  3  0  0  0  0  0  0
  183.5220  177.1920  134.8350 C   0  0  0  0  0  3  0  0  0  0  0  0
  183.0970  177.2680  137.2190 C   0  0  0  0  0  3  0  0  0  0  0  0
  181.5060  178.2390  135.6700 C   0  0  0  0  0  3  0  0  0  0  0  0
  181.8950  177.9440  136.9830 C   0  0  0  0  0  0  0  0  0  0  0  0
  182.3200  177.8640  134.5980 C   0  0  0  0  0  3  0  0  0  0  0  0
  2  6  1  0  0  0  0
  2  1  2  0  0  0  0
  3  7  1  0  0  0  0
  4  8  1  0  0  0  0
  5 10  1  0  0  0  0
  5  9  2  0  0  0  0
  7  6  1  0  0  0  0
  8  2  1  0  0  0  0
  9  3  1  0  0  0  0
 10 11  1  0  0  0  0
 11  3  2  0  0  0  0
 11  4  1  0  0  0  0
 12 20  1  0  0  0  0
 13 19  1  0  0  0  0
 14 18  1  0  0  0  0
 14  5  1  1  0  0  0
 16 29  1  6  0  0  0
 17 15  1  6  0  0  0
 17 13  1  0  0  0  0
 17 21  1  0  0  0  0
 18 16  1  0  0  0  0
 19 14  1  0  0  0  0
 20 16  1  0  0  0  0
 20 24  2  0  0  0  0
 21 23  1  0  0  0  0
 22 12  1  0  0  0  0
 23 22  1  0  0  0  0
 23 18  1  0  0  0  0
 25 12  1  0  0  0  0
 26 22  1  0  0  0  0
 27 26  1  0  0  0  0
 28 27  1  0  0  0  0
 28 26  1  0  0  0  0
 29 30  1  0  0  0  0
 30 32  1  0  0  0  0
 31 33  1  0  0  0  0
 32 34  1  0  0  0  0
 34 33  2  0  0  0  0
 35 31  2  0  0  0  0
 36 32  2  0  0  0  0
 36 35  1  0  0  0  0
 37  8  1  0  0  0  0
 38 37  1  0  0  0  0
 39 38  1  0  0  0  0
 40 39  1  0  0  0  0
 41 40  1  0  0  0  0
 43 44  1  0  0  0  0
 43 42  2  0  0  0  0
 44 41  1  0  0  0  0
 45 43  1  0  0  0  0
 46 45  1  0  0  0  0
 46 47  1  0  0  0  0
 48 47  2  0  0  0  0
 49 46  1  0  0  0  0
 50 49  2  0  0  0  0
 51 39  1  0  0  0  0
 52 51  1  0  0  0  0
 53 55  1  0  0  0  0
 54 53  2  0  0  0  0
 56 57  1  0  0  0  0
 57 55  2  0  0  0  0
 57 52  1  0  0  0  0
 58 54  1  0  0  0  0
 58 56  2  0  0  0  0
M  END
>  <MODEL>
4

>  <REMARK>
 VINA RESULT:      -6.4      2.647     10.340
  Name = 
  18 active torsions:
  status: ('A' for Active; 'I' for Inactive)
    1  A    between atoms: C_1  and  C_13
    2  A    between atoms: C_4  and  C_41
    3  A    between atoms: C_7  and  C_10
    4  A    between atoms: C_7  and  C_46
    5  A    between atoms: C_7  and  C_47
    6  A    between atoms: C_10  and  C_54
    7  A    between atoms: C_12  and  C_33
    8  A    between atoms: C_13  and  C_31
    9  A    between atoms: C_13  and  C_39
   10  A    between atoms: C_14  and  C_31
   11  A    between atoms: C_18  and  C_56
   12  A    between atoms: C_19  and  C_24
   13  A    between atoms: C_24  and  C_56
   14  A    between atoms: C_26  and  C_54
   15  A    between atoms: C_28  and  N_43
   16  A    between atoms: C_28  and  C_47
   17  A    between atoms: N_38  and  C_40
   18  A    between atoms: C_40  and  C_46
                            x       y       z     vdW  Elec       q    Type
                         _______ _______ _______ _____ _____    ______ ____

>  <TORSDO>
F 18

$$$$
=
 OpenBabel11062418023D

 58 64  0  0  1  0  0  0  0  0999 V2000
  180.9600  178.8260  144.5320 O   0  0  0  0  0  0  0  0  0  0  0  0
  181.9360  178.9910  143.7530 C   0  0  0  0  0  0  0  0  0  0  0  0
  184.7190  179.1240  142.3120 C   0  0  0  0  0  0  0  0  0  0  0  0
  182.4550  178.1500  141.4720 C   0  0  0  0  0  2  0  0  0  0  0  0
  185.8650  178.6220  140.6080 C   0  0  0  0  0  0  0  0  0  0  0  0
  183.2540  179.0950  144.2880 N   0  0  0  0  0  2  0  0  0  0  0  0
  184.3130  179.8060  143.5830 C   0  0  0  0  0  2  0  0  0  0  0  0
  181.7260  179.0630  142.3400 N   0  0  0  0  0  0  0  0  0  0  0  0
  185.9670  179.2200  141.8140 N   0  0  0  0  0  0  0  0  0  0  0  0
  184.6510  178.1910  140.3480 O   0  0  0  0  0  0  0  0  0  0  0  0
  183.9080  178.4970  141.3790 C   0  0  0  0  0  0  0  0  0  0  0  0
  190.8250  177.8820  141.1340 N   0  0  0  0  0  0  0  0  0  0  0  0
  187.4950  177.7830  137.2120 C   0  0  0  0  0  2  0  0  0  0  0  0
  187.0200  178.4760  139.6680 C   0  0  1  0  0  3  0  0  0  0  0  0
  189.5010  178.3810  136.0740 O   0  0  0  0  0  1  0  0  0  0  0  0
  188.3660  177.6540  141.6870 C   0  0  2  0  0  3  0  0  0  0  0  0
  188.7220  178.6990  137.1840 C   0  0  2  0  0  3  0  0  0  0  0  0
  188.0680  177.4550  140.1790 C   0  0  2  0  0  3  0  0  0  0  0  0
  186.4620  178.1760  138.2680 C   0  0  0  0  0  2  0  0  0  0  0  0
  189.7100  178.2800  141.9330 C   0  0  0  0  0  0  0  0  0  0  0  0
  189.5870  178.6110  138.4500 C   0  0  0  0  0  2  0  0  0  0  0  0
  190.5830  176.9170  140.0620 C   0  0  1  0  0  3  0  0  0  0  0  0
  189.3360  177.3330  139.2680 C   0  0  1  0  0  3  0  0  0  0  0  0
  189.8510  179.1320  142.8500 O   0  0  0  0  0  0  0  0  0  0  0  0
  192.0360  178.4640  141.3110 O   0  0  0  0  0  1  0  0  0  0  0  0
  191.8040  176.7130  139.1670 C   0  0  0  0  0  3  0  0  0  0  0  0
  191.8100  175.2900  138.6420 C   0  0  0  0  0  2  0  0  0  0  0  0
  191.3470  176.4220  137.7510 C   0  0  0  0  0  2  0  0  0  0  0  0
  188.2540  176.3130  142.4000 C   0  0  0  0  0  2  0  0  0  0  0  0
  187.1890  176.3620  143.4830 C   0  0  0  0  0  2  0  0  0  0  0  0
  188.9190  177.8800  147.1030 C   0  0  0  0  0  3  0  0  0  0  0  0
  187.7850  176.8620  144.7530 C   0  0  0  0  0  0  0  0  0  0  0  0
  189.7250  177.2350  146.1590 C   0  0  0  0  0  3  0  0  0  0  0  0
  189.1600  176.7290  144.9840 C   0  0  0  0  0  3  0  0  0  0  0  0
  187.5450  178.0190  146.8720 C   0  0  0  0  0  3  0  0  0  0  0  0
  186.9800  177.5150  145.6960 C   0  0  0  0  0  3  0  0  0  0  0  0
  180.5980  179.8150  141.8050 C   0  0  0  0  0  2  0  0  0  0  0  0
  179.8540  178.9850  140.7710 C   0  0  0  0  0  2  0  0  0  0  0  0
  179.5620  179.8160  139.5310 C   0  0  2  0  0  3  0  0  0  0  0  0
  179.8770  179.0590  138.2350 C   0  0  0  0  0  2  0  0  0  0  0  0
  179.9330  177.5450  138.4140 C   0  0  0  0  0  2  0  0  0  0  0  0
  181.1190  175.2260  139.5980 O   0  0  0  0  0  0  0  0  0  0  0  0
  181.8290  175.9180  138.8190 C   0  0  0  0  0  0  0  0  0  0  0  0
  181.2780  177.0520  138.1480 N   0  0  0  0  0  2  0  0  0  0  0  0
  183.2490  175.5340  138.5780 C   0  0  0  0  0  2  0  0  0  0  0  0
  183.4260  174.9420  137.1850 C   0  0  0  0  0  3  0  0  0  0  0  0
  184.0370  173.5810  137.2940 C   0  0  0  0  0  3  0  0  0  0  0  0
  185.2500  173.4380  137.2570 O   0  0  0  0  0  0  0  0  0  0  0  0
  184.3160  175.8230  136.3690 C   0  0  0  0  0  3  0  0  0  0  0  0
  183.9460  176.9350  136.0310 O   0  0  0  0  0  0  0  0  0  0  0  0
  180.2810  181.1560  139.6050 C   0  0  0  0  0  2  0  0  0  0  0  0
  181.3680  181.2290  138.5440 C   0  0  0  0  0  2  0  0  0  0  0  0
  181.5110  184.6650  136.9610 C   0  0  0  0  0  3  0  0  0  0  0  0
  180.6270  184.5110  135.8880 C   0  0  0  0  0  3  0  0  0  0  0  0
  181.7520  183.5930  137.8270 C   0  0  0  0  0  3  0  0  0  0  0  0
  180.2260  182.2150  136.5440 C   0  0  0  0  0  3  0  0  0  0  0  0
  181.1080  182.3680  137.6220 C   0  0  0  0  0  0  0  0  0  0  0  0
  179.9870  183.2860  135.6790 C   0  0  0  0  0  3  0  0  0  0  0  0
  2  6  1  0  0  0  0
  2  1  2  0  0  0  0
  3  7  1  0  0  0  0
  4  8  1  0  0  0  0
  5  9  2  0  0  0  0
  7  6  1  0  0  0  0
  8  2  1  0  0  0  0
  9  3  1  0  0  0  0
 10  5  1  0  0  0  0
 10 11  1  0  0  0  0
 11  4  1  0  0  0  0
 11  3  2  0  0  0  0
 12 25  1  0  0  0  0
 12 20  1  0  0  0  0
 13 19  1  0  0  0  0
 14 18  1  0  0  0  0
 14  5  1  1  0  0  0
 16 20  1  0  0  0  0
 16 29  1  1  0  0  0
 17 15  1  6  0  0  0
 17 13  1  0  0  0  0
 17 21  1  0  0  0  0
 18 16  1  0  0  0  0
 19 14  1  0  0  0  0
 20 24  2  0  0  0  0
 21 23  1  0  0  0  0
 22 12  1  0  0  0  0
 23 22  1  0  0  0  0
 23 18  1  0  0  0  0
 26 22  1  0  0  0  0
 27 26  1  0  0  0  0
 28 27  1  0  0  0  0
 28 26  1  0  0  0  0
 29 30  1  0  0  0  0
 30 32  1  0  0  0  0
 32 34  2  0  0  0  0
 32 36  1  0  0  0  0
 33 31  2  0  0  0  0
 34 33  1  0  0  0  0
 35 31  1  0  0  0  0
 36 35  2  0  0  0  0
 37  8  1  0  0  0  0
 38 37  1  0  0  0  0
 39 51  1  0  0  0  0
 39 38  1  0  0  0  0
 40 41  1  0  0  0  0
 40 39  1  0  0  0  0
 43 42  2  0  0  0  0
 44 41  1  0  0  0  0
 44 43  1  0  0  0  0
 45 43  1  0  0  0  0
 46 47  1  0  0  0  0
 46 45  1  0  0  0  0
 48 47  2  0  0  0  0
 49 46  1  0  0  0  0
 50 49  2  0  0  0  0
 52 51  1  0  0  0  0
 53 55  1  0  0  0  0
 54 53  2  0  0  0  0
 56 57  1  0  0  0  0
 57 55  2  0  0  0  0
 57 52  1  0  0  0  0
 58 54  1  0  0  0  0
 58 56  2  0  0  0  0
M  END
>  <MODEL>
5

>  <REMARK>
 VINA RESULT:      -6.3      2.442      9.708
  Name = 
  18 active torsions:
  status: ('A' for Active; 'I' for Inactive)
    1  A    between atoms: C_1  and  C_13
    2  A    between atoms: C_4  and  C_41
    3  A    between atoms: C_7  and  C_10
    4  A    between atoms: C_7  and  C_46
    5  A    between atoms: C_7  and  C_47
    6  A    between atoms: C_10  and  C_54
    7  A    between atoms: C_12  and  C_33
    8  A    between atoms: C_13  and  C_31
    9  A    between atoms: C_13  and  C_39
   10  A    between atoms: C_14  and  C_31
   11  A    between atoms: C_18  and  C_56
   12  A    between atoms: C_19  and  C_24
   13  A    between atoms: C_24  and  C_56
   14  A    between atoms: C_26  and  C_54
   15  A    between atoms: C_28  and  N_43
   16  A    between atoms: C_28  and  C_47
   17  A    between atoms: N_38  and  C_40
   18  A    between atoms: C_40  and  C_46
                            x       y       z     vdW  Elec       q    Type
                         _______ _______ _______ _____ _____    ______ ____

>  <TORSDO>
F 18

$$$$
=
 OpenBabel11062418023D

 58 64  0  0  1  0  0  0  0  0999 V2000
  182.6180  179.1620  145.5150 O   0  0  0  0  0  0  0  0  0  0  0  0
  183.3700  179.2370  144.5060 C   0  0  0  0  0  0  0  0  0  0  0  0
  185.7300  179.3220  142.4420 C   0  0  0  0  0  0  0  0  0  0  0  0
  183.5450  177.9070  142.4120 C   0  0  0  0  0  2  0  0  0  0  0  0
  186.5700  178.5400  140.6670 C   0  0  0  0  0  0  0  0  0  0  0  0
  184.7310  179.6280  144.6690 N   0  0  0  0  0  2  0  0  0  0  0  0
  185.4830  180.2540  143.5890 C   0  0  0  0  0  2  0  0  0  0  0  0
  182.8640  178.9190  143.2060 N   0  0  0  0  0  0  0  0  0  0  0  0
  186.8130  179.4330  141.6480 N   0  0  0  0  0  0  0  0  0  0  0  0
  185.4210  177.9170  140.8100 O   0  0  0  0  0  0  0  0  0  0  0  0
  184.8650  178.3870  141.8960 C   0  0  0  0  0  0  0  0  0  0  0  0
  191.4650  177.3960  140.2780 N   0  0  0  0  0  0  0  0  0  0  0  0
  187.4640  177.5540  137.0450 C   0  0  0  0  0  2  0  0  0  0  0  0
  187.5130  178.2950  139.5320 C   0  0  1  0  0  3  0  0  0  0  0  0
  189.2650  177.9790  135.5420 O   0  0  0  0  0  1  0  0  0  0  0  0
  189.1430  177.3740  141.2820 C   0  0  2  0  0  3  0  0  0  0  0  0
  188.7340  178.3660  136.7710 C   0  0  2  0  0  3  0  0  0  0  0  0
  188.5530  177.1930  139.8590 C   0  0  2  0  0  3  0  0  0  0  0  0
  186.6810  178.0360  138.2660 C   0  0  0  0  0  2  0  0  0  0  0  0
  190.5540  177.8880  141.2620 C   0  0  0  0  0  0  0  0  0  0  0  0
  189.8100  178.2120  137.8550 C   0  0  0  0  0  2  0  0  0  0  0  0
  190.9510  176.4490  139.2880 C   0  0  1  0  0  3  0  0  0  0  0  0
  189.6140  176.9630  138.7310 C   0  0  1  0  0  3  0  0  0  0  0  0
  190.9320  178.7290  142.1190 O   0  0  0  0  0  0  0  0  0  0  0  0
  192.7300  177.8770  140.2140 O   0  0  0  0  0  1  0  0  0  0  0  0
  191.9620  176.1410  138.1860 C   0  0  0  0  0  3  0  0  0  0  0  0
  192.0110  174.6430  137.9530 C   0  0  0  0  0  2  0  0  0  0  0  0
  191.2440  175.5330  136.9980 C   0  0  0  0  0  2  0  0  0  0  0  0
  189.0590  176.0500  142.0290 C   0  0  0  0  0  2  0  0  0  0  0  0
  188.0490  176.1300  143.1630 C   0  0  0  0  0  2  0  0  0  0  0  0
  189.9560  177.5150  146.7470 C   0  0  0  0  0  3  0  0  0  0  0  0
  188.7130  176.6380  144.3940 C   0  0  0  0  0  0  0  0  0  0  0  0
  188.5660  177.6000  146.6160 C   0  0  0  0  0  3  0  0  0  0  0  0
  187.9440  177.1590  145.4430 C   0  0  0  0  0  3  0  0  0  0  0  0
  190.7260  176.9890  145.7020 C   0  0  0  0  0  3  0  0  0  0  0  0
  190.1050  176.5480  144.5300 C   0  0  0  0  0  3  0  0  0  0  0  0
  181.5370  179.3720  142.8070 C   0  0  0  0  0  2  0  0  0  0  0  0
  180.6600  178.1820  142.4500 C   0  0  0  0  0  2  0  0  0  0  0  0
  180.2380  178.2510  140.9890 C   0  0  2  0  0  3  0  0  0  0  0  0
  180.1710  179.6920  140.4700 C   0  0  0  0  0  2  0  0  0  0  0  0
  180.6110  179.8340  139.0150 C   0  0  0  0  0  2  0  0  0  0  0  0
  183.4540  179.9760  138.7420 O   0  0  0  0  0  0  0  0  0  0  0  0
  182.8900  178.8840  138.4630 C   0  0  0  0  0  0  0  0  0  0  0  0
  181.4820  178.7280  138.6380 N   0  0  0  0  0  2  0  0  0  0  0  0
  183.7060  177.7380  137.9710 C   0  0  0  0  0  2  0  0  0  0  0  0
  182.8380  176.7230  137.2380 C   0  0  0  0  0  3  0  0  0  0  0  0
  182.8770  175.4150  137.9620 C   0  0  0  0  0  3  0  0  0  0  0  0
  182.6840  175.3650  139.1670 O   0  0  0  0  0  0  0  0  0  0  0  0
  183.3440  176.5360  135.8440 C   0  0  0  0  0  3  0  0  0  0  0  0
  184.3810  175.9270  135.6370 O   0  0  0  0  0  0  0  0  0  0  0  0
  178.9310  177.4990  140.7760 C   0  0  0  0  0  2  0  0  0  0  0  0
  179.1640  176.0000  140.8760 C   0  0  0  0  0  2  0  0  0  0  0  0
  179.5610  173.4670  138.0910 C   0  0  0  0  0  3  0  0  0  0  0  0
  179.3630  174.2660  136.9610 C   0  0  0  0  0  3  0  0  0  0  0  0
  179.4960  174.0330  139.3690 C   0  0  0  0  0  3  0  0  0  0  0  0
  179.0320  176.1980  138.3820 C   0  0  0  0  0  3  0  0  0  0  0  0
  179.2340  175.4000  139.5160 C   0  0  0  0  0  0  0  0  0  0  0  0
  179.0970  175.6310  137.1070 C   0  0  0  0  0  3  0  0  0  0  0  0
  2  6  1  0  0  0  0
  2  1  2  0  0  0  0
  3  7  1  0  0  0  0
  4  8  1  0  0  0  0
  5 10  1  0  0  0  0
  5  9  2  0  0  0  0
  7  6  1  0  0  0  0
  8  2  1  0  0  0  0
  9  3  1  0  0  0  0
 10 11  1  0  0  0  0
 11  4  1  0  0  0  0
 11  3  2  0  0  0  0
 12 20  1  0  0  0  0
 13 19  1  0  0  0  0
 14 18  1  0  0  0  0
 14  5  1  1  0  0  0
 16 29  1  6  0  0  0
 17 15  1  6  0  0  0
 17 13  1  0  0  0  0
 17 21  1  0  0  0  0
 18 16  1  0  0  0  0
 19 14  1  0  0  0  0
 20 16  1  0  0  0  0
 20 24  2  0  0  0  0
 21 23  1  0  0  0  0
 22 12  1  0  0  0  0
 23 22  1  0  0  0  0
 23 18  1  0  0  0  0
 25 12  1  0  0  0  0
 26 22  1  0  0  0  0
 27 26  1  0  0  0  0
 28 27  1  0  0  0  0
 28 26  1  0  0  0  0
 29 30  1  0  0  0  0
 30 32  1  0  0  0  0
 32 36  2  0  0  0  0
 32 34  1  0  0  0  0
 33 31  1  0  0  0  0
 34 33  2  0  0  0  0
 35 31  2  0  0  0  0
 36 35  1  0  0  0  0
 37  8  1  0  0  0  0
 38 37  1  0  0  0  0
 39 38  1  0  0  0  0
 40 39  1  0  0  0  0
 41 40  1  0  0  0  0
 43 44  1  0  0  0  0
 43 42  2  0  0  0  0
 44 41  1  0  0  0  0
 45 43  1  0  0  0  0
 46 47  1  0  0  0  0
 46 45  1  0  0  0  0
 47 48  2  0  0  0  0
 49 46  1  0  0  0  0
 50 49  2  0  0  0  0
 51 52  1  0  0  0  0
 51 39  1  0  0  0  0
 53 55  1  0  0  0  0
 54 58  1  0  0  0  0
 54 53  2  0  0  0  0
 55 57  2  0  0  0  0
 56 57  1  0  0  0  0
 57 52  1  0  0  0  0
 58 56  2  0  0  0  0
M  END
>  <MODEL>
6

>  <REMARK>
 VINA RESULT:      -6.0      2.037      9.584
  Name = 
  18 active torsions:
  status: ('A' for Active; 'I' for Inactive)
    1  A    between atoms: C_1  and  C_13
    2  A    between atoms: C_4  and  C_41
    3  A    between atoms: C_7  and  C_10
    4  A    between atoms: C_7  and  C_46
    5  A    between atoms: C_7  and  C_47
    6  A    between atoms: C_10  and  C_54
    7  A    between atoms: C_12  and  C_33
    8  A    between atoms: C_13  and  C_31
    9  A    between atoms: C_13  and  C_39
   10  A    between atoms: C_14  and  C_31
   11  A    between atoms: C_18  and  C_56
   12  A    between atoms: C_19  and  C_24
   13  A    between atoms: C_24  and  C_56
   14  A    between atoms: C_26  and  C_54
   15  A    between atoms: C_28  and  N_43
   16  A    between atoms: C_28  and  C_47
   17  A    between atoms: N_38  and  C_40
   18  A    between atoms: C_40  and  C_46
                            x       y       z     vdW  Elec       q    Type
                         _______ _______ _______ _____ _____    ______ ____

>  <TORSDO>
F 18

$$$$
=
 OpenBabel11062418023D

 58 64  0  0  1  0  0  0  0  0999 V2000
  184.9440  173.9140  135.2990 O   0  0  0  0  0  0  0  0  0  0  0  0
  186.1550  173.6570  135.5330 C   0  0  0  0  0  0  0  0  0  0  0  0
  189.0720  172.5150  135.6840 C   0  0  0  0  0  0  0  0  0  0  0  0
  188.2580  174.9460  135.2240 C   0  0  0  0  0  2  0  0  0  0  0  0
  191.1430  172.8940  135.4840 C   0  0  0  0  0  0  0  0  0  0  0  0
  186.6430  172.3310  135.3450 N   0  0  0  0  0  2  0  0  0  0  0  0
  187.8000  171.8290  136.0750 C   0  0  0  0  0  2  0  0  0  0  0  0
  187.0380  174.6920  135.9750 N   0  0  0  0  0  0  0  0  0  0  0  0
  190.2690  171.9000  135.7500 N   0  0  0  0  0  0  0  0  0  0  0  0
  190.5580  174.0520  135.2790 O   0  0  0  0  0  0  0  0  0  0  0  0
  189.2710  173.8590  135.4080 C   0  0  0  0  0  0  0  0  0  0  0  0
  195.1740  175.8910  135.9190 N   0  0  0  0  0  0  0  0  0  0  0  0
  194.3730  170.8090  135.8130 C   0  0  0  0  0  2  0  0  0  0  0  0
  192.6240  172.6890  135.4390 C   0  0  1  0  0  3  0  0  0  0  0  0
  196.5900  170.9260  134.9470 O   0  0  0  0  0  1  0  0  0  0  0  0
  192.8290  175.0620  136.3850 C   0  0  2  0  0  3  0  0  0  0  0  0
  195.3190  171.4810  134.8140 C   0  0  2  0  0  3  0  0  0  0  0  0
  193.3750  173.6120  136.4330 C   0  0  2  0  0  3  0  0  0  0  0  0
  192.9060  171.1900  135.6180 C   0  0  0  0  0  2  0  0  0  0  0  0
  193.7680  176.0110  135.6950 C   0  0  0  0  0  0  0  0  0  0  0  0
  195.4140  173.0040  134.9810 C   0  0  0  0  0  2  0  0  0  0  0  0
  195.6360  174.7950  136.7710 C   0  0  1  0  0  3  0  0  0  0  0  0
  194.9340  173.4930  136.3590 C   0  0  1  0  0  3  0  0  0  0  0  0
  193.3140  176.9140  134.9450 O   0  0  0  0  0  0  0  0  0  0  0  0
  196.0420  176.7090  135.2740 O   0  0  0  0  0  1  0  0  0  0  0  0
  197.1580  174.6610  136.7840 C   0  0  0  0  0  3  0  0  0  0  0  0
  197.6620  174.7900  138.2080 C   0  0  0  0  0  2  0  0  0  0  0  0
  197.5470  173.4230  137.5670 C   0  0  0  0  0  2  0  0  0  0  0  0
  192.5300  175.5310  137.8020 C   0  0  0  0  0  2  0  0  0  0  0  0
  191.4540  176.6050  137.8030 C   0  0  0  0  0  2  0  0  0  0  0  0
  190.3270  177.4400  141.8570 C   0  0  0  0  0  3  0  0  0  0  0  0
  191.0630  176.9250  139.2040 C   0  0  0  0  0  0  0  0  0  0  0  0
  189.3420  177.2330  140.8850 C   0  0  0  0  0  3  0  0  0  0  0  0
  189.7090  176.9720  139.5600 C   0  0  0  0  0  3  0  0  0  0  0  0
  191.6810  177.3870  141.5030 C   0  0  0  0  0  3  0  0  0  0  0  0
  192.0480  177.1260  140.1800 C   0  0  0  0  0  3  0  0  0  0  0  0
  186.5890  175.6640  136.9650 C   0  0  0  0  0  2  0  0  0  0  0  0
  186.2400  176.9810  136.2900 C   0  0  0  0  0  2  0  0  0  0  0  0
  185.0690  177.6480  136.9950 C   0  0  2  0  0  3  0  0  0  0  0  0
  185.3180  177.8250  138.4980 C   0  0  0  0  0  2  0  0  0  0  0  0
  184.5510  178.9950  139.1070 C   0  0  0  0  0  2  0  0  0  0  0  0
  183.8820  177.9110  141.6680 O   0  0  0  0  0  0  0  0  0  0  0  0
  184.7250  178.8470  141.6270 C   0  0  0  0  0  0  0  0  0  0  0  0
  185.1480  179.3890  140.3760 N   0  0  0  0  0  2  0  0  0  0  0  0
  185.3040  179.3740  142.8960 C   0  0  0  0  0  2  0  0  0  0  0  0
  185.4500  178.2660  143.9320 C   0  0  0  0  0  3  0  0  0  0  0  0
  185.4080  178.8570  145.3050 C   0  0  0  0  0  3  0  0  0  0  0  0
  184.9620  178.2160  146.2450 O   0  0  0  0  0  0  0  0  0  0  0  0
  186.7510  177.5560  143.7350 C   0  0  0  0  0  3  0  0  0  0  0  0
  187.5520  177.4670  144.6510 O   0  0  0  0  0  0  0  0  0  0  0  0
  183.7770  176.8950  136.7110 C   0  0  0  0  0  2  0  0  0  0  0  0
  183.4310  175.9830  137.8780 C   0  0  0  0  0  2  0  0  0  0  0  0
  180.3890  176.2450  140.1150 C   0  0  0  0  0  3  0  0  0  0  0  0
  179.4360  176.7520  139.2250 C   0  0  0  0  0  3  0  0  0  0  0  0
  181.6930  175.9950  139.6740 C   0  0  0  0  0  3  0  0  0  0  0  0
  181.0880  176.7600  137.4550 C   0  0  0  0  0  3  0  0  0  0  0  0
  182.0430  176.2490  138.3430 C   0  0  0  0  0  0  0  0  0  0  0  0
  179.7860  177.0110  137.8970 C   0  0  0  0  0  3  0  0  0  0  0  0
  1  2  2  0  0  0  0
  2  8  1  0  0  0  0
  3  9  1  0  0  0  0
  3  7  1  0  0  0  0
  4 11  1  0  0  0  0
  4  8  1  0  0  0  0
  5  9  2  0  0  0  0
  6  2  1  0  0  0  0
  6  7  1  0  0  0  0
  8 37  1  0  0  0  0
 10 11  1  0  0  0  0
 10  5  1  0  0  0  0
 11  3  2  0  0  0  0
 12 22  1  0  0  0  0
 14  5  1  1  0  0  0
 14 19  1  0  0  0  0
 14 18  1  0  0  0  0
 16 18  1  0  0  0  0
 16 29  1  1  0  0  0
 17 15  1  1  0  0  0
 17 21  1  0  0  0  0
 17 13  1  0  0  0  0
 19 13  1  0  0  0  0
 20 12  1  0  0  0  0
 20 16  1  0  0  0  0
 21 23  1  0  0  0  0
 22 26  1  0  0  0  0
 23 18  1  0  0  0  0
 23 22  1  0  0  0  0
 24 20  2  0  0  0  0
 25 12  1  0  0  0  0
 26 28  1  0  0  0  0
 26 27  1  0  0  0  0
 28 27  1  0  0  0  0
 29 30  1  0  0  0  0
 30 32  1  0  0  0  0
 32 34  2  0  0  0  0
 32 36  1  0  0  0  0
 33 31  2  0  0  0  0
 34 33  1  0  0  0  0
 35 31  1  0  0  0  0
 36 35  2  0  0  0  0
 38 37  1  0  0  0  0
 38 39  1  0  0  0  0
 39 40  1  0  0  0  0
 40 41  1  0  0  0  0
 41 44  1  0  0  0  0
 43 42  2  0  0  0  0
 43 45  1  0  0  0  0
 44 43  1  0  0  0  0
 45 46  1  0  0  0  0
 46 47  1  0  0  0  0
 47 48  2  0  0  0  0
 49 46  1  0  0  0  0
 49 50  2  0  0  0  0
 51 39  1  0  0  0  0
 51 52  1  0  0  0  0
 52 57  1  0  0  0  0
 54 53  2  0  0  0  0
 55 53  1  0  0  0  0
 56 58  2  0  0  0  0
 56 57  1  0  0  0  0
 57 55  2  0  0  0  0
 58 54  1  0  0  0  0
M  END
>  <MODEL>
7

>  <REMARK>
 VINA RESULT:      -5.9      3.014     12.023
  Name = 
  18 active torsions:
  status: ('A' for Active; 'I' for Inactive)
    1  A    between atoms: C_1  and  C_13
    2  A    between atoms: C_4  and  C_41
    3  A    between atoms: C_7  and  C_10
    4  A    between atoms: C_7  and  C_46
    5  A    between atoms: C_7  and  C_47
    6  A    between atoms: C_10  and  C_54
    7  A    between atoms: C_12  and  C_33
    8  A    between atoms: C_13  and  C_31
    9  A    between atoms: C_13  and  C_39
   10  A    between atoms: C_14  and  C_31
   11  A    between atoms: C_18  and  C_56
   12  A    between atoms: C_19  and  C_24
   13  A    between atoms: C_24  and  C_56
   14  A    between atoms: C_26  and  C_54
   15  A    between atoms: C_28  and  N_43
   16  A    between atoms: C_28  and  C_47
   17  A    between atoms: N_38  and  C_40
   18  A    between atoms: C_40  and  C_46
                            x       y       z     vdW  Elec       q    Type
                         _______ _______ _______ _____ _____    ______ ____

>  <TORSDO>
F 18

$$$$
=
 OpenBabel11062418023D

 58 64  0  0  1  0  0  0  0  0999 V2000
  192.0460  176.9540  137.6140 O   0  0  0  0  0  0  0  0  0  0  0  0
  190.8020  176.7620  137.5420 C   0  0  0  0  0  0  0  0  0  0  0  0
  187.8040  176.3830  136.7040 C   0  0  0  0  0  0  0  0  0  0  0  0
  189.3400  174.8380  138.1300 C   0  0  0  0  0  2  0  0  0  0  0  0
  186.0930  175.1410  136.7300 C   0  0  0  0  0  0  0  0  0  0  0  0
  190.0680  177.3110  136.4500 N   0  0  0  0  0  2  0  0  0  0  0  0
  188.6460  177.6130  136.5580 C   0  0  0  0  0  2  0  0  0  0  0  0
  190.1340  175.9870  138.5410 N   0  0  0  0  0  0  0  0  0  0  0  0
  186.5330  176.3270  136.2600 N   0  0  0  0  0  0  0  0  0  0  0  0
  187.0000  174.4960  137.4290 O   0  0  0  0  0  0  0  0  0  0  0  0
  188.0720  175.2430  137.4460 C   0  0  0  0  0  0  0  0  0  0  0  0
  181.5390  176.0560  138.6910 N   0  0  0  0  0  0  0  0  0  0  0  0
  183.3260  173.5070  134.5940 C   0  0  0  0  0  2  0  0  0  0  0  0
  184.7110  174.6260  136.4820 C   0  0  1  0  0  3  0  0  0  0  0  0
  181.3100  172.3080  135.0160 O   0  0  0  0  0  1  0  0  0  0  0  0
  183.8860  176.5880  137.9090 C   0  0  2  0  0  3  0  0  0  0  0  0
  182.4520  172.8090  135.6390 C   0  0  2  0  0  3  0  0  0  0  0  0
  183.6350  175.7310  136.6430 C   0  0  2  0  0  3  0  0  0  0  0  0
  184.7020  173.9150  135.1200 C   0  0  0  0  0  2  0  0  0  0  0  0
  182.9110  176.2890  139.0130 C   0  0  0  0  0  0  0  0  0  0  0  0
  182.0320  173.7200  136.8020 C   0  0  0  0  0  2  0  0  0  0  0  0
  181.1610  176.0600  137.2780 C   0  0  1  0  0  3  0  0  0  0  0  0
  182.1650  175.2170  136.4760 C   0  0  1  0  0  3  0  0  0  0  0  0
  183.3010  176.2650  140.2100 O   0  0  0  0  0  0  0  0  0  0  0  0
  180.6510  175.7430  139.6660 O   0  0  0  0  0  1  0  0  0  0  0  0
  179.7170  175.6190  137.0530 C   0  0  0  0  0  3  0  0  0  0  0  0
  178.9480  176.7400  136.3790 C   0  0  0  0  0  2  0  0  0  0  0  0
  179.4340  175.5600  135.5640 C   0  0  0  0  0  2  0  0  0  0  0  0
  183.8410  178.0630  137.5320 C   0  0  0  0  0  2  0  0  0  0  0  0
  183.4490  178.9170  138.7260 C   0  0  0  0  0  2  0  0  0  0  0  0
  180.4210  181.7500  137.6270 C   0  0  0  0  0  3  0  0  0  0  0  0
  182.4130  179.9060  138.3190 C   0  0  0  0  0  0  0  0  0  0  0  0
  180.3040  180.4130  137.2330 C   0  0  0  0  0  3  0  0  0  0  0  0
  181.2970  179.4910  137.5810 C   0  0  0  0  0  3  0  0  0  0  0  0
  181.5330  182.1660  138.3700 C   0  0  0  0  0  3  0  0  0  0  0  0
  182.5250  181.2450  138.7190 C   0  0  0  0  0  3  0  0  0  0  0  0
  190.4760  176.1570  139.9480 C   0  0  0  0  0  2  0  0  0  0  0  0
  190.5430  177.6350  140.3000 C   0  0  0  0  0  2  0  0  0  0  0  0
  190.0420  177.8680  141.7180 C   0  0  2  0  0  3  0  0  0  0  0  0
  188.7970  178.7610  141.7550 C   0  0  0  0  0  2  0  0  0  0  0  0
  187.4870  177.9780  141.7240 C   0  0  0  0  0  2  0  0  0  0  0  0
  188.0030  176.2750  143.9640 O   0  0  0  0  0  0  0  0  0  0  0  0
  187.0850  177.1320  144.0750 C   0  0  0  0  0  0  0  0  0  0  0  0
  186.8200  178.0540  143.0170 N   0  0  0  0  0  2  0  0  0  0  0  0
  186.2880  177.2000  145.3330 C   0  0  0  0  0  2  0  0  0  0  0  0
  186.9290  178.1520  146.3360 C   0  0  0  0  0  3  0  0  0  0  0  0
  187.3710  177.3850  147.5420 C   0  0  0  0  0  3  0  0  0  0  0  0
  188.5440  177.3870  147.8860 O   0  0  0  0  0  0  0  0  0  0  0  0
  185.9430  179.1970  146.7450 C   0  0  0  0  0  3  0  0  0  0  0  0
  184.7550  179.0570  146.5030 O   0  0  0  0  0  0  0  0  0  0  0  0
  191.1630  178.4040  142.5970 C   0  0  0  0  0  2  0  0  0  0  0  0
  190.7290  178.4130  144.0550 C   0  0  0  0  0  2  0  0  0  0  0  0
  191.6670  175.9680  146.7890 C   0  0  0  0  0  3  0  0  0  0  0  0
  192.1220  174.8790  146.0390 C   0  0  0  0  0  3  0  0  0  0  0  0
  191.2130  177.1220  146.1400 C   0  0  0  0  0  3  0  0  0  0  0  0
  191.6670  176.0910  143.9940 C   0  0  0  0  0  3  0  0  0  0  0  0
  191.2140  177.1860  144.7420 C   0  0  0  0  0  0  0  0  0  0  0  0
  192.1200  174.9400  144.6430 C   0  0  0  0  0  3  0  0  0  0  0  0
  2  1  2  0  0  0  0
  2  8  1  0  0  0  0
  3 11  2  0  0  0  0
  4  8  1  0  0  0  0
  5 10  1  0  0  0  0
  6  7  1  0  0  0  0
  6  2  1  0  0  0  0
  7  3  1  0  0  0  0
  8 37  1  0  0  0  0
  9  3  1  0  0  0  0
  9  5  2  0  0  0  0
 10 11  1  0  0  0  0
 11  4  1  0  0  0  0
 12 20  1  0  0  0  0
 12 25  1  0  0  0  0
 13 19  1  0  0  0  0
 13 17  1  0  0  0  0
 14 18  1  0  0  0  0
 14  5  1  6  0  0  0
 16 29  1  6  0  0  0
 16 20  1  0  0  0  0
 17 15  1  6  0  0  0
 17 21  1  0  0  0  0
 18 16  1  0  0  0  0
 19 14  1  0  0  0  0
 20 24  2  0  0  0  0
 22 12  1  0  0  0  0
 23 18  1  0  0  0  0
 23 21  1  0  0  0  0
 23 22  1  0  0  0  0
 26 22  1  0  0  0  0
 27 26  1  0  0  0  0
 28 27  1  0  0  0  0
 28 26  1  0  0  0  0
 29 30  1  0  0  0  0
 31 35  1  0  0  0  0
 32 36  1  0  0  0  0
 32 30  1  0  0  0  0
 33 34  1  0  0  0  0
 33 31  2  0  0  0  0
 34 32  2  0  0  0  0
 35 36  2  0  0  0  0
 37 38  1  0  0  0  0
 38 39  1  0  0  0  0
 39 40  1  0  0  0  0
 39 51  1  0  0  0  0
 41 40  1  0  0  0  0
 41 44  1  0  0  0  0
 42 43  2  0  0  0  0
 43 45  1  0  0  0  0
 44 43  1  0  0  0  0
 45 46  1  0  0  0  0
 46 49  1  0  0  0  0
 46 47  1  0  0  0  0
 47 48  2  0  0  0  0
 50 49  2  0  0  0  0
 51 52  1  0  0  0  0
 52 57  1  0  0  0  0
 54 53  2  0  0  0  0
 55 53  1  0  0  0  0
 56 58  2  0  0  0  0
 56 57  1  0  0  0  0
 57 55  2  0  0  0  0
 58 54  1  0  0  0  0
M  END
>  <MODEL>
8

>  <REMARK>
 VINA RESULT:      -5.7      2.423      6.850
  Name = 
  18 active torsions:
  status: ('A' for Active; 'I' for Inactive)
    1  A    between atoms: C_1  and  C_13
    2  A    between atoms: C_4  and  C_41
    3  A    between atoms: C_7  and  C_10
    4  A    between atoms: C_7  and  C_46
    5  A    between atoms: C_7  and  C_47
    6  A    between atoms: C_10  and  C_54
    7  A    between atoms: C_12  and  C_33
    8  A    between atoms: C_13  and  C_31
    9  A    between atoms: C_13  and  C_39
   10  A    between atoms: C_14  and  C_31
   11  A    between atoms: C_18  and  C_56
   12  A    between atoms: C_19  and  C_24
   13  A    between atoms: C_24  and  C_56
   14  A    between atoms: C_26  and  C_54
   15  A    between atoms: C_28  and  N_43
   16  A    between atoms: C_28  and  C_47
   17  A    between atoms: N_38  and  C_40
   18  A    between atoms: C_40  and  C_46
                            x       y       z     vdW  Elec       q    Type
                         _______ _______ _______ _____ _____    ______ ____

>  <TORSDO>
F 18

$$$$
=
 OpenBabel11062418023D

 58 64  0  0  1  0  0  0  0  0999 V2000
  184.6270  176.3140  136.7670 O   0  0  0  0  0  0  0  0  0  0  0  0
  185.7870  175.8250  136.8280 C   0  0  0  0  0  0  0  0  0  0  0  0
  188.4040  174.1080  136.6280 C   0  0  0  0  0  0  0  0  0  0  0  0
  188.0090  176.6140  136.0400 C   0  0  0  0  0  2  0  0  0  0  0  0
  190.4370  174.0250  136.0530 C   0  0  0  0  0  0  0  0  0  0  0  0
  185.9650  174.4150  136.7110 N   0  0  0  0  0  2  0  0  0  0  0  0
  187.1150  173.7370  137.2940 C   0  0  0  0  0  2  0  0  0  0  0  0
  186.9200  176.6810  137.0030 N   0  0  0  0  0  0  0  0  0  0  0  0
  189.4500  173.2610  136.5660 N   0  0  0  0  0  0  0  0  0  0  0  0
  190.0610  175.2620  135.8190 O   0  0  0  0  0  0  0  0  0  0  0  0
  188.8070  175.3550  136.1760 C   0  0  0  0  0  0  0  0  0  0  0  0
  195.0780  175.9840  136.2600 N   0  0  0  0  0  0  0  0  0  0  0  0
  193.1090  171.2590  135.7300 C   0  0  0  0  0  2  0  0  0  0  0  0
  191.8160  173.5090  135.7900 C   0  0  1  0  0  3  0  0  0  0  0  0
  195.1880  171.0020  134.5940 O   0  0  0  0  0  1  0  0  0  0  0  0
  192.6670  175.6330  136.9440 C   0  0  2  0  0  3  0  0  0  0  0  0
  194.0740  171.8340  134.6900 C   0  0  2  0  0  3  0  0  0  0  0  0
  192.8620  174.1060  136.7670 C   0  0  2  0  0  3  0  0  0  0  0  0
  191.7580  171.9740  135.7720 C   0  0  0  0  0  2  0  0  0  0  0  0
  193.7240  176.4370  136.2390 C   0  0  0  0  0  0  0  0  0  0  0  0
  194.5390  173.2640  135.0020 C   0  0  0  0  0  2  0  0  0  0  0  0
  195.3600  174.7110  136.9240 C   0  0  1  0  0  3  0  0  0  0  0  0
  194.3340  173.6600  136.4740 C   0  0  1  0  0  3  0  0  0  0  0  0
  193.4160  177.5090  135.6550 O   0  0  0  0  0  0  0  0  0  0  0  0
  196.0400  176.6700  135.5960 O   0  0  0  0  0  1  0  0  0  0  0  0
  196.8000  174.2460  136.7200 C   0  0  0  0  0  3  0  0  0  0  0  0
  197.5810  174.4530  138.0040 C   0  0  0  0  0  2  0  0  0  0  0  0
  197.0850  173.0710  137.6340 C   0  0  0  0  0  2  0  0  0  0  0  0
  192.6370  175.9640  138.4300 C   0  0  0  0  0  2  0  0  0  0  0  0
  191.5050  176.9270  138.7480 C   0  0  0  0  0  2  0  0  0  0  0  0
  190.8050  176.8830  142.9800 C   0  0  0  0  0  3  0  0  0  0  0  0
  191.2520  176.9410  140.2150 C   0  0  0  0  0  0  0  0  0  0  0  0
  189.7890  176.4990  142.0990 C   0  0  0  0  0  3  0  0  0  0  0  0
  190.0120  176.5240  140.7180 C   0  0  0  0  0  3  0  0  0  0  0  0
  192.0470  177.2940  142.4800 C   0  0  0  0  0  3  0  0  0  0  0  0
  192.2710  177.3190  141.1000 C   0  0  0  0  0  3  0  0  0  0  0  0
  186.8560  177.7970  137.9400 C   0  0  0  0  0  2  0  0  0  0  0  0
  185.4370  177.9700  138.4570 C   0  0  0  0  0  2  0  0  0  0  0  0
  185.4030  178.9880  139.5870 C   0  0  2  0  0  3  0  0  0  0  0  0
  186.6380  178.8960  140.4910 C   0  0  0  0  0  2  0  0  0  0  0  0
  186.4650  177.9300  141.6590 C   0  0  0  0  0  2  0  0  0  0  0  0
  186.5160  176.6610  144.2230 O   0  0  0  0  0  0  0  0  0  0  0  0
  186.8940  177.8620  144.1520 C   0  0  0  0  0  0  0  0  0  0  0  0
  186.9510  178.5330  142.8930 N   0  0  0  0  0  2  0  0  0  0  0  0
  187.3070  178.5780  145.3920 C   0  0  0  0  0  2  0  0  0  0  0  0
  186.9210  177.7870  146.6360 C   0  0  0  0  0  3  0  0  0  0  0  0
  185.9610  178.5860  147.4590 C   0  0  0  0  0  3  0  0  0  0  0  0
  184.8000  178.7210  147.1040 O   0  0  0  0  0  0  0  0  0  0  0  0
  188.1420  177.4870  147.4450 C   0  0  0  0  0  3  0  0  0  0  0  0
  189.2000  177.2270  146.8970 O   0  0  0  0  0  0  0  0  0  0  0  0
  184.1040  178.8690  140.3730 C   0  0  0  0  0  2  0  0  0  0  0  0
  183.5290  177.4680  140.2300 C   0  0  0  0  0  2  0  0  0  0  0  0
  180.0240  176.4360  139.2420 C   0  0  0  0  0  3  0  0  0  0  0  0
  179.3600  177.6660  139.2570 C   0  0  0  0  0  3  0  0  0  0  0  0
  181.3850  176.3720  139.5600 C   0  0  0  0  0  3  0  0  0  0  0  0
  181.4140  178.7700  139.9080 C   0  0  0  0  0  3  0  0  0  0  0  0
  182.0820  177.5390  139.8910 C   0  0  0  0  0  0  0  0  0  0  0  0
  180.0550  178.8320  139.5910 C   0  0  0  0  0  3  0  0  0  0  0  0
  1  2  2  0  0  0  0
  2  8  1  0  0  0  0
  3  7  1  0  0  0  0
  4 11  1  0  0  0  0
  4  8  1  0  0  0  0
  5  9  2  0  0  0  0
  6  2  1  0  0  0  0
  6  7  1  0  0  0  0
  8 37  1  0  0  0  0
  9  3  1  0  0  0  0
 10  5  1  0  0  0  0
 10 11  1  0  0  0  0
 11  3  2  0  0  0  0
 12 22  1  0  0  0  0
 13 19  1  0  0  0  0
 14  5  1  1  0  0  0
 14 18  1  0  0  0  0
 16 29  1  1  0  0  0
 17 15  1  1  0  0  0
 17 21  1  0  0  0  0
 17 13  1  0  0  0  0
 18 16  1  0  0  0  0
 19 14  1  0  0  0  0
 20 12  1  0  0  0  0
 20 16  1  0  0  0  0
 21 23  1  0  0  0  0
 23 18  1  0  0  0  0
 23 22  1  0  0  0  0
 24 20  2  0  0  0  0
 25 12  1  0  0  0  0
 26 22  1  0  0  0  0
 26 28  1  0  0  0  0
 26 27  1  0  0  0  0
 28 27  1  0  0  0  0
 29 30  1  0  0  0  0
 30 32  1  0  0  0  0
 32 34  2  0  0  0  0
 32 36  1  0  0  0  0
 33 31  2  0  0  0  0
 34 33  1  0  0  0  0
 35 31  1  0  0  0  0
 36 35  2  0  0  0  0
 37 38  1  0  0  0  0
 38 39  1  0  0  0  0
 39 51  1  0  0  0  0
 39 40  1  0  0  0  0
 40 41  1  0  0  0  0
 41 44  1  0  0  0  0
 43 42  2  0  0  0  0
 43 45  1  0  0  0  0
 44 43  1  0  0  0  0
 45 46  1  0  0  0  0
 46 49  1  0  0  0  0
 46 47  1  0  0  0  0
 48 47  2  0  0  0  0
 50 49  2  0  0  0  0
 52 51  1  0  0  0  0
 53 54  2  0  0  0  0
 53 55  1  0  0  0  0
 54 58  1  0  0  0  0
 55 57  2  0  0  0  0
 57 56  1  0  0  0  0
 57 52  1  0  0  0  0
 58 56  2  0  0  0  0
M  END
>  <MODEL>
9

>  <REMARK>
 VINA RESULT:      -4.5      2.809     11.524
  Name = 
  18 active torsions:
  status: ('A' for Active; 'I' for Inactive)
    1  A    between atoms: C_1  and  C_13
    2  A    between atoms: C_4  and  C_41
    3  A    between atoms: C_7  and  C_10
    4  A    between atoms: C_7  and  C_46
    5  A    between atoms: C_7  and  C_47
    6  A    between atoms: C_10  and  C_54
    7  A    between atoms: C_12  and  C_33
    8  A    between atoms: C_13  and  C_31
    9  A    between atoms: C_13  and  C_39
   10  A    between atoms: C_14  and  C_31
   11  A    between atoms: C_18  and  C_56
   12  A    between atoms: C_19  and  C_24
   13  A    between atoms: C_24  and  C_56
   14  A    between atoms: C_26  and  C_54
   15  A    between atoms: C_28  and  N_43
   16  A    between atoms: C_28  and  C_47
   17  A    between atoms: N_38  and  C_40
   18  A    between atoms: C_40  and  C_46
                            x       y       z     vdW  Elec       q    Type
                         _______ _______ _______ _____ _____    ______ ____

>  <TORSDO>
F 18

$$$$
