=
 OpenBabel11062413473D

 35 38  0  0  1  0  0  0  0  0999 V2000
  189.6420  178.0150  139.6440 N   0  0  2  0  0  0  0  0  0  0  0  0
  189.9170  177.5220  141.0240 C   0  0  1  0  0  3  0  0  0  0  0  0
  188.5380  177.7090  140.5780 C   0  0  1  0  0  3  0  0  0  0  0  0
  189.7210  177.8310  137.1920 C   0  0  0  0  0  2  0  0  0  0  0  0
  187.2470  177.4330  136.4410 C   0  0  0  0  0  2  0  0  0  0  0  0
  188.3460  178.3570  136.8820 C   0  0  0  0  0  0  0  0  0  0  0  0
  188.1930  175.2300  137.4480 C   0  0  0  0  0  2  0  0  0  0  0  0
  188.5590  176.0910  138.6660 C   0  0  0  0  0  2  0  0  0  0  0  0
  187.7590  176.0090  136.1930 C   0  0  1  0  0  3  0  0  0  0  0  0
  188.1120  179.5470  137.0220 O   0  0  0  0  0  0  0  0  0  0  0  0
  189.7720  177.0410  138.5200 C   0  0  2  0  0  0  0  0  0  0  0  0
  191.0660  176.1780  138.5660 C   0  0  0  0  0  2  0  0  0  0  0  0
  192.0240  176.4210  137.4060 C   0  0  0  0  0  1  0  0  0  0  0  0
  186.7960  175.2360  135.4150 N   0  0  0  0  0  2  0  0  0  0  0  0
  184.2250  172.2360  136.9460 C   0  0  0  0  0  3  0  0  0  0  0  0
  185.2320  171.9090  136.0320 C   0  0  0  0  0  3  0  0  0  0  0  0
  184.9040  174.5570  136.8630 C   0  0  0  0  0  3  0  0  0  0  0  0
  186.0750  172.9070  135.5340 C   0  0  0  0  0  3  0  0  0  0  0  0
  184.0620  173.5610  137.3610 C   0  0  0  0  0  3  0  0  0  0  0  0
  185.9180  174.2350  135.9450 C   0  0  0  0  0  0  0  0  0  0  0  0
  190.2210  176.1580  141.0710 O   0  0  0  0  0  0  0  0  0  0  0  0
  190.2930  175.8610  142.4310 C   0  0  0  0  0  2  0  0  0  0  0  0
  191.0900  176.8090  143.0720 O   0  0  0  0  0  0  0  0  0  0  0  0
  191.6430  176.1270  144.1550 C   0  0  0  0  0  2  0  0  0  0  0  0
  191.3770  176.9040  145.4290 C   0  0  0  0  0  1  0  0  0  0  0  0
  187.9870  179.0080  141.1340 C   0  0  0  0  0  2  0  0  0  0  0  0
  186.7610  178.2780  143.2080 C   0  0  0  0  0  0  0  0  0  0  0  0
  185.4750  179.0090  141.2800 C   0  0  0  0  0  0  0  0  0  0  0  0
  184.2940  178.7910  141.9930 C   0  0  0  0  0  3  0  0  0  0  0  0
  185.5730  178.0670  143.9130 C   0  0  0  0  0  3  0  0  0  0  0  0
  183.1920  178.1140  143.9940 F   0  0  0  0  0  0  0  0  0  0  0  0
  185.4070  179.4850  139.9760 O   0  0  0  0  0  1  0  0  0  0  0  0
  184.3410  178.3210  143.3070 C   0  0  0  0  0  0  0  0  0  0  0  0
  187.9760  178.0190  143.8300 O   0  0  0  0  0  1  0  0  0  0  0  0
  186.7190  178.7480  141.8830 C   0  0  0  0  0  0  0  0  0  0  0  0
  1 11  1  6  0  0  0
  1  3  1  0  0  0  0
  1  2  1  0  0  0  0
  2 21  1  6  0  0  0
  3  2  1  0  0  0  0
  3 26  1  1  0  0  0
  4 11  1  0  0  0  0
  5  6  1  0  0  0  0
  6 10  2  0  0  0  0
  6  4  1  0  0  0  0
  7  8  1  0  0  0  0
  9 14  1  1  0  0  0
  9  5  1  0  0  0  0
  9  7  1  0  0  0  0
 11 12  1  1  0  0  0
 11  8  1  0  0  0  0
 13 12  1  0  0  0  0
 14 20  1  0  0  0  0
 15 19  1  0  0  0  0
 16 15  2  0  0  0  0
 17 19  2  0  0  0  0
 18 20  2  0  0  0  0
 18 16  1  0  0  0  0
 20 17  1  0  0  0  0
 21 22  1  0  0  0  0
 22 23  1  0  0  0  0
 23 24  1  0  0  0  0
 24 25  1  0  0  0  0
 26 35  1  0  0  0  0
 27 34  1  0  0  0  0
 27 30  1  0  0  0  0
 28 35  1  0  0  0  0
 28 29  2  0  0  0  0
 29 33  1  0  0  0  0
 32 28  1  0  0  0  0
 33 30  2  0  0  0  0
 33 31  1  0  0  0  0
 35 27  2  0  0  0  0
M  END
>  <MODEL>
1

>  <REMARK>
 VINA RESULT:      -6.8      0.000      0.000
  Name = 
  10 active torsions:
  status: ('A' for Active; 'I' for Inactive)
    1  A    between atoms: C_4  and  C_33
    2  A    between atoms: C_5  and  O_8
    3  A    between atoms: C_5  and  O_24
    4  A    between atoms: N_6  and  C_33
    5  A    between atoms: O_8  and  C_11
    6  A    between atoms: N_9  and  C_25
    7  A    between atoms: N_9  and  C_35
    8  A    between atoms: C_23  and  O_24
    9  A    between atoms: C_27  and  C_31
   10  A    between atoms: C_28  and  C_31
                            x       y       z     vdW  Elec       q    Type
                         _______ _______ _______ _____ _____    ______ ____

>  <TORSDO>
F 10

$$$$
=
 OpenBabel11062413473D

 35 38  0  0  1  0  0  0  0  0999 V2000
  188.6950  177.0780  142.3820 N   0  0  2  0  0  0  0  0  0  0  0  0
  187.3130  177.5650  142.1070 C   0  0  1  0  0  3  0  0  0  0  0  0
  187.9260  177.8080  143.4110 C   0  0  1  0  0  3  0  0  0  0  0  0
  189.4980  178.1810  140.3350 C   0  0  0  0  0  2  0  0  0  0  0  0
  190.9010  176.3710  139.0700 C   0  0  0  0  0  2  0  0  0  0  0  0
  189.5750  176.9720  139.4440 C   0  0  0  0  0  0  0  0  0  0  0  0
  192.2900  177.2750  141.0740 C   0  0  0  0  0  2  0  0  0  0  0  0
  191.0610  176.9230  141.9250 C   0  0  0  0  0  2  0  0  0  0  0  0
  192.0770  177.2310  139.5510 C   0  0  1  0  0  3  0  0  0  0  0  0
  188.5460  176.4530  139.0430 O   0  0  0  0  0  0  0  0  0  0  0  0
  189.8330  177.8570  141.8100 C   0  0  2  0  0  0  0  0  0  0  0  0
  190.1570  179.1730  142.5740 C   0  0  0  0  0  2  0  0  0  0  0  0
  191.1430  179.0040  143.7240 C   0  0  0  0  0  1  0  0  0  0  0  0
  193.3110  176.8540  138.8680 N   0  0  0  0  0  2  0  0  0  0  0  0
  193.6050  174.1150  135.6490 C   0  0  0  0  0  3  0  0  0  0  0  0
  193.9870  173.7360  136.9400 C   0  0  0  0  0  3  0  0  0  0  0  0
  193.0200  176.3150  136.4680 C   0  0  0  0  0  3  0  0  0  0  0  0
  193.8850  174.6480  137.9950 C   0  0  0  0  0  3  0  0  0  0  0  0
  193.1210  175.4050  135.4140 C   0  0  0  0  0  3  0  0  0  0  0  0
  193.4020  175.9410  137.7680 C   0  0  0  0  0  0  0  0  0  0  0  0
  187.2850  178.7510  141.3670 O   0  0  0  0  0  0  0  0  0  0  0  0
  186.0000  179.2560  141.5620 C   0  0  0  0  0  2  0  0  0  0  0  0
  185.3760  179.4290  140.3270 O   0  0  0  0  0  0  0  0  0  0  0  0
  184.0970  178.9050  140.5050 C   0  0  0  0  0  2  0  0  0  0  0  0
  183.8620  178.6370  141.9780 C   0  0  0  0  0  1  0  0  0  0  0  0
  187.3920  176.8150  144.4250 C   0  0  0  0  0  2  0  0  0  0  0  0
  189.1120  177.0340  146.2520 C   0  0  0  0  0  0  0  0  0  0  0  0
  186.8590  177.8490  146.6560 C   0  0  0  0  0  0  0  0  0  0  0  0
  187.2430  178.2590  147.9350 C   0  0  0  0  0  3  0  0  0  0  0  0
  189.4860  177.4510  147.5320 C   0  0  0  0  0  3  0  0  0  0  0  0
  188.9210  178.4620  149.6140 F   0  0  0  0  0  0  0  0  0  0  0  0
  185.5510  178.0630  146.2360 O   0  0  0  0  0  1  0  0  0  0  0  0
  188.5540  178.0610  148.3730 C   0  0  0  0  0  0  0  0  0  0  0  0
  190.0550  176.4290  145.4300 O   0  0  0  0  0  1  0  0  0  0  0  0
  187.7910  177.2280  145.8070 C   0  0  0  0  0  0  0  0  0  0  0  0
  1 11  1  6  0  0  0
  1  3  1  0  0  0  0
  2 21  1  6  0  0  0
  2  1  1  0  0  0  0
  2  3  1  0  0  0  0
  3 26  1  1  0  0  0
  4 11  1  0  0  0  0
  5  6  1  0  0  0  0
  5  9  1  0  0  0  0
  6  4  1  0  0  0  0
  7  8  1  0  0  0  0
  9 14  1  6  0  0  0
  9  7  1  0  0  0  0
 10  6  2  0  0  0  0
 11  8  1  0  0  0  0
 11 12  1  1  0  0  0
 12 13  1  0  0  0  0
 15 16  1  0  0  0  0
 16 18  2  0  0  0  0
 17 20  2  0  0  0  0
 19 15  2  0  0  0  0
 19 17  1  0  0  0  0
 20 18  1  0  0  0  0
 20 14  1  0  0  0  0
 21 22  1  0  0  0  0
 23 24  1  0  0  0  0
 23 22  1  0  0  0  0
 24 25  1  0  0  0  0
 26 35  1  0  0  0  0
 27 30  1  0  0  0  0
 28 29  2  0  0  0  0
 29 33  1  0  0  0  0
 30 33  2  0  0  0  0
 32 28  1  0  0  0  0
 33 31  1  0  0  0  0
 34 27  1  0  0  0  0
 35 27  2  0  0  0  0
 35 28  1  0  0  0  0
M  END
>  <MODEL>
2

>  <REMARK>
 VINA RESULT:      -6.7      3.836      6.160
  Name = 
  10 active torsions:
  status: ('A' for Active; 'I' for Inactive)
    1  A    between atoms: C_4  and  C_33
    2  A    between atoms: C_5  and  O_8
    3  A    between atoms: C_5  and  O_24
    4  A    between atoms: N_6  and  C_33
    5  A    between atoms: O_8  and  C_11
    6  A    between atoms: N_9  and  C_25
    7  A    between atoms: N_9  and  C_35
    8  A    between atoms: C_23  and  O_24
    9  A    between atoms: C_27  and  C_31
   10  A    between atoms: C_28  and  C_31
                            x       y       z     vdW  Elec       q    Type
                         _______ _______ _______ _____ _____    ______ ____

>  <TORSDO>
F 10

$$$$
=
 OpenBabel11062413473D

 35 38  0  0  1  0  0  0  0  0999 V2000
  190.4780  177.0830  138.0670 N   0  0  2  0  0  0  0  0  0  0  0  0
  191.4940  176.0970  138.5350 C   0  0  1  0  0  3  0  0  0  0  0  0
  190.2920  176.3400  139.3310 C   0  0  1  0  0  3  0  0  0  0  0  0
  189.1820  177.9130  136.1470 C   0  0  0  0  0  2  0  0  0  0  0  0
  186.8150  178.4900  137.0990 C   0  0  0  0  0  2  0  0  0  0  0  0
  188.2590  178.8440  136.8850 C   0  0  0  0  0  0  0  0  0  0  0  0
  187.0320  175.9090  136.8710 C   0  0  0  0  0  2  0  0  0  0  0  0
  188.3170  176.0690  137.6970 C   0  0  0  0  0  2  0  0  0  0  0  0
  186.4170  177.2170  136.3420 C   0  0  1  0  0  3  0  0  0  0  0  0
  188.6970  179.8870  137.3420 O   0  0  0  0  0  0  0  0  0  0  0  0
  189.5510  176.6600  136.9750 C   0  0  2  0  0  0  0  0  0  0  0  0
  190.1280  175.5630  136.0340 C   0  0  0  0  0  2  0  0  0  0  0  0
  190.6090  176.0830  134.6850 C   0  0  0  0  0  1  0  0  0  0  0  0
  184.9660  177.1010  136.2430 N   0  0  0  0  0  2  0  0  0  0  0  0
  182.3660  175.9230  139.3750 C   0  0  0  0  0  3  0  0  0  0  0  0
  182.5330  175.1110  138.2490 C   0  0  0  0  0  3  0  0  0  0  0  0
  183.9180  177.5300  138.4460 C   0  0  0  0  0  3  0  0  0  0  0  0
  183.3940  175.5090  137.2210 C   0  0  0  0  0  3  0  0  0  0  0  0
  183.0590  177.1330  139.4730 C   0  0  0  0  0  3  0  0  0  0  0  0
  184.0920  176.7180  137.3130 C   0  0  0  0  0  0  0  0  0  0  0  0
  191.3950  174.8590  137.8920 O   0  0  0  0  0  0  0  0  0  0  0  0
  192.7150  174.4330  137.7460 C   0  0  0  0  0  2  0  0  0  0  0  0
  193.5200  175.5230  137.4150 O   0  0  0  0  0  0  0  0  0  0  0  0
  194.1110  175.1650  136.2040 C   0  0  0  0  0  2  0  0  0  0  0  0
  194.3300  176.4070  135.3630 C   0  0  0  0  0  1  0  0  0  0  0  0
  190.6210  177.2560  140.4940 C   0  0  0  0  0  2  0  0  0  0  0  0
  188.4080  178.0990  141.3500 C   0  0  0  0  0  0  0  0  0  0  0  0
  189.5360  176.3220  142.5630 C   0  0  0  0  0  0  0  0  0  0  0  0
  188.4810  176.2860  143.4790 C   0  0  0  0  0  3  0  0  0  0  0  0
  187.3570  178.0530  142.2690 C   0  0  0  0  0  3  0  0  0  0  0  0
  186.3730  177.1080  144.2230 F   0  0  0  0  0  0  0  0  0  0  0  0
  190.6060  175.4490  142.7210 O   0  0  0  0  0  1  0  0  0  0  0  0
  187.3930  177.1490  143.3330 C   0  0  0  0  0  0  0  0  0  0  0  0
  188.3520  179.0060  140.2980 O   0  0  0  0  0  1  0  0  0  0  0  0
  189.5080  177.2350  141.4940 C   0  0  0  0  0  0  0  0  0  0  0  0
  1 11  1  6  0  0  0
  1  2  1  0  0  0  0
  1  3  1  0  0  0  0
  2 21  1  6  0  0  0
  2  3  1  0  0  0  0
  3 26  1  1  0  0  0
  4  6  1  0  0  0  0
  4 11  1  0  0  0  0
  6  5  1  0  0  0  0
  6 10  2  0  0  0  0
  7  8  1  0  0  0  0
  9 14  1  1  0  0  0
  9  7  1  0  0  0  0
  9  5  1  0  0  0  0
 11 12  1  6  0  0  0
 11  8  1  0  0  0  0
 13 12  1  0  0  0  0
 14 20  1  0  0  0  0
 15 19  1  0  0  0  0
 16 15  2  0  0  0  0
 17 19  2  0  0  0  0
 18 20  2  0  0  0  0
 18 16  1  0  0  0  0
 20 17  1  0  0  0  0
 22 21  1  0  0  0  0
 23 22  1  0  0  0  0
 24 23  1  0  0  0  0
 25 24  1  0  0  0  0
 26 35  1  0  0  0  0
 27 35  2  0  0  0  0
 27 30  1  0  0  0  0
 28 32  1  0  0  0  0
 28 29  2  0  0  0  0
 30 33  2  0  0  0  0
 33 29  1  0  0  0  0
 33 31  1  0  0  0  0
 34 27  1  0  0  0  0
 35 28  1  0  0  0  0
M  END
>  <MODEL>
3

>  <REMARK>
 VINA RESULT:      -6.7      2.254      4.128
  Name = 
  10 active torsions:
  status: ('A' for Active; 'I' for Inactive)
    1  A    between atoms: C_4  and  C_33
    2  A    between atoms: C_5  and  O_8
    3  A    between atoms: C_5  and  O_24
    4  A    between atoms: N_6  and  C_33
    5  A    between atoms: O_8  and  C_11
    6  A    between atoms: N_9  and  C_25
    7  A    between atoms: N_9  and  C_35
    8  A    between atoms: C_23  and  O_24
    9  A    between atoms: C_27  and  C_31
   10  A    between atoms: C_28  and  C_31
                            x       y       z     vdW  Elec       q    Type
                         _______ _______ _______ _____ _____    ______ ____

>  <TORSDO>
F 10

$$$$
=
 OpenBabel11062413473D

 35 38  0  0  1  0  0  0  0  0999 V2000
  190.5690  177.1470  138.0110 N   0  0  2  0  0  0  0  0  0  0  0  0
  191.7540  176.3990  138.5190 C   0  0  1  0  0  3  0  0  0  0  0  0
  190.5330  176.4640  139.3200 C   0  0  1  0  0  3  0  0  0  0  0  0
  189.1000  177.6010  136.0890 C   0  0  0  0  0  2  0  0  0  0  0  0
  186.6800  177.7300  137.0750 C   0  0  0  0  0  2  0  0  0  0  0  0
  188.0180  178.3600  136.8080 C   0  0  0  0  0  0  0  0  0  0  0  0
  187.4180  175.2390  136.9580 C   0  0  0  0  0  2  0  0  0  0  0  0
  188.6560  175.6980  137.7420 C   0  0  0  0  0  2  0  0  0  0  0  0
  186.5400  176.3670  136.3870 C   0  0  1  0  0  3  0  0  0  0  0  0
  188.2400  179.4910  137.2070 O   0  0  0  0  0  0  0  0  0  0  0  0
  189.7310  176.4920  136.9630 C   0  0  2  0  0  0  0  0  0  0  0  0
  190.5050  175.4900  136.0570 C   0  0  0  0  0  2  0  0  0  0  0  0
  190.5920  175.9060  134.5940 C   0  0  0  0  0  1  0  0  0  0  0  0
  185.1420  175.9530  136.3310 N   0  0  0  0  0  2  0  0  0  0  0  0
  183.7950  171.9400  136.1390 C   0  0  0  0  0  3  0  0  0  0  0  0
  184.1270  172.5190  137.3680 C   0  0  0  0  0  3  0  0  0  0  0  0
  184.3490  174.0100  135.0150 C   0  0  0  0  0  3  0  0  0  0  0  0
  184.5700  173.8440  137.4200 C   0  0  0  0  0  3  0  0  0  0  0  0
  183.9060  172.6860  134.9620 C   0  0  0  0  0  3  0  0  0  0  0  0
  184.6830  174.5970  136.2470 C   0  0  0  0  0  0  0  0  0  0  0  0
  191.8850  175.1260  137.9540 O   0  0  0  0  0  0  0  0  0  0  0  0
  193.2580  174.8830  137.9520 C   0  0  0  0  0  2  0  0  0  0  0  0
  193.9340  176.0430  137.5760 O   0  0  0  0  0  0  0  0  0  0  0  0
  194.7940  175.6330  136.5580 C   0  0  0  0  0  2  0  0  0  0  0  0
  194.2230  176.0480  135.2170 C   0  0  0  0  0  1  0  0  0  0  0  0
  190.6930  177.4960  140.4200 C   0  0  0  0  0  2  0  0  0  0  0  0
  189.7410  176.4880  142.5220 C   0  0  0  0  0  0  0  0  0  0  0  0
  188.4130  178.1080  141.2920 C   0  0  0  0  0  0  0  0  0  0  0  0
  187.3980  177.9900  142.2450 C   0  0  0  0  0  3  0  0  0  0  0  0
  188.7220  176.3800  143.4710 C   0  0  0  0  0  3  0  0  0  0  0  0
  186.5650  177.0210  144.2550 F   0  0  0  0  0  0  0  0  0  0  0  0
  188.2450  178.9780  140.2200 O   0  0  0  0  0  1  0  0  0  0  0  0
  187.5520  177.1290  143.3330 C   0  0  0  0  0  0  0  0  0  0  0  0
  190.8990  175.7340  142.6790 O   0  0  0  0  0  1  0  0  0  0  0  0
  189.5910  177.3510  141.4220 C   0  0  0  0  0  0  0  0  0  0  0  0
  1 11  1  6  0  0  0
  1  2  1  0  0  0  0
  1  3  1  0  0  0  0
  2 21  1  6  0  0  0
  2  3  1  0  0  0  0
  3 26  1  1  0  0  0
  4  6  1  0  0  0  0
  4 11  1  0  0  0  0
  6  5  1  0  0  0  0
  6 10  2  0  0  0  0
  7  8  1  0  0  0  0
  9 14  1  1  0  0  0
  9  7  1  0  0  0  0
  9  5  1  0  0  0  0
 11 12  1  6  0  0  0
 11  8  1  0  0  0  0
 13 12  1  0  0  0  0
 15 16  1  0  0  0  0
 16 18  2  0  0  0  0
 17 20  2  0  0  0  0
 19 17  1  0  0  0  0
 19 15  2  0  0  0  0
 20 14  1  0  0  0  0
 20 18  1  0  0  0  0
 22 21  1  0  0  0  0
 23 22  1  0  0  0  0
 24 23  1  0  0  0  0
 25 24  1  0  0  0  0
 26 35  1  0  0  0  0
 27 34  1  0  0  0  0
 27 30  1  0  0  0  0
 28 35  1  0  0  0  0
 28 29  2  0  0  0  0
 29 33  1  0  0  0  0
 32 28  1  0  0  0  0
 33 30  2  0  0  0  0
 33 31  1  0  0  0  0
 35 27  2  0  0  0  0
M  END
>  <MODEL>
4

>  <REMARK>
 VINA RESULT:      -6.1      1.970      3.597
  Name = 
  10 active torsions:
  status: ('A' for Active; 'I' for Inactive)
    1  A    between atoms: C_4  and  C_33
    2  A    between atoms: C_5  and  O_8
    3  A    between atoms: C_5  and  O_24
    4  A    between atoms: N_6  and  C_33
    5  A    between atoms: O_8  and  C_11
    6  A    between atoms: N_9  and  C_25
    7  A    between atoms: N_9  and  C_35
    8  A    between atoms: C_23  and  O_24
    9  A    between atoms: C_27  and  C_31
   10  A    between atoms: C_28  and  C_31
                            x       y       z     vdW  Elec       q    Type
                         _______ _______ _______ _____ _____    ______ ____

>  <TORSDO>
F 10

$$$$
=
 OpenBabel11062413473D

 35 38  0  0  1  0  0  0  0  0999 V2000
  182.3510  178.0430  138.0400 N   0  0  2  0  0  0  0  0  0  0  0  0
  181.1180  177.2080  137.9520 C   0  0  1  0  0  3  0  0  0  0  0  0
  182.4250  176.5680  138.0960 C   0  0  1  0  0  3  0  0  0  0  0  0
  183.8000  179.7140  139.1170 C   0  0  0  0  0  2  0  0  0  0  0  0
  185.8430  178.3710  140.0490 C   0  0  0  0  0  2  0  0  0  0  0  0
  185.1250  179.0320  138.9060 C   0  0  0  0  0  0  0  0  0  0  0  0
  183.7880  177.9700  141.5910 C   0  0  0  0  0  2  0  0  0  0  0  0
  183.0550  177.5710  140.3020 C   0  0  0  0  0  2  0  0  0  0  0  0
  185.1570  178.6440  141.3930 C   0  0  1  0  0  3  0  0  0  0  0  0
  185.6070  178.9880  137.7870 O   0  0  0  0  0  0  0  0  0  0  0  0
  182.6430  178.7130  139.3420 C   0  0  2  0  0  0  0  0  0  0  0  0
  181.4270  179.4530  139.9700 C   0  0  0  0  0  2  0  0  0  0  0  0
  180.9310  180.6450  139.1600 C   0  0  0  0  0  1  0  0  0  0  0  0
  186.0490  178.3340  142.5060 N   0  0  0  0  0  2  0  0  0  0  0  0
  185.0260  178.4170  146.6170 C   0  0  0  0  0  3  0  0  0  0  0  0
  186.2120  177.8100  146.1930 C   0  0  0  0  0  3  0  0  0  0  0  0
  184.4960  178.9800  144.3240 C   0  0  0  0  0  3  0  0  0  0  0  0
  186.5410  177.7890  144.8340 C   0  0  0  0  0  3  0  0  0  0  0  0
  184.1680  179.0020  145.6810 C   0  0  0  0  0  3  0  0  0  0  0  0
  185.6870  178.3730  143.8920 C   0  0  0  0  0  0  0  0  0  0  0  0
  180.4170  177.1330  139.1600 O   0  0  0  0  0  0  0  0  0  0  0  0
  179.9650  175.8150  139.2220 C   0  0  0  0  0  2  0  0  0  0  0  0
  179.3270  175.6000  140.4430 O   0  0  0  0  0  0  0  0  0  0  0  0
  179.2990  174.2130  140.5840 C   0  0  0  0  0  2  0  0  0  0  0  0
  179.6190  173.5650  139.2520 C   0  0  0  0  0  1  0  0  0  0  0  0
  182.8950  176.0470  136.7510 C   0  0  0  0  0  2  0  0  0  0  0  0
  181.9520  173.7330  136.4370 C   0  0  0  0  0  0  0  0  0  0  0  0
  184.2570  173.9730  137.1690 C   0  0  0  0  0  0  0  0  0  0  0  0
  184.3900  172.5820  137.1850 C   0  0  0  0  0  3  0  0  0  0  0  0
  182.0970  172.3430  136.4540 C   0  0  0  0  0  3  0  0  0  0  0  0
  183.4490  170.4200  136.8440 F   0  0  0  0  0  0  0  0  0  0  0  0
  185.3430  174.7660  137.5190 O   0  0  0  0  0  1  0  0  0  0  0  0
  183.3130  171.7680  136.8280 C   0  0  0  0  0  0  0  0  0  0  0  0
  180.7330  174.2850  136.0610 O   0  0  0  0  0  1  0  0  0  0  0  0
  183.0330  174.5580  136.7990 C   0  0  0  0  0  0  0  0  0  0  0  0
  1  3  1  0  0  0  0
  1 11  1  1  0  0  0
  2  1  1  0  0  0  0
  2  3  1  0  0  0  0
  2 21  1  1  0  0  0
  3 26  1  6  0  0  0
  4 11  1  0  0  0  0
  5  9  1  0  0  0  0
  6  4  1  0  0  0  0
  6  5  1  0  0  0  0
  8  7  1  0  0  0  0
  9  7  1  0  0  0  0
  9 14  1  1  0  0  0
 10  6  2  0  0  0  0
 11 12  1  1  0  0  0
 11  8  1  0  0  0  0
 13 12  1  0  0  0  0
 14 20  1  0  0  0  0
 16 15  1  0  0  0  0
 17 19  1  0  0  0  0
 18 16  2  0  0  0  0
 19 15  2  0  0  0  0
 20 17  2  0  0  0  0
 20 18  1  0  0  0  0
 21 22  1  0  0  0  0
 22 23  1  0  0  0  0
 23 24  1  0  0  0  0
 25 24  1  0  0  0  0
 26 35  1  0  0  0  0
 27 30  2  0  0  0  0
 27 35  1  0  0  0  0
 28 29  1  0  0  0  0
 28 32  1  0  0  0  0
 30 33  1  0  0  0  0
 33 31  1  0  0  0  0
 33 29  2  0  0  0  0
 34 27  1  0  0  0  0
 35 28  2  0  0  0  0
M  END
>  <MODEL>
5

>  <REMARK>
 VINA RESULT:      -5.9      4.332      9.051
  Name = 
  10 active torsions:
  status: ('A' for Active; 'I' for Inactive)
    1  A    between atoms: C_4  and  C_33
    2  A    between atoms: C_5  and  O_8
    3  A    between atoms: C_5  and  O_24
    4  A    between atoms: N_6  and  C_33
    5  A    between atoms: O_8  and  C_11
    6  A    between atoms: N_9  and  C_25
    7  A    between atoms: N_9  and  C_35
    8  A    between atoms: C_23  and  O_24
    9  A    between atoms: C_27  and  C_31
   10  A    between atoms: C_28  and  C_31
                            x       y       z     vdW  Elec       q    Type
                         _______ _______ _______ _____ _____    ______ ____

>  <TORSDO>
F 10

$$$$
=
 OpenBabel11062413473D

 35 38  0  0  1  0  0  0  0  0999 V2000
  184.0020  177.5960  137.0360 N   0  0  2  0  0  0  0  0  0  0  0  0
  184.4750  176.2460  136.6160 C   0  0  1  0  0  3  0  0  0  0  0  0
  185.2620  177.0340  137.5630 C   0  0  1  0  0  3  0  0  0  0  0  0
  182.6550  179.1500  138.3870 C   0  0  0  0  0  2  0  0  0  0  0  0
  183.9230  179.3780  140.6630 C   0  0  0  0  0  2  0  0  0  0  0  0
  183.7610  179.7450  139.2160 C   0  0  0  0  0  0  0  0  0  0  0  0
  182.6940  177.0870  140.6020 C   0  0  0  0  0  2  0  0  0  0  0  0
  183.4230  176.8730  139.2670 C   0  0  0  0  0  2  0  0  0  0  0  0
  182.7620  178.5150  141.1710 C   0  0  1  0  0  3  0  0  0  0  0  0
  184.5550  180.5110  138.6970 O   0  0  0  0  0  0  0  0  0  0  0  0
  182.9010  177.6630  138.0430 C   0  0  2  0  0  0  0  0  0  0  0  0
  181.5680  177.0060  137.5800 C   0  0  0  0  0  2  0  0  0  0  0  0
  180.3200  177.8100  137.9230 C   0  0  0  0  0  1  0  0  0  0  0  0
  182.7300  178.4890  142.6300 N   0  0  0  0  0  2  0  0  0  0  0  0
  186.1070  178.4250  145.1890 C   0  0  0  0  0  3  0  0  0  0  0  0
  184.9010  178.9880  145.6190 C   0  0  0  0  0  3  0  0  0  0  0  0
  185.0960  177.8940  143.0550 C   0  0  0  0  0  3  0  0  0  0  0  0
  183.7930  179.0040  144.7670 C   0  0  0  0  0  3  0  0  0  0  0  0
  186.2040  177.8780  143.9060 C   0  0  0  0  0  3  0  0  0  0  0  0
  183.8820  178.4570  143.4820 C   0  0  0  0  0  0  0  0  0  0  0  0
  183.8290  175.2030  137.2860 O   0  0  0  0  0  0  0  0  0  0  0  0
  184.3790  174.0430  136.7430 C   0  0  0  0  0  2  0  0  0  0  0  0
  184.4120  173.0440  137.7160 O   0  0  0  0  0  0  0  0  0  0  0  0
  183.7000  171.9850  137.1540 C   0  0  0  0  0  2  0  0  0  0  0  0
  184.5420  171.3230  136.0830 C   0  0  0  0  0  1  0  0  0  0  0  0
  186.4300  177.6850  136.8480 C   0  0  0  0  0  2  0  0  0  0  0  0
  188.3870  176.1140  136.6350 C   0  0  0  0  0  0  0  0  0  0  0  0
  188.2950  177.6230  138.5370 C   0  0  0  0  0  0  0  0  0  0  0  0
  189.5130  177.1140  138.9920 C   0  0  0  0  0  3  0  0  0  0  0  0
  189.6070  175.6140  137.0980 C   0  0  0  0  0  3  0  0  0  0  0  0
  191.3520  175.6230  138.7210 F   0  0  0  0  0  0  0  0  0  0  0  0
  187.6620  178.6280  139.2610 O   0  0  0  0  0  1  0  0  0  0  0  0
  190.1690  176.1120  138.2750 C   0  0  0  0  0  0  0  0  0  0  0  0
  187.8450  175.6050  135.4610 O   0  0  0  0  0  1  0  0  0  0  0  0
  187.7200  177.1220  137.3560 C   0  0  0  0  0  0  0  0  0  0  0  0
  1  3  1  0  0  0  0
  1 11  1  1  0  0  0
  2  1  1  0  0  0  0
  2 21  1  1  0  0  0
  2  3  1  0  0  0  0
  3 26  1  6  0  0  0
  4  6  1  0  0  0  0
  5  9  1  0  0  0  0
  6  5  1  0  0  0  0
  7  9  1  0  0  0  0
  8  7  1  0  0  0  0
  9 14  1  1  0  0  0
 10  6  2  0  0  0  0
 11 12  1  6  0  0  0
 11  4  1  0  0  0  0
 11  8  1  0  0  0  0
 12 13  1  0  0  0  0
 14 20  1  0  0  0  0
 15 16  1  0  0  0  0
 17 20  2  0  0  0  0
 17 19  1  0  0  0  0
 18 16  2  0  0  0  0
 19 15  2  0  0  0  0
 20 18  1  0  0  0  0
 22 21  1  0  0  0  0
 22 23  1  0  0  0  0
 24 23  1  0  0  0  0
 25 24  1  0  0  0  0
 26 35  1  0  0  0  0
 27 30  2  0  0  0  0
 27 35  1  0  0  0  0
 28 29  1  0  0  0  0
 28 32  1  0  0  0  0
 30 33  1  0  0  0  0
 33 31  1  0  0  0  0
 33 29  2  0  0  0  0
 34 27  1  0  0  0  0
 35 28  2  0  0  0  0
M  END
>  <MODEL>
6

>  <REMARK>
 VINA RESULT:      -5.9      3.461      8.066
  Name = 
  10 active torsions:
  status: ('A' for Active; 'I' for Inactive)
    1  A    between atoms: C_4  and  C_33
    2  A    between atoms: C_5  and  O_8
    3  A    between atoms: C_5  and  O_24
    4  A    between atoms: N_6  and  C_33
    5  A    between atoms: O_8  and  C_11
    6  A    between atoms: N_9  and  C_25
    7  A    between atoms: N_9  and  C_35
    8  A    between atoms: C_23  and  O_24
    9  A    between atoms: C_27  and  C_31
   10  A    between atoms: C_28  and  C_31
                            x       y       z     vdW  Elec       q    Type
                         _______ _______ _______ _____ _____    ______ ____

>  <TORSDO>
F 10

$$$$
=
 OpenBabel11062413473D

 35 38  0  0  1  0  0  0  0  0999 V2000
  180.5870  179.1200  138.6740 N   0  0  2  0  0  0  0  0  0  0  0  0
  179.5230  178.1580  138.2660 C   0  0  1  0  0  3  0  0  0  0  0  0
  179.9660  179.1940  137.3350 C   0  0  1  0  0  3  0  0  0  0  0  0
  182.1520  177.5640  139.7620 C   0  0  0  0  0  2  0  0  0  0  0  0
  183.2800  178.9370  141.6810 C   0  0  0  0  0  2  0  0  0  0  0  0
  182.1190  178.1460  141.1490 C   0  0  0  0  0  0  0  0  0  0  0  0
  184.3090  179.6580  139.4040 C   0  0  0  0  0  2  0  0  0  0  0  0
  182.8570  179.8920  138.9630 C   0  0  0  0  0  2  0  0  0  0  0  0
  184.4850  178.9000  140.7320 C   0  0  1  0  0  3  0  0  0  0  0  0
  181.1240  178.0000  141.8390 O   0  0  0  0  0  0  0  0  0  0  0  0
  182.0000  178.6390  138.6600 C   0  0  2  0  0  0  0  0  0  0  0  0
  182.4670  178.0580  137.2940 C   0  0  0  0  0  2  0  0  0  0  0  0
  183.5560  176.9980  137.4030 C   0  0  0  0  0  1  0  0  0  0  0  0
  185.7000  179.3320  141.4140 N   0  0  0  0  0  2  0  0  0  0  0  0
  188.3540  176.7990  143.5360 C   0  0  0  0  0  3  0  0  0  0  0  0
  188.6860  177.2650  142.2590 C   0  0  0  0  0  3  0  0  0  0  0  0
  186.2580  178.0040  143.4300 C   0  0  0  0  0  3  0  0  0  0  0  0
  187.8030  178.1000  141.5680 C   0  0  0  0  0  3  0  0  0  0  0  0
  187.1400  177.1690  144.1210 C   0  0  0  0  0  3  0  0  0  0  0  0
  186.5860  178.4760  142.1470 C   0  0  0  0  0  0  0  0  0  0  0  0
  180.0280  176.9160  137.8690 O   0  0  0  0  0  0  0  0  0  0  0  0
  178.9890  176.0190  138.1190 C   0  0  0  0  0  2  0  0  0  0  0  0
  179.3530  174.7500  137.6690 O   0  0  0  0  0  0  0  0  0  0  0  0
  180.5600  174.9490  136.9990 C   0  0  0  0  0  2  0  0  0  0  0  0
  181.4570  173.7460  137.2080 C   0  0  0  0  0  1  0  0  0  0  0  0
  178.9660  180.3340  137.3170 C   0  0  0  0  0  2  0  0  0  0  0  0
  180.0520  181.9050  135.6770 C   0  0  0  0  0  0  0  0  0  0  0  0
  179.8890  182.5700  138.0080 C   0  0  0  0  0  0  0  0  0  0  0  0
  180.5120  183.7820  137.7000 C   0  0  0  0  0  3  0  0  0  0  0  0
  180.6720  183.1220  135.3790 C   0  0  0  0  0  3  0  0  0  0  0  0
  181.5050  185.2360  136.0950 F   0  0  0  0  0  0  0  0  0  0  0  0
  179.4990  182.3180  139.3180 O   0  0  0  0  0  1  0  0  0  0  0  0
  180.9020  184.0580  136.3880 C   0  0  0  0  0  0  0  0  0  0  0  0
  179.8310  180.9870  134.6570 O   0  0  0  0  0  1  0  0  0  0  0  0
  179.6590  181.6200  136.9970 C   0  0  0  0  0  0  0  0  0  0  0  0
  1 11  1  6  0  0  0
  2 21  1  6  0  0  0
  2  1  1  0  0  0  0
  3 26  1  1  0  0  0
  3  2  1  0  0  0  0
  3  1  1  0  0  0  0
  4  6  1  0  0  0  0
  6  5  1  0  0  0  0
  6 10  2  0  0  0  0
  7  9  1  0  0  0  0
  8  7  1  0  0  0  0
  9 14  1  1  0  0  0
  9  5  1  0  0  0  0
 11 12  1  6  0  0  0
 11  8  1  0  0  0  0
 11  4  1  0  0  0  0
 12 13  1  0  0  0  0
 14 20  1  0  0  0  0
 15 19  1  0  0  0  0
 16 15  2  0  0  0  0
 17 19  2  0  0  0  0
 18 20  2  0  0  0  0
 18 16  1  0  0  0  0
 20 17  1  0  0  0  0
 21 22  1  0  0  0  0
 23 22  1  0  0  0  0
 24 25  1  0  0  0  0
 24 23  1  0  0  0  0
 27 35  1  0  0  0  0
 28 32  1  0  0  0  0
 29 28  1  0  0  0  0
 30 27  2  0  0  0  0
 30 33  1  0  0  0  0
 31 33  1  0  0  0  0
 33 29  2  0  0  0  0
 34 27  1  0  0  0  0
 35 26  1  0  0  0  0
 35 28  2  0  0  0  0
M  END
>  <MODEL>
7

>  <REMARK>
 VINA RESULT:      -5.9      5.565      9.341
  Name = 
  10 active torsions:
  status: ('A' for Active; 'I' for Inactive)
    1  A    between atoms: C_4  and  C_33
    2  A    between atoms: C_5  and  O_8
    3  A    between atoms: C_5  and  O_24
    4  A    between atoms: N_6  and  C_33
    5  A    between atoms: O_8  and  C_11
    6  A    between atoms: N_9  and  C_25
    7  A    between atoms: N_9  and  C_35
    8  A    between atoms: C_23  and  O_24
    9  A    between atoms: C_27  and  C_31
   10  A    between atoms: C_28  and  C_31
                            x       y       z     vdW  Elec       q    Type
                         _______ _______ _______ _____ _____    ______ ____

>  <TORSDO>
F 10

$$$$
=
 OpenBabel11062413473D

 35 38  0  0  1  0  0  0  0  0999 V2000
  188.8490  175.7530  136.6920 N   0  0  2  0  0  0  0  0  0  0  0  0
  189.8530  175.4370  135.6360 C   0  0  1  0  0  3  0  0  0  0  0  0
  188.4830  175.7800  135.2610 C   0  0  1  0  0  3  0  0  0  0  0  0
  190.3250  177.2890  137.9230 C   0  0  0  0  0  2  0  0  0  0  0  0
  189.8950  176.7910  140.4550 C   0  0  0  0  0  2  0  0  0  0  0  0
  190.5530  176.4470  139.1490 C   0  0  0  0  0  0  0  0  0  0  0  0
  187.9030  178.1690  139.5100 C   0  0  0  0  0  2  0  0  0  0  0  0
  187.8250  177.0820  138.4290 C   0  0  0  0  0  2  0  0  0  0  0  0
  189.1630  178.1370  140.3920 C   0  0  1  0  0  3  0  0  0  0  0  0
  191.2570  175.4530  139.0740 O   0  0  0  0  0  0  0  0  0  0  0  0
  188.9110  177.1030  137.3270 C   0  0  2  0  0  0  0  0  0  0  0  0
  188.5920  178.2810  136.3610 C   0  0  0  0  0  2  0  0  0  0  0  0
  187.1480  178.7660  136.4190 C   0  0  0  0  0  1  0  0  0  0  0  0
  188.8670  178.6330  141.7330 N   0  0  0  0  0  2  0  0  0  0  0  0
  190.7020  177.3040  145.3140 C   0  0  0  0  0  3  0  0  0  0  0  0
  189.3650  176.9940  145.0440 C   0  0  0  0  0  3  0  0  0  0  0  0
  190.8470  178.5000  143.2150 C   0  0  0  0  0  3  0  0  0  0  0  0
  188.7690  177.4370  143.8590 C   0  0  0  0  0  3  0  0  0  0  0  0
  191.4420  178.0580  144.3990 C   0  0  0  0  0  3  0  0  0  0  0  0
  189.5050  178.1910  142.9380 C   0  0  0  0  0  0  0  0  0  0  0  0
  190.7060  176.5080  135.3500 O   0  0  0  0  0  0  0  0  0  0  0  0
  191.8910  175.9080  134.9240 C   0  0  0  0  0  2  0  0  0  0  0  0
  192.5060  175.2750  136.0040 O   0  0  0  0  0  0  0  0  0  0  0  0
  193.5580  176.1210  136.3520 C   0  0  0  0  0  2  0  0  0  0  0  0
  194.4450  176.3480  135.1450 C   0  0  0  0  0  1  0  0  0  0  0  0
  187.7090  174.5200  134.9250 C   0  0  0  0  0  2  0  0  0  0  0  0
  186.3860  173.4640  136.7900 C   0  0  0  0  0  0  0  0  0  0  0  0
  185.4250  175.3430  135.5860 C   0  0  0  0  0  0  0  0  0  0  0  0
  184.2910  175.2760  136.3990 C   0  0  0  0  0  3  0  0  0  0  0  0
  185.2480  173.4080  137.5990 C   0  0  0  0  0  3  0  0  0  0  0  0
  183.1000  174.2520  138.1900 F   0  0  0  0  0  0  0  0  0  0  0  0
  185.4980  176.3170  134.5970 O   0  0  0  0  0  1  0  0  0  0  0  0
  184.2020  174.3110  137.4040 C   0  0  0  0  0  0  0  0  0  0  0  0
  187.4170  172.5560  137.0020 O   0  0  0  0  0  1  0  0  0  0  0  0
  186.4800  174.4320  135.7740 C   0  0  0  0  0  0  0  0  0  0  0  0
  1 11  1  6  0  0  0
  2 21  1  6  0  0  0
  2  1  1  0  0  0  0
  3 26  1  1  0  0  0
  3  2  1  0  0  0  0
  3  1  1  0  0  0  0
  4  6  1  0  0  0  0
  6  5  1  0  0  0  0
  7  9  1  0  0  0  0
  8  7  1  0  0  0  0
  9  5  1  0  0  0  0
  9 14  1  1  0  0  0
 10  6  2  0  0  0  0
 11 12  1  6  0  0  0
 11  4  1  0  0  0  0
 11  8  1  0  0  0  0
 12 13  1  0  0  0  0
 14 20  1  0  0  0  0
 16 15  1  0  0  0  0
 17 19  1  0  0  0  0
 18 16  2  0  0  0  0
 19 15  2  0  0  0  0
 20 17  2  0  0  0  0
 20 18  1  0  0  0  0
 22 21  1  0  0  0  0
 22 23  1  0  0  0  0
 23 24  1  0  0  0  0
 25 24  1  0  0  0  0
 26 35  1  0  0  0  0
 27 34  1  0  0  0  0
 27 30  1  0  0  0  0
 28 35  1  0  0  0  0
 28 29  2  0  0  0  0
 29 33  1  0  0  0  0
 32 28  1  0  0  0  0
 33 30  2  0  0  0  0
 33 31  1  0  0  0  0
 35 27  2  0  0  0  0
M  END
>  <MODEL>
8

>  <REMARK>
 VINA RESULT:      -5.7      2.898      7.202
  Name = 
  10 active torsions:
  status: ('A' for Active; 'I' for Inactive)
    1  A    between atoms: C_4  and  C_33
    2  A    between atoms: C_5  and  O_8
    3  A    between atoms: C_5  and  O_24
    4  A    between atoms: N_6  and  C_33
    5  A    between atoms: O_8  and  C_11
    6  A    between atoms: N_9  and  C_25
    7  A    between atoms: N_9  and  C_35
    8  A    between atoms: C_23  and  O_24
    9  A    between atoms: C_27  and  C_31
   10  A    between atoms: C_28  and  C_31
                            x       y       z     vdW  Elec       q    Type
                         _______ _______ _______ _____ _____    ______ ____

>  <TORSDO>
F 10

$$$$
=
 OpenBabel11062413473D

 35 38  0  0  1  0  0  0  0  0999 V2000
  183.9340  177.7840  138.8550 N   0  0  2  0  0  0  0  0  0  0  0  0
  185.3030  178.2010  139.2730 C   0  0  1  0  0  3  0  0  0  0  0  0
  184.7900  178.5900  137.9600 C   0  0  1  0  0  3  0  0  0  0  0  0
  181.4820  177.7650  139.0690 C   0  0  0  0  0  2  0  0  0  0  0  0
  180.5920  179.1440  137.0320 C   0  0  0  0  0  2  0  0  0  0  0  0
  181.1290  177.8650  137.6100 C   0  0  0  0  0  0  0  0  0  0  0  0
  181.5470  180.7810  138.8130 C   0  0  0  0  0  2  0  0  0  0  0  0
  182.8190  179.9230  138.7390 C   0  0  0  0  0  2  0  0  0  0  0  0
  180.3080  180.1900  138.1170 C   0  0  1  0  0  3  0  0  0  0  0  0
  181.3080  176.9040  136.8810 O   0  0  0  0  0  0  0  0  0  0  0  0
  182.7750  178.5360  139.4230 C   0  0  2  0  0  0  0  0  0  0  0  0
  182.8480  178.7570  140.9620 C   0  0  0  0  0  2  0  0  0  0  0  0
  181.5100  178.6190  141.6790 C   0  0  0  0  0  1  0  0  0  0  0  0
  179.4500  181.2530  137.6040 N   0  0  0  0  0  2  0  0  0  0  0  0
  180.8080  185.0030  136.1740 C   0  0  0  0  0  3  0  0  0  0  0  0
  180.8270  183.8780  135.3430 C   0  0  0  0  0  3  0  0  0  0  0  0
  179.8880  183.6640  137.9660 C   0  0  0  0  0  3  0  0  0  0  0  0
  180.3760  182.6460  135.8250 C   0  0  0  0  0  3  0  0  0  0  0  0
  180.3380  184.8960  137.4860 C   0  0  0  0  0  3  0  0  0  0  0  0
  179.9040  182.5300  137.1370 C   0  0  0  0  0  0  0  0  0  0  0  0
  185.3040  179.3070  140.1290 O   0  0  0  0  0  0  0  0  0  0  0  0
  186.2640  179.0020  141.0930 C   0  0  0  0  0  2  0  0  0  0  0  0
  187.3890  178.4590  140.4730 O   0  0  0  0  0  0  0  0  0  0  0  0
  188.2640  178.1770  141.5210 C   0  0  0  0  0  2  0  0  0  0  0  0
  189.5060  177.5030  140.9740 C   0  0  0  0  0  1  0  0  0  0  0  0
  185.3730  177.6860  136.8900 C   0  0  0  0  0  2  0  0  0  0  0  0
  187.4030  176.2930  137.4180 C   0  0  0  0  0  0  0  0  0  0  0  0
  187.6970  178.6500  136.9100 C   0  0  0  0  0  0  0  0  0  0  0  0
  189.0770  178.5060  137.0700 C   0  0  0  0  0  3  0  0  0  0  0  0
  188.7850  176.1590  137.5720 C   0  0  0  0  0  3  0  0  0  0  0  0
  190.9610  177.1290  137.5510 F   0  0  0  0  0  0  0  0  0  0  0  0
  187.1760  179.8940  136.5730 O   0  0  0  0  0  1  0  0  0  0  0  0
  189.6220  177.2630  137.3990 C   0  0  0  0  0  0  0  0  0  0  0  0
  186.5880  175.1810  137.5940 O   0  0  0  0  0  1  0  0  0  0  0  0
  186.8490  177.5430  137.0890 C   0  0  0  0  0  0  0  0  0  0  0  0
  1  2  1  0  0  0  0
  1 11  1  1  0  0  0
  2 21  1  1  0  0  0
  3 26  1  6  0  0  0
  3  1  1  0  0  0  0
  3  2  1  0  0  0  0
  4 11  1  0  0  0  0
  5  6  1  0  0  0  0
  5  9  1  0  0  0  0
  6  4  1  0  0  0  0
  8  7  1  0  0  0  0
  8 11  1  0  0  0  0
  9 14  1  6  0  0  0
  9  7  1  0  0  0  0
 10  6  2  0  0  0  0
 11 12  1  1  0  0  0
 12 13  1  0  0  0  0
 15 19  1  0  0  0  0
 16 18  1  0  0  0  0
 16 15  2  0  0  0  0
 18 20  2  0  0  0  0
 19 17  2  0  0  0  0
 20 14  1  0  0  0  0
 20 17  1  0  0  0  0
 21 22  1  0  0  0  0
 23 22  1  0  0  0  0
 23 24  1  0  0  0  0
 25 24  1  0  0  0  0
 26 35  1  0  0  0  0
 27 30  1  0  0  0  0
 27 34  1  0  0  0  0
 28 29  2  0  0  0  0
 28 35  1  0  0  0  0
 29 33  1  0  0  0  0
 32 28  1  0  0  0  0
 33 31  1  0  0  0  0
 33 30  2  0  0  0  0
 35 27  2  0  0  0  0
M  END
>  <MODEL>
9

>  <REMARK>
 VINA RESULT:      -5.6      5.079      8.049
  Name = 
  10 active torsions:
  status: ('A' for Active; 'I' for Inactive)
    1  A    between atoms: C_4  and  C_33
    2  A    between atoms: C_5  and  O_8
    3  A    between atoms: C_5  and  O_24
    4  A    between atoms: N_6  and  C_33
    5  A    between atoms: O_8  and  C_11
    6  A    between atoms: N_9  and  C_25
    7  A    between atoms: N_9  and  C_35
    8  A    between atoms: C_23  and  O_24
    9  A    between atoms: C_27  and  C_31
   10  A    between atoms: C_28  and  C_31
                            x       y       z     vdW  Elec       q    Type
                         _______ _______ _______ _____ _____    ______ ____

>  <TORSDO>
F 10

$$$$
