=
 OpenBabel11062415043D

 31 34  0  0  1  0  0  0  0  0999 V2000
  182.1970  178.6880  137.9220 C   0  0  0  0  0  2  0  0  0  0  0  0
  181.4460  179.3820  139.0750 C   0  0  1  0  0  3  0  0  0  0  0  0
  184.1180  177.2750  137.1030 C   0  0  0  0  0  2  0  0  0  0  0  0
  183.4310  174.8680  138.1290 O   0  0  0  0  0  0  0  0  0  0  0  0
  183.0510  176.8420  139.4330 C   0  0  2  0  0  3  0  0  0  0  0  0
  182.4670  175.5450  138.8790 C   0  0  0  0  0  2  0  0  0  0  0  0
  183.0310  174.9890  136.7890 C   0  0  0  0  0  2  0  0  0  0  0  0
  181.8540  178.8720  140.4680 C   0  0  2  0  0  3  0  0  0  0  0  0
  183.1800  176.4170  136.2520 C   0  0  0  0  0  2  0  0  0  0  0  0
  182.0660  177.3590  140.4940 C   0  0  0  0  0  2  0  0  0  0  0  0
  183.4520  177.9030  138.3540 C   0  0  2  0  0  0  0  0  0  0  0  0
  188.1640  178.3470  139.6080 C   0  0  0  0  0  0  0  0  0  0  0  0
  187.9500  178.0520  142.0280 C   0  0  0  0  0  3  0  0  0  0  0  0
  185.8980  178.7630  138.3710 C   0  0  0  0  0  2  0  0  0  0  0  0
  186.0020  178.4570  140.6880 C   0  0  0  0  0  0  0  0  0  0  0  0
  184.6280  178.6420  140.4270 N   0  0  0  0  0  2  0  0  0  0  0  0
  186.7680  178.5190  139.5540 C   0  0  0  0  0  0  0  0  0  0  0  0
  184.4810  178.8720  138.9890 C   0  0  2  0  0  3  0  0  0  0  0  0
  188.7450  178.1130  140.8690 C   0  0  0  0  0  3  0  0  0  0  0  0
  186.5610  178.2230  141.9420 C   0  0  0  0  0  3  0  0  0  0  0  0
  189.0250  178.4020  138.4100 C   0  0  0  0  0  0  0  0  0  0  0  0
  189.0180  179.5320  137.5990 O   0  0  0  0  0  0  0  0  0  0  0  0
  189.7750  177.4370  138.1050 O   0  0  0  0  0  1  0  0  0  0  0  0
  180.9570  181.5980  138.1200 C   0  0  0  0  0  2  0  0  0  0  0  0
  181.6410  180.8640  138.9950 C   0  0  0  0  0  3  0  0  0  0  0  0
  180.8810  179.3190  141.5660 C   0  0  0  0  0  2  0  0  0  0  0  0
  181.3680  179.0240  142.9590 C   0  0  0  0  0  0  0  0  0  0  0  0
  180.4970  178.6610  143.8900 C   0  0  0  0  0  2  0  0  0  0  0  0
  183.5790  179.0150  145.7430 O   0  0  0  0  0  0  0  0  0  0  0  0
  183.1920  179.0850  144.5700 C   0  0  0  0  0  0  0  0  0  0  0  0
  182.7830  179.1590  143.3320 C   0  0  0  0  0  3  0  0  0  0  0  0
  1 11  1  0  0  0  0
  1  2  1  0  0  0  0
  2 25  1  1  0  0  0
  2  8  1  0  0  0  0
  4  6  1  0  0  0  0
  5  6  1  6  0  0  0
  5 10  1  0  0  0  0
  7  4  1  0  0  0  0
  8 10  1  0  0  0  0
  8 26  1  1  0  0  0
  9  7  1  0  0  0  0
  9  3  1  0  0  0  0
 11  3  1  6  0  0  0
 11 18  1  0  0  0  0
 11  5  1  0  0  0  0
 12 19  1  0  0  0  0
 14 17  1  0  0  0  0
 15 20  2  0  0  0  0
 16 15  1  0  0  0  0
 17 12  2  0  0  0  0
 17 15  1  0  0  0  0
 18 14  1  6  0  0  0
 18 16  1  0  0  0  0
 19 13  2  0  0  0  0
 20 13  1  0  0  0  0
 21 12  1  0  0  0  0
 22 21  2  0  0  0  0
 23 21  1  0  0  0  0
 24 25  2  0  0  0  0
 26 27  1  0  0  0  0
 27 31  1  0  0  0  0
 27 28  2  0  0  0  0
 30 29  2  0  0  0  0
 31 30  2  0  0  0  0
M  END
>  <MODEL>
1

>  <REMARK>
 VINA RESULT:      -6.8      0.000      0.000
  Name = 
  6 active torsions:
  status: ('A' for Active; 'I' for Inactive)
    1  A    between atoms: C_3  and  C_17
    2  A    between atoms: C_4  and  C_12
    3  A    between atoms: C_18  and  C_20
    4  A    between atoms: C_18  and  C_23
    5  A    between atoms: C_21  and  C_23
    6  A    between atoms: C_22  and  C_31
                            x       y       z     vdW  Elec       q    Type
                         _______ _______ _______ _____ _____    ______ ____

>  <TORSDO>
F 6

$$$$
=
 OpenBabel11062415043D

 31 34  0  0  1  0  0  0  0  0999 V2000
  182.2630  178.7180  137.8060 C   0  0  0  0  0  2  0  0  0  0  0  0
  181.0590  179.4510  138.4320 C   0  0  1  0  0  3  0  0  0  0  0  0
  184.3120  177.2720  138.0570 C   0  0  0  0  0  2  0  0  0  0  0  0
  183.1690  174.9010  138.6800 O   0  0  0  0  0  0  0  0  0  0  0  0
  182.2410  176.9150  139.5870 C   0  0  2  0  0  3  0  0  0  0  0  0
  181.9750  175.6050  138.8510 C   0  0  0  0  0  2  0  0  0  0  0  0
  183.4720  174.9830  137.3120 C   0  0  0  0  0  2  0  0  0  0  0  0
  180.7310  178.9810  139.8600 C   0  0  2  0  0  3  0  0  0  0  0  0
  183.8890  176.3930  136.8790 C   0  0  0  0  0  2  0  0  0  0  0  0
  180.8750  177.4690  140.0220 C   0  0  0  0  0  2  0  0  0  0  0  0
  183.1350  177.9410  138.8120 C   0  0  2  0  0  0  0  0  0  0  0  0
  186.3070  178.2570  142.5270 C   0  0  0  0  0  0  0  0  0  0  0  0
  184.7180  178.3410  144.3870 C   0  0  0  0  0  3  0  0  0  0  0  0
  185.2300  178.6310  140.1750 C   0  0  0  0  0  2  0  0  0  0  0  0
  183.9560  178.6680  142.1370 C   0  0  0  0  0  0  0  0  0  0  0  0
  183.0150  178.9030  141.1110 N   0  0  0  0  0  2  0  0  0  0  0  0
  185.2300  178.5100  141.6590 C   0  0  0  0  0  0  0  0  0  0  0  0
  183.7450  178.9240  139.8420 C   0  0  2  0  0  3  0  0  0  0  0  0
  186.0300  178.1760  143.9060 C   0  0  0  0  0  3  0  0  0  0  0  0
  183.6640  178.5880  143.4970 C   0  0  0  0  0  3  0  0  0  0  0  0
  187.6940  178.0760  142.0540 C   0  0  0  0  0  0  0  0  0  0  0  0
  188.3540  176.8730  142.2790 O   0  0  0  0  0  1  0  0  0  0  0  0
  188.2980  178.9980  141.4440 O   0  0  0  0  0  0  0  0  0  0  0  0
  180.5400  181.7370  137.6810 C   0  0  0  0  0  2  0  0  0  0  0  0
  181.2960  180.9290  138.4210 C   0  0  0  0  0  3  0  0  0  0  0  0
  179.3560  179.4660  140.3370 C   0  0  0  0  0  2  0  0  0  0  0  0
  179.4240  180.4380  141.4830 C   0  0  0  0  0  0  0  0  0  0  0  0
  178.9360  181.6610  141.3300 C   0  0  0  0  0  2  0  0  0  0  0  0
  179.6770  177.8340  143.8900 O   0  0  0  0  0  0  0  0  0  0  0  0
  179.8580  178.9280  143.3430 C   0  0  0  0  0  0  0  0  0  0  0  0
  180.0480  180.0840  142.7650 C   0  0  0  0  0  3  0  0  0  0  0  0
  1  2  1  0  0  0  0
  2 25  1  1  0  0  0
  2  8  1  0  0  0  0
  3 11  1  0  0  0  0
  4  6  1  0  0  0  0
  5  6  1  6  0  0  0
  5 10  1  0  0  0  0
  7  4  1  0  0  0  0
  8 10  1  0  0  0  0
  8 26  1  6  0  0  0
  9  7  1  0  0  0  0
  9  3  1  0  0  0  0
 11  1  1  6  0  0  0
 11  5  1  0  0  0  0
 11 18  1  0  0  0  0
 12 19  1  0  0  0  0
 14 17  1  0  0  0  0
 15 20  2  0  0  0  0
 16 15  1  0  0  0  0
 17 15  1  0  0  0  0
 17 12  2  0  0  0  0
 18 14  1  1  0  0  0
 18 16  1  0  0  0  0
 19 13  2  0  0  0  0
 20 13  1  0  0  0  0
 21 22  1  0  0  0  0
 21 12  1  0  0  0  0
 23 21  2  0  0  0  0
 24 25  2  0  0  0  0
 26 27  1  0  0  0  0
 27 31  1  0  0  0  0
 28 27  2  0  0  0  0
 30 29  2  0  0  0  0
 31 30  2  0  0  0  0
M  END
>  <MODEL>
2

>  <REMARK>
 VINA RESULT:      -6.7      1.834      2.646
  Name = 
  6 active torsions:
  status: ('A' for Active; 'I' for Inactive)
    1  A    between atoms: C_3  and  C_17
    2  A    between atoms: C_4  and  C_12
    3  A    between atoms: C_18  and  C_20
    4  A    between atoms: C_18  and  C_23
    5  A    between atoms: C_21  and  C_23
    6  A    between atoms: C_22  and  C_31
                            x       y       z     vdW  Elec       q    Type
                         _______ _______ _______ _____ _____    ______ ____

>  <TORSDO>
F 6

$$$$
=
 OpenBabel11062415043D

 31 34  0  0  1  0  0  0  0  0999 V2000
  179.6490  178.2260  139.0330 C   0  0  0  0  0  2  0  0  0  0  0  0
  179.7210  176.8960  138.2580 C   0  0  1  0  0  3  0  0  0  0  0  0
  180.7830  180.2700  139.9780 C   0  0  0  0  0  2  0  0  0  0  0  0
  181.3670  181.6070  137.7000 O   0  0  0  0  0  0  0  0  0  0  0  0
  181.5870  179.2220  137.7390 C   0  0  2  0  0  3  0  0  0  0  0  0
  181.0240  180.4400  137.0140 C   0  0  0  0  0  2  0  0  0  0  0  0
  180.1790  182.0760  138.2820 C   0  0  0  0  0  2  0  0  0  0  0  0
  181.0180  176.7290  137.4480 C   0  0  2  0  0  3  0  0  0  0  0  0
  179.6880  181.1850  139.4290 C   0  0  0  0  0  2  0  0  0  0  0  0
  181.4580  178.0300  136.7780 C   0  0  0  0  0  2  0  0  0  0  0  0
  180.9950  178.9670  139.1660 C   0  0  2  0  0  0  0  0  0  0  0  0
  183.8510  178.8820  143.1410 C   0  0  0  0  0  0  0  0  0  0  0  0
  186.0230  179.2220  142.0650 C   0  0  0  0  0  3  0  0  0  0  0  0
  181.9160  178.2790  141.4900 C   0  0  0  0  0  2  0  0  0  0  0  0
  184.1030  178.6490  140.7470 C   0  0  0  0  0  0  0  0  0  0  0  0
  183.3830  178.3620  139.5680 N   0  0  0  0  0  2  0  0  0  0  0  0
  183.3170  178.6120  141.8680 C   0  0  0  0  0  0  0  0  0  0  0  0
  181.9980  178.0870  139.9550 C   0  0  2  0  0  3  0  0  0  0  0  0
  185.2230  179.1870  143.2220 C   0  0  0  0  0  3  0  0  0  0  0  0
  185.4610  178.9520  140.8100 C   0  0  0  0  0  3  0  0  0  0  0  0
  183.0390  178.8570  144.3740 C   0  0  0  0  0  0  0  0  0  0  0  0
  183.6460  179.0460  145.6110 O   0  0  0  0  0  1  0  0  0  0  0  0
  181.7940  178.6670  144.3280 O   0  0  0  0  0  0  0  0  0  0  0  0
  179.1210  175.9360  140.4440 C   0  0  0  0  0  2  0  0  0  0  0  0
  179.5530  175.7440  139.1990 C   0  0  0  0  0  3  0  0  0  0  0  0
  180.9360  175.5790  136.4360 C   0  0  0  0  0  2  0  0  0  0  0  0
  181.9920  174.5260  136.6330 C   0  0  0  0  0  0  0  0  0  0  0  0
  181.7520  173.2820  136.2420 C   0  0  0  0  0  2  0  0  0  0  0  0
  184.9320  173.0090  137.9340 O   0  0  0  0  0  0  0  0  0  0  0  0
  184.1270  173.8930  137.6150 C   0  0  0  0  0  0  0  0  0  0  0  0
  183.2770  174.8260  137.2780 C   0  0  0  0  0  3  0  0  0  0  0  0
  2  1  1  0  0  0  0
  2 25  1  1  0  0  0
  4  7  1  0  0  0  0
  5 10  1  6  0  0  0
  5 11  1  0  0  0  0
  6  4  1  0  0  0  0
  6  5  1  0  0  0  0
  7  9  1  0  0  0  0
  8 26  1  6  0  0  0
  8  2  1  0  0  0  0
  9  3  1  0  0  0  0
 10  8  1  0  0  0  0
 11  1  1  6  0  0  0
 11 18  1  0  0  0  0
 11  3  1  0  0  0  0
 12 19  1  0  0  0  0
 12 21  1  0  0  0  0
 13 19  2  0  0  0  0
 14 17  1  0  0  0  0
 15 20  2  0  0  0  0
 15 17  1  0  0  0  0
 16 18  1  0  0  0  0
 16 15  1  0  0  0  0
 17 12  2  0  0  0  0
 18 14  1  1  0  0  0
 20 13  1  0  0  0  0
 21 22  1  0  0  0  0
 23 21  2  0  0  0  0
 25 24  2  0  0  0  0
 26 27  1  0  0  0  0
 27 31  1  0  0  0  0
 28 27  2  0  0  0  0
 30 29  2  0  0  0  0
 31 30  2  0  0  0  0
M  END
>  <MODEL>
3

>  <REMARK>
 VINA RESULT:      -6.7      2.599      6.104
  Name = 
  6 active torsions:
  status: ('A' for Active; 'I' for Inactive)
    1  A    between atoms: C_3  and  C_17
    2  A    between atoms: C_4  and  C_12
    3  A    between atoms: C_18  and  C_20
    4  A    between atoms: C_18  and  C_23
    5  A    between atoms: C_21  and  C_23
    6  A    between atoms: C_22  and  C_31
                            x       y       z     vdW  Elec       q    Type
                         _______ _______ _______ _____ _____    ______ ____

>  <TORSDO>
F 6

$$$$
=
 OpenBabel11062415043D

 31 34  0  0  1  0  0  0  0  0999 V2000
  192.3210  174.4020  137.3300 C   0  0  0  0  0  2  0  0  0  0  0  0
  193.6970  175.0070  136.9880 C   0  0  1  0  0  3  0  0  0  0  0  0
  189.8140  174.6200  137.4800 C   0  0  0  0  0  2  0  0  0  0  0  0
  189.1650  174.6620  134.8540 O   0  0  0  0  0  0  0  0  0  0  0  0
  191.1380  175.8080  135.5840 C   0  0  2  0  0  3  0  0  0  0  0  0
  190.5280  174.8190  134.5940 C   0  0  0  0  0  2  0  0  0  0  0  0
  189.0220  173.3770  135.3990 C   0  0  0  0  0  2  0  0  0  0  0  0
  193.6110  176.2770  136.1240 C   0  0  2  0  0  3  0  0  0  0  0  0
  189.6120  173.2610  136.8090 C   0  0  0  0  0  2  0  0  0  0  0  0
  192.5310  176.1760  135.0480 C   0  0  0  0  0  2  0  0  0  0  0  0
  191.1250  175.3430  137.0790 C   0  0  2  0  0  0  0  0  0  0  0  0
  189.9580  177.1580  141.4730 C   0  0  0  0  0  0  0  0  0  0  0  0
  188.1290  178.6420  140.8060 C   0  0  0  0  0  3  0  0  0  0  0  0
  191.4030  176.2720  139.4840 C   0  0  0  0  0  2  0  0  0  0  0  0
  189.5950  177.7170  139.1480 C   0  0  0  0  0  0  0  0  0  0  0  0
  190.0920  177.4800  137.8480 N   0  0  0  0  0  2  0  0  0  0  0  0
  190.3060  177.0560  140.1140 C   0  0  0  0  0  0  0  0  0  0  0  0
  191.2540  176.6000  137.9760 C   0  0  2  0  0  3  0  0  0  0  0  0
  188.8530  177.9670  141.8050 C   0  0  0  0  0  3  0  0  0  0  0  0
  188.4980  178.5170  139.4590 C   0  0  0  0  0  3  0  0  0  0  0  0
  190.6940  176.4600  142.5450 C   0  0  0  0  0  0  0  0  0  0  0  0
  191.6760  177.1310  143.2660 O   0  0  0  0  0  1  0  0  0  0  0  0
  190.4500  175.2560  142.8230 O   0  0  0  0  0  0  0  0  0  0  0  0
  195.2210  174.3620  138.8100 C   0  0  0  0  0  2  0  0  0  0  0  0
  194.4570  175.2940  138.2450 C   0  0  0  0  0  3  0  0  0  0  0  0
  194.9650  176.6720  135.5220 C   0  0  0  0  0  2  0  0  0  0  0  0
  195.8910  175.5070  135.3040 C   0  0  0  0  0  0  0  0  0  0  0  0
  197.1420  175.5800  135.7350 C   0  0  0  0  0  2  0  0  0  0  0  0
  196.6880  172.0770  134.8100 O   0  0  0  0  0  0  0  0  0  0  0  0
  196.0910  173.1560  134.7050 C   0  0  0  0  0  0  0  0  0  0  0  0
  195.4610  174.2950  134.5940 C   0  0  0  0  0  3  0  0  0  0  0  0
  2  1  1  0  0  0  0
  2 25  1  1  0  0  0
  4  7  1  0  0  0  0
  5  6  1  6  0  0  0
  5 11  1  0  0  0  0
  6  4  1  0  0  0  0
  7  9  1  0  0  0  0
  8 26  1  6  0  0  0
  8  2  1  0  0  0  0
  9  3  1  0  0  0  0
 10  5  1  0  0  0  0
 10  8  1  0  0  0  0
 11  1  1  1  0  0  0
 11  3  1  0  0  0  0
 11 18  1  0  0  0  0
 12 19  1  0  0  0  0
 12 21  1  0  0  0  0
 13 19  2  0  0  0  0
 14 17  1  0  0  0  0
 15 20  2  0  0  0  0
 15 17  1  0  0  0  0
 16 18  1  0  0  0  0
 16 15  1  0  0  0  0
 17 12  2  0  0  0  0
 18 14  1  1  0  0  0
 20 13  1  0  0  0  0
 21 23  2  0  0  0  0
 21 22  1  0  0  0  0
 25 24  2  0  0  0  0
 27 26  1  0  0  0  0
 27 28  2  0  0  0  0
 30 29  2  0  0  0  0
 31 30  2  0  0  0  0
 31 27  1  0  0  0  0
M  END
>  <MODEL>
4

>  <REMARK>
 VINA RESULT:      -6.3      5.637     10.641
  Name = 
  6 active torsions:
  status: ('A' for Active; 'I' for Inactive)
    1  A    between atoms: C_3  and  C_17
    2  A    between atoms: C_4  and  C_12
    3  A    between atoms: C_18  and  C_20
    4  A    between atoms: C_18  and  C_23
    5  A    between atoms: C_21  and  C_23
    6  A    between atoms: C_22  and  C_31
                            x       y       z     vdW  Elec       q    Type
                         _______ _______ _______ _____ _____    ______ ____

>  <TORSDO>
F 6

$$$$
=
 OpenBabel11062415043D

 31 34  0  0  1  0  0  0  0  0999 V2000
  182.9400  179.2910  139.5740 C   0  0  0  0  0  2  0  0  0  0  0  0
  184.2320  179.0120  140.3670 C   0  0  1  0  0  3  0  0  0  0  0  0
  180.5340  178.7460  139.0530 C   0  0  0  0  0  2  0  0  0  0  0  0
  179.3370  179.5750  141.3330 O   0  0  0  0  0  0  0  0  0  0  0  0
  181.4630  178.4790  141.4660 C   0  0  2  0  0  3  0  0  0  0  0  0
  180.6170  179.6800  141.8810 C   0  0  0  0  0  2  0  0  0  0  0  0
  179.2660  180.5540  140.3300 C   0  0  0  0  0  2  0  0  0  0  0  0
  184.0100  178.1360  141.6110 C   0  0  2  0  0  3  0  0  0  0  0  0
  180.1410  180.2230  139.1150 C   0  0  0  0  0  2  0  0  0  0  0  0
  182.7200  178.4910  142.3500 C   0  0  0  0  0  2  0  0  0  0  0  0
  181.7550  178.3720  139.9320 C   0  0  2  0  0  0  0  0  0  0  0  0
  181.0340  174.7660  136.6990 C   0  0  0  0  0  0  0  0  0  0  0  0
  179.4710  173.3960  137.9900 C   0  0  0  0  0  3  0  0  0  0  0  0
  182.2530  176.6100  138.0950 C   0  0  0  0  0  2  0  0  0  0  0  0
  180.7100  175.1440  139.0670 C   0  0  0  0  0  0  0  0  0  0  0  0
  181.1250  175.9660  140.1360 N   0  0  0  0  0  2  0  0  0  0  0  0
  181.3240  175.4660  137.8850 C   0  0  0  0  0  0  0  0  0  0  0  0
  182.1220  176.9010  139.6120 C   0  0  2  0  0  3  0  0  0  0  0  0
  180.0950  173.7200  136.7720 C   0  0  0  0  0  3  0  0  0  0  0  0
  179.7770  174.1140  139.1540 C   0  0  0  0  0  3  0  0  0  0  0  0
  181.6690  175.0840  135.4040 C   0  0  0  0  0  0  0  0  0  0  0  0
  182.7120  174.2970  134.9290 O   0  0  0  0  0  1  0  0  0  0  0  0
  181.2800  176.0630  134.7140 O   0  0  0  0  0  0  0  0  0  0  0  0
  185.2510  178.6090  138.1620 C   0  0  0  0  0  2  0  0  0  0  0  0
  185.2560  178.3820  139.4740 C   0  0  0  0  0  3  0  0  0  0  0  0
  185.2160  178.1420  142.5580 C   0  0  0  0  0  2  0  0  0  0  0  0
  184.9610  178.8580  143.8560 C   0  0  0  0  0  0  0  0  0  0  0  0
  184.6270  180.1400  143.8380 C   0  0  0  0  0  2  0  0  0  0  0  0
  185.6930  179.4430  147.2860 O   0  0  0  0  0  0  0  0  0  0  0  0
  185.4060  178.8310  146.2500 C   0  0  0  0  0  0  0  0  0  0  0  0
  185.1040  178.1860  145.1550 C   0  0  0  0  0  3  0  0  0  0  0  0
  1 11  1  0  0  0  0
  1  2  1  0  0  0  0
  2 25  1  6  0  0  0
  2  8  1  0  0  0  0
  3  9  1  0  0  0  0
  4  6  1  0  0  0  0
  5  6  1  6  0  0  0
  5 10  1  0  0  0  0
  7  4  1  0  0  0  0
  8 10  1  0  0  0  0
  8 26  1  1  0  0  0
  9  7  1  0  0  0  0
 11  3  1  6  0  0  0
 11  5  1  0  0  0  0
 12 19  2  0  0  0  0
 12 17  1  0  0  0  0
 13 20  2  0  0  0  0
 15 20  1  0  0  0  0
 15 16  1  0  0  0  0
 17 14  1  0  0  0  0
 17 15  2  0  0  0  0
 18 14  1  6  0  0  0
 18 11  1  0  0  0  0
 18 16  1  0  0  0  0
 19 13  1  0  0  0  0
 21 12  1  0  0  0  0
 22 21  1  0  0  0  0
 23 21  2  0  0  0  0
 24 25  2  0  0  0  0
 26 27  1  0  0  0  0
 27 31  1  0  0  0  0
 28 27  2  0  0  0  0
 30 29  2  0  0  0  0
 31 30  2  0  0  0  0
M  END
>  <MODEL>
5

>  <REMARK>
 VINA RESULT:      -6.3      2.995      5.904
  Name = 
  6 active torsions:
  status: ('A' for Active; 'I' for Inactive)
    1  A    between atoms: C_3  and  C_17
    2  A    between atoms: C_4  and  C_12
    3  A    between atoms: C_18  and  C_20
    4  A    between atoms: C_18  and  C_23
    5  A    between atoms: C_21  and  C_23
    6  A    between atoms: C_22  and  C_31
                            x       y       z     vdW  Elec       q    Type
                         _______ _______ _______ _____ _____    ______ ____

>  <TORSDO>
F 6

$$$$
=
 OpenBabel11062415043D

 31 34  0  0  1  0  0  0  0  0999 V2000
  180.7770  177.7560  137.3710 C   0  0  0  0  0  2  0  0  0  0  0  0
  180.2110  179.0630  136.7830 C   0  0  1  0  0  3  0  0  0  0  0  0
  181.7350  176.4690  139.3160 C   0  0  0  0  0  2  0  0  0  0  0  0
  179.5440  176.2490  140.8880 O   0  0  0  0  0  0  0  0  0  0  0  0
  179.9210  178.2930  139.6960 C   0  0  2  0  0  3  0  0  0  0  0  0
  178.9350  177.1810  140.0450 C   0  0  0  0  0  2  0  0  0  0  0  0
  179.7380  175.0960  140.1110 C   0  0  0  0  0  2  0  0  0  0  0  0
  179.7900  180.0850  137.8530 C   0  0  2  0  0  3  0  0  0  0  0  0
  180.8160  175.2790  139.0370 C   0  0  0  0  0  2  0  0  0  0  0  0
  179.1080  179.4260  139.0510 C   0  0  0  0  0  2  0  0  0  0  0  0
  181.1650  177.8370  138.8620 C   0  0  2  0  0  0  0  0  0  0  0  0
  186.0150  178.3720  139.2690 C   0  0  0  0  0  0  0  0  0  0  0  0
  186.1600  178.7610  141.6810 C   0  0  0  0  0  3  0  0  0  0  0  0
  183.5950  178.5460  138.2960 C   0  0  0  0  0  2  0  0  0  0  0  0
  184.0380  178.8810  140.5690 C   0  0  0  0  0  0  0  0  0  0  0  0
  182.6420  179.0560  140.4610 N   0  0  0  0  0  2  0  0  0  0  0  0
  184.6280  178.5920  139.3660 C   0  0  0  0  0  0  0  0  0  0  0  0
  182.2860  178.8900  139.0510 C   0  0  2  0  0  3  0  0  0  0  0  0
  186.7740  178.4640  140.4520 C   0  0  0  0  0  3  0  0  0  0  0  0
  184.7750  178.9710  141.7470 C   0  0  0  0  0  3  0  0  0  0  0  0
  186.6900  178.0550  137.9950 C   0  0  0  0  0  0  0  0  0  0  0  0
  187.6610  178.9120  137.4900 O   0  0  0  0  0  1  0  0  0  0  0  0
  186.4010  177.0120  137.3500 O   0  0  0  0  0  0  0  0  0  0  0  0
  180.8080  180.3470  134.7690 C   0  0  0  0  0  2  0  0  0  0  0  0
  181.2060  179.6790  135.8500 C   0  0  0  0  0  3  0  0  0  0  0  0
  178.9360  181.2210  137.2780 C   0  0  0  0  0  2  0  0  0  0  0  0
  179.4120  182.5930  137.6710 C   0  0  0  0  0  0  0  0  0  0  0  0
  179.0500  183.0990  138.8410 C   0  0  0  0  0  2  0  0  0  0  0  0
  182.3380  184.6110  137.5840 O   0  0  0  0  0  0  0  0  0  0  0  0
  181.3210  184.0270  137.1920 C   0  0  0  0  0  0  0  0  0  0  0  0
  180.2450  183.4100  136.7790 C   0  0  0  0  0  3  0  0  0  0  0  0
  2 25  1  6  0  0  0
  2  1  1  0  0  0  0
  2  8  1  0  0  0  0
  5 10  1  6  0  0  0
  5  6  1  0  0  0  0
  6  4  1  0  0  0  0
  7  4  1  0  0  0  0
  8 26  1  6  0  0  0
  8 10  1  0  0  0  0
  9  3  1  0  0  0  0
  9  7  1  0  0  0  0
 11  1  1  6  0  0  0
 11 18  1  0  0  0  0
 11  3  1  0  0  0  0
 11  5  1  0  0  0  0
 12 17  2  0  0  0  0
 12 19  1  0  0  0  0
 13 20  1  0  0  0  0
 14 17  1  0  0  0  0
 15 20  2  0  0  0  0
 16 15  1  0  0  0  0
 17 15  1  0  0  0  0
 18 14  1  6  0  0  0
 18 16  1  0  0  0  0
 19 13  2  0  0  0  0
 21 12  1  0  0  0  0
 22 21  1  0  0  0  0
 23 21  2  0  0  0  0
 24 25  2  0  0  0  0
 26 27  1  0  0  0  0
 27 28  2  0  0  0  0
 30 29  2  0  0  0  0
 31 30  2  0  0  0  0
 31 27  1  0  0  0  0
M  END
>  <MODEL>
6

>  <REMARK>
 VINA RESULT:      -6.3      2.653      4.380
  Name = 
  6 active torsions:
  status: ('A' for Active; 'I' for Inactive)
    1  A    between atoms: C_3  and  C_17
    2  A    between atoms: C_4  and  C_12
    3  A    between atoms: C_18  and  C_20
    4  A    between atoms: C_18  and  C_23
    5  A    between atoms: C_21  and  C_23
    6  A    between atoms: C_22  and  C_31
                            x       y       z     vdW  Elec       q    Type
                         _______ _______ _______ _____ _____    ______ ____

>  <TORSDO>
F 6

$$$$
=
 OpenBabel11062415043D

 31 34  0  0  1  0  0  0  0  0999 V2000
  184.0810  179.4220  139.7830 C   0  0  0  0  0  2  0  0  0  0  0  0
  185.0790  179.0900  140.9090 C   0  0  1  0  0  3  0  0  0  0  0  0
  182.0000  178.8680  138.4730 C   0  0  0  0  0  2  0  0  0  0  0  0
  180.0990  179.3690  140.3310 O   0  0  0  0  0  0  0  0  0  0  0  0
  182.1500  178.3350  141.0130 C   0  0  2  0  0  3  0  0  0  0  0  0
  181.1350  179.4470  141.2640 C   0  0  0  0  0  2  0  0  0  0  0  0
  180.2750  180.4620  139.4680 C   0  0  0  0  0  2  0  0  0  0  0  0
  184.5430  178.0600  141.9190 C   0  0  2  0  0  3  0  0  0  0  0  0
  181.5050  180.3120  138.5640 C   0  0  0  0  0  2  0  0  0  0  0  0
  183.0670  178.2790  142.2450 C   0  0  0  0  0  2  0  0  0  0  0  0
  182.9100  178.4280  139.6470 C   0  0  2  0  0  0  0  0  0  0  0  0
  183.7290  175.3350  135.9410 C   0  0  0  0  0  0  0  0  0  0  0  0
  181.8700  173.7870  136.3110 C   0  0  0  0  0  3  0  0  0  0  0  0
  184.1910  176.9560  137.9390 C   0  0  0  0  0  2  0  0  0  0  0  0
  182.4820  175.3610  138.0140 C   0  0  0  0  0  0  0  0  0  0  0  0
  182.3950  176.0170  139.2600 N   0  0  0  0  0  2  0  0  0  0  0  0
  183.4890  175.8540  137.2270 C   0  0  0  0  0  0  0  0  0  0  0  0
  183.4600  177.0200  139.3040 C   0  0  2  0  0  3  0  0  0  0  0  0
  182.9000  174.2880  135.4950 C   0  0  0  0  0  3  0  0  0  0  0  0
  181.6520  174.3270  137.5860 C   0  0  0  0  0  3  0  0  0  0  0  0
  184.8000  175.8410  135.0590 C   0  0  0  0  0  0  0  0  0  0  0  0
  184.7770  177.1610  134.6240 O   0  0  0  0  0  0  0  0  0  0  0  0
  185.7430  175.0930  134.6890 O   0  0  0  0  0  1  0  0  0  0  0  0
  187.4930  178.6230  141.0410 C   0  0  0  0  0  2  0  0  0  0  0  0
  186.3700  178.6090  140.3240 C   0  0  0  0  0  3  0  0  0  0  0  0
  185.3930  177.9880  143.1940 C   0  0  0  0  0  2  0  0  0  0  0  0
  184.8660  178.8380  144.3180 C   0  0  0  0  0  0  0  0  0  0  0  0
  184.6030  180.1180  144.0990 C   0  0  0  0  0  2  0  0  0  0  0  0
  185.9760  179.1340  147.6820 O   0  0  0  0  0  0  0  0  0  0  0  0
  185.3370  178.7280  146.7040 C   0  0  0  0  0  0  0  0  0  0  0  0
  184.6640  178.2990  145.6700 C   0  0  0  0  0  3  0  0  0  0  0  0
  1  2  1  0  0  0  0
  2 25  1  6  0  0  0
  2  8  1  0  0  0  0
  3  9  1  0  0  0  0
  4  6  1  0  0  0  0
  5  6  1  1  0  0  0
  5 10  1  0  0  0  0
  7  4  1  0  0  0  0
  8 10  1  0  0  0  0
  8 26  1  1  0  0  0
  9  7  1  0  0  0  0
 11  3  1  6  0  0  0
 11  1  1  0  0  0  0
 11  5  1  0  0  0  0
 12 17  1  0  0  0  0
 13 20  2  0  0  0  0
 15 16  1  0  0  0  0
 16 18  1  0  0  0  0
 17 14  1  0  0  0  0
 17 15  2  0  0  0  0
 18 14  1  6  0  0  0
 18 11  1  0  0  0  0
 19 12  2  0  0  0  0
 19 13  1  0  0  0  0
 20 15  1  0  0  0  0
 21 12  1  0  0  0  0
 22 21  2  0  0  0  0
 23 21  1  0  0  0  0
 25 24  2  0  0  0  0
 26 27  1  0  0  0  0
 27 31  1  0  0  0  0
 28 27  2  0  0  0  0
 30 29  2  0  0  0  0
 31 30  2  0  0  0  0
M  END
>  <MODEL>
7

>  <REMARK>
 VINA RESULT:      -6.1      2.252      5.088
  Name = 
  6 active torsions:
  status: ('A' for Active; 'I' for Inactive)
    1  A    between atoms: C_3  and  C_17
    2  A    between atoms: C_4  and  C_12
    3  A    between atoms: C_18  and  C_20
    4  A    between atoms: C_18  and  C_23
    5  A    between atoms: C_21  and  C_23
    6  A    between atoms: C_22  and  C_31
                            x       y       z     vdW  Elec       q    Type
                         _______ _______ _______ _____ _____    ______ ____

>  <TORSDO>
F 6

$$$$
=
 OpenBabel11062415043D

 31 34  0  0  1  0  0  0  0  0999 V2000
  182.8320  178.9390  140.2130 C   0  0  0  0  0  2  0  0  0  0  0  0
  183.8270  178.0340  139.4600 C   0  0  1  0  0  3  0  0  0  0  0  0
  180.6160  180.1370  140.3180 C   0  0  0  0  0  2  0  0  0  0  0  0
  178.9320  178.0370  140.5760 O   0  0  0  0  0  0  0  0  0  0  0  0
  180.8260  177.8390  139.1230 C   0  0  2  0  0  3  0  0  0  0  0  0
  180.0190  177.2190  140.2610 C   0  0  0  0  0  2  0  0  0  0  0  0
  179.2310  178.6120  141.8210 C   0  0  0  0  0  2  0  0  0  0  0  0
  183.1920  177.2670  138.2870 C   0  0  2  0  0  3  0  0  0  0  0  0
  180.3660  179.6400  141.7430 C   0  0  0  0  0  2  0  0  0  0  0  0
  181.7910  176.7550  138.6180 C   0  0  0  0  0  2  0  0  0  0  0  0
  181.5110  179.2050  139.4630 C   0  0  2  0  0  0  0  0  0  0  0  0
  180.4320  183.2210  136.8800 C   0  0  0  0  0  0  0  0  0  0  0  0
  178.9330  182.2240  135.2220 C   0  0  0  0  0  3  0  0  0  0  0  0
  181.8100  181.4840  138.2640 C   0  0  0  0  0  2  0  0  0  0  0  0
  180.3050  180.8220  136.6010 C   0  0  0  0  0  0  0  0  0  0  0  0
  180.8260  179.6080  137.0970 N   0  0  0  0  0  2  0  0  0  0  0  0
  180.8340  181.9190  137.2290 C   0  0  0  0  0  0  0  0  0  0  0  0
  181.8070  179.9410  138.1320 C   0  0  2  0  0  3  0  0  0  0  0  0
  179.4690  183.3570  135.8610 C   0  0  0  0  0  3  0  0  0  0  0  0
  179.3500  180.9390  135.5940 C   0  0  0  0  0  3  0  0  0  0  0  0
  180.9720  184.4300  137.5340 C   0  0  0  0  0  0  0  0  0  0  0  0
  182.3470  184.6310  137.5950 O   0  0  0  0  0  0  0  0  0  0  0  0
  180.2060  185.2910  138.0410 O   0  0  0  0  0  1  0  0  0  0  0  0
  186.2340  178.5340  139.3270 C   0  0  0  0  0  2  0  0  0  0  0  0
  184.9890  178.8440  138.9740 C   0  0  0  0  0  3  0  0  0  0  0  0
  184.0920  176.1400  137.7660 C   0  0  0  0  0  2  0  0  0  0  0  0
  184.4150  176.2550  136.3020 C   0  0  0  0  0  0  0  0  0  0  0  0
  183.5090  175.8960  135.4040 C   0  0  0  0  0  2  0  0  0  0  0  0
  187.9030  176.0500  136.9590 O   0  0  0  0  0  0  0  0  0  0  0  0
  186.8440  176.3770  136.4090 C   0  0  0  0  0  0  0  0  0  0  0  0
  185.7260  176.7230  135.8300 C   0  0  0  0  0  3  0  0  0  0  0  0
  2 25  1  6  0  0  0
  2  1  1  0  0  0  0
  3  9  1  0  0  0  0
  4  7  1  0  0  0  0
  5 10  1  1  0  0  0
  5 11  1  0  0  0  0
  5  6  1  0  0  0  0
  6  4  1  0  0  0  0
  8 26  1  1  0  0  0
  8 10  1  0  0  0  0
  8  2  1  0  0  0  0
  9  7  1  0  0  0  0
 11  1  1  1  0  0  0
 11  3  1  0  0  0  0
 12 17  1  0  0  0  0
 12 21  1  0  0  0  0
 13 20  2  0  0  0  0
 13 19  1  0  0  0  0
 15 16  1  0  0  0  0
 15 17  2  0  0  0  0
 16 18  1  0  0  0  0
 17 14  1  0  0  0  0
 18 14  1  1  0  0  0
 18 11  1  0  0  0  0
 19 12  2  0  0  0  0
 20 15  1  0  0  0  0
 21 22  2  0  0  0  0
 21 23  1  0  0  0  0
 25 24  2  0  0  0  0
 27 26  1  0  0  0  0
 28 27  2  0  0  0  0
 30 29  2  0  0  0  0
 31 27  1  0  0  0  0
 31 30  2  0  0  0  0
M  END
>  <MODEL>
8

>  <REMARK>
 VINA RESULT:      -5.8      3.303      7.376
  Name = 
  6 active torsions:
  status: ('A' for Active; 'I' for Inactive)
    1  A    between atoms: C_3  and  C_17
    2  A    between atoms: C_4  and  C_12
    3  A    between atoms: C_18  and  C_20
    4  A    between atoms: C_18  and  C_23
    5  A    between atoms: C_21  and  C_23
    6  A    between atoms: C_22  and  C_31
                            x       y       z     vdW  Elec       q    Type
                         _______ _______ _______ _____ _____    ______ ____

>  <TORSDO>
F 6

$$$$
=
 OpenBabel11062415043D

 31 34  0  0  1  0  0  0  0  0999 V2000
  190.9850  177.8740  139.0900 C   0  0  0  0  0  2  0  0  0  0  0  0
  191.3480  177.5080  140.5430 C   0  0  1  0  0  3  0  0  0  0  0  0
  189.7180  177.3870  136.9650 C   0  0  0  0  0  2  0  0  0  0  0  0
  187.1930  177.9440  137.7580 O   0  0  0  0  0  0  0  0  0  0  0  0
  188.6770  176.8450  139.2850 C   0  0  2  0  0  3  0  0  0  0  0  0
  187.6900  177.9880  139.0630 C   0  0  0  0  0  2  0  0  0  0  0  0
  187.7730  179.0320  137.0880 C   0  0  0  0  0  2  0  0  0  0  0  0
  190.3830  176.4940  141.1790 C   0  0  2  0  0  3  0  0  0  0  0  0
  189.2750  178.8460  136.8440 C   0  0  0  0  0  2  0  0  0  0  0  0
  188.9270  176.7580  140.7990 C   0  0  0  0  0  2  0  0  0  0  0  0
  189.9790  176.9170  138.4190 C   0  0  2  0  0  0  0  0  0  0  0  0
  192.6550  173.9430  135.5960 C   0  0  0  0  0  0  0  0  0  0  0  0
  190.8680  172.5020  134.7490 C   0  0  0  0  0  3  0  0  0  0  0  0
  191.9580  175.4420  137.6210 C   0  0  0  0  0  2  0  0  0  0  0  0
  190.4590  173.9570  136.6110 C   0  0  0  0  0  0  0  0  0  0  0  0
  189.7040  174.5630  137.6370 N   0  0  0  0  0  2  0  0  0  0  0  0
  191.7480  174.4200  136.5600 C   0  0  0  0  0  0  0  0  0  0  0  0
  190.5870  175.4930  138.3420 C   0  0  2  0  0  3  0  0  0  0  0  0
  192.1930  172.9720  134.6880 C   0  0  0  0  0  3  0  0  0  0  0  0
  189.9860  172.9990  135.7180 C   0  0  0  0  0  3  0  0  0  0  0  0
  194.0500  174.4180  135.5040 C   0  0  0  0  0  0  0  0  0  0  0  0
  194.3420  175.5930  134.8200 O   0  0  0  0  0  0  0  0  0  0  0  0
  194.9920  173.7730  136.0380 O   0  0  0  0  0  1  0  0  0  0  0  0
  193.7090  177.5150  139.8440 C   0  0  0  0  0  2  0  0  0  0  0  0
  192.7510  176.9890  140.6040 C   0  0  0  0  0  3  0  0  0  0  0  0
  190.5540  176.3930  142.7000 C   0  0  0  0  0  2  0  0  0  0  0  0
  189.9060  177.5210  143.4550 C   0  0  0  0  0  0  0  0  0  0  0  0
  190.5560  178.6670  143.5990 C   0  0  0  0  0  2  0  0  0  0  0  0
  188.2110  177.6190  146.5790 O   0  0  0  0  0  0  0  0  0  0  0  0
  188.3900  177.5040  145.3600 C   0  0  0  0  0  0  0  0  0  0  0  0
  188.5810  177.3820  144.0740 C   0  0  0  0  0  3  0  0  0  0  0  0
  1  2  1  0  0  0  0
  2 25  1  6  0  0  0
  2  8  1  0  0  0  0
  4  6  1  0  0  0  0
  5  6  1  1  0  0  0
  5 10  1  0  0  0  0
  7  4  1  0  0  0  0
  8 26  1  1  0  0  0
  9  3  1  0  0  0  0
  9  7  1  0  0  0  0
 10  8  1  0  0  0  0
 11  3  1  6  0  0  0
 11  1  1  0  0  0  0
 11  5  1  0  0  0  0
 12 17  1  0  0  0  0
 13 20  2  0  0  0  0
 15 16  1  0  0  0  0
 16 18  1  0  0  0  0
 17 15  2  0  0  0  0
 17 14  1  0  0  0  0
 18 14  1  6  0  0  0
 18 11  1  0  0  0  0
 19 13  1  0  0  0  0
 19 12  2  0  0  0  0
 20 15  1  0  0  0  0
 21 12  1  0  0  0  0
 21 23  1  0  0  0  0
 22 21  2  0  0  0  0
 24 25  2  0  0  0  0
 26 27  1  0  0  0  0
 27 28  2  0  0  0  0
 27 31  1  0  0  0  0
 30 29  2  0  0  0  0
 31 30  2  0  0  0  0
M  END
>  <MODEL>
9

>  <REMARK>
 VINA RESULT:      -5.6      5.058      7.938
  Name = 
  6 active torsions:
  status: ('A' for Active; 'I' for Inactive)
    1  A    between atoms: C_3  and  C_17
    2  A    between atoms: C_4  and  C_12
    3  A    between atoms: C_18  and  C_20
    4  A    between atoms: C_18  and  C_23
    5  A    between atoms: C_21  and  C_23
    6  A    between atoms: C_22  and  C_31
                            x       y       z     vdW  Elec       q    Type
                         _______ _______ _______ _____ _____    ______ ____

>  <TORSDO>
F 6

$$$$
