=
 OpenBabel11062416523D

 34 36  0  0  1  0  0  0  0  0999 V2000
  189.9020  177.0510  139.8220 N   0  0  0  0  0  0  0  0  0  0  0  0
  186.3200  178.5550  143.2450 C   0  0  2  0  0  3  0  0  0  0  0  0
  186.5760  178.9040  141.7800 C   0  0  0  0  0  2  0  0  0  0  0  0
  186.6210  177.0750  143.5110 C   0  0  0  0  0  2  0  0  0  0  0  0
  189.7990  176.8080  141.2620 C   0  0  2  0  0  3  0  0  0  0  0  0
  188.2390  178.8820  139.9910 N   0  0  0  0  0  2  0  0  0  0  0  0
  188.3560  177.1210  141.7050 C   0  0  2  0  0  3  0  0  0  0  0  0
  188.0210  178.5910  141.4050 C   0  0  2  0  0  3  0  0  0  0  0  0
  189.4200  178.4790  138.0260 O   0  0  0  0  0  0  0  0  0  0  0  0
  189.2120  178.1630  139.2270 C   0  0  0  0  0  0  0  0  0  0  0  0
  188.0700  176.7580  143.1610 C   0  0  0  0  0  2  0  0  0  0  0  0
  190.6110  176.0890  138.9920 C   0  0  0  0  0  1  0  0  0  0  0  0
  192.0280  177.7640  141.2610 O   0  0  0  0  0  1  0  0  0  0  0  0
  190.8580  177.6430  142.0160 C   0  0  2  0  0  3  0  0  0  0  0  0
  191.1260  177.8840  144.4900 C   0  0  0  0  0  3  0  0  0  0  0  0
  191.9150  175.2130  144.7460 C   0  0  0  0  0  3  0  0  0  0  0  0
  191.1970  177.0680  143.3560 C   0  0  0  0  0  0  0  0  0  0  0  0
  191.8360  176.0300  145.8770 C   0  0  0  0  0  3  0  0  0  0  0  0
  191.5990  175.7290  143.4860 C   0  0  0  0  0  3  0  0  0  0  0  0
  191.4420  177.3660  145.7490 C   0  0  0  0  0  3  0  0  0  0  0  0
  184.9030  178.9680  143.6720 C   0  0  2  0  0  3  0  0  0  0  0  0
  184.6820  178.7170  145.1660 C   0  0  0  0  0  2  0  0  0  0  0  0
  185.7750  179.3330  146.0300 C   0  0  0  0  0  2  0  0  0  0  0  0
  185.9290  178.5540  147.3250 C   0  0  0  0  0  2  0  0  0  0  0  0
  187.8690  177.9540  148.7740 O   0  0  0  0  0  1  0  0  0  0  0  0
  188.0380  177.8180  146.4930 O   0  0  0  0  0  0  0  0  0  0  0  0
  187.3390  178.1010  147.4990 C   0  0  0  0  0  0  0  0  0  0  0  0
  183.7690  178.3960  142.7850 C   0  0  1  0  0  3  0  0  0  0  0  0
  181.8420  178.4270  144.2170 O   0  0  0  0  0  0  0  0  0  0  0  0
  182.3940  178.8650  143.1690 C   0  0  0  0  0  0  0  0  0  0  0  0
  181.7420  179.7890  142.3540 O   0  0  0  0  0  0  0  0  0  0  0  0
  180.5560  179.4610  141.6480 C   0  0  0  0  0  1  0  0  0  0  0  0
  184.0110  178.5480  141.4040 O   0  0  0  0  0  0  0  0  0  0  0  0
  183.4900  177.4930  140.8020 O   0  0  0  0  0  1  0  0  0  0  0  0
  1  5  1  0  0  0  0
  2  4  1  0  0  0  0
  2 21  1  6  0  0  0
  3  2  1  0  0  0  0
  5  7  1  0  0  0  0
  5 14  1  1  0  0  0
  6  8  1  0  0  0  0
  7 11  1  1  0  0  0
  8  7  1  0  0  0  0
  8  3  1  6  0  0  0
  9 10  2  0  0  0  0
 10  1  1  0  0  0  0
 10  6  1  0  0  0  0
 11  4  1  0  0  0  0
 12  1  1  0  0  0  0
 14 13  1  6  0  0  0
 14 17  1  0  0  0  0
 15 20  1  0  0  0  0
 16 18  1  0  0  0  0
 17 19  1  0  0  0  0
 17 15  2  0  0  0  0
 19 16  2  0  0  0  0
 20 18  2  0  0  0  0
 21 22  1  1  0  0  0
 22 23  1  0  0  0  0
 23 24  1  0  0  0  0
 24 27  1  0  0  0  0
 26 27  2  0  0  0  0
 27 25  1  0  0  0  0
 28 33  1  6  0  0  0
 28 30  1  0  0  0  0
 28 21  1  0  0  0  0
 30 29  2  0  0  0  0
 31 30  1  0  0  0  0
 32 31  1  0  0  0  0
 34 33  1  0  0  0  0
M  END
>  <MODEL>
1

>  <REMARK>
 VINA RESULT:      -7.9      0.000      0.000
  Name = 
  11 active torsions:
  status: ('A' for Active; 'I' for Inactive)
    1  A    between atoms: C_2  and  C_19
    2  A    between atoms: C_2  and  C_25
    3  A    between atoms: C_3  and  O_16
    4  A    between atoms: C_3  and  C_34
    5  A    between atoms: C_5  and  C_25
    6  A    between atoms: C_11  and  C_26
    7  A    between atoms: C_13  and  C_19
    8  A    between atoms: C_13  and  C_23
    9  A    between atoms: C_18  and  C_26
   10  A    between atoms: C_25  and  C_34
   11  A    between atoms: O_28  and  C_34
                            x       y       z     vdW  Elec       q    Type
                         _______ _______ _______ _____ _____    ______ ____

>  <TORSDO>
F 11

$$$$
=
 OpenBabel11062416523D

 34 36  0  0  1  0  0  0  0  0999 V2000
  189.6850  176.6140  142.6820 N   0  0  0  0  0  0  0  0  0  0  0  0
  185.1600  178.8920  141.6100 C   0  0  2  0  0  3  0  0  0  0  0  0
  186.4070  178.6020  140.7760 C   0  0  0  0  0  2  0  0  0  0  0  0
  184.8790  177.7410  142.5830 C   0  0  0  0  0  2  0  0  0  0  0  0
  188.5840  177.0090  143.5640 C   0  0  2  0  0  3  0  0  0  0  0  0
  188.7850  178.0570  140.8780 N   0  0  0  0  0  2  0  0  0  0  0  0
  187.3340  177.2600  142.6980 C   0  0  2  0  0  3  0  0  0  0  0  0
  187.6120  178.3830  141.6840 C   0  0  2  0  0  3  0  0  0  0  0  0
  190.8650  177.0250  140.6970 O   0  0  0  0  0  0  0  0  0  0  0  0
  189.8370  177.2360  141.3950 C   0  0  0  0  0  0  0  0  0  0  0  0
  186.0690  177.5280  143.5110 C   0  0  0  0  0  2  0  0  0  0  0  0
  190.5430  175.5070  143.0770 C   0  0  0  0  0  1  0  0  0  0  0  0
  190.3430  178.5540  144.1980 O   0  0  0  0  0  1  0  0  0  0  0  0
  188.9960  178.2410  144.4020 C   0  0  2  0  0  3  0  0  0  0  0  0
  187.4740  178.2740  146.3850 C   0  0  0  0  0  3  0  0  0  0  0  0
  189.5460  177.4850  148.0900 C   0  0  0  0  0  3  0  0  0  0  0  0
  188.7540  178.0470  145.8660 C   0  0  0  0  0  0  0  0  0  0  0  0
  188.2650  177.7060  148.6020 C   0  0  0  0  0  3  0  0  0  0  0  0
  189.7930  177.6570  146.7250 C   0  0  0  0  0  3  0  0  0  0  0  0
  187.2290  178.1010  147.7500 C   0  0  0  0  0  3  0  0  0  0  0  0
  183.9600  179.2280  140.7100 C   0  0  2  0  0  3  0  0  0  0  0  0
  182.7780  178.2970  140.9980 C   0  0  0  0  0  2  0  0  0  0  0  0
  181.5410  179.0530  141.4660 C   0  0  0  0  0  2  0  0  0  0  0  0
  181.4180  178.9830  142.9790 C   0  0  0  0  0  2  0  0  0  0  0  0
  179.3750  179.1180  144.4040 O   0  0  0  0  0  1  0  0  0  0  0  0
  179.5320  177.5440  142.7460 O   0  0  0  0  0  0  0  0  0  0  0  0
  180.0650  178.4960  143.3720 C   0  0  0  0  0  0  0  0  0  0  0  0
  184.2950  179.3360  139.2010 C   0  0  1  0  0  3  0  0  0  0  0  0
  182.4010  178.6020  137.9210 O   0  0  0  0  0  0  0  0  0  0  0  0
  183.5640  178.3460  138.3390 C   0  0  0  0  0  0  0  0  0  0  0  0
  184.1900  177.1440  138.0080 O   0  0  0  0  0  0  0  0  0  0  0  0
  185.4690  177.1100  137.3950 C   0  0  0  0  0  1  0  0  0  0  0  0
  184.1910  180.6500  138.7000 O   0  0  0  0  0  0  0  0  0  0  0  0
  182.9970  181.1000  139.0410 O   0  0  0  0  0  1  0  0  0  0  0  0
  1 12  1  0  0  0  0
  1  5  1  0  0  0  0
  2 21  1  6  0  0  0
  2  4  1  0  0  0  0
  3  2  1  0  0  0  0
  4 11  1  0  0  0  0
  5 14  1  6  0  0  0
  6 10  1  0  0  0  0
  6  8  1  0  0  0  0
  7 11  1  1  0  0  0
  7  5  1  0  0  0  0
  8  3  1  6  0  0  0
  8  7  1  0  0  0  0
  9 10  2  0  0  0  0
 10  1  1  0  0  0  0
 14 13  1  1  0  0  0
 14 17  1  0  0  0  0
 15 20  1  0  0  0  0
 16 18  1  0  0  0  0
 17 15  2  0  0  0  0
 17 19  1  0  0  0  0
 19 16  2  0  0  0  0
 20 18  2  0  0  0  0
 21 22  1  6  0  0  0
 22 23  1  0  0  0  0
 23 24  1  0  0  0  0
 24 27  1  0  0  0  0
 26 27  2  0  0  0  0
 27 25  1  0  0  0  0
 28 30  1  6  0  0  0
 28 21  1  0  0  0  0
 29 30  2  0  0  0  0
 31 30  1  0  0  0  0
 32 31  1  0  0  0  0
 33 34  1  0  0  0  0
 33 28  1  0  0  0  0
M  END
>  <MODEL>
2

>  <REMARK>
 VINA RESULT:      -7.7      2.296      4.696
  Name = 
  11 active torsions:
  status: ('A' for Active; 'I' for Inactive)
    1  A    between atoms: C_2  and  C_19
    2  A    between atoms: C_2  and  C_25
    3  A    between atoms: C_3  and  O_16
    4  A    between atoms: C_3  and  C_34
    5  A    between atoms: C_5  and  C_25
    6  A    between atoms: C_11  and  C_26
    7  A    between atoms: C_13  and  C_19
    8  A    between atoms: C_13  and  C_23
    9  A    between atoms: C_18  and  C_26
   10  A    between atoms: C_25  and  C_34
   11  A    between atoms: O_28  and  C_34
                            x       y       z     vdW  Elec       q    Type
                         _______ _______ _______ _____ _____    ______ ____

>  <TORSDO>
F 11

$$$$
=
 OpenBabel11062416523D

 34 36  0  0  1  0  0  0  0  0999 V2000
  189.9220  177.3640  139.4610 N   0  0  0  0  0  0  0  0  0  0  0  0
  186.9470  177.9200  143.6630 C   0  0  2  0  0  3  0  0  0  0  0  0
  186.9170  178.5480  142.2700 C   0  0  0  0  0  2  0  0  0  0  0  0
  187.3650  176.4470  143.5840 C   0  0  0  0  0  2  0  0  0  0  0  0
  190.0930  176.8560  140.8240 C   0  0  2  0  0  3  0  0  0  0  0  0
  188.2270  178.9890  140.2570 N   0  0  0  0  0  2  0  0  0  0  0  0
  188.7410  176.9630  141.5550 C   0  0  2  0  0  3  0  0  0  0  0  0
  188.2840  178.4300  141.6050 C   0  0  2  0  0  3  0  0  0  0  0  0
  189.0520  179.0490  138.0810 O   0  0  0  0  0  0  0  0  0  0  0  0
  189.0800  178.5040  139.2160 C   0  0  0  0  0  0  0  0  0  0  0  0
  188.7410  176.3200  142.9410 C   0  0  0  0  0  2  0  0  0  0  0  0
  190.5160  176.6300  138.3540 C   0  0  0  0  0  1  0  0  0  0  0  0
  192.4430  177.4560  140.8660 O   0  0  0  0  0  1  0  0  0  0  0  0
  191.2280  177.6270  141.5360 C   0  0  2  0  0  3  0  0  0  0  0  0
  191.2330  178.1670  143.9770 C   0  0  0  0  0  3  0  0  0  0  0  0
  191.8790  175.5280  144.6420 C   0  0  0  0  0  3  0  0  0  0  0  0
  191.3950  177.2140  142.9650 C   0  0  0  0  0  0  0  0  0  0  0  0
  191.7100  176.4820  145.6490 C   0  0  0  0  0  3  0  0  0  0  0  0
  191.7240  175.8920  143.3010 C   0  0  0  0  0  3  0  0  0  0  0  0
  191.3870  177.8020  145.3170 C   0  0  0  0  0  3  0  0  0  0  0  0
  185.6120  178.1300  144.3930 C   0  0  2  0  0  3  0  0  0  0  0  0
  184.7530  179.1800  143.6800 C   0  0  0  0  0  2  0  0  0  0  0  0
  183.4260  178.6140  143.1910 C   0  0  0  0  0  2  0  0  0  0  0  0
  182.3260  178.8960  144.2000 C   0  0  0  0  0  2  0  0  0  0  0  0
  180.8040  179.4620  142.3070 O   0  0  0  0  0  0  0  0  0  0  0  0
  180.0370  178.2420  144.0890 O   0  0  0  0  0  1  0  0  0  0  0  0
  180.9890  178.8550  143.5430 C   0  0  0  0  0  0  0  0  0  0  0  0
  185.7420  178.3830  145.9160 C   0  0  1  0  0  3  0  0  0  0  0  0
  186.7960  176.4720  146.9160 O   0  0  0  0  0  0  0  0  0  0  0  0
  186.9030  177.6770  146.5580 C   0  0  0  0  0  0  0  0  0  0  0  0
  188.0960  178.3730  146.7480 O   0  0  0  0  0  0  0  0  0  0  0  0
  188.8690  178.2280  147.9290 C   0  0  0  0  0  1  0  0  0  0  0  0
  185.7000  179.7500  146.2590 O   0  0  0  0  0  0  0  0  0  0  0  0
  185.6890  179.8170  147.5780 O   0  0  0  0  0  1  0  0  0  0  0  0
  1  5  1  0  0  0  0
  2 21  1  6  0  0  0
  3  2  1  0  0  0  0
  4  2  1  0  0  0  0
  5 14  1  1  0  0  0
  5  7  1  0  0  0  0
  6  8  1  0  0  0  0
  7  8  1  0  0  0  0
  7 11  1  1  0  0  0
  8  3  1  6  0  0  0
  9 10  2  0  0  0  0
 10  1  1  0  0  0  0
 10  6  1  0  0  0  0
 11  4  1  0  0  0  0
 12  1  1  0  0  0  0
 14 13  1  6  0  0  0
 14 17  1  0  0  0  0
 15 20  1  0  0  0  0
 16 18  1  0  0  0  0
 17 19  1  0  0  0  0
 17 15  2  0  0  0  0
 19 16  2  0  0  0  0
 20 18  2  0  0  0  0
 21 22  1  6  0  0  0
 21 28  1  0  0  0  0
 23 22  1  0  0  0  0
 23 24  1  0  0  0  0
 25 27  2  0  0  0  0
 27 26  1  0  0  0  0
 27 24  1  0  0  0  0
 28 33  1  6  0  0  0
 28 30  1  0  0  0  0
 30 31  1  0  0  0  0
 30 29  2  0  0  0  0
 31 32  1  0  0  0  0
 33 34  1  0  0  0  0
M  END
>  <MODEL>
3

>  <REMARK>
 VINA RESULT:      -7.7      1.253      4.227
  Name = 
  11 active torsions:
  status: ('A' for Active; 'I' for Inactive)
    1  A    between atoms: C_2  and  C_19
    2  A    between atoms: C_2  and  C_25
    3  A    between atoms: C_3  and  O_16
    4  A    between atoms: C_3  and  C_34
    5  A    between atoms: C_5  and  C_25
    6  A    between atoms: C_11  and  C_26
    7  A    between atoms: C_13  and  C_19
    8  A    between atoms: C_13  and  C_23
    9  A    between atoms: C_18  and  C_26
   10  A    between atoms: C_25  and  C_34
   11  A    between atoms: O_28  and  C_34
                            x       y       z     vdW  Elec       q    Type
                         _______ _______ _______ _____ _____    ______ ____

>  <TORSDO>
F 11

$$$$
=
 OpenBabel11062416523D

 34 36  0  0  1  0  0  0  0  0999 V2000
  187.6040  177.2510  138.2200 N   0  0  0  0  0  0  0  0  0  0  0  0
  189.4890  177.4960  143.0370 C   0  0  2  0  0  3  0  0  0  0  0  0
  188.2520  178.0920  142.3680 C   0  0  0  0  0  2  0  0  0  0  0  0
  189.7680  176.0860  142.5030 C   0  0  0  0  0  2  0  0  0  0  0  0
  188.8820  176.7910  138.7680 C   0  0  2  0  0  3  0  0  0  0  0  0
  187.2290  178.6610  140.2250 N   0  0  0  0  0  2  0  0  0  0  0  0
  188.7610  176.7380  140.3040 C   0  0  2  0  0  3  0  0  0  0  0  0
  188.4370  178.1370  140.8550 C   0  0  2  0  0  3  0  0  0  0  0  0
  185.8400  178.7890  138.3610 O   0  0  0  0  0  0  0  0  0  0  0  0
  186.8530  178.2710  138.9010 C   0  0  0  0  0  0  0  0  0  0  0  0
  189.9780  176.1230  140.9930 C   0  0  0  0  0  2  0  0  0  0  0  0
  187.0540  176.5800  137.0530 C   0  0  0  0  0  1  0  0  0  0  0  0
  189.5400  178.6960  137.4190 O   0  0  0  0  0  1  0  0  0  0  0  0
  190.0260  177.7110  138.2830 C   0  0  2  0  0  3  0  0  0  0  0  0
  190.9000  176.4420  136.3150 C   0  0  0  0  0  3  0  0  0  0  0  0
  193.3630  176.0270  137.5740 C   0  0  0  0  0  3  0  0  0  0  0  0
  191.1210  176.9540  137.5980 C   0  0  0  0  0  0  0  0  0  0  0  0
  193.1400  175.5230  136.2890 C   0  0  0  0  0  3  0  0  0  0  0  0
  192.3550  176.7390  138.2300 C   0  0  0  0  0  3  0  0  0  0  0  0
  191.9090  175.7300  135.6600 C   0  0  0  0  0  3  0  0  0  0  0  0
  189.3680  177.5470  144.5680 C   0  0  2  0  0  3  0  0  0  0  0  0
  188.1430  178.3600  144.9970 C   0  0  0  0  0  2  0  0  0  0  0  0
  187.1880  177.5600  145.8730 C   0  0  0  0  0  2  0  0  0  0  0  0
  185.7650  177.6800  145.3530 C   0  0  0  0  0  2  0  0  0  0  0  0
  185.6200  179.3730  147.1800 O   0  0  0  0  0  1  0  0  0  0  0  0
  183.8610  179.0580  145.7450 O   0  0  0  0  0  0  0  0  0  0  0  0
  185.0200  178.7290  146.1050 C   0  0  0  0  0  0  0  0  0  0  0  0
  190.6640  177.9670  145.3050 C   0  0  1  0  0  3  0  0  0  0  0  0
  190.2420  177.1580  147.5250 O   0  0  0  0  0  0  0  0  0  0  0  0
  190.9870  177.1250  146.5070 C   0  0  0  0  0  0  0  0  0  0  0  0
  192.1170  176.3090  146.4780 O   0  0  0  0  0  0  0  0  0  0  0  0
  192.5880  175.6390  147.6370 C   0  0  0  0  0  1  0  0  0  0  0  0
  191.7740  178.1060  144.4450 O   0  0  0  0  0  0  0  0  0  0  0  0
  192.0130  179.4000  144.3290 O   0  0  0  0  0  1  0  0  0  0  0  0
  1  5  1  0  0  0  0
  1 10  1  0  0  0  0
  2 21  1  1  0  0  0
  3  2  1  0  0  0  0
  4  2  1  0  0  0  0
  5 14  1  1  0  0  0
  5  7  1  0  0  0  0
  6  8  1  0  0  0  0
  7  8  1  0  0  0  0
  7 11  1  1  0  0  0
  8  3  1  1  0  0  0
  9 10  2  0  0  0  0
 10  6  1  0  0  0  0
 11  4  1  0  0  0  0
 12  1  1  0  0  0  0
 14 13  1  6  0  0  0
 15 17  1  0  0  0  0
 16 19  1  0  0  0  0
 17 19  2  0  0  0  0
 17 14  1  0  0  0  0
 18 16  2  0  0  0  0
 20 18  1  0  0  0  0
 20 15  2  0  0  0  0
 21 22  1  6  0  0  0
 21 28  1  0  0  0  0
 22 23  1  0  0  0  0
 24 23  1  0  0  0  0
 24 27  1  0  0  0  0
 26 27  2  0  0  0  0
 27 25  1  0  0  0  0
 28 33  1  6  0  0  0
 28 30  1  0  0  0  0
 30 29  2  0  0  0  0
 31 30  1  0  0  0  0
 31 32  1  0  0  0  0
 34 33  1  0  0  0  0
M  END
>  <MODEL>
4

>  <REMARK>
 VINA RESULT:      -7.6      2.471      6.202
  Name = 
  11 active torsions:
  status: ('A' for Active; 'I' for Inactive)
    1  A    between atoms: C_2  and  C_19
    2  A    between atoms: C_2  and  C_25
    3  A    between atoms: C_3  and  O_16
    4  A    between atoms: C_3  and  C_34
    5  A    between atoms: C_5  and  C_25
    6  A    between atoms: C_11  and  C_26
    7  A    between atoms: C_13  and  C_19
    8  A    between atoms: C_13  and  C_23
    9  A    between atoms: C_18  and  C_26
   10  A    between atoms: C_25  and  C_34
   11  A    between atoms: O_28  and  C_34
                            x       y       z     vdW  Elec       q    Type
                         _______ _______ _______ _____ _____    ______ ____

>  <TORSDO>
F 11

$$$$
=
 OpenBabel11062416523D

 34 36  0  0  1  0  0  0  0  0999 V2000
  189.7590  177.8950  144.0490 N   0  0  0  0  0  0  0  0  0  0  0  0
  185.0380  178.2500  141.9520 C   0  0  2  0  0  3  0  0  0  0  0  0
  185.5330  177.9720  143.3710 C   0  0  0  0  0  2  0  0  0  0  0  0
  185.9300  179.2880  141.2610 C   0  0  0  0  0  2  0  0  0  0  0  0
  189.3440  178.0050  142.6490 C   0  0  2  0  0  3  0  0  0  0  0  0
  187.4520  177.2660  144.7050 N   0  0  0  0  0  2  0  0  0  0  0  0
  187.8810  178.4880  142.6130 C   0  0  2  0  0  3  0  0  0  0  0  0
  186.9760  177.4800  143.3420 C   0  0  2  0  0  3  0  0  0  0  0  0
  189.2250  177.1580  146.2110 O   0  0  0  0  0  0  0  0  0  0  0  0
  188.8360  177.4100  145.0390 C   0  0  0  0  0  0  0  0  0  0  0  0
  187.3720  178.7950  141.2060 C   0  0  0  0  0  2  0  0  0  0  0  0
  191.0690  178.3920  144.4380 C   0  0  0  0  0  1  0  0  0  0  0  0
  189.9850  175.6720  142.8260 O   0  0  0  0  0  1  0  0  0  0  0  0
  189.5520  176.6530  141.9290 C   0  0  2  0  0  3  0  0  0  0  0  0
  191.8160  177.2410  141.0450 C   0  0  0  0  0  3  0  0  0  0  0  0
  191.0960  176.4670  138.4560 C   0  0  0  0  0  3  0  0  0  0  0  0
  190.5300  176.7480  140.7990 C   0  0  0  0  0  0  0  0  0  0  0  0
  192.3810  176.9530  138.7080 C   0  0  0  0  0  3  0  0  0  0  0  0
  190.1690  176.3660  139.4980 C   0  0  0  0  0  3  0  0  0  0  0  0
  192.7410  177.3410  140.0030 C   0  0  0  0  0  3  0  0  0  0  0  0
  183.5510  178.6380  141.9520 C   0  0  2  0  0  3  0  0  0  0  0  0
  182.9130  178.3750  143.3200 C   0  0  0  0  0  2  0  0  0  0  0  0
  181.7360  179.3000  143.6030 C   0  0  0  0  0  2  0  0  0  0  0  0
  180.4850  178.4900  143.8960 C   0  0  0  0  0  2  0  0  0  0  0  0
  178.9310  179.6680  142.3410 O   0  0  0  0  0  1  0  0  0  0  0  0
  179.4030  177.4450  142.0470 O   0  0  0  0  0  0  0  0  0  0  0  0
  179.5700  178.4950  142.7200 C   0  0  0  0  0  0  0  0  0  0  0  0
  182.7310  178.0510  140.7760 C   0  0  1  0  0  3  0  0  0  0  0  0
  183.0050  179.1720  138.6700 O   0  0  0  0  0  0  0  0  0  0  0  0
  182.3390  179.0640  139.7370 C   0  0  0  0  0  0  0  0  0  0  0  0
  181.2300  179.8770  139.9690 O   0  0  0  0  0  0  0  0  0  0  0  0
  180.4450  180.3950  138.9070 C   0  0  0  0  0  1  0  0  0  0  0  0
  183.3210  176.9070  140.2010 O   0  0  0  0  0  0  0  0  0  0  0  0
  182.3360  176.1180  139.8120 O   0  0  0  0  0  1  0  0  0  0  0  0
  1 12  1  0  0  0  0
  1 10  1  0  0  0  0
  2 21  1  1  0  0  0
  2  3  1  0  0  0  0
  4  2  1  0  0  0  0
  5 14  1  1  0  0  0
  5  1  1  0  0  0  0
  6 10  1  0  0  0  0
  7 11  1  6  0  0  0
  7  5  1  0  0  0  0
  7  8  1  0  0  0  0
  8  3  1  1  0  0  0
  8  6  1  0  0  0  0
 10  9  2  0  0  0  0
 11  4  1  0  0  0  0
 14 13  1  1  0  0  0
 16 18  2  0  0  0  0
 16 19  1  0  0  0  0
 17 15  1  0  0  0  0
 17 14  1  0  0  0  0
 18 20  1  0  0  0  0
 19 17  2  0  0  0  0
 20 15  2  0  0  0  0
 21 22  1  1  0  0  0
 22 23  1  0  0  0  0
 23 24  1  0  0  0  0
 25 27  1  0  0  0  0
 26 27  2  0  0  0  0
 27 24  1  0  0  0  0
 28 30  1  6  0  0  0
 28 21  1  0  0  0  0
 29 30  2  0  0  0  0
 30 31  1  0  0  0  0
 32 31  1  0  0  0  0
 33 28  1  0  0  0  0
 34 33  1  0  0  0  0
M  END
>  <MODEL>
5

>  <REMARK>
 VINA RESULT:      -7.3      2.448      5.009
  Name = 
  11 active torsions:
  status: ('A' for Active; 'I' for Inactive)
    1  A    between atoms: C_2  and  C_19
    2  A    between atoms: C_2  and  C_25
    3  A    between atoms: C_3  and  O_16
    4  A    between atoms: C_3  and  C_34
    5  A    between atoms: C_5  and  C_25
    6  A    between atoms: C_11  and  C_26
    7  A    between atoms: C_13  and  C_19
    8  A    between atoms: C_13  and  C_23
    9  A    between atoms: C_18  and  C_26
   10  A    between atoms: C_25  and  C_34
   11  A    between atoms: O_28  and  C_34
                            x       y       z     vdW  Elec       q    Type
                         _______ _______ _______ _____ _____    ______ ____

>  <TORSDO>
F 11

$$$$
=
 OpenBabel11062416523D

 34 36  0  0  1  0  0  0  0  0999 V2000
  191.0570  177.1400  141.4160 N   0  0  0  0  0  0  0  0  0  0  0  0
  186.1130  178.1530  142.5760 C   0  0  2  0  0  3  0  0  0  0  0  0
  187.2560  177.5000  143.3530 C   0  0  0  0  0  2  0  0  0  0  0  0
  186.6330  179.3120  141.7180 C   0  0  0  0  0  2  0  0  0  0  0  0
  189.9600  177.6230  140.5740 C   0  0  2  0  0  3  0  0  0  0  0  0
  189.4370  176.4210  143.1500 N   0  0  0  0  0  2  0  0  0  0  0  0
  188.8340  178.1360  141.4930 C   0  0  2  0  0  3  0  0  0  0  0  0
  188.3290  176.9960  142.3930 C   0  0  2  0  0  3  0  0  0  0  0  0
  191.6970  175.8760  143.2850 O   0  0  0  0  0  0  0  0  0  0  0  0
  190.7730  176.4370  142.6380 C   0  0  0  0  0  0  0  0  0  0  0  0
  187.6910  178.8140  140.7390 C   0  0  0  0  0  2  0  0  0  0  0  0
  192.4250  177.4840  141.0600 C   0  0  0  0  0  1  0  0  0  0  0  0
  190.5670  175.6760  139.2620 O   0  0  0  0  0  1  0  0  0  0  0  0
  189.4970  176.5030  139.6160 C   0  0  2  0  0  3  0  0  0  0  0  0
  187.7030  176.4220  137.8760 C   0  0  0  0  0  3  0  0  0  0  0  0
  188.7980  178.6160  136.5310 C   0  0  0  0  0  3  0  0  0  0  0  0
  188.8580  177.0380  138.3730 C   0  0  0  0  0  0  0  0  0  0  0  0
  187.6410  178.0020  136.0420 C   0  0  0  0  0  3  0  0  0  0  0  0
  189.4080  178.1350  137.6920 C   0  0  0  0  0  3  0  0  0  0  0  0
  187.0940  176.9050  136.7150 C   0  0  0  0  0  3  0  0  0  0  0  0
  184.9710  178.5650  143.5180 C   0  0  2  0  0  3  0  0  0  0  0  0
  185.1710  177.9770  144.9180 C   0  0  0  0  0  2  0  0  0  0  0  0
  185.7050  179.0020  145.9100 C   0  0  0  0  0  2  0  0  0  0  0  0
  185.9360  178.3560  147.2660 C   0  0  0  0  0  2  0  0  0  0  0  0
  187.8830  177.8920  148.7550 O   0  0  0  0  0  1  0  0  0  0  0  0
  188.1510  177.9640  146.4800 O   0  0  0  0  0  0  0  0  0  0  0  0
  187.3850  178.0740  147.4710 C   0  0  0  0  0  0  0  0  0  0  0  0
  183.5490  178.3190  142.9530 C   0  0  1  0  0  3  0  0  0  0  0  0
  182.5130  180.2380  143.9580 O   0  0  0  0  0  0  0  0  0  0  0  0
  182.4560  178.9980  143.7290 C   0  0  0  0  0  0  0  0  0  0  0  0
  181.3800  178.2380  144.1880 O   0  0  0  0  0  0  0  0  0  0  0  0
  180.0350  178.6390  143.9760 C   0  0  0  0  0  1  0  0  0  0  0  0
  183.4470  178.5690  141.5690 O   0  0  0  0  0  0  0  0  0  0  0  0
  182.2290  178.2170  141.2010 O   0  0  0  0  0  1  0  0  0  0  0  0
  1 10  1  0  0  0  0
  2  3  1  0  0  0  0
  2 21  1  1  0  0  0
  4  2  1  0  0  0  0
  5 14  1  1  0  0  0
  5  1  1  0  0  0  0
  5  7  1  0  0  0  0
  7 11  1  6  0  0  0
  7  8  1  0  0  0  0
  8  6  1  0  0  0  0
  8  3  1  1  0  0  0
 10  6  1  0  0  0  0
 10  9  2  0  0  0  0
 11  4  1  0  0  0  0
 12  1  1  0  0  0  0
 14 13  1  6  0  0  0
 15 17  1  0  0  0  0
 16 19  1  0  0  0  0
 17 14  1  0  0  0  0
 18 16  2  0  0  0  0
 18 20  1  0  0  0  0
 19 17  2  0  0  0  0
 20 15  2  0  0  0  0
 21 22  1  1  0  0  0
 22 23  1  0  0  0  0
 23 24  1  0  0  0  0
 24 27  1  0  0  0  0
 26 27  2  0  0  0  0
 27 25  1  0  0  0  0
 28 33  1  6  0  0  0
 28 21  1  0  0  0  0
 28 30  1  0  0  0  0
 30 29  2  0  0  0  0
 30 31  1  0  0  0  0
 32 31  1  0  0  0  0
 34 33  1  0  0  0  0
M  END
>  <MODEL>
6

>  <REMARK>
 VINA RESULT:      -7.1      1.742      4.191
  Name = 
  11 active torsions:
  status: ('A' for Active; 'I' for Inactive)
    1  A    between atoms: C_2  and  C_19
    2  A    between atoms: C_2  and  C_25
    3  A    between atoms: C_3  and  O_16
    4  A    between atoms: C_3  and  C_34
    5  A    between atoms: C_5  and  C_25
    6  A    between atoms: C_11  and  C_26
    7  A    between atoms: C_13  and  C_19
    8  A    between atoms: C_13  and  C_23
    9  A    between atoms: C_18  and  C_26
   10  A    between atoms: C_25  and  C_34
   11  A    between atoms: O_28  and  C_34
                            x       y       z     vdW  Elec       q    Type
                         _______ _______ _______ _____ _____    ______ ____

>  <TORSDO>
F 11

$$$$
=
 OpenBabel11062416523D

 34 36  0  0  1  0  0  0  0  0999 V2000
  188.9690  178.1100  137.8740 N   0  0  0  0  0  0  0  0  0  0  0  0
  188.5590  177.2660  142.9670 C   0  0  2  0  0  3  0  0  0  0  0  0
  189.6430  176.9480  141.9390 C   0  0  0  0  0  2  0  0  0  0  0  0
  187.9130  178.6240  142.6700 C   0  0  0  0  0  2  0  0  0  0  0  0
  187.8350  178.2930  138.7820 C   0  0  2  0  0  3  0  0  0  0  0  0
  190.1130  176.6920  139.5560 N   0  0  0  0  0  2  0  0  0  0  0  0
  188.3660  178.2880  140.2290 C   0  0  2  0  0  3  0  0  0  0  0  0
  189.0570  176.9480  140.5320 C   0  0  2  0  0  3  0  0  0  0  0  0
  190.9340  176.9240  137.3900 O   0  0  0  0  0  0  0  0  0  0  0  0
  190.0380  177.2150  138.2260 C   0  0  0  0  0  0  0  0  0  0  0  0
  187.3020  178.6270  141.2730 C   0  0  0  0  0  2  0  0  0  0  0  0
  189.0550  178.9320  136.6780 C   0  0  0  0  0  1  0  0  0  0  0  0
  187.0890  176.4560  137.3860 O   0  0  0  0  0  1  0  0  0  0  0  0
  186.7710  177.2020  138.5250 C   0  0  2  0  0  3  0  0  0  0  0  0
  185.0400  178.9170  139.0870 C   0  0  0  0  0  3  0  0  0  0  0  0
  183.1670  177.6960  137.4070 C   0  0  0  0  0  3  0  0  0  0  0  0
  185.3930  177.7680  138.3710 C   0  0  0  0  0  0  0  0  0  0  0  0
  182.8220  178.8480  138.1190 C   0  0  0  0  0  3  0  0  0  0  0  0
  184.4500  177.1540  137.5330 C   0  0  0  0  0  3  0  0  0  0  0  0
  183.7590  179.4580  138.9600 C   0  0  0  0  0  3  0  0  0  0  0  0
  189.1050  177.1580  144.3990 C   0  0  2  0  0  3  0  0  0  0  0  0
  188.1920  177.8810  145.3930 C   0  0  0  0  0  2  0  0  0  0  0  0
  186.8920  177.1270  145.6470 C   0  0  0  0  0  2  0  0  0  0  0  0
  185.7180  177.8770  145.0430 C   0  0  0  0  0  2  0  0  0  0  0  0
  185.6250  178.9770  147.2800 O   0  0  0  0  0  1  0  0  0  0  0  0
  183.7980  179.0010  145.8970 O   0  0  0  0  0  0  0  0  0  0  0  0
  184.9850  178.6370  146.0950 C   0  0  0  0  0  0  0  0  0  0  0  0
  190.5970  177.5470  144.5510 C   0  0  1  0  0  3  0  0  0  0  0  0
  191.7480  175.5020  144.0380 O   0  0  0  0  0  0  0  0  0  0  0  0
  191.4990  176.3950  144.8950 C   0  0  0  0  0  0  0  0  0  0  0  0
  192.0550  176.3290  146.1730 O   0  0  0  0  0  0  0  0  0  0  0  0
  191.2540  176.3800  147.3420 C   0  0  0  0  0  1  0  0  0  0  0  0
  191.0920  178.2960  143.4640 O   0  0  0  0  0  0  0  0  0  0  0  0
  191.7020  179.3540  143.9690 O   0  0  0  0  0  1  0  0  0  0  0  0
  1 10  1  0  0  0  0
  1  5  1  0  0  0  0
  2 21  1  1  0  0  0
  3  2  1  0  0  0  0
  4  2  1  0  0  0  0
  5 14  1  1  0  0  0
  5  7  1  0  0  0  0
  6  8  1  0  0  0  0
  7  8  1  0  0  0  0
  7 11  1  1  0  0  0
  8  3  1  1  0  0  0
  9 10  2  0  0  0  0
 10  6  1  0  0  0  0
 11  4  1  0  0  0  0
 12  1  1  0  0  0  0
 14 13  1  6  0  0  0
 16 19  2  0  0  0  0
 16 18  1  0  0  0  0
 17 14  1  0  0  0  0
 17 15  2  0  0  0  0
 18 20  2  0  0  0  0
 19 17  1  0  0  0  0
 20 15  1  0  0  0  0
 21 28  1  0  0  0  0
 21 22  1  1  0  0  0
 22 23  1  0  0  0  0
 24 23  1  0  0  0  0
 24 27  1  0  0  0  0
 26 27  2  0  0  0  0
 27 25  1  0  0  0  0
 28 33  1  6  0  0  0
 28 30  1  0  0  0  0
 29 30  2  0  0  0  0
 30 31  1  0  0  0  0
 31 32  1  0  0  0  0
 33 34  1  0  0  0  0
M  END
>  <MODEL>
7

>  <REMARK>
 VINA RESULT:      -7.0      2.648      6.702
  Name = 
  11 active torsions:
  status: ('A' for Active; 'I' for Inactive)
    1  A    between atoms: C_2  and  C_19
    2  A    between atoms: C_2  and  C_25
    3  A    between atoms: C_3  and  O_16
    4  A    between atoms: C_3  and  C_34
    5  A    between atoms: C_5  and  C_25
    6  A    between atoms: C_11  and  C_26
    7  A    between atoms: C_13  and  C_19
    8  A    between atoms: C_13  and  C_23
    9  A    between atoms: C_18  and  C_26
   10  A    between atoms: C_25  and  C_34
   11  A    between atoms: O_28  and  C_34
                            x       y       z     vdW  Elec       q    Type
                         _______ _______ _______ _____ _____    ______ ____

>  <TORSDO>
F 11

$$$$
=
 OpenBabel11062416523D

 34 36  0  0  1  0  0  0  0  0999 V2000
  190.0520  176.5670  146.2580 N   0  0  0  0  0  0  0  0  0  0  0  0
  190.0120  177.8150  141.2330 C   0  0  2  0  0  3  0  0  0  0  0  0
  191.1330  177.6200  142.2520 C   0  0  0  0  0  2  0  0  0  0  0  0
  188.8850  176.8010  141.4660 C   0  0  0  0  0  2  0  0  0  0  0  0
  188.9380  176.8980  145.3670 C   0  0  2  0  0  3  0  0  0  0  0  0
  191.6620  177.5250  144.6340 N   0  0  0  0  0  2  0  0  0  0  0  0
  189.4300  176.7840  143.9110 C   0  0  2  0  0  3  0  0  0  0  0  0
  190.5910  177.7630  143.6700 C   0  0  2  0  0  3  0  0  0  0  0  0
  192.3240  176.8590  146.7650 O   0  0  0  0  0  0  0  0  0  0  0  0
  191.3870  176.9940  145.9330 C   0  0  0  0  0  0  0  0  0  0  0  0
  188.3210  176.9510  142.8750 C   0  0  0  0  0  2  0  0  0  0  0  0
  189.8080  175.7050  147.4040 C   0  0  0  0  0  1  0  0  0  0  0  0
  188.7990  178.6990  146.9850 O   0  0  0  0  0  1  0  0  0  0  0  0
  188.3860  178.3000  145.7110 C   0  0  2  0  0  3  0  0  0  0  0  0
  186.1450  178.3110  146.8190 C   0  0  0  0  0  3  0  0  0  0  0  0
  184.8360  178.5110  144.3560 C   0  0  0  0  0  3  0  0  0  0  0  0
  186.8920  178.3630  145.6370 C   0  0  0  0  0  0  0  0  0  0  0  0
  184.0950  178.4660  145.5400 C   0  0  0  0  0  3  0  0  0  0  0  0
  186.2330  178.4580  144.4020 C   0  0  0  0  0  3  0  0  0  0  0  0
  184.7490  178.3650  146.7720 C   0  0  0  0  0  3  0  0  0  0  0  0
  190.5590  177.7870  139.7970 C   0  0  2  0  0  3  0  0  0  0  0  0
  189.4490  177.4700  138.7900 C   0  0  0  0  0  2  0  0  0  0  0  0
  189.0200  178.6930  137.9900 C   0  0  0  0  0  2  0  0  0  0  0  0
  188.0140  178.3000  136.9210 C   0  0  0  0  0  2  0  0  0  0  0  0
  186.1730  176.6740  137.3550 O   0  0  0  0  0  0  0  0  0  0  0  0
  186.1010  178.7790  138.2580 O   0  0  0  0  0  1  0  0  0  0  0  0
  186.7060  177.9430  137.5400 C   0  0  0  0  0  0  0  0  0  0  0  0
  191.8230  176.9120  139.6050 C   0  0  1  0  0  3  0  0  0  0  0  0
  192.3780  176.4890  137.3070 O   0  0  0  0  0  0  0  0  0  0  0  0
  191.8060  176.0780  138.3540 C   0  0  0  0  0  0  0  0  0  0  0  0
  191.1520  174.8460  138.3720 O   0  0  0  0  0  0  0  0  0  0  0  0
  190.7730  174.1820  137.1770 C   0  0  0  0  0  1  0  0  0  0  0  0
  193.0260  177.6330  139.7410 O   0  0  0  0  0  0  0  0  0  0  0  0
  193.9420  176.7810  140.1640 O   0  0  0  0  0  1  0  0  0  0  0  0
  1 12  1  0  0  0  0
  2 21  1  6  0  0  0
  2  4  1  0  0  0  0
  2  3  1  0  0  0  0
  4 11  1  0  0  0  0
  5 14  1  1  0  0  0
  5  1  1  0  0  0  0
  6 10  1  0  0  0  0
  7 11  1  6  0  0  0
  7  5  1  0  0  0  0
  8  3  1  6  0  0  0
  8  7  1  0  0  0  0
  8  6  1  0  0  0  0
 10  1  1  0  0  0  0
 10  9  2  0  0  0  0
 14 13  1  1  0  0  0
 16 19  2  0  0  0  0
 16 18  1  0  0  0  0
 17 14  1  0  0  0  0
 17 15  2  0  0  0  0
 18 20  2  0  0  0  0
 19 17  1  0  0  0  0
 20 15  1  0  0  0  0
 21 22  1  6  0  0  0
 23 22  1  0  0  0  0
 24 27  1  0  0  0  0
 24 23  1  0  0  0  0
 25 27  2  0  0  0  0
 27 26  1  0  0  0  0
 28 30  1  6  0  0  0
 28 33  1  0  0  0  0
 28 21  1  0  0  0  0
 29 30  2  0  0  0  0
 30 31  1  0  0  0  0
 32 31  1  0  0  0  0
 33 34  1  0  0  0  0
M  END
>  <MODEL>
8

>  <REMARK>
 VINA RESULT:      -6.9      2.859      7.949
  Name = 
  11 active torsions:
  status: ('A' for Active; 'I' for Inactive)
    1  A    between atoms: C_2  and  C_19
    2  A    between atoms: C_2  and  C_25
    3  A    between atoms: C_3  and  O_16
    4  A    between atoms: C_3  and  C_34
    5  A    between atoms: C_5  and  C_25
    6  A    between atoms: C_11  and  C_26
    7  A    between atoms: C_13  and  C_19
    8  A    between atoms: C_13  and  C_23
    9  A    between atoms: C_18  and  C_26
   10  A    between atoms: C_25  and  C_34
   11  A    between atoms: O_28  and  C_34
                            x       y       z     vdW  Elec       q    Type
                         _______ _______ _______ _____ _____    ______ ____

>  <TORSDO>
F 11

$$$$
=
 OpenBabel11062416523D

 34 36  0  0  1  0  0  0  0  0999 V2000
  180.0310  178.6150  139.6550 N   0  0  0  0  0  0  0  0  0  0  0  0
  184.9590  178.8900  141.2200 C   0  0  2  0  0  3  0  0  0  0  0  0
  183.6900  178.3290  141.8590 C   0  0  0  0  0  2  0  0  0  0  0  0
  184.9680  178.6260  139.7100 C   0  0  0  0  0  2  0  0  0  0  0  0
  181.1790  179.3090  139.0690 C   0  0  2  0  0  3  0  0  0  0  0  0
  181.2490  178.3670  141.8000 N   0  0  0  0  0  2  0  0  0  0  0  0
  182.4650  178.7320  139.6930 C   0  0  2  0  0  3  0  0  0  0  0  0
  182.4540  178.9490  141.2160 C   0  0  2  0  0  3  0  0  0  0  0  0
  178.9960  177.8120  141.6010 O   0  0  0  0  0  0  0  0  0  0  0  0
  180.0360  178.2610  141.0480 C   0  0  0  0  0  0  0  0  0  0  0  0
  183.7480  179.2620  139.0540 C   0  0  0  0  0  2  0  0  0  0  0  0
  178.9460  178.1870  138.7860 C   0  0  0  0  0  1  0  0  0  0  0  0
  179.9160  181.1270  140.0590 O   0  0  0  0  0  1  0  0  0  0  0  0
  181.0370  180.8340  139.2770 C   0  0  2  0  0  3  0  0  0  0  0  0
  180.6840  180.8830  136.8030 C   0  0  0  0  0  3  0  0  0  0  0  0
  181.0380  183.6560  136.7250 C   0  0  0  0  0  3  0  0  0  0  0  0
  180.9430  181.5840  137.9850 C   0  0  0  0  0  0  0  0  0  0  0  0
  180.7720  182.9510  135.5480 C   0  0  0  0  0  3  0  0  0  0  0  0
  181.1270  182.9750  137.9430 C   0  0  0  0  0  3  0  0  0  0  0  0
  180.5950  181.5650  135.5860 C   0  0  0  0  0  3  0  0  0  0  0  0
  186.2150  178.3630  141.9320 C   0  0  2  0  0  3  0  0  0  0  0  0
  186.2500  178.8160  143.3950 C   0  0  0  0  0  2  0  0  0  0  0  0
  186.0750  177.6570  144.3690 C   0  0  0  0  0  2  0  0  0  0  0  0
  186.5330  178.0610  145.7600 C   0  0  0  0  0  2  0  0  0  0  0  0
  184.1370  178.6600  146.1150 O   0  0  0  0  0  0  0  0  0  0  0  0
  185.7800  179.6530  147.3660 O   0  0  0  0  0  1  0  0  0  0  0  0
  185.4710  178.8470  146.4520 C   0  0  0  0  0  0  0  0  0  0  0  0
  187.5430  178.6320  141.1810 C   0  0  1  0  0  3  0  0  0  0  0  0
  189.3720  178.7530  142.7310 O   0  0  0  0  0  0  0  0  0  0  0  0
  188.7580  178.0710  141.8650 C   0  0  0  0  0  0  0  0  0  0  0  0
  189.1930  176.7900  141.5290 O   0  0  0  0  0  0  0  0  0  0  0  0
  190.3980  176.5700  140.8140 C   0  0  0  0  0  1  0  0  0  0  0  0
  187.4940  178.2770  139.8170 O   0  0  0  0  0  0  0  0  0  0  0  0
  188.4140  178.9940  139.1970 O   0  0  0  0  0  1  0  0  0  0  0  0
  1 10  1  0  0  0  0
  2  3  1  0  0  0  0
  2 21  1  1  0  0  0
  4  2  1  0  0  0  0
  5 14  1  1  0  0  0
  5  1  1  0  0  0  0
  5  7  1  0  0  0  0
  7 11  1  6  0  0  0
  7  8  1  0  0  0  0
  8  6  1  0  0  0  0
  8  3  1  1  0  0  0
 10  9  2  0  0  0  0
 10  6  1  0  0  0  0
 11  4  1  0  0  0  0
 12  1  1  0  0  0  0
 14 13  1  1  0  0  0
 15 17  1  0  0  0  0
 16 19  1  0  0  0  0
 17 14  1  0  0  0  0
 18 20  1  0  0  0  0
 18 16  2  0  0  0  0
 19 17  2  0  0  0  0
 20 15  2  0  0  0  0
 21 22  1  1  0  0  0
 22 23  1  0  0  0  0
 23 24  1  0  0  0  0
 24 27  1  0  0  0  0
 25 27  2  0  0  0  0
 27 26  1  0  0  0  0
 28 33  1  6  0  0  0
 28 30  1  0  0  0  0
 28 21  1  0  0  0  0
 30 29  2  0  0  0  0
 31 30  1  0  0  0  0
 32 31  1  0  0  0  0
 34 33  1  0  0  0  0
M  END
>  <MODEL>
9

>  <REMARK>
 VINA RESULT:      -6.8      3.699      8.899
  Name = 
  11 active torsions:
  status: ('A' for Active; 'I' for Inactive)
    1  A    between atoms: C_2  and  C_19
    2  A    between atoms: C_2  and  C_25
    3  A    between atoms: C_3  and  O_16
    4  A    between atoms: C_3  and  C_34
    5  A    between atoms: C_5  and  C_25
    6  A    between atoms: C_11  and  C_26
    7  A    between atoms: C_13  and  C_19
    8  A    between atoms: C_13  and  C_23
    9  A    between atoms: C_18  and  C_26
   10  A    between atoms: C_25  and  C_34
   11  A    between atoms: O_28  and  C_34
                            x       y       z     vdW  Elec       q    Type
                         _______ _______ _______ _____ _____    ______ ____

>  <TORSDO>
F 11

$$$$
