=
 OpenBabel11062415063D

 66 72  0  0  1  0  0  0  0  0999 V2000
  184.9560  177.7000  138.4140 C   0  0  2  0  0  3  0  0  0  0  0  0
  186.4410  178.8360  135.7390 O   0  0  0  0  0  0  0  0  0  0  0  0
  184.2110  176.3510  138.2260 C   0  0  0  0  0  2  0  0  0  0  0  0
  186.3290  177.4520  136.3730 P   0  0  1  0  0  0  0  0  0  0  0  0
  186.3270  177.5960  138.0690 O   0  0  0  0  0  0  0  0  0  0  0  0
  184.6880  175.7190  136.8870 C   0  0  0  0  0  2  0  0  0  0  0  0
  184.8680  176.7150  135.9330 O   0  0  0  0  0  0  0  0  0  0  0  0
  185.3460  177.5870  143.0740 C   0  0  0  0  0  1  0  0  0  0  0  0
  184.0190  179.4760  142.1390 C   0  0  0  0  0  2  0  0  0  0  0  0
  184.5690  177.4000  140.7810 O   0  0  0  0  0  0  0  0  0  0  0  0
  183.4640  179.2970  139.6890 C   0  0  2  0  0  3  0  0  0  0  0  0
  186.0200  179.1690  140.0730 C   0  0  0  0  0  1  0  0  0  0  0  0
  184.2570  177.9480  142.0740 C   0  0  1  0  0  3  0  0  0  0  0  0
  184.7450  178.3920  139.7720 C   0  0  2  0  0  0  0  0  0  0  0  0
  183.0890  179.9590  141.0150 C   0  0  0  0  0  2  0  0  0  0  0  0
  180.7260  179.0130  140.9920 C   0  0  0  0  0  2  0  0  0  0  0  0
  179.7590  176.9290  140.5070 C   0  0  0  0  0  0  0  0  0  0  0  0
  182.3380  178.9580  137.6660 O   0  0  0  0  0  0  0  0  0  0  0  0
  182.3400  178.5830  139.0120 N   0  0  2  0  0  0  0  0  0  0  0  0
  180.9530  178.7400  139.4920 C   0  0  1  0  0  3  0  0  0  0  0  0
  179.2220  175.8190  140.7210 O   0  0  0  0  0  0  0  0  0  0  0  0
  180.1730  177.8010  141.5490 N   0  0  0  0  0  0  0  0  0  0  0  0
  180.7550  176.5040  138.2200 C   0  0  0  0  0  0  0  0  0  0  0  0
  181.1140  178.8360  135.6480 C   0  0  0  0  0  0  0  0  0  0  0  0
  181.2560  176.9120  136.9750 O   0  0  0  0  0  0  0  0  0  0  0  0
  181.5890  178.2340  136.7190 C   0  0  0  0  0  0  0  0  0  0  0  0
  180.8260  175.2830  138.5170 O   0  0  0  0  0  0  0  0  0  0  0  0
  180.0760  177.4980  139.1520 C   0  0  1  0  0  3  0  0  0  0  0  0
  180.5840  179.4230  134.5990 C   0  0  0  0  0  3  0  0  0  0  0  0
  179.2310  179.9400  134.6380 N   0  0  0  0  0  2  0  0  0  0  0  0
  178.9340  181.3620  134.7690 C   0  0  0  0  0  2  0  0  0  0  0  0
  180.2510  182.1170  134.8540 C   0  0  0  0  0  2  0  0  0  0  0  0
  180.0130  183.4140  135.3120 F   0  0  0  0  0  0  0  0  0  0  0  0
  180.1020  177.5040  142.9650 C   0  0  0  0  0  2  0  0  0  0  0  0
  180.4380  178.7190  143.7640 C   0  0  0  0  0  0  0  0  0  0  0  0
  179.6010  179.6590  143.8720 O   0  0  0  0  0  0  0  0  0  0  0  0
  181.6510  178.7750  144.4590 O   0  0  0  0  0  1  0  0  0  0  0  0
  187.6220  176.4720  135.8160 O   0  0  0  0  0  0  0  0  0  0  0  0
  188.7690  177.2920  135.6640 C   0  0  0  0  0  2  0  0  0  0  0  0
  190.0230  176.4100  135.6530 C   0  0  2  0  0  3  0  0  0  0  0  0
  188.6370  174.8080  134.5940 O   0  0  0  0  0  0  0  0  0  0  0  0
  190.8470  174.1680  134.8670 O   0  0  0  0  0  1  0  0  0  0  0  0
  189.7900  175.0850  135.0230 C   0  0  0  0  0  0  0  0  0  0  0  0
  190.7290  176.2730  137.0220 C   0  0  0  0  0  2  0  0  0  0  0  0
  189.8670  175.6830  138.1440 C   0  0  0  0  0  2  0  0  0  0  0  0
  189.7710  176.6950  139.2220 C   0  0  0  0  0  0  0  0  0  0  0  0
  189.5770  177.9140  138.9110 O   0  0  0  0  0  0  0  0  0  0  0  0
  189.9870  176.2810  140.5710 N   0  0  0  0  0  2  0  0  0  0  0  0
  191.9050  177.1370  142.0080 C   0  0  0  0  0  0  0  0  0  0  0  0
  189.7710  178.1180  142.0760 C   0  0  0  0  0  2  0  0  0  0  0  0
  190.4990  177.1700  141.5830 C   0  0  1  0  0  3  0  0  0  0  0  0
  190.7410  179.8830  143.6980 S   0  0  0  0  0  0  0  0  0  0  0  0
  191.4350  178.2770  144.3240 C   0  0  2  0  0  3  0  0  0  0  0  0
  189.3970  179.0950  142.8290 C   0  0  0  0  0  2  0  0  0  0  0  0
  192.3080  177.6370  143.3180 N   0  0  0  0  0  2  0  0  0  0  0  0
  192.7740  176.7620  141.1750 O   0  0  0  0  0  0  0  0  0  0  0  0
  188.2260  177.0190  148.3310 C   0  0  1  0  0  3  0  0  0  0  0  0
  188.1060  176.3420  146.9830 C   0  0  0  0  0  2  0  0  0  0  0  0
  188.6640  178.7830  145.5890 O   0  0  0  0  0  0  0  0  0  0  0  0
  190.5650  177.3210  145.1830 C   0  0  1  0  0  3  0  0  0  0  0  0
  190.4640  176.2770  147.4110 N   0  0  0  0  0  2  0  0  0  0  0  0
  191.3450  176.6300  146.2910 C   0  0  1  0  0  3  0  0  0  0  0  0
  192.2640  175.5160  145.8380 C   0  0  0  0  0  1  0  0  0  0  0  0
  189.3300  177.1900  147.2620 C   0  0  2  0  0  0  0  0  0  0  0  0
  187.3870  178.2710  148.4400 C   0  0  0  0  0  1  0  0  0  0  0  0
  189.4480  177.9130  145.9800 C   0  0  0  0  0  0  0  0  0  0  0  0
  1  3  1  1  0  0  0
  1 14  1  0  0  0  0
  4  2  2  6  0  0  0
  4  5  1  0  0  0  0
  5  1  1  0  0  0  0
  6  3  1  0  0  0  0
  7  4  1  0  0  0  0
  7  6  1  0  0  0  0
 10 13  1  0  0  0  0
 11 14  1  0  0  0  0
 11 15  1  1  0  0  0
 13  9  1  0  0  0  0
 13  8  1  1  0  0  0
 14 12  1  1  0  0  0
 14 10  1  0  0  0  0
 15  9  1  0  0  0  0
 16 22  1  0  0  0  0
 17 21  2  0  0  0  0
 17 22  1  0  0  0  0
 19 18  1  6  0  0  0
 19 20  1  0  0  0  0
 19 11  1  0  0  0  0
 20 16  1  1  0  0  0
 22 34  1  0  0  0  0
 23 27  2  0  0  0  0
 24 26  2  0  0  0  0
 25 23  1  0  0  0  0
 26 25  1  0  0  0  0
 26 18  1  0  0  0  0
 28 23  1  6  0  0  0
 28 20  1  0  0  0  0
 28 17  1  0  0  0  0
 29 30  1  0  0  0  0
 29 24  2  0  0  0  0
 30 31  1  0  0  0  0
 31 32  1  0  0  0  0
 32 33  1  0  0  0  0
 34 35  1  0  0  0  0
 35 36  2  0  0  0  0
 35 37  1  0  0  0  0
 38  4  1  0  0  0  0
 39 38  1  0  0  0  0
 40 39  1  1  0  0  0
 40 44  1  0  0  0  0
 41 43  2  0  0  0  0
 42 43  1  0  0  0  0
 43 40  1  0  0  0  0
 44 45  1  0  0  0  0
 45 46  1  0  0  0  0
 46 48  1  0  0  0  0
 47 46  2  0  0  0  0
 49 55  1  0  0  0  0
 50 54  1  0  0  0  0
 51 48  1  6  0  0  0
 51 49  1  0  0  0  0
 51 50  1  0  0  0  0
 52 53  1  0  0  0  0
 53 55  1  6  0  0  0
 53 60  1  0  0  0  0
 54 52  1  0  0  0  0
 56 49  2  0  0  0  0
 57 65  1  6  0  0  0
 58 57  1  0  0  0  0
 59 66  2  0  0  0  0
 60 66  1  1  0  0  0
 60 62  1  0  0  0  0
 62 63  1  6  0  0  0
 62 61  1  0  0  0  0
 64 58  1  6  0  0  0
 64 61  1  0  0  0  0
 64 57  1  0  0  0  0
 66 64  1  0  0  0  0
M  END
>  <MODEL>
1

>  <REMARK>
 VINA RESULT:      -3.2      0.000      0.000
  Name = 
  16 active torsions:
  status: ('A' for Active; 'I' for Inactive)
    1  A    between atoms: C_4  and  C_22
    2  A    between atoms: C_4  and  N_25
    3  A    between atoms: C_11  and  C_62
    4  A    between atoms: N_12  and  C_39
    5  A    between atoms: C_15  and  C_27
    6  A    between atoms: O_16  and  P_33
    7  A    between atoms: O_16  and  C_52
    8  A    between atoms: C_17  and  N_42
    9  A    between atoms: C_19  and  C_30
   10  A    between atoms: C_21  and  C_50
   11  A    between atoms: C_21  and  C_52
   12  A    between atoms: C_21  and  C_60
   13  A    between atoms: N_25  and  C_59
   14  A    between atoms: C_30  and  C_50
   15  A    between atoms: N_31  and  C_48
   16  A    between atoms: C_40  and  C_48
                            x       y       z     vdW  Elec       q    Type
                         _______ _______ _______ _____ _____    ______ ____

>  <TORSDO>
F 16

$$$$
=
 OpenBabel11062415063D

 66 72  0  0  1  0  0  0  0  0999 V2000
  186.7750  173.7440  136.1530 C   0  0  2  0  0  3  0  0  0  0  0  0
  187.9150  176.0530  138.1590 O   0  0  0  0  0  0  0  0  0  0  0  0
  187.3760  173.7650  134.7220 C   0  0  0  0  0  2  0  0  0  0  0  0
  188.5720  175.1230  137.1420 P   0  0  1  0  0  0  0  0  0  0  0  0
  187.7800  173.6170  137.1450 O   0  0  0  0  0  0  0  0  0  0  0  0
  188.6430  174.6680  134.7450 C   0  0  0  0  0  2  0  0  0  0  0  0
  188.4300  175.7600  135.5790 O   0  0  0  0  0  0  0  0  0  0  0  0
  184.2210  170.1490  134.5940 C   0  0  0  0  0  1  0  0  0  0  0  0
  183.3450  171.3090  136.6160 C   0  0  0  0  0  2  0  0  0  0  0  0
  185.0970  172.3550  135.1030 O   0  0  0  0  0  0  0  0  0  0  0  0
  184.4840  173.4800  137.1930 C   0  0  2  0  0  3  0  0  0  0  0  0
  186.1920  171.5400  137.0720 C   0  0  0  0  0  1  0  0  0  0  0  0
  183.9330  171.5150  135.1990 C   0  0  1  0  0  3  0  0  0  0  0  0
  185.6110  172.7610  136.3700 C   0  0  2  0  0  0  0  0  0  0  0  0
  183.2240  172.6340  137.3850 C   0  0  0  0  0  2  0  0  0  0  0  0
  183.1970  175.6310  138.9240 C   0  0  0  0  0  2  0  0  0  0  0  0
  181.7700  177.0030  137.6630 C   0  0  0  0  0  0  0  0  0  0  0  0
  185.3520  175.2570  135.9440 O   0  0  0  0  0  0  0  0  0  0  0  0
  184.2320  174.8600  136.6780 N   0  0  2  0  0  0  0  0  0  0  0  0
  183.9260  175.9640  137.6070 C   0  0  1  0  0  3  0  0  0  0  0  0
  180.7170  177.5960  137.3360 O   0  0  0  0  0  0  0  0  0  0  0  0
  181.8520  176.1390  138.7870 N   0  0  0  0  0  0  0  0  0  0  0  0
  182.9360  176.9090  135.4200 C   0  0  0  0  0  0  0  0  0  0  0  0
  186.3770  177.0920  134.8630 C   0  0  0  0  0  0  0  0  0  0  0  0
  184.0690  176.8010  134.5990 O   0  0  0  0  0  0  0  0  0  0  0  0
  185.2940  176.3800  135.0960 C   0  0  0  0  0  0  0  0  0  0  0  0
  181.8040  176.9240  134.8700 O   0  0  0  0  0  0  0  0  0  0  0  0
  183.0780  177.0790  136.9260 C   0  0  1  0  0  3  0  0  0  0  0  0
  187.4300  177.8500  134.6560 C   0  0  0  0  0  3  0  0  0  0  0  0
  187.6810  179.0190  135.4750 N   0  0  0  0  0  2  0  0  0  0  0  0
  187.7610  178.9580  136.9300 C   0  0  0  0  0  2  0  0  0  0  0  0
  189.2140  178.7340  137.3170 C   0  0  0  0  0  2  0  0  0  0  0  0
  189.3300  178.7460  138.7080 F   0  0  0  0  0  0  0  0  0  0  0  0
  180.7440  175.7730  139.6440 C   0  0  0  0  0  2  0  0  0  0  0  0
  180.4440  176.8780  140.6010 C   0  0  0  0  0  0  0  0  0  0  0  0
  179.4980  176.7600  141.4290 O   0  0  0  0  0  1  0  0  0  0  0  0
  181.2670  178.0090  140.6290 O   0  0  0  0  0  0  0  0  0  0  0  0
  190.2390  174.9700  137.5160 O   0  0  0  0  0  0  0  0  0  0  0  0
  190.9750  175.7750  136.6100 C   0  0  0  0  0  2  0  0  0  0  0  0
  192.1910  176.3670  137.3320 C   0  0  2  0  0  3  0  0  0  0  0  0
  193.6760  176.0940  135.5080 O   0  0  0  0  0  0  0  0  0  0  0  0
  194.4900  175.3730  137.5540 O   0  0  0  0  0  1  0  0  0  0  0  0
  193.4810  175.9280  136.7420 C   0  0  0  0  0  0  0  0  0  0  0  0
  192.1780  176.1920  138.8680 C   0  0  0  0  0  2  0  0  0  0  0  0
  193.0750  177.1650  139.6430 C   0  0  0  0  0  2  0  0  0  0  0  0
  192.2830  177.7140  140.7680 C   0  0  0  0  0  0  0  0  0  0  0  0
  192.7730  178.6590  141.4670 O   0  0  0  0  0  0  0  0  0  0  0  0
  191.0310  177.1070  141.0850 N   0  0  0  0  0  2  0  0  0  0  0  0
  189.8770  175.9190  143.0170 C   0  0  0  0  0  0  0  0  0  0  0  0
  190.5940  178.1510  143.1830 C   0  0  0  0  0  2  0  0  0  0  0  0
  190.4770  177.1170  142.4150 C   0  0  1  0  0  3  0  0  0  0  0  0
  189.8410  178.1060  145.6570 S   0  0  0  0  0  0  0  0  0  0  0  0
  188.4480  177.2700  144.7550 C   0  0  2  0  0  3  0  0  0  0  0  0
  190.4420  178.9350  144.1950 C   0  0  0  0  0  2  0  0  0  0  0  0
  188.9010  176.0280  144.0960 N   0  0  0  0  0  2  0  0  0  0  0  0
  190.3010  174.7890  142.6530 O   0  0  0  0  0  0  0  0  0  0  0  0
  183.5610  178.9400  143.6310 C   0  0  1  0  0  3  0  0  0  0  0  0
  184.7550  179.8620  143.5140 C   0  0  0  0  0  2  0  0  0  0  0  0
  185.9750  178.7530  145.8580 O   0  0  0  0  0  0  0  0  0  0  0  0
  187.3880  178.1050  143.9870 C   0  0  1  0  0  3  0  0  0  0  0  0
  185.5070  177.8670  142.4180 N   0  0  0  0  0  2  0  0  0  0  0  0
  186.8650  177.4120  142.7390 C   0  0  1  0  0  3  0  0  0  0  0  0
  187.8160  177.3910  141.5630 C   0  0  0  0  0  1  0  0  0  0  0  0
  185.0000  178.3780  143.6920 C   0  0  2  0  0  0  0  0  0  0  0  0
  182.9330  178.9580  145.0050 C   0  0  0  0  0  1  0  0  0  0  0  0
  186.0990  178.4080  144.6790 C   0  0  0  0  0  0  0  0  0  0  0  0
  1  3  1  6  0  0  0
  1 14  1  0  0  0  0
  1  5  1  0  0  0  0
  3  6  1  0  0  0  0
  4  5  1  0  0  0  0
  4 38  1  0  0  0  0
  4  2  2  1  0  0  0
  6  7  1  0  0  0  0
  7  4  1  0  0  0  0
  9 15  1  0  0  0  0
 10 13  1  0  0  0  0
 10 14  1  0  0  0  0
 11 15  1  6  0  0  0
 13  8  1  1  0  0  0
 13  9  1  0  0  0  0
 14 12  1  1  0  0  0
 14 11  1  0  0  0  0
 17 22  1  0  0  0  0
 19 18  1  1  0  0  0
 19 11  1  0  0  0  0
 19 20  1  0  0  0  0
 20 16  1  1  0  0  0
 21 17  2  0  0  0  0
 22 16  1  0  0  0  0
 22 34  1  0  0  0  0
 24 26  2  0  0  0  0
 25 26  1  0  0  0  0
 25 23  1  0  0  0  0
 26 18  1  0  0  0  0
 27 23  2  0  0  0  0
 28 23  1  6  0  0  0
 28 20  1  0  0  0  0
 28 17  1  0  0  0  0
 29 24  2  0  0  0  0
 29 30  1  0  0  0  0
 30 31  1  0  0  0  0
 31 32  1  0  0  0  0
 32 33  1  0  0  0  0
 34 35  1  0  0  0  0
 35 37  2  0  0  0  0
 35 36  1  0  0  0  0
 39 38  1  0  0  0  0
 40 39  1  6  0  0  0
 40 44  1  0  0  0  0
 41 43  2  0  0  0  0
 43 40  1  0  0  0  0
 43 42  1  0  0  0  0
 44 45  1  0  0  0  0
 45 46  1  0  0  0  0
 46 48  1  0  0  0  0
 46 47  2  0  0  0  0
 49 55  1  0  0  0  0
 50 54  1  0  0  0  0
 51 48  1  1  0  0  0
 51 49  1  0  0  0  0
 51 50  1  0  0  0  0
 53 55  1  6  0  0  0
 53 52  1  0  0  0  0
 54 52  1  0  0  0  0
 56 49  2  0  0  0  0
 57 64  1  0  0  0  0
 57 65  1  1  0  0  0
 58 57  1  0  0  0  0
 60 66  1  1  0  0  0
 60 53  1  0  0  0  0
 61 62  1  0  0  0  0
 61 64  1  0  0  0  0
 62 63  1  6  0  0  0
 62 60  1  0  0  0  0
 64 58  1  6  0  0  0
 64 66  1  0  0  0  0
 66 59  2  0  0  0  0
M  END
>  <MODEL>
2

>  <REMARK>
 VINA RESULT:      -3.1      3.041      5.453
  Name = 
  16 active torsions:
  status: ('A' for Active; 'I' for Inactive)
    1  A    between atoms: C_4  and  C_22
    2  A    between atoms: C_4  and  N_25
    3  A    between atoms: C_11  and  C_62
    4  A    between atoms: N_12  and  C_39
    5  A    between atoms: C_15  and  C_27
    6  A    between atoms: O_16  and  P_33
    7  A    between atoms: O_16  and  C_52
    8  A    between atoms: C_17  and  N_42
    9  A    between atoms: C_19  and  C_30
   10  A    between atoms: C_21  and  C_50
   11  A    between atoms: C_21  and  C_52
   12  A    between atoms: C_21  and  C_60
   13  A    between atoms: N_25  and  C_59
   14  A    between atoms: C_30  and  C_50
   15  A    between atoms: N_31  and  C_48
   16  A    between atoms: C_40  and  C_48
                            x       y       z     vdW  Elec       q    Type
                         _______ _______ _______ _____ _____    ______ ____

>  <TORSDO>
F 16

$$$$
=
 OpenBabel11062415063D

 66 72  0  0  1  0  0  0  0  0999 V2000
  187.7130  178.1370  139.3850 C   0  0  2  0  0  3  0  0  0  0  0  0
  188.1450  175.7290  137.2250 O   0  0  0  0  0  0  0  0  0  0  0  0
  188.4410  179.4640  139.0410 C   0  0  0  0  0  2  0  0  0  0  0  0
  187.8720  177.2250  137.0940 P   0  0  1  0  0  0  0  0  0  0  0  0
  186.8370  177.7330  138.3460 O   0  0  0  0  0  0  0  0  0  0  0  0
  188.8900  179.3950  137.5530 C   0  0  0  0  0  2  0  0  0  0  0  0
  189.3100  178.1060  137.2460 O   0  0  0  0  0  0  0  0  0  0  0  0
  185.5770  180.3870  142.8860 C   0  0  0  0  0  1  0  0  0  0  0  0
  186.2100  178.0220  143.3390 C   0  0  0  0  0  2  0  0  0  0  0  0
  187.2050  179.3480  141.4150 O   0  0  0  0  0  0  0  0  0  0  0  0
  187.7190  176.9600  141.6240 C   0  0  2  0  0  3  0  0  0  0  0  0
  185.5530  177.8580  140.5280 C   0  0  0  0  0  1  0  0  0  0  0  0
  186.7030  179.3710  142.7630 C   0  0  1  0  0  3  0  0  0  0  0  0
  187.0400  178.0880  140.7680 C   0  0  2  0  0  0  0  0  0  0  0  0
  187.2040  176.8830  143.0630 C   0  0  0  0  0  2  0  0  0  0  0  0
  189.5470  175.8000  143.7670 C   0  0  0  0  0  2  0  0  0  0  0  0
  191.4790  177.1040  144.0400 C   0  0  0  0  0  0  0  0  0  0  0  0
  189.5390  176.6920  140.1800 O   0  0  0  0  0  0  0  0  0  0  0  0
  189.2060  177.0050  141.4990 N   0  0  2  0  0  0  0  0  0  0  0  0
  190.0590  176.1610  142.3590 C   0  0  1  0  0  3  0  0  0  0  0  0
  192.3500  177.7830  144.6300 O   0  0  0  0  0  0  0  0  0  0  0  0
  190.3470  176.5570  144.7000 N   0  0  0  0  0  0  0  0  0  0  0  0
  191.7470  177.9920  141.6860 C   0  0  0  0  0  0  0  0  0  0  0  0
  191.3340  176.1860  138.7280 C   0  0  0  0  0  0  0  0  0  0  0  0
  191.6250  177.9050  140.2910 O   0  0  0  0  0  0  0  0  0  0  0  0
  190.8340  176.9390  139.6860 C   0  0  0  0  0  0  0  0  0  0  0  0
  192.1510  179.0780  142.1800 O   0  0  0  0  0  0  0  0  0  0  0  0
  191.4700  176.7840  142.5710 C   0  0  1  0  0  3  0  0  0  0  0  0
  191.8770  175.4180  137.8100 C   0  0  0  0  0  3  0  0  0  0  0  0
  192.7000  174.2840  138.1790 N   0  0  0  0  0  2  0  0  0  0  0  0
  193.6120  173.6360  137.2430 C   0  0  0  0  0  2  0  0  0  0  0  0
  194.9740  174.3010  137.3690 C   0  0  0  0  0  2  0  0  0  0  0  0
  194.9140  175.5850  136.8270 F   0  0  0  0  0  0  0  0  0  0  0  0
  190.0090  176.7670  146.0930 C   0  0  0  0  0  2  0  0  0  0  0  0
  191.1950  176.4980  146.9580 C   0  0  0  0  0  0  0  0  0  0  0  0
  191.6880  177.4240  147.6630 O   0  0  0  0  0  1  0  0  0  0  0  0
  191.7050  175.1990  147.0470 O   0  0  0  0  0  0  0  0  0  0  0  0
  187.2030  177.5400  135.5450 O   0  0  0  0  0  0  0  0  0  0  0  0
  187.0010  176.3000  134.8870 C   0  0  0  0  0  2  0  0  0  0  0  0
  186.2100  175.3630  135.8060 C   0  0  2  0  0  3  0  0  0  0  0  0
  185.0200  173.7020  134.6090 O   0  0  0  0  0  0  0  0  0  0  0  0
  187.1010  173.0480  135.3910 O   0  0  0  0  0  1  0  0  0  0  0  0
  186.0670  173.9940  135.2480 C   0  0  0  0  0  0  0  0  0  0  0  0
  184.8540  175.9250  136.2900 C   0  0  0  0  0  2  0  0  0  0  0  0
  184.2420  175.2050  137.4970 C   0  0  0  0  0  2  0  0  0  0  0  0
  183.2710  176.1280  138.1310 C   0  0  0  0  0  0  0  0  0  0  0  0
  182.6810  175.7670  139.2000 O   0  0  0  0  0  0  0  0  0  0  0  0
  182.9640  177.3570  137.4730 N   0  0  0  0  0  2  0  0  0  0  0  0
  180.6130  177.8630  136.6410 C   0  0  0  0  0  0  0  0  0  0  0  0
  181.4080  178.6910  138.6910 C   0  0  0  0  0  2  0  0  0  0  0  0
  181.6940  178.0220  137.6220 C   0  0  1  0  0  3  0  0  0  0  0  0
  179.0510  179.6740  139.0970 S   0  0  0  0  0  0  0  0  0  0  0  0
  179.4050  180.0920  137.3220 C   0  0  2  0  0  3  0  0  0  0  0  0
  180.7740  179.4600  139.5090 C   0  0  0  0  0  2  0  0  0  0  0  0
  179.5670  178.8730  136.5030 N   0  0  0  0  0  2  0  0  0  0  0  0
  180.5470  176.7850  135.9900 O   0  0  0  0  0  0  0  0  0  0  0  0
  180.5510  185.1950  136.5640 C   0  0  1  0  0  3  0  0  0  0  0  0
  181.5820  184.2270  137.1030 C   0  0  0  0  0  2  0  0  0  0  0  0
  179.6240  182.8540  138.6820 O   0  0  0  0  0  0  0  0  0  0  0  0
  180.3240  181.2880  136.9570 C   0  0  1  0  0  3  0  0  0  0  0  0
  180.6400  183.0340  135.2500 N   0  0  0  0  0  2  0  0  0  0  0  0
  180.3240  181.6170  135.4730 C   0  0  1  0  0  3  0  0  0  0  0  0
  181.0950  180.6550  134.5960 C   0  0  0  0  0  1  0  0  0  0  0  0
  180.2990  183.6710  136.5230 C   0  0  2  0  0  0  0  0  0  0  0  0
  179.7270  185.8460  137.6500 C   0  0  0  0  0  1  0  0  0  0  0  0
  179.9870  182.6290  137.5230 C   0  0  0  0  0  0  0  0  0  0  0  0
  1  3  1  6  0  0  0
  1 14  1  0  0  0  0
  4  2  2  1  0  0  0
  4  7  1  0  0  0  0
  4  5  1  0  0  0  0
  5  1  1  0  0  0  0
  6  3  1  0  0  0  0
  7  6  1  0  0  0  0
 10 13  1  0  0  0  0
 11 15  1  1  0  0  0
 13  8  1  6  0  0  0
 13  9  1  0  0  0  0
 14 12  1  6  0  0  0
 14 10  1  0  0  0  0
 14 11  1  0  0  0  0
 15  9  1  0  0  0  0
 16 22  1  0  0  0  0
 17 21  2  0  0  0  0
 17 22  1  0  0  0  0
 19 18  1  6  0  0  0
 19 11  1  0  0  0  0
 19 20  1  0  0  0  0
 20 28  1  0  0  0  0
 20 16  1  1  0  0  0
 22 34  1  0  0  0  0
 23 27  2  0  0  0  0
 24 26  2  0  0  0  0
 25 23  1  0  0  0  0
 26 18  1  0  0  0  0
 26 25  1  0  0  0  0
 28 23  1  6  0  0  0
 28 17  1  0  0  0  0
 29 30  1  0  0  0  0
 29 24  2  0  0  0  0
 31 32  1  0  0  0  0
 31 30  1  0  0  0  0
 33 32  1  0  0  0  0
 34 35  1  0  0  0  0
 35 37  2  0  0  0  0
 35 36  1  0  0  0  0
 38  4  1  0  0  0  0
 39 38  1  0  0  0  0
 40 39  1  6  0  0  0
 40 44  1  0  0  0  0
 41 43  2  0  0  0  0
 43 42  1  0  0  0  0
 43 40  1  0  0  0  0
 44 45  1  0  0  0  0
 45 46  1  0  0  0  0
 46 47  2  0  0  0  0
 48 46  1  0  0  0  0
 49 51  1  0  0  0  0
 50 54  1  0  0  0  0
 51 48  1  1  0  0  0
 51 50  1  0  0  0  0
 52 54  1  0  0  0  0
 53 55  1  1  0  0  0
 53 52  1  0  0  0  0
 55 49  1  0  0  0  0
 56 49  2  0  0  0  0
 57 58  1  0  0  0  0
 57 65  1  1  0  0  0
 60 53  1  0  0  0  0
 60 66  1  1  0  0  0
 61 62  1  0  0  0  0
 61 64  1  0  0  0  0
 62 63  1  6  0  0  0
 62 60  1  0  0  0  0
 64 57  1  0  0  0  0
 64 58  1  1  0  0  0
 64 66  1  0  0  0  0
 66 59  2  0  0  0  0
M  END
>  <MODEL>
3

>  <REMARK>
 VINA RESULT:      -2.6      3.566     10.476
  Name = 
  16 active torsions:
  status: ('A' for Active; 'I' for Inactive)
    1  A    between atoms: C_4  and  C_22
    2  A    between atoms: C_4  and  N_25
    3  A    between atoms: C_11  and  C_62
    4  A    between atoms: N_12  and  C_39
    5  A    between atoms: C_15  and  C_27
    6  A    between atoms: O_16  and  P_33
    7  A    between atoms: O_16  and  C_52
    8  A    between atoms: C_17  and  N_42
    9  A    between atoms: C_19  and  C_30
   10  A    between atoms: C_21  and  C_50
   11  A    between atoms: C_21  and  C_52
   12  A    between atoms: C_21  and  C_60
   13  A    between atoms: N_25  and  C_59
   14  A    between atoms: C_30  and  C_50
   15  A    between atoms: N_31  and  C_48
   16  A    between atoms: C_40  and  C_48
                            x       y       z     vdW  Elec       q    Type
                         _______ _______ _______ _____ _____    ______ ____

>  <TORSDO>
F 16

$$$$
=
 OpenBabel11062415063D

 66 72  0  0  1  0  0  0  0  0999 V2000
  188.8390  172.4670  136.1950 C   0  0  2  0  0  3  0  0  0  0  0  0
  186.3450  174.1050  134.8740 O   0  0  0  0  0  0  0  0  0  0  0  0
  188.6090  171.9880  137.6550 C   0  0  0  0  0  2  0  0  0  0  0  0
  186.4410  172.8460  135.7320 P   0  0  1  0  0  0  0  0  0  0  0  0
  187.8410  171.9730  135.3170 O   0  0  0  0  0  0  0  0  0  0  0  0
  187.0900  172.1090  137.9670 C   0  0  0  0  0  2  0  0  0  0  0  0
  186.5740  173.2550  137.3710 O   0  0  0  0  0  0  0  0  0  0  0  0
  192.9430  170.2360  136.4380 C   0  0  0  0  0  1  0  0  0  0  0  0
  192.8540  172.1840  134.8890 C   0  0  0  0  0  2  0  0  0  0  0  0
  191.1100  171.8060  136.6970 O   0  0  0  0  0  0  0  0  0  0  0  0
  190.7940  173.6200  135.0780 C   0  0  2  0  0  3  0  0  0  0  0  0
  190.1670  171.1560  134.5940 C   0  0  0  0  0  1  0  0  0  0  0  0
  192.4890  171.6820  136.3070 C   0  0  1  0  0  3  0  0  0  0  0  0
  190.2600  172.2560  135.6440 C   0  0  2  0  0  0  0  0  0  0  0  0
  192.2440  173.5620  134.5940 C   0  0  0  0  0  2  0  0  0  0  0  0
  192.7470  175.9200  135.4940 C   0  0  0  0  0  2  0  0  0  0  0  0
  192.7500  176.6470  137.7250 C   0  0  0  0  0  0  0  0  0  0  0  0
  189.1570  175.1080  135.8390 O   0  0  0  0  0  0  0  0  0  0  0  0
  190.4960  174.7480  136.0110 N   0  0  2  0  0  0  0  0  0  0  0  0
  191.2780  175.9980  135.9530 C   0  0  1  0  0  3  0  0  0  0  0  0
  193.2130  176.9500  138.8480 O   0  0  0  0  0  0  0  0  0  0  0  0
  193.5560  176.1450  136.6690 N   0  0  0  0  0  0  0  0  0  0  0  0
  190.3530  176.1400  138.3570 C   0  0  0  0  0  0  0  0  0  0  0  0
  187.5250  176.7230  136.3970 C   0  0  0  0  0  0  0  0  0  0  0  0
  188.9860  175.9990  138.0770 O   0  0  0  0  0  0  0  0  0  0  0  0
  188.5080  175.9340  136.7760 C   0  0  0  0  0  0  0  0  0  0  0  0
  190.7610  175.8210  139.5050 O   0  0  0  0  0  0  0  0  0  0  0  0
  191.3040  176.7330  137.3260 C   0  0  1  0  0  3  0  0  0  0  0  0
  186.5760  177.5580  136.0370 C   0  0  0  0  0  3  0  0  0  0  0  0
  186.8840  178.9290  135.6850 N   0  0  0  0  0  2  0  0  0  0  0  0
  187.4050  179.8920  136.6480 C   0  0  0  0  0  2  0  0  0  0  0  0
  188.7460  179.3820  137.1520 C   0  0  0  0  0  2  0  0  0  0  0  0
  189.5300  178.9880  136.0670 F   0  0  0  0  0  0  0  0  0  0  0  0
  194.9700  175.8490  136.7620 C   0  0  0  0  0  2  0  0  0  0  0  0
  195.1800  174.3860  136.9690 C   0  0  0  0  0  0  0  0  0  0  0  0
  194.6400  173.8010  137.9500 O   0  0  0  0  0  1  0  0  0  0  0  0
  195.9090  173.6540  136.0270 O   0  0  0  0  0  0  0  0  0  0  0  0
  185.0180  171.9110  135.5190 O   0  0  0  0  0  0  0  0  0  0  0  0
  184.5460  171.5230  136.7980 C   0  0  0  0  0  2  0  0  0  0  0  0
  183.0300  171.7460  136.8670 C   0  0  2  0  0  3  0  0  0  0  0  0
  182.8980  169.9310  135.3520 O   0  0  0  0  0  0  0  0  0  0  0  0
  180.8580  170.7410  136.0950 O   0  0  0  0  0  1  0  0  0  0  0  0
  182.2660  170.7670  136.0530 C   0  0  0  0  0  0  0  0  0  0  0  0
  182.5780  173.1970  136.5850 C   0  0  0  0  0  2  0  0  0  0  0  0
  181.3450  173.6610  137.3690 C   0  0  0  0  0  2  0  0  0  0  0  0
  181.4300  175.1320  137.5190 C   0  0  0  0  0  0  0  0  0  0  0  0
  182.5540  175.7070  137.3580 O   0  0  0  0  0  0  0  0  0  0  0  0
  180.2630  175.8480  137.9240 N   0  0  0  0  0  2  0  0  0  0  0  0
  180.6430  178.3630  137.9940 C   0  0  0  0  0  0  0  0  0  0  0  0
  179.9870  177.1540  139.8990 C   0  0  0  0  0  2  0  0  0  0  0  0
  180.3260  177.0890  138.6530 C   0  0  1  0  0  3  0  0  0  0  0  0
  179.8430  179.4070  141.1590 S   0  0  0  0  0  0  0  0  0  0  0  0
  181.4330  179.5340  140.2050 C   0  0  2  0  0  3  0  0  0  0  0  0
  179.8080  177.6250  141.0850 C   0  0  0  0  0  2  0  0  0  0  0  0
  181.1930  179.4850  138.7480 N   0  0  0  0  0  2  0  0  0  0  0  0
  180.3330  178.5040  136.7790 O   0  0  0  0  0  0  0  0  0  0  0  0
  185.5870  178.8630  143.4030 C   0  0  1  0  0  3  0  0  0  0  0  0
  184.8620  177.6820  142.7940 C   0  0  0  0  0  2  0  0  0  0  0  0
  182.3110  178.9510  143.1060 O   0  0  0  0  0  0  0  0  0  0  0  0
  182.7190  178.8280  140.7120 C   0  0  1  0  0  3  0  0  0  0  0  0
  185.1490  179.1590  140.9280 N   0  0  0  0  0  2  0  0  0  0  0  0
  183.9880  179.3390  140.0480 C   0  0  1  0  0  3  0  0  0  0  0  0
  184.2020  178.8810  138.6220 C   0  0  0  0  0  1  0  0  0  0  0  0
  184.5610  179.0690  142.2650 C   0  0  2  0  0  0  0  0  0  0  0  0
  185.0080  179.2900  144.7310 C   0  0  0  0  0  1  0  0  0  0  0  0
  183.0900  178.9940  142.1490 C   0  0  0  0  0  0  0  0  0  0  0  0
  1  3  1  1  0  0  0
  3  6  1  0  0  0  0
  4  2  2  6  0  0  0
  4  7  1  0  0  0  0
  5  4  1  0  0  0  0
  5  1  1  0  0  0  0
  7  6  1  0  0  0  0
  9 13  1  0  0  0  0
 11 15  1  1  0  0  0
 11 14  1  0  0  0  0
 11 19  1  0  0  0  0
 13  8  1  6  0  0  0
 13 10  1  0  0  0  0
 14 12  1  6  0  0  0
 14  1  1  0  0  0  0
 14 10  1  0  0  0  0
 15  9  1  0  0  0  0
 16 22  1  0  0  0  0
 17 21  2  0  0  0  0
 18 26  1  0  0  0  0
 19 18  1  6  0  0  0
 20 16  1  1  0  0  0
 20 19  1  0  0  0  0
 20 28  1  0  0  0  0
 22 34  1  0  0  0  0
 22 17  1  0  0  0  0
 23 27  2  0  0  0  0
 24 26  2  0  0  0  0
 25 23  1  0  0  0  0
 26 25  1  0  0  0  0
 28 17  1  1  0  0  0
 28 23  1  0  0  0  0
 29 24  2  0  0  0  0
 30 29  1  0  0  0  0
 30 31  1  0  0  0  0
 31 32  1  0  0  0  0
 33 32  1  0  0  0  0
 34 35  1  0  0  0  0
 35 36  1  0  0  0  0
 37 35  2  0  0  0  0
 38  4  1  0  0  0  0
 38 39  1  0  0  0  0
 39 40  1  0  0  0  0
 40 44  1  6  0  0  0
 41 43  2  0  0  0  0
 43 42  1  0  0  0  0
 43 40  1  0  0  0  0
 44 45  1  0  0  0  0
 45 46  1  0  0  0  0
 46 48  1  0  0  0  0
 47 46  2  0  0  0  0
 49 51  1  0  0  0  0
 49 55  1  0  0  0  0
 50 54  1  0  0  0  0
 51 48  1  6  0  0  0
 51 50  1  0  0  0  0
 53 55  1  6  0  0  0
 53 60  1  0  0  0  0
 53 52  1  0  0  0  0
 54 52  1  0  0  0  0
 56 49  2  0  0  0  0
 57 65  1  1  0  0  0
 58 57  1  0  0  0  0
 60 66  1  1  0  0  0
 61 64  1  0  0  0  0
 62 63  1  6  0  0  0
 62 60  1  0  0  0  0
 62 61  1  0  0  0  0
 64 58  1  6  0  0  0
 64 57  1  0  0  0  0
 66 64  1  0  0  0  0
 66 59  2  0  0  0  0
M  END
>  <MODEL>
4

>  <REMARK>
 VINA RESULT:      -2.4      4.054     10.104
  Name = 
  16 active torsions:
  status: ('A' for Active; 'I' for Inactive)
    1  A    between atoms: C_4  and  C_22
    2  A    between atoms: C_4  and  N_25
    3  A    between atoms: C_11  and  C_62
    4  A    between atoms: N_12  and  C_39
    5  A    between atoms: C_15  and  C_27
    6  A    between atoms: O_16  and  P_33
    7  A    between atoms: O_16  and  C_52
    8  A    between atoms: C_17  and  N_42
    9  A    between atoms: C_19  and  C_30
   10  A    between atoms: C_21  and  C_50
   11  A    between atoms: C_21  and  C_52
   12  A    between atoms: C_21  and  C_60
   13  A    between atoms: N_25  and  C_59
   14  A    between atoms: C_30  and  C_50
   15  A    between atoms: N_31  and  C_48
   16  A    between atoms: C_40  and  C_48
                            x       y       z     vdW  Elec       q    Type
                         _______ _______ _______ _____ _____    ______ ____

>  <TORSDO>
F 16

$$$$
=
 OpenBabel11062415063D

 66 72  0  0  1  0  0  0  0  0999 V2000
  184.0770  178.0060  138.1000 C   0  0  2  0  0  3  0  0  0  0  0  0
  183.0280  176.7530  140.9250 O   0  0  0  0  0  0  0  0  0  0  0  0
  183.5150  179.4130  137.7590 C   0  0  0  0  0  2  0  0  0  0  0  0
  183.5020  178.1410  140.5000 P   0  0  1  0  0  0  0  0  0  0  0  0
  184.7470  177.9960  139.3490 O   0  0  0  0  0  0  0  0  0  0  0  0
  182.8800  180.0040  139.0500 C   0  0  0  0  0  2  0  0  0  0  0  0
  182.2390  178.9980  139.7650 O   0  0  0  0  0  0  0  0  0  0  0  0
  187.1600  178.3910  134.6030 C   0  0  0  0  0  1  0  0  0  0  0  0
  186.0360  176.1800  134.8240 C   0  0  0  0  0  2  0  0  0  0  0  0
  185.1400  178.2750  135.9450 O   0  0  0  0  0  0  0  0  0  0  0  0
  184.0920  176.1120  136.4240 C   0  0  2  0  0  3  0  0  0  0  0  0
  186.2380  176.9440  137.6060 C   0  0  0  0  0  1  0  0  0  0  0  0
  185.8140  177.7110  134.8060 C   0  0  1  0  0  3  0  0  0  0  0  0
  184.9010  177.3330  136.9890 C   0  0  2  0  0  0  0  0  0  0  0  0
  184.7650  175.4210  135.2370 C   0  0  0  0  0  2  0  0  0  0  0  0
  181.9190  175.3220  138.4060 C   0  0  0  0  0  2  0  0  0  0  0  0
  179.9240  174.7520  137.3070 C   0  0  0  0  0  0  0  0  0  0  0  0
  182.6060  177.7800  135.7330 O   0  0  0  0  0  0  0  0  0  0  0  0
  182.6580  176.4660  136.2030 N   0  0  2  0  0  0  0  0  0  0  0  0
  181.6830  176.3760  137.3080 C   0  0  1  0  0  3  0  0  0  0  0  0
  178.9310  174.0630  136.9850 O   0  0  0  0  0  0  0  0  0  0  0  0
  180.9220  174.2950  138.2090 N   0  0  0  0  0  0  0  0  0  0  0  0
  180.0970  176.2520  135.2770 C   0  0  0  0  0  0  0  0  0  0  0  0
  181.1530  179.5780  135.2390 C   0  0  0  0  0  0  0  0  0  0  0  0
  180.4970  177.4200  134.6110 O   0  0  0  0  0  0  0  0  0  0  0  0
  181.4260  178.2920  135.1590 C   0  0  0  0  0  0  0  0  0  0  0  0
  179.5640  175.3350  134.5980 O   0  0  0  0  0  0  0  0  0  0  0  0
  180.2360  176.1280  136.7880 C   0  0  1  0  0  3  0  0  0  0  0  0
  180.8310  180.8470  135.3500 C   0  0  0  0  0  3  0  0  0  0  0  0
  179.9930  181.3120  136.4360 N   0  0  0  0  0  2  0  0  0  0  0  0
  179.4000  182.6440  136.4590 C   0  0  0  0  0  2  0  0  0  0  0  0
  180.4660  183.6320  136.9060 C   0  0  0  0  0  2  0  0  0  0  0  0
  180.6500  184.5960  135.9130 F   0  0  0  0  0  0  0  0  0  0  0  0
  180.9690  172.9780  138.8060 C   0  0  0  0  0  2  0  0  0  0  0  0
  181.3120  171.9550  137.7750 C   0  0  0  0  0  0  0  0  0  0  0  0
  180.4450  171.1150  137.4030 O   0  0  0  0  0  1  0  0  0  0  0  0
  182.5710  171.9830  137.1660 O   0  0  0  0  0  0  0  0  0  0  0  0
  184.0120  179.0110  141.8880 O   0  0  0  0  0  0  0  0  0  0  0  0
  184.0130  178.1230  142.9940 C   0  0  0  0  0  2  0  0  0  0  0  0
  184.6360  178.8270  144.2060 C   0  0  2  0  0  3  0  0  0  0  0  0
  184.7540  181.1590  144.5940 O   0  0  0  0  0  1  0  0  0  0  0  0
  186.0580  180.3880  142.8410 O   0  0  0  0  0  0  0  0  0  0  0  0
  185.1360  180.1880  143.8880 C   0  0  0  0  0  0  0  0  0  0  0  0
  185.6940  177.9930  144.9630 C   0  0  0  0  0  2  0  0  0  0  0  0
  186.1740  176.7310  144.2360 C   0  0  0  0  0  2  0  0  0  0  0  0
  187.6070  176.9130  143.9090 C   0  0  0  0  0  0  0  0  0  0  0  0
  188.3400  177.5920  144.6980 O   0  0  0  0  0  0  0  0  0  0  0  0
  188.0990  176.3940  142.6740 N   0  0  0  0  0  2  0  0  0  0  0  0
  189.0680  178.1170  141.0710 C   0  0  0  0  0  0  0  0  0  0  0  0
  190.4320  176.5890  142.2210 C   0  0  0  0  0  2  0  0  0  0  0  0
  189.2210  176.9730  141.9800 C   0  0  1  0  0  3  0  0  0  0  0  0
  192.4770  177.7850  141.1850 S   0  0  0  0  0  0  0  0  0  0  0  0
  191.2900  177.6270  139.7650 C   0  0  2  0  0  3  0  0  0  0  0  0
  191.7120  176.4710  142.1190 C   0  0  0  0  0  2  0  0  0  0  0  0
  190.0430  178.3780  140.0180 N   0  0  0  0  0  2  0  0  0  0  0  0
  188.1280  178.9310  141.2850 O   0  0  0  0  0  0  0  0  0  0  0  0
  192.2780  174.1720  135.8890 C   0  0  1  0  0  3  0  0  0  0  0  0
  191.9910  173.7110  137.3020 C   0  0  0  0  0  2  0  0  0  0  0  0
  193.4670  175.8940  138.4280 O   0  0  0  0  0  0  0  0  0  0  0  0
  191.1370  176.2820  139.0060 C   0  0  1  0  0  3  0  0  0  0  0  0
  190.2720  175.3350  136.9050 N   0  0  0  0  0  2  0  0  0  0  0  0
  190.0080  176.2900  137.9880 C   0  0  1  0  0  3  0  0  0  0  0  0
  188.6120  176.2140  138.5670 C   0  0  0  0  0  1  0  0  0  0  0  0
  191.7250  175.1580  136.9430 C   0  0  2  0  0  0  0  0  0  0  0  0
  193.7470  174.4250  135.6370 C   0  0  0  0  0  1  0  0  0  0  0  0
  192.2680  175.8310  138.1410 C   0  0  0  0  0  0  0  0  0  0  0  0
  1  3  1  6  0  0  0
  1  5  1  0  0  0  0
  3  6  1  0  0  0  0
  4  2  2  1  0  0  0
  4 38  1  0  0  0  0
  5  4  1  0  0  0  0
  6  7  1  0  0  0  0
  7  4  1  0  0  0  0
  9 15  1  0  0  0  0
 10 14  1  0  0  0  0
 11 15  1  6  0  0  0
 11 14  1  0  0  0  0
 13  8  1  1  0  0  0
 13  9  1  0  0  0  0
 13 10  1  0  0  0  0
 14 12  1  1  0  0  0
 14  1  1  0  0  0  0
 17 22  1  0  0  0  0
 19 18  1  1  0  0  0
 19 11  1  0  0  0  0
 19 20  1  0  0  0  0
 20 16  1  1  0  0  0
 21 17  2  0  0  0  0
 22 16  1  0  0  0  0
 22 34  1  0  0  0  0
 24 29  2  0  0  0  0
 25 26  1  0  0  0  0
 25 23  1  0  0  0  0
 26 24  2  0  0  0  0
 26 18  1  0  0  0  0
 27 23  2  0  0  0  0
 28 23  1  6  0  0  0
 28 17  1  0  0  0  0
 28 20  1  0  0  0  0
 29 30  1  0  0  0  0
 30 31  1  0  0  0  0
 31 32  1  0  0  0  0
 33 32  1  0  0  0  0
 35 34  1  0  0  0  0
 36 35  1  0  0  0  0
 37 35  2  0  0  0  0
 38 39  1  0  0  0  0
 40 39  1  6  0  0  0
 40 44  1  0  0  0  0
 42 43  2  0  0  0  0
 43 40  1  0  0  0  0
 43 41  1  0  0  0  0
 45 44  1  0  0  0  0
 46 45  1  0  0  0  0
 46 47  2  0  0  0  0
 48 46  1  0  0  0  0
 49 56  2  0  0  0  0
 49 51  1  0  0  0  0
 51 50  1  0  0  0  0
 51 48  1  1  0  0  0
 52 54  1  0  0  0  0
 53 55  1  1  0  0  0
 53 52  1  0  0  0  0
 54 50  1  0  0  0  0
 55 49  1  0  0  0  0
 57 65  1  1  0  0  0
 57 64  1  0  0  0  0
 57 58  1  0  0  0  0
 60 66  1  6  0  0  0
 60 53  1  0  0  0  0
 61 64  1  0  0  0  0
 61 62  1  0  0  0  0
 62 63  1  1  0  0  0
 62 60  1  0  0  0  0
 64 58  1  1  0  0  0
 64 66  1  0  0  0  0
 66 59  2  0  0  0  0
M  END
>  <MODEL>
5

>  <REMARK>
 VINA RESULT:      -2.3      2.853      6.752
  Name = 
  16 active torsions:
  status: ('A' for Active; 'I' for Inactive)
    1  A    between atoms: C_4  and  C_22
    2  A    between atoms: C_4  and  N_25
    3  A    between atoms: C_11  and  C_62
    4  A    between atoms: N_12  and  C_39
    5  A    between atoms: C_15  and  C_27
    6  A    between atoms: O_16  and  P_33
    7  A    between atoms: O_16  and  C_52
    8  A    between atoms: C_17  and  N_42
    9  A    between atoms: C_19  and  C_30
   10  A    between atoms: C_21  and  C_50
   11  A    between atoms: C_21  and  C_52
   12  A    between atoms: C_21  and  C_60
   13  A    between atoms: N_25  and  C_59
   14  A    between atoms: C_30  and  C_50
   15  A    between atoms: N_31  and  C_48
   16  A    between atoms: C_40  and  C_48
                            x       y       z     vdW  Elec       q    Type
                         _______ _______ _______ _____ _____    ______ ____

>  <TORSDO>
F 16

$$$$
=
 OpenBabel11062415063D

 66 72  0  0  1  0  0  0  0  0999 V2000
  187.4400  178.1910  140.0110 C   0  0  2  0  0  3  0  0  0  0  0  0
  188.0170  175.7400  137.9360 O   0  0  0  0  0  0  0  0  0  0  0  0
  188.1330  179.5330  139.6490 C   0  0  0  0  0  2  0  0  0  0  0  0
  187.6970  177.2210  137.7530 P   0  0  1  0  0  0  0  0  0  0  0  0
  186.6100  177.7280  138.9590 O   0  0  0  0  0  0  0  0  0  0  0  0
  188.6270  179.4380  138.1770 C   0  0  0  0  0  2  0  0  0  0  0  0
  189.1000  178.1560  137.9200 O   0  0  0  0  0  0  0  0  0  0  0  0
  185.1260  180.4630  143.3820 C   0  0  0  0  0  1  0  0  0  0  0  0
  185.8260  178.1350  143.9230 C   0  0  0  0  0  2  0  0  0  0  0  0
  186.8310  179.4410  141.9900 O   0  0  0  0  0  0  0  0  0  0  0  0
  187.4200  177.0790  142.2830 C   0  0  2  0  0  3  0  0  0  0  0  0
  185.2590  177.8690  141.0990 C   0  0  0  0  0  1  0  0  0  0  0  0
  186.2890  179.4840  143.3210 C   0  0  1  0  0  3  0  0  0  0  0  0
  186.7290  178.1580  141.3750 C   0  0  2  0  0  0  0  0  0  0  0  0
  186.8660  177.0250  143.7080 C   0  0  0  0  0  2  0  0  0  0  0  0
  189.2330  175.7190  144.3180 C   0  0  0  0  0  2  0  0  0  0  0  0
  191.1260  177.0260  144.7860 C   0  0  0  0  0  0  0  0  0  0  0  0
  189.2760  177.0250  140.8600 O   0  0  0  0  0  0  0  0  0  0  0  0
  188.9090  177.1730  142.1990 N   0  0  2  0  0  0  0  0  0  0  0  0
  189.7640  176.2540  142.9740 C   0  0  1  0  0  3  0  0  0  0  0  0
  191.9650  177.6510  145.4720 O   0  0  0  0  0  0  0  0  0  0  0  0
  189.9940  176.3800  145.3520 N   0  0  0  0  0  0  0  0  0  0  0  0
  191.4190  178.1900  142.5600 C   0  0  0  0  0  0  0  0  0  0  0  0
  191.1130  176.7350  139.4020 C   0  0  0  0  0  0  0  0  0  0  0  0
  191.3270  178.2640  141.1610 O   0  0  0  0  0  0  0  0  0  0  0  0
  190.5740  177.3580  140.4290 C   0  0  0  0  0  0  0  0  0  0  0  0
  191.7850  179.2190  143.1860 O   0  0  0  0  0  0  0  0  0  0  0  0
  191.1550  176.8810  143.2910 C   0  0  1  0  0  3  0  0  0  0  0  0
  191.6950  176.0920  138.4140 C   0  0  0  0  0  3  0  0  0  0  0  0
  192.5380  174.9420  138.6670 N   0  0  0  0  0  2  0  0  0  0  0  0
  193.2130  174.2110  137.6000 C   0  0  0  0  0  2  0  0  0  0  0  0
  194.6910  174.1220  137.9460 C   0  0  0  0  0  2  0  0  0  0  0  0
  194.9300  172.9470  138.6610 F   0  0  0  0  0  0  0  0  0  0  0  0
  189.6220  176.4160  146.7510 C   0  0  0  0  0  2  0  0  0  0  0  0
  188.9510  177.7100  147.0730 C   0  0  0  0  0  0  0  0  0  0  0  0
  188.1490  178.2300  146.2470 O   0  0  0  0  0  0  0  0  0  0  0  0
  189.1520  178.2990  148.3250 O   0  0  0  0  0  1  0  0  0  0  0  0
  187.0640  177.4690  136.1770 O   0  0  0  0  0  0  0  0  0  0  0  0
  187.6840  176.5440  135.2980 C   0  0  0  0  0  2  0  0  0  0  0  0
  187.2930  175.1190  135.7060 C   0  0  2  0  0  3  0  0  0  0  0  0
  187.4350  173.0300  134.6010 O   0  0  0  0  0  1  0  0  0  0  0  0
  189.3880  174.2780  134.5980 O   0  0  0  0  0  0  0  0  0  0  0  0
  188.0390  174.0790  134.9530 C   0  0  0  0  0  0  0  0  0  0  0  0
  185.7720  174.8410  135.7060 C   0  0  0  0  0  2  0  0  0  0  0  0
  185.3460  173.5400  136.3950 C   0  0  0  0  0  2  0  0  0  0  0  0
  183.9480  173.7070  136.8570 C   0  0  0  0  0  0  0  0  0  0  0  0
  183.0380  172.9740  136.3530 O   0  0  0  0  0  0  0  0  0  0  0  0
  183.6550  174.7460  137.7910 N   0  0  0  0  0  2  0  0  0  0  0  0
  181.9850  176.4690  136.9430 C   0  0  0  0  0  0  0  0  0  0  0  0
  181.4430  174.9540  138.6560 C   0  0  0  0  0  2  0  0  0  0  0  0
  182.3670  175.3870  137.8610 C   0  0  1  0  0  3  0  0  0  0  0  0
  179.0440  175.9180  138.6160 S   0  0  0  0  0  0  0  0  0  0  0  0
  180.1280  177.4250  138.5310 C   0  0  2  0  0  3  0  0  0  0  0  0
  180.3310  174.8910  139.3040 C   0  0  0  0  0  2  0  0  0  0  0  0
  180.9490  177.4310  137.3030 N   0  0  0  0  0  2  0  0  0  0  0  0
  182.4990  176.4880  135.7920 O   0  0  0  0  0  0  0  0  0  0  0  0
  180.2230  179.7530  143.2760 C   0  0  1  0  0  3  0  0  0  0  0  0
  181.2090  178.6630  142.9120 C   0  0  0  0  0  2  0  0  0  0  0  0
  179.2160  177.1920  141.4710 O   0  0  0  0  0  0  0  0  0  0  0  0
  180.8060  177.9850  139.8100 C   0  0  1  0  0  3  0  0  0  0  0  0
  181.2570  180.0970  140.9910 N   0  0  0  0  0  2  0  0  0  0  0  0
  181.2290  179.4390  139.6790 C   0  0  1  0  0  3  0  0  0  0  0  0
  182.4550  179.6830  138.8260 C   0  0  0  0  0  1  0  0  0  0  0  0
  180.3670  179.2750  141.8120 C   0  0  2  0  0  0  0  0  0  0  0  0
  178.9520  179.2160  143.8920 C   0  0  0  0  0  1  0  0  0  0  0  0
  179.9910  178.0610  141.0600 C   0  0  0  0  0  0  0  0  0  0  0  0
  1  3  1  6  0  0  0
  1 14  1  0  0  0  0
  4  7  1  0  0  0  0
  4  2  2  1  0  0  0
  4  5  1  0  0  0  0
  5  1  1  0  0  0  0
  6  3  1  0  0  0  0
  7  6  1  0  0  0  0
 10 13  1  0  0  0  0
 11 15  1  1  0  0  0
 13  8  1  6  0  0  0
 13  9  1  0  0  0  0
 14 12  1  6  0  0  0
 14 10  1  0  0  0  0
 14 11  1  0  0  0  0
 15  9  1  0  0  0  0
 16 22  1  0  0  0  0
 17 22  1  0  0  0  0
 17 21  2  0  0  0  0
 19 18  1  6  0  0  0
 19 11  1  0  0  0  0
 19 20  1  0  0  0  0
 20 28  1  0  0  0  0
 20 16  1  1  0  0  0
 22 34  1  0  0  0  0
 23 27  2  0  0  0  0
 24 26  2  0  0  0  0
 25 23  1  0  0  0  0
 26 18  1  0  0  0  0
 26 25  1  0  0  0  0
 28 23  1  6  0  0  0
 28 17  1  0  0  0  0
 29 30  1  0  0  0  0
 29 24  2  0  0  0  0
 31 32  1  0  0  0  0
 31 30  1  0  0  0  0
 32 33  1  0  0  0  0
 34 35  1  0  0  0  0
 35 37  1  0  0  0  0
 36 35  2  0  0  0  0
 38  4  1  0  0  0  0
 39 38  1  0  0  0  0
 40 39  1  6  0  0  0
 40 44  1  0  0  0  0
 41 43  1  0  0  0  0
 42 43  2  0  0  0  0
 43 40  1  0  0  0  0
 44 45  1  0  0  0  0
 45 46  1  0  0  0  0
 46 48  1  0  0  0  0
 47 46  2  0  0  0  0
 49 55  1  0  0  0  0
 49 51  1  0  0  0  0
 50 54  1  0  0  0  0
 51 48  1  6  0  0  0
 51 50  1  0  0  0  0
 52 54  1  0  0  0  0
 53 55  1  6  0  0  0
 53 52  1  0  0  0  0
 53 60  1  0  0  0  0
 56 49  2  0  0  0  0
 57 65  1  1  0  0  0
 58 57  1  0  0  0  0
 60 66  1  1  0  0  0
 61 64  1  0  0  0  0
 62 63  1  1  0  0  0
 62 60  1  0  0  0  0
 62 61  1  0  0  0  0
 64 58  1  1  0  0  0
 64 57  1  0  0  0  0
 66 59  2  0  0  0  0
 66 64  1  0  0  0  0
M  END
>  <MODEL>
6

>  <REMARK>
 VINA RESULT:      -2.0      3.566      9.390
  Name = 
  16 active torsions:
  status: ('A' for Active; 'I' for Inactive)
    1  A    between atoms: C_4  and  C_22
    2  A    between atoms: C_4  and  N_25
    3  A    between atoms: C_11  and  C_62
    4  A    between atoms: N_12  and  C_39
    5  A    between atoms: C_15  and  C_27
    6  A    between atoms: O_16  and  P_33
    7  A    between atoms: O_16  and  C_52
    8  A    between atoms: C_17  and  N_42
    9  A    between atoms: C_19  and  C_30
   10  A    between atoms: C_21  and  C_50
   11  A    between atoms: C_21  and  C_52
   12  A    between atoms: C_21  and  C_60
   13  A    between atoms: N_25  and  C_59
   14  A    between atoms: C_30  and  C_50
   15  A    between atoms: N_31  and  C_48
   16  A    between atoms: C_40  and  C_48
                            x       y       z     vdW  Elec       q    Type
                         _______ _______ _______ _____ _____    ______ ____

>  <TORSDO>
F 16

$$$$
=
 OpenBabel11062415063D

 66 72  0  0  1  0  0  0  0  0999 V2000
  184.1250  177.9190  138.2300 C   0  0  2  0  0  3  0  0  0  0  0  0
  181.1240  177.5790  139.4660 O   0  0  0  0  0  0  0  0  0  0  0  0
  184.8150  179.2730  138.5500 C   0  0  0  0  0  2  0  0  0  0  0  0
  182.4340  178.1320  140.0200 P   0  0  1  0  0  0  0  0  0  0  0  0
  183.7420  177.2320  139.4100 O   0  0  0  0  0  0  0  0  0  0  0  0
  184.0170  179.9610  139.6950 C   0  0  0  0  0  2  0  0  0  0  0  0
  182.6560  179.7370  139.5230 O   0  0  0  0  0  0  0  0  0  0  0  0
  187.0370  177.4930  134.5940 C   0  0  0  0  0  1  0  0  0  0  0  0
  185.8660  175.4110  135.3010 C   0  0  0  0  0  2  0  0  0  0  0  0
  185.0840  177.7180  136.0200 O   0  0  0  0  0  0  0  0  0  0  0  0
  184.0050  175.7310  136.9660 C   0  0  2  0  0  3  0  0  0  0  0  0
  186.2290  176.7030  137.8630 C   0  0  0  0  0  1  0  0  0  0  0  0
  185.6840  176.9160  134.9880 C   0  0  1  0  0  3  0  0  0  0  0  0
  184.8730  177.0110  137.2400 C   0  0  2  0  0  0  0  0  0  0  0  0
  184.5980  174.7950  135.9120 C   0  0  0  0  0  2  0  0  0  0  0  0
  181.7460  174.2770  138.4020 C   0  0  0  0  0  2  0  0  0  0  0  0
  179.8750  174.0170  137.0090 C   0  0  0  0  0  0  0  0  0  0  0  0
  182.4730  177.4800  136.7050 O   0  0  0  0  0  0  0  0  0  0  0  0
  182.5710  176.0870  136.7430 N   0  0  2  0  0  0  0  0  0  0  0  0
  181.5260  175.6170  137.6730 C   0  0  1  0  0  3  0  0  0  0  0  0
  178.9510  173.4300  136.4010 O   0  0  0  0  0  0  0  0  0  0  0  0
  180.8310  173.3320  137.8050 N   0  0  0  0  0  0  0  0  0  0  0  0
  180.1010  176.0880  135.5740 C   0  0  0  0  0  0  0  0  0  0  0  0
  180.9530  179.2890  136.6750 C   0  0  0  0  0  0  0  0  0  0  0  0
  180.4760  177.4210  135.3470 O   0  0  0  0  0  0  0  0  0  0  0  0
  181.3090  178.1060  136.2200 C   0  0  0  0  0  0  0  0  0  0  0  0
  179.6760  175.4160  134.5990 O   0  0  0  0  0  0  0  0  0  0  0  0
  180.1380  175.4960  136.9770 C   0  0  1  0  0  3  0  0  0  0  0  0
  180.5460  180.4460  137.1490 C   0  0  0  0  0  3  0  0  0  0  0  0
  179.6050  180.5110  138.2490 N   0  0  0  0  0  2  0  0  0  0  0  0
  179.7690  181.4270  139.3720 C   0  0  0  0  0  2  0  0  0  0  0  0
  178.9520  182.6770  139.0900 C   0  0  0  0  0  2  0  0  0  0  0  0
  179.5750  183.4220  138.0880 F   0  0  0  0  0  0  0  0  0  0  0  0
  180.9150  171.8950  137.9610 C   0  0  0  0  0  2  0  0  0  0  0  0
  181.8510  171.3200  136.9510 C   0  0  0  0  0  0  0  0  0  0  0  0
  183.0090  170.9510  137.2980 O   0  0  0  0  0  1  0  0  0  0  0  0
  181.4120  171.1180  135.6390 O   0  0  0  0  0  0  0  0  0  0  0  0
  182.3790  178.0980  141.7350 O   0  0  0  0  0  0  0  0  0  0  0  0
  181.0190  178.1030  142.1360 C   0  0  0  0  0  2  0  0  0  0  0  0
  180.9290  178.5160  143.6110 C   0  0  2  0  0  3  0  0  0  0  0  0
  179.3610  179.6900  144.9410 O   0  0  0  0  0  1  0  0  0  0  0  0
  179.7810  180.6240  142.8630 O   0  0  0  0  0  0  0  0  0  0  0  0
  179.9720  179.6280  143.8400 C   0  0  0  0  0  0  0  0  0  0  0  0
  182.2910  178.7860  144.2900 C   0  0  0  0  0  2  0  0  0  0  0  0
  183.4000  179.2790  143.3540 C   0  0  0  0  0  2  0  0  0  0  0  0
  184.6970  178.8310  143.9120 C   0  0  0  0  0  0  0  0  0  0  0  0
  185.3380  177.9030  143.3220 O   0  0  0  0  0  0  0  0  0  0  0  0
  185.1440  179.3960  145.1450 N   0  0  0  0  0  0  0  0  0  0  0  0
  186.4970  179.3010  147.2980 C   0  0  0  0  0  0  0  0  0  0  0  0
  186.2720  177.4320  145.8910 C   0  0  0  0  0  2  0  0  0  0  0  0
  186.0010  178.6860  146.0600 C   0  0  0  0  0  0  0  0  0  0  0  0
  187.5890  176.0710  147.6510 S   0  0  0  0  0  0  0  0  0  0  0  0
  188.5360  177.6650  147.5240 C   0  0  2  0  0  3  0  0  0  0  0  0
  186.8110  176.2740  146.0580 C   0  0  0  0  0  2  0  0  0  0  0  0
  187.7120  178.8170  147.9450 N   0  0  0  0  0  2  0  0  0  0  0  0
  185.7940  180.1910  147.8480 O   0  0  0  0  0  0  0  0  0  0  0  0
  190.0960  177.4710  142.4780 C   0  0  1  0  0  3  0  0  0  0  0  0
  190.4660  178.6340  143.3730 C   0  0  0  0  0  2  0  0  0  0  0  0
  187.9020  178.6040  144.6530 O   0  0  0  0  0  0  0  0  0  0  0  0
  189.5100  177.9150  146.3420 C   0  0  1  0  0  3  0  0  0  0  0  0
  190.9510  176.7250  144.7400 N   0  0  0  0  0  2  0  0  0  0  0  0
  190.5120  176.7890  146.1390 C   0  0  1  0  0  3  0  0  0  0  0  0
  191.6320  176.7280  147.1540 C   0  0  0  0  0  1  0  0  0  0  0  0
  189.8750  177.3910  144.0060 C   0  0  2  0  0  0  0  0  0  0  0  0
  188.7840  177.6770  141.7570 C   0  0  0  0  0  1  0  0  0  0  0  0
  188.9350  178.0050  144.9660 C   0  0  0  0  0  0  0  0  0  0  0  0
  1  3  1  1  0  0  0
  1  5  1  0  0  0  0
  3  6  1  0  0  0  0
  4  2  2  6  0  0  0
  4 38  1  0  0  0  0
  5  4  1  0  0  0  0
  7  6  1  0  0  0  0
  7  4  1  0  0  0  0
  9 15  1  0  0  0  0
 10 14  1  0  0  0  0
 11 15  1  6  0  0  0
 11 14  1  0  0  0  0
 13  8  1  1  0  0  0
 13  9  1  0  0  0  0
 13 10  1  0  0  0  0
 14 12  1  1  0  0  0
 14  1  1  0  0  0  0
 17 22  1  0  0  0  0
 19 18  1  1  0  0  0
 19 11  1  0  0  0  0
 19 20  1  0  0  0  0
 20 16  1  6  0  0  0
 21 17  2  0  0  0  0
 22 34  1  0  0  0  0
 22 16  1  0  0  0  0
 24 29  2  0  0  0  0
 25 23  1  0  0  0  0
 25 26  1  0  0  0  0
 26 24  2  0  0  0  0
 26 18  1  0  0  0  0
 27 23  2  0  0  0  0
 28 23  1  6  0  0  0
 28 17  1  0  0  0  0
 28 20  1  0  0  0  0
 29 30  1  0  0  0  0
 30 31  1  0  0  0  0
 32 31  1  0  0  0  0
 33 32  1  0  0  0  0
 35 36  1  0  0  0  0
 35 34  1  0  0  0  0
 37 35  2  0  0  0  0
 38 39  1  0  0  0  0
 40 39  1  6  0  0  0
 40 43  1  0  0  0  0
 40 44  1  0  0  0  0
 42 43  2  0  0  0  0
 43 41  1  0  0  0  0
 45 46  1  0  0  0  0
 45 44  1  0  0  0  0
 46 48  1  0  0  0  0
 47 46  2  0  0  0  0
 48 51  2  0  0  0  0
 49 56  2  0  0  0  0
 49 55  1  0  0  0  0
 50 54  1  0  0  0  0
 50 51  1  0  0  0  0
 51 49  1  0  0  0  0
 53 52  1  6  0  0  0
 53 55  1  0  0  0  0
 54 52  1  0  0  0  0
 57 65  1  6  0  0  0
 57 58  1  0  0  0  0
 57 64  1  0  0  0  0
 59 66  2  0  0  0  0
 60 66  1  6  0  0  0
 60 53  1  0  0  0  0
 61 62  1  0  0  0  0
 62 60  1  0  0  0  0
 62 63  1  1  0  0  0
 64 58  1  1  0  0  0
 64 61  1  0  0  0  0
 64 66  1  0  0  0  0
M  END
>  <MODEL>
7

>  <REMARK>
 VINA RESULT:      -1.7      2.763      6.682
  Name = 
  16 active torsions:
  status: ('A' for Active; 'I' for Inactive)
    1  A    between atoms: C_4  and  C_22
    2  A    between atoms: C_4  and  N_25
    3  A    between atoms: C_11  and  C_62
    4  A    between atoms: N_12  and  C_39
    5  A    between atoms: C_15  and  C_27
    6  A    between atoms: O_16  and  P_33
    7  A    between atoms: O_16  and  C_52
    8  A    between atoms: C_17  and  N_42
    9  A    between atoms: C_19  and  C_30
   10  A    between atoms: C_21  and  C_50
   11  A    between atoms: C_21  and  C_52
   12  A    between atoms: C_21  and  C_60
   13  A    between atoms: N_25  and  C_59
   14  A    between atoms: C_30  and  C_50
   15  A    between atoms: N_31  and  C_48
   16  A    between atoms: C_40  and  C_48
                            x       y       z     vdW  Elec       q    Type
                         _______ _______ _______ _____ _____    ______ ____

>  <TORSDO>
F 16

$$$$
=
 OpenBabel11062415063D

 66 72  0  0  1  0  0  0  0  0999 V2000
  187.9620  178.0040  139.1410 C   0  0  2  0  0  3  0  0  0  0  0  0
  188.5760  175.5870  137.0360 O   0  0  0  0  0  0  0  0  0  0  0  0
  188.6470  179.3560  138.8030 C   0  0  0  0  0  2  0  0  0  0  0  0
  188.2450  177.0680  136.8710 P   0  0  1  0  0  0  0  0  0  0  0  0
  187.1440  177.5490  138.0760 O   0  0  0  0  0  0  0  0  0  0  0  0
  189.1540  179.2850  137.3340 C   0  0  0  0  0  2  0  0  0  0  0  0
  189.6390  178.0110  137.0620 O   0  0  0  0  0  0  0  0  0  0  0  0
  185.6590  180.2230  142.5550 C   0  0  0  0  0  1  0  0  0  0  0  0
  186.3190  177.8700  143.0380 C   0  0  0  0  0  2  0  0  0  0  0  0
  187.3590  179.2100  141.1480 O   0  0  0  0  0  0  0  0  0  0  0  0
  187.9080  176.8330  141.3820 C   0  0  2  0  0  3  0  0  0  0  0  0
  185.7680  177.6880  140.2050 C   0  0  0  0  0  1  0  0  0  0  0  0
  186.8070  179.2270  142.4760 C   0  0  1  0  0  3  0  0  0  0  0  0
  187.2410  177.9460  140.4990 C   0  0  2  0  0  0  0  0  0  0  0  0
  187.3430  176.7490  142.8020 C   0  0  0  0  0  2  0  0  0  0  0  0
  189.6790  175.6400  143.5540 C   0  0  0  0  0  2  0  0  0  0  0  0
  191.5790  176.9650  143.9320 C   0  0  0  0  0  0  0  0  0  0  0  0
  189.7810  176.6360  139.9960 O   0  0  0  0  0  0  0  0  0  0  0  0
  189.3980  176.9050  141.3110 N   0  0  2  0  0  0  0  0  0  0  0  0
  190.2340  176.0500  142.1760 C   0  0  1  0  0  3  0  0  0  0  0  0
  192.4160  177.6400  144.5720 O   0  0  0  0  0  0  0  0  0  0  0  0
  190.4340  176.3820  144.5370 N   0  0  0  0  0  0  0  0  0  0  0  0
  191.9140  177.9260  141.6160 C   0  0  0  0  0  0  0  0  0  0  0  0
  191.6340  176.2010  138.5950 C   0  0  0  0  0  0  0  0  0  0  0  0
  191.8410  177.8780  140.2160 O   0  0  0  0  0  0  0  0  0  0  0  0
  191.0880  176.9180  139.5550 C   0  0  0  0  0  0  0  0  0  0  0  0
  192.2820  179.0030  142.1550 O   0  0  0  0  0  0  0  0  0  0  0  0
  191.6270  176.6890  142.4550 C   0  0  1  0  0  3  0  0  0  0  0  0
  192.2220  175.4690  137.6750 C   0  0  0  0  0  3  0  0  0  0  0  0
  193.0500  174.3380  138.0390 N   0  0  0  0  0  2  0  0  0  0  0  0
  194.4110  174.1650  137.5430 C   0  0  0  0  0  2  0  0  0  0  0  0
  194.3960  173.0760  136.4830 C   0  0  0  0  0  2  0  0  0  0  0  0
  195.6910  172.8800  136.0010 F   0  0  0  0  0  0  0  0  0  0  0  0
  190.0440  176.5450  145.9210 C   0  0  0  0  0  2  0  0  0  0  0  0
  188.7840  177.3390  146.0130 C   0  0  0  0  0  0  0  0  0  0  0  0
  188.6560  178.4040  145.3460 O   0  0  0  0  0  0  0  0  0  0  0  0
  187.7170  176.8560  146.7770 O   0  0  0  0  0  1  0  0  0  0  0  0
  187.6220  177.3330  135.2940 O   0  0  0  0  0  0  0  0  0  0  0  0
  186.2190  177.5110  135.3940 C   0  0  0  0  0  2  0  0  0  0  0  0
  185.5940  176.2630  136.0280 C   0  0  2  0  0  3  0  0  0  0  0  0
  184.2070  174.9830  134.5980 O   0  0  0  0  0  1  0  0  0  0  0  0
  186.4450  174.3810  134.5940 O   0  0  0  0  0  0  0  0  0  0  0  0
  185.3700  175.1700  135.0480 C   0  0  0  0  0  0  0  0  0  0  0  0
  184.3310  176.5340  136.8780 C   0  0  0  0  0  2  0  0  0  0  0  0
  183.9430  175.4100  137.8460 C   0  0  0  0  0  2  0  0  0  0  0  0
  182.6010  175.7230  138.3890 C   0  0  0  0  0  0  0  0  0  0  0  0
  181.5930  175.6770  137.6130 O   0  0  0  0  0  0  0  0  0  0  0  0
  182.4940  176.1520  139.7460 N   0  0  0  0  0  2  0  0  0  0  0  0
  180.0530  176.5420  140.3490 C   0  0  0  0  0  0  0  0  0  0  0  0
  181.6830  178.2110  140.6340 C   0  0  0  0  0  2  0  0  0  0  0  0
  181.4360  177.0150  140.2080 C   0  0  1  0  0  3  0  0  0  0  0  0
  179.8480  179.6830  141.7070 S   0  0  0  0  0  0  0  0  0  0  0  0
  179.0120  178.9480  140.2190 C   0  0  2  0  0  3  0  0  0  0  0  0
  181.4890  179.4120  141.0610 C   0  0  0  0  0  2  0  0  0  0  0  0
  178.9310  177.4760  140.3180 N   0  0  0  0  0  2  0  0  0  0  0  0
  179.8590  175.3220  140.6020 O   0  0  0  0  0  0  0  0  0  0  0  0
  181.1750  179.0330  135.3970 C   0  0  1  0  0  3  0  0  0  0  0  0
  179.7710  179.5440  135.6410 C   0  0  0  0  0  2  0  0  0  0  0  0
  179.2220  177.4560  137.5250 O   0  0  0  0  0  0  0  0  0  0  0  0
  179.2670  179.5250  138.8010 C   0  0  1  0  0  3  0  0  0  0  0  0
  181.0270  180.5490  137.4190 N   0  0  0  0  0  2  0  0  0  0  0  0
  180.4170  180.5180  138.7530 C   0  0  1  0  0  3  0  0  0  0  0  0
  180.1230  181.8800  139.3430 C   0  0  0  0  0  1  0  0  0  0  0  0
  180.6570  179.2590  136.8360 C   0  0  2  0  0  0  0  0  0  0  0  0
  181.2170  177.5590  135.0680 C   0  0  0  0  0  1  0  0  0  0  0  0
  179.6900  178.5810  137.7240 C   0  0  0  0  0  0  0  0  0  0  0  0
  1  3  1  6  0  0  0
  1 14  1  0  0  0  0
  4  2  2  1  0  0  0
  4  7  1  0  0  0  0
  4  5  1  0  0  0  0
  5  1  1  0  0  0  0
  6  3  1  0  0  0  0
  7  6  1  0  0  0  0
 10 13  1  0  0  0  0
 11 15  1  1  0  0  0
 13  8  1  6  0  0  0
 13  9  1  0  0  0  0
 14 12  1  6  0  0  0
 14 10  1  0  0  0  0
 14 11  1  0  0  0  0
 15  9  1  0  0  0  0
 16 22  1  0  0  0  0
 17 22  1  0  0  0  0
 17 21  2  0  0  0  0
 19 18  1  6  0  0  0
 19 11  1  0  0  0  0
 19 20  1  0  0  0  0
 20 28  1  0  0  0  0
 20 16  1  1  0  0  0
 22 34  1  0  0  0  0
 23 27  2  0  0  0  0
 24 26  2  0  0  0  0
 25 23  1  0  0  0  0
 26 18  1  0  0  0  0
 26 25  1  0  0  0  0
 28 23  1  6  0  0  0
 28 17  1  0  0  0  0
 29 30  1  0  0  0  0
 29 24  2  0  0  0  0
 31 30  1  0  0  0  0
 32 31  1  0  0  0  0
 33 32  1  0  0  0  0
 34 35  1  0  0  0  0
 35 37  1  0  0  0  0
 36 35  2  0  0  0  0
 38 39  1  0  0  0  0
 38  4  1  0  0  0  0
 40 39  1  6  0  0  0
 40 44  1  0  0  0  0
 41 43  1  0  0  0  0
 42 43  2  0  0  0  0
 43 40  1  0  0  0  0
 44 45  1  0  0  0  0
 45 46  1  0  0  0  0
 46 48  1  0  0  0  0
 47 46  2  0  0  0  0
 49 56  2  0  0  0  0
 50 54  1  0  0  0  0
 51 48  1  1  0  0  0
 51 49  1  0  0  0  0
 51 50  1  0  0  0  0
 53 55  1  6  0  0  0
 53 52  1  0  0  0  0
 54 52  1  0  0  0  0
 55 49  1  0  0  0  0
 57 65  1  1  0  0  0
 57 58  1  0  0  0  0
 57 64  1  0  0  0  0
 59 66  2  0  0  0  0
 60 66  1  6  0  0  0
 60 53  1  0  0  0  0
 61 62  1  0  0  0  0
 62 60  1  0  0  0  0
 62 63  1  6  0  0  0
 64 58  1  6  0  0  0
 64 61  1  0  0  0  0
 64 66  1  0  0  0  0
M  END
>  <MODEL>
8

>  <REMARK>
 VINA RESULT:      -1.6      3.466     10.121
  Name = 
  16 active torsions:
  status: ('A' for Active; 'I' for Inactive)
    1  A    between atoms: C_4  and  C_22
    2  A    between atoms: C_4  and  N_25
    3  A    between atoms: C_11  and  C_62
    4  A    between atoms: N_12  and  C_39
    5  A    between atoms: C_15  and  C_27
    6  A    between atoms: O_16  and  P_33
    7  A    between atoms: O_16  and  C_52
    8  A    between atoms: C_17  and  N_42
    9  A    between atoms: C_19  and  C_30
   10  A    between atoms: C_21  and  C_50
   11  A    between atoms: C_21  and  C_52
   12  A    between atoms: C_21  and  C_60
   13  A    between atoms: N_25  and  C_59
   14  A    between atoms: C_30  and  C_50
   15  A    between atoms: N_31  and  C_48
   16  A    between atoms: C_40  and  C_48
                            x       y       z     vdW  Elec       q    Type
                         _______ _______ _______ _____ _____    ______ ____

>  <TORSDO>
F 16

$$$$
=
 OpenBabel11062415063D

 66 73  0  0  1  0  0  0  0  0999 V2000
  182.7680  177.4930  136.5100 C   0  0  2  0  0  3  0  0  0  0  0  0
  185.6990  177.4880  135.0740 O   0  0  0  0  0  0  0  0  0  0  0  0
  182.5870  176.4360  137.6330 C   0  0  1  0  0  3  0  0  0  0  0  0
  185.2370  177.3750  136.5240 P   0  0  1  0  0  0  0  0  0  0  0  0
  183.8650  178.3530  136.7680 O   0  0  0  0  0  0  0  0  0  0  0  0
  183.9950  175.8980  138.0180 C   0  0  0  0  0  2  0  0  0  0  0  0
  184.7850  175.7820  136.8800 O   0  0  0  0  0  0  0  0  0  0  0  0
  180.7310  181.5560  135.4010 C   0  0  0  0  0  1  0  0  0  0  0  0
  179.1910  179.6390  135.7960 C   0  0  0  0  0  2  0  0  0  0  0  0
  181.6120  179.6160  136.5660 O   0  0  0  0  0  0  0  0  0  0  0  0
  180.2560  177.5860  136.7930 C   0  0  2  0  0  3  0  0  0  0  0  0
  181.4360  178.2680  134.5940 C   0  0  0  0  0  1  0  0  0  0  0  0
  180.4260  180.3980  136.3400 C   0  0  1  0  0  3  0  0  0  0  0  0
  181.4980  178.2670  136.1160 C   0  0  2  0  0  0  0  0  0  0  0  0
  178.9400  178.3300  136.5600 C   0  0  0  0  0  2  0  0  0  0  0  0
  180.6970  174.7160  137.7130 C   0  0  0  0  0  2  0  0  0  0  0  0
  179.7690  174.3460  139.8370 C   0  0  0  0  0  0  0  0  0  0  0  0
  181.4340  178.1950  138.7200 O   0  0  0  0  0  0  0  0  0  0  0  0
  180.5340  177.2510  138.2220 N   0  0  2  0  0  0  0  0  0  0  0  0
  181.0680  175.9260  138.5930 C   0  0  2  0  0  0  0  0  0  0  0  0
  179.0700  173.8020  140.7210 O   0  0  0  0  0  0  0  0  0  0  0  0
  179.7700  173.9200  138.4820 N   0  0  0  0  0  0  0  0  0  0  0  0
  180.0320  176.6540  140.8410 C   0  0  0  0  0  0  0  0  0  0  0  0
  182.8210  178.7330  140.5570 C   0  0  0  0  0  0  0  0  0  0  0  0
  180.6820  177.8870  140.9950 O   0  0  0  0  0  0  0  0  0  0  0  0
  181.6560  178.3170  140.1060 C   0  0  0  0  0  0  0  0  0  0  0  0
  178.9310  176.4850  141.4270 O   0  0  0  0  0  0  0  0  0  0  0  0
  180.6770  175.5260  140.0460 C   0  0  1  0  0  3  0  0  0  0  0  0
  183.9900  179.0950  141.0360 C   0  0  0  0  0  3  0  0  0  0  0  0
  184.9850  178.1070  141.3990 N   0  0  0  0  0  2  0  0  0  0  0  0
  186.3800  178.2030  140.9810 C   0  0  0  0  0  2  0  0  0  0  0  0
  187.0660  179.2430  141.8510 C   0  0  0  0  0  2  0  0  0  0  0  0
  188.4450  179.1870  141.6410 F   0  0  0  0  0  0  0  0  0  0  0  0
  178.9310  172.8750  137.9340 C   0  0  0  0  0  2  0  0  0  0  0  0
  179.7590  171.8910  137.1770 C   0  0  0  0  0  0  0  0  0  0  0  0
  179.2560  171.2500  136.2110 O   0  0  0  0  0  0  0  0  0  0  0  0
  181.1140  171.7430  137.4900 O   0  0  0  0  0  1  0  0  0  0  0  0
  186.5290  177.8170  137.5620 O   0  0  0  0  0  0  0  0  0  0  0  0
  187.4200  178.6470  136.8350 C   0  0  0  0  0  2  0  0  0  0  0  0
  188.8640  178.2620  137.1770 C   0  0  2  0  0  3  0  0  0  0  0  0
  189.1320  175.9130  137.0510 O   0  0  0  0  0  1  0  0  0  0  0  0
  189.8830  177.0880  135.2010 O   0  0  0  0  0  0  0  0  0  0  0  0
  189.3100  177.0250  136.4860 C   0  0  0  0  0  0  0  0  0  0  0  0
  189.1780  178.2130  138.6900 C   0  0  0  0  0  2  0  0  0  0  0  0
  190.6200  177.8330  139.0460 C   0  0  0  0  0  2  0  0  0  0  0  0
  190.5960  177.1360  140.3530 C   0  0  0  0  0  0  0  0  0  0  0  0
  189.6320  176.3490  140.6170 O   0  0  0  0  0  0  0  0  0  0  0  0
  191.6120  177.4380  141.3090 N   0  0  0  0  0  2  0  0  0  0  0  0
  191.2490  176.0240  143.3930 C   0  0  0  0  0  0  0  0  0  0  0  0
  191.4560  178.3620  143.5020 C   0  0  0  0  0  2  0  0  0  0  0  0
  191.4000  177.3260  142.7300 C   0  0  1  0  0  3  0  0  0  0  0  0
  191.3380  178.1560  146.0760 S   0  0  0  0  0  0  0  0  0  0  0  0
  190.0000  177.0130  145.4790 C   0  0  2  0  0  3  0  0  0  0  0  0
  191.3720  179.0940  144.5590 C   0  0  0  0  0  2  0  0  0  0  0  0
  190.5560  175.9070  144.6720 N   0  0  0  0  0  2  0  0  0  0  0  0
  191.8220  175.0220  142.8850 O   0  0  0  0  0  0  0  0  0  0  0  0
  184.8760  178.1820  146.0300 C   0  0  1  0  0  3  0  0  0  0  0  0
  185.8020  179.0630  145.2190 C   0  0  0  0  0  2  0  0  0  0  0  0
  187.9550  178.6870  147.0740 O   0  0  0  0  0  0  0  0  0  0  0  0
  188.6280  177.5720  145.0190 C   0  0  1  0  0  3  0  0  0  0  0  0
  186.3420  176.8580  144.4480 N   0  0  0  0  0  2  0  0  0  0  0  0
  187.7690  176.5440  144.3000 C   0  0  1  0  0  3  0  0  0  0  0  0
  188.1980  176.2160  142.8870 C   0  0  0  0  0  1  0  0  0  0  0  0
  186.2920  177.6950  145.6480 C   0  0  2  0  0  0  0  0  0  0  0  0
  184.8180  178.5710  147.4880 C   0  0  0  0  0  1  0  0  0  0  0  0
  187.6680  178.0280  146.0700 C   0  0  0  0  0  0  0  0  0  0  0  0
  1  5  1  1  0  0  0
  1  3  1  0  0  0  0
  3  6  1  1  0  0  0
  3 20  1  0  0  0  0
  4  2  2  6  0  0  0
  4  5  1  0  0  0  0
  4  7  1  0  0  0  0
  4 38  1  0  0  0  0
  7  6  1  0  0  0  0
  9 13  1  0  0  0  0
  9 15  1  0  0  0  0
 11 15  1  1  0  0  0
 11 19  1  0  0  0  0
 13  8  1  6  0  0  0
 13 10  1  0  0  0  0
 14 12  1  6  0  0  0
 14  1  1  0  0  0  0
 14 10  1  0  0  0  0
 14 11  1  0  0  0  0
 16 22  1  0  0  0  0
 17 21  2  0  0  0  0
 18 26  1  0  0  0  0
 19 20  1  0  0  0  0
 19 18  1  6  0  0  0
 20 16  1  6  0  0  0
 20 28  1  0  0  0  0
 22 17  1  0  0  0  0
 23 25  1  0  0  0  0
 23 27  2  0  0  0  0
 24 29  2  0  0  0  0
 26 24  2  0  0  0  0
 26 25  1  0  0  0  0
 28 17  1  6  0  0  0
 28 23  1  0  0  0  0
 29 30  1  0  0  0  0
 31 30  1  0  0  0  0
 31 32  1  0  0  0  0
 33 32  1  0  0  0  0
 34 22  1  0  0  0  0
 35 37  1  0  0  0  0
 35 34  1  0  0  0  0
 36 35  2  0  0  0  0
 39 38  1  0  0  0  0
 40 39  1  1  0  0  0
 40 44  1  0  0  0  0
 42 43  2  0  0  0  0
 43 41  1  0  0  0  0
 43 40  1  0  0  0  0
 44 45  1  0  0  0  0
 45 46  1  0  0  0  0
 46 47  2  0  0  0  0
 46 48  1  0  0  0  0
 49 55  1  0  0  0  0
 50 54  1  0  0  0  0
 51 48  1  1  0  0  0
 51 49  1  0  0  0  0
 51 50  1  0  0  0  0
 53 55  1  6  0  0  0
 53 52  1  0  0  0  0
 54 52  1  0  0  0  0
 56 49  2  0  0  0  0
 57 65  1  1  0  0  0
 58 57  1  0  0  0  0
 60 53  1  0  0  0  0
 60 66  1  1  0  0  0
 61 64  1  0  0  0  0
 62 63  1  6  0  0  0
 62 61  1  0  0  0  0
 62 60  1  0  0  0  0
 64 58  1  6  0  0  0
 64 57  1  0  0  0  0
 64 66  1  0  0  0  0
 66 59  2  0  0  0  0
M  END
>  <MODEL>
9

>  <REMARK>
 VINA RESULT:      -1.5      2.659      5.012
  Name = 
  16 active torsions:
  status: ('A' for Active; 'I' for Inactive)
    1  A    between atoms: C_4  and  C_22
    2  A    between atoms: C_4  and  N_25
    3  A    between atoms: C_11  and  C_62
    4  A    between atoms: N_12  and  C_39
    5  A    between atoms: C_15  and  C_27
    6  A    between atoms: O_16  and  P_33
    7  A    between atoms: O_16  and  C_52
    8  A    between atoms: C_17  and  N_42
    9  A    between atoms: C_19  and  C_30
   10  A    between atoms: C_21  and  C_50
   11  A    between atoms: C_21  and  C_52
   12  A    between atoms: C_21  and  C_60
   13  A    between atoms: N_25  and  C_59
   14  A    between atoms: C_30  and  C_50
   15  A    between atoms: N_31  and  C_48
   16  A    between atoms: C_40  and  C_48
                            x       y       z     vdW  Elec       q    Type
                         _______ _______ _______ _____ _____    ______ ____

>  <TORSDO>
F 16

$$$$
