=
 OpenBabel11062415043D

 31 36  0  0  1  0  0  0  0  0999 V2000
  185.8800  177.7560  136.0010 C   0  0  0  0  0  2  0  0  0  0  0  0
  181.8280  177.7450  139.1980 C   0  0  0  0  0  2  0  0  0  0  0  0
  183.8170  179.3410  139.2780 C   0  0  0  0  0  0  0  0  0  0  0  0
  182.0440  175.4510  139.8210 O   0  0  0  0  0  0  0  0  0  0  0  0
  185.7570  174.2470  137.7210 O   0  0  0  0  0  1  0  0  0  0  0  0
  185.8050  178.5240  140.6180 C   0  0  0  0  0  0  0  0  0  0  0  0
  183.7820  177.0020  137.1080 C   0  0  0  0  0  0  0  0  0  0  0  0
  188.4850  178.1780  141.2280 N   0  0  0  0  0  0  0  0  0  0  0  0
  184.0200  174.6450  135.4900 O   0  0  0  0  0  1  0  0  0  0  0  0
  187.6010  175.3420  136.6340 C   0  0  1  0  0  3  0  0  0  0  0  0
  186.2510  174.6440  136.4780 C   0  0  2  0  0  0  0  0  0  0  0  0
  187.5770  178.2670  142.2360 C   0  0  0  0  0  3  0  0  0  0  0  0
  188.8480  176.8200  138.0910 C   0  0  0  0  0  3  0  0  0  0  0  0
  186.7590  178.4230  139.5850 C   0  0  0  0  0  0  0  0  0  0  0  0
  184.8590  176.7390  136.1830 N   0  0  0  0  0  0  0  0  0  0  0  0
  182.6560  178.8190  138.4780 C   0  0  1  0  0  3  0  0  0  0  0  0
  189.1430  178.0660  138.8610 C   0  0  0  0  0  2  0  0  0  0  0  0
  182.4160  176.3700  139.0480 C   0  0  0  0  0  0  0  0  0  0  0  0
  185.1800  175.4090  135.6610 C   0  0  2  0  0  3  0  0  0  0  0  0
  188.3360  175.1890  135.3270 C   0  0  0  0  0  2  0  0  0  0  0  0
  183.4120  176.0810  138.0060 C   0  0  0  0  0  3  0  0  0  0  0  0
  187.7460  176.6610  137.3500 C   0  0  0  0  0  0  0  0  0  0  0  0
  186.2220  178.4260  141.9470 C   0  0  0  0  0  3  0  0  0  0  0  0
  184.3980  178.5740  140.3390 N   0  0  0  0  0  2  0  0  0  0  0  0
  183.1030  178.3520  137.0860 C   0  0  0  0  0  2  0  0  0  0  0  0
  186.6550  173.4270  135.6640 C   0  0  0  0  0  2  0  0  0  0  0  0
  188.1130  178.2430  139.9220 C   0  0  0  0  0  0  0  0  0  0  0  0
  186.3140  178.4460  138.2210 N   0  0  0  0  0  0  0  0  0  0  0  0
  184.3150  180.4560  138.9680 O   0  0  0  0  0  0  0  0  0  0  0  0
  186.7370  177.7400  137.2120 C   0  0  0  0  0  0  0  0  0  0  0  0
  187.8100  173.8740  134.7650 C   0  0  0  0  0  2  0  0  0  0  0  0
  1 15  1  0  0  0  0
  1 30  1  0  0  0  0
  3 24  1  0  0  0  0
  6 23  1  0  0  0  0
  7 21  2  0  0  0  0
  8 12  1  0  0  0  0
 10 20  1  6  0  0  0
 10 22  1  0  0  0  0
 11 10  1  0  0  0  0
 11  5  1  1  0  0  0
 13 17  1  0  0  0  0
 14 27  1  0  0  0  0
 14  6  2  0  0  0  0
 15  7  1  0  0  0  0
 16 25  1  6  0  0  0
 16  2  1  0  0  0  0
 16  3  1  0  0  0  0
 17 27  1  0  0  0  0
 18  2  1  0  0  0  0
 18  4  2  0  0  0  0
 19  9  1  1  0  0  0
 19 15  1  0  0  0  0
 19 11  1  0  0  0  0
 21 18  1  0  0  0  0
 22 13  2  0  0  0  0
 23 12  2  0  0  0  0
 24  6  1  0  0  0  0
 25  7  1  0  0  0  0
 26 11  1  0  0  0  0
 27  8  2  0  0  0  0
 28 14  1  0  0  0  0
 29  3  2  0  0  0  0
 30 22  1  0  0  0  0
 30 28  2  0  0  0  0
 31 20  1  0  0  0  0
 31 26  1  0  0  0  0
M  END
>  <MODEL>
1

>  <REMARK>
 VINA RESULT:      -6.9      0.000      0.000
  Name = 
  0 active torsions:
  status: ('A' for Active; 'I' for Inactive)
                            x       y       z     vdW  Elec       q    Type
                         _______ _______ _______ _____ _____    ______ ____

>  <TORSDO>
F 0

$$$$
=
 OpenBabel11062415043D

 31 36  0  0  1  0  0  0  0  0999 V2000
  190.8310  176.7000  135.6550 C   0  0  0  0  0  2  0  0  0  0  0  0
  185.8000  176.4680  136.7840 C   0  0  0  0  0  2  0  0  0  0  0  0
  187.4600  178.2200  137.6130 C   0  0  0  0  0  0  0  0  0  0  0  0
  185.8560  174.2200  137.5860 O   0  0  0  0  0  0  0  0  0  0  0  0
  190.1760  173.2500  137.3760 O   0  0  0  0  0  1  0  0  0  0  0  0
  188.7110  177.6100  139.7290 C   0  0  0  0  0  0  0  0  0  0  0  0
  188.5080  175.8160  135.7950 C   0  0  0  0  0  0  0  0  0  0  0  0
  190.8730  177.5000  141.4560 N   0  0  0  0  0  0  0  0  0  0  0  0
  189.5620  173.4340  134.5940 O   0  0  0  0  0  1  0  0  0  0  0  0
  192.2420  174.4530  137.1230 C   0  0  1  0  0  3  0  0  0  0  0  0
  191.1380  173.6440  136.4450 C   0  0  2  0  0  0  0  0  0  0  0  0
  189.6150  177.5480  141.9660 C   0  0  0  0  0  3  0  0  0  0  0  0
  192.6430  176.0730  138.8770 C   0  0  0  0  0  3  0  0  0  0  0  0
  190.0230  177.5520  139.2170 C   0  0  0  0  0  0  0  0  0  0  0  0
  189.8930  175.6100  135.4440 N   0  0  0  0  0  0  0  0  0  0  0  0
  186.7950  177.5810  136.4260 C   0  0  1  0  0  3  0  0  0  0  0  0
  192.5010  177.3640  139.6170 C   0  0  0  0  0  2  0  0  0  0  0  0
  186.4730  175.1410  136.9910 C   0  0  0  0  0  0  0  0  0  0  0  0
  190.4860  174.2940  135.1980 C   0  0  2  0  0  3  0  0  0  0  0  0
  193.4800  174.3170  136.2740 C   0  0  0  0  0  2  0  0  0  0  0  0
  187.8390  174.8980  136.5020 C   0  0  0  0  0  3  0  0  0  0  0  0
  191.9840  175.8020  137.7450 C   0  0  0  0  0  0  0  0  0  0  0  0
  188.5130  177.5890  141.1110 C   0  0  0  0  0  3  0  0  0  0  0  0
  187.5650  177.5370  138.8680 N   0  0  0  0  0  2  0  0  0  0  0  0
  187.8290  177.1060  135.3950 C   0  0  0  0  0  2  0  0  0  0  0  0
  191.9250  172.4380  135.9650 C   0  0  0  0  0  2  0  0  0  0  0  0
  191.1030  177.4920  140.1160 C   0  0  0  0  0  0  0  0  0  0  0  0
  190.2160  177.4940  137.7960 N   0  0  0  0  0  0  0  0  0  0  0  0
  187.9780  179.3610  137.4770 O   0  0  0  0  0  0  0  0  0  0  0  0
  191.0750  176.7920  137.1160 C   0  0  0  0  0  0  0  0  0  0  0  0
  193.3290  172.9470  135.6260 C   0  0  0  0  0  2  0  0  0  0  0  0
  1 30  1  0  0  0  0
  2 18  1  0  0  0  0
  3 24  1  0  0  0  0
  6 23  1  0  0  0  0
  7 21  2  0  0  0  0
  8 12  1  0  0  0  0
 10 20  1  6  0  0  0
 10 22  1  0  0  0  0
 11 10  1  0  0  0  0
 11  5  1  1  0  0  0
 13 17  1  0  0  0  0
 14  6  2  0  0  0  0
 14 27  1  0  0  0  0
 15  1  1  0  0  0  0
 15  7  1  0  0  0  0
 16 25  1  6  0  0  0
 16  2  1  0  0  0  0
 16  3  1  0  0  0  0
 17 27  1  0  0  0  0
 18  4  2  0  0  0  0
 19  9  1  1  0  0  0
 19 15  1  0  0  0  0
 19 11  1  0  0  0  0
 21 18  1  0  0  0  0
 22 13  2  0  0  0  0
 23 12  2  0  0  0  0
 24  6  1  0  0  0  0
 25  7  1  0  0  0  0
 26 11  1  0  0  0  0
 27  8  2  0  0  0  0
 28 14  1  0  0  0  0
 29  3  2  0  0  0  0
 30 22  1  0  0  0  0
 30 28  2  0  0  0  0
 31 26  1  0  0  0  0
 31 20  1  0  0  0  0
M  END
>  <MODEL>
2

>  <REMARK>
 VINA RESULT:      -6.6      3.135      4.459
  Name = 
  0 active torsions:
  status: ('A' for Active; 'I' for Inactive)
                            x       y       z     vdW  Elec       q    Type
                         _______ _______ _______ _____ _____    ______ ____

>  <TORSDO>
F 0

$$$$
=
 OpenBabel11062415043D

 31 36  0  0  1  0  0  0  0  0999 V2000
  188.6290  175.5310  134.6870 C   0  0  0  0  0  2  0  0  0  0  0  0
  184.4260  177.2790  137.1170 C   0  0  0  0  0  2  0  0  0  0  0  0
  186.7480  178.3370  137.1560 C   0  0  0  0  0  0  0  0  0  0  0  0
  183.9660  175.2370  138.2630 O   0  0  0  0  0  0  0  0  0  0  0  0
  187.4170  172.7070  137.1040 O   0  0  0  0  0  1  0  0  0  0  0  0
  188.3080  177.4520  138.9440 C   0  0  0  0  0  0  0  0  0  0  0  0
  186.3090  175.5930  135.5850 C   0  0  0  0  0  0  0  0  0  0  0  0
  190.7290  176.6610  140.0350 N   0  0  0  0  0  0  0  0  0  0  0  0
  186.0730  172.9120  134.5940 O   0  0  0  0  0  1  0  0  0  0  0  0
  189.5820  173.0280  136.1100 C   0  0  1  0  0  3  0  0  0  0  0  0
  188.1170  172.6460  135.8990 C   0  0  2  0  0  0  0  0  0  0  0  0
  189.7830  177.2140  140.8400 C   0  0  0  0  0  3  0  0  0  0  0  0
  191.0250  174.4990  137.3790 C   0  0  0  0  0  3  0  0  0  0  0  0
  189.2980  176.8710  138.1250 C   0  0  0  0  0  0  0  0  0  0  0  0
  187.3630  174.8600  134.9260 N   0  0  0  0  0  0  0  0  0  0  0  0
  185.5740  177.9110  136.3180 C   0  0  1  0  0  3  0  0  0  0  0  0
  191.5620  175.7980  137.8880 C   0  0  0  0  0  2  0  0  0  0  0  0
  184.6410  175.8150  137.3740 C   0  0  0  0  0  0  0  0  0  0  0  0
  187.3710  173.4040  134.7720 C   0  0  2  0  0  3  0  0  0  0  0  0
  190.3740  172.3790  135.0040 C   0  0  0  0  0  2  0  0  0  0  0  0
  185.6230  175.0450  136.5950 C   0  0  0  0  0  3  0  0  0  0  0  0
  189.9990  174.4160  136.5270 C   0  0  0  0  0  0  0  0  0  0  0  0
  188.5530  177.6040  140.3110 C   0  0  0  0  0  3  0  0  0  0  0  0
  186.9990  177.7530  138.4400 N   0  0  0  0  0  2  0  0  0  0  0  0
  186.0160  177.0120  135.1550 C   0  0  0  0  0  2  0  0  0  0  0  0
  188.2630  171.2030  135.4530 C   0  0  0  0  0  2  0  0  0  0  0  0
  190.5170  176.4740  138.7060 C   0  0  0  0  0  0  0  0  0  0  0  0
  189.0110  176.6460  136.7370 N   0  0  0  0  0  0  0  0  0  0  0  0
  187.5510  179.1880  136.6890 O   0  0  0  0  0  0  0  0  0  0  0  0
  189.3290  175.6270  135.9920 C   0  0  0  0  0  0  0  0  0  0  0  0
  189.5780  171.1240  134.6730 C   0  0  0  0  0  2  0  0  0  0  0  0
  1 15  1  0  0  0  0
  1 30  1  0  0  0  0
  2 18  1  0  0  0  0
  3 24  1  0  0  0  0
  6 23  1  0  0  0  0
  7 21  2  0  0  0  0
  8 12  1  0  0  0  0
 10 20  1  6  0  0  0
 10 22  1  0  0  0  0
 11 10  1  0  0  0  0
 11  5  1  1  0  0  0
 13 17  1  0  0  0  0
 14 27  1  0  0  0  0
 14  6  2  0  0  0  0
 15  7  1  0  0  0  0
 16 25  1  6  0  0  0
 16  2  1  0  0  0  0
 16  3  1  0  0  0  0
 17 27  1  0  0  0  0
 18  4  2  0  0  0  0
 19  9  1  1  0  0  0
 19 15  1  0  0  0  0
 19 11  1  0  0  0  0
 21 18  1  0  0  0  0
 22 13  2  0  0  0  0
 23 12  2  0  0  0  0
 24  6  1  0  0  0  0
 25  7  1  0  0  0  0
 26 11  1  0  0  0  0
 27  8  2  0  0  0  0
 28 14  1  0  0  0  0
 29  3  2  0  0  0  0
 30 22  1  0  0  0  0
 30 28  2  0  0  0  0
 31 20  1  0  0  0  0
 31 26  1  0  0  0  0
M  END
>  <MODEL>
3

>  <REMARK>
 VINA RESULT:      -6.2      2.182      3.248
  Name = 
  0 active torsions:
  status: ('A' for Active; 'I' for Inactive)
                            x       y       z     vdW  Elec       q    Type
                         _______ _______ _______ _____ _____    ______ ____

>  <TORSDO>
F 0

$$$$
=
 OpenBabel11062415043D

 31 36  0  0  1  0  0  0  0  0999 V2000
  187.7280  179.6400  141.2620 C   0  0  0  0  0  2  0  0  0  0  0  0
  189.5100  177.0640  137.1600 C   0  0  0  0  0  2  0  0  0  0  0  0
  187.3430  178.4060  137.2830 C   0  0  0  0  0  0  0  0  0  0  0  0
  189.7520  174.9790  138.2960 O   0  0  0  0  0  0  0  0  0  0  0  0
  188.1000  175.8900  142.3070 O   0  0  0  0  0  1  0  0  0  0  0  0
  185.3260  177.1260  138.1270 C   0  0  0  0  0  0  0  0  0  0  0  0
  189.1490  178.1180  139.8980 C   0  0  0  0  0  0  0  0  0  0  0  0
  182.9470  176.7560  139.4970 N   0  0  0  0  0  0  0  0  0  0  0  0
  190.4710  177.4800  142.3620 O   0  0  0  0  0  1  0  0  0  0  0  0
  186.7700  177.6220  143.3130 C   0  0  1  0  0  3  0  0  0  0  0  0
  188.1690  177.0640  143.0580 C   0  0  2  0  0  0  0  0  0  0  0  0
  183.1770  176.0530  138.3570 C   0  0  0  0  0  3  0  0  0  0  0  0
  184.5850  177.8800  142.3020 C   0  0  0  0  0  3  0  0  0  0  0  0
  185.0740  177.8430  139.3150 C   0  0  0  0  0  0  0  0  0  0  0  0
  188.7950  178.6560  141.1900 N   0  0  0  0  0  0  0  0  0  0  0  0
  188.8420  178.4260  137.3970 C   0  0  1  0  0  3  0  0  0  0  0  0
  183.5830  178.3200  141.2850 C   0  0  0  0  0  2  0  0  0  0  0  0
  189.5320  176.2130  138.3980 C   0  0  0  0  0  0  0  0  0  0  0  0
  189.2000  178.0560  142.4630 C   0  0  2  0  0  3  0  0  0  0  0  0
  186.8450  178.4580  144.5640 C   0  0  0  0  0  2  0  0  0  0  0  0
  189.3080  176.8000  139.7270 C   0  0  0  0  0  3  0  0  0  0  0  0
  185.8940  178.1350  142.1990 C   0  0  0  0  0  0  0  0  0  0  0  0
  184.3750  176.2150  137.6620 C   0  0  0  0  0  3  0  0  0  0  0  0
  186.5960  177.1960  137.4630 N   0  0  0  0  0  2  0  0  0  0  0  0
  189.2920  179.0560  138.7220 C   0  0  0  0  0  2  0  0  0  0  0  0
  188.6110  176.7500  144.4760 C   0  0  0  0  0  2  0  0  0  0  0  0
  183.8600  177.6320  139.9930 C   0  0  0  0  0  0  0  0  0  0  0  0
  186.0880  178.7190  139.8290 N   0  0  0  0  0  0  0  0  0  0  0  0
  186.7350  179.4900  137.0750 O   0  0  0  0  0  0  0  0  0  0  0  0
  186.4480  178.9150  141.0640 C   0  0  0  0  0  0  0  0  0  0  0  0
  187.9580  177.8040  145.3740 C   0  0  0  0  0  2  0  0  0  0  0  0
  2 18  1  0  0  0  0
  3 16  1  0  0  0  0
  3 24  1  0  0  0  0
  4 18  2  0  0  0  0
  6 14  1  0  0  0  0
  7 15  1  0  0  0  0
  8 27  1  0  0  0  0
 10 20  1  1  0  0  0
 11  5  1  6  0  0  0
 11 10  1  0  0  0  0
 11 26  1  0  0  0  0
 12  8  2  0  0  0  0
 14 28  1  0  0  0  0
 14 27  2  0  0  0  0
 15  1  1  0  0  0  0
 15 19  1  0  0  0  0
 16  2  1  1  0  0  0
 16 25  1  0  0  0  0
 17 13  1  0  0  0  0
 18 21  1  0  0  0  0
 19  9  1  6  0  0  0
 19 11  1  0  0  0  0
 20 31  1  0  0  0  0
 21  7  2  0  0  0  0
 22 13  2  0  0  0  0
 22 10  1  0  0  0  0
 23  6  2  0  0  0  0
 23 12  1  0  0  0  0
 24  6  1  0  0  0  0
 25  7  1  0  0  0  0
 26 31  1  0  0  0  0
 27 17  1  0  0  0  0
 28 30  2  0  0  0  0
 29  3  2  0  0  0  0
 30  1  1  0  0  0  0
 30 22  1  0  0  0  0
M  END
>  <MODEL>
4

>  <REMARK>
 VINA RESULT:      -5.9      2.648      6.542
  Name = 
  0 active torsions:
  status: ('A' for Active; 'I' for Inactive)
                            x       y       z     vdW  Elec       q    Type
                         _______ _______ _______ _____ _____    ______ ____

>  <TORSDO>
F 0

$$$$
=
 OpenBabel11062415043D

 31 36  0  0  1  0  0  0  0  0999 V2000
  183.5700  176.6150  135.4840 C   0  0  0  0  0  2  0  0  0  0  0  0
  179.9050  176.8990  139.1060 C   0  0  0  0  0  2  0  0  0  0  0  0
  181.6140  178.7050  138.5360 C   0  0  0  0  0  0  0  0  0  0  0  0
  180.5410  174.8880  140.2230 O   0  0  0  0  0  0  0  0  0  0  0  0
  184.1740  173.6760  137.9900 O   0  0  0  0  0  1  0  0  0  0  0  0
  183.8290  178.5210  139.7520 C   0  0  0  0  0  0  0  0  0  0  0  0
  181.7370  175.9050  137.0100 C   0  0  0  0  0  0  0  0  0  0  0  0
  186.5760  178.6900  140.0600 N   0  0  0  0  0  0  0  0  0  0  0  0
  182.1850  173.2640  135.9840 O   0  0  0  0  0  1  0  0  0  0  0  0
  185.7060  174.6850  136.4370 C   0  0  1  0  0  3  0  0  0  0  0  0
  184.4740  173.8030  136.6340 C   0  0  2  0  0  0  0  0  0  0  0  0
  185.7700  178.9160  141.1310 C   0  0  0  0  0  3  0  0  0  0  0  0
  186.8400  176.6340  137.3180 C   0  0  0  0  0  3  0  0  0  0  0  0
  184.6810  178.2830  138.6530 C   0  0  0  0  0  0  0  0  0  0  0  0
  182.7460  175.5550  136.0380 N   0  0  0  0  0  0  0  0  0  0  0  0
  180.4780  177.8510  138.0470 C   0  0  1  0  0  3  0  0  0  0  0  0
  187.0080  178.0630  137.7210 C   0  0  0  0  0  2  0  0  0  0  0  0
  180.6850  175.6190  139.2100 C   0  0  0  0  0  0  0  0  0  0  0  0
  183.2200  174.1890  135.8100 C   0  0  2  0  0  3  0  0  0  0  0  0
  186.3230  174.3000  135.1170 C   0  0  0  0  0  2  0  0  0  0  0  0
  181.6080  175.2040  138.1430 C   0  0  0  0  0  3  0  0  0  0  0  0
  185.7100  176.1510  136.7920 C   0  0  0  0  0  0  0  0  0  0  0  0
  184.3850  178.8200  140.9970 C   0  0  0  0  0  3  0  0  0  0  0  0
  182.4110  178.3160  139.6610 N   0  0  0  0  0  2  0  0  0  0  0  0
  180.8540  177.1050  136.7590 C   0  0  0  0  0  2  0  0  0  0  0  0
  184.9840  172.4810  136.0870 C   0  0  0  0  0  2  0  0  0  0  0  0
  186.0720  178.3710  138.8390 C   0  0  0  0  0  0  0  0  0  0  0  0
  184.1060  177.8990  137.3960 N   0  0  0  0  0  0  0  0  0  0  0  0
  181.8970  179.7590  137.9050 O   0  0  0  0  0  0  0  0  0  0  0  0
  184.5340  177.0200  136.5370 C   0  0  0  0  0  0  0  0  0  0  0  0
  185.9600  172.8290  134.9600 C   0  0  0  0  0  2  0  0  0  0  0  0
  1 15  1  0  0  0  0
  1 30  1  0  0  0  0
  2 18  1  0  0  0  0
  3 24  1  0  0  0  0
  6 23  1  0  0  0  0
  7 21  2  0  0  0  0
  8 12  1  0  0  0  0
 10 20  1  6  0  0  0
 10 11  1  0  0  0  0
 10 22  1  0  0  0  0
 11  5  1  1  0  0  0
 13 17  1  0  0  0  0
 14 27  1  0  0  0  0
 14  6  2  0  0  0  0
 15  7  1  0  0  0  0
 16 25  1  6  0  0  0
 16  3  1  0  0  0  0
 16  2  1  0  0  0  0
 17 27  1  0  0  0  0
 18  4  2  0  0  0  0
 19  9  1  1  0  0  0
 19 15  1  0  0  0  0
 19 11  1  0  0  0  0
 21 18  1  0  0  0  0
 22 13  2  0  0  0  0
 23 12  2  0  0  0  0
 24  6  1  0  0  0  0
 25  7  1  0  0  0  0
 26 11  1  0  0  0  0
 27  8  2  0  0  0  0
 28 14  1  0  0  0  0
 29  3  2  0  0  0  0
 30 22  1  0  0  0  0
 30 28  2  0  0  0  0
 31 20  1  0  0  0  0
 31 26  1  0  0  0  0
M  END
>  <MODEL>
5

>  <REMARK>
 VINA RESULT:      -5.7      1.717      2.237
  Name = 
  0 active torsions:
  status: ('A' for Active; 'I' for Inactive)
                            x       y       z     vdW  Elec       q    Type
                         _______ _______ _______ _____ _____    ______ ____

>  <TORSDO>
F 0

$$$$
=
 OpenBabel11062415043D

 31 36  0  0  1  0  0  0  0  0999 V2000
  187.2800  178.9380  137.7040 C   0  0  0  0  0  2  0  0  0  0  0  0
  183.0340  178.1450  140.5280 C   0  0  0  0  0  2  0  0  0  0  0  0
  185.2310  179.1530  141.3460 C   0  0  0  0  0  0  0  0  0  0  0  0
  182.8470  175.8250  140.0000 O   0  0  0  0  0  0  0  0  0  0  0  0
  186.4870  175.1120  137.5730 O   0  0  0  0  0  1  0  0  0  0  0  0
  186.9580  177.4790  142.1410 C   0  0  0  0  0  0  0  0  0  0  0  0
  185.0110  178.1310  138.3310 C   0  0  0  0  0  0  0  0  0  0  0  0
  189.4970  176.4340  142.5110 N   0  0  0  0  0  0  0  0  0  0  0  0
  185.0130  176.7910  135.7950 O   0  0  0  0  0  1  0  0  0  0  0  0
  188.5570  176.2490  137.1250 C   0  0  1  0  0  3  0  0  0  0  0  0
  187.1320  175.9480  136.6610 C   0  0  2  0  0  0  0  0  0  0  0  0
  188.5370  176.2010  143.4440 C   0  0  0  0  0  3  0  0  0  0  0  0
  189.8950  176.6450  139.1030 C   0  0  0  0  0  3  0  0  0  0  0  0
  187.9650  177.7060  141.1790 C   0  0  0  0  0  0  0  0  0  0  0  0
  186.1050  178.1450  137.3890 N   0  0  0  0  0  0  0  0  0  0  0  0
  184.0710  179.2700  140.3970 C   0  0  1  0  0  3  0  0  0  0  0  0
  190.3150  177.3210  140.3680 C   0  0  0  0  0  2  0  0  0  0  0  0
  183.4150  176.9190  139.7490 C   0  0  0  0  0  0  0  0  0  0  0  0
  186.2590  177.1760  136.3020 C   0  0  2  0  0  3  0  0  0  0  0  0
  189.3600  176.5950  135.8980 C   0  0  0  0  0  2  0  0  0  0  0  0
  184.4350  176.9780  138.6910 C   0  0  0  0  0  3  0  0  0  0  0  0
  188.8440  177.0390  138.3770 C   0  0  0  0  0  0  0  0  0  0  0  0
  187.2490  176.7070  143.2670 C   0  0  0  0  0  3  0  0  0  0  0  0
  185.6030  177.8940  141.9210 N   0  0  0  0  0  2  0  0  0  0  0  0
  184.5500  179.4320  138.9470 C   0  0  0  0  0  2  0  0  0  0  0  0
  187.4090  175.1970  135.3710 C   0  0  0  0  0  2  0  0  0  0  0  0
  189.2440  177.1600  141.3900 C   0  0  0  0  0  0  0  0  0  0  0  0
  187.6380  178.4350  139.9870 N   0  0  0  0  0  0  0  0  0  0  0  0
  185.9170  180.1800  141.5960 O   0  0  0  0  0  0  0  0  0  0  0  0
  188.0260  178.2160  138.7640 C   0  0  0  0  0  0  0  0  0  0  0  0
  188.6860  175.8040  134.7850 C   0  0  0  0  0  2  0  0  0  0  0  0
  1 30  1  0  0  0  0
  3 29  2  0  0  0  0
  3 24  1  0  0  0  0
  6 23  1  0  0  0  0
  7 21  2  0  0  0  0
  7 25  1  0  0  0  0
  8 12  1  0  0  0  0
 10 20  1  6  0  0  0
 10 22  1  0  0  0  0
 11 10  1  0  0  0  0
 11  5  1  1  0  0  0
 13 17  1  0  0  0  0
 14 27  1  0  0  0  0
 14  6  2  0  0  0  0
 15  1  1  0  0  0  0
 15  7  1  0  0  0  0
 16 25  1  6  0  0  0
 16  2  1  0  0  0  0
 16  3  1  0  0  0  0
 17 27  1  0  0  0  0
 18  4  2  0  0  0  0
 18  2  1  0  0  0  0
 19  9  1  1  0  0  0
 19 11  1  0  0  0  0
 19 15  1  0  0  0  0
 21 18  1  0  0  0  0
 22 30  1  0  0  0  0
 22 13  2  0  0  0  0
 23 12  2  0  0  0  0
 24  6  1  0  0  0  0
 26 11  1  0  0  0  0
 27  8  2  0  0  0  0
 28 14  1  0  0  0  0
 30 28  2  0  0  0  0
 31 26  1  0  0  0  0
 31 20  1  0  0  0  0
M  END
>  <MODEL>
6

>  <REMARK>
 VINA RESULT:      -5.7      1.600      2.082
  Name = 
  0 active torsions:
  status: ('A' for Active; 'I' for Inactive)
                            x       y       z     vdW  Elec       q    Type
                         _______ _______ _______ _____ _____    ______ ____

>  <TORSDO>
F 0

$$$$
=
 OpenBabel11062415043D

 31 36  0  0  1  0  0  0  0  0999 V2000
  182.0680  177.9590  136.6320 C   0  0  0  0  0  2  0  0  0  0  0  0
  178.9310  176.9250  140.5970 C   0  0  0  0  0  2  0  0  0  0  0  0
  180.4640  178.9520  140.3670 C   0  0  0  0  0  0  0  0  0  0  0  0
  179.8030  174.7420  141.0070 O   0  0  0  0  0  0  0  0  0  0  0  0
  183.1410  174.4980  138.1010 O   0  0  0  0  0  1  0  0  0  0  0  0
  182.8310  178.6170  141.2040 C   0  0  0  0  0  0  0  0  0  0  0  0
  180.4970  176.7060  138.1000 C   0  0  0  0  0  0  0  0  0  0  0  0
  185.5850  178.9170  141.2160 N   0  0  0  0  0  0  0  0  0  0  0  0
  180.9140  174.5000  136.3150 O   0  0  0  0  0  1  0  0  0  0  0  0
  184.3980  176.0210  136.7290 C   0  0  1  0  0  3  0  0  0  0  0  0
  183.2450  175.0210  136.8120 C   0  0  2  0  0  0  0  0  0  0  0  0
  184.9250  178.7700  142.3950 C   0  0  0  0  0  3  0  0  0  0  0  0
  185.5560  177.7330  137.9880 C   0  0  0  0  0  3  0  0  0  0  0  0
  183.5320  178.7640  139.9890 C   0  0  0  0  0  0  0  0  0  0  0  0
  181.3760  176.7230  136.9550 N   0  0  0  0  0  0  0  0  0  0  0  0
  179.3090  178.1780  139.7940 C   0  0  1  0  0  3  0  0  0  0  0  0
  185.7150  179.0020  138.7610 C   0  0  0  0  0  2  0  0  0  0  0  0
  179.7730  175.7350  140.2360 C   0  0  0  0  0  0  0  0  0  0  0  0
  181.8740  175.5180  136.2900 C   0  0  2  0  0  3  0  0  0  0  0  0
  184.8430  176.0690  135.2900 C   0  0  0  0  0  2  0  0  0  0  0  0
  180.5560  175.7090  138.9920 C   0  0  0  0  0  3  0  0  0  0  0  0
  184.3860  177.3250  137.4850 C   0  0  0  0  0  0  0  0  0  0  0  0
  183.5400  178.6030  142.4070 C   0  0  0  0  0  3  0  0  0  0  0  0
  181.4250  178.3310  141.2290 N   0  0  0  0  0  2  0  0  0  0  0  0
  179.5360  177.8530  138.3110 C   0  0  0  0  0  2  0  0  0  0  0  0
  183.7320  173.9490  135.8520 C   0  0  0  0  0  2  0  0  0  0  0  0
  184.9310  178.9100  140.0240 C   0  0  0  0  0  0  0  0  0  0  0  0
  182.8070  178.7000  138.7530 N   0  0  0  0  0  0  0  0  0  0  0  0
  180.6100  180.1590  140.0350 O   0  0  0  0  0  0  0  0  0  0  0  0
  183.1500  178.1320  137.6340 C   0  0  0  0  0  0  0  0  0  0  0  0
  184.5260  174.6750  134.7630 C   0  0  0  0  0  2  0  0  0  0  0  0
  1 15  1  0  0  0  0
  1 30  1  0  0  0  0
  3 24  1  0  0  0  0
  6 24  1  0  0  0  0
  6 23  1  0  0  0  0
  7 25  1  0  0  0  0
  7 21  2  0  0  0  0
  8 12  1  0  0  0  0
 10 20  1  6  0  0  0
 10 11  1  0  0  0  0
 10 22  1  0  0  0  0
 11  5  1  1  0  0  0
 12 23  2  0  0  0  0
 13 17  1  0  0  0  0
 14 27  1  0  0  0  0
 14  6  2  0  0  0  0
 15  7  1  0  0  0  0
 16 25  1  6  0  0  0
 16  3  1  0  0  0  0
 16  2  1  0  0  0  0
 17 27  1  0  0  0  0
 18  2  1  0  0  0  0
 18  4  2  0  0  0  0
 19  9  1  1  0  0  0
 19 11  1  0  0  0  0
 19 15  1  0  0  0  0
 21 18  1  0  0  0  0
 22 30  1  0  0  0  0
 22 13  2  0  0  0  0
 26 11  1  0  0  0  0
 27  8  2  0  0  0  0
 28 14  1  0  0  0  0
 29  3  2  0  0  0  0
 30 28  2  0  0  0  0
 31 20  1  0  0  0  0
 31 26  1  0  0  0  0
M  END
>  <MODEL>
7

>  <REMARK>
 VINA RESULT:      -5.6      2.454      3.306
  Name = 
  0 active torsions:
  status: ('A' for Active; 'I' for Inactive)
                            x       y       z     vdW  Elec       q    Type
                         _______ _______ _______ _____ _____    ______ ____

>  <TORSDO>
F 0

$$$$
=
 OpenBabel11062415043D

 31 36  0  0  1  0  0  0  0  0999 V2000
  185.0460  175.6320  134.8050 C   0  0  0  0  0  2  0  0  0  0  0  0
  180.2510  175.3160  136.6870 C   0  0  0  0  0  2  0  0  0  0  0  0
  181.6420  177.4390  136.4360 C   0  0  0  0  0  0  0  0  0  0  0  0
  180.7690  173.6730  138.3390 O   0  0  0  0  0  0  0  0  0  0  0  0
  185.1570  173.2370  137.8930 O   0  0  0  0  0  1  0  0  0  0  0  0
  183.1600  177.9750  138.3920 C   0  0  0  0  0  0  0  0  0  0  0  0
  182.9350  174.6270  135.6590 C   0  0  0  0  0  0  0  0  0  0  0  0
  185.4490  178.8960  139.6500 N   0  0  0  0  0  0  0  0  0  0  0  0
  184.2820  172.1060  135.4220 O   0  0  0  0  0  1  0  0  0  0  0  0
  186.9510  174.4460  136.8440 C   0  0  1  0  0  3  0  0  0  0  0  0
  185.9510  173.2950  136.7470 C   0  0  2  0  0  0  0  0  0  0  0  0
  184.2500  179.0120  140.2790 C   0  0  0  0  0  3  0  0  0  0  0  0
  187.2120  176.7070  137.6700 C   0  0  0  0  0  3  0  0  0  0  0  0
  184.4130  177.8570  137.7570 C   0  0  0  0  0  0  0  0  0  0  0  0
  184.2990  174.4560  135.2180 N   0  0  0  0  0  0  0  0  0  0  0  0
  181.0000  176.2690  135.7450 C   0  0  1  0  0  3  0  0  0  0  0  0
  186.9100  178.1640  137.8120 C   0  0  0  0  0  2  0  0  0  0  0  0
  181.1610  174.3060  137.3260 C   0  0  0  0  0  0  0  0  0  0  0  0
  185.0900  173.2480  135.4600 C   0  0  2  0  0  3  0  0  0  0  0  0
  188.1150  174.1010  135.9510 C   0  0  0  0  0  2  0  0  0  0  0  0
  182.5010  174.0400  136.7800 C   0  0  0  0  0  3  0  0  0  0  0  0
  186.5150  175.8890  136.8740 C   0  0  0  0  0  0  0  0  0  0  0  0
  183.0890  178.5400  139.6670 C   0  0  0  0  0  3  0  0  0  0  0  0
  181.9740  177.3950  137.8290 N   0  0  0  0  0  2  0  0  0  0  0  0
  182.0090  175.5180  134.8640 C   0  0  0  0  0  2  0  0  0  0  0  0
  186.8930  172.1060  136.7040 C   0  0  0  0  0  2  0  0  0  0  0  0
  185.5600  178.3280  138.4200 C   0  0  0  0  0  0  0  0  0  0  0  0
  184.4890  177.2050  136.4800 N   0  0  0  0  0  0  0  0  0  0  0  0
  181.9390  178.4580  135.7550 O   0  0  0  0  0  0  0  0  0  0  0  0
  185.3960  176.3850  136.0350 C   0  0  0  0  0  0  0  0  0  0  0  0
  188.1510  172.5780  135.9700 C   0  0  0  0  0  2  0  0  0  0  0  0
  1 15  1  0  0  0  0
  1 30  1  0  0  0  0
  2 18  1  0  0  0  0
  3 24  1  0  0  0  0
  6 23  1  0  0  0  0
  7 21  2  0  0  0  0
  8 12  1  0  0  0  0
 10 20  1  6  0  0  0
 10 22  1  0  0  0  0
 11 10  1  0  0  0  0
 11  5  1  1  0  0  0
 13 17  1  0  0  0  0
 14  6  2  0  0  0  0
 14 27  1  0  0  0  0
 15 19  1  0  0  0  0
 15  7  1  0  0  0  0
 16 25  1  1  0  0  0
 16  3  1  0  0  0  0
 16  2  1  0  0  0  0
 17 27  1  0  0  0  0
 18  4  2  0  0  0  0
 19  9  1  1  0  0  0
 19 11  1  0  0  0  0
 20 31  1  0  0  0  0
 21 18  1  0  0  0  0
 22 13  2  0  0  0  0
 23 12  2  0  0  0  0
 24  6  1  0  0  0  0
 25  7  1  0  0  0  0
 26 11  1  0  0  0  0
 27  8  2  0  0  0  0
 28 14  1  0  0  0  0
 29  3  2  0  0  0  0
 30 28  2  0  0  0  0
 30 22  1  0  0  0  0
 31 26  1  0  0  0  0
M  END
>  <MODEL>
8

>  <REMARK>
 VINA RESULT:      -5.3      2.085      2.897
  Name = 
  0 active torsions:
  status: ('A' for Active; 'I' for Inactive)
                            x       y       z     vdW  Elec       q    Type
                         _______ _______ _______ _____ _____    ______ ____

>  <TORSDO>
F 0

$$$$
=
 OpenBabel11062415043D

 31 36  0  0  1  0  0  0  0  0999 V2000
  181.2960  177.6250  136.0260 C   0  0  0  0  0  2  0  0  0  0  0  0
  178.9330  178.3740  140.5520 C   0  0  0  0  0  2  0  0  0  0  0  0
  180.8060  179.7980  139.5670 C   0  0  0  0  0  0  0  0  0  0  0  0
  179.3430  176.1740  141.3830 O   0  0  0  0  0  0  0  0  0  0  0  0
  181.8290  174.4000  138.1710 O   0  0  0  0  0  1  0  0  0  0  0  0
  183.1550  179.0080  140.0930 C   0  0  0  0  0  0  0  0  0  0  0  0
  179.8310  177.2000  137.9920 C   0  0  0  0  0  0  0  0  0  0  0  0
  185.8400  178.5290  139.6070 N   0  0  0  0  0  0  0  0  0  0  0  0
  179.3320  174.6360  136.8070 O   0  0  0  0  0  1  0  0  0  0  0  0
  183.0780  175.1840  136.2730 C   0  0  1  0  0  3  0  0  0  0  0  0
  181.7710  174.5840  136.7890 C   0  0  2  0  0  0  0  0  0  0  0  0
  185.4330  178.8260  140.8690 C   0  0  0  0  0  3  0  0  0  0  0  0
  184.8440  176.7370  136.8470 C   0  0  0  0  0  3  0  0  0  0  0  0
  183.5930  178.6920  138.7900 C   0  0  0  0  0  0  0  0  0  0  0  0
  180.4220  176.7280  136.7630 N   0  0  0  0  0  0  0  0  0  0  0  0
  179.4090  179.2700  139.4000 C   0  0  1  0  0  3  0  0  0  0  0  0
  185.4550  178.0470  137.2260 C   0  0  0  0  0  2  0  0  0  0  0  0
  179.3790  176.9480  140.3930 C   0  0  0  0  0  0  0  0  0  0  0  0
  180.4730  175.3180  136.3700 C   0  0  2  0  0  3  0  0  0  0  0  0
  183.2030  174.7980  134.8210 C   0  0  0  0  0  2  0  0  0  0  0  0
  179.8480  176.4410  139.0950 C   0  0  0  0  0  3  0  0  0  0  0  0
  183.5320  176.5710  136.6530 C   0  0  0  0  0  0  0  0  0  0  0  0
  184.0830  179.0560  141.1350 C   0  0  0  0  0  3  0  0  0  0  0  0
  181.7600  179.1350  140.4060 N   0  0  0  0  0  2  0  0  0  0  0  0
  179.2300  178.5850  138.0380 C   0  0  0  0  0  2  0  0  0  0  0  0
  181.7790  173.2410  136.0830 C   0  0  0  0  0  2  0  0  0  0  0  0
  184.9610  178.4480  138.5720 C   0  0  0  0  0  0  0  0  0  0  0  0
  182.6240  178.5680  137.7400 N   0  0  0  0  0  0  0  0  0  0  0  0
  181.1530  180.8170  138.9120 O   0  0  0  0  0  0  0  0  0  0  0  0
  182.5770  177.7010  136.7700 C   0  0  0  0  0  0  0  0  0  0  0  0
  182.4660  173.4670  134.7340 C   0  0  0  0  0  2  0  0  0  0  0  0
  1 15  1  0  0  0  0
  1 30  1  0  0  0  0
  3 24  1  0  0  0  0
  6 24  1  0  0  0  0
  6 23  1  0  0  0  0
  7 25  1  0  0  0  0
  7 21  2  0  0  0  0
  8 12  1  0  0  0  0
 10 20  1  6  0  0  0
 10 22  1  0  0  0  0
 10 11  1  0  0  0  0
 11  5  1  1  0  0  0
 12 23  2  0  0  0  0
 13 17  1  0  0  0  0
 14  6  2  0  0  0  0
 15  7  1  0  0  0  0
 16 25  1  6  0  0  0
 16  3  1  0  0  0  0
 16  2  1  0  0  0  0
 17 27  1  0  0  0  0
 18  2  1  0  0  0  0
 18  4  2  0  0  0  0
 19 15  1  0  0  0  0
 19 11  1  0  0  0  0
 19  9  1  1  0  0  0
 21 18  1  0  0  0  0
 22 30  1  0  0  0  0
 22 13  2  0  0  0  0
 26 11  1  0  0  0  0
 27 14  1  0  0  0  0
 27  8  2  0  0  0  0
 28 14  1  0  0  0  0
 29  3  2  0  0  0  0
 30 28  2  0  0  0  0
 31 20  1  0  0  0  0
 31 26  1  0  0  0  0
M  END
>  <MODEL>
9

>  <REMARK>
 VINA RESULT:      -5.2      2.643      3.919
  Name = 
  0 active torsions:
  status: ('A' for Active; 'I' for Inactive)
                            x       y       z     vdW  Elec       q    Type
                         _______ _______ _______ _____ _____    ______ ____

>  <TORSDO>
F 0

$$$$
