=
 OpenBabel11062413513D

 52 55  0  0  1  0  0  0  0  0999 V2000
  185.2130  179.1500  144.3910 C   0  0  1  0  0  3  0  0  0  0  0  0
  186.5740  177.5100  143.2590 C   0  0  0  0  0  0  0  0  0  0  0  0
  187.3420  176.5470  143.3760 O   0  0  0  0  0  0  0  0  0  0  0  0
  185.7700  178.5360  143.1380 C   0  0  0  0  0  0  0  0  0  0  0  0
  182.7780  177.6920  140.0680 C   0  0  2  0  0  0  0  0  0  0  0  0
  185.5360  179.1770  141.8270 C   0  0  0  0  0  3  0  0  0  0  0  0
  183.6440  177.8500  141.1800 O   0  0  0  0  0  0  0  0  0  0  0  0
  184.4620  179.4230  139.6150 C   0  0  0  0  0  2  0  0  0  0  0  0
  184.6000  178.8170  140.9490 C   0  0  0  0  0  0  0  0  0  0  0  0
  183.3920  178.5560  138.9550 C   0  0  0  0  0  2  0  0  0  0  0  0
  180.7630  177.7440  141.3650 O   0  0  0  0  0  0  0  0  0  0  0  0
  181.4000  178.2090  140.3780 C   0  0  0  0  0  0  0  0  0  0  0  0
  179.5160  179.6840  139.8090 C   0  0  0  0  0  1  0  0  0  0  0  0
  180.8220  179.1830  139.5640 O   0  0  0  0  0  0  0  0  0  0  0  0
  182.7450  176.2270  139.6260 C   0  0  0  0  0  2  0  0  0  0  0  0
  181.6620  174.9160  137.8500 C   0  0  0  0  0  3  0  0  0  0  0  0
  182.3180  174.0040  137.1780 C   0  0  0  0  0  3  0  0  0  0  0  0
  182.5630  176.0570  138.1170 C   0  0  2  0  0  3  0  0  0  0  0  0
  183.7000  174.4790  136.9520 C   0  0  1  0  0  3  0  0  0  0  0  0
  183.8030  175.7780  137.5000 O   0  0  0  0  0  0  0  0  0  0  0  0
  184.6370  173.5910  137.6280 N   0  0  0  0  0  2  0  0  0  0  0  0
  187.0420  173.8780  136.9530 C   0  0  0  0  0  2  0  0  0  0  0  0
  185.7190  173.2710  136.7080 C   0  0  1  0  0  0  0  0  0  0  0  0
  186.7360  172.5640  137.3700 O   0  0  0  0  0  0  0  0  0  0  0  0
  185.3820  172.6200  135.3750 C   0  0  0  0  0  2  0  0  0  0  0  0
  185.3660  171.2320  135.5040 O   0  0  0  0  0  0  0  0  0  0  0  0
  184.1070  170.9360  135.7540 O   0  0  0  0  0  1  0  0  0  0  0  0
  183.7950  179.6860  144.2020 C   0  0  0  0  0  2  0  0  0  0  0  0
  182.8580  178.6500  144.2030 O   0  0  0  0  0  1  0  0  0  0  0  0
  185.3000  178.1850  145.5700 C   0  0  0  0  0  2  0  0  0  0  0  0
  186.2800  178.6850  146.6250 C   0  0  0  0  0  2  0  0  0  0  0  0
  187.6850  178.1280  146.4290 C   0  0  0  0  0  2  0  0  0  0  0  0
  188.3320  177.7690  147.7610 C   0  0  1  0  0  3  0  0  0  0  0  0
  187.3710  177.6140  148.7440 F   0  0  0  0  0  0  0  0  0  0  0  0
  189.1090  176.5820  147.6450 O   0  0  0  0  0  0  0  0  0  0  0  0
  190.4420  176.6090  147.2370 C   0  0  0  0  0  0  0  0  0  0  0  0
  192.3010  175.6780  148.1670 O   0  0  0  0  0  1  0  0  0  0  0  0
  191.8010  176.7950  147.5050 C   0  0  1  0  0  3  0  0  0  0  0  0
  191.4370  176.4380  146.2040 C   0  0  0  0  0  0  0  0  0  0  0  0
  191.7960  176.0950  144.7980 C   0  0  0  0  0  2  0  0  0  0  0  0
  191.0160  176.9410  143.7910 C   0  0  1  0  0  3  0  0  0  0  0  0
  191.4580  178.3910  143.8500 C   0  0  0  0  0  1  0  0  0  0  0  0
  191.1750  176.4390  142.4660 O   0  0  0  0  0  0  0  0  0  0  0  0
  190.9100  177.2060  141.3270 C   0  0  0  0  0  0  0  0  0  0  0  0
  191.8670  177.7350  140.7040 O   0  0  0  0  0  0  0  0  0  0  0  0
  189.5110  177.4250  140.8420 C   0  0  0  0  0  2  0  0  0  0  0  0
  189.8700  176.3630  138.6260 C   0  0  0  0  0  1  0  0  0  0  0  0
  189.4990  177.6480  139.3390 C   0  0  1  0  0  3  0  0  0  0  0  0
  188.1140  178.0800  138.8940 C   0  0  0  0  0  2  0  0  0  0  0  0
  188.9750  179.6060  137.2790 O   0  0  0  0  0  1  0  0  0  0  0  0
  188.1710  178.6700  137.5250 C   0  0  0  0  0  0  0  0  0  0  0  0
  187.3140  178.2090  136.5310 O   0  0  0  0  0  0  0  0  0  0  0  0
  1 28  1  6  0  0  0
  1 30  1  0  0  0  0
  2  3  2  0  0  0  0
  4  2  2  0  0  0  0
  4  1  1  0  0  0  0
  5 15  1  6  0  0  0
  5 12  1  0  0  0  0
  5  7  1  0  0  0  0
  6  4  1  0  0  0  0
  8  9  1  0  0  0  0
  9  7  1  0  0  0  0
  9  6  2  0  0  0  0
 10  8  1  0  0  0  0
 10  5  1  0  0  0  0
 12 11  2  0  0  0  0
 14 13  1  0  0  0  0
 14 12  1  0  0  0  0
 16 18  1  0  0  0  0
 17 16  2  0  0  0  0
 18 15  1  1  0  0  0
 19 17  1  0  0  0  0
 19 20  1  0  0  0  0
 19 21  1  1  0  0  0
 20 18  1  0  0  0  0
 22 24  1  0  0  0  0
 23 25  1  6  0  0  0
 23 22  1  0  0  0  0
 23 24  1  0  0  0  0
 23 21  1  0  0  0  0
 25 26  1  0  0  0  0
 26 27  1  0  0  0  0
 28 29  1  0  0  0  0
 30 31  1  0  0  0  0
 32 31  1  0  0  0  0
 32 33  1  0  0  0  0
 33 34  1  1  0  0  0
 35 33  1  0  0  0  0
 36 38  1  0  0  0  0
 36 35  1  0  0  0  0
 38 37  1  1  0  0  0
 39 36  2  0  0  0  0
 39 38  1  0  0  0  0
 40 39  1  0  0  0  0
 41 42  1  6  0  0  0
 41 40  1  0  0  0  0
 43 41  1  0  0  0  0
 44 43  1  0  0  0  0
 45 44  2  0  0  0  0
 46 44  1  0  0  0  0
 48 47  1  6  0  0  0
 48 46  1  0  0  0  0
 49 48  1  0  0  0  0
 50 51  1  0  0  0  0
 51 49  1  0  0  0  0
 52 51  2  0  0  0  0
M  END
>  <MODEL>
1

>  <REMARK>
 VINA RESULT:      -7.2      0.000      0.000
  Name = 
  25 active torsions:
  status: ('A' for Active; 'I' for Inactive)
    1  A    between atoms: C_1  and  C_19
    2  A    between atoms: C_1  and  C_29
    3  A    between atoms: C_2  and  C_28
    4  A    between atoms: C_3  and  C_11
    5  A    between atoms: C_4  and  C_9
    6  A    between atoms: C_4  and  O_10
    7  A    between atoms: O_5  and  C_33
    8  A    between atoms: N_8  and  C_34
    9  A    between atoms: N_8  and  C_43
   10  A    between atoms: C_9  and  C_27
   11  A    between atoms: O_10  and  C_15
   12  A    between atoms: C_11  and  C_17
   13  A    between atoms: C_11  and  C_28
   14  A    between atoms: C_17  and  C_27
   15  A    between atoms: C_19  and  C_32
   16  A    between atoms: C_21  and  C_36
   17  A    between atoms: C_21  and  O_50
   18  A    between atoms: C_23  and  C_42
   19  A    between atoms: C_23  and  O_50
   20  A    between atoms: O_25  and  C_29
   21  A    between atoms: C_30  and  C_35
   22  A    between atoms: C_30  and  C_51
   23  A    between atoms: C_33  and  C_43
   24  A    between atoms: C_35  and  C_36
   25  A    between atoms: C_42  and  C_48
                            x       y       z     vdW  Elec       q    Type
                         _______ _______ _______ _____ _____    ______ ____

>  <TORSDO>
F 25

$$$$
=
 OpenBabel11062413513D

 52 55  0  0  1  0  0  0  0  0999 V2000
  185.5430  178.5600  144.6850 C   0  0  1  0  0  3  0  0  0  0  0  0
  186.8770  176.9890  143.4300 C   0  0  0  0  0  0  0  0  0  0  0  0
  187.6110  175.9940  143.4700 O   0  0  0  0  0  0  0  0  0  0  0  0
  186.1090  178.0480  143.3910 C   0  0  0  0  0  0  0  0  0  0  0  0
  182.9530  177.8400  140.3750 C   0  0  2  0  0  0  0  0  0  0  0  0
  185.9250  178.8170  142.1420 C   0  0  0  0  0  3  0  0  0  0  0  0
  183.8610  177.7970  141.4640 O   0  0  0  0  0  0  0  0  0  0  0  0
  184.8340  179.3750  139.9950 C   0  0  0  0  0  2  0  0  0  0  0  0
  184.9280  178.6500  141.2740 C   0  0  0  0  0  0  0  0  0  0  0  0
  183.6440  178.7060  139.3110 C   0  0  0  0  0  2  0  0  0  0  0  0
  180.8850  178.9480  139.8830 O   0  0  0  0  0  0  0  0  0  0  0  0
  181.6620  178.5010  140.7740 C   0  0  0  0  0  0  0  0  0  0  0  0
  180.1060  178.1690  142.6480 C   0  0  0  0  0  1  0  0  0  0  0  0
  181.3380  178.6400  142.1230 O   0  0  0  0  0  0  0  0  0  0  0  0
  182.7190  176.4310  139.8240 C   0  0  0  0  0  2  0  0  0  0  0  0
  181.5990  175.4020  137.8930 C   0  0  0  0  0  3  0  0  0  0  0  0
  182.1760  174.4580  137.1930 C   0  0  0  0  0  3  0  0  0  0  0  0
  182.6210  176.3900  138.2990 C   0  0  2  0  0  3  0  0  0  0  0  0
  183.6200  174.7560  137.0860 C   0  0  1  0  0  3  0  0  0  0  0  0
  183.8540  175.9890  137.7360 O   0  0  0  0  0  0  0  0  0  0  0  0
  184.3840  173.7060  137.7460 N   0  0  0  0  0  2  0  0  0  0  0  0
  185.2050  172.0730  136.0180 C   0  0  0  0  0  2  0  0  0  0  0  0
  185.4450  173.2690  136.8480 C   0  0  1  0  0  0  0  0  0  0  0  0
  185.0350  173.3790  135.5110 O   0  0  0  0  0  0  0  0  0  0  0  0
  186.8450  173.8330  137.0390 C   0  0  0  0  0  2  0  0  0  0  0  0
  187.3020  174.4060  135.8530 O   0  0  0  0  0  0  0  0  0  0  0  0
  188.2020  173.5590  135.3990 O   0  0  0  0  0  1  0  0  0  0  0  0
  184.0180  178.6560  144.6620 C   0  0  0  0  0  2  0  0  0  0  0  0
  183.5970  179.9190  144.2400 O   0  0  0  0  0  1  0  0  0  0  0  0
  186.0390  177.7400  145.8720 C   0  0  0  0  0  2  0  0  0  0  0  0
  187.4650  178.1210  146.2510 C   0  0  0  0  0  2  0  0  0  0  0  0
  187.9830  177.3350  147.4490 C   0  0  0  0  0  2  0  0  0  0  0  0
  188.6340  178.2510  148.4780 C   0  0  1  0  0  3  0  0  0  0  0  0
  188.0060  178.1320  149.7040 F   0  0  0  0  0  0  0  0  0  0  0  0
  190.0220  177.9620  148.6090 O   0  0  0  0  0  0  0  0  0  0  0  0
  190.7560  177.3760  147.5770 C   0  0  0  0  0  0  0  0  0  0  0  0
  191.3050  175.2010  147.1940 O   0  0  0  0  0  1  0  0  0  0  0  0
  191.7580  176.5140  147.1240 C   0  0  1  0  0  3  0  0  0  0  0  0
  191.0150  177.2090  146.1660 C   0  0  0  0  0  0  0  0  0  0  0  0
  190.6910  177.5250  144.7450 C   0  0  0  0  0  2  0  0  0  0  0  0
  191.6780  176.8680  143.7800 C   0  0  1  0  0  3  0  0  0  0  0  0
  191.4820  175.3630  143.7520 C   0  0  0  0  0  1  0  0  0  0  0  0
  191.5390  177.4000  142.4640 O   0  0  0  0  0  0  0  0  0  0  0  0
  190.2980  177.5630  141.8400 C   0  0  0  0  0  0  0  0  0  0  0  0
  189.6250  178.6020  142.0690 O   0  0  0  0  0  0  0  0  0  0  0  0
  189.7460  176.5220  140.9170 C   0  0  0  0  0  2  0  0  0  0  0  0
  189.3000  178.2800  139.2200 C   0  0  0  0  0  1  0  0  0  0  0  0
  189.9510  176.9340  139.4680 C   0  0  1  0  0  3  0  0  0  0  0  0
  191.4350  177.0390  139.1690 C   0  0  0  0  0  2  0  0  0  0  0  0
  191.2510  174.8550  138.2320 O   0  0  0  0  0  1  0  0  0  0  0  0
  191.8480  175.9630  138.2210 C   0  0  0  0  0  0  0  0  0  0  0  0
  192.9130  176.1710  137.3500 O   0  0  0  0  0  0  0  0  0  0  0  0
  1 28  1  6  0  0  0
  1 30  1  0  0  0  0
  2  3  2  0  0  0  0
  4  2  2  0  0  0  0
  4  1  1  0  0  0  0
  5 15  1  6  0  0  0
  5 12  1  0  0  0  0
  5  7  1  0  0  0  0
  6  4  1  0  0  0  0
  8  9  1  0  0  0  0
  9  7  1  0  0  0  0
  9  6  2  0  0  0  0
 10  8  1  0  0  0  0
 10  5  1  0  0  0  0
 11 12  2  0  0  0  0
 12 14  1  0  0  0  0
 14 13  1  0  0  0  0
 16 18  1  0  0  0  0
 17 16  2  0  0  0  0
 18 15  1  1  0  0  0
 19 17  1  0  0  0  0
 19 20  1  0  0  0  0
 19 21  1  1  0  0  0
 20 18  1  0  0  0  0
 22 23  1  0  0  0  0
 23 25  1  1  0  0  0
 23 21  1  0  0  0  0
 24 22  1  0  0  0  0
 24 23  1  0  0  0  0
 26 25  1  0  0  0  0
 27 26  1  0  0  0  0
 29 28  1  0  0  0  0
 30 31  1  0  0  0  0
 31 32  1  0  0  0  0
 32 33  1  0  0  0  0
 33 35  1  0  0  0  0
 33 34  1  1  0  0  0
 36 35  1  0  0  0  0
 38 37  1  6  0  0  0
 38 36  1  0  0  0  0
 39 38  1  0  0  0  0
 39 36  2  0  0  0  0
 40 39  1  0  0  0  0
 41 42  1  6  0  0  0
 41 40  1  0  0  0  0
 43 41  1  0  0  0  0
 44 45  2  0  0  0  0
 44 43  1  0  0  0  0
 46 44  1  0  0  0  0
 48 47  1  1  0  0  0
 48 46  1  0  0  0  0
 49 48  1  0  0  0  0
 51 50  1  0  0  0  0
 51 49  1  0  0  0  0
 52 51  2  0  0  0  0
M  END
>  <MODEL>
2

>  <REMARK>
 VINA RESULT:      -6.0      1.415      2.100
  Name = 
  25 active torsions:
  status: ('A' for Active; 'I' for Inactive)
    1  A    between atoms: C_1  and  C_19
    2  A    between atoms: C_1  and  C_29
    3  A    between atoms: C_2  and  C_28
    4  A    between atoms: C_3  and  C_11
    5  A    between atoms: C_4  and  C_9
    6  A    between atoms: C_4  and  O_10
    7  A    between atoms: O_5  and  C_33
    8  A    between atoms: N_8  and  C_34
    9  A    between atoms: N_8  and  C_43
   10  A    between atoms: C_9  and  C_27
   11  A    between atoms: O_10  and  C_15
   12  A    between atoms: C_11  and  C_17
   13  A    between atoms: C_11  and  C_28
   14  A    between atoms: C_17  and  C_27
   15  A    between atoms: C_19  and  C_32
   16  A    between atoms: C_21  and  C_36
   17  A    between atoms: C_21  and  O_50
   18  A    between atoms: C_23  and  C_42
   19  A    between atoms: C_23  and  O_50
   20  A    between atoms: O_25  and  C_29
   21  A    between atoms: C_30  and  C_35
   22  A    between atoms: C_30  and  C_51
   23  A    between atoms: C_33  and  C_43
   24  A    between atoms: C_35  and  C_36
   25  A    between atoms: C_42  and  C_48
                            x       y       z     vdW  Elec       q    Type
                         _______ _______ _______ _____ _____    ______ ____

>  <TORSDO>
F 25

$$$$
=
 OpenBabel11062413513D

 52 55  0  0  1  0  0  0  0  0999 V2000
  185.7890  178.4490  145.0100 C   0  0  1  0  0  3  0  0  0  0  0  0
  183.5760  178.6960  144.0810 C   0  0  0  0  0  0  0  0  0  0  0  0
  182.3580  178.5840  144.2690 O   0  0  0  0  0  0  0  0  0  0  0  0
  184.8650  178.8020  143.8790 C   0  0  0  0  0  0  0  0  0  0  0  0
  183.2010  178.0560  139.9080 C   0  0  2  0  0  0  0  0  0  0  0  0
  185.4100  179.1070  142.5400 C   0  0  0  0  0  3  0  0  0  0  0  0
  183.5650  178.2530  141.2650 O   0  0  0  0  0  0  0  0  0  0  0  0
  185.4440  179.0470  140.0690 C   0  0  0  0  0  2  0  0  0  0  0  0
  184.8220  178.8080  141.3820 C   0  0  0  0  0  0  0  0  0  0  0  0
  184.4690  178.3770  139.1030 C   0  0  0  0  0  2  0  0  0  0  0  0
  180.9400  178.8500  139.9410 O   0  0  0  0  0  0  0  0  0  0  0  0
  182.1120  179.0090  139.4970 C   0  0  0  0  0  0  0  0  0  0  0  0
  181.3860  180.9400  138.1600 C   0  0  0  0  0  1  0  0  0  0  0  0
  182.3940  180.0490  138.6130 O   0  0  0  0  0  0  0  0  0  0  0  0
  182.7940  176.5990  139.6750 C   0  0  0  0  0  2  0  0  0  0  0  0
  181.6440  175.0800  138.1220 C   0  0  0  0  0  3  0  0  0  0  0  0
  182.2940  174.1480  137.4710 C   0  0  0  0  0  3  0  0  0  0  0  0
  182.4940  176.2860  138.2080 C   0  0  2  0  0  3  0  0  0  0  0  0
  183.6200  174.6730  137.0820 C   0  0  1  0  0  3  0  0  0  0  0  0
  183.6910  176.0190  137.5070 O   0  0  0  0  0  0  0  0  0  0  0  0
  184.6630  173.8990  137.7420 N   0  0  0  0  0  2  0  0  0  0  0  0
  186.7120  172.5780  137.1240 C   0  0  0  0  0  2  0  0  0  0  0  0
  185.7030  173.5950  136.7680 C   0  0  1  0  0  0  0  0  0  0  0  0
  185.5900  172.2690  136.3240 O   0  0  0  0  0  0  0  0  0  0  0  0
  185.9150  174.5460  135.6010 C   0  0  0  0  0  2  0  0  0  0  0  0
  186.7710  175.5830  135.9690 O   0  0  0  0  0  0  0  0  0  0  0  0
  187.0540  175.3470  137.2340 O   0  0  0  0  0  1  0  0  0  0  0  0
  185.1090  178.5430  146.3750 C   0  0  0  0  0  2  0  0  0  0  0  0
  185.8410  179.3500  147.2500 O   0  0  0  0  0  1  0  0  0  0  0  0
  186.4360  177.0840  144.7940 C   0  0  0  0  0  2  0  0  0  0  0  0
  187.9440  177.1460  145.0050 C   0  0  0  0  0  2  0  0  0  0  0  0
  188.6150  178.1920  144.1230 C   0  0  0  0  0  2  0  0  0  0  0  0
  189.1440  177.5760  142.8330 C   0  0  1  0  0  3  0  0  0  0  0  0
  188.9020  176.2140  142.8080 F   0  0  0  0  0  0  0  0  0  0  0  0
  188.5580  178.1990  141.6950 O   0  0  0  0  0  0  0  0  0  0  0  0
  188.9810  177.9140  140.3970 C   0  0  0  0  0  0  0  0  0  0  0  0
  189.0280  179.2140  138.5290 O   0  0  0  0  0  1  0  0  0  0  0  0
  188.7860  177.9330  139.0130 C   0  0  1  0  0  3  0  0  0  0  0  0
  189.9780  177.3870  139.4950 C   0  0  0  0  0  0  0  0  0  0  0  0
  191.3110  176.7600  139.2630 C   0  0  0  0  0  2  0  0  0  0  0  0
  191.2610  175.7190  138.1440 C   0  0  1  0  0  3  0  0  0  0  0  0
  190.7090  176.3270  136.8680 C   0  0  0  0  0  1  0  0  0  0  0  0
  192.5530  175.1670  137.8990 O   0  0  0  0  0  0  0  0  0  0  0  0
  192.7890  174.1950  136.9220 C   0  0  0  0  0  0  0  0  0  0  0  0
  191.8950  173.3430  136.6720 O   0  0  0  0  0  0  0  0  0  0  0  0
  194.0850  174.1340  136.1770 C   0  0  0  0  0  2  0  0  0  0  0  0
  194.9620  172.1370  137.3630 C   0  0  0  0  0  1  0  0  0  0  0  0
  195.1910  173.6070  137.0770 C   0  0  1  0  0  3  0  0  0  0  0  0
  196.5350  173.7760  136.3920 C   0  0  0  0  0  2  0  0  0  0  0  0
  196.8530  176.0970  135.9520 O   0  0  0  0  0  0  0  0  0  0  0  0
  197.1080  175.1180  136.7020 C   0  0  0  0  0  0  0  0  0  0  0  0
  197.9490  175.2820  137.7980 O   0  0  0  0  0  1  0  0  0  0  0  0
  1 30  1  6  0  0  0
  1 28  1  0  0  0  0
  2  3  2  0  0  0  0
  4  2  2  0  0  0  0
  4  1  1  0  0  0  0
  5 15  1  6  0  0  0
  5  7  1  0  0  0  0
  6  4  1  0  0  0  0
  7  9  1  0  0  0  0
  8  9  1  0  0  0  0
  9  6  2  0  0  0  0
 10  5  1  0  0  0  0
 10  8  1  0  0  0  0
 12  5  1  0  0  0  0
 12 11  2  0  0  0  0
 13 14  1  0  0  0  0
 14 12  1  0  0  0  0
 16 18  1  0  0  0  0
 17 16  2  0  0  0  0
 18 15  1  1  0  0  0
 19 17  1  0  0  0  0
 19 20  1  0  0  0  0
 19 21  1  1  0  0  0
 20 18  1  0  0  0  0
 23 25  1  6  0  0  0
 23 22  1  0  0  0  0
 23 21  1  0  0  0  0
 24 23  1  0  0  0  0
 24 22  1  0  0  0  0
 25 26  1  0  0  0  0
 26 27  1  0  0  0  0
 28 29  1  0  0  0  0
 30 31  1  0  0  0  0
 32 31  1  0  0  0  0
 33 34  1  1  0  0  0
 33 32  1  0  0  0  0
 35 33  1  0  0  0  0
 36 35  1  0  0  0  0
 38 37  1  6  0  0  0
 38 39  1  0  0  0  0
 38 36  1  0  0  0  0
 39 36  2  0  0  0  0
 40 39  1  0  0  0  0
 41 42  1  6  0  0  0
 41 40  1  0  0  0  0
 43 41  1  0  0  0  0
 44 43  1  0  0  0  0
 45 44  2  0  0  0  0
 46 44  1  0  0  0  0
 46 48  1  0  0  0  0
 48 47  1  6  0  0  0
 49 51  1  0  0  0  0
 49 48  1  0  0  0  0
 50 51  2  0  0  0  0
 51 52  1  0  0  0  0
M  END
>  <MODEL>
3

>  <REMARK>
 VINA RESULT:      -5.7      3.170      5.038
  Name = 
  25 active torsions:
  status: ('A' for Active; 'I' for Inactive)
    1  A    between atoms: C_1  and  C_19
    2  A    between atoms: C_1  and  C_29
    3  A    between atoms: C_2  and  C_28
    4  A    between atoms: C_3  and  C_11
    5  A    between atoms: C_4  and  C_9
    6  A    between atoms: C_4  and  O_10
    7  A    between atoms: O_5  and  C_33
    8  A    between atoms: N_8  and  C_34
    9  A    between atoms: N_8  and  C_43
   10  A    between atoms: C_9  and  C_27
   11  A    between atoms: O_10  and  C_15
   12  A    between atoms: C_11  and  C_17
   13  A    between atoms: C_11  and  C_28
   14  A    between atoms: C_17  and  C_27
   15  A    between atoms: C_19  and  C_32
   16  A    between atoms: C_21  and  C_36
   17  A    between atoms: C_21  and  O_50
   18  A    between atoms: C_23  and  C_42
   19  A    between atoms: C_23  and  O_50
   20  A    between atoms: O_25  and  C_29
   21  A    between atoms: C_30  and  C_35
   22  A    between atoms: C_30  and  C_51
   23  A    between atoms: C_33  and  C_43
   24  A    between atoms: C_35  and  C_36
   25  A    between atoms: C_42  and  C_48
                            x       y       z     vdW  Elec       q    Type
                         _______ _______ _______ _____ _____    ______ ____

>  <TORSDO>
F 25

$$$$
=
 OpenBabel11062413513D

 52 55  0  0  1  0  0  0  0  0999 V2000
  190.8360  175.2980  136.8860 C   0  0  1  0  0  3  0  0  0  0  0  0
  189.2030  176.5420  138.1540 C   0  0  0  0  0  0  0  0  0  0  0  0
  188.0130  176.8590  138.2760 O   0  0  0  0  0  0  0  0  0  0  0  0
  190.4620  176.2150  138.0160 C   0  0  0  0  0  0  0  0  0  0  0  0
  190.5800  177.0370  142.3060 C   0  0  2  0  0  0  0  0  0  0  0  0
  191.5130  176.8460  138.8420 C   0  0  0  0  0  3  0  0  0  0  0  0
  190.3860  176.6610  140.9520 O   0  0  0  0  0  0  0  0  0  0  0  0
  192.4650  177.7870  140.9190 C   0  0  0  0  0  2  0  0  0  0  0  0
  191.4320  177.0720  140.1530 C   0  0  0  0  0  0  0  0  0  0  0  0
  191.8230  177.9400  142.2970 C   0  0  0  0  0  2  0  0  0  0  0  0
  190.1520  174.7970  143.0430 O   0  0  0  0  0  0  0  0  0  0  0  0
  190.8610  175.8350  143.1660 C   0  0  0  0  0  0  0  0  0  0  0  0
  191.6410  176.2080  145.4680 C   0  0  0  0  0  1  0  0  0  0  0  0
  191.8870  175.8780  144.1090 O   0  0  0  0  0  0  0  0  0  0  0  0
  189.3720  177.8260  142.8160 C   0  0  0  0  0  2  0  0  0  0  0  0
  187.5800  178.4570  141.2550 C   0  0  0  0  0  3  0  0  0  0  0  0
  186.4260  178.9010  141.6850 C   0  0  0  0  0  3  0  0  0  0  0  0
  188.0550  177.3950  142.1670 C   0  0  2  0  0  3  0  0  0  0  0  0
  186.0560  178.1630  142.9120 C   0  0  1  0  0  3  0  0  0  0  0  0
  187.0620  177.2000  143.1530 O   0  0  0  0  0  0  0  0  0  0  0  0
  185.9890  179.0880  144.0350 N   0  0  0  0  0  2  0  0  0  0  0  0
  183.5380  179.6490  144.0550 C   0  0  0  0  0  2  0  0  0  0  0  0
  184.6860  178.9550  144.6700 C   0  0  1  0  0  0  0  0  0  0  0  0
  183.7920  178.2800  143.8240 O   0  0  0  0  0  0  0  0  0  0  0  0
  184.6130  178.4090  146.0880 C   0  0  0  0  0  2  0  0  0  0  0  0
  185.8600  178.4950  146.7050 O   0  0  0  0  0  0  0  0  0  0  0  0
  185.7850  179.5720  147.4590 O   0  0  0  0  0  1  0  0  0  0  0  0
  192.3430  175.2450  136.6460 C   0  0  0  0  0  2  0  0  0  0  0  0
  192.6440  174.5710  135.4600 O   0  0  0  0  0  1  0  0  0  0  0  0
  190.2460  173.9050  137.0810 C   0  0  0  0  0  2  0  0  0  0  0  0
  188.7950  173.8480  136.6170 C   0  0  0  0  0  2  0  0  0  0  0  0
  188.6280  173.0810  135.3110 C   0  0  0  0  0  2  0  0  0  0  0  0
  187.7610  171.8420  135.4980 C   0  0  1  0  0  3  0  0  0  0  0  0
  187.8030  171.4120  136.8120 F   0  0  0  0  0  0  0  0  0  0  0  0
  186.4150  172.1000  135.1100 O   0  0  0  0  0  0  0  0  0  0  0  0
  185.4920  172.6760  135.9830 C   0  0  0  0  0  0  0  0  0  0  0  0
  185.5170  172.8790  138.2500 O   0  0  0  0  0  1  0  0  0  0  0  0
  184.7130  172.6340  137.1420 C   0  0  1  0  0  3  0  0  0  0  0  0
  184.6470  173.7860  136.3540 C   0  0  0  0  0  0  0  0  0  0  0  0
  184.1280  175.1600  136.0950 C   0  0  0  0  0  2  0  0  0  0  0  0
  185.1830  176.2280  136.3850 C   0  0  1  0  0  3  0  0  0  0  0  0
  186.0870  176.4310  135.1830 C   0  0  0  0  0  1  0  0  0  0  0  0
  184.5740  177.4650  136.7480 O   0  0  0  0  0  0  0  0  0  0  0  0
  184.6000  177.9690  138.0520 C   0  0  0  0  0  0  0  0  0  0  0  0
  185.3910  178.9070  138.3350 O   0  0  0  0  0  0  0  0  0  0  0  0
  183.7190  177.4070  139.1240 C   0  0  0  0  0  2  0  0  0  0  0  0
  181.4950  177.6740  140.1940 C   0  0  0  0  0  1  0  0  0  0  0  0
  182.2780  177.8380  138.9070 C   0  0  1  0  0  3  0  0  0  0  0  0
  182.2350  179.2940  138.4840 C   0  0  0  0  0  2  0  0  0  0  0  0
  179.9970  179.8740  137.9030 O   0  0  0  0  0  1  0  0  0  0  0  0
  181.1350  179.5150  137.5010 C   0  0  0  0  0  0  0  0  0  0  0  0
  181.3540  179.2930  136.1450 O   0  0  0  0  0  0  0  0  0  0  0  0
  1 28  1  1  0  0  0
  1 30  1  0  0  0  0
  1  4  1  0  0  0  0
  2  3  2  0  0  0  0
  4  2  2  0  0  0  0
  4  6  1  0  0  0  0
  5 15  1  1  0  0  0
  5 12  1  0  0  0  0
  6  9  2  0  0  0  0
  7  5  1  0  0  0  0
  8 10  1  0  0  0  0
  9  8  1  0  0  0  0
  9  7  1  0  0  0  0
 10  5  1  0  0  0  0
 11 12  2  0  0  0  0
 12 14  1  0  0  0  0
 14 13  1  0  0  0  0
 16 17  2  0  0  0  0
 16 18  1  0  0  0  0
 17 19  1  0  0  0  0
 18 15  1  1  0  0  0
 18 20  1  0  0  0  0
 19 20  1  0  0  0  0
 19 21  1  1  0  0  0
 21 23  1  0  0  0  0
 22 23  1  0  0  0  0
 23 25  1  1  0  0  0
 24 22  1  0  0  0  0
 24 23  1  0  0  0  0
 25 26  1  0  0  0  0
 26 27  1  0  0  0  0
 29 28  1  0  0  0  0
 31 30  1  0  0  0  0
 32 33  1  0  0  0  0
 32 31  1  0  0  0  0
 33 34  1  1  0  0  0
 35 33  1  0  0  0  0
 35 36  1  0  0  0  0
 36 39  2  0  0  0  0
 36 38  1  0  0  0  0
 38 37  1  1  0  0  0
 39 38  1  0  0  0  0
 40 39  1  0  0  0  0
 40 41  1  0  0  0  0
 41 42  1  6  0  0  0
 41 43  1  0  0  0  0
 43 44  1  0  0  0  0
 44 45  2  0  0  0  0
 44 46  1  0  0  0  0
 48 46  1  0  0  0  0
 48 47  1  1  0  0  0
 49 48  1  0  0  0  0
 51 50  1  0  0  0  0
 51 49  1  0  0  0  0
 52 51  2  0  0  0  0
M  END
>  <MODEL>
4

>  <REMARK>
 VINA RESULT:      -5.7      3.049      9.952
  Name = 
  25 active torsions:
  status: ('A' for Active; 'I' for Inactive)
    1  A    between atoms: C_1  and  C_19
    2  A    between atoms: C_1  and  C_29
    3  A    between atoms: C_2  and  C_28
    4  A    between atoms: C_3  and  C_11
    5  A    between atoms: C_4  and  C_9
    6  A    between atoms: C_4  and  O_10
    7  A    between atoms: O_5  and  C_33
    8  A    between atoms: N_8  and  C_34
    9  A    between atoms: N_8  and  C_43
   10  A    between atoms: C_9  and  C_27
   11  A    between atoms: O_10  and  C_15
   12  A    between atoms: C_11  and  C_17
   13  A    between atoms: C_11  and  C_28
   14  A    between atoms: C_17  and  C_27
   15  A    between atoms: C_19  and  C_32
   16  A    between atoms: C_21  and  C_36
   17  A    between atoms: C_21  and  O_50
   18  A    between atoms: C_23  and  C_42
   19  A    between atoms: C_23  and  O_50
   20  A    between atoms: O_25  and  C_29
   21  A    between atoms: C_30  and  C_35
   22  A    between atoms: C_30  and  C_51
   23  A    between atoms: C_33  and  C_43
   24  A    between atoms: C_35  and  C_36
   25  A    between atoms: C_42  and  C_48
                            x       y       z     vdW  Elec       q    Type
                         _______ _______ _______ _____ _____    ______ ____

>  <TORSDO>
F 25

$$$$
=
 OpenBabel11062413513D

 52 55  0  0  1  0  0  0  0  0999 V2000
  188.9240  176.1610  138.0900 C   0  0  1  0  0  3  0  0  0  0  0  0
  188.9340  175.7190  135.7180 C   0  0  0  0  0  0  0  0  0  0  0  0
  189.2790  176.1100  134.5950 O   0  0  0  0  0  0  0  0  0  0  0  0
  188.5590  175.3130  136.9040 C   0  0  0  0  0  0  0  0  0  0  0  0
  184.2030  175.0840  137.1710 C   0  0  2  0  0  0  0  0  0  0  0  0
  187.6700  174.1440  137.0700 C   0  0  0  0  0  3  0  0  0  0  0  0
  185.5910  175.3420  137.0270 O   0  0  0  0  0  0  0  0  0  0  0  0
  185.5010  173.0130  137.4240 C   0  0  0  0  0  2  0  0  0  0  0  0
  186.3410  174.1940  137.1660 C   0  0  0  0  0  0  0  0  0  0  0  0
  184.1130  173.6190  137.6230 C   0  0  0  0  0  2  0  0  0  0  0  0
  183.9450  176.0140  134.9770 O   0  0  0  0  0  0  0  0  0  0  0  0
  183.4880  175.2300  135.8560 C   0  0  0  0  0  0  0  0  0  0  0  0
  181.0540  175.1670  135.5110 C   0  0  0  0  0  1  0  0  0  0  0  0
  182.3120  174.5180  135.6200 O   0  0  0  0  0  0  0  0  0  0  0  0
  183.6030  175.9950  138.2450 C   0  0  0  0  0  2  0  0  0  0  0  0
  183.8990  178.4230  138.0060 C   0  0  0  0  0  3  0  0  0  0  0  0
  183.2430  179.2680  138.7610 C   0  0  0  0  0  3  0  0  0  0  0  0
  183.0130  177.2860  137.6770 C   0  0  2  0  0  3  0  0  0  0  0  0
  181.8770  178.7490  138.9830 C   0  0  1  0  0  3  0  0  0  0  0  0
  181.7500  177.5460  138.2540 O   0  0  0  0  0  0  0  0  0  0  0  0
  181.6840  178.4810  140.4020 N   0  0  0  0  0  2  0  0  0  0  0  0
  180.0980  180.1410  141.4300 C   0  0  0  0  0  2  0  0  0  0  0  0
  180.3200  178.8430  140.7630 C   0  0  1  0  0  0  0  0  0  0  0  0
  179.9040  179.9730  140.0420 O   0  0  0  0  0  0  0  0  0  0  0  0
  179.2480  177.7640  140.7540 C   0  0  0  0  0  2  0  0  0  0  0  0
  179.3490  176.9710  141.8960 O   0  0  0  0  0  0  0  0  0  0  0  0
  179.1070  175.7470  141.4720 O   0  0  0  0  0  1  0  0  0  0  0  0
  190.4340  176.2540  138.3020 C   0  0  0  0  0  2  0  0  0  0  0  0
  190.8390  177.5780  138.4870 O   0  0  0  0  0  1  0  0  0  0  0  0
  188.2800  177.5410  138.0060 C   0  0  0  0  0  2  0  0  0  0  0  0
  187.2890  177.7590  139.1440 C   0  0  0  0  0  2  0  0  0  0  0  0
  187.8710  178.6010  140.2730 C   0  0  0  0  0  2  0  0  0  0  0  0
  186.8610  178.8010  141.3970 C   0  0  1  0  0  3  0  0  0  0  0  0
  185.5760  178.5650  140.9450 F   0  0  0  0  0  0  0  0  0  0  0  0
  187.1560  177.9510  142.5010 O   0  0  0  0  0  0  0  0  0  0  0  0
  186.5860  178.1500  143.7580 C   0  0  0  0  0  0  0  0  0  0  0  0
  184.4130  178.0800  144.4330 O   0  0  0  0  0  1  0  0  0  0  0  0
  185.6290  178.7370  144.5900 C   0  0  1  0  0  3  0  0  0  0  0  0
  186.5530  177.8680  145.1750 C   0  0  0  0  0  0  0  0  0  0  0  0
  187.0930  177.1460  146.3630 C   0  0  0  0  0  2  0  0  0  0  0  0
  187.8960  178.0750  147.2730 C   0  0  1  0  0  3  0  0  0  0  0  0
  187.9520  177.5270  148.6870 C   0  0  0  0  0  1  0  0  0  0  0  0
  189.2180  178.2660  146.7740 O   0  0  0  0  0  0  0  0  0  0  0  0
  190.2870  177.4340  147.1230 C   0  0  0  0  0  0  0  0  0  0  0  0
  190.7540  177.4880  148.2900 O   0  0  0  0  0  0  0  0  0  0  0  0
  190.8970  176.4910  146.1340 C   0  0  0  0  0  2  0  0  0  0  0  0
  191.4560  178.3740  144.6150 C   0  0  0  0  0  1  0  0  0  0  0  0
  190.7540  177.0350  144.7220 C   0  0  1  0  0  3  0  0  0  0  0  0
  191.3770  176.0680  143.7330 C   0  0  0  0  0  2  0  0  0  0  0  0
  192.0180  177.3590  141.8350 O   0  0  0  0  0  1  0  0  0  0  0  0
  191.1850  176.5600  142.3380 C   0  0  0  0  0  0  0  0  0  0  0  0
  190.0720  176.1630  141.6040 O   0  0  0  0  0  0  0  0  0  0  0  0
  1 30  1  6  0  0  0
  1 28  1  0  0  0  0
  2  4  2  0  0  0  0
  3  2  2  0  0  0  0
  4  6  1  0  0  0  0
  4  1  1  0  0  0  0
  5 10  1  0  0  0  0
  5 15  1  1  0  0  0
  6  9  2  0  0  0  0
  7  9  1  0  0  0  0
  7  5  1  0  0  0  0
  8 10  1  0  0  0  0
  9  8  1  0  0  0  0
 11 12  2  0  0  0  0
 12  5  1  0  0  0  0
 13 14  1  0  0  0  0
 14 12  1  0  0  0  0
 16 17  2  0  0  0  0
 17 19  1  0  0  0  0
 18 16  1  0  0  0  0
 18 15  1  1  0  0  0
 18 20  1  0  0  0  0
 19 21  1  1  0  0  0
 20 19  1  0  0  0  0
 21 23  1  0  0  0  0
 23 25  1  1  0  0  0
 23 22  1  0  0  0  0
 24 23  1  0  0  0  0
 24 22  1  0  0  0  0
 25 26  1  0  0  0  0
 27 26  1  0  0  0  0
 28 29  1  0  0  0  0
 30 31  1  0  0  0  0
 31 32  1  0  0  0  0
 32 33  1  0  0  0  0
 33 34  1  6  0  0  0
 33 35  1  0  0  0  0
 35 36  1  0  0  0  0
 36 38  1  0  0  0  0
 36 39  2  0  0  0  0
 38 37  1  6  0  0  0
 38 39  1  0  0  0  0
 39 40  1  0  0  0  0
 40 41  1  0  0  0  0
 41 42  1  1  0  0  0
 43 44  1  0  0  0  0
 43 41  1  0  0  0  0
 44 45  2  0  0  0  0
 46 44  1  0  0  0  0
 48 47  1  1  0  0  0
 48 46  1  0  0  0  0
 49 48  1  0  0  0  0
 50 51  1  0  0  0  0
 51 49  1  0  0  0  0
 52 51  2  0  0  0  0
M  END
>  <MODEL>
5

>  <REMARK>
 VINA RESULT:      -5.5      2.298      6.910
  Name = 
  25 active torsions:
  status: ('A' for Active; 'I' for Inactive)
    1  A    between atoms: C_1  and  C_19
    2  A    between atoms: C_1  and  C_29
    3  A    between atoms: C_2  and  C_28
    4  A    between atoms: C_3  and  C_11
    5  A    between atoms: C_4  and  C_9
    6  A    between atoms: C_4  and  O_10
    7  A    between atoms: O_5  and  C_33
    8  A    between atoms: N_8  and  C_34
    9  A    between atoms: N_8  and  C_43
   10  A    between atoms: C_9  and  C_27
   11  A    between atoms: O_10  and  C_15
   12  A    between atoms: C_11  and  C_17
   13  A    between atoms: C_11  and  C_28
   14  A    between atoms: C_17  and  C_27
   15  A    between atoms: C_19  and  C_32
   16  A    between atoms: C_21  and  C_36
   17  A    between atoms: C_21  and  O_50
   18  A    between atoms: C_23  and  C_42
   19  A    between atoms: C_23  and  O_50
   20  A    between atoms: O_25  and  C_29
   21  A    between atoms: C_30  and  C_35
   22  A    between atoms: C_30  and  C_51
   23  A    between atoms: C_33  and  C_43
   24  A    between atoms: C_35  and  C_36
   25  A    between atoms: C_42  and  C_48
                            x       y       z     vdW  Elec       q    Type
                         _______ _______ _______ _____ _____    ______ ____

>  <TORSDO>
F 25

$$$$
=
 OpenBabel11062413513D

 52 55  0  0  1  0  0  0  0  0999 V2000
  184.2750  178.6120  144.1630 C   0  0  1  0  0  3  0  0  0  0  0  0
  185.5470  178.9610  142.1430 C   0  0  0  0  0  0  0  0  0  0  0  0
  185.6950  179.6400  141.1190 O   0  0  0  0  0  0  0  0  0  0  0  0
  185.3820  178.2360  143.2200 C   0  0  0  0  0  0  0  0  0  0  0  0
  189.6920  177.5220  143.1300 C   0  0  2  0  0  0  0  0  0  0  0  0
  186.1520  176.9920  143.4330 C   0  0  0  0  0  3  0  0  0  0  0  0
  188.3380  177.9430  143.1590 O   0  0  0  0  0  0  0  0  0  0  0  0
  188.1970  175.6050  143.4840 C   0  0  0  0  0  2  0  0  0  0  0  0
  187.4780  176.8830  143.3560 C   0  0  0  0  0  0  0  0  0  0  0  0
  189.6350  175.9870  143.1430 C   0  0  0  0  0  2  0  0  0  0  0  0
  189.8620  177.9450  145.4830 O   0  0  0  0  0  0  0  0  0  0  0  0
  190.4300  177.9890  144.3550 C   0  0  0  0  0  0  0  0  0  0  0  0
  192.0050  179.8770  144.3470 C   0  0  0  0  0  1  0  0  0  0  0  0
  191.7260  178.4890  144.2400 O   0  0  0  0  0  0  0  0  0  0  0  0
  190.3700  178.0040  141.8450 C   0  0  0  0  0  2  0  0  0  0  0  0
  191.9800  177.1900  140.1750 C   0  0  0  0  0  3  0  0  0  0  0  0
  191.7300  177.2670  138.8920 C   0  0  0  0  0  3  0  0  0  0  0  0
  190.7270  176.8650  140.8890 C   0  0  2  0  0  3  0  0  0  0  0  0
  190.2940  176.9980  138.6680 C   0  0  1  0  0  3  0  0  0  0  0  0
  189.7120  176.6990  139.9200 O   0  0  0  0  0  0  0  0  0  0  0  0
  189.6590  178.1820  138.1060 N   0  0  0  0  0  2  0  0  0  0  0  0
  189.0870  177.7540  135.6950 C   0  0  0  0  0  2  0  0  0  0  0  0
  188.6800  177.7590  137.1140 C   0  0  1  0  0  0  0  0  0  0  0  0
  189.1020  176.5800  136.4790 O   0  0  0  0  0  0  0  0  0  0  0  0
  187.2170  177.6690  137.5180 C   0  0  0  0  0  2  0  0  0  0  0  0
  186.6610  178.9430  137.6120 O   0  0  0  0  0  0  0  0  0  0  0  0
  185.5010  178.7570  138.2080 O   0  0  0  0  0  1  0  0  0  0  0  0
  184.7480  179.5320  145.2880 C   0  0  0  0  0  2  0  0  0  0  0  0
  184.6730  178.8940  146.5280 O   0  0  0  0  0  1  0  0  0  0  0  0
  183.0830  179.2030  143.4150 C   0  0  0  0  0  2  0  0  0  0  0  0
  181.8700  179.3400  144.3270 C   0  0  0  0  0  2  0  0  0  0  0  0
  180.7110  178.4490  143.8970 C   0  0  0  0  0  2  0  0  0  0  0  0
  179.6880  179.2230  143.0740 C   0  0  1  0  0  3  0  0  0  0  0  0
  180.0940  180.5340  142.9000 F   0  0  0  0  0  0  0  0  0  0  0  0
  179.4800  178.6030  141.8090 O   0  0  0  0  0  0  0  0  0  0  0  0
  180.1750  179.0010  140.6680 C   0  0  0  0  0  0  0  0  0  0  0  0
  182.3930  178.9020  140.1680 O   0  0  0  0  0  1  0  0  0  0  0  0
  181.2380  179.6670  140.0520 C   0  0  1  0  0  3  0  0  0  0  0  0
  180.3230  179.0020  139.2310 C   0  0  0  0  0  0  0  0  0  0  0  0
  179.8550  178.5710  137.8820 C   0  0  0  0  0  2  0  0  0  0  0  0
  180.7620  177.4950  137.2850 C   0  0  1  0  0  3  0  0  0  0  0  0
  181.9810  178.1200  136.6310 C   0  0  0  0  0  1  0  0  0  0  0  0
  181.1720  176.5590  138.2800 O   0  0  0  0  0  0  0  0  0  0  0  0
  181.7730  175.3350  137.9680 C   0  0  0  0  0  0  0  0  0  0  0  0
  181.0730  174.4140  137.4720 O   0  0  0  0  0  0  0  0  0  0  0  0
  183.2270  175.0920  138.2250 C   0  0  0  0  0  2  0  0  0  0  0  0
  184.7950  175.2460  136.3050 C   0  0  0  0  0  1  0  0  0  0  0  0
  183.8520  174.3340  137.0650 C   0  0  1  0  0  3  0  0  0  0  0  0
  184.6300  173.1420  137.5890 C   0  0  0  0  0  2  0  0  0  0  0  0
  183.4260  171.1560  137.0560 O   0  0  0  0  0  1  0  0  0  0  0  0
  184.3630  171.9390  136.7490 C   0  0  0  0  0  0  0  0  0  0  0  0
  185.1660  171.6650  135.6470 O   0  0  0  0  0  0  0  0  0  0  0  0
  1 30  1  6  0  0  0
  1 28  1  0  0  0  0
  2  4  2  0  0  0  0
  3  2  2  0  0  0  0
  4  6  1  0  0  0  0
  4  1  1  0  0  0  0
  5 15  1  6  0  0  0
  5 10  1  0  0  0  0
  5  7  1  0  0  0  0
  5 12  1  0  0  0  0
  7  9  1  0  0  0  0
  9  6  2  0  0  0  0
  9  8  1  0  0  0  0
 10  8  1  0  0  0  0
 12 11  2  0  0  0  0
 14 13  1  0  0  0  0
 14 12  1  0  0  0  0
 16 18  1  0  0  0  0
 17 16  2  0  0  0  0
 18 15  1  1  0  0  0
 19 21  1  1  0  0  0
 19 17  1  0  0  0  0
 19 20  1  0  0  0  0
 20 18  1  0  0  0  0
 22 24  1  0  0  0  0
 22 23  1  0  0  0  0
 23 25  1  1  0  0  0
 23 21  1  0  0  0  0
 24 23  1  0  0  0  0
 25 26  1  0  0  0  0
 26 27  1  0  0  0  0
 28 29  1  0  0  0  0
 30 31  1  0  0  0  0
 32 31  1  0  0  0  0
 33 34  1  6  0  0  0
 33 32  1  0  0  0  0
 35 33  1  0  0  0  0
 36 35  1  0  0  0  0
 38 37  1  1  0  0  0
 38 36  1  0  0  0  0
 39 38  1  0  0  0  0
 39 36  2  0  0  0  0
 40 39  1  0  0  0  0
 41 42  1  1  0  0  0
 41 40  1  0  0  0  0
 41 43  1  0  0  0  0
 44 46  1  0  0  0  0
 44 43  1  0  0  0  0
 45 44  2  0  0  0  0
 48 47  1  1  0  0  0
 48 49  1  0  0  0  0
 48 46  1  0  0  0  0
 51 50  1  0  0  0  0
 51 49  1  0  0  0  0
 52 51  2  0  0  0  0
M  END
>  <MODEL>
6

>  <REMARK>
 VINA RESULT:      -5.5      2.626      8.577
  Name = 
  25 active torsions:
  status: ('A' for Active; 'I' for Inactive)
    1  A    between atoms: C_1  and  C_19
    2  A    between atoms: C_1  and  C_29
    3  A    between atoms: C_2  and  C_28
    4  A    between atoms: C_3  and  C_11
    5  A    between atoms: C_4  and  C_9
    6  A    between atoms: C_4  and  O_10
    7  A    between atoms: O_5  and  C_33
    8  A    between atoms: N_8  and  C_34
    9  A    between atoms: N_8  and  C_43
   10  A    between atoms: C_9  and  C_27
   11  A    between atoms: O_10  and  C_15
   12  A    between atoms: C_11  and  C_17
   13  A    between atoms: C_11  and  C_28
   14  A    between atoms: C_17  and  C_27
   15  A    between atoms: C_19  and  C_32
   16  A    between atoms: C_21  and  C_36
   17  A    between atoms: C_21  and  O_50
   18  A    between atoms: C_23  and  C_42
   19  A    between atoms: C_23  and  O_50
   20  A    between atoms: O_25  and  C_29
   21  A    between atoms: C_30  and  C_35
   22  A    between atoms: C_30  and  C_51
   23  A    between atoms: C_33  and  C_43
   24  A    between atoms: C_35  and  C_36
   25  A    between atoms: C_42  and  C_48
                            x       y       z     vdW  Elec       q    Type
                         _______ _______ _______ _____ _____    ______ ____

>  <TORSDO>
F 25

$$$$
=
 OpenBabel11062413513D

 52 55  0  0  1  0  0  0  0  0999 V2000
  186.9820  177.9800  143.7270 C   0  0  1  0  0  3  0  0  0  0  0  0
  186.2370  178.6400  141.5290 C   0  0  0  0  0  0  0  0  0  0  0  0
  186.5630  178.9130  140.3670 O   0  0  0  0  0  0  0  0  0  0  0  0
  185.8960  178.3630  142.7620 C   0  0  0  0  0  0  0  0  0  0  0  0
  182.1300  178.5300  140.5520 C   0  0  2  0  0  0  0  0  0  0  0  0
  184.5130  178.5710  143.2400 C   0  0  0  0  0  3  0  0  0  0  0  0
  183.4310  178.4080  141.1050 O   0  0  0  0  0  0  0  0  0  0  0  0
  182.0820  178.9310  142.9760 C   0  0  0  0  0  2  0  0  0  0  0  0
  183.4300  178.6300  142.4660 C   0  0  0  0  0  0  0  0  0  0  0  0
  181.2550  179.0600  141.6990 C   0  0  0  0  0  2  0  0  0  0  0  0
  182.3740  176.3590  139.5660 O   0  0  0  0  0  0  0  0  0  0  0  0
  181.6000  177.1910  140.1180 C   0  0  0  0  0  0  0  0  0  0  0  0
  179.6680  175.7170  139.7400 C   0  0  0  0  0  1  0  0  0  0  0  0
  180.2530  176.8810  140.3050 O   0  0  0  0  0  0  0  0  0  0  0  0
  182.1360  179.5360  139.3990 C   0  0  0  0  0  2  0  0  0  0  0  0
  180.8210  179.6770  137.3270 C   0  0  0  0  0  3  0  0  0  0  0  0
  180.4860  180.8320  136.8080 C   0  0  0  0  0  3  0  0  0  0  0  0
  180.7490  179.7730  138.8000 C   0  0  2  0  0  3  0  0  0  0  0  0
  180.1670  181.7720  137.9030 C   0  0  1  0  0  3  0  0  0  0  0  0
  180.2880  181.0690  139.1230 O   0  0  0  0  0  0  0  0  0  0  0  0
  181.1140  182.8800  137.8840 N   0  0  0  0  0  2  0  0  0  0  0  0
  181.1680  184.9130  136.4050 C   0  0  0  0  0  2  0  0  0  0  0  0
  180.4380  184.0600  137.3630 C   0  0  1  0  0  0  0  0  0  0  0  0
  180.2350  183.9420  135.9800 O   0  0  0  0  0  0  0  0  0  0  0  0
  179.1780  184.5510  138.0600 C   0  0  0  0  0  2  0  0  0  0  0  0
  179.0370  185.9280  137.8930 O   0  0  0  0  0  0  0  0  0  0  0  0
  179.1340  186.4220  139.1110 O   0  0  0  0  0  1  0  0  0  0  0  0
  186.6450  178.3560  145.1690 C   0  0  0  0  0  2  0  0  0  0  0  0
  186.3740  177.2210  145.9380 O   0  0  0  0  0  1  0  0  0  0  0  0
  187.3440  176.5030  143.5980 C   0  0  0  0  0  2  0  0  0  0  0  0
  188.7940  176.3250  143.1610 C   0  0  0  0  0  2  0  0  0  0  0  0
  189.5120  177.6540  142.9600 C   0  0  0  0  0  2  0  0  0  0  0  0
  190.2560  177.6900  141.6310 C   0  0  1  0  0  3  0  0  0  0  0  0
  191.4110  176.9320  141.6980 F   0  0  0  0  0  0  0  0  0  0  0  0
  189.4260  177.2260  140.5710 O   0  0  0  0  0  0  0  0  0  0  0  0
  189.9390  176.9230  139.3100 C   0  0  0  0  0  0  0  0  0  0  0  0
  192.0830  176.6110  138.6130 O   0  0  0  0  0  1  0  0  0  0  0  0
  190.8460  177.1480  138.2710 C   0  0  1  0  0  3  0  0  0  0  0  0
  189.9200  176.1130  138.1150 C   0  0  0  0  0  0  0  0  0  0  0  0
  189.3490  174.9830  137.3270 C   0  0  0  0  0  2  0  0  0  0  0  0
  188.1250  175.4170  136.5190 C   0  0  1  0  0  3  0  0  0  0  0  0
  188.1610  174.8200  135.1250 C   0  0  0  0  0  1  0  0  0  0  0  0
  186.9170  175.0410  137.1770 O   0  0  0  0  0  0  0  0  0  0  0  0
  185.7780  175.8520  137.1920 C   0  0  0  0  0  0  0  0  0  0  0  0
  185.9130  177.1040  137.1930 O   0  0  0  0  0  0  0  0  0  0  0  0
  184.4010  175.2650  137.2220 C   0  0  0  0  0  2  0  0  0  0  0  0
  184.3010  173.0190  136.1690 C   0  0  0  0  0  1  0  0  0  0  0  0
  184.1200  174.5060  135.9360 C   0  0  1  0  0  3  0  0  0  0  0  0
  182.6950  174.7670  135.4860 C   0  0  0  0  0  2  0  0  0  0  0  0
  181.4560  172.7420  135.6960 O   0  0  0  0  0  0  0  0  0  0  0  0
  181.7520  173.8580  136.1990 C   0  0  0  0  0  0  0  0  0  0  0  0
  181.1740  174.2530  137.4010 O   0  0  0  0  0  1  0  0  0  0  0  0
  1 30  1  1  0  0  0
  1 28  1  0  0  0  0
  2  4  2  0  0  0  0
  3  2  2  0  0  0  0
  4  6  1  0  0  0  0
  4  1  1  0  0  0  0
  5 15  1  6  0  0  0
  5  7  1  0  0  0  0
  5 10  1  0  0  0  0
  7  9  1  0  0  0  0
  9  8  1  0  0  0  0
  9  6  2  0  0  0  0
 10  8  1  0  0  0  0
 11 12  2  0  0  0  0
 12 14  1  0  0  0  0
 12  5  1  0  0  0  0
 13 14  1  0  0  0  0
 16 18  1  0  0  0  0
 17 16  2  0  0  0  0
 17 19  1  0  0  0  0
 18 20  1  0  0  0  0
 18 15  1  1  0  0  0
 19 21  1  1  0  0  0
 19 20  1  0  0  0  0
 22 23  1  0  0  0  0
 23 21  1  0  0  0  0
 23 25  1  1  0  0  0
 24 22  1  0  0  0  0
 24 23  1  0  0  0  0
 26 25  1  0  0  0  0
 26 27  1  0  0  0  0
 28 29  1  0  0  0  0
 31 30  1  0  0  0  0
 32 31  1  0  0  0  0
 33 34  1  1  0  0  0
 33 32  1  0  0  0  0
 35 33  1  0  0  0  0
 36 35  1  0  0  0  0
 38 37  1  1  0  0  0
 38 36  1  0  0  0  0
 39 38  1  0  0  0  0
 39 36  2  0  0  0  0
 40 39  1  0  0  0  0
 41 42  1  6  0  0  0
 41 43  1  0  0  0  0
 41 40  1  0  0  0  0
 43 44  1  0  0  0  0
 44 45  2  0  0  0  0
 44 46  1  0  0  0  0
 48 47  1  1  0  0  0
 48 46  1  0  0  0  0
 49 48  1  0  0  0  0
 49 51  1  0  0  0  0
 50 51  2  0  0  0  0
 51 52  1  0  0  0  0
M  END
>  <MODEL>
7

>  <REMARK>
 VINA RESULT:      -5.2      3.329      7.520
  Name = 
  25 active torsions:
  status: ('A' for Active; 'I' for Inactive)
    1  A    between atoms: C_1  and  C_19
    2  A    between atoms: C_1  and  C_29
    3  A    between atoms: C_2  and  C_28
    4  A    between atoms: C_3  and  C_11
    5  A    between atoms: C_4  and  C_9
    6  A    between atoms: C_4  and  O_10
    7  A    between atoms: O_5  and  C_33
    8  A    between atoms: N_8  and  C_34
    9  A    between atoms: N_8  and  C_43
   10  A    between atoms: C_9  and  C_27
   11  A    between atoms: O_10  and  C_15
   12  A    between atoms: C_11  and  C_17
   13  A    between atoms: C_11  and  C_28
   14  A    between atoms: C_17  and  C_27
   15  A    between atoms: C_19  and  C_32
   16  A    between atoms: C_21  and  C_36
   17  A    between atoms: C_21  and  O_50
   18  A    between atoms: C_23  and  C_42
   19  A    between atoms: C_23  and  O_50
   20  A    between atoms: O_25  and  C_29
   21  A    between atoms: C_30  and  C_35
   22  A    between atoms: C_30  and  C_51
   23  A    between atoms: C_33  and  C_43
   24  A    between atoms: C_35  and  C_36
   25  A    between atoms: C_42  and  C_48
                            x       y       z     vdW  Elec       q    Type
                         _______ _______ _______ _____ _____    ______ ____

>  <TORSDO>
F 25

$$$$
=
 OpenBabel11062413513D

 52 55  0  0  1  0  0  0  0  0999 V2000
  186.5880  178.1770  144.5160 C   0  0  1  0  0  3  0  0  0  0  0  0
  184.2680  178.6430  144.0500 C   0  0  0  0  0  0  0  0  0  0  0  0
  183.1060  178.6350  144.4770 O   0  0  0  0  0  0  0  0  0  0  0  0
  185.4950  178.6400  143.5950 C   0  0  0  0  0  0  0  0  0  0  0  0
  183.0810  177.9810  140.0130 C   0  0  2  0  0  0  0  0  0  0  0  0
  185.7890  178.9290  142.1760 C   0  0  0  0  0  3  0  0  0  0  0  0
  183.7030  178.1560  141.2760 O   0  0  0  0  0  0  0  0  0  0  0  0
  185.3520  178.8800  139.7440 C   0  0  0  0  0  2  0  0  0  0  0  0
  184.9800  178.6600  141.1510 C   0  0  0  0  0  0  0  0  0  0  0  0
  184.1860  178.2550  138.9810 C   0  0  0  0  0  2  0  0  0  0  0  0
  181.1160  179.1550  140.7230 O   0  0  0  0  0  0  0  0  0  0  0  0
  181.9740  178.9790  139.8120 C   0  0  0  0  0  0  0  0  0  0  0  0
  181.9260  181.1080  138.5830 C   0  0  0  0  0  1  0  0  0  0  0  0
  181.8840  179.6890  138.6160 O   0  0  0  0  0  0  0  0  0  0  0  0
  182.5790  176.5430  139.8640 C   0  0  0  0  0  2  0  0  0  0  0  0
  180.5540  175.3130  139.2100 C   0  0  0  0  0  3  0  0  0  0  0  0
  180.5910  174.3690  138.3040 C   0  0  0  0  0  3  0  0  0  0  0  0
  181.4780  176.3960  138.8130 C   0  0  2  0  0  3  0  0  0  0  0  0
  181.5420  174.7620  137.2430 C   0  0  1  0  0  3  0  0  0  0  0  0
  182.0340  176.0480  137.5610 O   0  0  0  0  0  0  0  0  0  0  0  0
  182.6480  173.8150  137.2040 N   0  0  0  0  0  2  0  0  0  0  0  0
  183.8270  174.2700  135.0300 C   0  0  0  0  0  2  0  0  0  0  0  0
  182.8930  173.4420  135.8180 C   0  0  1  0  0  0  0  0  0  0  0  0
  184.2330  173.0630  135.6390 O   0  0  0  0  0  0  0  0  0  0  0  0
  181.9520  172.4540  135.1470 C   0  0  0  0  0  2  0  0  0  0  0  0
  181.4860  171.5220  136.0730 O   0  0  0  0  0  0  0  0  0  0  0  0
  182.5330  170.7710  136.3460 O   0  0  0  0  0  1  0  0  0  0  0  0
  186.0490  177.5300  145.7900 C   0  0  0  0  0  2  0  0  0  0  0  0
  187.0510  177.3980  146.7540 O   0  0  0  0  0  1  0  0  0  0  0  0
  187.5740  177.2630  143.7930 C   0  0  0  0  0  2  0  0  0  0  0  0
  189.0160  177.6620  144.0870 C   0  0  0  0  0  2  0  0  0  0  0  0
  189.7500  178.1600  142.8480 C   0  0  0  0  0  2  0  0  0  0  0  0
  189.9430  177.0440  141.8290 C   0  0  1  0  0  3  0  0  0  0  0  0
  190.0390  175.8180  142.4610 F   0  0  0  0  0  0  0  0  0  0  0  0
  188.8770  177.0260  140.8860 O   0  0  0  0  0  0  0  0  0  0  0  0
  189.0730  177.3450  139.5430 C   0  0  0  0  0  0  0  0  0  0  0  0
  188.9830  179.3450  138.4600 O   0  0  0  0  0  1  0  0  0  0  0  0
  188.6800  177.9910  138.3680 C   0  0  1  0  0  3  0  0  0  0  0  0
  189.8660  177.2520  138.3390 C   0  0  0  0  0  0  0  0  0  0  0  0
  191.0770  176.7590  137.6220 C   0  0  0  0  0  2  0  0  0  0  0  0
  191.2180  175.2400  137.7290 C   0  0  1  0  0  3  0  0  0  0  0  0
  189.9950  174.5440  137.1620 C   0  0  0  0  0  1  0  0  0  0  0  0
  192.3900  174.7860  137.0560 O   0  0  0  0  0  0  0  0  0  0  0  0
  193.6780  175.2010  137.4120 C   0  0  0  0  0  0  0  0  0  0  0  0
  194.1540  176.2450  136.8930 O   0  0  0  0  0  0  0  0  0  0  0  0
  194.5080  174.4240  138.3850 C   0  0  0  0  0  2  0  0  0  0  0  0
  196.9900  174.3460  138.3700 C   0  0  0  0  0  1  0  0  0  0  0  0
  195.7300  173.8410  137.6940 C   0  0  1  0  0  3  0  0  0  0  0  0
  195.6950  172.3270  137.7780 C   0  0  0  0  0  2  0  0  0  0  0  0
  194.4630  171.9420  135.7740 O   0  0  0  0  0  0  0  0  0  0  0  0
  195.5260  171.7380  136.4180 C   0  0  0  0  0  0  0  0  0  0  0  0
  196.5250  170.9370  135.8740 O   0  0  0  0  0  1  0  0  0  0  0  0
  1 30  1  6  0  0  0
  1 28  1  0  0  0  0
  2  3  2  0  0  0  0
  4  2  2  0  0  0  0
  4  1  1  0  0  0  0
  5 15  1  6  0  0  0
  5  7  1  0  0  0  0
  6  4  1  0  0  0  0
  8  9  1  0  0  0  0
  9  7  1  0  0  0  0
  9  6  2  0  0  0  0
 10  8  1  0  0  0  0
 10  5  1  0  0  0  0
 12  5  1  0  0  0  0
 12 11  2  0  0  0  0
 13 14  1  0  0  0  0
 14 12  1  0  0  0  0
 17 16  2  0  0  0  0
 18 16  1  0  0  0  0
 18 15  1  1  0  0  0
 19 21  1  1  0  0  0
 19 20  1  0  0  0  0
 19 17  1  0  0  0  0
 20 18  1  0  0  0  0
 22 24  1  0  0  0  0
 22 23  1  0  0  0  0
 23 25  1  6  0  0  0
 23 21  1  0  0  0  0
 24 23  1  0  0  0  0
 25 26  1  0  0  0  0
 26 27  1  0  0  0  0
 28 29  1  0  0  0  0
 30 31  1  0  0  0  0
 32 31  1  0  0  0  0
 33 34  1  1  0  0  0
 33 32  1  0  0  0  0
 35 33  1  0  0  0  0
 36 35  1  0  0  0  0
 38 37  1  1  0  0  0
 38 36  1  0  0  0  0
 39 38  1  0  0  0  0
 39 36  2  0  0  0  0
 40 41  1  0  0  0  0
 40 39  1  0  0  0  0
 41 42  1  6  0  0  0
 43 44  1  0  0  0  0
 43 41  1  0  0  0  0
 44 46  1  0  0  0  0
 45 44  2  0  0  0  0
 48 49  1  0  0  0  0
 48 47  1  1  0  0  0
 48 46  1  0  0  0  0
 50 51  2  0  0  0  0
 51 49  1  0  0  0  0
 52 51  1  0  0  0  0
M  END
>  <MODEL>
8

>  <REMARK>
 VINA RESULT:      -5.2      3.394      5.373
  Name = 
  25 active torsions:
  status: ('A' for Active; 'I' for Inactive)
    1  A    between atoms: C_1  and  C_19
    2  A    between atoms: C_1  and  C_29
    3  A    between atoms: C_2  and  C_28
    4  A    between atoms: C_3  and  C_11
    5  A    between atoms: C_4  and  C_9
    6  A    between atoms: C_4  and  O_10
    7  A    between atoms: O_5  and  C_33
    8  A    between atoms: N_8  and  C_34
    9  A    between atoms: N_8  and  C_43
   10  A    between atoms: C_9  and  C_27
   11  A    between atoms: O_10  and  C_15
   12  A    between atoms: C_11  and  C_17
   13  A    between atoms: C_11  and  C_28
   14  A    between atoms: C_17  and  C_27
   15  A    between atoms: C_19  and  C_32
   16  A    between atoms: C_21  and  C_36
   17  A    between atoms: C_21  and  O_50
   18  A    between atoms: C_23  and  C_42
   19  A    between atoms: C_23  and  O_50
   20  A    between atoms: O_25  and  C_29
   21  A    between atoms: C_30  and  C_35
   22  A    between atoms: C_30  and  C_51
   23  A    between atoms: C_33  and  C_43
   24  A    between atoms: C_35  and  C_36
   25  A    between atoms: C_42  and  C_48
                            x       y       z     vdW  Elec       q    Type
                         _______ _______ _______ _____ _____    ______ ____

>  <TORSDO>
F 25

$$$$
=
 OpenBabel11062413513D

 52 55  0  0  1  0  0  0  0  0999 V2000
  183.2540  176.7980  137.7100 C   0  0  1  0  0  3  0  0  0  0  0  0
  184.5790  174.9910  136.8160 C   0  0  0  0  0  0  0  0  0  0  0  0
  184.7470  173.7660  136.7510 O   0  0  0  0  0  0  0  0  0  0  0  0
  184.4070  176.2850  136.8950 C   0  0  0  0  0  0  0  0  0  0  0  0
  188.7690  176.2930  137.1640 C   0  0  2  0  0  0  0  0  0  0  0  0
  185.4000  177.2270  136.3350 C   0  0  0  0  0  3  0  0  0  0  0  0
  187.3620  176.1100  137.1480 O   0  0  0  0  0  0  0  0  0  0  0  0
  187.6650  178.1580  136.0060 C   0  0  0  0  0  2  0  0  0  0  0  0
  186.7200  177.1460  136.5040 C   0  0  0  0  0  0  0  0  0  0  0  0
  188.9950  177.7060  136.6050 C   0  0  0  0  0  2  0  0  0  0  0  0
  190.5000  175.6360  135.6430 O   0  0  0  0  0  0  0  0  0  0  0  0
  189.4530  175.3010  136.2650 C   0  0  0  0  0  0  0  0  0  0  0  0
  189.7060  172.9350  135.6420 C   0  0  0  0  0  1  0  0  0  0  0  0
  188.9180  174.0230  136.1030 O   0  0  0  0  0  0  0  0  0  0  0  0
  189.2980  176.2140  138.5980 C   0  0  0  0  0  2  0  0  0  0  0  0
  191.5950  177.0350  138.8990 C   0  0  0  0  0  3  0  0  0  0  0  0
  192.1340  177.1350  140.0880 C   0  0  0  0  0  3  0  0  0  0  0  0
  190.1680  177.4100  138.9860 C   0  0  2  0  0  3  0  0  0  0  0  0
  191.1000  177.5850  141.0450 C   0  0  1  0  0  3  0  0  0  0  0  0
  189.9060  177.7980  140.3190 O   0  0  0  0  0  0  0  0  0  0  0  0
  190.8820  176.5510  142.0480 N   0  0  0  0  0  2  0  0  0  0  0  0
  188.4700  176.9830  142.6120 C   0  0  0  0  0  2  0  0  0  0  0  0
  189.8920  177.0310  143.0030 C   0  0  1  0  0  0  0  0  0  0  0  0
  189.0570  175.9810  143.4150 O   0  0  0  0  0  0  0  0  0  0  0  0
  190.3600  177.8560  144.1910 C   0  0  0  0  0  2  0  0  0  0  0  0
  191.6770  177.5370  144.5150 O   0  0  0  0  0  0  0  0  0  0  0  0
  191.7040  177.5350  145.8320 O   0  0  0  0  0  1  0  0  0  0  0  0
  182.1380  177.3830  136.8460 C   0  0  0  0  0  2  0  0  0  0  0  0
  182.4820  177.3620  135.4930 O   0  0  0  0  0  1  0  0  0  0  0  0
  182.7290  175.7280  138.6630 C   0  0  0  0  0  2  0  0  0  0  0  0
  181.2530  175.4390  138.4120 C   0  0  0  0  0  2  0  0  0  0  0  0
  180.3350  176.2450  139.3230 C   0  0  0  0  0  2  0  0  0  0  0  0
  179.5640  175.3420  140.2770 C   0  0  1  0  0  3  0  0  0  0  0  0
  180.1900  174.1150  140.4000 F   0  0  0  0  0  0  0  0  0  0  0  0
  179.4270  175.9520  141.5560 O   0  0  0  0  0  0  0  0  0  0  0  0
  179.6890  177.3060  141.7600 C   0  0  0  0  0  0  0  0  0  0  0  0
  178.9350  178.7420  143.3580 O   0  0  0  0  0  1  0  0  0  0  0  0
  179.2600  178.6120  142.0120 C   0  0  1  0  0  3  0  0  0  0  0  0
  180.6340  178.3920  141.8860 C   0  0  0  0  0  0  0  0  0  0  0  0
  182.0400  178.8870  141.9030 C   0  0  0  0  0  2  0  0  0  0  0  0
  182.6550  178.8970  140.5030 C   0  0  1  0  0  3  0  0  0  0  0  0
  181.8040  179.7140  139.5480 C   0  0  0  0  0  1  0  0  0  0  0  0
  183.9840  179.4130  140.5310 O   0  0  0  0  0  0  0  0  0  0  0  0
  185.0330  178.7690  141.1960 C   0  0  0  0  0  0  0  0  0  0  0  0
  186.1620  178.6990  140.6440 O   0  0  0  0  0  0  0  0  0  0  0  0
  184.8380  178.1490  142.5440 C   0  0  0  0  0  2  0  0  0  0  0  0
  184.7440  180.1950  143.9490 C   0  0  0  0  0  1  0  0  0  0  0  0
  185.5560  178.9600  143.6110 C   0  0  1  0  0  3  0  0  0  0  0  0
  185.7300  178.1230  144.8630 C   0  0  0  0  0  2  0  0  0  0  0  0
  183.6440  178.7920  145.8010 O   0  0  0  0  0  0  0  0  0  0  0  0
  184.8850  178.6620  145.9680 C   0  0  0  0  0  0  0  0  0  0  0  0
  185.4690  179.0510  147.1690 O   0  0  0  0  0  1  0  0  0  0  0  0
  1 28  1  6  0  0  0
  1 30  1  0  0  0  0
  2  4  2  0  0  0  0
  3  2  2  0  0  0  0
  4  1  1  0  0  0  0
  5 15  1  1  0  0  0
  6  9  2  0  0  0  0
  6  4  1  0  0  0  0
  7  5  1  0  0  0  0
  8  9  1  0  0  0  0
  8 10  1  0  0  0  0
  9  7  1  0  0  0  0
 10  5  1  0  0  0  0
 11 12  2  0  0  0  0
 12  5  1  0  0  0  0
 13 14  1  0  0  0  0
 14 12  1  0  0  0  0
 16 18  1  0  0  0  0
 16 17  2  0  0  0  0
 17 19  1  0  0  0  0
 18 15  1  1  0  0  0
 18 20  1  0  0  0  0
 19 21  1  1  0  0  0
 20 19  1  0  0  0  0
 21 23  1  0  0  0  0
 22 23  1  0  0  0  0
 22 24  1  0  0  0  0
 23 24  1  0  0  0  0
 23 25  1  1  0  0  0
 25 26  1  0  0  0  0
 26 27  1  0  0  0  0
 29 28  1  0  0  0  0
 31 30  1  0  0  0  0
 31 32  1  0  0  0  0
 32 33  1  0  0  0  0
 33 34  1  1  0  0  0
 33 35  1  0  0  0  0
 35 36  1  0  0  0  0
 36 39  2  0  0  0  0
 36 38  1  0  0  0  0
 38 37  1  1  0  0  0
 39 40  1  0  0  0  0
 39 38  1  0  0  0  0
 41 42  1  6  0  0  0
 41 43  1  0  0  0  0
 41 40  1  0  0  0  0
 43 44  1  0  0  0  0
 44 46  1  0  0  0  0
 45 44  2  0  0  0  0
 46 48  1  0  0  0  0
 48 47  1  1  0  0  0
 48 49  1  0  0  0  0
 49 51  1  0  0  0  0
 50 51  2  0  0  0  0
 51 52  1  0  0  0  0
M  END
>  <MODEL>
9

>  <REMARK>
 VINA RESULT:      -5.1      2.874      9.311
  Name = 
  25 active torsions:
  status: ('A' for Active; 'I' for Inactive)
    1  A    between atoms: C_1  and  C_19
    2  A    between atoms: C_1  and  C_29
    3  A    between atoms: C_2  and  C_28
    4  A    between atoms: C_3  and  C_11
    5  A    between atoms: C_4  and  C_9
    6  A    between atoms: C_4  and  O_10
    7  A    between atoms: O_5  and  C_33
    8  A    between atoms: N_8  and  C_34
    9  A    between atoms: N_8  and  C_43
   10  A    between atoms: C_9  and  C_27
   11  A    between atoms: O_10  and  C_15
   12  A    between atoms: C_11  and  C_17
   13  A    between atoms: C_11  and  C_28
   14  A    between atoms: C_17  and  C_27
   15  A    between atoms: C_19  and  C_32
   16  A    between atoms: C_21  and  C_36
   17  A    between atoms: C_21  and  O_50
   18  A    between atoms: C_23  and  C_42
   19  A    between atoms: C_23  and  O_50
   20  A    between atoms: O_25  and  C_29
   21  A    between atoms: C_30  and  C_35
   22  A    between atoms: C_30  and  C_51
   23  A    between atoms: C_33  and  C_43
   24  A    between atoms: C_35  and  C_36
   25  A    between atoms: C_42  and  C_48
                            x       y       z     vdW  Elec       q    Type
                         _______ _______ _______ _____ _____    ______ ____

>  <TORSDO>
F 25

$$$$
