=
 OpenBabel11062413443D

 35 39  0  0  1  0  0  0  0  0999 V2000
  187.6220  177.7650  143.2460 C   0  0  0  0  0  2  0  0  0  0  0  0
  189.4870  176.4540  142.0390 C   0  0  2  0  0  3  0  0  0  0  0  0
  188.3160  178.7840  142.3600 C   0  0  0  0  0  2  0  0  0  0  0  0
  189.1010  177.6150  142.9390 C   0  0  0  0  0  0  0  0  0  0  0  0
  190.1430  177.8730  144.0370 C   0  0  2  0  0  0  0  0  0  0  0  0
  190.6360  179.1780  143.9210 O   0  0  0  0  0  1  0  0  0  0  0  0
  190.6390  175.8090  142.7990 C   0  0  0  0  0  2  0  0  0  0  0  0
  191.2570  176.8950  143.6800 C   0  0  0  0  0  2  0  0  0  0  0  0
  189.7680  178.4940  148.2590 C   0  0  0  0  0  2  0  0  0  0  0  0
  191.5030  176.0900  146.1020 C   0  0  0  0  0  3  0  0  0  0  0  0
  186.2800  177.3770  147.0170 C   0  0  0  0  0  1  0  0  0  0  0  0
  187.7910  177.3310  147.0980 C   0  0  2  0  0  3  0  0  0  0  0  0
  190.6000  176.9970  146.4730 C   0  0  0  0  0  0  0  0  0  0  0  0
  190.5210  177.3650  147.8240 O   0  0  0  0  0  0  0  0  0  0  0  0
  188.2620  178.2190  148.2530 C   0  0  0  0  0  2  0  0  0  0  0  0
  192.3670  175.5170  147.0290 O   0  0  0  0  0  1  0  0  0  0  0  0
  188.3740  177.7270  145.7710 C   0  0  0  0  0  3  0  0  0  0  0  0
  189.6750  177.5890  145.4640 C   0  0  0  0  0  0  0  0  0  0  0  0
  190.7150  177.0620  136.3700 O   0  0  0  0  0  1  0  0  0  0  0  0
  191.3730  177.0360  140.4820 O   0  0  0  0  0  0  0  0  0  0  0  0
  189.4200  177.4950  138.3230 C   0  0  0  0  0  2  0  0  0  0  0  0
  191.9160  177.3580  139.2920 O   0  0  0  0  0  0  0  0  0  0  0  0
  190.3800  176.5300  137.6170 C   0  0  2  0  0  3  0  0  0  0  0  0
  191.6470  176.2700  138.4530 C   0  0  1  0  0  3  0  0  0  0  0  0
  189.9840  176.8970  140.6960 C   0  0  0  0  0  0  0  0  0  0  0  0
  189.0810  177.0710  139.7210 C   0  0  0  0  0  3  0  0  0  0  0  0
  192.7780  175.9810  137.6390 O   0  0  0  0  0  0  0  0  0  0  0  0
  197.0870  175.5840  140.4210 N   0  0  0  0  0  1  0  0  0  0  0  0
  195.9800  172.1690  137.9110 C   0  0  0  0  0  1  0  0  0  0  0  0
  195.5700  174.4030  139.0700 C   0  0  0  0  0  0  0  0  0  0  0  0
  193.8050  175.1430  138.0740 C   0  0  0  0  0  0  0  0  0  0  0  0
  195.1430  173.2850  138.3120 N   0  0  0  0  0  0  0  0  0  0  0  0
  193.9670  173.7300  137.5850 C   0  0  0  0  0  2  0  0  0  0  0  0
  196.6790  174.4310  139.7390 N   0  0  0  0  0  0  0  0  0  0  0  0
  194.7160  175.5230  138.9150 N   0  0  0  0  0  0  0  0  0  0  0  0
  2 25  1  6  0  0  0
  2  7  1  0  0  0  0
  2  4  1  0  0  0  0
  3  4  1  0  0  0  0
  3  1  1  0  0  0  0
  4  1  1  0  0  0  0
  4  5  1  0  0  0  0
  5  6  1  6  0  0  0
  5 18  1  0  0  0  0
  7  8  1  0  0  0  0
  8  5  1  0  0  0  0
 10 13  2  0  0  0  0
 10 16  1  0  0  0  0
 12 11  1  6  0  0  0
 12 15  1  0  0  0  0
 13 14  1  0  0  0  0
 14  9  1  0  0  0  0
 15  9  1  0  0  0  0
 17 12  1  0  0  0  0
 18 17  2  0  0  0  0
 18 13  1  0  0  0  0
 20 25  1  0  0  0  0
 21 26  1  0  0  0  0
 22 20  1  0  0  0  0
 23 19  1  6  0  0  0
 23 21  1  0  0  0  0
 23 24  1  0  0  0  0
 24 27  1  6  0  0  0
 24 22  1  0  0  0  0
 26 25  2  0  0  0  0
 27 31  1  0  0  0  0
 29 32  1  0  0  0  0
 30 34  2  0  0  0  0
 31 35  2  0  0  0  0
 32 30  1  0  0  0  0
 33 31  1  0  0  0  0
 33 32  1  0  0  0  0
 34 28  1  0  0  0  0
 35 30  1  0  0  0  0
M  END
>  <MODEL>
1

>  <REMARK>
 VINA RESULT:      -9.9      0.000      0.000
  Name = 
  4 active torsions:
  status: ('A' for Active; 'I' for Inactive)
    1  A    between atoms: C_2  and  C_31
    2  A    between atoms: C_14  and  C_30
    3  A    between atoms: C_17  and  O_19
    4  A    between atoms: O_19  and  C_29
                            x       y       z     vdW  Elec       q    Type
                         _______ _______ _______ _____ _____    ______ ____

>  <TORSDO>
F 4

$$$$
=
 OpenBabel11062413443D

 35 39  0  0  1  0  0  0  0  0999 V2000
  190.8000  179.3760  144.1320 C   0  0  0  0  0  2  0  0  0  0  0  0
  189.1840  178.2530  142.4650 C   0  0  2  0  0  3  0  0  0  0  0  0
  191.6910  178.7420  143.0780 C   0  0  0  0  0  2  0  0  0  0  0  0
  190.3510  178.1100  143.4260 C   0  0  0  0  0  0  0  0  0  0  0  0
  190.3180  176.7770  144.1880 C   0  0  2  0  0  0  0  0  0  0  0  0
  191.4900  176.0570  143.9280 O   0  0  0  0  0  1  0  0  0  0  0  0
  188.2650  177.1110  142.8800 C   0  0  0  0  0  2  0  0  0  0  0  0
  189.1430  176.0500  143.5440 C   0  0  0  0  0  2  0  0  0  0  0  0
  190.5410  178.4970  148.1060 C   0  0  0  0  0  2  0  0  0  0  0  0
  191.9960  175.5770  146.4330 C   0  0  0  0  0  3  0  0  0  0  0  0
  186.9350  177.1560  147.7180 C   0  0  0  0  0  1  0  0  0  0  0  0
  188.4420  177.1060  147.5890 C   0  0  2  0  0  3  0  0  0  0  0  0
  191.1390  176.5660  146.6770 C   0  0  0  0  0  0  0  0  0  0  0  0
  191.2470  177.2790  147.8800 O   0  0  0  0  0  0  0  0  0  0  0  0
  189.0550  178.2580  148.3900 C   0  0  0  0  0  2  0  0  0  0  0  0
  192.9960  175.2530  147.3440 O   0  0  0  0  0  1  0  0  0  0  0  0
  188.8210  177.1260  146.1360 C   0  0  0  0  0  3  0  0  0  0  0  0
  190.0660  176.8880  145.6920 C   0  0  0  0  0  0  0  0  0  0  0  0
  189.4700  176.8870  136.8020 O   0  0  0  0  0  1  0  0  0  0  0  0
  190.7670  177.3550  140.7320 O   0  0  0  0  0  0  0  0  0  0  0  0
  188.9830  178.3580  138.6120 C   0  0  0  0  0  2  0  0  0  0  0  0
  191.1670  177.0670  139.4770 O   0  0  0  0  0  0  0  0  0  0  0  0
  189.1460  176.9020  138.1600 C   0  0  2  0  0  3  0  0  0  0  0  0
  190.2170  176.1640  138.9820 C   0  0  1  0  0  3  0  0  0  0  0  0
  189.5800  178.0560  141.0320 C   0  0  0  0  0  0  0  0  0  0  0  0
  188.7380  178.4940  140.0860 C   0  0  0  0  0  3  0  0  0  0  0  0
  190.8560  175.1360  138.2340 O   0  0  0  0  0  0  0  0  0  0  0  0
  195.9000  174.5750  139.0740 N   0  0  0  0  0  1  0  0  0  0  0  0
  194.6800  176.7200  135.4550 C   0  0  0  0  0  1  0  0  0  0  0  0
  194.2890  175.2540  137.5040 C   0  0  0  0  0  0  0  0  0  0  0  0
  192.1430  175.2900  137.7170 C   0  0  0  0  0  0  0  0  0  0  0  0
  193.8630  175.8710  136.3020 N   0  0  0  0  0  0  0  0  0  0  0  0
  192.4160  175.9570  136.3970 C   0  0  0  0  0  2  0  0  0  0  0  0
  195.5340  175.1370  137.8450 N   0  0  0  0  0  0  0  0  0  0  0  0
  193.2060  174.8940  138.3440 N   0  0  0  0  0  0  0  0  0  0  0  0
  2 25  1  6  0  0  0
  2  7  1  0  0  0  0
  2  4  1  0  0  0  0
  3  4  1  0  0  0  0
  3  1  1  0  0  0  0
  4  1  1  0  0  0  0
  4  5  1  0  0  0  0
  5  6  1  6  0  0  0
  5 18  1  0  0  0  0
  7  8  1  0  0  0  0
  8  5  1  0  0  0  0
  9 15  1  0  0  0  0
 10 13  2  0  0  0  0
 10 16  1  0  0  0  0
 12 11  1  6  0  0  0
 12 15  1  0  0  0  0
 13 14  1  0  0  0  0
 14  9  1  0  0  0  0
 17 12  1  0  0  0  0
 18 17  2  0  0  0  0
 18 13  1  0  0  0  0
 20 25  1  0  0  0  0
 21 26  1  0  0  0  0
 22 20  1  0  0  0  0
 23 19  1  6  0  0  0
 23 21  1  0  0  0  0
 23 24  1  0  0  0  0
 24 27  1  6  0  0  0
 24 22  1  0  0  0  0
 26 25  2  0  0  0  0
 29 32  1  0  0  0  0
 30 34  2  0  0  0  0
 30 35  1  0  0  0  0
 31 27  1  0  0  0  0
 31 35  2  0  0  0  0
 32 33  1  0  0  0  0
 32 30  1  0  0  0  0
 33 31  1  0  0  0  0
 34 28  1  0  0  0  0
M  END
>  <MODEL>
2

>  <REMARK>
 VINA RESULT:      -9.8      1.470      2.061
  Name = 
  4 active torsions:
  status: ('A' for Active; 'I' for Inactive)
    1  A    between atoms: C_2  and  C_31
    2  A    between atoms: C_14  and  C_30
    3  A    between atoms: C_17  and  O_19
    4  A    between atoms: O_19  and  C_29
                            x       y       z     vdW  Elec       q    Type
                         _______ _______ _______ _____ _____    ______ ____

>  <TORSDO>
F 4

$$$$
=
 OpenBabel11062413443D

 35 39  0  0  1  0  0  0  0  0999 V2000
  187.8050  177.6050  143.1830 C   0  0  0  0  0  2  0  0  0  0  0  0
  189.8550  176.4160  142.1650 C   0  0  2  0  0  3  0  0  0  0  0  0
  188.4870  178.6530  142.3210 C   0  0  0  0  0  2  0  0  0  0  0  0
  189.3110  177.5650  142.9950 C   0  0  0  0  0  0  0  0  0  0  0  0
  190.2400  177.9320  144.1620 C   0  0  2  0  0  0  0  0  0  0  0  0
  190.6390  179.2680  144.0440 O   0  0  0  0  0  1  0  0  0  0  0  0
  190.9890  175.8820  143.0310 C   0  0  0  0  0  2  0  0  0  0  0  0
  191.4500  177.0360  143.9220 C   0  0  0  0  0  2  0  0  0  0  0  0
  189.5990  178.5540  148.3520 C   0  0  0  0  0  2  0  0  0  0  0  0
  191.4690  176.1510  146.3090 C   0  0  0  0  0  3  0  0  0  0  0  0
  186.1980  177.4310  146.8930 C   0  0  0  0  0  1  0  0  0  0  0  0
  187.7000  177.3880  147.0690 C   0  0  2  0  0  3  0  0  0  0  0  0
  190.5440  177.0560  146.6220 C   0  0  0  0  0  0  0  0  0  0  0  0
  190.3800  177.4260  147.9660 O   0  0  0  0  0  0  0  0  0  0  0  0
  188.0960  178.2760  148.2510 C   0  0  0  0  0  2  0  0  0  0  0  0
  192.2740  175.5790  147.2890 O   0  0  0  0  0  1  0  0  0  0  0  0
  188.3660  177.7830  145.7810 C   0  0  0  0  0  3  0  0  0  0  0  0
  189.6830  177.6470  145.5570 C   0  0  0  0  0  0  0  0  0  0  0  0
  191.5050  176.9610  136.5970 O   0  0  0  0  0  1  0  0  0  0  0  0
  191.8040  177.1310  140.7470 O   0  0  0  0  0  0  0  0  0  0  0  0
  190.0100  177.3260  138.4170 C   0  0  0  0  0  2  0  0  0  0  0  0
  192.4150  177.4670  139.5940 O   0  0  0  0  0  0  0  0  0  0  0  0
  191.1160  176.4390  137.8330 C   0  0  2  0  0  3  0  0  0  0  0  0
  192.3240  176.3310  138.7800 C   0  0  1  0  0  3  0  0  0  0  0  0
  190.4220  176.8620  140.8500 C   0  0  0  0  0  0  0  0  0  0  0  0
  189.5940  176.9150  139.7980 C   0  0  0  0  0  3  0  0  0  0  0  0
  193.5440  176.1300  138.0760 O   0  0  0  0  0  0  0  0  0  0  0  0
  192.3980  171.8850  135.4060 N   0  0  0  0  0  1  0  0  0  0  0  0
  195.9770  171.7810  137.9280 C   0  0  0  0  0  1  0  0  0  0  0  0
  194.0350  172.9220  136.7330 C   0  0  0  0  0  0  0  0  0  0  0  0
  193.9650  174.8610  137.6760 C   0  0  0  0  0  0  0  0  0  0  0  0
  195.2300  172.9470  137.4930 N   0  0  0  0  0  0  0  0  0  0  0  0
  195.2280  174.2240  138.1860 C   0  0  0  0  0  2  0  0  0  0  0  0
  193.6180  171.8770  136.0910 N   0  0  0  0  0  0  0  0  0  0  0  0
  193.2890  174.1210  136.8530 N   0  0  0  0  0  0  0  0  0  0  0  0
  2 25  1  6  0  0  0
  2  4  1  0  0  0  0
  2  7  1  0  0  0  0
  3  4  1  0  0  0  0
  3  1  1  0  0  0  0
  4  1  1  0  0  0  0
  4  5  1  0  0  0  0
  5  6  1  6  0  0  0
  5 18  1  0  0  0  0
  7  8  1  0  0  0  0
  8  5  1  0  0  0  0
 10 13  2  0  0  0  0
 10 16  1  0  0  0  0
 12 11  1  6  0  0  0
 12 15  1  0  0  0  0
 13 14  1  0  0  0  0
 14  9  1  0  0  0  0
 15  9  1  0  0  0  0
 17 12  1  0  0  0  0
 18 17  2  0  0  0  0
 18 13  1  0  0  0  0
 20 25  1  0  0  0  0
 21 26  1  0  0  0  0
 22 20  1  0  0  0  0
 23 19  1  6  0  0  0
 23 21  1  0  0  0  0
 23 24  1  0  0  0  0
 24 27  1  6  0  0  0
 24 22  1  0  0  0  0
 26 25  2  0  0  0  0
 28 34  1  0  0  0  0
 30 35  1  0  0  0  0
 30 32  1  0  0  0  0
 31 27  1  0  0  0  0
 31 33  1  0  0  0  0
 32 29  1  0  0  0  0
 32 33  1  0  0  0  0
 34 30  2  0  0  0  0
 35 31  2  0  0  0  0
M  END
>  <MODEL>
3

>  <REMARK>
 VINA RESULT:      -9.0      1.136      1.827
  Name = 
  4 active torsions:
  status: ('A' for Active; 'I' for Inactive)
    1  A    between atoms: C_2  and  C_31
    2  A    between atoms: C_14  and  C_30
    3  A    between atoms: C_17  and  O_19
    4  A    between atoms: O_19  and  C_29
                            x       y       z     vdW  Elec       q    Type
                         _______ _______ _______ _____ _____    ______ ____

>  <TORSDO>
F 4

$$$$
=
 OpenBabel11062413443D

 35 39  0  0  1  0  0  0  0  0999 V2000
  190.5580  179.4180  143.9900 C   0  0  0  0  0  2  0  0  0  0  0  0
  189.1940  178.0660  142.2680 C   0  0  2  0  0  3  0  0  0  0  0  0
  191.5810  178.8780  143.0050 C   0  0  0  0  0  2  0  0  0  0  0  0
  190.3110  178.0900  143.2960 C   0  0  0  0  0  0  0  0  0  0  0  0
  190.4000  176.7800  144.0920 C   0  0  2  0  0  0  0  0  0  0  0  0
  191.6650  176.2070  143.9170 O   0  0  0  0  0  1  0  0  0  0  0  0
  188.4010  176.8270  142.6630 C   0  0  0  0  0  2  0  0  0  0  0  0
  189.3640  175.8980  143.4040 C   0  0  0  0  0  2  0  0  0  0  0  0
  190.3630  178.4960  148.0170 C   0  0  0  0  0  2  0  0  0  0  0  0
  191.9260  175.5770  146.4410 C   0  0  0  0  0  3  0  0  0  0  0  0
  186.7900  177.1560  147.3900 C   0  0  0  0  0  1  0  0  0  0  0  0
  188.3020  177.1060  147.3610 C   0  0  2  0  0  3  0  0  0  0  0  0
  191.0540  176.5660  146.6300 C   0  0  0  0  0  0  0  0  0  0  0  0
  191.0820  177.2790  147.8380 O   0  0  0  0  0  0  0  0  0  0  0  0
  188.8620  178.2570  148.2020 C   0  0  0  0  0  2  0  0  0  0  0  0
  192.8630  175.2520  147.4160 O   0  0  0  0  0  1  0  0  0  0  0  0
  188.7770  177.1270  145.9360 C   0  0  0  0  0  3  0  0  0  0  0  0
  190.0490  176.8900  145.5750 C   0  0  0  0  0  0  0  0  0  0  0  0
  189.8080  177.0630  136.5560 O   0  0  0  0  0  1  0  0  0  0  0  0
  190.7440  176.9820  140.6130 O   0  0  0  0  0  0  0  0  0  0  0  0
  189.4310  178.4750  138.4370 C   0  0  0  0  0  2  0  0  0  0  0  0
  191.2110  176.7050  139.3790 O   0  0  0  0  0  0  0  0  0  0  0  0
  189.3500  177.0520  137.8750 C   0  0  2  0  0  3  0  0  0  0  0  0
  190.1600  176.0540  138.7210 C   0  0  1  0  0  3  0  0  0  0  0  0
  189.6940  177.8910  140.8650 C   0  0  0  0  0  0  0  0  0  0  0  0
  189.0630  178.5570  139.8890 C   0  0  0  0  0  3  0  0  0  0  0  0
  190.6580  174.9700  137.9460 O   0  0  0  0  0  0  0  0  0  0  0  0
  185.9740  172.8730  137.5960 N   0  0  0  0  0  1  0  0  0  0  0  0
  189.0400  171.4460  134.8130 C   0  0  0  0  0  1  0  0  0  0  0  0
  188.0770  173.0320  136.5620 C   0  0  0  0  0  0  0  0  0  0  0  0
  189.8130  174.1340  137.2160 C   0  0  0  0  0  0  0  0  0  0  0  0
  189.0670  172.6500  135.6220 N   0  0  0  0  0  0  0  0  0  0  0  0
  190.2800  173.3370  136.0300 C   0  0  0  0  0  2  0  0  0  0  0  0
  186.8950  172.5050  136.6070 N   0  0  0  0  0  0  0  0  0  0  0  0
  188.5640  173.9580  137.5170 N   0  0  0  0  0  0  0  0  0  0  0  0
  2 25  1  6  0  0  0
  2  7  1  0  0  0  0
  2  4  1  0  0  0  0
  3  4  1  0  0  0  0
  3  1  1  0  0  0  0
  4  1  1  0  0  0  0
  4  5  1  0  0  0  0
  5  6  1  6  0  0  0
  5 18  1  0  0  0  0
  7  8  1  0  0  0  0
  8  5  1  0  0  0  0
  9 15  1  0  0  0  0
 10 13  2  0  0  0  0
 10 16  1  0  0  0  0
 12 11  1  6  0  0  0
 12 15  1  0  0  0  0
 13 14  1  0  0  0  0
 14  9  1  0  0  0  0
 17 12  1  0  0  0  0
 18 17  2  0  0  0  0
 18 13  1  0  0  0  0
 20 25  1  0  0  0  0
 21 26  1  0  0  0  0
 22 20  1  0  0  0  0
 23 19  1  6  0  0  0
 23 21  1  0  0  0  0
 23 24  1  0  0  0  0
 24 27  1  6  0  0  0
 24 22  1  0  0  0  0
 26 25  2  0  0  0  0
 29 32  1  0  0  0  0
 30 34  2  0  0  0  0
 30 35  1  0  0  0  0
 31 35  2  0  0  0  0
 31 27  1  0  0  0  0
 32 33  1  0  0  0  0
 32 30  1  0  0  0  0
 33 31  1  0  0  0  0
 34 28  1  0  0  0  0
M  END
>  <MODEL>
4

>  <REMARK>
 VINA RESULT:      -8.8      3.296      4.004
  Name = 
  4 active torsions:
  status: ('A' for Active; 'I' for Inactive)
    1  A    between atoms: C_2  and  C_31
    2  A    between atoms: C_14  and  C_30
    3  A    between atoms: C_17  and  O_19
    4  A    between atoms: O_19  and  C_29
                            x       y       z     vdW  Elec       q    Type
                         _______ _______ _______ _____ _____    ______ ____

>  <TORSDO>
F 4

$$$$
=
 OpenBabel11062413443D

 35 39  0  0  1  0  0  0  0  0999 V2000
  193.8120  175.4830  138.4540 C   0  0  0  0  0  2  0  0  0  0  0  0
  191.4990  174.7230  137.6030 C   0  0  2  0  0  3  0  0  0  0  0  0
  193.1590  176.7370  137.8990 C   0  0  0  0  0  2  0  0  0  0  0  0
  192.8350  175.3770  137.2980 C   0  0  0  0  0  0  0  0  0  0  0  0
  193.3450  175.0310  135.8920 C   0  0  2  0  0  0  0  0  0  0  0  0
  193.5150  176.2050  135.1490 O   0  0  0  0  0  1  0  0  0  0  0  0
  191.3490  173.7190  136.4680 C   0  0  0  0  0  2  0  0  0  0  0  0
  192.1850  174.2390  135.2980 C   0  0  0  0  0  2  0  0  0  0  0  0
  196.7080  172.8810  137.4490 C   0  0  0  0  0  2  0  0  0  0  0  0
  196.2220  175.9860  135.5610 C   0  0  0  0  0  3  0  0  0  0  0  0
  195.2560  170.7020  134.6020 C   0  0  0  0  0  1  0  0  0  0  0  0
  195.7030  171.9920  135.2550 C   0  0  2  0  0  3  0  0  0  0  0  0
  195.9580  174.7710  136.0380 C   0  0  0  0  0  0  0  0  0  0  0  0
  196.9730  174.0630  136.6990 O   0  0  0  0  0  0  0  0  0  0  0  0
  196.4610  171.6690  136.5460 C   0  0  0  0  0  2  0  0  0  0  0  0
  197.4780  176.5610  135.7180 O   0  0  0  0  0  1  0  0  0  0  0  0
  194.5120  172.8810  135.4740 C   0  0  0  0  0  3  0  0  0  0  0  0
  194.6060  174.1680  135.8460 C   0  0  0  0  0  0  0  0  0  0  0  0
  188.0320  179.3790  137.0390 O   0  0  0  0  0  1  0  0  0  0  0  0
  189.5430  175.8680  138.6910 O   0  0  0  0  0  0  0  0  0  0  0  0
  189.1000  177.4130  136.2210 C   0  0  0  0  0  2  0  0  0  0  0  0
  188.5360  176.7620  138.7590 O   0  0  0  0  0  0  0  0  0  0  0  0
  189.1360  178.5510  137.2470 C   0  0  2  0  0  3  0  0  0  0  0  0
  189.1500  178.0190  138.6920 C   0  0  1  0  0  3  0  0  0  0  0  0
  190.3510  175.6870  137.5480 C   0  0  0  0  0  0  0  0  0  0  0  0
  190.1870  176.4000  136.4250 C   0  0  0  0  0  3  0  0  0  0  0  0
  188.5320  178.9200  139.6030 O   0  0  0  0  0  0  0  0  0  0  0  0
  184.5690  178.7280  142.8770 N   0  0  0  0  0  1  0  0  0  0  0  0
  188.4900  177.4790  144.3750 C   0  0  0  0  0  1  0  0  0  0  0  0
  186.8170  178.1240  142.5630 C   0  0  0  0  0  0  0  0  0  0  0  0
  188.0820  178.5080  140.8580 C   0  0  0  0  0  0  0  0  0  0  0  0
  188.0800  177.6500  142.9940 N   0  0  0  0  0  0  0  0  0  0  0  0
  188.9930  177.9110  141.8950 C   0  0  0  0  0  2  0  0  0  0  0  0
  185.7780  178.1920  143.3340 N   0  0  0  0  0  0  0  0  0  0  0  0
  186.8490  178.6290  141.2390 N   0  0  0  0  0  0  0  0  0  0  0  0
  2 25  1  6  0  0  0
  3  1  1  0  0  0  0
  4  2  1  0  0  0  0
  4  3  1  0  0  0  0
  4  1  1  0  0  0  0
  5  6  1  6  0  0  0
  5  4  1  0  0  0  0
  7  2  1  0  0  0  0
  8  5  1  0  0  0  0
  8  7  1  0  0  0  0
 10 16  1  0  0  0  0
 10 13  2  0  0  0  0
 12 11  1  1  0  0  0
 12 17  1  0  0  0  0
 12 15  1  0  0  0  0
 13 14  1  0  0  0  0
 14  9  1  0  0  0  0
 15  9  1  0  0  0  0
 17 18  2  0  0  0  0
 18  5  1  0  0  0  0
 18 13  1  0  0  0  0
 20 22  1  0  0  0  0
 21 26  1  0  0  0  0
 21 23  1  0  0  0  0
 23 19  1  1  0  0  0
 23 24  1  0  0  0  0
 24 22  1  0  0  0  0
 24 27  1  1  0  0  0
 25 20  1  0  0  0  0
 26 25  2  0  0  0  0
 27 31  1  0  0  0  0
 28 34  1  0  0  0  0
 30 32  1  0  0  0  0
 30 34  2  0  0  0  0
 31 35  2  0  0  0  0
 31 33  1  0  0  0  0
 32 29  1  0  0  0  0
 33 32  1  0  0  0  0
 35 30  1  0  0  0  0
M  END
>  <MODEL>
5

>  <REMARK>
 VINA RESULT:      -8.6      4.390      9.689
  Name = 
  4 active torsions:
  status: ('A' for Active; 'I' for Inactive)
    1  A    between atoms: C_2  and  C_31
    2  A    between atoms: C_14  and  C_30
    3  A    between atoms: C_17  and  O_19
    4  A    between atoms: O_19  and  C_29
                            x       y       z     vdW  Elec       q    Type
                         _______ _______ _______ _____ _____    ______ ____

>  <TORSDO>
F 4

$$$$
=
 OpenBabel11062413443D

 35 39  0  0  1  0  0  0  0  0999 V2000
  180.1730  177.6150  139.1640 C   0  0  0  0  0  2  0  0  0  0  0  0
  182.0620  179.0060  140.2350 C   0  0  2  0  0  3  0  0  0  0  0  0
  180.9100  176.6500  140.0760 C   0  0  0  0  0  2  0  0  0  0  0  0
  181.6600  177.7960  139.4100 C   0  0  0  0  0  0  0  0  0  0  0  0
  182.6650  177.4930  138.2910 C   0  0  2  0  0  0  0  0  0  0  0  0
  183.1790  176.2010  138.4550 O   0  0  0  0  0  1  0  0  0  0  0  0
  183.1790  179.6240  139.4030 C   0  0  0  0  0  2  0  0  0  0  0  0
  183.7790  178.5000  138.5570 C   0  0  0  0  0  2  0  0  0  0  0  0
  180.2010  176.7940  134.8570 C   0  0  0  0  0  2  0  0  0  0  0  0
  183.7080  176.1910  135.7390 C   0  0  0  0  0  3  0  0  0  0  0  0
  180.5940  180.6310  135.1420 C   0  0  0  0  0  1  0  0  0  0  0  0
  181.0690  179.1940  135.1670 C   0  0  2  0  0  3  0  0  0  0  0  0
  182.4990  176.7480  135.7740 C   0  0  0  0  0  0  0  0  0  0  0  0
  181.5790  176.4450  134.7590 O   0  0  0  0  0  0  0  0  0  0  0  0
  179.9660  178.2880  134.6140 C   0  0  0  0  0  2  0  0  0  0  0  0
  184.0630  175.3110  134.7210 O   0  0  0  0  0  1  0  0  0  0  0  0
  181.4890  178.8310  136.5630 C   0  0  0  0  0  3  0  0  0  0  0  0
  182.1440  177.6980  136.8690 C   0  0  0  0  0  0  0  0  0  0  0  0
  184.1320  178.9480  145.6880 O   0  0  0  0  0  1  0  0  0  0  0  0
  183.8300  177.9290  141.6620 O   0  0  0  0  0  0  0  0  0  0  0  0
  182.3830  178.8000  144.0770 C   0  0  0  0  0  2  0  0  0  0  0  0
  184.4370  177.6170  142.8240 O   0  0  0  0  0  0  0  0  0  0  0  0
  183.7830  179.3370  144.3930 C   0  0  2  0  0  3  0  0  0  0  0  0
  184.8290  178.8420  143.3780 C   0  0  1  0  0  3  0  0  0  0  0  0
  182.6120  178.6380  141.5810 C   0  0  0  0  0  0  0  0  0  0  0  0
  181.9530  179.0700  142.6650 C   0  0  0  0  0  3  0  0  0  0  0  0
  186.1260  178.7310  143.9530 O   0  0  0  0  0  0  0  0  0  0  0  0
  188.4430  178.5050  139.3660 N   0  0  0  0  0  1  0  0  0  0  0  0
  190.0620  176.0000  142.5730 C   0  0  0  0  0  1  0  0  0  0  0  0
  188.6010  177.8590  141.6190 C   0  0  0  0  0  0  0  0  0  0  0  0
  187.2170  178.2540  143.2260 C   0  0  0  0  0  0  0  0  0  0  0  0
  189.1510  177.1230  142.6970 N   0  0  0  0  0  0  0  0  0  0  0  0
  188.2410  177.3200  143.8120 C   0  0  0  0  0  2  0  0  0  0  0  0
  189.0620  177.8070  140.4090 N   0  0  0  0  0  0  0  0  0  0  0  0
  187.4230  178.5570  141.9820 N   0  0  0  0  0  0  0  0  0  0  0  0
  1  4  1  0  0  0  0
  1  3  1  0  0  0  0
  2 25  1  1  0  0  0
  4  3  1  0  0  0  0
  4  2  1  0  0  0  0
  5  6  1  1  0  0  0
  5  8  1  0  0  0  0
  5  4  1  0  0  0  0
  7  2  1  0  0  0  0
  8  7  1  0  0  0  0
 10 13  2  0  0  0  0
 12 11  1  1  0  0  0
 12 17  1  0  0  0  0
 13 18  1  0  0  0  0
 14  9  1  0  0  0  0
 14 13  1  0  0  0  0
 15  9  1  0  0  0  0
 15 12  1  0  0  0  0
 16 10  1  0  0  0  0
 17 18  2  0  0  0  0
 18  5  1  0  0  0  0
 20 22  1  0  0  0  0
 21 23  1  0  0  0  0
 22 24  1  0  0  0  0
 23 19  1  1  0  0  0
 24 27  1  1  0  0  0
 24 23  1  0  0  0  0
 25 20  1  0  0  0  0
 25 26  2  0  0  0  0
 26 21  1  0  0  0  0
 28 34  1  0  0  0  0
 29 32  1  0  0  0  0
 30 35  1  0  0  0  0
 30 32  1  0  0  0  0
 31 33  1  0  0  0  0
 31 27  1  0  0  0  0
 32 33  1  0  0  0  0
 34 30  2  0  0  0  0
 35 31  2  0  0  0  0
M  END
>  <MODEL>
6

>  <REMARK>
 VINA RESULT:      -8.6      6.796     10.609
  Name = 
  4 active torsions:
  status: ('A' for Active; 'I' for Inactive)
    1  A    between atoms: C_2  and  C_31
    2  A    between atoms: C_14  and  C_30
    3  A    between atoms: C_17  and  O_19
    4  A    between atoms: O_19  and  C_29
                            x       y       z     vdW  Elec       q    Type
                         _______ _______ _______ _____ _____    ______ ____

>  <TORSDO>
F 4

$$$$
=
 OpenBabel11062413443D

 35 39  0  0  1  0  0  0  0  0999 V2000
  182.8290  175.8900  135.0830 C   0  0  0  0  0  2  0  0  0  0  0  0
  185.3140  175.8140  135.7690 C   0  0  2  0  0  3  0  0  0  0  0  0
  182.9780  176.9520  136.1580 C   0  0  0  0  0  2  0  0  0  0  0  0
  183.8570  175.7100  136.1850 C   0  0  0  0  0  0  0  0  0  0  0  0
  183.6360  174.6510  137.2750 C   0  0  2  0  0  0  0  0  0  0  0  0
  183.0790  175.2510  138.4100 O   0  0  0  0  0  1  0  0  0  0  0  0
  185.9350  174.5800  136.4090 C   0  0  0  0  0  2  0  0  0  0  0  0
  185.0570  174.2050  137.6030 C   0  0  0  0  0  2  0  0  0  0  0  0
  181.0600  172.3090  134.7780 C   0  0  0  0  0  2  0  0  0  0  0  0
  180.7490  174.0070  138.0130 C   0  0  0  0  0  3  0  0  0  0  0  0
  183.7760  169.8920  136.0960 C   0  0  0  0  0  1  0  0  0  0  0  0
  182.7580  171.0070  136.2030 C   0  0  2  0  0  3  0  0  0  0  0  0
  181.3370  173.4110  136.9770 C   0  0  0  0  0  0  0  0  0  0  0  0
  180.5400  172.7500  136.0300 O   0  0  0  0  0  0  0  0  0  0  0  0
  181.9210  171.0510  134.9220 C   0  0  0  0  0  2  0  0  0  0  0  0
  179.3660  173.9910  138.1590 O   0  0  0  0  0  1  0  0  0  0  0  0
  183.4620  172.3010  136.4950 C   0  0  0  0  0  3  0  0  0  0  0  0
  182.8230  173.4290  136.8460 C   0  0  0  0  0  0  0  0  0  0  0  0
  189.0550  179.7120  137.9660 O   0  0  0  0  0  1  0  0  0  0  0  0
  185.4660  177.6590  137.4700 O   0  0  0  0  0  0  0  0  0  0  0  0
  187.9280  178.6260  136.1700 C   0  0  0  0  0  2  0  0  0  0  0  0
  186.0460  178.7130  138.0770 O   0  0  0  0  0  0  0  0  0  0  0  0
  188.4120  178.5210  137.6200 C   0  0  2  0  0  3  0  0  0  0  0  0
  187.2550  178.2290  138.5910 C   0  0  1  0  0  3  0  0  0  0  0  0
  185.9920  177.0340  136.3190 C   0  0  0  0  0  0  0  0  0  0  0  0
  187.1250  177.4380  135.7290 C   0  0  0  0  0  3  0  0  0  0  0  0
  187.4910  178.7660  139.8880 O   0  0  0  0  0  0  0  0  0  0  0  0
  186.8110  177.2650  144.7610 N   0  0  0  0  0  1  0  0  0  0  0  0
  190.5290  176.0700  142.7790 C   0  0  0  0  0  1  0  0  0  0  0  0
  188.1600  177.0100  142.8550 C   0  0  0  0  0  0  0  0  0  0  0  0
  187.9680  177.9790  140.9370 C   0  0  0  0  0  0  0  0  0  0  0  0
  189.3150  176.5710  142.1620 N   0  0  0  0  0  0  0  0  0  0  0  0
  189.2630  177.2200  140.8630 C   0  0  0  0  0  2  0  0  0  0  0  0
  187.9370  176.7530  144.1050 N   0  0  0  0  0  0  0  0  0  0  0  0
  187.3450  177.8610  142.0680 N   0  0  0  0  0  0  0  0  0  0  0  0
  1  3  1  0  0  0  0
  1  4  1  0  0  0  0
  2  4  1  0  0  0  0
  2 25  1  1  0  0  0
  2  7  1  0  0  0  0
  3  4  1  0  0  0  0
  4  5  1  0  0  0  0
  5  8  1  0  0  0  0
  5  6  1  1  0  0  0
  7  8  1  0  0  0  0
  9 15  1  0  0  0  0
  9 14  1  0  0  0  0
 10 16  1  0  0  0  0
 12 11  1  6  0  0  0
 12 17  1  0  0  0  0
 13 10  2  0  0  0  0
 14 13  1  0  0  0  0
 15 12  1  0  0  0  0
 17 18  2  0  0  0  0
 18 13  1  0  0  0  0
 18  5  1  0  0  0  0
 20 22  1  0  0  0  0
 21 23  1  0  0  0  0
 22 24  1  0  0  0  0
 23 19  1  1  0  0  0
 23 24  1  0  0  0  0
 24 27  1  1  0  0  0
 25 20  1  0  0  0  0
 26 21  1  0  0  0  0
 26 25  2  0  0  0  0
 27 31  1  0  0  0  0
 30 34  2  0  0  0  0
 31 35  2  0  0  0  0
 32 29  1  0  0  0  0
 32 30  1  0  0  0  0
 33 31  1  0  0  0  0
 33 32  1  0  0  0  0
 34 28  1  0  0  0  0
 35 30  1  0  0  0  0
M  END
>  <MODEL>
7

>  <REMARK>
 VINA RESULT:      -8.4      6.965     10.093
  Name = 
  4 active torsions:
  status: ('A' for Active; 'I' for Inactive)
    1  A    between atoms: C_2  and  C_31
    2  A    between atoms: C_14  and  C_30
    3  A    between atoms: C_17  and  O_19
    4  A    between atoms: O_19  and  C_29
                            x       y       z     vdW  Elec       q    Type
                         _______ _______ _______ _____ _____    ______ ____

>  <TORSDO>
F 4

$$$$
=
 OpenBabel11062413443D

 35 39  0  0  1  0  0  0  0  0999 V2000
  183.6320  179.0690  141.5000 C   0  0  0  0  0  2  0  0  0  0  0  0
  183.8050  179.2460  138.9320 C   0  0  2  0  0  3  0  0  0  0  0  0
  184.4250  177.8470  141.0680 C   0  0  0  0  0  2  0  0  0  0  0  0
  183.3700  178.4400  140.1430 C   0  0  0  0  0  0  0  0  0  0  0  0
  182.0650  177.6700  139.8930 C   0  0  2  0  0  0  0  0  0  0  0  0
  182.2860  176.2990  140.0670 O   0  0  0  0  0  1  0  0  0  0  0  0
  182.5740  179.1990  138.0370 C   0  0  0  0  0  2  0  0  0  0  0  0
  181.7940  177.9400  138.4170 C   0  0  0  0  0  2  0  0  0  0  0  0
  179.8330  178.6470  143.4170 C   0  0  0  0  0  2  0  0  0  0  0  0
  179.7570  175.9640  140.9200 C   0  0  0  0  0  3  0  0  0  0  0  0
  178.9660  181.3610  140.8010 C   0  0  0  0  0  1  0  0  0  0  0  0
  179.2260  179.9510  141.2850 C   0  0  2  0  0  3  0  0  0  0  0  0
  180.0030  177.1630  141.4430 C   0  0  0  0  0  0  0  0  0  0  0  0
  179.4250  177.4990  142.6770 O   0  0  0  0  0  0  0  0  0  0  0  0
  179.2860  179.9450  142.8150 C   0  0  0  0  0  2  0  0  0  0  0  0
  178.9500  175.0440  141.5810 O   0  0  0  0  0  1  0  0  0  0  0  0
  180.4780  179.4240  140.6420 C   0  0  0  0  0  3  0  0  0  0  0  0
  180.8620  178.1390  140.7110 C   0  0  0  0  0  0  0  0  0  0  0  0
  187.8850  175.6850  136.7670 O   0  0  0  0  0  1  0  0  0  0  0  0
  186.2490  179.1730  138.3500 O   0  0  0  0  0  0  0  0  0  0  0  0
  185.7650  176.7710  136.7120 C   0  0  0  0  0  2  0  0  0  0  0  0
  187.3540  178.6420  137.7900 O   0  0  0  0  0  0  0  0  0  0  0  0
  186.9190  176.2720  137.5880 C   0  0  2  0  0  3  0  0  0  0  0  0
  187.5360  177.4070  138.4250 C   0  0  1  0  0  3  0  0  0  0  0  0
  184.9570  178.6250  138.2000 C   0  0  0  0  0  0  0  0  0  0  0  0
  184.7180  177.5170  137.4850 C   0  0  0  0  0  3  0  0  0  0  0  0
  188.9160  177.1880  138.6950 O   0  0  0  0  0  0  0  0  0  0  0  0
  187.8240  177.5080  143.7110 N   0  0  0  0  0  1  0  0  0  0  0  0
  192.0490  177.5030  142.5600 C   0  0  0  0  0  1  0  0  0  0  0  0
  189.5510  177.2030  142.1490 C   0  0  0  0  0  0  0  0  0  0  0  0
  189.4200  177.1700  139.9960 C   0  0  0  0  0  0  0  0  0  0  0  0
  190.9080  177.1160  141.7510 N   0  0  0  0  0  0  0  0  0  0  0  0
  190.8920  177.1250  140.2980 C   0  0  0  0  0  2  0  0  0  0  0  0
  189.1760  177.3650  143.3780 N   0  0  0  0  0  0  0  0  0  0  0  0
  188.6610  177.2160  141.0460 N   0  0  0  0  0  0  0  0  0  0  0  0
  2 25  1  6  0  0  0
  2  4  1  0  0  0  0
  3  1  1  0  0  0  0
  4  3  1  0  0  0  0
  4  1  1  0  0  0  0
  5  6  1  1  0  0  0
  5  4  1  0  0  0  0
  5 18  1  0  0  0  0
  7  8  1  0  0  0  0
  7  2  1  0  0  0  0
  8  5  1  0  0  0  0
 10 13  2  0  0  0  0
 10 16  1  0  0  0  0
 12 11  1  6  0  0  0
 12 15  1  0  0  0  0
 13 14  1  0  0  0  0
 14  9  1  0  0  0  0
 15  9  1  0  0  0  0
 17 18  2  0  0  0  0
 17 12  1  0  0  0  0
 18 13  1  0  0  0  0
 21 26  1  0  0  0  0
 21 23  1  0  0  0  0
 22 20  1  0  0  0  0
 22 24  1  0  0  0  0
 23 19  1  6  0  0  0
 23 24  1  0  0  0  0
 24 27  1  6  0  0  0
 25 20  1  0  0  0  0
 26 25  2  0  0  0  0
 27 31  1  0  0  0  0
 30 34  2  0  0  0  0
 31 33  1  0  0  0  0
 31 35  2  0  0  0  0
 32 30  1  0  0  0  0
 32 29  1  0  0  0  0
 33 32  1  0  0  0  0
 34 28  1  0  0  0  0
 35 30  1  0  0  0  0
M  END
>  <MODEL>
8

>  <REMARK>
 VINA RESULT:      -8.2      6.547      8.398
  Name = 
  4 active torsions:
  status: ('A' for Active; 'I' for Inactive)
    1  A    between atoms: C_2  and  C_31
    2  A    between atoms: C_14  and  C_30
    3  A    between atoms: C_17  and  O_19
    4  A    between atoms: O_19  and  C_29
                            x       y       z     vdW  Elec       q    Type
                         _______ _______ _______ _____ _____    ______ ____

>  <TORSDO>
F 4

$$$$
=
 OpenBabel11062413443D

 35 39  0  0  1  0  0  0  0  0999 V2000
  182.1490  177.7010  136.6790 C   0  0  0  0  0  2  0  0  0  0  0  0
  184.3030  176.4090  136.0940 C   0  0  2  0  0  3  0  0  0  0  0  0
  183.2030  178.2280  137.6370 C   0  0  0  0  0  2  0  0  0  0  0  0
  183.2720  176.7910  137.1410 C   0  0  0  0  0  0  0  0  0  0  0  0
  182.9760  175.6400  138.1140 C   0  0  2  0  0  0  0  0  0  0  0  0
  183.2700  176.0410  139.4220 O   0  0  0  0  0  1  0  0  0  0  0  0
  184.4060  174.8990  136.2580 C   0  0  0  0  0  2  0  0  0  0  0  0
  183.9820  174.5750  137.6910 C   0  0  0  0  0  2  0  0  0  0  0  0
  178.9430  175.2640  136.7170 C   0  0  0  0  0  2  0  0  0  0  0  0
  180.5570  176.3840  139.8140 C   0  0  0  0  0  3  0  0  0  0  0  0
  180.2970  171.6610  137.0940 C   0  0  0  0  0  1  0  0  0  0  0  0
  180.0810  173.1000  137.5120 C   0  0  2  0  0  3  0  0  0  0  0  0
  180.4050  175.7420  138.6570 C   0  0  0  0  0  0  0  0  0  0  0  0
  179.1370  175.7060  138.0590 O   0  0  0  0  0  0  0  0  0  0  0  0
  179.0370  173.7400  136.5940 C   0  0  0  0  0  2  0  0  0  0  0  0
  179.4830  177.0230  140.4250 O   0  0  0  0  0  1  0  0  0  0  0  0
  181.3970  173.8240  137.5080 C   0  0  0  0  0  3  0  0  0  0  0  0
  181.5680  175.0520  138.0250 C   0  0  0  0  0  0  0  0  0  0  0  0
  189.7970  177.5290  137.6990 O   0  0  0  0  0  1  0  0  0  0  0  0
  185.7390  178.2240  137.0750 O   0  0  0  0  0  0  0  0  0  0  0  0
  188.1440  176.7930  136.1500 C   0  0  0  0  0  2  0  0  0  0  0  0
  186.9060  178.8050  137.4180 O   0  0  0  0  0  0  0  0  0  0  0  0
  188.5060  177.0030  137.6240 C   0  0  2  0  0  3  0  0  0  0  0  0
  187.5020  177.9290  138.3340 C   0  0  1  0  0  3  0  0  0  0  0  0
  185.6500  177.0150  136.3540 C   0  0  0  0  0  0  0  0  0  0  0  0
  186.7310  176.3310  135.9500 C   0  0  0  0  0  3  0  0  0  0  0  0
  188.1030  178.6600  139.3970 O   0  0  0  0  0  0  0  0  0  0  0  0
  190.2320  175.4900  142.8440 N   0  0  0  0  0  1  0  0  0  0  0  0
  186.5610  177.5730  144.0120 C   0  0  0  0  0  1  0  0  0  0  0  0
  188.5820  177.1310  142.5220 C   0  0  0  0  0  0  0  0  0  0  0  0
  188.0860  178.1970  140.7130 C   0  0  0  0  0  0  0  0  0  0  0  0
  187.4410  177.8810  142.9000 N   0  0  0  0  0  0  0  0  0  0  0  0
  187.0330  178.6010  141.7070 C   0  0  0  0  0  2  0  0  0  0  0  0
  189.1430  176.2490  143.2880 N   0  0  0  0  0  0  0  0  0  0  0  0
  188.9630  177.3610  141.1770 N   0  0  0  0  0  0  0  0  0  0  0  0
  1  4  1  0  0  0  0
  1  3  1  0  0  0  0
  2  7  1  0  0  0  0
  2 25  1  1  0  0  0
  2  4  1  0  0  0  0
  4  3  1  0  0  0  0
  4  5  1  0  0  0  0
  5  6  1  1  0  0  0
  7  8  1  0  0  0  0
  8  5  1  0  0  0  0
  9 14  1  0  0  0  0
 10 16  1  0  0  0  0
 12 11  1  6  0  0  0
 13 10  2  0  0  0  0
 14 13  1  0  0  0  0
 15  9  1  0  0  0  0
 15 12  1  0  0  0  0
 17 12  1  0  0  0  0
 17 18  2  0  0  0  0
 18  5  1  0  0  0  0
 18 13  1  0  0  0  0
 20 22  1  0  0  0  0
 21 23  1  0  0  0  0
 22 24  1  0  0  0  0
 23 19  1  6  0  0  0
 23 24  1  0  0  0  0
 24 27  1  1  0  0  0
 25 20  1  0  0  0  0
 26 21  1  0  0  0  0
 26 25  2  0  0  0  0
 27 31  1  0  0  0  0
 28 34  1  0  0  0  0
 30 32  1  0  0  0  0
 30 34  2  0  0  0  0
 31 35  2  0  0  0  0
 31 33  1  0  0  0  0
 32 29  1  0  0  0  0
 33 32  1  0  0  0  0
 35 30  1  0  0  0  0
M  END
>  <MODEL>
9

>  <REMARK>
 VINA RESULT:      -8.1      6.918      9.705
  Name = 
  4 active torsions:
  status: ('A' for Active; 'I' for Inactive)
    1  A    between atoms: C_2  and  C_31
    2  A    between atoms: C_14  and  C_30
    3  A    between atoms: C_17  and  O_19
    4  A    between atoms: O_19  and  C_29
                            x       y       z     vdW  Elec       q    Type
                         _______ _______ _______ _____ _____    ______ ____

>  <TORSDO>
F 4

$$$$
