=
 OpenBabel11062412413D

 32 36  0  0  1  0  0  0  0  0999 V2000
  181.2090  178.7270  144.0820 O   0  0  0  0  0  0  0  0  0  0  0  0
  184.5120  178.6500  142.8790 C   0  0  0  0  0  0  0  0  0  0  0  0
  184.7790  178.6720  144.1790 C   0  0  0  0  0  0  0  0  0  0  0  0
  182.4540  178.6920  143.9080 C   0  0  0  0  0  0  0  0  0  0  0  0
  185.4950  178.6920  141.4010 S   0  0  0  0  0  0  0  0  0  0  0  0
  183.1310  178.6760  142.6360 C   0  0  0  0  0  0  0  0  0  0  0  0
  183.9340  178.7730  140.5210 N   0  0  0  0  0  0  0  0  0  0  0  0
  183.4990  178.6720  144.9900 C   0  0  0  0  0  2  0  0  0  0  0  0
  182.7800  178.7670  141.3730 C   0  0  0  0  0  3  0  0  0  0  0  0
  182.2760  178.6550  137.4330 O   0  0  0  0  0  0  0  0  0  0  0  0
  182.8460  180.3280  138.9960 C   0  0  0  0  0  2  0  0  0  0  0  0
  181.7380  179.7360  138.1510 C   0  0  1  0  0  3  0  0  0  0  0  0
  183.8270  179.2020  139.1330 C   0  0  2  0  0  3  0  0  0  0  0  0
  183.2460  178.0970  138.2800 C   0  0  0  0  0  2  0  0  0  0  0  0
  181.1540  180.7820  137.1970 C   0  0  1  0  0  3  0  0  0  0  0  0
  180.7760  180.1700  135.9980 O   0  0  0  0  0  1  0  0  0  0  0  0
  180.3340  182.7200  138.3370 F   0  0  0  0  0  0  0  0  0  0  0  0
  178.9800  181.7200  136.8350 F   0  0  0  0  0  0  0  0  0  0  0  0
  179.9460  181.5050  137.8000 C   0  0  0  0  0  0  0  0  0  0  0  0
  179.3970  180.7250  138.8020 F   0  0  0  0  0  0  0  0  0  0  0  0
  186.1470  178.6600  144.7710 C   0  0  0  0  0  2  0  0  0  0  0  0
  186.8180  177.3170  144.5260 C   0  0  0  0  0  2  0  0  0  0  0  0
  190.4390  177.1630  145.8620 C   0  0  2  0  0  0  0  0  0  0  0  0
  187.7400  178.0340  146.7470 C   0  0  0  0  0  2  0  0  0  0  0  0
  187.9010  177.0700  145.5600 C   0  0  2  0  0  3  0  0  0  0  0  0
  188.8960  177.9850  147.7520 C   0  0  0  0  0  2  0  0  0  0  0  0
  190.0440  178.4150  145.0690 C   0  0  2  0  0  3  0  0  0  0  0  0
  190.0460  177.0610  147.3430 C   0  0  0  0  0  2  0  0  0  0  0  0
  191.6350  176.3380  145.4100 C   0  0  0  0  0  1  0  0  0  0  0  0
  189.2830  177.1010  144.8730 C   0  0  1  0  0  3  0  0  0  0  0  0
  190.2980  178.1870  142.7130 O   0  0  0  0  0  1  0  0  0  0  0  0
  190.9270  178.6710  143.8580 C   0  0  0  0  0  2  0  0  0  0  0  0
  2  3  2  0  0  0  0
  3 21  1  0  0  0  0
  3  8  1  0  0  0  0
  4  1  2  0  0  0  0
  4  8  1  0  0  0  0
  5  2  1  0  0  0  0
  6  2  1  0  0  0  0
  6  4  1  0  0  0  0
  7  9  1  0  0  0  0
  7  5  1  0  0  0  0
  9  6  2  0  0  0  0
 10 12  1  0  0  0  0
 10 14  1  0  0  0  0
 11 13  1  0  0  0  0
 12 15  1  6  0  0  0
 12 11  1  0  0  0  0
 13 14  1  6  0  0  0
 13  7  1  0  0  0  0
 15 16  1  6  0  0  0
 15 19  1  0  0  0  0
 18 19  1  0  0  0  0
 19 17  1  0  0  0  0
 19 20  1  0  0  0  0
 22 21  1  0  0  0  0
 23 29  1  6  0  0  0
 23 28  1  0  0  0  0
 24 26  1  0  0  0  0
 25 22  1  6  0  0  0
 25 24  1  0  0  0  0
 27 32  1  6  0  0  0
 27 23  1  0  0  0  0
 28 26  1  0  0  0  0
 30 27  1  0  0  0  0
 30 25  1  0  0  0  0
 30 23  1  0  0  0  0
 31 32  1  0  0  0  0
M  END
>  <MODEL>
1

>  <REMARK>
 VINA RESULT:      -8.6      0.000      0.000
  Name = 
  7 active torsions:
  status: ('A' for Active; 'I' for Inactive)
    1  A    between atoms: C_2  and  C_8
    2  A    between atoms: C_2  and  C_13
    3  A    between atoms: C_6  and  C_13
    4  A    between atoms: C_15  and  C_17
    5  A    between atoms: C_15  and  C_25
    6  A    between atoms: C_20  and  N_23
    7  A    between atoms: C_21  and  C_27
                            x       y       z     vdW  Elec       q    Type
                         _______ _______ _______ _____ _____    ______ ____

>  <TORSDO>
F 7

$$$$
=
 OpenBabel11062412413D

 32 36  0  0  1  0  0  0  0  0999 V2000
  181.2550  179.0220  143.8770 O   0  0  0  0  0  0  0  0  0  0  0  0
  184.6430  178.5860  143.0410 C   0  0  0  0  0  0  0  0  0  0  0  0
  184.7780  178.6760  144.3580 C   0  0  0  0  0  0  0  0  0  0  0  0
  182.5040  178.8720  143.8390 C   0  0  0  0  0  0  0  0  0  0  0  0
  185.7710  178.4420  141.6770 S   0  0  0  0  0  0  0  0  0  0  0  0
  183.3010  178.7100  142.6500 C   0  0  0  0  0  0  0  0  0  0  0  0
  184.3200  178.5910  140.6310 N   0  0  0  0  0  0  0  0  0  0  0  0
  183.4270  178.8400  145.0260 C   0  0  0  0  0  2  0  0  0  0  0  0
  183.0900  178.7420  141.3540 C   0  0  0  0  0  3  0  0  0  0  0  0
  185.4000  177.8230  137.3850 O   0  0  0  0  0  0  0  0  0  0  0  0
  183.3270  178.2190  138.4400 C   0  0  0  0  0  2  0  0  0  0  0  0
  184.1050  177.2950  137.5260 C   0  0  1  0  0  3  0  0  0  0  0  0
  184.3940  178.9300  139.2170 C   0  0  2  0  0  3  0  0  0  0  0  0
  185.6880  178.4270  138.6180 C   0  0  0  0  0  2  0  0  0  0  0  0
  183.4220  177.1660  136.1620 C   0  0  1  0  0  3  0  0  0  0  0  0
  184.3880  177.0790  135.1550 O   0  0  0  0  0  1  0  0  0  0  0  0
  182.5450  175.3850  134.8240 F   0  0  0  0  0  0  0  0  0  0  0  0
  182.8860  174.9950  137.0190 F   0  0  0  0  0  0  0  0  0  0  0  0
  182.5020  175.9440  136.0900 C   0  0  0  0  0  0  0  0  0  0  0  0
  181.2030  176.3280  136.3680 F   0  0  0  0  0  0  0  0  0  0  0  0
  186.0720  178.5910  145.0930 C   0  0  0  0  0  2  0  0  0  0  0  0
  186.6960  177.2170  144.9080 C   0  0  0  0  0  2  0  0  0  0  0  0
  190.4070  177.2100  145.9820 C   0  0  2  0  0  0  0  0  0  0  0  0
  187.7500  178.0170  147.0390 C   0  0  0  0  0  2  0  0  0  0  0  0
  187.8580  177.0300  145.8660 C   0  0  2  0  0  3  0  0  0  0  0  0
  188.9760  178.0300  147.9600 C   0  0  0  0  0  2  0  0  0  0  0  0
  189.9150  178.4280  145.1920 C   0  0  2  0  0  3  0  0  0  0  0  0
  190.1240  177.1320  147.4900 C   0  0  0  0  0  2  0  0  0  0  0  0
  191.5940  176.4120  145.4640 C   0  0  0  0  0  1  0  0  0  0  0  0
  189.1860  177.0870  145.0810 C   0  0  1  0  0  3  0  0  0  0  0  0
  189.8910  178.4170  142.8110 O   0  0  0  0  0  1  0  0  0  0  0  0
  190.7010  178.6820  143.9150 C   0  0  0  0  0  2  0  0  0  0  0  0
  2  3  2  0  0  0  0
  3  8  1  0  0  0  0
  3 21  1  0  0  0  0
  4  1  2  0  0  0  0
  4  8  1  0  0  0  0
  5  2  1  0  0  0  0
  6  2  1  0  0  0  0
  6  4  1  0  0  0  0
  7  9  1  0  0  0  0
  7  5  1  0  0  0  0
  9  6  2  0  0  0  0
 10 12  1  0  0  0  0
 10 14  1  0  0  0  0
 12 15  1  6  0  0  0
 12 11  1  0  0  0  0
 13 11  1  6  0  0  0
 13  7  1  0  0  0  0
 14 13  1  0  0  0  0
 15 16  1  6  0  0  0
 17 19  1  0  0  0  0
 19 15  1  0  0  0  0
 19 20  1  0  0  0  0
 19 18  1  0  0  0  0
 22 21  1  0  0  0  0
 23 29  1  6  0  0  0
 23 28  1  0  0  0  0
 24 26  1  0  0  0  0
 25 22  1  6  0  0  0
 25 24  1  0  0  0  0
 27 32  1  6  0  0  0
 27 23  1  0  0  0  0
 28 26  1  0  0  0  0
 30 27  1  0  0  0  0
 30 25  1  0  0  0  0
 30 23  1  0  0  0  0
 31 32  1  0  0  0  0
M  END
>  <MODEL>
2

>  <REMARK>
 VINA RESULT:      -8.6      2.430      2.952
  Name = 
  7 active torsions:
  status: ('A' for Active; 'I' for Inactive)
    1  A    between atoms: C_2  and  C_8
    2  A    between atoms: C_2  and  C_13
    3  A    between atoms: C_6  and  C_13
    4  A    between atoms: C_15  and  C_17
    5  A    between atoms: C_15  and  C_25
    6  A    between atoms: C_20  and  N_23
    7  A    between atoms: C_21  and  C_27
                            x       y       z     vdW  Elec       q    Type
                         _______ _______ _______ _____ _____    ______ ____

>  <TORSDO>
F 7

$$$$
=
 OpenBabel11062412413D

 32 36  0  0  1  0  0  0  0  0999 V2000
  187.7540  177.8430  147.5580 O   0  0  0  0  0  0  0  0  0  0  0  0
  187.8610  177.4400  144.0660 C   0  0  0  0  0  0  0  0  0  0  0  0
  189.0840  177.0110  144.3490 C   0  0  0  0  0  0  0  0  0  0  0  0
  188.0330  177.6010  146.3550 C   0  0  0  0  0  0  0  0  0  0  0  0
  186.9500  177.7190  142.5680 S   0  0  0  0  0  0  0  0  0  0  0  0
  187.1700  177.8290  145.2240 C   0  0  0  0  0  0  0  0  0  0  0  0
  185.6660  178.3900  143.6270 N   0  0  0  0  0  0  0  0  0  0  0  0
  189.3290  177.0350  145.8450 C   0  0  0  0  0  2  0  0  0  0  0  0
  185.9900  178.3700  145.0250 C   0  0  0  0  0  3  0  0  0  0  0  0
  182.5370  178.7010  142.0760 O   0  0  0  0  0  0  0  0  0  0  0  0
  183.4840  179.3410  144.1400 C   0  0  0  0  0  2  0  0  0  0  0  0
  182.3100  178.6670  143.4620 C   0  0  1  0  0  3  0  0  0  0  0  0
  184.5870  179.2320  143.1300 C   0  0  2  0  0  3  0  0  0  0  0  0
  183.9280  178.5940  141.9270 C   0  0  0  0  0  2  0  0  0  0  0  0
  180.9940  179.3680  143.8120 C   0  0  1  0  0  3  0  0  0  0  0  0
  180.7040  180.3400  142.8500 O   0  0  0  0  0  1  0  0  0  0  0  0
  179.1700  178.2950  142.6930 F   0  0  0  0  0  0  0  0  0  0  0  0
  180.2760  177.1310  144.2770 F   0  0  0  0  0  0  0  0  0  0  0  0
  179.8240  178.3850  143.9100 C   0  0  0  0  0  0  0  0  0  0  0  0
  178.9310  178.8260  144.8690 F   0  0  0  0  0  0  0  0  0  0  0  0
  190.0750  176.5320  143.3440 C   0  0  0  0  0  2  0  0  0  0  0  0
  190.2370  177.5550  142.2310 C   0  0  0  0  0  2  0  0  0  0  0  0
  190.1410  176.6540  138.4750 C   0  0  2  0  0  0  0  0  0  0  0  0
  192.1110  177.3980  140.5720 C   0  0  0  0  0  2  0  0  0  0  0  0
  190.7150  176.8820  140.9570 C   0  0  2  0  0  3  0  0  0  0  0  0
  192.5990  176.9150  139.2010 C   0  0  0  0  0  2  0  0  0  0  0  0
  189.9340  178.1290  138.8410 C   0  0  2  0  0  3  0  0  0  0  0  0
  191.5690  176.0900  138.4230 C   0  0  0  0  0  2  0  0  0  0  0  0
  189.0870  175.9330  137.6480 C   0  0  0  0  0  1  0  0  0  0  0  0
  189.6370  177.0280  139.8630 C   0  0  1  0  0  3  0  0  0  0  0  0
  188.8870  179.6240  137.3130 O   0  0  0  0  0  1  0  0  0  0  0  0
  188.6240  178.7040  138.3260 C   0  0  0  0  0  2  0  0  0  0  0  0
  2  3  2  0  0  0  0
  2  6  1  0  0  0  0
  3  8  1  0  0  0  0
  4  1  2  0  0  0  0
  5  7  1  0  0  0  0
  5  2  1  0  0  0  0
  6  4  1  0  0  0  0
  7  9  1  0  0  0  0
  8  4  1  0  0  0  0
  9  6  2  0  0  0  0
 10 12  1  0  0  0  0
 12 15  1  6  0  0  0
 12 11  1  0  0  0  0
 13 14  1  6  0  0  0
 13  7  1  0  0  0  0
 13 11  1  0  0  0  0
 14 10  1  0  0  0  0
 15 16  1  6  0  0  0
 15 19  1  0  0  0  0
 17 19  1  0  0  0  0
 19 18  1  0  0  0  0
 19 20  1  0  0  0  0
 21  3  1  0  0  0  0
 22 21  1  0  0  0  0
 23 29  1  6  0  0  0
 23 27  1  0  0  0  0
 23 30  1  0  0  0  0
 24 25  1  0  0  0  0
 25 22  1  1  0  0  0
 26 24  1  0  0  0  0
 27 32  1  6  0  0  0
 27 30  1  0  0  0  0
 28 23  1  0  0  0  0
 28 26  1  0  0  0  0
 30 25  1  0  0  0  0
 31 32  1  0  0  0  0
M  END
>  <MODEL>
3

>  <REMARK>
 VINA RESULT:      -8.3      3.765      6.102
  Name = 
  7 active torsions:
  status: ('A' for Active; 'I' for Inactive)
    1  A    between atoms: C_2  and  C_8
    2  A    between atoms: C_2  and  C_13
    3  A    between atoms: C_6  and  C_13
    4  A    between atoms: C_15  and  C_17
    5  A    between atoms: C_15  and  C_25
    6  A    between atoms: C_20  and  N_23
    7  A    between atoms: C_21  and  C_27
                            x       y       z     vdW  Elec       q    Type
                         _______ _______ _______ _____ _____    ______ ____

>  <TORSDO>
F 7

$$$$
=
 OpenBabel11062412413D

 32 36  0  0  1  0  0  0  0  0999 V2000
  183.0900  179.1450  145.7800 O   0  0  0  0  0  0  0  0  0  0  0  0
  185.7950  178.3370  143.6840 C   0  0  0  0  0  0  0  0  0  0  0  0
  186.4260  178.2690  144.8500 C   0  0  0  0  0  0  0  0  0  0  0  0
  184.1890  178.8290  145.2570 C   0  0  0  0  0  0  0  0  0  0  0  0
  186.2890  178.1820  141.9850 S   0  0  0  0  0  0  0  0  0  0  0  0
  184.4450  178.6840  143.8470 C   0  0  0  0  0  0  0  0  0  0  0  0
  184.6000  178.6370  141.5880 N   0  0  0  0  0  0  0  0  0  0  0  0
  185.4700  178.5470  145.9930 C   0  0  0  0  0  2  0  0  0  0  0  0
  183.7730  178.8800  142.7350 C   0  0  0  0  0  3  0  0  0  0  0  0
  184.4190  178.1510  138.1200 O   0  0  0  0  0  0  0  0  0  0  0  0
  182.8790  178.5120  139.8700 C   0  0  0  0  0  2  0  0  0  0  0  0
  183.2240  177.6560  138.6700 C   0  0  1  0  0  3  0  0  0  0  0  0
  184.1940  179.1090  140.2710 C   0  0  2  0  0  3  0  0  0  0  0  0
  185.1600  178.6230  139.2130 C   0  0  0  0  0  2  0  0  0  0  0  0
  182.0990  177.6820  137.6320 C   0  0  1  0  0  3  0  0  0  0  0  0
  182.6260  177.4600  136.3560 O   0  0  0  0  0  1  0  0  0  0  0  0
  181.5470  175.5980  138.6710 F   0  0  0  0  0  0  0  0  0  0  0  0
  179.9680  177.2080  138.6170 F   0  0  0  0  0  0  0  0  0  0  0  0
  181.0190  176.6360  137.9240 C   0  0  0  0  0  0  0  0  0  0  0  0
  180.5340  176.1310  136.7310 F   0  0  0  0  0  0  0  0  0  0  0  0
  187.8670  177.9310  145.0230 C   0  0  0  0  0  2  0  0  0  0  0  0
  188.1540  177.5680  146.4720 C   0  0  0  0  0  2  0  0  0  0  0  0
  191.6010  176.2870  145.2880 C   0  0  2  0  0  0  0  0  0  0  0  0
  190.2830  177.2700  147.7630 C   0  0  0  0  0  2  0  0  0  0  0  0
  189.4440  176.7760  146.5740 C   0  0  2  0  0  3  0  0  0  0  0  0
  191.6860  176.6570  147.8350 C   0  0  0  0  0  2  0  0  0  0  0  0
  191.3280  177.7890  145.1340 C   0  0  2  0  0  3  0  0  0  0  0  0
  192.0340  175.7420  146.6570 C   0  0  0  0  0  2  0  0  0  0  0  0
  191.9970  175.4710  144.0670 C   0  0  0  0  0  1  0  0  0  0  0  0
  190.1670  176.7930  145.2090 C   0  0  1  0  0  3  0  0  0  0  0  0
  191.1660  179.6480  143.6570 O   0  0  0  0  0  1  0  0  0  0  0  0
  191.4700  178.2890  143.7060 C   0  0  0  0  0  2  0  0  0  0  0  0
  2  6  1  0  0  0  0
  2  3  2  0  0  0  0
  3 21  1  0  0  0  0
  3  8  1  0  0  0  0
  4  1  2  0  0  0  0
  4  8  1  0  0  0  0
  5  2  1  0  0  0  0
  6  4  1  0  0  0  0
  7  5  1  0  0  0  0
  7  9  1  0  0  0  0
  9  6  2  0  0  0  0
 10 12  1  0  0  0  0
 10 14  1  0  0  0  0
 11 13  1  0  0  0  0
 12 15  1  6  0  0  0
 12 11  1  0  0  0  0
 13 14  1  6  0  0  0
 13  7  1  0  0  0  0
 15 16  1  6  0  0  0
 15 19  1  0  0  0  0
 19 18  1  0  0  0  0
 19 17  1  0  0  0  0
 20 19  1  0  0  0  0
 21 22  1  0  0  0  0
 23 29  1  6  0  0  0
 23 28  1  0  0  0  0
 24 26  1  0  0  0  0
 25 22  1  6  0  0  0
 25 24  1  0  0  0  0
 27 32  1  6  0  0  0
 27 30  1  0  0  0  0
 27 23  1  0  0  0  0
 28 26  1  0  0  0  0
 30 23  1  0  0  0  0
 30 25  1  0  0  0  0
 31 32  1  0  0  0  0
M  END
>  <MODEL>
4

>  <REMARK>
 VINA RESULT:      -8.3      2.180      2.808
  Name = 
  7 active torsions:
  status: ('A' for Active; 'I' for Inactive)
    1  A    between atoms: C_2  and  C_8
    2  A    between atoms: C_2  and  C_13
    3  A    between atoms: C_6  and  C_13
    4  A    between atoms: C_15  and  C_17
    5  A    between atoms: C_15  and  C_25
    6  A    between atoms: C_20  and  N_23
    7  A    between atoms: C_21  and  C_27
                            x       y       z     vdW  Elec       q    Type
                         _______ _______ _______ _____ _____    ______ ____

>  <TORSDO>
F 7

$$$$
=
 OpenBabel11062412413D

 32 36  0  0  1  0  0  0  0  0999 V2000
  187.6380  178.6460  139.5740 O   0  0  0  0  0  0  0  0  0  0  0  0
  185.2920  178.7090  142.1920 C   0  0  0  0  0  0  0  0  0  0  0  0
  186.3750  178.4360  142.9090 C   0  0  0  0  0  0  0  0  0  0  0  0
  187.0100  178.6260  140.6640 C   0  0  0  0  0  0  0  0  0  0  0  0
  183.5610  178.8660  142.5550 S   0  0  0  0  0  0  0  0  0  0  0  0
  185.5920  178.8240  140.8270 C   0  0  0  0  0  0  0  0  0  0  0  0
  183.3390  179.0530  140.7850 N   0  0  0  0  0  0  0  0  0  0  0  0
  187.6040  178.3790  142.0230 C   0  0  0  0  0  2  0  0  0  0  0  0
  184.5580  178.9850  140.0310 C   0  0  0  0  0  3  0  0  0  0  0  0
  180.1450  180.2830  140.0250 O   0  0  0  0  0  0  0  0  0  0  0  0
  182.0360  179.5870  138.7990 C   0  0  0  0  0  2  0  0  0  0  0  0
  180.9990  180.6750  138.9800 C   0  0  1  0  0  3  0  0  0  0  0  0
  182.0520  178.8870  140.1240 C   0  0  2  0  0  3  0  0  0  0  0  0
  180.9580  179.5680  140.9170 C   0  0  0  0  0  2  0  0  0  0  0  0
  180.2050  180.9010  137.6900 C   0  0  1  0  0  3  0  0  0  0  0  0
  178.9930  180.2070  137.7510 O   0  0  0  0  0  1  0  0  0  0  0  0
  181.0800  183.0220  137.0070 F   0  0  0  0  0  0  0  0  0  0  0  0
  178.9430  182.5340  136.4760 F   0  0  0  0  0  0  0  0  0  0  0  0
  179.9280  182.3850  137.4350 C   0  0  0  0  0  0  0  0  0  0  0  0
  179.4930  182.9800  138.6050 F   0  0  0  0  0  0  0  0  0  0  0  0
  186.3970  178.2480  144.3870 C   0  0  0  0  0  2  0  0  0  0  0  0
  186.8080  176.8260  144.7330 C   0  0  0  0  0  2  0  0  0  0  0  0
  190.3610  177.2270  146.1970 C   0  0  2  0  0  0  0  0  0  0  0  0
  187.5500  177.9170  146.8670 C   0  0  0  0  0  2  0  0  0  0  0  0
  187.8610  176.8290  145.8260 C   0  0  2  0  0  3  0  0  0  0  0  0
  188.6560  178.1200  147.9080 C   0  0  0  0  0  2  0  0  0  0  0  0
  189.8810  178.3170  145.2310 C   0  0  2  0  0  3  0  0  0  0  0  0
  189.9110  177.2770  147.6650 C   0  0  0  0  0  2  0  0  0  0  0  0
  191.6530  176.4800  145.8990 C   0  0  0  0  0  1  0  0  0  0  0  0
  189.2640  176.9160  145.1870 C   0  0  1  0  0  3  0  0  0  0  0  0
  191.2160  179.8300  143.9680 O   0  0  0  0  0  1  0  0  0  0  0  0
  190.7890  178.5050  144.0260 C   0  0  0  0  0  2  0  0  0  0  0  0
  1  4  2  0  0  0  0
  2  5  1  0  0  0  0
  2  3  2  0  0  0  0
  3 21  1  0  0  0  0
  4  6  1  0  0  0  0
  4  8  1  0  0  0  0
  6  2  1  0  0  0  0
  7  5  1  0  0  0  0
  8  3  1  0  0  0  0
  9  7  1  0  0  0  0
  9  6  2  0  0  0  0
 10 14  1  0  0  0  0
 11 12  1  0  0  0  0
 12 15  1  6  0  0  0
 12 10  1  0  0  0  0
 13 11  1  6  0  0  0
 13  7  1  0  0  0  0
 13 14  1  0  0  0  0
 15 16  1  1  0  0  0
 17 19  1  0  0  0  0
 18 19  1  0  0  0  0
 19 15  1  0  0  0  0
 19 20  1  0  0  0  0
 21 22  1  0  0  0  0
 23 29  1  6  0  0  0
 23 28  1  0  0  0  0
 24 26  1  0  0  0  0
 25 22  1  6  0  0  0
 25 24  1  0  0  0  0
 27 32  1  6  0  0  0
 27 23  1  0  0  0  0
 28 26  1  0  0  0  0
 30 27  1  0  0  0  0
 30 25  1  0  0  0  0
 30 23  1  0  0  0  0
 31 32  1  0  0  0  0
M  END
>  <MODEL>
5

>  <REMARK>
 VINA RESULT:      -8.3      1.754      2.521
  Name = 
  7 active torsions:
  status: ('A' for Active; 'I' for Inactive)
    1  A    between atoms: C_2  and  C_8
    2  A    between atoms: C_2  and  C_13
    3  A    between atoms: C_6  and  C_13
    4  A    between atoms: C_15  and  C_17
    5  A    between atoms: C_15  and  C_25
    6  A    between atoms: C_20  and  N_23
    7  A    between atoms: C_21  and  C_27
                            x       y       z     vdW  Elec       q    Type
                         _______ _______ _______ _____ _____    ______ ____

>  <TORSDO>
F 7

$$$$
=
 OpenBabel11062412413D

 32 36  0  0  1  0  0  0  0  0999 V2000
  188.2910  177.7020  137.4900 O   0  0  0  0  0  0  0  0  0  0  0  0
  186.8170  178.4130  140.6020 C   0  0  0  0  0  0  0  0  0  0  0  0
  188.0190  178.0530  141.0340 C   0  0  0  0  0  0  0  0  0  0  0  0
  188.0030  177.8970  138.6990 C   0  0  0  0  0  0  0  0  0  0  0  0
  185.2940  178.8760  141.3890 S   0  0  0  0  0  0  0  0  0  0  0  0
  186.7260  178.3310  139.2050 C   0  0  0  0  0  0  0  0  0  0  0  0
  184.5990  178.9030  139.7350 N   0  0  0  0  0  0  0  0  0  0  0  0
  188.9270  177.7090  139.8700 C   0  0  0  0  0  2  0  0  0  0  0  0
  185.5350  178.5640  138.7010 C   0  0  0  0  0  3  0  0  0  0  0  0
  181.5170  177.2460  139.9640 O   0  0  0  0  0  0  0  0  0  0  0  0
  182.3940  179.3160  140.6810 C   0  0  0  0  0  2  0  0  0  0  0  0
  181.6250  178.0780  141.0910 C   0  0  1  0  0  3  0  0  0  0  0  0
  183.1660  178.8700  139.4750 C   0  0  2  0  0  3  0  0  0  0  0  0
  182.7030  177.4490  139.2410 C   0  0  0  0  0  2  0  0  0  0  0  0
  180.2380  178.4430  141.6280 C   0  0  1  0  0  3  0  0  0  0  0  0
  179.4250  177.3060  141.6540 O   0  0  0  0  0  1  0  0  0  0  0  0
  180.3290  180.4340  142.9540 F   0  0  0  0  0  0  0  0  0  0  0  0
  179.2100  178.6590  143.7800 F   0  0  0  0  0  0  0  0  0  0  0  0
  180.3030  179.0530  143.0310 C   0  0  0  0  0  0  0  0  0  0  0  0
  181.4500  178.6170  143.6690 F   0  0  0  0  0  0  0  0  0  0  0  0
  188.4410  178.0240  142.4640 C   0  0  0  0  0  2  0  0  0  0  0  0
  187.8500  176.8110  143.1650 C   0  0  0  0  0  2  0  0  0  0  0  0
  190.3790  177.1200  146.0680 C   0  0  2  0  0  0  0  0  0  0  0  0
  187.5540  177.8020  145.4500 C   0  0  0  0  0  2  0  0  0  0  0  0
  188.3090  176.7590  144.6100 C   0  0  2  0  0  3  0  0  0  0  0  0
  188.0820  177.9510  146.8820 C   0  0  0  0  0  2  0  0  0  0  0  0
  190.3640  178.2540  145.0370 C   0  0  2  0  0  3  0  0  0  0  0  0
  189.3240  177.1090  147.1850 C   0  0  0  0  0  2  0  0  0  0  0  0
  191.6780  176.3770  146.3430 C   0  0  0  0  0  1  0  0  0  0  0  0
  189.8480  176.8620  144.6640 C   0  0  1  0  0  3  0  0  0  0  0  0
  191.5520  178.4740  142.9850 O   0  0  0  0  0  1  0  0  0  0  0  0
  191.7100  178.4880  144.3700 C   0  0  0  0  0  2  0  0  0  0  0  0
  1  4  2  0  0  0  0
  2  3  2  0  0  0  0
  2  5  1  0  0  0  0
  3 21  1  0  0  0  0
  4  6  1  0  0  0  0
  4  8  1  0  0  0  0
  6  2  1  0  0  0  0
  7  5  1  0  0  0  0
  8  3  1  0  0  0  0
  9  6  2  0  0  0  0
  9  7  1  0  0  0  0
 10 12  1  0  0  0  0
 11 12  1  0  0  0  0
 12 15  1  6  0  0  0
 13 14  1  1  0  0  0
 13  7  1  0  0  0  0
 13 11  1  0  0  0  0
 14 10  1  0  0  0  0
 15 16  1  1  0  0  0
 15 19  1  0  0  0  0
 17 19  1  0  0  0  0
 19 20  1  0  0  0  0
 19 18  1  0  0  0  0
 21 22  1  0  0  0  0
 23 29  1  1  0  0  0
 23 28  1  0  0  0  0
 24 26  1  0  0  0  0
 25 22  1  6  0  0  0
 25 30  1  0  0  0  0
 25 24  1  0  0  0  0
 26 28  1  0  0  0  0
 27 32  1  6  0  0  0
 27 23  1  0  0  0  0
 30 27  1  0  0  0  0
 30 23  1  0  0  0  0
 31 32  1  0  0  0  0
M  END
>  <MODEL>
6

>  <REMARK>
 VINA RESULT:      -8.1      2.763      4.145
  Name = 
  7 active torsions:
  status: ('A' for Active; 'I' for Inactive)
    1  A    between atoms: C_2  and  C_8
    2  A    between atoms: C_2  and  C_13
    3  A    between atoms: C_6  and  C_13
    4  A    between atoms: C_15  and  C_17
    5  A    between atoms: C_15  and  C_25
    6  A    between atoms: C_20  and  N_23
    7  A    between atoms: C_21  and  C_27
                            x       y       z     vdW  Elec       q    Type
                         _______ _______ _______ _____ _____    ______ ____

>  <TORSDO>
F 7

$$$$
=
 OpenBabel11062412413D

 32 36  0  0  1  0  0  0  0  0999 V2000
  187.4830  178.6220  139.8260 O   0  0  0  0  0  0  0  0  0  0  0  0
  185.1570  178.7090  142.4620 C   0  0  0  0  0  0  0  0  0  0  0  0
  186.2320  178.3730  143.1630 C   0  0  0  0  0  0  0  0  0  0  0  0
  186.8600  178.5970  140.9190 C   0  0  0  0  0  0  0  0  0  0  0  0
  183.4360  178.9260  142.8410 S   0  0  0  0  0  0  0  0  0  0  0  0
  185.4530  178.8480  141.0980 C   0  0  0  0  0  0  0  0  0  0  0  0
  183.2110  179.1690  141.0780 N   0  0  0  0  0  0  0  0  0  0  0  0
  187.4520  178.2900  142.2670 C   0  0  0  0  0  2  0  0  0  0  0  0
  184.4220  179.0730  140.3140 C   0  0  0  0  0  3  0  0  0  0  0  0
  181.2870  178.2820  138.2850 O   0  0  0  0  0  0  0  0  0  0  0  0
  181.3390  177.6980  140.5700 C   0  0  0  0  0  2  0  0  0  0  0  0
  181.2960  177.1740  139.1500 C   0  0  1  0  0  3  0  0  0  0  0  0
  181.9140  179.0750  140.4230 C   0  0  2  0  0  3  0  0  0  0  0  0
  182.0600  179.2590  138.9290 C   0  0  0  0  0  2  0  0  0  0  0  0
  180.0600  176.3000  138.9220 C   0  0  1  0  0  3  0  0  0  0  0  0
  179.5470  176.5290  137.6410 O   0  0  0  0  0  1  0  0  0  0  0  0
  180.3970  174.4700  140.4270 F   0  0  0  0  0  0  0  0  0  0  0  0
  179.4120  174.0450  138.4430 F   0  0  0  0  0  0  0  0  0  0  0  0
  180.3680  174.8090  139.0850 C   0  0  0  0  0  0  0  0  0  0  0  0
  181.6010  174.5300  138.5240 F   0  0  0  0  0  0  0  0  0  0  0  0
  186.2550  178.1430  144.6350 C   0  0  0  0  0  2  0  0  0  0  0  0
  186.7870  176.7530  144.9460 C   0  0  0  0  0  2  0  0  0  0  0  0
  190.4080  177.2250  146.2070 C   0  0  2  0  0  0  0  0  0  0  0  0
  187.6360  177.9920  146.9550 C   0  0  0  0  0  2  0  0  0  0  0  0
  187.8910  176.8270  145.9850 C   0  0  2  0  0  3  0  0  0  0  0  0
  188.7920  178.2610  147.9240 C   0  0  0  0  0  2  0  0  0  0  0  0
  189.8890  178.2450  145.1860 C   0  0  2  0  0  3  0  0  0  0  0  0
  190.0280  177.3890  147.6870 C   0  0  0  0  0  2  0  0  0  0  0  0
  191.6790  176.4460  145.9060 C   0  0  0  0  0  1  0  0  0  0  0  0
  189.2620  176.8510  145.2760 C   0  0  1  0  0  3  0  0  0  0  0  0
  191.5080  179.4960  143.9690 O   0  0  0  0  0  1  0  0  0  0  0  0
  190.7410  178.3330  143.9290 C   0  0  0  0  0  2  0  0  0  0  0  0
  1  4  2  0  0  0  0
  2  5  1  0  0  0  0
  2  3  2  0  0  0  0
  3 21  1  0  0  0  0
  4  6  1  0  0  0  0
  4  8  1  0  0  0  0
  6  2  1  0  0  0  0
  7  5  1  0  0  0  0
  8  3  1  0  0  0  0
  9  7  1  0  0  0  0
  9  6  2  0  0  0  0
 10 14  1  0  0  0  0
 10 12  1  0  0  0  0
 12 15  1  1  0  0  0
 12 11  1  0  0  0  0
 13 14  1  6  0  0  0
 13 11  1  0  0  0  0
 13  7  1  0  0  0  0
 15 16  1  6  0  0  0
 15 19  1  0  0  0  0
 18 19  1  0  0  0  0
 19 17  1  0  0  0  0
 20 19  1  0  0  0  0
 21 22  1  0  0  0  0
 23 29  1  6  0  0  0
 23 28  1  0  0  0  0
 24 26  1  0  0  0  0
 25 22  1  6  0  0  0
 25 24  1  0  0  0  0
 27 32  1  6  0  0  0
 27 30  1  0  0  0  0
 27 23  1  0  0  0  0
 28 26  1  0  0  0  0
 30 25  1  0  0  0  0
 30 23  1  0  0  0  0
 32 31  1  0  0  0  0
M  END
>  <MODEL>
7

>  <REMARK>
 VINA RESULT:      -8.1      2.974      3.685
  Name = 
  7 active torsions:
  status: ('A' for Active; 'I' for Inactive)
    1  A    between atoms: C_2  and  C_8
    2  A    between atoms: C_2  and  C_13
    3  A    between atoms: C_6  and  C_13
    4  A    between atoms: C_15  and  C_17
    5  A    between atoms: C_15  and  C_25
    6  A    between atoms: C_20  and  N_23
    7  A    between atoms: C_21  and  C_27
                            x       y       z     vdW  Elec       q    Type
                         _______ _______ _______ _____ _____    ______ ____

>  <TORSDO>
F 7

$$$$
=
 OpenBabel11062412413D

 32 36  0  0  1  0  0  0  0  0999 V2000
  186.6250  178.6580  139.4270 O   0  0  0  0  0  0  0  0  0  0  0  0
  189.7840  177.3950  140.3160 C   0  0  0  0  0  0  0  0  0  0  0  0
  189.9350  177.3830  138.9970 C   0  0  0  0  0  0  0  0  0  0  0  0
  187.8000  178.2100  139.4850 C   0  0  0  0  0  0  0  0  0  0  0  0
  190.7770  176.8670  141.6910 S   0  0  0  0  0  0  0  0  0  0  0  0
  188.5170  177.8680  140.6860 C   0  0  0  0  0  0  0  0  0  0  0  0
  189.3650  177.3020  142.7090 N   0  0  0  0  0  0  0  0  0  0  0  0
  188.6980  177.9290  138.3120 C   0  0  0  0  0  2  0  0  0  0  0  0
  188.2440  177.8090  141.9710 C   0  0  0  0  0  3  0  0  0  0  0  0
  189.1140  177.9850  146.1390 O   0  0  0  0  0  0  0  0  0  0  0  0
  187.7660  176.9400  144.5090 C   0  0  0  0  0  2  0  0  0  0  0  0
  187.8060  177.9620  145.6250 C   0  0  1  0  0  3  0  0  0  0  0  0
  189.1970  176.8300  144.0770 C   0  0  2  0  0  3  0  0  0  0  0  0
  189.9470  177.7230  145.0410 C   0  0  0  0  0  2  0  0  0  0  0  0
  186.7990  177.6180  146.7250 C   0  0  1  0  0  3  0  0  0  0  0  0
  187.3600  177.8740  147.9790 O   0  0  0  0  0  1  0  0  0  0  0  0
  184.9770  178.2540  145.3080 F   0  0  0  0  0  0  0  0  0  0  0  0
  184.5630  177.9740  147.5070 F   0  0  0  0  0  0  0  0  0  0  0  0
  185.4940  178.4080  146.5820 C   0  0  0  0  0  0  0  0  0  0  0  0
  185.7420  179.7500  146.8070 F   0  0  0  0  0  0  0  0  0  0  0  0
  191.1610  176.9330  138.2800 C   0  0  0  0  0  2  0  0  0  0  0  0
  191.1390  175.4250  138.0900 C   0  0  0  0  0  2  0  0  0  0  0  0
  194.3450  174.6950  136.0610 C   0  0  2  0  0  0  0  0  0  0  0  0
  191.6150  173.5880  136.4490 C   0  0  0  0  0  2  0  0  0  0  0  0
  191.9390  175.0330  136.8610 C   0  0  2  0  0  3  0  0  0  0  0  0
  192.5100  173.0420  135.3310 C   0  0  0  0  0  2  0  0  0  0  0  0
  194.2580  174.0860  137.4650 C   0  0  2  0  0  3  0  0  0  0  0  0
  193.6260  173.9970  134.8970 C   0  0  0  0  0  2  0  0  0  0  0  0
  195.5240  175.5880  135.7040 C   0  0  0  0  0  1  0  0  0  0  0  0
  193.4340  175.3260  137.1070 C   0  0  1  0  0  3  0  0  0  0  0  0
  195.8110  173.3930  139.1320 O   0  0  0  0  0  1  0  0  0  0  0  0
  195.4070  174.4910  138.3750 C   0  0  0  0  0  2  0  0  0  0  0  0
  1  4  2  0  0  0  0
  2  6  1  0  0  0  0
  2  5  1  0  0  0  0
  3  2  2  0  0  0  0
  4  6  1  0  0  0  0
  5  7  1  0  0  0  0
  6  9  2  0  0  0  0
  8  3  1  0  0  0  0
  8  4  1  0  0  0  0
  9  7  1  0  0  0  0
 11 12  1  0  0  0  0
 12 10  1  0  0  0  0
 12 15  1  1  0  0  0
 13  7  1  6  0  0  0
 13 11  1  0  0  0  0
 13 14  1  0  0  0  0
 14 10  1  0  0  0  0
 15 16  1  1  0  0  0
 17 19  1  0  0  0  0
 19 15  1  0  0  0  0
 19 20  1  0  0  0  0
 19 18  1  0  0  0  0
 21  3  1  0  0  0  0
 22 21  1  0  0  0  0
 23 29  1  6  0  0  0
 23 30  1  0  0  0  0
 23 27  1  0  0  0  0
 24 25  1  0  0  0  0
 25 30  1  0  0  0  0
 25 22  1  1  0  0  0
 26 24  1  0  0  0  0
 27 32  1  1  0  0  0
 28 26  1  0  0  0  0
 28 23  1  0  0  0  0
 30 27  1  0  0  0  0
 32 31  1  0  0  0  0
M  END
>  <MODEL>
8

>  <REMARK>
 VINA RESULT:      -8.1      6.723      9.523
  Name = 
  7 active torsions:
  status: ('A' for Active; 'I' for Inactive)
    1  A    between atoms: C_2  and  C_8
    2  A    between atoms: C_2  and  C_13
    3  A    between atoms: C_6  and  C_13
    4  A    between atoms: C_15  and  C_17
    5  A    between atoms: C_15  and  C_25
    6  A    between atoms: C_20  and  N_23
    7  A    between atoms: C_21  and  C_27
                            x       y       z     vdW  Elec       q    Type
                         _______ _______ _______ _____ _____    ______ ____

>  <TORSDO>
F 7

$$$$
=
 OpenBabel11062412413D

 32 36  0  0  1  0  0  0  0  0999 V2000
  192.5550  176.8160  139.4150 O   0  0  0  0  0  0  0  0  0  0  0  0
  189.1370  177.4860  139.8970 C   0  0  0  0  0  0  0  0  0  0  0  0
  189.5500  177.6760  141.1440 C   0  0  0  0  0  0  0  0  0  0  0  0
  191.4060  177.1070  139.8360 C   0  0  0  0  0  0  0  0  0  0  0  0
  187.5550  177.4920  139.0910 S   0  0  0  0  0  0  0  0  0  0  0  0
  190.1970  177.1250  139.0520 C   0  0  0  0  0  0  0  0  0  0  0  0
  188.4460  176.9630  137.6260 N   0  0  0  0  0  0  0  0  0  0  0  0
  191.0510  177.4850  141.2470 C   0  0  0  0  0  2  0  0  0  0  0  0
  189.8590  176.8100  137.8220 C   0  0  0  0  0  3  0  0  0  0  0  0
  187.8410  174.1610  135.6070 O   0  0  0  0  0  0  0  0  0  0  0  0
  186.5320  175.6530  136.8810 C   0  0  0  0  0  2  0  0  0  0  0  0
  186.8240  174.2000  136.5760 C   0  0  1  0  0  3  0  0  0  0  0  0
  187.7900  176.3610  136.4730 C   0  0  2  0  0  3  0  0  0  0  0  0
  188.6550  175.2700  135.8810 C   0  0  0  0  0  2  0  0  0  0  0  0
  185.5700  173.4800  136.0720 C   0  0  1  0  0  3  0  0  0  0  0  0
  185.9330  172.4400  135.2110 O   0  0  0  0  0  1  0  0  0  0  0  0
  185.5270  172.6500  138.3170 F   0  0  0  0  0  0  0  0  0  0  0  0
  183.7420  173.8170  137.5820 F   0  0  0  0  0  0  0  0  0  0  0  0
  184.7270  172.9160  137.2200 C   0  0  0  0  0  0  0  0  0  0  0  0
  184.1190  171.7430  136.8120 F   0  0  0  0  0  0  0  0  0  0  0  0
  188.6730  178.0620  142.2850 C   0  0  0  0  0  2  0  0  0  0  0  0
  187.9820  176.8360  142.8600 C   0  0  0  0  0  2  0  0  0  0  0  0
  189.9910  177.1150  146.1480 C   0  0  2  0  0  0  0  0  0  0  0  0
  187.3000  177.7830  145.0800 C   0  0  0  0  0  2  0  0  0  0  0  0
  188.1960  176.7610  144.3610 C   0  0  2  0  0  3  0  0  0  0  0  0
  187.5810  177.9110  146.5820 C   0  0  0  0  0  2  0  0  0  0  0  0
  190.1340  178.2680  145.1470 C   0  0  2  0  0  3  0  0  0  0  0  0
  188.7650  177.0750  147.0740 C   0  0  0  0  0  2  0  0  0  0  0  0
  191.2350  176.3790  146.6230 C   0  0  0  0  0  1  0  0  0  0  0  0
  189.7030  176.8770  144.6720 C   0  0  1  0  0  3  0  0  0  0  0  0
  191.6280  179.7000  143.9710 O   0  0  0  0  0  1  0  0  0  0  0  0
  191.5690  178.5250  144.7170 C   0  0  0  0  0  2  0  0  0  0  0  0
  1  4  2  0  0  0  0
  2  3  2  0  0  0  0
  3  8  1  0  0  0  0
  3 21  1  0  0  0  0
  4  8  1  0  0  0  0
  5  2  1  0  0  0  0
  6  4  1  0  0  0  0
  6  2  1  0  0  0  0
  7  9  1  0  0  0  0
  7  5  1  0  0  0  0
  9  6  2  0  0  0  0
 10 14  1  0  0  0  0
 10 12  1  0  0  0  0
 12 15  1  6  0  0  0
 12 11  1  0  0  0  0
 13 14  1  1  0  0  0
 13 11  1  0  0  0  0
 13  7  1  0  0  0  0
 15 16  1  6  0  0  0
 15 19  1  0  0  0  0
 19 18  1  0  0  0  0
 19 17  1  0  0  0  0
 20 19  1  0  0  0  0
 21 22  1  0  0  0  0
 23 29  1  1  0  0  0
 23 28  1  0  0  0  0
 24 26  1  0  0  0  0
 25 22  1  6  0  0  0
 25 30  1  0  0  0  0
 25 24  1  0  0  0  0
 26 28  1  0  0  0  0
 27 32  1  6  0  0  0
 27 23  1  0  0  0  0
 30 27  1  0  0  0  0
 30 23  1  0  0  0  0
 31 32  1  0  0  0  0
M  END
>  <MODEL>
9

>  <REMARK>
 VINA RESULT:      -8.0      5.398      6.632
  Name = 
  7 active torsions:
  status: ('A' for Active; 'I' for Inactive)
    1  A    between atoms: C_2  and  C_8
    2  A    between atoms: C_2  and  C_13
    3  A    between atoms: C_6  and  C_13
    4  A    between atoms: C_15  and  C_17
    5  A    between atoms: C_15  and  C_25
    6  A    between atoms: C_20  and  N_23
    7  A    between atoms: C_21  and  C_27
                            x       y       z     vdW  Elec       q    Type
                         _______ _______ _______ _____ _____    ______ ____

>  <TORSDO>
F 7

$$$$
