=
 OpenBabel11062412263D

 37 40  0  0  1  0  0  0  0  0999 V2000
  189.0080  176.1850  137.4770 C   0  0  1  0  0  3  0  0  0  0  0  0
  189.0410  177.0490  141.7890 C   0  0  0  0  0  2  0  0  0  0  0  0
  190.3050  176.4670  138.2060 C   0  0  0  0  0  0  0  0  0  0  0  0
  188.1910  178.1390  139.7670 C   0  0  2  0  0  3  0  0  0  0  0  0
  187.3220  178.5700  140.9320 C   0  0  0  0  0  2  0  0  0  0  0  0
  187.3420  177.7970  138.5350 C   0  0  1  0  0  3  0  0  0  0  0  0
  186.4890  178.8660  138.2470 O   0  0  0  0  0  1  0  0  0  0  0  0
  188.1900  177.4780  137.2900 C   0  0  2  0  0  3  0  0  0  0  0  0
  191.5360  176.4670  137.5260 C   0  0  0  0  0  3  0  0  0  0  0  0
  190.2770  176.8080  139.5740 C   0  0  0  0  0  0  0  0  0  0  0  0
  192.7270  176.7710  138.1890 C   0  0  0  0  0  0  0  0  0  0  0  0
  188.0880  178.1660  142.1780 C   0  0  1  0  0  3  0  0  0  0  0  0
  188.9490  176.9220  140.2740 C   0  0  1  0  0  3  0  0  0  0  0  0
  187.3440  177.3780  136.1780 O   0  0  0  0  0  1  0  0  0  0  0  0
  191.4740  177.1280  140.2330 C   0  0  0  0  0  3  0  0  0  0  0  0
  192.6900  177.0990  139.5510 C   0  0  0  0  0  3  0  0  0  0  0  0
  185.9870  177.4960  143.0160 O   0  0  0  0  0  0  0  0  0  0  0  0
  187.1800  177.7710  143.3090 C   0  0  0  0  0  0  0  0  0  0  0  0
  185.3130  178.5530  145.6280 C   0  0  0  0  0  1  0  0  0  0  0  0
  189.4410  177.2010  146.4000 C   0  0  0  0  0  2  0  0  0  0  0  0
  186.7350  178.1670  145.8530 C   0  0  0  0  0  0  0  0  0  0  0  0
  188.8720  177.3080  145.0110 C   0  0  0  0  0  3  0  0  0  0  0  0
  188.9860  177.9720  148.6100 O   0  0  0  0  0  0  0  0  0  0  0  0
  188.5600  177.8260  147.4360 C   0  0  0  0  0  0  0  0  0  0  0  0
  187.6260  177.7270  144.7350 C   0  0  0  0  0  0  0  0  0  0  0  0
  187.1870  178.2220  147.1070 C   0  0  0  0  0  3  0  0  0  0  0  0
  189.2110  175.4290  136.2240 C   0  0  0  0  0  0  0  0  0  0  0  0
  189.3710  174.8380  135.2410 N   0  0  0  0  0  0  0  0  0  0  0  0
  193.9280  176.7410  137.4720 O   0  0  0  0  0  0  0  0  0  0  0  0
  194.4120  175.5780  136.8040 C   0  0  2  0  0  3  0  0  0  0  0  0
  195.6720  174.8670  138.7050 O   0  0  0  0  0  1  0  0  0  0  0  0
  194.8600  174.5480  137.7980 C   0  0  0  0  0  0  0  0  0  0  0  0
  194.3820  173.2450  137.7290 O   0  0  0  0  0  0  0  0  0  0  0  0
  196.0540  174.7900  135.0070 C   0  0  0  0  0  1  0  0  0  0  0  0
  195.5000  175.9690  135.7960 C   0  0  1  0  0  3  0  0  0  0  0  0
  195.6090  178.3390  135.3560 O   0  0  0  0  0  1  0  0  0  0  0  0
  195.0930  177.1280  134.8900 C   0  0  0  0  0  2  0  0  0  0  0  0
  1 27  1  6  0  0  0
  1  3  1  0  0  0  0
  2 12  1  0  0  0  0
  3 10  1  0  0  0  0
  4 13  1  0  0  0  0
  4  5  1  1  0  0  0
  5 12  1  0  0  0  0
  6  7  1  6  0  0  0
  6  4  1  0  0  0  0
  8 14  1  6  0  0  0
  8  1  1  0  0  0  0
  8  6  1  0  0  0  0
  9 11  1  0  0  0  0
  9  3  2  0  0  0  0
 10 15  2  0  0  0  0
 10 13  1  0  0  0  0
 11 16  2  0  0  0  0
 12 18  1  1  0  0  0
 13  2  1  1  0  0  0
 16 15  1  0  0  0  0
 17 18  2  0  0  0  0
 18 25  1  0  0  0  0
 19 21  1  0  0  0  0
 20 24  1  0  0  0  0
 21 26  2  0  0  0  0
 22 20  1  0  0  0  0
 24 23  2  0  0  0  0
 25 22  2  0  0  0  0
 25 21  1  0  0  0  0
 26 24  1  0  0  0  0
 28 27  3  0  0  0  0
 29 11  1  0  0  0  0
 30 29  1  1  0  0  0
 30 32  1  0  0  0  0
 32 31  1  0  0  0  0
 33 32  2  0  0  0  0
 35 34  1  6  0  0  0
 35 30  1  0  0  0  0
 37 36  1  0  0  0  0
 37 35  1  0  0  0  0
M  END
>  <MODEL>
1

>  <REMARK>
 VINA RESULT:      -9.2      0.000      0.000
  Name = 
  8 active torsions:
  status: ('A' for Active; 'I' for Inactive)
    1  A    between atoms: C_2  and  C_7
    2  A    between atoms: C_2  and  O_27
    3  A    between atoms: C_2  and  C_34
    4  A    between atoms: C_4  and  C_17
    5  A    between atoms: C_15  and  C_34
    6  A    between atoms: C_25  and  O_27
    7  A    between atoms: C_26  and  C_28
    8  A    between atoms: C_26  and  C_32
                            x       y       z     vdW  Elec       q    Type
                         _______ _______ _______ _____ _____    ______ ____

>  <TORSDO>
F 8

$$$$
=
 OpenBabel11062412263D

 37 40  0  0  1  0  0  0  0  0999 V2000
  185.3290  179.2590  145.0780 C   0  0  1  0  0  3  0  0  0  0  0  0
  185.3410  179.1830  140.6810 C   0  0  0  0  0  2  0  0  0  0  0  0
  186.4130  178.5270  144.3140 C   0  0  0  0  0  0  0  0  0  0  0  0
  183.9140  178.3050  142.4680 C   0  0  2  0  0  3  0  0  0  0  0  0
  183.0500  178.5190  141.2410 C   0  0  0  0  0  2  0  0  0  0  0  0
  183.2110  178.7990  143.7390 C   0  0  1  0  0  3  0  0  0  0  0  0
  181.9420  178.2180  143.8240 O   0  0  0  0  0  1  0  0  0  0  0  0
  183.9980  178.4820  145.0240 C   0  0  2  0  0  3  0  0  0  0  0  0
  187.4440  177.8460  144.9860 C   0  0  0  0  0  3  0  0  0  0  0  0
  186.3520  178.4630  142.9060 C   0  0  0  0  0  0  0  0  0  0  0  0
  188.4170  177.1340  144.2810 C   0  0  0  0  0  0  0  0  0  0  0  0
  184.0210  178.7150  140.0920 C   0  0  1  0  0  3  0  0  0  0  0  0
  185.1850  179.0930  142.1940 C   0  0  1  0  0  3  0  0  0  0  0  0
  183.1980  178.7840  146.1320 O   0  0  0  0  0  1  0  0  0  0  0  0
  187.3240  177.7340  142.2030 C   0  0  0  0  0  3  0  0  0  0  0  0
  188.3530  177.0840  142.8830 C   0  0  0  0  0  3  0  0  0  0  0  0
  184.1450  180.7260  138.8630 O   0  0  0  0  0  0  0  0  0  0  0  0
  183.4960  179.6630  139.0490 C   0  0  0  0  0  0  0  0  0  0  0  0
  183.3150  177.4300  136.9390 C   0  0  0  0  0  1  0  0  0  0  0  0
  179.8380  179.9980  137.8250 C   0  0  0  0  0  2  0  0  0  0  0  0
  182.1820  178.3620  137.2040 C   0  0  0  0  0  0  0  0  0  0  0  0
  181.1610  180.1590  138.5230 C   0  0  0  0  0  3  0  0  0  0  0  0
  178.9310  178.9690  135.8740 O   0  0  0  0  0  0  0  0  0  0  0  0
  179.9100  179.0640  136.6570 C   0  0  0  0  0  0  0  0  0  0  0  0
  182.2460  179.4080  138.2720 C   0  0  0  0  0  0  0  0  0  0  0  0
  181.0910  178.2210  136.4490 C   0  0  0  0  0  3  0  0  0  0  0  0
  185.7450  179.6210  146.4490 C   0  0  0  0  0  0  0  0  0  0  0  0
  186.0700  179.9040  147.5230 N   0  0  0  0  0  0  0  0  0  0  0  0
  189.4310  176.4870  144.9960 O   0  0  0  0  0  0  0  0  0  0  0  0
  190.7550  177.0020  145.1170 C   0  0  2  0  0  3  0  0  0  0  0  0
  192.0710  176.9760  143.1240 O   0  0  0  0  0  0  0  0  0  0  0  0
  191.6710  176.3380  144.1320 C   0  0  0  0  0  0  0  0  0  0  0  0
  192.0880  175.0270  144.3290 O   0  0  0  0  0  1  0  0  0  0  0  0
  190.1080  177.0030  147.5930 C   0  0  0  0  0  1  0  0  0  0  0  0
  191.2310  176.8840  146.5700 C   0  0  1  0  0  3  0  0  0  0  0  0
  192.8630  175.8050  147.9830 O   0  0  0  0  0  1  0  0  0  0  0  0
  192.1060  175.6580  146.8180 C   0  0  0  0  0  2  0  0  0  0  0  0
  1 27  1  1  0  0  0
  3  9  1  0  0  0  0
  3  1  1  0  0  0  0
  4  5  1  6  0  0  0
  4  6  1  0  0  0  0
  6  7  1  1  0  0  0
  6  8  1  0  0  0  0
  8  1  1  0  0  0  0
  8 14  1  1  0  0  0
 10  3  2  0  0  0  0
 11  9  2  0  0  0  0
 11 29  1  0  0  0  0
 12 18  1  6  0  0  0
 12  2  1  0  0  0  0
 12  5  1  0  0  0  0
 13  2  1  6  0  0  0
 13  4  1  0  0  0  0
 13 10  1  0  0  0  0
 15 16  2  0  0  0  0
 15 10  1  0  0  0  0
 16 11  1  0  0  0  0
 17 18  2  0  0  0  0
 19 21  1  0  0  0  0
 20 22  1  0  0  0  0
 21 25  1  0  0  0  0
 23 24  2  0  0  0  0
 24 20  1  0  0  0  0
 25 22  2  0  0  0  0
 25 18  1  0  0  0  0
 26 24  1  0  0  0  0
 26 21  2  0  0  0  0
 27 28  3  0  0  0  0
 29 30  1  0  0  0  0
 30 32  1  6  0  0  0
 30 35  1  0  0  0  0
 31 32  2  0  0  0  0
 32 33  1  0  0  0  0
 35 37  1  0  0  0  0
 35 34  1  1  0  0  0
 37 36  1  0  0  0  0
M  END
>  <MODEL>
2

>  <REMARK>
 VINA RESULT:      -8.4      5.557      9.361
  Name = 
  8 active torsions:
  status: ('A' for Active; 'I' for Inactive)
    1  A    between atoms: C_2  and  C_7
    2  A    between atoms: C_2  and  O_27
    3  A    between atoms: C_2  and  C_34
    4  A    between atoms: C_4  and  C_17
    5  A    between atoms: C_15  and  C_34
    6  A    between atoms: C_25  and  O_27
    7  A    between atoms: C_26  and  C_28
    8  A    between atoms: C_26  and  C_32
                            x       y       z     vdW  Elec       q    Type
                         _______ _______ _______ _____ _____    ______ ____

>  <TORSDO>
F 8

$$$$
=
 OpenBabel11062412263D

 37 40  0  0  1  0  0  0  0  0999 V2000
  181.5240  178.2210  142.1940 C   0  0  1  0  0  3  0  0  0  0  0  0
  185.8900  177.7510  141.9760 C   0  0  0  0  0  2  0  0  0  0  0  0
  182.3130  178.8010  141.0400 C   0  0  0  0  0  0  0  0  0  0  0  0
  184.3010  178.9090  143.4360 C   0  0  2  0  0  3  0  0  0  0  0  0
  185.5360  178.5840  144.2520 C   0  0  0  0  0  2  0  0  0  0  0  0
  183.0170  178.6090  144.2220 C   0  0  1  0  0  3  0  0  0  0  0  0
  183.0700  179.2540  145.4610 O   0  0  0  0  0  1  0  0  0  0  0  0
  181.7420  179.0460  143.4790 C   0  0  2  0  0  3  0  0  0  0  0  0
  181.6760  179.5120  140.0070 C   0  0  0  0  0  3  0  0  0  0  0  0
  183.7200  178.6930  141.0320 C   0  0  0  0  0  0  0  0  0  0  0  0
  182.4100  180.0850  138.9660 C   0  0  0  0  0  0  0  0  0  0  0  0
  186.6000  178.2020  143.2400 C   0  0  1  0  0  3  0  0  0  0  0  0
  184.4100  178.0340  142.1970 C   0  0  1  0  0  3  0  0  0  0  0  0
  180.6480  178.9210  144.3440 O   0  0  0  0  0  1  0  0  0  0  0  0
  184.4540  179.2840  139.9920 C   0  0  0  0  0  3  0  0  0  0  0  0
  183.8060  179.9650  138.9620 C   0  0  0  0  0  3  0  0  0  0  0  0
  187.6060  176.0710  143.1340 O   0  0  0  0  0  0  0  0  0  0  0  0
  187.5460  177.1580  143.7660 C   0  0  0  0  0  0  0  0  0  0  0  0
  190.6180  177.3250  143.6670 C   0  0  0  0  0  1  0  0  0  0  0  0
  188.4510  177.6940  147.4920 C   0  0  0  0  0  2  0  0  0  0  0  0
  189.8650  177.3690  144.9520 C   0  0  0  0  0  0  0  0  0  0  0  0
  187.7460  177.4810  146.1810 C   0  0  0  0  0  3  0  0  0  0  0  0
  190.6340  177.4910  148.4300 O   0  0  0  0  0  0  0  0  0  0  0  0
  189.9350  177.5200  147.3860 C   0  0  0  0  0  0  0  0  0  0  0  0
  188.3690  177.3500  144.9980 C   0  0  0  0  0  0  0  0  0  0  0  0
  190.5830  177.4340  146.0740 C   0  0  0  0  0  3  0  0  0  0  0  0
  180.0990  178.0120  141.8620 C   0  0  0  0  0  0  0  0  0  0  0  0
  178.9830  177.8490  141.6030 N   0  0  0  0  0  0  0  0  0  0  0  0
  181.7280  180.7680  137.9540 O   0  0  0  0  0  0  0  0  0  0  0  0
  180.9840  181.9630  138.1800 C   0  0  2  0  0  3  0  0  0  0  0  0
  178.9550  182.3910  139.3690 O   0  0  0  0  0  1  0  0  0  0  0  0
  179.5720  181.6380  138.5700 C   0  0  0  0  0  0  0  0  0  0  0  0
  178.9360  180.5170  138.0500 O   0  0  0  0  0  0  0  0  0  0  0  0
  179.8040  182.9410  136.1310 C   0  0  0  0  0  1  0  0  0  0  0  0
  181.0830  182.8810  136.9560 C   0  0  1  0  0  3  0  0  0  0  0  0
  180.9920  185.2520  136.5160 O   0  0  0  0  0  1  0  0  0  0  0  0
  181.6190  184.2710  137.2880 C   0  0  0  0  0  2  0  0  0  0  0  0
  1 27  1  6  0  0  0
  1  8  1  0  0  0  0
  2 12  1  0  0  0  0
  3  1  1  0  0  0  0
  4  6  1  0  0  0  0
  4  5  1  1  0  0  0
  6  7  1  1  0  0  0
  8  6  1  0  0  0  0
  8 14  1  1  0  0  0
  9  3  2  0  0  0  0
 10  3  1  0  0  0  0
 10 13  1  0  0  0  0
 11  9  1  0  0  0  0
 12 18  1  1  0  0  0
 12  5  1  0  0  0  0
 13  2  1  6  0  0  0
 13  4  1  0  0  0  0
 15 10  2  0  0  0  0
 16 11  2  0  0  0  0
 16 15  1  0  0  0  0
 17 18  2  0  0  0  0
 18 25  1  0  0  0  0
 19 21  1  0  0  0  0
 21 25  1  0  0  0  0
 21 26  2  0  0  0  0
 22 20  1  0  0  0  0
 24 20  1  0  0  0  0
 24 23  2  0  0  0  0
 25 22  2  0  0  0  0
 26 24  1  0  0  0  0
 28 27  3  0  0  0  0
 29 11  1  0  0  0  0
 30 29  1  6  0  0  0
 30 32  1  0  0  0  0
 32 31  1  0  0  0  0
 33 32  2  0  0  0  0
 35 34  1  1  0  0  0
 35 37  1  0  0  0  0
 35 30  1  0  0  0  0
 36 37  1  0  0  0  0
M  END
>  <MODEL>
3

>  <REMARK>
 VINA RESULT:      -8.3      6.038     10.026
  Name = 
  8 active torsions:
  status: ('A' for Active; 'I' for Inactive)
    1  A    between atoms: C_2  and  C_7
    2  A    between atoms: C_2  and  O_27
    3  A    between atoms: C_2  and  C_34
    4  A    between atoms: C_4  and  C_17
    5  A    between atoms: C_15  and  C_34
    6  A    between atoms: C_25  and  O_27
    7  A    between atoms: C_26  and  C_28
    8  A    between atoms: C_26  and  C_32
                            x       y       z     vdW  Elec       q    Type
                         _______ _______ _______ _____ _____    ______ ____

>  <TORSDO>
F 8

$$$$
=
 OpenBabel11062412263D

 37 40  0  0  1  0  0  0  0  0999 V2000
  188.3190  177.3910  137.9010 C   0  0  1  0  0  3  0  0  0  0  0  0
  192.5950  176.5710  138.5200 C   0  0  0  0  0  2  0  0  0  0  0  0
  188.9450  177.5100  139.2760 C   0  0  0  0  0  0  0  0  0  0  0  0
  190.6140  175.2790  137.8830 C   0  0  2  0  0  3  0  0  0  0  0  0
  191.8280  174.6060  137.2750 C   0  0  0  0  0  2  0  0  0  0  0  0
  189.4550  175.3520  136.8790 C   0  0  1  0  0  3  0  0  0  0  0  0
  189.2040  174.0770  136.3660 O   0  0  0  0  0  1  0  0  0  0  0  0
  188.1600  175.9120  137.4960 C   0  0  2  0  0  3  0  0  0  0  0  0
  188.1780  177.8810  140.3950 C   0  0  0  0  0  3  0  0  0  0  0  0
  190.3030  177.1750  139.4550 C   0  0  0  0  0  0  0  0  0  0  0  0
  188.7460  177.9470  141.6690 C   0  0  0  0  0  0  0  0  0  0  0  0
  193.0250  175.2200  137.9770 C   0  0  1  0  0  3  0  0  0  0  0  0
  191.0940  176.6670  138.2780 C   0  0  1  0  0  3  0  0  0  0  0  0
  187.1160  175.7550  136.5770 O   0  0  0  0  0  1  0  0  0  0  0  0
  190.8660  177.2280  140.7390 C   0  0  0  0  0  3  0  0  0  0  0  0
  190.0980  177.6210  141.8350 C   0  0  0  0  0  3  0  0  0  0  0  0
  194.4290  176.4310  136.5180 O   0  0  0  0  0  0  0  0  0  0  0  0
  194.2280  175.3230  137.0810 C   0  0  0  0  0  0  0  0  0  0  0  0
  196.2330  174.3240  139.1920 C   0  0  0  0  0  1  0  0  0  0  0  0
  195.9350  172.3700  135.2470 C   0  0  0  0  0  2  0  0  0  0  0  0
  196.1640  173.7330  137.8250 C   0  0  0  0  0  0  0  0  0  0  0  0
  195.0790  173.5460  135.6340 C   0  0  0  0  0  3  0  0  0  0  0  0
  197.9350  171.2770  135.9460 O   0  0  0  0  0  0  0  0  0  0  0  0
  197.0360  172.1100  136.2270 C   0  0  0  0  0  0  0  0  0  0  0  0
  195.1490  174.1750  136.8180 C   0  0  0  0  0  0  0  0  0  0  0  0
  197.0470  172.7780  137.5310 C   0  0  0  0  0  3  0  0  0  0  0  0
  187.0730  178.1750  137.7740 C   0  0  0  0  0  0  0  0  0  0  0  0
  186.0960  178.7880  137.6730 N   0  0  0  0  0  0  0  0  0  0  0  0
  187.9450  178.3360  142.7470 O   0  0  0  0  0  0  0  0  0  0  0  0
  186.7080  177.7050  143.0710 C   0  0  2  0  0  3  0  0  0  0  0  0
  184.4550  177.8510  142.2880 O   0  0  0  0  0  1  0  0  0  0  0  0
  185.5620  178.4330  142.4330 C   0  0  0  0  0  0  0  0  0  0  0  0
  185.7100  179.7470  142.0070 O   0  0  0  0  0  0  0  0  0  0  0  0
  187.9030  177.3690  145.3080 C   0  0  0  0  0  1  0  0  0  0  0  0
  186.5730  177.5690  144.5930 C   0  0  1  0  0  3  0  0  0  0  0  0
  185.0850  178.2320  146.3730 O   0  0  0  0  0  1  0  0  0  0  0  0
  185.7420  178.6810  145.2250 C   0  0  0  0  0  2  0  0  0  0  0  0
  1 27  1  1  0  0  0
  1  3  1  0  0  0  0
  3 10  2  0  0  0  0
  3  9  1  0  0  0  0
  4  5  1  6  0  0  0
  4 13  1  0  0  0  0
  5 12  1  0  0  0  0
  6  7  1  1  0  0  0
  6  8  1  0  0  0  0
  6  4  1  0  0  0  0
  8 14  1  6  0  0  0
  8  1  1  0  0  0  0
  9 11  2  0  0  0  0
 10 15  1  0  0  0  0
 11 16  1  0  0  0  0
 11 29  1  0  0  0  0
 12 18  1  6  0  0  0
 12  2  1  0  0  0  0
 13  2  1  1  0  0  0
 13 10  1  0  0  0  0
 15 16  2  0  0  0  0
 17 18  2  0  0  0  0
 20 22  1  0  0  0  0
 20 24  1  0  0  0  0
 21 19  1  0  0  0  0
 22 25  2  0  0  0  0
 23 24  2  0  0  0  0
 24 26  1  0  0  0  0
 25 18  1  0  0  0  0
 25 21  1  0  0  0  0
 26 21  2  0  0  0  0
 28 27  3  0  0  0  0
 29 30  1  0  0  0  0
 30 32  1  1  0  0  0
 30 35  1  0  0  0  0
 31 32  1  0  0  0  0
 33 32  2  0  0  0  0
 35 37  1  0  0  0  0
 35 34  1  1  0  0  0
 37 36  1  0  0  0  0
M  END
>  <MODEL>
4

>  <REMARK>
 VINA RESULT:      -8.1      2.032      9.613
  Name = 
  8 active torsions:
  status: ('A' for Active; 'I' for Inactive)
    1  A    between atoms: C_2  and  C_7
    2  A    between atoms: C_2  and  O_27
    3  A    between atoms: C_2  and  C_34
    4  A    between atoms: C_4  and  C_17
    5  A    between atoms: C_15  and  C_34
    6  A    between atoms: C_25  and  O_27
    7  A    between atoms: C_26  and  C_28
    8  A    between atoms: C_26  and  C_32
                            x       y       z     vdW  Elec       q    Type
                         _______ _______ _______ _____ _____    ______ ____

>  <TORSDO>
F 8

$$$$
=
 OpenBabel11062412263D

 37 40  0  0  1  0  0  0  0  0999 V2000
  188.1730  177.0390  137.7510 C   0  0  1  0  0  3  0  0  0  0  0  0
  192.4180  175.9430  137.4060 C   0  0  0  0  0  2  0  0  0  0  0  0
  189.1180  177.2040  138.9230 C   0  0  0  0  0  0  0  0  0  0  0  0
  190.2720  174.7640  137.3670 C   0  0  2  0  0  3  0  0  0  0  0  0
  191.2630  173.9610  136.5480 C   0  0  0  0  0  2  0  0  0  0  0  0
  188.9110  174.8550  136.6640 C   0  0  1  0  0  3  0  0  0  0  0  0
  188.4710  173.5710  136.3330 O   0  0  0  0  0  1  0  0  0  0  0  0
  187.8370  175.5520  137.5200 C   0  0  2  0  0  3  0  0  0  0  0  0
  188.6670  177.7060  140.1560 C   0  0  0  0  0  3  0  0  0  0  0  0
  190.4580  176.7800  138.8030 C   0  0  0  0  0  0  0  0  0  0  0  0
  189.5290  177.8160  141.2490 C   0  0  0  0  0  0  0  0  0  0  0  0
  192.6260  174.5290  136.8930 C   0  0  1  0  0  3  0  0  0  0  0  0
  190.9110  176.1350  137.5200 C   0  0  1  0  0  3  0  0  0  0  0  0
  186.5940  175.4120  136.8910 O   0  0  0  0  0  1  0  0  0  0  0  0
  191.3170  176.8780  139.9090 C   0  0  0  0  0  3  0  0  0  0  0  0
  190.8610  177.4010  141.1180 C   0  0  0  0  0  3  0  0  0  0  0  0
  193.0870  174.2690  134.5940 O   0  0  0  0  0  0  0  0  0  0  0  0
  193.5810  174.4800  135.7320 C   0  0  0  0  0  0  0  0  0  0  0  0
  195.0170  177.1280  135.0970 C   0  0  0  0  0  1  0  0  0  0  0  0
  197.2660  173.6240  136.5570 C   0  0  0  0  0  2  0  0  0  0  0  0
  195.7600  175.9060  135.5170 C   0  0  0  0  0  0  0  0  0  0  0  0
  195.7770  173.5970  136.3410 C   0  0  0  0  0  3  0  0  0  0  0  0
  199.1630  174.9330  135.9440 O   0  0  0  0  0  0  0  0  0  0  0  0
  197.9090  174.8550  135.9980 C   0  0  0  0  0  0  0  0  0  0  0  0
  195.0590  174.6360  135.8860 C   0  0  0  0  0  0  0  0  0  0  0  0
  197.0910  175.9900  135.5600 C   0  0  0  0  0  3  0  0  0  0  0  0
  186.9800  177.9040  137.8560 C   0  0  0  0  0  0  0  0  0  0  0  0
  186.0450  178.5820  137.9370 N   0  0  0  0  0  0  0  0  0  0  0  0
  189.0350  178.3370  142.4500 O   0  0  0  0  0  0  0  0  0  0  0  0
  188.9400  177.5760  143.6530 C   0  0  2  0  0  3  0  0  0  0  0  0
  186.5620  177.7190  143.4770 O   0  0  0  0  0  0  0  0  0  0  0  0
  187.5630  177.6860  144.2380 C   0  0  0  0  0  0  0  0  0  0  0  0
  187.3840  177.7450  145.6150 O   0  0  0  0  0  1  0  0  0  0  0  0
  190.9280  176.8350  145.0830 C   0  0  0  0  0  1  0  0  0  0  0  0
  190.0510  177.9930  144.6240 C   0  0  1  0  0  3  0  0  0  0  0  0
  192.2010  179.0860  144.5550 O   0  0  0  0  0  1  0  0  0  0  0  0
  190.8760  179.1750  144.1230 C   0  0  0  0  0  2  0  0  0  0  0  0
  1 27  1  1  0  0  0
  1  3  1  0  0  0  0
  3  9  1  0  0  0  0
  4  5  1  6  0  0  0
  4 13  1  0  0  0  0
  5 12  1  0  0  0  0
  6  7  1  1  0  0  0
  6  4  1  0  0  0  0
  6  8  1  0  0  0  0
  8 14  1  6  0  0  0
  8  1  1  0  0  0  0
  9 11  2  0  0  0  0
 10  3  2  0  0  0  0
 10 15  1  0  0  0  0
 11 29  1  0  0  0  0
 12 18  1  6  0  0  0
 12  2  1  0  0  0  0
 13  2  1  1  0  0  0
 13 10  1  0  0  0  0
 15 16  2  0  0  0  0
 16 11  1  0  0  0  0
 17 18  2  0  0  0  0
 18 25  1  0  0  0  0
 19 21  1  0  0  0  0
 21 26  2  0  0  0  0
 21 25  1  0  0  0  0
 22 20  1  0  0  0  0
 23 24  2  0  0  0  0
 24 20  1  0  0  0  0
 25 22  2  0  0  0  0
 26 24  1  0  0  0  0
 27 28  3  0  0  0  0
 30 29  1  6  0  0  0
 30 32  1  0  0  0  0
 30 35  1  0  0  0  0
 31 32  2  0  0  0  0
 32 33  1  0  0  0  0
 35 34  1  6  0  0  0
 37 36  1  0  0  0  0
 37 35  1  0  0  0  0
M  END
>  <MODEL>
5

>  <REMARK>
 VINA RESULT:      -7.9      2.303      9.146
  Name = 
  8 active torsions:
  status: ('A' for Active; 'I' for Inactive)
    1  A    between atoms: C_2  and  C_7
    2  A    between atoms: C_2  and  O_27
    3  A    between atoms: C_2  and  C_34
    4  A    between atoms: C_4  and  C_17
    5  A    between atoms: C_15  and  C_34
    6  A    between atoms: C_25  and  O_27
    7  A    between atoms: C_26  and  C_28
    8  A    between atoms: C_26  and  C_32
                            x       y       z     vdW  Elec       q    Type
                         _______ _______ _______ _____ _____    ______ ____

>  <TORSDO>
F 8

$$$$
=
 OpenBabel11062412263D

 37 40  0  0  1  0  0  0  0  0999 V2000
  180.7990  177.6170  141.4210 C   0  0  1  0  0  3  0  0  0  0  0  0
  184.7930  178.3570  143.1060 C   0  0  0  0  0  2  0  0  0  0  0  0
  181.8850  178.2740  140.5940 C   0  0  0  0  0  0  0  0  0  0  0  0
  182.5180  179.1700  143.5090 C   0  0  2  0  0  3  0  0  0  0  0  0
  183.2940  179.2850  144.8060 C   0  0  0  0  0  2  0  0  0  0  0  0
  181.1110  178.6070  143.7480 C   0  0  1  0  0  3  0  0  0  0  0  0
  180.4690  179.3620  144.7330 O   0  0  0  0  0  1  0  0  0  0  0  0
  180.2440  178.5950  142.4760 C   0  0  2  0  0  3  0  0  0  0  0  0
  181.6470  178.6720  139.2660 C   0  0  0  0  0  3  0  0  0  0  0  0
  183.1340  178.5600  141.1830 C   0  0  0  0  0  0  0  0  0  0  0  0
  182.6350  179.3180  138.5190 C   0  0  0  0  0  0  0  0  0  0  0  0
  184.7520  179.1130  144.4220 C   0  0  1  0  0  3  0  0  0  0  0  0
  183.3480  178.2400  142.6380 C   0  0  1  0  0  3  0  0  0  0  0  0
  178.9310  178.2590  142.8250 O   0  0  0  0  0  1  0  0  0  0  0  0
  184.1180  179.2230  140.4330 C   0  0  0  0  0  3  0  0  0  0  0  0
  183.8760  179.5900  139.1100 C   0  0  0  0  0  3  0  0  0  0  0  0
  185.0360  178.3630  146.6410 O   0  0  0  0  0  0  0  0  0  0  0  0
  185.5540  178.4310  145.4960 C   0  0  0  0  0  0  0  0  0  0  0  0
  187.6630  178.2930  147.7330 C   0  0  0  0  0  1  0  0  0  0  0  0
  188.5590  176.8000  143.6790 C   0  0  0  0  0  2  0  0  0  0  0  0
  187.9630  177.8680  146.3360 C   0  0  0  0  0  0  0  0  0  0  0  0
  187.2280  177.3990  144.0440 C   0  0  0  0  0  3  0  0  0  0  0  0
  190.7930  176.7070  144.5070 O   0  0  0  0  0  0  0  0  0  0  0  0
  189.5920  176.9940  144.7450 C   0  0  0  0  0  0  0  0  0  0  0  0
  186.9210  177.8750  145.2620 C   0  0  0  0  0  0  0  0  0  0  0  0
  189.2090  177.4670  146.0780 C   0  0  0  0  0  3  0  0  0  0  0  0
  179.7520  176.9890  140.5890 C   0  0  0  0  0  0  0  0  0  0  0  0
  178.9310  176.4980  139.9380 N   0  0  0  0  0  0  0  0  0  0  0  0
  182.3540  179.6790  137.1970 O   0  0  0  0  0  0  0  0  0  0  0  0
  181.0310  179.8670  136.7000 C   0  0  2  0  0  3  0  0  0  0  0  0
  179.6060  178.5420  135.3130 O   0  0  0  0  0  1  0  0  0  0  0  0
  180.7730  178.9610  135.5330 C   0  0  0  0  0  0  0  0  0  0  0  0
  181.8100  178.5860  134.6870 O   0  0  0  0  0  0  0  0  0  0  0  0
  180.6510  181.6440  134.8990 C   0  0  0  0  0  1  0  0  0  0  0  0
  180.7950  181.3490  136.3870 C   0  0  1  0  0  3  0  0  0  0  0  0
  180.0280  182.0950  138.5500 O   0  0  0  0  0  1  0  0  0  0  0  0
  179.6660  181.9660  137.2070 C   0  0  0  0  0  2  0  0  0  0  0  0
  1 27  1  6  0  0  0
  1  8  1  0  0  0  0
  2 12  1  0  0  0  0
  3 10  1  0  0  0  0
  3  1  1  0  0  0  0
  4  6  1  0  0  0  0
  4  5  1  1  0  0  0
  6  7  1  1  0  0  0
  8 14  1  1  0  0  0
  8  6  1  0  0  0  0
  9  3  2  0  0  0  0
 10 13  1  0  0  0  0
 11 16  2  0  0  0  0
 11  9  1  0  0  0  0
 12  5  1  0  0  0  0
 12 18  1  1  0  0  0
 13  2  1  1  0  0  0
 13  4  1  0  0  0  0
 15 10  2  0  0  0  0
 16 15  1  0  0  0  0
 18 17  2  0  0  0  0
 20 22  1  0  0  0  0
 20 24  1  0  0  0  0
 21 19  1  0  0  0  0
 22 25  2  0  0  0  0
 23 24  2  0  0  0  0
 24 26  1  0  0  0  0
 25 18  1  0  0  0  0
 25 21  1  0  0  0  0
 26 21  2  0  0  0  0
 28 27  3  0  0  0  0
 29 11  1  0  0  0  0
 30 32  1  6  0  0  0
 30 29  1  0  0  0  0
 31 32  1  0  0  0  0
 33 32  2  0  0  0  0
 35 34  1  6  0  0  0
 35 30  1  0  0  0  0
 35 37  1  0  0  0  0
 37 36  1  0  0  0  0
M  END
>  <MODEL>
6

>  <REMARK>
 VINA RESULT:      -7.6      6.233      9.755
  Name = 
  8 active torsions:
  status: ('A' for Active; 'I' for Inactive)
    1  A    between atoms: C_2  and  C_7
    2  A    between atoms: C_2  and  O_27
    3  A    between atoms: C_2  and  C_34
    4  A    between atoms: C_4  and  C_17
    5  A    between atoms: C_15  and  C_34
    6  A    between atoms: C_25  and  O_27
    7  A    between atoms: C_26  and  C_28
    8  A    between atoms: C_26  and  C_32
                            x       y       z     vdW  Elec       q    Type
                         _______ _______ _______ _____ _____    ______ ____

>  <TORSDO>
F 8

$$$$
=
 OpenBabel11062412263D

 37 40  0  0  1  0  0  0  0  0999 V2000
  188.8680  177.2460  138.3860 C   0  0  1  0  0  3  0  0  0  0  0  0
  193.1890  176.4580  138.1870 C   0  0  0  0  0  2  0  0  0  0  0  0
  189.7440  177.3910  139.6130 C   0  0  0  0  0  0  0  0  0  0  0  0
  191.1340  175.1460  137.9610 C   0  0  2  0  0  3  0  0  0  0  0  0
  192.2150  174.4680  137.1420 C   0  0  0  0  0  2  0  0  0  0  0  0
  189.8040  175.1960  137.1960 C   0  0  1  0  0  3  0  0  0  0  0  0
  189.4700  173.9110  136.7590 O   0  0  0  0  0  1  0  0  0  0  0  0
  188.6460  175.7590  138.0410 C   0  0  2  0  0  3  0  0  0  0  0  0
  189.2020  177.7750  140.8530 C   0  0  0  0  0  3  0  0  0  0  0  0
  191.1140  177.0650  139.5350 C   0  0  0  0  0  0  0  0  0  0  0  0
  190.0030  177.8650  141.9930 C   0  0  0  0  0  0  0  0  0  0  0  0
  193.5190  175.0990  137.5930 C   0  0  1  0  0  3  0  0  0  0  0  0
  191.6690  176.5420  138.2360 C   0  0  1  0  0  3  0  0  0  0  0  0
  187.4470  175.5820  137.3410 O   0  0  0  0  0  1  0  0  0  0  0  0
  191.9110  177.1420  140.6870 C   0  0  0  0  0  3  0  0  0  0  0  0
  191.3640  177.5490  141.9030 C   0  0  0  0  0  3  0  0  0  0  0  0
  194.2690  175.9890  135.5400 O   0  0  0  0  0  0  0  0  0  0  0  0
  194.5280  175.1940  136.4820 C   0  0  0  0  0  0  0  0  0  0  0  0
  194.6150  172.4150  135.1610 C   0  0  0  0  0  1  0  0  0  0  0  0
  198.2250  174.1660  136.9950 C   0  0  0  0  0  2  0  0  0  0  0  0
  195.7980  172.9980  135.8560 C   0  0  0  0  0  0  0  0  0  0  0  0
  196.9000  174.8780  136.9800 C   0  0  0  0  0  3  0  0  0  0  0  0
  199.1090  171.9730  136.6880 O   0  0  0  0  0  0  0  0  0  0  0  0
  198.1200  172.7390  136.5560 C   0  0  0  0  0  0  0  0  0  0  0  0
  195.7760  174.3740  136.4440 C   0  0  0  0  0  0  0  0  0  0  0  0
  196.8940  172.2410  135.9270 C   0  0  0  0  0  3  0  0  0  0  0  0
  187.6140  178.0210  138.4870 C   0  0  0  0  0  0  0  0  0  0  0  0
  186.6310  178.6280  138.5670 N   0  0  0  0  0  0  0  0  0  0  0  0
  189.4190  178.2680  143.1990 O   0  0  0  0  0  0  0  0  0  0  0  0
  189.0690  177.3590  144.2410 C   0  0  2  0  0  3  0  0  0  0  0  0
  186.9610  178.2530  144.9260 O   0  0  0  0  0  1  0  0  0  0  0  0
  187.5790  177.2900  144.4010 C   0  0  0  0  0  0  0  0  0  0  0  0
  186.8740  176.1730  143.9690 O   0  0  0  0  0  0  0  0  0  0  0  0
  189.1900  177.1280  146.7860 C   0  0  0  0  0  1  0  0  0  0  0  0
  189.8040  177.7370  145.5330 C   0  0  1  0  0  3  0  0  0  0  0  0
  191.7530  176.7190  146.5260 O   0  0  0  0  0  1  0  0  0  0  0  0
  191.3100  177.5020  145.4580 C   0  0  0  0  0  2  0  0  0  0  0  0
  1 27  1  1  0  0  0
  1  3  1  0  0  0  0
  3  9  1  0  0  0  0
  4  5  1  6  0  0  0
  4 13  1  0  0  0  0
  5 12  1  0  0  0  0
  6  7  1  1  0  0  0
  6  4  1  0  0  0  0
  6  8  1  0  0  0  0
  8 14  1  6  0  0  0
  8  1  1  0  0  0  0
  9 11  2  0  0  0  0
 10  3  2  0  0  0  0
 10 15  1  0  0  0  0
 11 29  1  0  0  0  0
 12 18  1  6  0  0  0
 12  2  1  0  0  0  0
 13  2  1  1  0  0  0
 13 10  1  0  0  0  0
 15 16  2  0  0  0  0
 16 11  1  0  0  0  0
 17 18  2  0  0  0  0
 19 21  1  0  0  0  0
 21 26  2  0  0  0  0
 21 25  1  0  0  0  0
 22 20  1  0  0  0  0
 24 23  2  0  0  0  0
 24 20  1  0  0  0  0
 25 18  1  0  0  0  0
 25 22  2  0  0  0  0
 26 24  1  0  0  0  0
 27 28  3  0  0  0  0
 30 29  1  6  0  0  0
 30 32  1  0  0  0  0
 30 35  1  0  0  0  0
 32 31  1  0  0  0  0
 33 32  2  0  0  0  0
 35 34  1  1  0  0  0
 37 35  1  0  0  0  0
 37 36  1  0  0  0  0
M  END
>  <MODEL>
7

>  <REMARK>
 VINA RESULT:      -7.5      2.276      9.458
  Name = 
  8 active torsions:
  status: ('A' for Active; 'I' for Inactive)
    1  A    between atoms: C_2  and  C_7
    2  A    between atoms: C_2  and  O_27
    3  A    between atoms: C_2  and  C_34
    4  A    between atoms: C_4  and  C_17
    5  A    between atoms: C_15  and  C_34
    6  A    between atoms: C_25  and  O_27
    7  A    between atoms: C_26  and  C_28
    8  A    between atoms: C_26  and  C_32
                            x       y       z     vdW  Elec       q    Type
                         _______ _______ _______ _____ _____    ______ ____

>  <TORSDO>
F 8

$$$$
=
 OpenBabel11062412263D

 37 40  0  0  1  0  0  0  0  0999 V2000
  181.4750  178.1530  142.1500 C   0  0  1  0  0  3  0  0  0  0  0  0
  185.8430  177.9380  141.6880 C   0  0  0  0  0  2  0  0  0  0  0  0
  182.1630  178.7710  140.9510 C   0  0  0  0  0  0  0  0  0  0  0  0
  184.2720  179.0100  143.2320 C   0  0  2  0  0  3  0  0  0  0  0  0
  185.5680  178.7630  143.9780 C   0  0  0  0  0  2  0  0  0  0  0  0
  183.0540  178.6400  144.0900 C   0  0  1  0  0  3  0  0  0  0  0  0
  183.1370  179.2950  145.3220 O   0  0  0  0  0  1  0  0  0  0  0  0
  181.7150  178.9970  143.4180 C   0  0  2  0  0  3  0  0  0  0  0  0
  181.4280  179.4370  139.9540 C   0  0  0  0  0  3  0  0  0  0  0  0
  183.5710  178.7460  140.8650 C   0  0  0  0  0  0  0  0  0  0  0  0
  182.0680  180.0450  138.8720 C   0  0  0  0  0  0  0  0  0  0  0  0
  186.5940  178.4390  142.9090 C   0  0  1  0  0  3  0  0  0  0  0  0
  184.3630  178.1360  141.9910 C   0  0  1  0  0  3  0  0  0  0  0  0
  180.6810  178.8130  144.3440 O   0  0  0  0  0  1  0  0  0  0  0  0
  184.2100  179.3720  139.7840 C   0  0  0  0  0  3  0  0  0  0  0  0
  183.4660  180.0070  138.7900 C   0  0  0  0  0  3  0  0  0  0  0  0
  187.3070  176.7050  144.3430 O   0  0  0  0  0  0  0  0  0  0  0  0
  187.6280  177.4540  143.3840 C   0  0  0  0  0  0  0  0  0  0  0  0
  190.1490  178.2210  144.9750 C   0  0  0  0  0  1  0  0  0  0  0  0
  190.4480  176.7490  140.8270 C   0  0  0  0  0  2  0  0  0  0  0  0
  190.2130  177.7950  143.5490 C   0  0  0  0  0  0  0  0  0  0  0  0
  189.1310  176.9060  141.5360 C   0  0  0  0  0  3  0  0  0  0  0  0
  192.7120  177.4730  141.0270 O   0  0  0  0  0  0  0  0  0  0  0  0
  191.5860  177.3680  141.5770 C   0  0  0  0  0  0  0  0  0  0  0  0
  188.9970  177.3620  142.7920 C   0  0  0  0  0  0  0  0  0  0  0  0
  191.4130  177.8060  142.9660 C   0  0  0  0  0  3  0  0  0  0  0  0
  180.0490  177.8590  141.8990 C   0  0  0  0  0  0  0  0  0  0  0  0
  178.9310  177.6290  141.7030 N   0  0  0  0  0  0  0  0  0  0  0  0
  181.2910  180.6810  137.8970 O   0  0  0  0  0  0  0  0  0  0  0  0
  181.1470  180.1880  136.5670 C   0  0  2  0  0  3  0  0  0  0  0  0
  179.8090  180.7320  134.6640 O   0  0  0  0  0  0  0  0  0  0  0  0
  179.9320  180.7790  135.9150 C   0  0  0  0  0  0  0  0  0  0  0  0
  178.9370  181.3730  136.6820 O   0  0  0  0  0  1  0  0  0  0  0  0
  179.7560  178.0410  136.6060 C   0  0  0  0  0  1  0  0  0  0  0  0
  181.1500  178.6550  136.5750 C   0  0  1  0  0  3  0  0  0  0  0  0
  183.0910  177.3340  136.0180 O   0  0  0  0  0  1  0  0  0  0  0  0
  182.0210  178.0490  135.4770 C   0  0  0  0  0  2  0  0  0  0  0  0
  1 27  1  6  0  0  0
  1  8  1  0  0  0  0
  2 12  1  0  0  0  0
  3  1  1  0  0  0  0
  4  5  1  1  0  0  0
  4  6  1  0  0  0  0
  6  7  1  1  0  0  0
  8  6  1  0  0  0  0
  8 14  1  1  0  0  0
  9  3  2  0  0  0  0
 10  3  1  0  0  0  0
 10 13  1  0  0  0  0
 11  9  1  0  0  0  0
 12 18  1  1  0  0  0
 12  5  1  0  0  0  0
 13  2  1  6  0  0  0
 13  4  1  0  0  0  0
 15 10  2  0  0  0  0
 16 11  2  0  0  0  0
 16 15  1  0  0  0  0
 18 17  2  0  0  0  0
 20 22  1  0  0  0  0
 20 24  1  0  0  0  0
 21 19  1  0  0  0  0
 22 25  2  0  0  0  0
 23 24  2  0  0  0  0
 24 26  1  0  0  0  0
 25 18  1  0  0  0  0
 25 21  1  0  0  0  0
 26 21  2  0  0  0  0
 28 27  3  0  0  0  0
 29 11  1  0  0  0  0
 30 32  1  1  0  0  0
 30 35  1  0  0  0  0
 30 29  1  0  0  0  0
 31 32  2  0  0  0  0
 32 33  1  0  0  0  0
 35 34  1  6  0  0  0
 37 36  1  0  0  0  0
 37 35  1  0  0  0  0
M  END
>  <MODEL>
8

>  <REMARK>
 VINA RESULT:      -7.5      5.043      9.848
  Name = 
  8 active torsions:
  status: ('A' for Active; 'I' for Inactive)
    1  A    between atoms: C_2  and  C_7
    2  A    between atoms: C_2  and  O_27
    3  A    between atoms: C_2  and  C_34
    4  A    between atoms: C_4  and  C_17
    5  A    between atoms: C_15  and  C_34
    6  A    between atoms: C_25  and  O_27
    7  A    between atoms: C_26  and  C_28
    8  A    between atoms: C_26  and  C_32
                            x       y       z     vdW  Elec       q    Type
                         _______ _______ _______ _____ _____    ______ ____

>  <TORSDO>
F 8

$$$$
=
 OpenBabel11062412263D

 37 40  0  0  1  0  0  0  0  0999 V2000
  190.2790  176.6560  141.5020 C   0  0  1  0  0  3  0  0  0  0  0  0
  191.0210  175.7750  137.2580 C   0  0  0  0  0  2  0  0  0  0  0  0
  189.3110  177.1130  140.4310 C   0  0  0  0  0  0  0  0  0  0  0  0
  192.0780  177.1350  139.0000 C   0  0  2  0  0  3  0  0  0  0  0  0
  193.1490  176.7320  138.0050 C   0  0  0  0  0  2  0  0  0  0  0  0
  192.5740  176.9880  140.4450 C   0  0  1  0  0  3  0  0  0  0  0  0
  193.7810  177.6760  140.5940 O   0  0  0  0  0  1  0  0  0  0  0  0
  191.5630  177.5100  141.4830 C   0  0  2  0  0  3  0  0  0  0  0  0
  188.1500  177.8360  140.7590 C   0  0  0  0  0  3  0  0  0  0  0  0
  189.6100  176.8750  139.0730 C   0  0  0  0  0  0  0  0  0  0  0  0
  187.2820  178.2940  139.7670 C   0  0  0  0  0  0  0  0  0  0  0  0
  192.3990  176.2120  136.7930 C   0  0  1  0  0  3  0  0  0  0  0  0
  190.9100  176.2030  138.7160 C   0  0  1  0  0  3  0  0  0  0  0  0
  192.1740  177.5220  142.7430 O   0  0  0  0  0  1  0  0  0  0  0  0
  188.7420  177.3510  138.0780 C   0  0  0  0  0  3  0  0  0  0  0  0
  187.5830  178.0460  138.4210 C   0  0  0  0  0  3  0  0  0  0  0  0
  192.4460  174.1760  135.6010 O   0  0  0  0  0  0  0  0  0  0  0  0
  193.1380  175.1070  136.0900 C   0  0  0  0  0  0  0  0  0  0  0  0
  194.8570  173.3730  137.9650 C   0  0  0  0  0  1  0  0  0  0  0  0
  196.7190  175.8150  134.7970 C   0  0  0  0  0  2  0  0  0  0  0  0
  195.4630  174.2660  136.9380 C   0  0  0  0  0  0  0  0  0  0  0  0
  195.2320  175.7810  135.0230 C   0  0  0  0  0  3  0  0  0  0  0  0
  198.7380  175.2500  135.9320 O   0  0  0  0  0  0  0  0  0  0  0  0
  197.4860  175.1440  135.8940 C   0  0  0  0  0  0  0  0  0  0  0  0
  194.6280  175.0620  135.9840 C   0  0  0  0  0  0  0  0  0  0  0  0
  196.7950  174.3250  136.8940 C   0  0  0  0  0  3  0  0  0  0  0  0
  189.6510  176.5660  142.8370 C   0  0  0  0  0  0  0  0  0  0  0  0
  189.1590  176.4950  143.8820 N   0  0  0  0  0  0  0  0  0  0  0  0
  186.1320  178.9950  140.1460 O   0  0  0  0  0  0  0  0  0  0  0  0
  184.8170  178.4500  140.0570 C   0  0  2  0  0  3  0  0  0  0  0  0
  184.0770  180.5060  139.0930 O   0  0  0  0  0  1  0  0  0  0  0  0
  183.9770  179.2520  139.1080 C   0  0  0  0  0  0  0  0  0  0  0  0
  183.0940  178.6210  138.2400 O   0  0  0  0  0  0  0  0  0  0  0  0
  184.9760  179.0890  142.5290 C   0  0  0  0  0  1  0  0  0  0  0  0
  184.2070  178.3260  141.4580 C   0  0  1  0  0  3  0  0  0  0  0  0
  182.3010  178.9980  142.7780 O   0  0  0  0  0  1  0  0  0  0  0  0
  182.7130  178.6360  141.4930 C   0  0  0  0  0  2  0  0  0  0  0  0
  1 27  1  1  0  0  0
  3  9  1  0  0  0  0
  3  1  1  0  0  0  0
  4  5  1  6  0  0  0
  4  6  1  0  0  0  0
  6  7  1  6  0  0  0
  6  8  1  0  0  0  0
  8  1  1  0  0  0  0
  8 14  1  1  0  0  0
 10  3  2  0  0  0  0
 11 29  1  0  0  0  0
 11  9  2  0  0  0  0
 12 18  1  1  0  0  0
 12  2  1  0  0  0  0
 12  5  1  0  0  0  0
 13  2  1  6  0  0  0
 13  4  1  0  0  0  0
 13 10  1  0  0  0  0
 15 16  2  0  0  0  0
 15 10  1  0  0  0  0
 16 11  1  0  0  0  0
 17 18  2  0  0  0  0
 20 22  1  0  0  0  0
 20 24  1  0  0  0  0
 21 19  1  0  0  0  0
 22 25  2  0  0  0  0
 24 23  2  0  0  0  0
 24 26  1  0  0  0  0
 25 18  1  0  0  0  0
 25 21  1  0  0  0  0
 26 21  2  0  0  0  0
 27 28  3  0  0  0  0
 30 32  1  6  0  0  0
 30 29  1  0  0  0  0
 30 35  1  0  0  0  0
 31 32  1  0  0  0  0
 33 32  2  0  0  0  0
 35 37  1  0  0  0  0
 35 34  1  1  0  0  0
 37 36  1  0  0  0  0
M  END
>  <MODEL>
9

>  <REMARK>
 VINA RESULT:      -7.4      3.057     10.046
  Name = 
  8 active torsions:
  status: ('A' for Active; 'I' for Inactive)
    1  A    between atoms: C_2  and  C_7
    2  A    between atoms: C_2  and  O_27
    3  A    between atoms: C_2  and  C_34
    4  A    between atoms: C_4  and  C_17
    5  A    between atoms: C_15  and  C_34
    6  A    between atoms: C_25  and  O_27
    7  A    between atoms: C_26  and  C_28
    8  A    between atoms: C_26  and  C_32
                            x       y       z     vdW  Elec       q    Type
                         _______ _______ _______ _____ _____    ______ ____

>  <TORSDO>
F 8

$$$$
