=
 OpenBabel11062413213D

 30 31  0  0  1  0  0  0  0  0999 V2000
  190.8300  177.1870  145.4480 C   0  0  1  0  0  3  0  0  0  0  0  0
  189.6250  176.6990  147.6980 C   0  0  0  0  0  2  0  0  0  0  0  0
  191.9650  176.8140  147.4940 O   0  0  0  0  0  0  0  0  0  0  0  0
  188.4020  177.9830  145.8540 C   0  0  1  0  0  3  0  0  0  0  0  0
  188.6650  177.8370  147.3640 C   0  0  0  0  0  2  0  0  0  0  0  0
  191.6210  176.1480  144.6720 C   0  0  0  0  0  1  0  0  0  0  0  0
  189.3800  177.2120  144.9400 C   0  0  1  0  0  3  0  0  0  0  0  0
  190.8890  176.8850  146.9210 C   0  0  0  0  0  0  0  0  0  0  0  0
  189.2970  177.6740  143.5880 O   0  0  0  0  0  0  0  0  0  0  0  0
  188.6560  175.6830  142.6620 O   0  0  0  0  0  0  0  0  0  0  0  0
  188.7850  176.9270  142.5180 C   0  0  0  0  0  0  0  0  0  0  0  0
  188.4110  177.5790  141.2440 C   0  0  0  0  0  3  0  0  0  0  0  0
  189.1290  177.5670  140.1160 C   0  0  0  0  0  0  0  0  0  0  0  0
  189.3790  178.9200  138.1660 O   0  0  0  0  0  0  0  0  0  0  0  0
  187.2000  178.3430  138.6850 N   0  0  0  0  0  1  0  0  0  0  0  0
  188.6020  178.3020  138.9400 C   0  0  0  0  0  0  0  0  0  0  0  0
  190.3530  176.8780  140.0830 O   0  0  0  0  0  0  0  0  0  0  0  0
  192.1320  177.3360  141.4730 O   0  0  0  0  0  1  0  0  0  0  0  0
  191.6330  177.4940  140.1810 C   0  0  1  0  0  3  0  0  0  0  0  0
  193.9160  177.0190  139.6170 O   0  0  0  0  0  1  0  0  0  0  0  0
  192.6000  176.8810  139.1760 C   0  0  0  0  0  2  0  0  0  0  0  0
  186.9500  177.6600  145.5140 C   0  0  0  0  0  2  0  0  0  0  0  0
  185.7800  178.6510  146.5030 S   0  0  0  0  0  0  0  0  0  0  0  0
  184.8820  179.2140  145.0310 C   0  0  1  0  0  3  0  0  0  0  0  0
  182.6510  179.2790  143.8970 C   0  0  0  0  0  2  0  0  0  0  0  0
  185.4950  178.5720  143.7900 C   0  0  0  0  0  2  0  0  0  0  0  0
  183.2630  178.6410  142.6520 C   0  0  0  0  0  2  0  0  0  0  0  0
  184.7400  179.0160  142.5390 C   0  0  2  0  0  3  0  0  0  0  0  0
  183.4070  178.8300  145.1450 C   0  0  0  0  0  2  0  0  0  0  0  0
  185.2910  178.3950  141.4200 O   0  0  0  0  0  1  0  0  0  0  0  0
  1  6  1  6  0  0  0
  1  8  1  0  0  0  0
  4 22  1  1  0  0  0
  4  5  1  0  0  0  0
  5  2  1  0  0  0  0
  7  9  1  6  0  0  0
  7  1  1  0  0  0  0
  7  4  1  0  0  0  0
  8  3  2  0  0  0  0
  8  2  1  0  0  0  0
 11 10  2  0  0  0  0
 11  9  1  0  0  0  0
 12 11  1  0  0  0  0
 13 12  2  0  0  0  0
 14 16  2  0  0  0  0
 15 16  1  0  0  0  0
 16 13  1  0  0  0  0
 17 13  1  0  0  0  0
 17 19  1  0  0  0  0
 19 18  1  1  0  0  0
 21 20  1  0  0  0  0
 21 19  1  0  0  0  0
 22 23  1  0  0  0  0
 24 29  1  0  0  0  0
 24 23  1  1  0  0  0
 25 29  1  0  0  0  0
 26 24  1  0  0  0  0
 27 25  1  0  0  0  0
 28 30  1  6  0  0  0
 28 27  1  0  0  0  0
 28 26  1  0  0  0  0
M  END
>  <MODEL>
1

>  <REMARK>
 VINA RESULT:      -8.4      0.000      0.000
  Name = 
  10 active torsions:
  status: ('A' for Active; 'I' for Inactive)
    1  A    between atoms: O_5  and  C_13
    2  A    between atoms: O_5  and  C_21
    3  A    between atoms: C_6  and  S_24
    4  A    between atoms: C_10  and  C_27
    5  A    between atoms: C_11  and  C_21
    6  A    between atoms: C_13  and  C_26
    7  A    between atoms: C_14  and  C_25
    8  A    between atoms: O_17  and  C_25
    9  A    between atoms: O_17  and  C_28
   10  A    between atoms: S_24  and  C_27
                            x       y       z     vdW  Elec       q    Type
                         _______ _______ _______ _____ _____    ______ ____

>  <TORSDO>
F 10

$$$$
=
 OpenBabel11062413213D

 30 31  0  0  1  0  0  0  0  0999 V2000
  191.0740  177.1160  145.2520 C   0  0  1  0  0  3  0  0  0  0  0  0
  189.7480  176.5630  147.4160 C   0  0  0  0  0  2  0  0  0  0  0  0
  192.0970  176.5590  147.3140 O   0  0  0  0  0  0  0  0  0  0  0  0
  188.6770  178.0200  145.6080 C   0  0  1  0  0  3  0  0  0  0  0  0
  188.8660  177.7700  147.1150 C   0  0  0  0  0  2  0  0  0  0  0  0
  191.8410  176.0820  144.4440 C   0  0  0  0  0  1  0  0  0  0  0  0
  189.6510  177.2520  144.6870 C   0  0  1  0  0  3  0  0  0  0  0  0
  191.0530  176.7230  146.7040 C   0  0  0  0  0  0  0  0  0  0  0  0
  189.6520  177.7980  143.3650 O   0  0  0  0  0  0  0  0  0  0  0  0
  187.9810  176.9250  142.0690 O   0  0  0  0  0  0  0  0  0  0  0  0
  189.2170  177.1170  142.2190 C   0  0  0  0  0  0  0  0  0  0  0  0
  190.1820  176.6270  141.2120 C   0  0  0  0  0  3  0  0  0  0  0  0
  190.2670  177.0350  139.9410 C   0  0  0  0  0  0  0  0  0  0  0  0
  192.4470  176.8880  138.9800 O   0  0  0  0  0  0  0  0  0  0  0  0
  190.9600  175.2560  138.2900 N   0  0  0  0  0  1  0  0  0  0  0  0
  191.2870  176.4050  139.0680 C   0  0  0  0  0  0  0  0  0  0  0  0
  189.3900  178.0280  139.4740 O   0  0  0  0  0  0  0  0  0  0  0  0
  187.1530  178.3430  139.0210 O   0  0  0  0  0  1  0  0  0  0  0  0
  188.3440  177.8070  138.5330 C   0  0  1  0  0  3  0  0  0  0  0  0
  189.0140  179.7920  137.3640 O   0  0  0  0  0  1  0  0  0  0  0  0
  188.6870  178.4470  137.1930 C   0  0  0  0  0  2  0  0  0  0  0  0
  187.2260  177.8010  145.1900 C   0  0  0  0  0  2  0  0  0  0  0  0
  186.0550  178.5940  146.3420 S   0  0  0  0  0  0  0  0  0  0  0  0
  185.0010  179.1910  144.9920 C   0  0  1  0  0  3  0  0  0  0  0  0
  182.6580  179.2800  144.1140 C   0  0  0  0  0  2  0  0  0  0  0  0
  185.4720  178.5790  143.6770 C   0  0  0  0  0  2  0  0  0  0  0  0
  183.1290  178.6720  142.7940 C   0  0  0  0  0  2  0  0  0  0  0  0
  184.5840  179.0520  142.5270 C   0  0  2  0  0  3  0  0  0  0  0  0
  183.5470  178.8020  145.2600 C   0  0  0  0  0  2  0  0  0  0  0  0
  185.0080  178.4590  141.3390 O   0  0  0  0  0  1  0  0  0  0  0  0
  1  6  1  6  0  0  0
  1  8  1  0  0  0  0
  4 22  1  6  0  0  0
  4  5  1  0  0  0  0
  5  2  1  0  0  0  0
  7  9  1  6  0  0  0
  7  1  1  0  0  0  0
  7  4  1  0  0  0  0
  8  3  2  0  0  0  0
  8  2  1  0  0  0  0
 10 11  2  0  0  0  0
 11  9  1  0  0  0  0
 12 11  1  0  0  0  0
 13 12  2  0  0  0  0
 14 16  2  0  0  0  0
 15 16  1  0  0  0  0
 16 13  1  0  0  0  0
 17 13  1  0  0  0  0
 19 18  1  1  0  0  0
 19 17  1  0  0  0  0
 21 20  1  0  0  0  0
 21 19  1  0  0  0  0
 22 23  1  0  0  0  0
 24 29  1  0  0  0  0
 24 23  1  1  0  0  0
 25 29  1  0  0  0  0
 26 24  1  0  0  0  0
 27 25  1  0  0  0  0
 28 30  1  6  0  0  0
 28 27  1  0  0  0  0
 28 26  1  0  0  0  0
M  END
>  <MODEL>
2

>  <REMARK>
 VINA RESULT:      -8.3      1.306      2.348
  Name = 
  10 active torsions:
  status: ('A' for Active; 'I' for Inactive)
    1  A    between atoms: O_5  and  C_13
    2  A    between atoms: O_5  and  C_21
    3  A    between atoms: C_6  and  S_24
    4  A    between atoms: C_10  and  C_27
    5  A    between atoms: C_11  and  C_21
    6  A    between atoms: C_13  and  C_26
    7  A    between atoms: C_14  and  C_25
    8  A    between atoms: O_17  and  C_25
    9  A    between atoms: O_17  and  C_28
   10  A    between atoms: S_24  and  C_27
                            x       y       z     vdW  Elec       q    Type
                         _______ _______ _______ _____ _____    ______ ____

>  <TORSDO>
F 10

$$$$
=
 OpenBabel11062413213D

 30 31  0  0  1  0  0  0  0  0999 V2000
  186.5710  177.6060  146.1860 C   0  0  1  0  0  3  0  0  0  0  0  0
  189.1660  177.7160  146.1300 C   0  0  0  0  0  2  0  0  0  0  0  0
  187.9440  177.2320  148.0790 O   0  0  0  0  0  0  0  0  0  0  0  0
  187.8700  177.1900  143.9880 C   0  0  1  0  0  3  0  0  0  0  0  0
  189.1160  176.8960  144.8440 C   0  0  0  0  0  2  0  0  0  0  0  0
  185.6960  178.6460  146.8650 C   0  0  0  0  0  1  0  0  0  0  0  0
  186.7510  177.9770  144.7050 C   0  0  1  0  0  3  0  0  0  0  0  0
  187.8960  177.5070  146.8910 C   0  0  0  0  0  0  0  0  0  0  0  0
  185.5190  177.8970  143.9830 O   0  0  0  0  0  0  0  0  0  0  0  0
  184.2640  179.8090  144.0600 O   0  0  0  0  0  0  0  0  0  0  0  0
  184.8930  178.9800  143.3490 C   0  0  0  0  0  0  0  0  0  0  0  0
  184.9570  179.1460  141.8810 C   0  0  0  0  0  3  0  0  0  0  0  0
  184.0120  178.7840  141.0070 C   0  0  0  0  0  0  0  0  0  0  0  0
  184.5460  180.1550  139.1290 O   0  0  0  0  0  0  0  0  0  0  0  0
  184.1740  177.9250  138.6390 N   0  0  0  0  0  1  0  0  0  0  0  0
  184.2670  179.0070  139.5640 C   0  0  0  0  0  0  0  0  0  0  0  0
  182.8240  178.1980  141.4770 O   0  0  0  0  0  0  0  0  0  0  0  0
  180.8350  177.8240  140.3780 O   0  0  0  0  0  1  0  0  0  0  0  0
  181.5170  178.7000  141.2200 C   0  0  1  0  0  3  0  0  0  0  0  0
  180.6460  180.2210  142.8590 O   0  0  0  0  0  1  0  0  0  0  0  0
  180.7440  178.8710  142.5220 C   0  0  0  0  0  2  0  0  0  0  0  0
  188.2540  177.8480  142.6660 C   0  0  0  0  0  2  0  0  0  0  0  0
  190.0040  177.5580  142.2400 S   0  0  0  0  0  0  0  0  0  0  0  0
  189.6040  177.1470  140.5190 C   0  0  1  0  0  3  0  0  0  0  0  0
  190.5490  176.8080  138.2250 C   0  0  0  0  0  2  0  0  0  0  0  0
  188.6320  178.1860  139.9660 C   0  0  0  0  0  2  0  0  0  0  0  0
  189.5740  177.8430  137.6690 C   0  0  0  0  0  2  0  0  0  0  0  0
  188.2980  177.8710  138.5090 C   0  0  2  0  0  3  0  0  0  0  0  0
  190.8820  177.1280  139.6800 C   0  0  0  0  0  2  0  0  0  0  0  0
  187.4360  178.8470  138.0100 O   0  0  0  0  0  1  0  0  0  0  0  0
  1  6  1  1  0  0  0
  1  8  1  0  0  0  0
  2  8  1  0  0  0  0
  4 22  1  6  0  0  0
  4  7  1  0  0  0  0
  4  5  1  0  0  0  0
  5  2  1  0  0  0  0
  7  9  1  6  0  0  0
  7  1  1  0  0  0  0
  8  3  2  0  0  0  0
 11  9  1  0  0  0  0
 11 10  2  0  0  0  0
 12 11  1  0  0  0  0
 13 17  1  0  0  0  0
 13 12  2  0  0  0  0
 14 16  2  0  0  0  0
 15 16  1  0  0  0  0
 16 13  1  0  0  0  0
 19 18  1  6  0  0  0
 19 17  1  0  0  0  0
 19 21  1  0  0  0  0
 21 20  1  0  0  0  0
 23 22  1  0  0  0  0
 24 23  1  1  0  0  0
 25 29  1  0  0  0  0
 26 24  1  0  0  0  0
 27 25  1  0  0  0  0
 27 28  1  0  0  0  0
 28 30  1  6  0  0  0
 28 26  1  0  0  0  0
 29 24  1  0  0  0  0
M  END
>  <MODEL>
3

>  <REMARK>
 VINA RESULT:      -8.0      2.901      6.712
  Name = 
  10 active torsions:
  status: ('A' for Active; 'I' for Inactive)
    1  A    between atoms: O_5  and  C_13
    2  A    between atoms: O_5  and  C_21
    3  A    between atoms: C_6  and  S_24
    4  A    between atoms: C_10  and  C_27
    5  A    between atoms: C_11  and  C_21
    6  A    between atoms: C_13  and  C_26
    7  A    between atoms: C_14  and  C_25
    8  A    between atoms: O_17  and  C_25
    9  A    between atoms: O_17  and  C_28
   10  A    between atoms: S_24  and  C_27
                            x       y       z     vdW  Elec       q    Type
                         _______ _______ _______ _____ _____    ______ ____

>  <TORSDO>
F 10

$$$$
=
 OpenBabel11062413213D

 30 31  0  0  1  0  0  0  0  0999 V2000
  186.4210  177.6480  146.2440 C   0  0  1  0  0  3  0  0  0  0  0  0
  188.9920  177.7220  145.8780 C   0  0  0  0  0  2  0  0  0  0  0  0
  188.0060  177.2820  147.9660 O   0  0  0  0  0  0  0  0  0  0  0  0
  187.4440  177.1840  143.9140 C   0  0  1  0  0  3  0  0  0  0  0  0
  188.7790  176.8850  144.6200 C   0  0  0  0  0  2  0  0  0  0  0  0
  185.6460  178.7100  147.0060 C   0  0  0  0  0  1  0  0  0  0  0  0
  186.4270  177.9950  144.7460 C   0  0  1  0  0  3  0  0  0  0  0  0
  187.8200  177.5410  146.7880 C   0  0  0  0  0  0  0  0  0  0  0  0
  185.1170  177.9230  144.1770 O   0  0  0  0  0  0  0  0  0  0  0  0
  184.8400  180.1540  143.7560 O   0  0  0  0  0  0  0  0  0  0  0  0
  184.2970  179.0290  143.9160 C   0  0  0  0  0  0  0  0  0  0  0  0
  182.8260  178.8870  143.8390 C   0  0  0  0  0  3  0  0  0  0  0  0
  182.0960  178.8790  142.7180 C   0  0  0  0  0  0  0  0  0  0  0  0
  179.8670  179.0900  141.8940 O   0  0  0  0  0  0  0  0  0  0  0  0
  180.0400  178.2680  144.0490 N   0  0  0  0  0  1  0  0  0  0  0  0
  180.6240  178.7520  142.8410 C   0  0  0  0  0  0  0  0  0  0  0  0
  182.7370  179.0030  141.4750 O   0  0  0  0  0  0  0  0  0  0  0  0
  182.3320  177.1980  140.1030 O   0  0  0  0  0  1  0  0  0  0  0  0
  183.3260  177.9240  140.7560 C   0  0  1  0  0  3  0  0  0  0  0  0
  184.9280  179.6220  140.2020 O   0  0  0  0  0  1  0  0  0  0  0  0
  184.3360  178.4460  139.7410 C   0  0  0  0  0  2  0  0  0  0  0  0
  187.6740  177.8170  142.5450 C   0  0  0  0  0  2  0  0  0  0  0  0
  189.4480  177.9230  142.1300 S   0  0  0  0  0  0  0  0  0  0  0  0
  189.1690  177.3600  140.4280 C   0  0  1  0  0  3  0  0  0  0  0  0
  190.2700  176.8420  138.2400 C   0  0  0  0  0  2  0  0  0  0  0  0
  188.2260  178.3320  139.7250 C   0  0  0  0  0  2  0  0  0  0  0  0
  189.3240  177.8090  137.5330 C   0  0  0  0  0  2  0  0  0  0  0  0
  187.9940  177.8880  138.2820 C   0  0  2  0  0  3  0  0  0  0  0  0
  190.5010  177.2900  139.6810 C   0  0  0  0  0  2  0  0  0  0  0  0
  187.1580  178.8030  137.6440 O   0  0  0  0  0  1  0  0  0  0  0  0
  1  8  1  0  0  0  0
  1  6  1  1  0  0  0
  2  8  1  0  0  0  0
  4 22  1  6  0  0  0
  4  5  1  0  0  0  0
  4  7  1  0  0  0  0
  5  2  1  0  0  0  0
  7  9  1  6  0  0  0
  7  1  1  0  0  0  0
  8  3  2  0  0  0  0
 10 11  2  0  0  0  0
 11  9  1  0  0  0  0
 12 11  1  0  0  0  0
 13 16  1  0  0  0  0
 13 12  2  0  0  0  0
 14 16  2  0  0  0  0
 16 15  1  0  0  0  0
 17 13  1  0  0  0  0
 19 18  1  6  0  0  0
 19 17  1  0  0  0  0
 21 20  1  0  0  0  0
 21 19  1  0  0  0  0
 23 22  1  0  0  0  0
 24 23  1  1  0  0  0
 25 29  1  0  0  0  0
 26 24  1  0  0  0  0
 27 25  1  0  0  0  0
 27 28  1  0  0  0  0
 28 30  1  6  0  0  0
 28 26  1  0  0  0  0
 29 24  1  0  0  0  0
M  END
>  <MODEL>
4

>  <REMARK>
 VINA RESULT:      -7.9      3.340      6.717
  Name = 
  10 active torsions:
  status: ('A' for Active; 'I' for Inactive)
    1  A    between atoms: O_5  and  C_13
    2  A    between atoms: O_5  and  C_21
    3  A    between atoms: C_6  and  S_24
    4  A    between atoms: C_10  and  C_27
    5  A    between atoms: C_11  and  C_21
    6  A    between atoms: C_13  and  C_26
    7  A    between atoms: C_14  and  C_25
    8  A    between atoms: O_17  and  C_25
    9  A    between atoms: O_17  and  C_28
   10  A    between atoms: S_24  and  C_27
                            x       y       z     vdW  Elec       q    Type
                         _______ _______ _______ _____ _____    ______ ____

>  <TORSDO>
F 10

$$$$
=
 OpenBabel11062413213D

 30 31  0  0  1  0  0  0  0  0999 V2000
  191.2050  176.4730  144.4150 C   0  0  1  0  0  3  0  0  0  0  0  0
  189.6460  177.0670  146.4060 C   0  0  0  0  0  2  0  0  0  0  0  0
  191.9850  176.9260  146.6050 O   0  0  0  0  0  0  0  0  0  0  0  0
  188.8780  177.5280  144.0110 C   0  0  1  0  0  3  0  0  0  0  0  0
  188.9070  178.0180  145.4700 C   0  0  0  0  0  2  0  0  0  0  0  0
  191.9440  175.1520  144.2850 C   0  0  0  0  0  1  0  0  0  0  0  0
  189.8560  176.3790  143.6840 C   0  0  1  0  0  3  0  0  0  0  0  0
  191.0190  176.8200  145.8670 C   0  0  0  0  0  0  0  0  0  0  0  0
  190.0250  176.2290  142.2710 O   0  0  0  0  0  0  0  0  0  0  0  0
  191.8460  177.5190  141.7640 O   0  0  0  0  0  0  0  0  0  0  0  0
  190.6850  177.1490  141.4430 C   0  0  0  0  0  0  0  0  0  0  0  0
  190.0360  177.6820  140.2260 C   0  0  0  0  0  3  0  0  0  0  0  0
  190.2270  177.2440  138.9770 C   0  0  0  0  0  0  0  0  0  0  0  0
  189.4540  177.4130  136.7270 O   0  0  0  0  0  0  0  0  0  0  0  0
  188.8740  179.1840  138.0970 N   0  0  0  0  0  1  0  0  0  0  0  0
  189.5030  177.9230  137.8760 C   0  0  0  0  0  0  0  0  0  0  0  0
  191.1070  176.1720  138.7480 O   0  0  0  0  0  0  0  0  0  0  0  0
  193.3120  176.8340  138.8240 O   0  0  0  0  0  1  0  0  0  0  0  0
  192.3260  176.2680  138.0190 C   0  0  1  0  0  3  0  0  0  0  0  0
  191.7150  173.9840  137.6060 O   0  0  0  0  0  1  0  0  0  0  0  0
  192.7750  174.8900  137.5460 C   0  0  0  0  0  2  0  0  0  0  0  0
  187.4560  177.1910  143.5710 C   0  0  0  0  0  2  0  0  0  0  0  0
  186.9310  178.1830  142.1330 S   0  0  0  0  0  0  0  0  0  0  0  0
  185.5320  178.9030  143.0340 C   0  0  1  0  0  3  0  0  0  0  0  0
  184.3090  178.9410  145.2180 C   0  0  0  0  0  2  0  0  0  0  0  0
  184.2340  178.5540  142.3120 C   0  0  0  0  0  2  0  0  0  0  0  0
  183.0070  178.5970  144.4970 C   0  0  0  0  0  2  0  0  0  0  0  0
  183.0390  179.1340  143.0660 C   0  0  2  0  0  3  0  0  0  0  0  0
  185.4990  178.3580  144.4620 C   0  0  0  0  0  2  0  0  0  0  0  0
  181.8610  178.7780  142.4120 O   0  0  0  0  0  1  0  0  0  0  0  0
  1  6  1  1  0  0  0
  1  8  1  0  0  0  0
  4 22  1  1  0  0  0
  4  5  1  0  0  0  0
  5  2  1  0  0  0  0
  7  9  1  6  0  0  0
  7  4  1  0  0  0  0
  7  1  1  0  0  0  0
  8  2  1  0  0  0  0
  8  3  2  0  0  0  0
 11 10  2  0  0  0  0
 11  9  1  0  0  0  0
 12 11  1  0  0  0  0
 13 12  2  0  0  0  0
 14 16  2  0  0  0  0
 16 15  1  0  0  0  0
 16 13  1  0  0  0  0
 17 13  1  0  0  0  0
 19 17  1  0  0  0  0
 19 18  1  1  0  0  0
 21 20  1  0  0  0  0
 21 19  1  0  0  0  0
 23 22  1  0  0  0  0
 24 23  1  6  0  0  0
 24 29  1  0  0  0  0
 26 24  1  0  0  0  0
 26 28  1  0  0  0  0
 27 25  1  0  0  0  0
 28 30  1  6  0  0  0
 28 27  1  0  0  0  0
 29 25  1  0  0  0  0
M  END
>  <MODEL>
5

>  <REMARK>
 VINA RESULT:      -7.8      1.788      2.325
  Name = 
  10 active torsions:
  status: ('A' for Active; 'I' for Inactive)
    1  A    between atoms: O_5  and  C_13
    2  A    between atoms: O_5  and  C_21
    3  A    between atoms: C_6  and  S_24
    4  A    between atoms: C_10  and  C_27
    5  A    between atoms: C_11  and  C_21
    6  A    between atoms: C_13  and  C_26
    7  A    between atoms: C_14  and  C_25
    8  A    between atoms: O_17  and  C_25
    9  A    between atoms: O_17  and  C_28
   10  A    between atoms: S_24  and  C_27
                            x       y       z     vdW  Elec       q    Type
                         _______ _______ _______ _____ _____    ______ ____

>  <TORSDO>
F 10

$$$$
=
 OpenBabel11062413213D

 30 31  0  0  1  0  0  0  0  0999 V2000
  184.5200  178.2200  142.3710 C   0  0  1  0  0  3  0  0  0  0  0  0
  183.8690  179.3490  144.6190 C   0  0  0  0  0  2  0  0  0  0  0  0
  182.3030  178.8240  142.9460 O   0  0  0  0  0  0  0  0  0  0  0  0
  185.9870  177.9210  144.4800 C   0  0  1  0  0  3  0  0  0  0  0  0
  184.7650  178.3340  145.3220 C   0  0  0  0  0  2  0  0  0  0  0  0
  184.5050  178.9360  141.0310 C   0  0  0  0  0  1  0  0  0  0  0  0
  185.9230  178.3200  142.9900 C   0  0  1  0  0  3  0  0  0  0  0  0
  183.4760  178.8080  143.2810 C   0  0  0  0  0  0  0  0  0  0  0  0
  186.8960  177.6060  142.2220 O   0  0  0  0  0  0  0  0  0  0  0  0
  188.9320  178.6500  142.2040 O   0  0  0  0  0  0  0  0  0  0  0  0
  187.9640  178.2000  141.5340 C   0  0  0  0  0  0  0  0  0  0  0  0
  187.9570  178.3070  140.0590 C   0  0  0  0  0  3  0  0  0  0  0  0
  188.8440  177.7520  139.2270 C   0  0  0  0  0  0  0  0  0  0  0  0
  188.9960  177.1040  136.9350 O   0  0  0  0  0  0  0  0  0  0  0  0
  188.2100  179.2500  137.2960 N   0  0  0  0  0  1  0  0  0  0  0  0
  188.6880  177.9930  137.7720 C   0  0  0  0  0  0  0  0  0  0  0  0
  189.8930  176.9770  139.7510 O   0  0  0  0  0  0  0  0  0  0  0  0
  191.7470  177.3010  141.0780 O   0  0  0  0  0  1  0  0  0  0  0  0
  191.2600  177.3750  139.7750 C   0  0  1  0  0  3  0  0  0  0  0  0
  193.3900  176.9790  138.7440 O   0  0  0  0  0  1  0  0  0  0  0  0
  192.0910  176.4830  138.8610 C   0  0  0  0  0  2  0  0  0  0  0  0
  187.2860  178.3920  145.1280 C   0  0  0  0  0  2  0  0  0  0  0  0
  187.5230  177.6730  146.7880 S   0  0  0  0  0  0  0  0  0  0  0  0
  189.3300  177.6970  146.6320 C   0  0  1  0  0  3  0  0  0  0  0  0
  191.2440  177.6070  145.0210 C   0  0  0  0  0  2  0  0  0  0  0  0
  189.9170  176.5150  147.3980 C   0  0  0  0  0  2  0  0  0  0  0  0
  191.8370  176.4270  145.7890 C   0  0  0  0  0  2  0  0  0  0  0  0
  191.4380  176.5030  147.2620 C   0  0  2  0  0  3  0  0  0  0  0  0
  189.7240  177.6130  145.1570 C   0  0  0  0  0  2  0  0  0  0  0  0
  191.9560  175.3990  147.9390 O   0  0  0  0  0  1  0  0  0  0  0  0
  1  6  1  6  0  0  0
  1  7  1  0  0  0  0
  1  8  1  0  0  0  0
  2  5  1  0  0  0  0
  3  8  2  0  0  0  0
  4 22  1  1  0  0  0
  4  5  1  0  0  0  0
  7  9  1  6  0  0  0
  7  4  1  0  0  0  0
  8  2  1  0  0  0  0
 11 10  2  0  0  0  0
 11  9  1  0  0  0  0
 12 11  1  0  0  0  0
 13 17  1  0  0  0  0
 13 12  2  0  0  0  0
 14 16  2  0  0  0  0
 15 16  1  0  0  0  0
 16 13  1  0  0  0  0
 17 19  1  0  0  0  0
 19 18  1  1  0  0  0
 20 21  1  0  0  0  0
 21 19  1  0  0  0  0
 22 23  1  0  0  0  0
 24 23  1  6  0  0  0
 24 26  1  0  0  0  0
 25 29  1  0  0  0  0
 25 27  1  0  0  0  0
 27 28  1  0  0  0  0
 28 26  1  0  0  0  0
 28 30  1  1  0  0  0
 29 24  1  0  0  0  0
M  END
>  <MODEL>
6

>  <REMARK>
 VINA RESULT:      -7.7      1.317      5.431
  Name = 
  10 active torsions:
  status: ('A' for Active; 'I' for Inactive)
    1  A    between atoms: O_5  and  C_13
    2  A    between atoms: O_5  and  C_21
    3  A    between atoms: C_6  and  S_24
    4  A    between atoms: C_10  and  C_27
    5  A    between atoms: C_11  and  C_21
    6  A    between atoms: C_13  and  C_26
    7  A    between atoms: C_14  and  C_25
    8  A    between atoms: O_17  and  C_25
    9  A    between atoms: O_17  and  C_28
   10  A    between atoms: S_24  and  C_27
                            x       y       z     vdW  Elec       q    Type
                         _______ _______ _______ _____ _____    ______ ____

>  <TORSDO>
F 10

$$$$
=
 OpenBabel11062413213D

 30 31  0  0  1  0  0  0  0  0999 V2000
  184.1950  178.2370  142.7330 C   0  0  1  0  0  3  0  0  0  0  0  0
  183.5240  179.3070  145.0030 C   0  0  0  0  0  2  0  0  0  0  0  0
  181.9580  178.6980  143.3590 O   0  0  0  0  0  0  0  0  0  0  0  0
  185.7230  178.0150  144.8080 C   0  0  1  0  0  3  0  0  0  0  0  0
  184.4960  178.3440  145.6780 C   0  0  0  0  0  2  0  0  0  0  0  0
  184.1080  178.9610  141.4000 C   0  0  0  0  0  1  0  0  0  0  0  0
  185.6030  178.4200  143.3230 C   0  0  1  0  0  3  0  0  0  0  0  0
  183.1370  178.7530  143.6700 C   0  0  0  0  0  0  0  0  0  0  0  0
  186.6020  177.7740  142.5280 O   0  0  0  0  0  0  0  0  0  0  0  0
  187.3180  179.6270  141.3950 O   0  0  0  0  0  0  0  0  0  0  0  0
  187.5530  178.4400  141.7440 C   0  0  0  0  0  0  0  0  0  0  0  0
  188.8020  177.7670  141.3240 C   0  0  0  0  0  3  0  0  0  0  0  0
  189.3190  177.7700  140.0910 C   0  0  0  0  0  0  0  0  0  0  0  0
  190.5580  175.9240  139.2220 O   0  0  0  0  0  0  0  0  0  0  0  0
  191.8140  177.4960  140.3640 N   0  0  0  0  0  1  0  0  0  0  0  0
  190.5720  177.0130  139.8540 C   0  0  0  0  0  0  0  0  0  0  0  0
  188.6610  178.4710  139.0670 O   0  0  0  0  0  0  0  0  0  0  0  0
  186.4910  178.6270  138.3110 O   0  0  0  0  0  1  0  0  0  0  0  0
  187.6800  177.9090  138.2010 C   0  0  1  0  0  3  0  0  0  0  0  0
  189.4010  178.5750  136.6670 O   0  0  0  0  0  1  0  0  0  0  0  0
  188.1660  177.9320  136.7570 C   0  0  0  0  0  2  0  0  0  0  0  0
  187.0040  178.5600  145.4330 C   0  0  0  0  0  2  0  0  0  0  0  0
  187.4830  177.6350  146.9300 S   0  0  0  0  0  0  0  0  0  0  0  0
  189.2460  177.7010  146.5090 C   0  0  1  0  0  3  0  0  0  0  0  0
  190.9170  177.4500  144.6610 C   0  0  0  0  0  2  0  0  0  0  0  0
  190.0000  176.6630  147.3340 C   0  0  0  0  0  2  0  0  0  0  0  0
  191.6770  176.4150  145.4880 C   0  0  0  0  0  2  0  0  0  0  0  0
  191.4860  176.6860  146.9790 C   0  0  2  0  0  3  0  0  0  0  0  0
  189.4330  177.4210  145.0170 C   0  0  0  0  0  2  0  0  0  0  0  0
  192.1540  175.7110  147.7170 O   0  0  0  0  0  1  0  0  0  0  0  0
  1  6  1  6  0  0  0
  1  7  1  0  0  0  0
  1  8  1  0  0  0  0
  2  5  1  0  0  0  0
  3  8  2  0  0  0  0
  4 22  1  1  0  0  0
  4  5  1  0  0  0  0
  7  9  1  6  0  0  0
  7  4  1  0  0  0  0
  8  2  1  0  0  0  0
 10 11  2  0  0  0  0
 11  9  1  0  0  0  0
 12 11  1  0  0  0  0
 13 12  2  0  0  0  0
 14 16  2  0  0  0  0
 16 13  1  0  0  0  0
 16 15  1  0  0  0  0
 17 13  1  0  0  0  0
 19 18  1  6  0  0  0
 19 17  1  0  0  0  0
 20 21  1  0  0  0  0
 21 19  1  0  0  0  0
 22 23  1  0  0  0  0
 24 23  1  1  0  0  0
 24 26  1  0  0  0  0
 25 29  1  0  0  0  0
 25 27  1  0  0  0  0
 27 28  1  0  0  0  0
 28 26  1  0  0  0  0
 28 30  1  1  0  0  0
 29 24  1  0  0  0  0
M  END
>  <MODEL>
7

>  <REMARK>
 VINA RESULT:      -7.6      1.786      5.908
  Name = 
  10 active torsions:
  status: ('A' for Active; 'I' for Inactive)
    1  A    between atoms: O_5  and  C_13
    2  A    between atoms: O_5  and  C_21
    3  A    between atoms: C_6  and  S_24
    4  A    between atoms: C_10  and  C_27
    5  A    between atoms: C_11  and  C_21
    6  A    between atoms: C_13  and  C_26
    7  A    between atoms: C_14  and  C_25
    8  A    between atoms: O_17  and  C_25
    9  A    between atoms: O_17  and  C_28
   10  A    between atoms: S_24  and  C_27
                            x       y       z     vdW  Elec       q    Type
                         _______ _______ _______ _____ _____    ______ ____

>  <TORSDO>
F 10

$$$$
=
 OpenBabel11062413213D

 30 31  0  0  1  0  0  0  0  0999 V2000
  190.8740  177.0370  140.5630 C   0  0  1  0  0  3  0  0  0  0  0  0
  189.4110  178.1120  138.7050 C   0  0  0  0  0  2  0  0  0  0  0  0
  191.2870  176.7720  138.2460 O   0  0  0  0  0  0  0  0  0  0  0  0
  188.4020  177.6540  141.0100 C   0  0  1  0  0  3  0  0  0  0  0  0
  188.1830  177.6540  139.4860 C   0  0  0  0  0  2  0  0  0  0  0  0
  192.2850  177.4910  140.8950 C   0  0  0  0  0  1  0  0  0  0  0  0
  189.8730  177.7790  141.4630 C   0  0  1  0  0  3  0  0  0  0  0  0
  190.5840  177.2770  139.1060 C   0  0  0  0  0  0  0  0  0  0  0  0
  190.0240  177.4180  142.8390 O   0  0  0  0  0  0  0  0  0  0  0  0
  191.1440  179.1930  143.7480 O   0  0  0  0  0  0  0  0  0  0  0  0
  190.2420  178.3250  143.8850 C   0  0  0  0  0  0  0  0  0  0  0  0
  189.4400  178.2640  145.1260 C   0  0  0  0  0  3  0  0  0  0  0  0
  189.8560  177.7960  146.3080 C   0  0  0  0  0  0  0  0  0  0  0  0
  189.2230  178.2550  148.5620 O   0  0  0  0  0  0  0  0  0  0  0  0
  187.5940  177.2350  147.2770 N   0  0  0  0  0  1  0  0  0  0  0  0
  188.8970  177.7920  147.4390 C   0  0  0  0  0  0  0  0  0  0  0  0
  191.1710  177.3180  146.4370 O   0  0  0  0  0  0  0  0  0  0  0  0
  192.0370  175.5370  145.2610 O   0  0  0  0  0  1  0  0  0  0  0  0
  191.5290  175.9410  146.4940 C   0  0  1  0  0  3  0  0  0  0  0  0
  192.5570  176.7500  148.5060 O   0  0  0  0  0  1  0  0  0  0  0  0
  192.5690  175.7040  147.5830 C   0  0  0  0  0  2  0  0  0  0  0  0
  187.5180  178.6930  141.6930 C   0  0  0  0  0  2  0  0  0  0  0  0
  185.8390  178.7390  140.9810 S   0  0  0  0  0  0  0  0  0  0  0  0
  185.0900  179.2160  142.5630 C   0  0  1  0  0  3  0  0  0  0  0  0
  185.2010  178.9270  145.0470 C   0  0  0  0  0  2  0  0  0  0  0  0
  183.6260  178.7880  142.5770 C   0  0  0  0  0  2  0  0  0  0  0  0
  183.7340  178.5030  145.0640 C   0  0  0  0  0  2  0  0  0  0  0  0
  182.9810  179.1610  143.9090 C   0  0  2  0  0  3  0  0  0  0  0  0
  185.8430  178.5490  143.7150 C   0  0  0  0  0  2  0  0  0  0  0  0
  181.6540  178.7340  143.9180 O   0  0  0  0  0  1  0  0  0  0  0  0
  1  6  1  1  0  0  0
  1  7  1  0  0  0  0
  2  8  1  0  0  0  0
  2  5  1  0  0  0  0
  3  8  2  0  0  0  0
  4  7  1  0  0  0  0
  4 22  1  1  0  0  0
  5  4  1  0  0  0  0
  7  9  1  1  0  0  0
  8  1  1  0  0  0  0
  9 11  1  0  0  0  0
 10 11  2  0  0  0  0
 11 12  1  0  0  0  0
 12 13  2  0  0  0  0
 13 17  1  0  0  0  0
 13 16  1  0  0  0  0
 15 16  1  0  0  0  0
 16 14  2  0  0  0  0
 17 19  1  0  0  0  0
 19 18  1  6  0  0  0
 19 21  1  0  0  0  0
 21 20  1  0  0  0  0
 23 22  1  0  0  0  0
 24 23  1  6  0  0  0
 24 26  1  0  0  0  0
 24 29  1  0  0  0  0
 25 27  1  0  0  0  0
 26 28  1  0  0  0  0
 28 30  1  6  0  0  0
 28 27  1  0  0  0  0
 29 25  1  0  0  0  0
M  END
>  <MODEL>
8

>  <REMARK>
 VINA RESULT:      -7.6      2.499      5.962
  Name = 
  10 active torsions:
  status: ('A' for Active; 'I' for Inactive)
    1  A    between atoms: O_5  and  C_13
    2  A    between atoms: O_5  and  C_21
    3  A    between atoms: C_6  and  S_24
    4  A    between atoms: C_10  and  C_27
    5  A    between atoms: C_11  and  C_21
    6  A    between atoms: C_13  and  C_26
    7  A    between atoms: C_14  and  C_25
    8  A    between atoms: O_17  and  C_25
    9  A    between atoms: O_17  and  C_28
   10  A    between atoms: S_24  and  C_27
                            x       y       z     vdW  Elec       q    Type
                         _______ _______ _______ _____ _____    ______ ____

>  <TORSDO>
F 10

$$$$
=
 OpenBabel11062413213D

 30 31  0  0  1  0  0  0  0  0999 V2000
  190.6310  177.0500  140.2910 C   0  0  1  0  0  3  0  0  0  0  0  0
  189.0420  178.3970  138.7370 C   0  0  0  0  0  2  0  0  0  0  0  0
  190.8960  177.1890  137.9410 O   0  0  0  0  0  0  0  0  0  0  0  0
  188.1880  177.5350  140.9890 C   0  0  1  0  0  3  0  0  0  0  0  0
  187.8710  177.7890  139.5040 C   0  0  0  0  0  2  0  0  0  0  0  0
  192.0570  177.4680  140.6060 C   0  0  0  0  0  1  0  0  0  0  0  0
  189.6840  177.6110  141.3640 C   0  0  1  0  0  3  0  0  0  0  0  0
  190.2460  177.5280  138.9170 C   0  0  0  0  0  0  0  0  0  0  0  0
  189.9260  177.0240  142.6460 O   0  0  0  0  0  0  0  0  0  0  0  0
  190.6020  178.8990  143.7690 O   0  0  0  0  0  0  0  0  0  0  0  0
  190.6320  177.6420  143.6880 C   0  0  0  0  0  0  0  0  0  0  0  0
  191.4030  176.8440  144.6650 C   0  0  0  0  0  3  0  0  0  0  0  0
  191.2140  176.8280  145.9900 C   0  0  0  0  0  0  0  0  0  0  0  0
  192.5580  174.8930  146.3690 O   0  0  0  0  0  0  0  0  0  0  0  0
  192.4480  176.3720  148.1440 N   0  0  0  0  0  1  0  0  0  0  0  0
  192.1070  175.9800  146.8150 C   0  0  0  0  0  0  0  0  0  0  0  0
  190.1950  177.6150  146.5520 O   0  0  0  0  0  0  0  0  0  0  0  0
  188.7370  177.4480  148.3270 O   0  0  0  0  0  1  0  0  0  0  0  0
  188.9350  177.1170  146.9870 C   0  0  1  0  0  3  0  0  0  0  0  0
  187.5910  176.9090  145.0110 O   0  0  0  0  0  1  0  0  0  0  0  0
  187.8090  177.6980  146.1400 C   0  0  0  0  0  2  0  0  0  0  0  0
  187.3410  178.4270  141.8930 C   0  0  0  0  0  2  0  0  0  0  0  0
  185.8060  178.9720  141.0720 S   0  0  0  0  0  0  0  0  0  0  0  0
  184.7730  178.4420  142.4660 C   0  0  1  0  0  3  0  0  0  0  0  0
  182.4470  178.4100  143.3910 C   0  0  0  0  0  2  0  0  0  0  0  0
  185.2740  179.1060  143.7450 C   0  0  0  0  0  2  0  0  0  0  0  0
  182.9470  179.0700  144.6740 C   0  0  0  0  0  2  0  0  0  0  0  0
  184.4050  178.6900  144.9300 C   0  0  2  0  0  3  0  0  0  0  0  0
  183.3170  178.8300  142.2090 C   0  0  0  0  0  2  0  0  0  0  0  0
  184.8550  179.3310  146.0830 O   0  0  0  0  0  1  0  0  0  0  0  0
  1  6  1  1  0  0  0
  1  7  1  0  0  0  0
  2  8  1  0  0  0  0
  2  5  1  0  0  0  0
  3  8  2  0  0  0  0
  4  7  1  0  0  0  0
  4 22  1  1  0  0  0
  5  4  1  0  0  0  0
  7  9  1  1  0  0  0
  8  1  1  0  0  0  0
  9 11  1  0  0  0  0
 11 10  2  0  0  0  0
 11 12  1  0  0  0  0
 12 13  2  0  0  0  0
 13 17  1  0  0  0  0
 13 16  1  0  0  0  0
 14 16  2  0  0  0  0
 16 15  1  0  0  0  0
 17 19  1  0  0  0  0
 19 18  1  1  0  0  0
 20 21  1  0  0  0  0
 21 19  1  0  0  0  0
 23 22  1  0  0  0  0
 24 23  1  6  0  0  0
 24 26  1  0  0  0  0
 25 27  1  0  0  0  0
 26 28  1  0  0  0  0
 27 28  1  0  0  0  0
 28 30  1  1  0  0  0
 29 24  1  0  0  0  0
 29 25  1  0  0  0  0
M  END
>  <MODEL>
9

>  <REMARK>
 VINA RESULT:      -7.5      2.774      6.198
  Name = 
  10 active torsions:
  status: ('A' for Active; 'I' for Inactive)
    1  A    between atoms: O_5  and  C_13
    2  A    between atoms: O_5  and  C_21
    3  A    between atoms: C_6  and  S_24
    4  A    between atoms: C_10  and  C_27
    5  A    between atoms: C_11  and  C_21
    6  A    between atoms: C_13  and  C_26
    7  A    between atoms: C_14  and  C_25
    8  A    between atoms: O_17  and  C_25
    9  A    between atoms: O_17  and  C_28
   10  A    between atoms: S_24  and  C_27
                            x       y       z     vdW  Elec       q    Type
                         _______ _______ _______ _____ _____    ______ ____

>  <TORSDO>
F 10

$$$$
