=
 OpenBabel11062417093D

 36 41  0  0  1  0  0  0  0  0999 V2000
  183.2690  178.4480  141.9040 N   0  0  0  0  0  0  0  0  0  0  0  0
  184.2330  178.9040  142.6260 C   0  0  0  0  0  0  0  0  0  0  0  0
  185.4900  179.1600  144.8230 C   0  0  0  0  0  2  0  0  0  0  0  0
  186.0120  178.0580  143.8980 C   0  0  1  0  0  3  0  0  0  0  0  0
  184.0030  179.9300  144.0750 S   0  0  0  0  0  0  0  0  0  0  0  0
  185.5940  178.3620  142.4810 C   0  0  0  0  0  2  0  0  0  0  0  0
  191.5310  175.3160  143.8930 C   0  0  0  0  0  3  0  0  0  0  0  0
  188.5210  176.6180  142.4200 C   0  0  0  0  0  2  0  0  0  0  0  0
  193.0430  173.8410  145.0590 O   0  0  0  0  0  1  0  0  0  0  0  0
  188.1990  178.1930  145.3140 C   0  0  2  0  0  3  0  0  0  0  0  0
  190.0010  176.7700  142.6200 C   0  0  0  0  0  0  0  0  0  0  0  0
  191.1120  176.7420  146.2500 C   0  0  0  0  0  3  0  0  0  0  0  0
  190.4470  177.1330  145.0830 C   0  0  0  0  0  0  0  0  0  0  0  0
  191.9730  175.6430  146.2470 C   0  0  0  0  0  3  0  0  0  0  0  0
  192.1850  174.9320  145.0670 C   0  0  0  0  0  0  0  0  0  0  0  0
  190.6620  176.4130  143.8860 C   0  0  0  0  0  0  0  0  0  0  0  0
  187.8380  176.4860  143.6330 O   0  0  0  0  0  0  0  0  0  0  0  0
  190.7090  177.1120  141.6330 O   0  0  0  0  0  0  0  0  0  0  0  0
  187.5180  177.7920  143.9990 C   0  0  1  0  0  3  0  0  0  0  0  0
  189.6180  178.2640  145.1320 O   0  0  0  0  0  0  0  0  0  0  0  0
  187.9450  177.9920  147.7800 C   0  0  2  0  0  3  0  0  0  0  0  0
  186.7030  177.8250  147.1540 O   0  0  0  0  0  0  0  0  0  0  0  0
  187.8200  177.2810  146.4860 C   0  0  1  0  0  3  0  0  0  0  0  0
  188.0720  177.0620  148.8080 O   0  0  0  0  0  1  0  0  0  0  0  0
  181.2600  178.3460  143.3110 C   0  0  0  0  0  1  0  0  0  0  0  0
  181.8820  178.8550  142.0210 C   0  0  2  0  0  3  0  0  0  0  0  0
  181.0390  178.3800  140.8220 C   0  0  2  0  0  0  0  0  0  0  0  0
  181.4710  177.0840  140.1410 C   0  0  0  0  0  2  0  0  0  0  0  0
  180.1530  177.6720  138.1200 C   0  0  0  0  0  2  0  0  0  0  0  0
  180.1450  179.3730  140.0560 C   0  0  1  0  0  0  0  0  0  0  0  0
  181.5160  177.2240  138.6230 C   0  0  0  0  0  2  0  0  0  0  0  0
  179.8810  179.1080  138.5610 C   0  0  0  0  0  2  0  0  0  0  0  0
  179.5230  178.3840  141.0250 C   0  0  0  0  0  2  0  0  0  0  0  0
  180.0510  180.8100  140.5520 C   0  0  0  0  0  3  0  0  0  0  0  0
  178.9320  180.9730  141.3700 O   0  0  0  0  0  1  0  0  0  0  0  0
  179.9760  181.6930  139.4780 O   0  0  0  0  0  1  0  0  0  0  0  0
  1 26  1  0  0  0  0
  1  2  2  0  0  0  0
  2  5  1  0  0  0  0
  4  6  1  6  0  0  0
  4 19  1  0  0  0  0
  4  3  1  0  0  0  0
  5  3  1  0  0  0  0
  6  2  1  0  0  0  0
  7 15  1  0  0  0  0
  8 11  1  0  0  0  0
  8 17  1  0  0  0  0
  9 15  1  0  0  0  0
 10 20  1  6  0  0  0
 10 23  1  0  0  0  0
 11 16  1  0  0  0  0
 13 20  1  0  0  0  0
 13 12  2  0  0  0  0
 14 12  1  0  0  0  0
 15 14  2  0  0  0  0
 16  7  2  0  0  0  0
 16 13  1  0  0  0  0
 18 11  2  0  0  0  0
 19 17  1  1  0  0  0
 19 10  1  0  0  0  0
 21 24  1  1  0  0  0
 22 21  1  0  0  0  0
 23 22  1  6  0  0  0
 23 21  1  0  0  0  0
 26 25  1  1  0  0  0
 27 33  1  0  0  0  0
 27 26  1  1  0  0  0
 28 27  1  0  0  0  0
 29 32  1  0  0  0  0
 29 31  1  0  0  0  0
 30 34  1  1  0  0  0
 30 27  1  0  0  0  0
 30 33  1  0  0  0  0
 31 28  1  0  0  0  0
 32 30  1  0  0  0  0
 34 35  1  0  0  0  0
 36 34  1  0  0  0  0
M  END
>  <MODEL>
1

>  <REMARK>
 VINA RESULT:      -8.1      0.000      0.000
  Name = 
  5 active torsions:
  status: ('A' for Active; 'I' for Inactive)
    1  A    between atoms: N_4  and  C_10
    2  A    between atoms: C_7  and  C_28
    3  A    between atoms: C_10  and  C_13
    4  A    between atoms: C_12  and  C_35
    5  A    between atoms: C_19  and  C_24
                            x       y       z     vdW  Elec       q    Type
                         _______ _______ _______ _____ _____    ______ ____

>  <TORSDO>
F 5

$$$$
=
 OpenBabel11062417093D

 36 41  0  0  1  0  0  0  0  0999 V2000
  189.9410  176.3480  137.0180 N   0  0  0  0  0  0  0  0  0  0  0  0
  190.1340  176.4580  138.2870 C   0  0  0  0  0  0  0  0  0  0  0  0
  190.6310  177.7940  140.3940 C   0  0  0  0  0  2  0  0  0  0  0  0
  189.1470  177.5480  140.1130 C   0  0  1  0  0  3  0  0  0  0  0  0
  191.6330  177.1000  139.0230 S   0  0  0  0  0  0  0  0  0  0  0  0
  189.0040  176.3370  139.2250 C   0  0  0  0  0  2  0  0  0  0  0  0
  185.6920  178.9100  145.0310 C   0  0  0  0  0  3  0  0  0  0  0  0
  186.4530  178.6910  141.5250 C   0  0  0  0  0  2  0  0  0  0  0  0
  185.6640  179.6980  147.3110 O   0  0  0  0  0  1  0  0  0  0  0  0
  188.8200  176.6030  142.5230 C   0  0  2  0  0  3  0  0  0  0  0  0
  185.6500  178.1690  142.6810 C   0  0  0  0  0  0  0  0  0  0  0  0
  187.7160  177.1080  145.6850 C   0  0  0  0  0  3  0  0  0  0  0  0
  187.2370  177.1570  144.3710 C   0  0  0  0  0  0  0  0  0  0  0  0
  187.1990  177.9570  146.6650 C   0  0  0  0  0  3  0  0  0  0  0  0
  186.1840  178.8550  146.3390 C   0  0  0  0  0  0  0  0  0  0  0  0
  186.2070  178.0670  144.0400 C   0  0  0  0  0  0  0  0  0  0  0  0
  187.8250  178.6880  141.7940 O   0  0  0  0  0  0  0  0  0  0  0  0
  184.4280  177.9150  142.4980 O   0  0  0  0  0  0  0  0  0  0  0  0
  188.2650  177.4390  141.3620 C   0  0  1  0  0  3  0  0  0  0  0  0
  187.7670  176.2610  143.4310 O   0  0  0  0  0  0  0  0  0  0  0  0
  190.7340  176.3140  144.0850 C   0  0  2  0  0  3  0  0  0  0  0  0
  191.2000  176.6870  142.8180 O   0  0  0  0  0  0  0  0  0  0  0  0
  189.9930  177.2800  143.2410 C   0  0  1  0  0  3  0  0  0  0  0  0
  191.4480  177.0050  145.0610 O   0  0  0  0  0  1  0  0  0  0  0  0
  190.4020  177.1820  134.7560 C   0  0  0  0  0  1  0  0  0  0  0  0
  190.9650  176.5260  136.0060 C   0  0  2  0  0  3  0  0  0  0  0  0
  191.6400  175.1940  135.6290 C   0  0  2  0  0  0  0  0  0  0  0  0
  190.7200  174.0210  135.2960 C   0  0  0  0  0  2  0  0  0  0  0  0
  192.5840  172.4200  135.6570 C   0  0  0  0  0  2  0  0  0  0  0  0
  193.0980  174.9170  136.0350 C   0  0  1  0  0  0  0  0  0  0  0  0
  191.1420  172.7430  136.0150 C   0  0  0  0  0  2  0  0  0  0  0  0
  193.5200  173.4540  136.2790 C   0  0  0  0  0  2  0  0  0  0  0  0
  192.7680  175.2820  134.6000 C   0  0  0  0  0  2  0  0  0  0  0  0
  193.8830  176.0100  136.7480 C   0  0  0  0  0  3  0  0  0  0  0  0
  194.7120  176.6820  135.8480 O   0  0  0  0  0  1  0  0  0  0  0  0
  194.6510  175.4710  137.7760 O   0  0  0  0  0  1  0  0  0  0  0  0
  1  2  2  0  0  0  0
  2  5  1  0  0  0  0
  2  6  1  0  0  0  0
  4  6  1  1  0  0  0
  4  3  1  0  0  0  0
  4 19  1  0  0  0  0
  5  3  1  0  0  0  0
  7 15  1  0  0  0  0
  8 17  1  0  0  0  0
  8 11  1  0  0  0  0
 10 23  1  0  0  0  0
 10 20  1  1  0  0  0
 11 16  1  0  0  0  0
 12 14  1  0  0  0  0
 13 12  2  0  0  0  0
 15 14  2  0  0  0  0
 15  9  1  0  0  0  0
 16 13  1  0  0  0  0
 16  7  2  0  0  0  0
 18 11  2  0  0  0  0
 19 17  1  1  0  0  0
 19 10  1  0  0  0  0
 20 13  1  0  0  0  0
 21 24  1  1  0  0  0
 22 21  1  0  0  0  0
 23 22  1  6  0  0  0
 23 21  1  0  0  0  0
 26 25  1  6  0  0  0
 26  1  1  0  0  0  0
 27 26  1  1  0  0  0
 27 30  1  0  0  0  0
 28 27  1  0  0  0  0
 28 31  1  0  0  0  0
 29 31  1  0  0  0  0
 29 32  1  0  0  0  0
 30 32  1  0  0  0  0
 30 34  1  1  0  0  0
 33 27  1  0  0  0  0
 33 30  1  0  0  0  0
 34 36  1  0  0  0  0
 35 34  1  0  0  0  0
M  END
>  <MODEL>
2

>  <REMARK>
 VINA RESULT:      -7.8      5.100      9.279
  Name = 
  5 active torsions:
  status: ('A' for Active; 'I' for Inactive)
    1  A    between atoms: N_4  and  C_10
    2  A    between atoms: C_7  and  C_28
    3  A    between atoms: C_10  and  C_13
    4  A    between atoms: C_12  and  C_35
    5  A    between atoms: C_19  and  C_24
                            x       y       z     vdW  Elec       q    Type
                         _______ _______ _______ _____ _____    ______ ____

>  <TORSDO>
F 5

$$$$
=
 OpenBabel11062417093D

 36 41  0  0  1  0  0  0  0  0999 V2000
  190.2890  177.6670  142.3980 N   0  0  0  0  0  0  0  0  0  0  0  0
  189.6320  177.3960  141.3240 C   0  0  0  0  0  0  0  0  0  0  0  0
  188.6720  177.9960  139.0460 C   0  0  0  0  0  2  0  0  0  0  0  0
  190.0300  177.2910  139.0160 C   0  0  1  0  0  3  0  0  0  0  0  0
  188.1740  178.2840  140.7870 S   0  0  0  0  0  0  0  0  0  0  0  0
  190.2140  176.5160  140.2960 C   0  0  0  0  0  2  0  0  0  0  0  0
  190.4200  172.4730  135.1930 C   0  0  0  0  0  3  0  0  0  0  0  0
  188.7300  174.9520  137.1730 C   0  0  0  0  0  2  0  0  0  0  0  0
  191.6350  170.4770  134.5940 O   0  0  0  0  0  1  0  0  0  0  0  0
  191.6760  176.4630  137.1690 C   0  0  2  0  0  3  0  0  0  0  0  0
  189.0960  174.4610  135.8020 C   0  0  0  0  0  0  0  0  0  0  0  0
  192.8130  173.9000  135.2700 C   0  0  0  0  0  3  0  0  0  0  0  0
  191.6120  174.5560  135.5590 C   0  0  0  0  0  0  0  0  0  0  0  0
  192.8250  172.5400  134.9530 C   0  0  0  0  0  3  0  0  0  0  0  0
  191.6270  171.8270  134.9110 C   0  0  0  0  0  0  0  0  0  0  0  0
  190.3980  173.8350  135.5160 C   0  0  0  0  0  0  0  0  0  0  0  0
  189.8520  175.1000  137.9950 O   0  0  0  0  0  0  0  0  0  0  0  0
  188.2160  174.4890  134.8990 O   0  0  0  0  0  0  0  0  0  0  0  0
  190.2710  176.4120  137.7840 C   0  0  1  0  0  3  0  0  0  0  0  0
  191.6510  175.9300  135.8390 O   0  0  0  0  0  0  0  0  0  0  0  0
  194.1030  176.1820  137.6360 C   0  0  2  0  0  3  0  0  0  0  0  0
  193.4640  176.7560  138.7420 O   0  0  0  0  0  0  0  0  0  0  0  0
  192.7350  175.7760  138.0380 C   0  0  1  0  0  3  0  0  0  0  0  0
  195.0160  175.2260  138.0760 O   0  0  0  0  0  1  0  0  0  0  0  0
  191.0040  179.3690  144.0160 C   0  0  0  0  0  1  0  0  0  0  0  0
  189.8430  178.5790  143.4340 C   0  0  2  0  0  3  0  0  0  0  0  0
  189.1010  177.8450  144.5670 C   0  0  2  0  0  0  0  0  0  0  0  0
  187.6560  178.2620  144.8340 C   0  0  0  0  0  2  0  0  0  0  0  0
  187.7400  177.2220  147.0870 C   0  0  0  0  0  2  0  0  0  0  0  0
  189.8890  177.1120  145.6680 C   0  0  1  0  0  0  0  0  0  0  0  0
  187.3910  178.4870  146.3190 C   0  0  0  0  0  2  0  0  0  0  0  0
  189.2510  177.0000  147.0670 C   0  0  0  0  0  2  0  0  0  0  0  0
  189.2130  176.3190  144.5640 C   0  0  0  0  0  2  0  0  0  0  0  0
  191.4080  177.0610  145.5730 C   0  0  0  0  0  3  0  0  0  0  0  0
  191.8150  175.9380  144.8510 O   0  0  0  0  0  1  0  0  0  0  0  0
  191.9760  177.0280  146.8440 O   0  0  0  0  0  1  0  0  0  0  0  0
  1 26  1  0  0  0  0
  2  1  2  0  0  0  0
  3  5  1  0  0  0  0
  4  3  1  6  0  0  0
  4  6  1  0  0  0  0
  5  2  1  0  0  0  0
  6  2  1  0  0  0  0
  7 16  1  0  0  0  0
  8 17  1  0  0  0  0
  9 15  1  0  0  0  0
 10 20  1  6  0  0  0
 10 19  1  0  0  0  0
 10 23  1  0  0  0  0
 11  8  1  0  0  0  0
 12 13  1  0  0  0  0
 13 20  1  0  0  0  0
 14 12  2  0  0  0  0
 15 14  1  0  0  0  0
 15  7  2  0  0  0  0
 16 13  2  0  0  0  0
 16 11  1  0  0  0  0
 18 11  2  0  0  0  0
 19 17  1  1  0  0  0
 19  4  1  0  0  0  0
 21 23  1  0  0  0  0
 21 24  1  1  0  0  0
 21 22  1  0  0  0  0
 23 22  1  1  0  0  0
 26 25  1  1  0  0  0
 27 26  1  6  0  0  0
 27 28  1  0  0  0  0
 27 30  1  0  0  0  0
 28 31  1  0  0  0  0
 30 34  1  6  0  0  0
 30 32  1  0  0  0  0
 31 29  1  0  0  0  0
 32 29  1  0  0  0  0
 33 27  1  0  0  0  0
 33 30  1  0  0  0  0
 34 36  1  0  0  0  0
 35 34  1  0  0  0  0
M  END
>  <MODEL>
3

>  <REMARK>
 VINA RESULT:      -7.7      5.737      9.805
  Name = 
  5 active torsions:
  status: ('A' for Active; 'I' for Inactive)
    1  A    between atoms: N_4  and  C_10
    2  A    between atoms: C_7  and  C_28
    3  A    between atoms: C_10  and  C_13
    4  A    between atoms: C_12  and  C_35
    5  A    between atoms: C_19  and  C_24
                            x       y       z     vdW  Elec       q    Type
                         _______ _______ _______ _____ _____    ______ ____

>  <TORSDO>
F 5

$$$$
=
 OpenBabel11062417093D

 36 41  0  0  1  0  0  0  0  0999 V2000
  182.2880  179.1320  139.9120 N   0  0  0  0  0  0  0  0  0  0  0  0
  183.4420  178.6920  140.2770 C   0  0  0  0  0  0  0  0  0  0  0  0
  185.8940  179.0000  140.8790 C   0  0  0  0  0  2  0  0  0  0  0  0
  184.9300  178.9760  142.0670 C   0  0  1  0  0  3  0  0  0  0  0  0
  184.9400  178.8850  139.3170 S   0  0  0  0  0  0  0  0  0  0  0  0
  183.6670  178.2560  141.6650 C   0  0  0  0  0  2  0  0  0  0  0  0
  187.4690  178.4410  147.6560 C   0  0  0  0  0  3  0  0  0  0  0  0
  184.8670  179.2300  145.3050 C   0  0  0  0  0  2  0  0  0  0  0  0
  189.4800  178.6280  148.9770 O   0  0  0  0  0  1  0  0  0  0  0  0
  186.6890  177.4270  143.2110 C   0  0  2  0  0  3  0  0  0  0  0  0
  185.3680  178.3040  146.3750 C   0  0  0  0  0  0  0  0  0  0  0  0
  188.8550  176.9320  145.7680 C   0  0  0  0  0  3  0  0  0  0  0  0
  187.5000  177.2140  145.5620 C   0  0  0  0  0  0  0  0  0  0  0  0
  189.5190  177.4070  146.9010 C   0  0  0  0  0  3  0  0  0  0  0  0
  188.8240  178.1580  147.8470 C   0  0  0  0  0  0  0  0  0  0  0  0
  186.7950  177.9750  146.5220 C   0  0  0  0  0  0  0  0  0  0  0  0
  185.8060  179.4110  144.2840 O   0  0  0  0  0  0  0  0  0  0  0  0
  184.5490  177.8850  147.2390 O   0  0  0  0  0  0  0  0  0  0  0  0
  185.5180  178.4060  143.3620 C   0  0  1  0  0  3  0  0  0  0  0  0
  186.8720  176.6870  144.4240 O   0  0  0  0  0  0  0  0  0  0  0  0
  188.9790  177.1140  142.2910 C   0  0  2  0  0  3  0  0  0  0  0  0
  188.1950  177.8460  141.3900 O   0  0  0  0  0  0  0  0  0  0  0  0
  187.9860  178.1090  142.7590 C   0  0  1  0  0  3  0  0  0  0  0  0
  190.2540  177.6710  142.3500 O   0  0  0  0  0  1  0  0  0  0  0  0
  181.5400  181.1110  138.6670 C   0  0  0  0  0  1  0  0  0  0  0  0
  181.9810  179.6580  138.5950 C   0  0  2  0  0  3  0  0  0  0  0  0
  180.8990  178.8260  137.8810 C   0  0  2  0  0  0  0  0  0  0  0  0
  179.5160  178.7860  138.5280 C   0  0  0  0  0  2  0  0  0  0  0  0
  178.9310  176.7590  137.2190 C   0  0  0  0  0  2  0  0  0  0  0  0
  181.2950  177.7250  136.8810 C   0  0  1  0  0  0  0  0  0  0  0  0
  178.9660  177.3660  138.6120 C   0  0  0  0  0  2  0  0  0  0  0  0
  180.3520  176.5160  136.7190 C   0  0  0  0  0  2  0  0  0  0  0  0
  180.7640  179.0540  136.3740 C   0  0  0  0  0  2  0  0  0  0  0  0
  182.7690  177.5260  136.5550 C   0  0  0  0  0  3  0  0  0  0  0  0
  182.9540  177.4140  135.1760 O   0  0  0  0  0  1  0  0  0  0  0  0
  183.2600  176.3850  137.1840 O   0  0  0  0  0  1  0  0  0  0  0  0
  1  2  2  0  0  0  0
  2  6  1  0  0  0  0
  4  3  1  6  0  0  0
  4 19  1  0  0  0  0
  5  2  1  0  0  0  0
  5  3  1  0  0  0  0
  6  4  1  0  0  0  0
  7 15  1  0  0  0  0
  8 11  1  0  0  0  0
 10 19  1  0  0  0  0
 10 20  1  1  0  0  0
 11 16  1  0  0  0  0
 11 18  2  0  0  0  0
 12 14  1  0  0  0  0
 13 12  2  0  0  0  0
 13 16  1  0  0  0  0
 14 15  2  0  0  0  0
 15  9  1  0  0  0  0
 16  7  2  0  0  0  0
 17  8  1  0  0  0  0
 19 17  1  1  0  0  0
 20 13  1  0  0  0  0
 21 24  1  6  0  0  0
 21 23  1  0  0  0  0
 22 21  1  0  0  0  0
 23 22  1  6  0  0  0
 23 10  1  0  0  0  0
 26 25  1  1  0  0  0
 26  1  1  0  0  0  0
 27 28  1  0  0  0  0
 27 26  1  1  0  0  0
 28 31  1  0  0  0  0
 29 31  1  0  0  0  0
 30 34  1  6  0  0  0
 30 27  1  0  0  0  0
 32 30  1  0  0  0  0
 32 29  1  0  0  0  0
 33 30  1  0  0  0  0
 33 27  1  0  0  0  0
 34 36  1  0  0  0  0
 35 34  1  0  0  0  0
M  END
>  <MODEL>
4

>  <REMARK>
 VINA RESULT:      -7.4      2.817      4.699
  Name = 
  5 active torsions:
  status: ('A' for Active; 'I' for Inactive)
    1  A    between atoms: N_4  and  C_10
    2  A    between atoms: C_7  and  C_28
    3  A    between atoms: C_10  and  C_13
    4  A    between atoms: C_12  and  C_35
    5  A    between atoms: C_19  and  C_24
                            x       y       z     vdW  Elec       q    Type
                         _______ _______ _______ _____ _____    ______ ____

>  <TORSDO>
F 5

$$$$
=
 OpenBabel11062417093D

 36 41  0  0  1  0  0  0  0  0999 V2000
  190.3600  177.6390  142.6910 N   0  0  0  0  0  0  0  0  0  0  0  0
  189.6360  177.5070  141.6340 C   0  0  0  0  0  0  0  0  0  0  0  0
  188.7060  178.3230  139.4110 C   0  0  0  0  0  2  0  0  0  0  0  0
  189.9410  177.4260  139.3100 C   0  0  1  0  0  3  0  0  0  0  0  0
  188.3120  178.6210  141.1780 S   0  0  0  0  0  0  0  0  0  0  0  0
  190.0480  176.5870  140.5590 C   0  0  0  0  0  2  0  0  0  0  0  0
  189.7150  172.6790  135.3870 C   0  0  0  0  0  3  0  0  0  0  0  0
  188.3540  175.1750  137.5870 C   0  0  0  0  0  2  0  0  0  0  0  0
  190.7770  170.6530  134.6210 O   0  0  0  0  0  1  0  0  0  0  0  0
  191.3360  176.5780  137.2750 C   0  0  2  0  0  3  0  0  0  0  0  0
  188.5450  174.7000  136.1760 C   0  0  0  0  0  0  0  0  0  0  0  0
  192.1540  174.0160  135.2170 C   0  0  0  0  0  3  0  0  0  0  0  0
  191.0190  174.7090  135.6510 C   0  0  0  0  0  0  0  0  0  0  0  0
  192.0780  172.6630  134.8790 C   0  0  0  0  0  3  0  0  0  0  0  0
  190.8570  171.9960  134.9600 C   0  0  0  0  0  0  0  0  0  0  0  0
  189.7810  174.0330  135.7330 C   0  0  0  0  0  0  0  0  0  0  0  0
  189.5660  175.2650  138.2800 O   0  0  0  0  0  0  0  0  0  0  0  0
  187.5700  174.7780  135.3780 O   0  0  0  0  0  0  0  0  0  0  0  0
  190.0090  176.5650  138.0440 C   0  0  1  0  0  3  0  0  0  0  0  0
  191.1420  176.0750  135.9480 O   0  0  0  0  0  0  0  0  0  0  0  0
  193.7920  176.2750  137.5310 C   0  0  2  0  0  3  0  0  0  0  0  0
  193.2410  176.7650  138.7220 O   0  0  0  0  0  0  0  0  0  0  0  0
  192.4600  175.8350  138.0070 C   0  0  1  0  0  3  0  0  0  0  0  0
  194.7360  175.2950  137.8280 O   0  0  0  0  0  1  0  0  0  0  0  0
  190.9420  179.8230  143.6490 C   0  0  0  0  0  1  0  0  0  0  0  0
  190.0890  178.5700  143.7690 C   0  0  2  0  0  3  0  0  0  0  0  0
  190.3090  177.9290  145.1530 C   0  0  2  0  0  0  0  0  0  0  0  0
  191.6830  177.3210  145.4250 C   0  0  0  0  0  2  0  0  0  0  0  0
  190.7560  176.0000  147.3120 C   0  0  0  0  0  2  0  0  0  0  0  0
  189.1060  177.4880  146.0070 C   0  0  1  0  0  0  0  0  0  0  0  0
  191.5800  175.9280  146.0360 C   0  0  0  0  0  2  0  0  0  0  0  0
  189.2990  176.3040  146.9760 C   0  0  0  0  0  2  0  0  0  0  0  0
  189.8570  178.7600  146.3560 C   0  0  0  0  0  2  0  0  0  0  0  0
  187.7000  177.7650  145.4930 C   0  0  0  0  0  3  0  0  0  0  0  0
  186.8040  177.8790  146.5580 O   0  0  0  0  0  1  0  0  0  0  0  0
  187.2810  176.7470  144.6400 O   0  0  0  0  0  1  0  0  0  0  0  0
  1 26  1  0  0  0  0
  2  1  2  0  0  0  0
  3  5  1  0  0  0  0
  4  3  1  1  0  0  0
  4  6  1  0  0  0  0
  5  2  1  0  0  0  0
  6  2  1  0  0  0  0
  7 16  1  0  0  0  0
  8 17  1  0  0  0  0
  9 15  1  0  0  0  0
 10 20  1  6  0  0  0
 10 23  1  0  0  0  0
 10 19  1  0  0  0  0
 11  8  1  0  0  0  0
 12 13  1  0  0  0  0
 13 16  2  0  0  0  0
 13 20  1  0  0  0  0
 14 15  1  0  0  0  0
 14 12  2  0  0  0  0
 15  7  2  0  0  0  0
 16 11  1  0  0  0  0
 18 11  2  0  0  0  0
 19 17  1  1  0  0  0
 19  4  1  0  0  0  0
 21 24  1  1  0  0  0
 21 23  1  0  0  0  0
 21 22  1  0  0  0  0
 23 22  1  1  0  0  0
 26 25  1  6  0  0  0
 27 26  1  6  0  0  0
 27 28  1  0  0  0  0
 27 30  1  0  0  0  0
 27 33  1  0  0  0  0
 28 31  1  0  0  0  0
 30 34  1  6  0  0  0
 30 33  1  0  0  0  0
 30 32  1  0  0  0  0
 31 29  1  0  0  0  0
 32 29  1  0  0  0  0
 34 35  1  0  0  0  0
 36 34  1  0  0  0  0
M  END
>  <MODEL>
5

>  <REMARK>
 VINA RESULT:      -7.2      5.501      9.638
  Name = 
  5 active torsions:
  status: ('A' for Active; 'I' for Inactive)
    1  A    between atoms: N_4  and  C_10
    2  A    between atoms: C_7  and  C_28
    3  A    between atoms: C_10  and  C_13
    4  A    between atoms: C_12  and  C_35
    5  A    between atoms: C_19  and  C_24
                            x       y       z     vdW  Elec       q    Type
                         _______ _______ _______ _____ _____    ______ ____

>  <TORSDO>
F 5

$$$$
=
 OpenBabel11062417093D

 36 41  0  0  1  0  0  0  0  0999 V2000
  193.5740  174.1620  136.9370 N   0  0  0  0  0  0  0  0  0  0  0  0
  192.9250  175.2730  136.9990 C   0  0  0  0  0  0  0  0  0  0  0  0
  190.8950  176.7370  136.5450 C   0  0  0  0  0  2  0  0  0  0  0  0
  190.9250  176.0750  137.9250 C   0  0  1  0  0  3  0  0  0  0  0  0
  192.3440  176.1780  135.5690 S   0  0  0  0  0  0  0  0  0  0  0  0
  192.3500  175.7290  138.2770 C   0  0  0  0  0  2  0  0  0  0  0  0
  188.0940  177.6720  143.1600 C   0  0  0  0  0  3  0  0  0  0  0  0
  190.8430  176.5400  141.1390 C   0  0  0  0  0  2  0  0  0  0  0  0
  186.0330  177.6610  144.4140 O   0  0  0  0  0  1  0  0  0  0  0  0
  189.0380  177.7320  138.6320 C   0  0  2  0  0  3  0  0  0  0  0  0
  190.2460  177.6470  141.9580 C   0  0  0  0  0  0  0  0  0  0  0  0
  186.7290  178.6460  140.9350 C   0  0  0  0  0  3  0  0  0  0  0  0
  188.1050  178.4070  140.8460 C   0  0  0  0  0  0  0  0  0  0  0  0
  186.0350  178.3940  142.1190 C   0  0  0  0  0  3  0  0  0  0  0  0
  186.7190  177.9100  143.2340 C   0  0  0  0  0  0  0  0  0  0  0  0
  188.7980  177.9170  141.9760 C   0  0  0  0  0  0  0  0  0  0  0  0
  189.9650  176.0860  140.1500 O   0  0  0  0  0  0  0  0  0  0  0  0
  191.0000  178.2920  142.7380 O   0  0  0  0  0  0  0  0  0  0  0  0
  190.2470  176.8790  139.0390 C   0  0  1  0  0  3  0  0  0  0  0  0
  188.7610  178.7070  139.6440 O   0  0  0  0  0  0  0  0  0  0  0  0
  186.8780  177.6340  137.4020 C   0  0  2  0  0  3  0  0  0  0  0  0
  187.7600  176.6650  136.9050 O   0  0  0  0  0  0  0  0  0  0  0  0
  187.8000  176.8930  138.2950 C   0  0  1  0  0  3  0  0  0  0  0  0
  185.6010  177.0870  137.5020 O   0  0  0  0  0  1  0  0  0  0  0  0
  193.1110  172.6480  135.0610 C   0  0  0  0  0  1  0  0  0  0  0  0
  194.1110  173.5840  135.7200 C   0  0  2  0  0  3  0  0  0  0  0  0
  195.4310  172.8310  135.9740 C   0  0  2  0  0  0  0  0  0  0  0  0
  195.3230  171.4080  136.5180 C   0  0  0  0  0  2  0  0  0  0  0  0
  197.6890  171.4850  137.2680 C   0  0  0  0  0  2  0  0  0  0  0  0
  196.7500  173.6050  136.1440 C   0  0  1  0  0  0  0  0  0  0  0  0
  196.2630  171.1750  137.6960 C   0  0  0  0  0  2  0  0  0  0  0  0
  197.8480  172.9840  137.0300 C   0  0  0  0  0  2  0  0  0  0  0  0
  196.4590  172.8810  134.8420 C   0  0  0  0  0  2  0  0  0  0  0  0
  196.7390  175.1190  135.9820 C   0  0  0  0  0  3  0  0  0  0  0  0
  197.0720  175.4730  134.6740 O   0  0  0  0  0  1  0  0  0  0  0  0
  197.6340  175.7130  136.8680 O   0  0  0  0  0  1  0  0  0  0  0  0
  1  2  2  0  0  0  0
  2  6  1  0  0  0  0
  4  3  1  6  0  0  0
  4  6  1  0  0  0  0
  4 19  1  0  0  0  0
  5  3  1  0  0  0  0
  5  2  1  0  0  0  0
  7 15  1  0  0  0  0
  8 11  1  0  0  0  0
 10 19  1  0  0  0  0
 10 20  1  1  0  0  0
 11 16  1  0  0  0  0
 11 18  2  0  0  0  0
 12 14  1  0  0  0  0
 13 12  2  0  0  0  0
 13 16  1  0  0  0  0
 14 15  2  0  0  0  0
 15  9  1  0  0  0  0
 16  7  2  0  0  0  0
 17  8  1  0  0  0  0
 19 17  1  1  0  0  0
 20 13  1  0  0  0  0
 21 24  1  1  0  0  0
 21 23  1  0  0  0  0
 22 21  1  0  0  0  0
 23 22  1  6  0  0  0
 23 10  1  0  0  0  0
 26 25  1  1  0  0  0
 26  1  1  0  0  0  0
 27 26  1  6  0  0  0
 27 30  1  0  0  0  0
 27 28  1  0  0  0  0
 28 31  1  0  0  0  0
 29 31  1  0  0  0  0
 30 34  1  6  0  0  0
 30 32  1  0  0  0  0
 32 29  1  0  0  0  0
 33 27  1  0  0  0  0
 33 30  1  0  0  0  0
 34 36  1  0  0  0  0
 35 34  1  0  0  0  0
M  END
>  <MODEL>
6

>  <REMARK>
 VINA RESULT:      -7.1      6.816     11.994
  Name = 
  5 active torsions:
  status: ('A' for Active; 'I' for Inactive)
    1  A    between atoms: N_4  and  C_10
    2  A    between atoms: C_7  and  C_28
    3  A    between atoms: C_10  and  C_13
    4  A    between atoms: C_12  and  C_35
    5  A    between atoms: C_19  and  C_24
                            x       y       z     vdW  Elec       q    Type
                         _______ _______ _______ _____ _____    ______ ____

>  <TORSDO>
F 5

$$$$
=
 OpenBabel11062417093D

 36 41  0  0  1  0  0  0  0  0999 V2000
  192.3780  174.2880  137.2430 N   0  0  0  0  0  0  0  0  0  0  0  0
  191.8180  175.4410  137.3670 C   0  0  0  0  0  0  0  0  0  0  0  0
  189.9020  177.0770  137.0130 C   0  0  0  0  0  2  0  0  0  0  0  0
  189.8980  176.3500  138.3600 C   0  0  1  0  0  3  0  0  0  0  0  0
  191.2920  176.4550  135.9890 S   0  0  0  0  0  0  0  0  0  0  0  0
  191.2960  175.8790  138.6730 C   0  0  0  0  0  2  0  0  0  0  0  0
  187.2800  177.9110  143.7150 C   0  0  0  0  0  3  0  0  0  0  0  0
  189.9060  176.6800  141.5920 C   0  0  0  0  0  2  0  0  0  0  0  0
  185.2460  177.9890  145.0100 O   0  0  0  0  0  1  0  0  0  0  0  0
  188.1450  178.1010  139.1750 C   0  0  2  0  0  3  0  0  0  0  0  0
  189.4030  177.7900  142.4690 C   0  0  0  0  0  0  0  0  0  0  0  0
  185.9470  179.0730  141.5610 C   0  0  0  0  0  3  0  0  0  0  0  0
  187.3000  178.7430  141.4340 C   0  0  0  0  0  0  0  0  0  0  0  0
  185.2580  178.8180  142.7490 C   0  0  0  0  0  3  0  0  0  0  0  0
  185.9260  178.2410  143.8270 C   0  0  0  0  0  0  0  0  0  0  0  0
  187.9780  178.1580  142.5280 C   0  0  0  0  0  0  0  0  0  0  0  0
  188.9810  176.3310  140.6030 O   0  0  0  0  0  0  0  0  0  0  0  0
  190.2140  178.3470  143.2590 O   0  0  0  0  0  0  0  0  0  0  0  0
  189.2980  177.1500  139.5210 C   0  0  1  0  0  3  0  0  0  0  0  0
  187.9540  179.0490  140.2320 O   0  0  0  0  0  0  0  0  0  0  0  0
  185.9760  178.1920  137.9590 C   0  0  2  0  0  3  0  0  0  0  0  0
  186.7800  177.1720  137.4340 O   0  0  0  0  0  0  0  0  0  0  0  0
  186.8450  177.3650  138.8290 C   0  0  1  0  0  3  0  0  0  0  0  0
  184.6620  177.7420  138.0560 O   0  0  0  0  0  1  0  0  0  0  0  0
  191.8920  172.6850  135.4490 C   0  0  0  0  0  1  0  0  0  0  0  0
  192.8540  173.7280  135.9920 C   0  0  2  0  0  3  0  0  0  0  0  0
  194.2570  173.1090  136.1350 C   0  0  2  0  0  0  0  0  0  0  0  0
  194.3750  171.8480  136.9880 C   0  0  0  0  0  2  0  0  0  0  0  0
  196.8240  172.1930  137.2130 C   0  0  0  0  0  2  0  0  0  0  0  0
  195.5140  173.9560  135.8640 C   0  0  1  0  0  0  0  0  0  0  0  0
  195.5340  171.9320  137.9760 C   0  0  0  0  0  2  0  0  0  0  0  0
  196.8070  173.6030  136.6270 C   0  0  0  0  0  2  0  0  0  0  0  0
  195.0500  172.9390  134.8380 C   0  0  0  0  0  2  0  0  0  0  0  0
  195.3440  175.3900  135.3800 C   0  0  0  0  0  3  0  0  0  0  0  0
  196.4550  175.7900  134.6380 O   0  0  0  0  0  1  0  0  0  0  0  0
  195.1680  176.2520  136.4590 O   0  0  0  0  0  1  0  0  0  0  0  0
  1  2  2  0  0  0  0
  2  6  1  0  0  0  0
  4  3  1  6  0  0  0
  4  6  1  0  0  0  0
  4 19  1  0  0  0  0
  5  3  1  0  0  0  0
  5  2  1  0  0  0  0
  7 15  1  0  0  0  0
  8 11  1  0  0  0  0
 10 19  1  0  0  0  0
 10 20  1  1  0  0  0
 11 16  1  0  0  0  0
 11 18  2  0  0  0  0
 12 14  1  0  0  0  0
 13 12  2  0  0  0  0
 13 16  1  0  0  0  0
 14 15  2  0  0  0  0
 15  9  1  0  0  0  0
 16  7  2  0  0  0  0
 17  8  1  0  0  0  0
 19 17  1  1  0  0  0
 20 13  1  0  0  0  0
 21 24  1  1  0  0  0
 21 23  1  0  0  0  0
 22 21  1  0  0  0  0
 23 22  1  6  0  0  0
 23 10  1  0  0  0  0
 26 25  1  1  0  0  0
 26  1  1  0  0  0  0
 27 26  1  6  0  0  0
 27 28  1  0  0  0  0
 28 31  1  0  0  0  0
 29 31  1  0  0  0  0
 30 34  1  6  0  0  0
 30 27  1  0  0  0  0
 30 32  1  0  0  0  0
 32 29  1  0  0  0  0
 33 30  1  0  0  0  0
 33 27  1  0  0  0  0
 34 36  1  0  0  0  0
 35 34  1  0  0  0  0
M  END
>  <MODEL>
7

>  <REMARK>
 VINA RESULT:      -6.7      6.285     11.235
  Name = 
  5 active torsions:
  status: ('A' for Active; 'I' for Inactive)
    1  A    between atoms: N_4  and  C_10
    2  A    between atoms: C_7  and  C_28
    3  A    between atoms: C_10  and  C_13
    4  A    between atoms: C_12  and  C_35
    5  A    between atoms: C_19  and  C_24
                            x       y       z     vdW  Elec       q    Type
                         _______ _______ _______ _____ _____    ______ ____

>  <TORSDO>
F 5

$$$$
=
 OpenBabel11062417093D

 36 41  0  0  1  0  0  0  0  0999 V2000
  186.7690  177.0270  144.2050 N   0  0  0  0  0  0  0  0  0  0  0  0
  185.7210  177.7570  144.0430 C   0  0  0  0  0  0  0  0  0  0  0  0
  184.5520  179.9620  143.5500 C   0  0  0  0  0  2  0  0  0  0  0  0
  184.7320  179.0360  142.3450 C   0  0  1  0  0  3  0  0  0  0  0  0
  185.3460  179.2080  145.0220 S   0  0  0  0  0  0  0  0  0  0  0  0
  184.8960  177.6180  142.8300 C   0  0  0  0  0  2  0  0  0  0  0  0
  179.8930  177.8460  138.7190 C   0  0  0  0  0  3  0  0  0  0  0  0
  181.5530  178.6270  141.8100 C   0  0  0  0  0  2  0  0  0  0  0  0
  179.0500  176.5890  136.8400 O   0  0  0  0  0  1  0  0  0  0  0  0
  184.0970  179.4150  139.8430 C   0  0  2  0  0  3  0  0  0  0  0  0
  180.6740  179.1030  140.6900 C   0  0  0  0  0  0  0  0  0  0  0  0
  182.1230  178.5830  137.2190 C   0  0  0  0  0  3  0  0  0  0  0  0
  182.0030  179.0330  138.5390 C   0  0  0  0  0  0  0  0  0  0  0  0
  181.1440  177.7640  136.6520 C   0  0  0  0  0  3  0  0  0  0  0  0
  180.0270  177.3990  137.4020 C   0  0  0  0  0  0  0  0  0  0  0  0
  180.8700  178.6630  139.2990 C   0  0  0  0  0  0  0  0  0  0  0  0
  182.7480  178.0720  141.3410 O   0  0  0  0  0  0  0  0  0  0  0  0
  179.6720  179.8150  140.9730 O   0  0  0  0  0  0  0  0  0  0  0  0
  183.6340  179.1450  141.2810 C   0  0  1  0  0  3  0  0  0  0  0  0
  182.9980  179.8790  139.0510 O   0  0  0  0  0  0  0  0  0  0  0  0
  185.6700  178.6280  138.0840 C   0  0  2  0  0  3  0  0  0  0  0  0
  186.1860  178.3410  139.3540 O   0  0  0  0  0  0  0  0  0  0  0  0
  184.7910  178.2080  139.2010 C   0  0  1  0  0  3  0  0  0  0  0  0
  185.8940  177.5430  137.2400 O   0  0  0  0  0  1  0  0  0  0  0  0
  187.1820  178.1150  146.3660 C   0  0  0  0  0  1  0  0  0  0  0  0
  187.6900  177.1360  145.3200 C   0  0  2  0  0  3  0  0  0  0  0  0
  189.1000  177.5560  144.8640 C   0  0  2  0  0  0  0  0  0  0  0  0
  189.2850  177.8680  143.3810 C   0  0  0  0  0  2  0  0  0  0  0  0
  191.7440  177.6000  143.6010 C   0  0  0  0  0  2  0  0  0  0  0  0
  190.3320  177.2110  145.7210 C   0  0  1  0  0  0  0  0  0  0  0  0
  190.5190  177.1830  142.8030 C   0  0  0  0  0  2  0  0  0  0  0  0
  191.6800  177.0030  145.0040 C   0  0  0  0  0  2  0  0  0  0  0  0
  189.7880  178.6280  145.7130 C   0  0  0  0  0  2  0  0  0  0  0  0
  190.1230  176.5160  147.0600 C   0  0  0  0  0  3  0  0  0  0  0  0
  189.9870  177.4550  148.0830 O   0  0  0  0  0  1  0  0  0  0  0  0
  191.1920  175.6700  147.3440 O   0  0  0  0  0  1  0  0  0  0  0  0
  1 26  1  0  0  0  0
  2  1  2  0  0  0  0
  2  5  1  0  0  0  0
  3  5  1  0  0  0  0
  4  6  1  1  0  0  0
  4  3  1  0  0  0  0
  6  2  1  0  0  0  0
  7 16  1  0  0  0  0
  9 15  1  0  0  0  0
 10 20  1  6  0  0  0
 10 19  1  0  0  0  0
 11 18  2  0  0  0  0
 11  8  1  0  0  0  0
 12 13  1  0  0  0  0
 13 20  1  0  0  0  0
 13 16  2  0  0  0  0
 14 12  2  0  0  0  0
 14 15  1  0  0  0  0
 15  7  2  0  0  0  0
 16 11  1  0  0  0  0
 17  8  1  0  0  0  0
 19 17  1  6  0  0  0
 19  4  1  0  0  0  0
 21 24  1  6  0  0  0
 21 23  1  0  0  0  0
 21 22  1  0  0  0  0
 23 22  1  1  0  0  0
 23 10  1  0  0  0  0
 26 25  1  1  0  0  0
 27 26  1  1  0  0  0
 27 33  1  0  0  0  0
 27 30  1  0  0  0  0
 28 27  1  0  0  0  0
 29 32  1  0  0  0  0
 30 34  1  1  0  0  0
 31 28  1  0  0  0  0
 31 29  1  0  0  0  0
 32 30  1  0  0  0  0
 33 30  1  0  0  0  0
 34 36  1  0  0  0  0
 34 35  1  0  0  0  0
M  END
>  <MODEL>
8

>  <REMARK>
 VINA RESULT:      -6.7      2.650     10.094
  Name = 
  5 active torsions:
  status: ('A' for Active; 'I' for Inactive)
    1  A    between atoms: N_4  and  C_10
    2  A    between atoms: C_7  and  C_28
    3  A    between atoms: C_10  and  C_13
    4  A    between atoms: C_12  and  C_35
    5  A    between atoms: C_19  and  C_24
                            x       y       z     vdW  Elec       q    Type
                         _______ _______ _______ _____ _____    ______ ____

>  <TORSDO>
F 5

$$$$
=
 OpenBabel11062417093D

 36 41  0  0  1  0  0  0  0  0999 V2000
  194.3720  175.3560  137.4150 N   0  0  0  0  0  0  0  0  0  0  0  0
  193.3500  176.1390  137.3760 C   0  0  0  0  0  0  0  0  0  0  0  0
  190.8770  176.6170  137.0180 C   0  0  0  0  0  2  0  0  0  0  0  0
  191.2890  176.3740  138.4710 C   0  0  1  0  0  3  0  0  0  0  0  0
  192.3330  176.3910  135.9250 S   0  0  0  0  0  0  0  0  0  0  0  0
  192.7620  176.6600  138.6220 C   0  0  0  0  0  2  0  0  0  0  0  0
  187.8600  177.7750  143.3960 C   0  0  0  0  0  3  0  0  0  0  0  0
  190.8590  176.8190  141.6600 C   0  0  0  0  0  2  0  0  0  0  0  0
  185.6890  177.6350  144.4380 O   0  0  0  0  0  1  0  0  0  0  0  0
  189.2450  177.9120  138.9850 C   0  0  2  0  0  3  0  0  0  0  0  0
  190.1180  177.8850  142.4150 C   0  0  0  0  0  0  0  0  0  0  0  0
  186.6670  178.6760  141.0440 C   0  0  0  0  0  3  0  0  0  0  0  0
  188.0570  178.5190  141.0930 C   0  0  0  0  0  0  0  0  0  0  0  0
  185.8750  178.3770  142.1540 C   0  0  0  0  0  3  0  0  0  0  0  0
  186.4730  177.9300  143.3320 C   0  0  0  0  0  0  0  0  0  0  0  0
  188.6630  178.0670  142.2870 C   0  0  0  0  0  0  0  0  0  0  0  0
  190.1130  176.3180  140.5890 O   0  0  0  0  0  0  0  0  0  0  0  0
  190.7510  178.5700  143.2640 O   0  0  0  0  0  0  0  0  0  0  0  0
  190.4570  177.1310  139.5110 C   0  0  1  0  0  3  0  0  0  0  0  0
  188.8110  178.8640  139.9620 O   0  0  0  0  0  0  0  0  0  0  0  0
  187.1740  177.7210  137.6200 C   0  0  2  0  0  3  0  0  0  0  0  0
  188.1570  176.8530  137.1260 O   0  0  0  0  0  0  0  0  0  0  0  0
  188.1000  177.0010  138.5270 C   0  0  1  0  0  3  0  0  0  0  0  0
  185.9410  177.0730  137.6100 O   0  0  0  0  0  1  0  0  0  0  0  0
  194.1800  173.5160  135.8030 C   0  0  0  0  0  1  0  0  0  0  0  0
  194.9780  174.7270  136.2580 C   0  0  2  0  0  3  0  0  0  0  0  0
  196.4370  174.3120  136.5250 C   0  0  2  0  0  0  0  0  0  0  0  0
  197.5090  174.9310  135.6320 C   0  0  0  0  0  2  0  0  0  0  0  0
  199.1140  173.1480  136.2730 C   0  0  0  0  0  2  0  0  0  0  0  0
  196.7490  173.0110  137.2870 C   0  0  1  0  0  0  0  0  0  0  0  0
  198.4840  173.8850  135.1010 C   0  0  0  0  0  2  0  0  0  0  0  0
  198.0670  172.2790  136.9660 C   0  0  0  0  0  2  0  0  0  0  0  0
  196.8870  174.3510  137.9870 C   0  0  0  0  0  2  0  0  0  0  0  0
  195.5930  172.1850  137.8360 C   0  0  0  0  0  3  0  0  0  0  0  0
  195.2380  172.6280  139.1110 O   0  0  0  0  0  1  0  0  0  0  0  0
  195.9360  170.8370  137.8890 O   0  0  0  0  0  1  0  0  0  0  0  0
  2  1  2  0  0  0  0
  2  6  1  0  0  0  0
  4  3  1  6  0  0  0
  4  6  1  0  0  0  0
  4 19  1  0  0  0  0
  5  3  1  0  0  0  0
  5  2  1  0  0  0  0
  8 11  1  0  0  0  0
 10 19  1  0  0  0  0
 10 20  1  1  0  0  0
 11 18  2  0  0  0  0
 12 13  2  0  0  0  0
 12 14  1  0  0  0  0
 13 16  1  0  0  0  0
 14 15  2  0  0  0  0
 15  7  1  0  0  0  0
 15  9  1  0  0  0  0
 16 11  1  0  0  0  0
 16  7  2  0  0  0  0
 17  8  1  0  0  0  0
 19 17  1  1  0  0  0
 20 13  1  0  0  0  0
 21 24  1  1  0  0  0
 21 23  1  0  0  0  0
 22 21  1  0  0  0  0
 23 22  1  6  0  0  0
 23 10  1  0  0  0  0
 26 25  1  1  0  0  0
 26  1  1  0  0  0  0
 27 26  1  6  0  0  0
 27 30  1  0  0  0  0
 27 33  1  0  0  0  0
 28 27  1  0  0  0  0
 29 32  1  0  0  0  0
 30 34  1  1  0  0  0
 30 33  1  0  0  0  0
 31 28  1  0  0  0  0
 31 29  1  0  0  0  0
 32 30  1  0  0  0  0
 34 36  1  0  0  0  0
 34 35  1  0  0  0  0
M  END
>  <MODEL>
9

>  <REMARK>
 VINA RESULT:      -6.4      6.613     12.061
  Name = 
  5 active torsions:
  status: ('A' for Active; 'I' for Inactive)
    1  A    between atoms: N_4  and  C_10
    2  A    between atoms: C_7  and  C_28
    3  A    between atoms: C_10  and  C_13
    4  A    between atoms: C_12  and  C_35
    5  A    between atoms: C_19  and  C_24
                            x       y       z     vdW  Elec       q    Type
                         _______ _______ _______ _____ _____    ______ ____

>  <TORSDO>
F 5

$$$$
